
     RDKit          3D

 51 54  0  0  0  0  0  0  0  0999 V2000
    3.7236    0.6915    3.6041 C   0  0  0  0  0  0  0  0  0  0  0  0
    2.9804   -0.2655    2.6656 C   0  0  0  0  0  0  0  0  0  0  0  0
    1.5184   -0.4528    3.1077 C   0  0  0  0  0  0  0  0  0  0  0  0
    0.7972    0.4162    2.1238 C   0  0  0  0  0  0  0  0  0  0  0  0
   -0.5388    0.7892    2.1751 C   0  0  0  0  0  0  0  0  0  0  0  0
   -1.0335    1.5770    1.1347 C   0  0  0  0  0  0  0  0  0  0  0  0
   -2.7363    2.0861    1.1695 S   0  0  0  0  0  6  0  0  0  0  0  0
   -3.0993    2.2980    2.5527 O   0  0  0  0  0  0  0  0  0  0  0  0
   -2.9200    3.1082    0.1638 O   0  0  0  0  0  0  0  0  0  0  0  0
   -3.5359    0.7126    0.6656 N   0  0  0  0  0  0  0  0  0  0  0  0
   -3.2698    0.1661   -0.6574 C   0  0  0  0  0  0  0  0  0  0  0  0
   -4.3002   -0.8726   -1.0261 C   0  0  0  0  0  0  0  0  0  0  0  0
   -5.6223   -0.4871   -1.2931 C   0  0  0  0  0  0  0  0  0  0  0  0
   -6.5856   -1.4411   -1.6233 C   0  0  0  0  0  0  0  0  0  0  0  0
   -6.2385   -2.7892   -1.6866 C   0  0  0  0  0  0  0  0  0  0  0  0
   -4.9294   -3.1851   -1.4175 C   0  0  0  0  0  0  0  0  0  0  0  0
   -3.9639   -2.2325   -1.0862 C   0  0  0  0  0  0  0  0  0  0  0  0
   -0.1984    1.9956    0.0870 C   0  0  0  0  0  0  0  0  0  0  0  0
    1.1459    1.5994    0.0524 C   0  0  0  0  0  0  0  0  0  0  0  0
    1.6364    0.7932    1.0660 C   0  0  0  0  0  0  0  0  0  0  0  0
    2.9252    0.2693    1.2828 N   0  0  0  0  0  0  0  0  0  0  0  0
    4.0479    0.1908    0.4617 C   0  0  0  0  0  0  0  0  0  0  0  0
    5.1190   -0.2269    0.9329 O   0  0  0  0  0  0  0  0  0  0  0  0
    3.9421    0.5590   -1.0351 C   0  0  0  0  0  0  0  0  0  0  0  0
    5.1321    0.1256   -1.9511 C   0  0  0  0  0  0  0  0  0  0  0  0
    4.1035   -0.1228   -3.0663 C   0  0  0  0  0  0  0  0  0  0  0  0
    3.0629   -0.3426   -1.9549 C   0  0  0  0  0  0  0  0  0  0  0  0
    3.7357    0.2967    4.6255 H   0  0  0  0  0  0  0  0  0  0  0  0
    4.7620    0.8332    3.2886 H   0  0  0  0  0  0  0  0  0  0  0  0
    3.2507    1.6796    3.6255 H   0  0  0  0  0  0  0  0  0  0  0  0
    3.5030   -1.2300    2.6629 H   0  0  0  0  0  0  0  0  0  0  0  0
    1.3402   -0.1515    4.1441 H   0  0  0  0  0  0  0  0  0  0  0  0
    1.2030   -1.4927    2.9682 H   0  0  0  0  0  0  0  0  0  0  0  0
   -1.1736    0.4812    3.0011 H   0  0  0  0  0  0  0  0  0  0  0  0
   -3.8411    0.0813    1.4027 H   0  0  0  0  0  0  0  0  0  0  0  0
   -3.2775    0.9546   -1.4181 H   0  0  0  0  0  0  0  0  0  0  0  0
   -2.2752   -0.2932   -0.6686 H   0  0  0  0  0  0  0  0  0  0  0  0
   -5.9061    0.5627   -1.2390 H   0  0  0  0  0  0  0  0  0  0  0  0
   -7.6072   -1.1319   -1.8288 H   0  0  0  0  0  0  0  0  0  0  0  0
   -6.9894   -3.5317   -1.9440 H   0  0  0  0  0  0  0  0  0  0  0  0
   -4.6614   -4.2376   -1.4655 H   0  0  0  0  0  0  0  0  0  0  0  0
   -2.9487   -2.5621   -0.8772 H   0  0  0  0  0  0  0  0  0  0  0  0
   -0.5836    2.6402   -0.7017 H   0  0  0  0  0  0  0  0  0  0  0  0
    1.7609    1.9740   -0.7531 H   0  0  0  0  0  0  0  0  0  0  0  0
    3.7682    1.6349   -1.1696 H   0  0  0  0  0  0  0  0  0  0  0  0
    5.8739    0.9007   -2.1618 H   0  0  0  0  0  0  0  0  0  0  0  0
    5.6525   -0.7839   -1.6285 H   0  0  0  0  0  0  0  0  0  0  0  0
    3.9055    0.7575   -3.6885 H   0  0  0  0  0  0  0  0  0  0  0  0
    4.2979   -0.9816   -3.7130 H   0  0  0  0  0  0  0  0  0  0  0  0
    2.9860   -1.3839   -1.6195 H   0  0  0  0  0  0  0  0  0  0  0  0
    2.0614    0.0238   -2.1915 H   0  0  0  0  0  0  0  0  0  0  0  0
  1  2  1  0
  2  3  1  0
  3  4  1  0
  4  5  2  0
  5  6  1  0
  6  7  1  0
  7  8  2  0
  7  9  2  0
  7 10  1  0
 10 11  1  0
 11 12  1  0
 12 13  2  0
 13 14  1  0
 14 15  2  0
 15 16  1  0
 16 17  2  0
  6 18  2  0
 18 19  1  0
 19 20  2  0
 20 21  1  0
 21 22  1  0
 22 23  2  0
 22 24  1  0
 24 25  1  0
 25 26  1  0
 26 27  1  0
 21  2  1  0
 27 24  1  0
 20  4  1  0
 17 12  1  0
  1 28  1  0
  1 29  1  0
  1 30  1  0
  2 31  1  0
  3 32  1  0
  3 33  1  0
  5 34  1  0
 10 35  1  0
 11 36  1  0
 11 37  1  0
 13 38  1  0
 14 39  1  0
 15 40  1  0
 16 41  1  0
 17 42  1  0
 18 43  1  0
 19 44  1  0
 24 45  1  0
 25 46  1  0
 25 47  1  0
 26 48  1  0
 26 49  1  0
 27 50  1  0
 27 51  1  0
M  END
$$$$
