
     RDKit          3D

 77 83  0  0  0  0  0  0  0  0999 V2000
   -7.4385   -1.7760    0.1367 C   0  0  0  0  0  0  0  0  0  0  0  0
   -6.7607   -0.9040   -0.9255 C   0  0  0  0  0  0  0  0  0  0  0  0
   -7.1381   -1.3329   -2.3475 C   0  0  0  0  0  0  0  0  0  0  0  0
   -7.2058    0.5522   -0.7198 C   0  0  0  0  0  0  0  0  0  0  0  0
   -5.3222   -0.8757   -0.7464 O   0  0  0  0  0  0  0  0  0  0  0  0
   -4.5769   -2.0042   -0.8616 C   0  0  0  0  0  0  0  0  0  0  0  0
   -5.0333   -3.1109   -1.1204 O   0  0  0  0  0  0  0  0  0  0  0  0
   -3.2295   -1.7647   -0.6508 N   0  0  0  0  0  0  0  0  0  0  0  0
   -2.2850   -2.8472   -0.9761 C   0  0  0  0  0  0  0  0  0  0  0  0
   -0.8896   -2.6991   -0.3184 C   0  0  0  0  0  0  0  0  0  0  0  0
   -0.4135   -1.3434   -0.5282 N   0  0  0  0  0  0  0  0  0  0  0  0
   -1.3471   -0.3601    0.1112 C   0  0  2  0  0  0  0  0  0  0  0  0
   -2.6827   -0.3889   -0.6226 C   0  0  0  0  0  0  0  0  0  0  0  0
   -0.5152    0.8571    0.0559 C   0  0  0  0  0  0  0  0  0  0  0  0
    0.8373    0.5092   -0.0879 C   0  0  0  0  0  0  0  0  0  0  0  0
    1.5877    1.6525   -0.0433 C   0  0  0  0  0  0  0  0  0  0  0  0
    2.9144    1.7646   -0.0185 O   0  0  0  0  0  0  0  0  0  0  0  0
    0.6870    2.7312    0.0556 N   0  0  0  0  0  0  0  0  0  0  0  0
    1.0481    4.1089    0.1069 C   0  0  0  0  0  0  0  0  0  0  0  0
    0.3772    4.9802    0.9747 C   0  0  0  0  0  0  0  0  0  0  0  0
    0.7395    6.3275    1.0226 C   0  0  0  0  0  0  0  0  0  0  0  0
    1.7643    6.8071    0.2071 C   0  0  0  0  0  0  0  0  0  0  0  0
    2.4339    5.9413   -0.6567 C   0  0  0  0  0  0  0  0  0  0  0  0
    2.0808    4.5921   -0.7081 C   0  0  0  0  0  0  0  0  0  0  0  0
   -0.6249    2.2172    0.1054 C   0  0  0  0  0  0  0  0  0  0  0  0
   -1.7355    2.9517    0.1329 O   0  0  0  0  0  0  0  0  0  0  0  0
    0.9772   -0.9687   -0.1720 C   0  0  1  0  0  0  0  0  0  0  0  0
    1.5210   -1.5911    1.1377 C   0  0  0  0  0  0  0  0  0  0  0  0
    0.9839   -1.5971    2.2389 O   0  0  0  0  0  0  0  0  0  0  0  0
    2.7616   -2.1682    0.8160 N   0  0  0  0  0  0  0  0  0  0  0  0
    3.6338   -2.7683    1.7968 C   0  0  0  0  0  0  0  0  0  0  0  0
    4.6460   -1.7929    2.3544 C   0  0  0  0  0  0  0  0  0  0  0  0
    4.2363   -0.7507    3.2009 C   0  0  0  0  0  0  0  0  0  0  0  0
    5.1649    0.1542    3.7180 C   0  0  0  0  0  0  0  0  0  0  0  0
    6.5140    0.0284    3.3958 C   0  0  0  0  0  0  0  0  0  0  0  0
    6.9352   -1.0021    2.5570 C   0  0  0  0  0  0  0  0  0  0  0  0
    6.0072   -1.9086    2.0388 C   0  0  0  0  0  0  0  0  0  0  0  0
    3.0589   -2.0071   -0.5478 C   0  0  0  0  0  0  0  0  0  0  0  0
    4.1684   -2.4442   -1.2486 C   0  0  0  0  0  0  0  0  0  0  0  0
    4.2214   -2.1897   -2.6228 C   0  0  0  0  0  0  0  0  0  0  0  0
    3.1753   -1.5124   -3.2701 C   0  0  0  0  0  0  0  0  0  0  0  0
    2.0619   -1.0724   -2.5524 C   0  0  0  0  0  0  0  0  0  0  0  0
    2.0194   -1.3195   -1.1870 C   0  0  0  0  0  0  0  0  0  0  0  0
   -7.2098   -2.8378    0.0029 H   0  0  0  0  0  0  0  0  0  0  0  0
   -7.0935   -1.5050    1.1404 H   0  0  0  0  0  0  0  0  0  0  0  0
   -8.5277   -1.6698    0.1026 H   0  0  0  0  0  0  0  0  0  0  0  0
   -8.2072   -1.1877   -2.5370 H   0  0  0  0  0  0  0  0  0  0  0  0
   -6.5712   -0.7597   -3.0896 H   0  0  0  0  0  0  0  0  0  0  0  0
   -6.9152   -2.3883   -2.5301 H   0  0  0  0  0  0  0  0  0  0  0  0
   -6.7184    1.2153   -1.4449 H   0  0  0  0  0  0  0  0  0  0  0  0
   -8.2908    0.6650   -0.8224 H   0  0  0  0  0  0  0  0  0  0  0  0
   -6.9117    0.9126    0.2735 H   0  0  0  0  0  0  0  0  0  0  0  0
   -2.1770   -2.8474   -2.0687 H   0  0  0  0  0  0  0  0  0  0  0  0
   -2.7196   -3.8124   -0.6924 H   0  0  0  0  0  0  0  0  0  0  0  0
   -0.2102   -3.4287   -0.7733 H   0  0  0  0  0  0  0  0  0  0  0  0
   -0.9650   -2.9339    0.7500 H   0  0  0  0  0  0  0  0  0  0  0  0
   -1.5033   -0.6266    1.1667 H   0  0  0  0  0  0  0  0  0  0  0  0
   -3.3898    0.2906   -0.1346 H   0  0  0  0  0  0  0  0  0  0  0  0
   -2.5805   -0.0587   -1.6643 H   0  0  0  0  0  0  0  0  0  0  0  0
    3.1584    2.6044    0.4086 H   0  0  0  0  0  0  0  0  0  0  0  0
   -0.3933    4.6220    1.6555 H   0  0  0  0  0  0  0  0  0  0  0  0
    0.2299    7.0033    1.7058 H   0  0  0  0  0  0  0  0  0  0  0  0
    2.0431    7.8576    0.2464 H   0  0  0  0  0  0  0  0  0  0  0  0
    3.2265    6.3203   -1.2982 H   0  0  0  0  0  0  0  0  0  0  0  0
    2.5917    3.9448   -1.4193 H   0  0  0  0  0  0  0  0  0  0  0  0
   -1.5268    3.8531   -0.1692 H   0  0  0  0  0  0  0  0  0  0  0  0
    4.1262   -3.6436    1.3579 H   0  0  0  0  0  0  0  0  0  0  0  0
    3.0269   -3.1473    2.6286 H   0  0  0  0  0  0  0  0  0  0  0  0
    3.1854   -0.6382    3.4632 H   0  0  0  0  0  0  0  0  0  0  0  0
    4.8319    0.9556    4.3721 H   0  0  0  0  0  0  0  0  0  0  0  0
    7.2370    0.7326    3.7991 H   0  0  0  0  0  0  0  0  0  0  0  0
    7.9881   -1.0996    2.3057 H   0  0  0  0  0  0  0  0  0  0  0  0
    6.3573   -2.7052    1.3872 H   0  0  0  0  0  0  0  0  0  0  0  0
    4.9815   -2.9731   -0.7676 H   0  0  0  0  0  0  0  0  0  0  0  0
    5.0819   -2.5205   -3.1996 H   0  0  0  0  0  0  0  0  0  0  0  0
    3.2349   -1.3252   -4.3397 H   0  0  0  0  0  0  0  0  0  0  0  0
    1.2519   -0.5438   -3.0457 H   0  0  0  0  0  0  0  0  0  0  0  0
  1  2  1  0
  2  3  1  0
  2  4  1  0
  2  5  1  0
  5  6  1  0
  6  7  2  0
  6  8  1  0
  8  9  1  0
  9 10  1  0
 10 11  1  0
 11 12  1  0
 12 13  1  0
 12 14  1  0
 14 15  1  0
 15 16  2  0
 16 17  1  0
 16 18  1  0
 18 19  1  0
 19 20  2  0
 20 21  1  0
 21 22  2  0
 22 23  1  0
 23 24  2  0
 18 25  1  0
 25 26  1  0
 15 27  1  0
 27 28  1  0
 28 29  2  0
 28 30  1  0
 30 31  1  0
 31 32  1  0
 32 33  2  0
 33 34  1  0
 34 35  2  0
 35 36  1  0
 36 37  2  0
 30 38  1  0
 38 39  2  0
 39 40  1  0
 40 41  2  0
 41 42  1  0
 42 43  2  0
 13  8  1  0
 25 14  2  0
 43 27  1  0
 27 11  1  6
 37 32  1  0
 43 38  1  0
 24 19  1  0
  1 44  1  0
  1 45  1  0
  1 46  1  0
  3 47  1  0
  3 48  1  0
  3 49  1  0
  4 50  1  0
  4 51  1  0
  4 52  1  0
  9 53  1  0
  9 54  1  0
 10 55  1  0
 10 56  1  0
 12 57  1  1
 13 58  1  0
 13 59  1  0
 17 60  1  0
 20 61  1  0
 21 62  1  0
 22 63  1  0
 23 64  1  0
 24 65  1  0
 26 66  1  0
 31 67  1  0
 31 68  1  0
 33 69  1  0
 34 70  1  0
 35 71  1  0
 36 72  1  0
 37 73  1  0
 39 74  1  0
 40 75  1  0
 41 76  1  0
 42 77  1  0
M  END
$$$$
