
     RDKit          3D

 43 46  0  0  0  0  0  0  0  0999 V2000
   -4.5041   -3.0434   -1.2212 C   0  0  0  0  0  0  0  0  0  0  0  0
   -3.9811   -1.6922   -1.3575 N   0  0  0  0  0  0  0  0  0  0  0  0
   -4.6138   -0.8410   -2.2619 C   0  0  0  0  0  0  0  0  0  0  0  0
   -5.5761   -1.1751   -2.9489 O   0  0  0  0  0  0  0  0  0  0  0  0
   -4.0736    0.5867   -2.4042 C   0  0  0  0  0  0  0  0  0  0  0  0
   -4.6232    1.3446   -3.1997 O   0  0  0  0  0  0  0  0  0  0  0  0
   -2.9794    0.9518   -1.6221 N   0  0  0  0  0  0  0  0  0  0  0  0
   -2.4767    2.3118   -1.7535 C   0  0  0  0  0  0  0  0  0  0  0  0
   -2.3670    0.0416   -0.7180 C   0  0  0  0  0  0  0  0  0  0  0  0
   -1.2599    0.4338    0.0541 C   0  0  0  0  0  0  0  0  0  0  0  0
   -0.6541   -0.4645    0.9376 C   0  0  0  0  0  0  0  0  0  0  0  0
    0.7470    0.0843    1.8906 S   0  0  0  0  0  6  0  0  0  0  0  0
    1.2325   -1.0489    2.6517 O   0  0  0  0  0  0  0  0  0  0  0  0
    0.3291    1.3099    2.5378 O   0  0  0  0  0  0  0  0  0  0  0  0
    1.8815    0.4275    0.6599 N   0  0  0  0  0  0  0  0  0  0  0  0
    2.3523   -0.7578   -0.1420 C   0  0  0  0  0  0  0  0  0  0  0  0
    3.8549   -0.9246    0.1343 C   0  0  0  0  0  0  0  0  0  0  0  0
    4.2113    0.3793    0.7631 C   0  0  0  0  0  0  0  0  0  0  0  0
    5.4746    0.8591    1.0709 C   0  0  0  0  0  0  0  0  0  0  0  0
    5.5751    2.0962    1.7112 C   0  0  0  0  0  0  0  0  0  0  0  0
    4.4225    2.8280    2.0362 C   0  0  0  0  0  0  0  0  0  0  0  0
    3.1542    2.3304    1.7268 C   0  0  0  0  0  0  0  0  0  0  0  0
    3.0693    1.0991    1.1015 C   0  0  0  0  0  0  0  0  0  0  0  0
   -1.1418   -1.7565    1.0817 C   0  0  0  0  0  0  0  0  0  0  0  0
   -2.2413   -2.1532    0.3200 C   0  0  0  0  0  0  0  0  0  0  0  0
   -2.8643   -1.2702   -0.5856 C   0  0  0  0  0  0  0  0  0  0  0  0
   -5.3628   -3.2224   -1.8744 H   0  0  0  0  0  0  0  0  0  0  0  0
   -3.7258   -3.7641   -1.4917 H   0  0  0  0  0  0  0  0  0  0  0  0
   -4.8335   -3.2041   -0.1897 H   0  0  0  0  0  0  0  0  0  0  0  0
   -2.5493    2.8219   -0.7875 H   0  0  0  0  0  0  0  0  0  0  0  0
   -3.0492    2.8954   -2.4799 H   0  0  0  0  0  0  0  0  0  0  0  0
   -1.4371    2.2842   -2.0953 H   0  0  0  0  0  0  0  0  0  0  0  0
   -0.8463    1.4372   -0.0091 H   0  0  0  0  0  0  0  0  0  0  0  0
    1.8093   -1.6815    0.0775 H   0  0  0  0  0  0  0  0  0  0  0  0
    2.1817   -0.5263   -1.2009 H   0  0  0  0  0  0  0  0  0  0  0  0
    4.4110   -1.1117   -0.7887 H   0  0  0  0  0  0  0  0  0  0  0  0
    4.0298   -1.7417    0.8421 H   0  0  0  0  0  0  0  0  0  0  0  0
    6.3667    0.2899    0.8294 H   0  0  0  0  0  0  0  0  0  0  0  0
    6.5545    2.4963    1.9644 H   0  0  0  0  0  0  0  0  0  0  0  0
    4.5170    3.7908    2.5331 H   0  0  0  0  0  0  0  0  0  0  0  0
    2.2675    2.9064    1.9691 H   0  0  0  0  0  0  0  0  0  0  0  0
   -0.6847   -2.4558    1.7789 H   0  0  0  0  0  0  0  0  0  0  0  0
   -2.5965   -3.1707    0.4600 H   0  0  0  0  0  0  0  0  0  0  0  0
  1  2  1  0
  2  3  1  0
  3  4  2  0
  3  5  1  0
  5  6  2  0
  5  7  1  0
  7  8  1  0
  7  9  1  0
  9 10  2  0
 10 11  1  0
 11 12  1  0
 12 13  2  0
 12 14  2  0
 12 15  1  0
 15 16  1  0
 16 17  1  0
 17 18  1  0
 18 19  2  0
 19 20  1  0
 20 21  2  0
 21 22  1  0
 22 23  2  0
 11 24  2  0
 24 25  1  0
 25 26  2  0
 26  2  1  0
 26  9  1  0
 23 15  1  0
 23 18  1  0
  1 27  1  0
  1 28  1  0
  1 29  1  0
  8 30  1  0
  8 31  1  0
  8 32  1  0
 10 33  1  0
 16 34  1  0
 16 35  1  0
 17 36  1  0
 17 37  1  0
 19 38  1  0
 20 39  1  0
 21 40  1  0
 22 41  1  0
 24 42  1  0
 25 43  1  0
M  END
$$$$
