
     RDKit          3D

 22 22  0  0  0  0  0  0  0  0999 V2000
    3.0083    1.1679   -0.0859 C   0  0  0  0  0  0  0  0  0  0  0  0
    1.5371    0.8722   -0.1751 C   0  0  0  0  0  0  0  0  0  0  0  0
    0.7842    1.8410   -0.7584 N   0  0  0  0  0  0  0  0  0  0  0  0
   -0.5544    1.6600   -0.7972 C   0  0  0  0  0  0  0  0  0  0  0  0
   -1.1928    0.5393   -0.2987 C   0  0  0  0  0  0  0  0  0  0  0  0
   -2.6630    0.5006   -0.2718 C   0  0  0  0  0  0  0  0  0  0  0  0
   -3.3578    0.0152    0.5994 O   0  0  0  0  0  0  0  0  0  0  0  0
   -3.1979    1.0981   -1.3514 O   0  0  0  0  0  0  0  0  0  0  0  0
   -0.4005   -0.4727    0.2510 C   0  0  0  0  0  0  0  0  0  0  0  0
   -1.0089   -1.7498    0.6742 C   0  0  0  0  0  0  0  0  0  0  0  0
   -0.7188   -2.4056    1.6566 O   0  0  0  0  0  0  0  0  0  0  0  0
   -1.8519   -2.2184   -0.2647 O   0  0  0  0  0  0  0  0  0  0  0  0
    1.0020   -0.3282    0.3270 C   0  0  0  0  0  0  0  0  0  0  0  0
    1.8097   -1.2366    1.0316 N   0  0  0  0  0  0  0  0  0  0  0  0
    3.2342    2.1502   -0.5141 H   0  0  0  0  0  0  0  0  0  0  0  0
    3.3343    1.1755    0.9588 H   0  0  0  0  0  0  0  0  0  0  0  0
    3.5812    0.4203   -0.6431 H   0  0  0  0  0  0  0  0  0  0  0  0
   -1.1085    2.4861   -1.2362 H   0  0  0  0  0  0  0  0  0  0  0  0
   -4.1659    0.9881   -1.2331 H   0  0  0  0  0  0  0  0  0  0  0  0
   -2.2066   -3.0471    0.1216 H   0  0  0  0  0  0  0  0  0  0  0  0
    2.7688   -1.3360    0.7189 H   0  0  0  0  0  0  0  0  0  0  0  0
    1.3673   -2.1201    1.2907 H   0  0  0  0  0  0  0  0  0  0  0  0
  1  2  1  0
  2  3  2  0
  3  4  1  0
  4  5  2  0
  5  6  1  0
  6  7  2  0
  6  8  1  0
  5  9  1  0
  9 10  1  0
 10 11  2  0
 10 12  1  0
  9 13  2  0
 13 14  1  0
 13  2  1  0
  1 15  1  0
  1 16  1  0
  1 17  1  0
  4 18  1  0
  8 19  1  0
 12 20  1  0
 14 21  1  0
 14 22  1  0
M  END
$$$$
