
     RDKit          3D

 41 42  0  0  0  0  0  0  0  0999 V2000
    4.4843   -2.4171    1.0499 C   0  0  0  0  0  0  0  0  0  0  0  0
    3.3423   -1.6480    0.6874 O   0  0  0  0  0  0  0  0  0  0  0  0
    3.5680   -0.4205    0.1058 C   0  0  0  0  0  0  0  0  0  0  0  0
    4.8300    0.0996   -0.1955 C   0  0  0  0  0  0  0  0  0  0  0  0
    4.9303    1.3648   -0.7932 C   0  0  0  0  0  0  0  0  0  0  0  0
    6.2555    1.9126   -1.1112 N   0  0  0  0  0  4  0  0  0  0  0  0
    7.2463    1.2330   -0.8058 O   0  0  0  0  0  0  0  0  0  0  0  0
    6.3065    3.0186   -1.6668 O   0  0  0  0  0  1  0  0  0  0  0  0
    3.7846    2.1086   -1.0932 C   0  0  0  0  0  0  0  0  0  0  0  0
    2.5247    1.5853   -0.7918 C   0  0  0  0  0  0  0  0  0  0  0  0
    2.4062    0.3290   -0.1902 C   0  0  0  0  0  0  0  0  0  0  0  0
    1.1665   -0.2619    0.1356 N   0  0  0  0  0  0  0  0  0  0  0  0
   -0.0913    0.3104    0.0940 C   0  0  0  0  0  0  0  0  0  0  0  0
   -0.3378    1.4791   -0.1798 O   0  0  0  0  0  0  0  0  0  0  0  0
   -1.0639   -0.6411    0.4214 N   0  0  0  0  0  0  0  0  0  0  0  0
   -2.4240   -0.2688    0.3930 N   0  0  0  0  0  0  0  0  0  0  0  0
   -3.0830   -0.5966   -0.8744 C   0  0  0  0  0  0  0  0  0  0  0  0
   -4.5303   -0.0445   -0.9386 C   0  0  0  0  0  0  0  0  0  0  0  0
   -5.2666    0.0371    0.3443 N   0  0  0  0  0  0  0  0  0  0  0  0
   -5.2325    1.4034    0.8740 C   0  0  0  0  0  0  0  0  0  0  0  0
   -4.6953   -0.9131    1.3144 C   0  0  0  0  0  0  0  0  0  0  0  0
   -3.1670   -0.7987    1.5470 C   0  0  0  0  0  0  0  0  0  0  0  0
    5.0694   -2.6927    0.1664 H   0  0  0  0  0  0  0  0  0  0  0  0
    5.0990   -1.8887    1.7860 H   0  0  0  0  0  0  0  0  0  0  0  0
    4.1291   -3.3417    1.5151 H   0  0  0  0  0  0  0  0  0  0  0  0
    5.7341   -0.4594    0.0234 H   0  0  0  0  0  0  0  0  0  0  0  0
    3.8483    3.0905   -1.5587 H   0  0  0  0  0  0  0  0  0  0  0  0
    1.6509    2.1810   -1.0419 H   0  0  0  0  0  0  0  0  0  0  0  0
    1.2459   -1.1581    0.5989 H   0  0  0  0  0  0  0  0  0  0  0  0
   -0.8357   -1.6037    0.2026 H   0  0  0  0  0  0  0  0  0  0  0  0
   -2.5182   -0.1810   -1.7180 H   0  0  0  0  0  0  0  0  0  0  0  0
   -3.1043   -1.6865   -1.0099 H   0  0  0  0  0  0  0  0  0  0  0  0
   -5.1048   -0.7005   -1.6047 H   0  0  0  0  0  0  0  0  0  0  0  0
   -4.5199    0.9348   -1.4352 H   0  0  0  0  0  0  0  0  0  0  0  0
   -5.7445    2.0873    0.1875 H   0  0  0  0  0  0  0  0  0  0  0  0
   -5.7744    1.4587    1.8249 H   0  0  0  0  0  0  0  0  0  0  0  0
   -4.2172    1.7808    1.0353 H   0  0  0  0  0  0  0  0  0  0  0  0
   -5.2205   -0.8413    2.2751 H   0  0  0  0  0  0  0  0  0  0  0  0
   -4.9107   -1.9246    0.9436 H   0  0  0  0  0  0  0  0  0  0  0  0
   -2.7967   -1.7934    1.8283 H   0  0  0  0  0  0  0  0  0  0  0  0
   -2.9832   -0.1331    2.3989 H   0  0  0  0  0  0  0  0  0  0  0  0
  1  2  1  0
  2  3  1  0
  3  4  2  0
  4  5  1  0
  5  6  1  0
  6  7  2  0
  6  8  1  0
  5  9  2  0
  9 10  1  0
 10 11  2  0
 11 12  1  0
 12 13  1  0
 13 14  2  0
 13 15  1  0
 15 16  1  0
 16 17  1  0
 17 18  1  0
 18 19  1  0
 19 20  1  0
 19 21  1  0
 21 22  1  0
 11  3  1  0
 22 16  1  0
  1 23  1  0
  1 24  1  0
  1 25  1  0
  4 26  1  0
  9 27  1  0
 10 28  1  0
 12 29  1  0
 15 30  1  0
 17 31  1  0
 17 32  1  0
 18 33  1  0
 18 34  1  0
 20 35  1  0
 20 36  1  0
 20 37  1  0
 21 38  1  0
 21 39  1  0
 22 40  1  0
 22 41  1  0
M  CHG  2   6   1   8  -1
M  END
$$$$
