
     RDKit          3D

 51 55  0  0  0  0  0  0  0  0999 V2000
   -1.5266    1.1824    1.0251 C   0  0  0  0  0  0  0  0  0  0  0  0
   -0.1738    1.4545    1.2638 C   0  0  0  0  0  0  0  0  0  0  0  0
    0.7910    0.7553    0.5208 C   0  0  0  0  0  0  0  0  0  0  0  0
    0.4223   -0.1928   -0.4379 C   0  0  0  0  0  0  0  0  0  0  0  0
   -0.9482   -0.4450   -0.6621 C   0  0  0  0  0  0  0  0  0  0  0  0
   -1.9313    0.2453    0.0685 C   0  0  0  0  0  0  0  0  0  0  0  0
   -3.3988   -0.0522   -0.1853 C   0  0  0  0  0  0  0  0  0  0  0  0
   -4.2122    1.2047   -0.5273 C   0  0  0  0  0  0  0  0  0  0  0  0
   -5.6428    0.8535   -0.9472 C   0  0  0  0  0  0  0  0  0  0  0  0
   -6.1842   -0.4123   -0.2799 C   0  0  0  0  0  0  0  0  0  0  0  0
   -5.5516   -0.6512    1.0840 C   0  0  0  0  0  0  0  0  0  0  0  0
   -4.0323   -0.8227    0.9916 C   0  0  0  0  0  0  0  0  0  0  0  0
    1.6199   -0.7047   -1.0044 C   0  0  0  0  0  0  0  0  0  0  0  0
    2.6860   -0.1027   -0.3599 C   0  0  0  0  0  0  0  0  0  0  0  0
    2.1745    0.8165    0.5217 N   0  0  0  0  0  0  0  0  0  0  0  0
    2.9766    1.7652    1.2710 C   0  0  0  0  0  0  0  0  0  0  0  0
    4.0380    1.1182    2.1480 C   0  0  0  0  0  0  0  0  0  0  0  0
    5.2233    0.5769    1.3536 C   0  0  0  0  0  0  0  0  0  0  0  0
    4.9149   -0.6083    0.5631 N   0  0  0  0  0  0  0  0  0  0  0  0
    4.1345   -0.3410   -0.6479 C   0  0  0  0  0  0  0  0  0  0  0  0
    4.2740   -1.5853   -1.5732 C   0  0  0  0  0  0  0  0  0  0  0  0
    3.2111   -1.6242   -2.6830 C   0  0  0  0  0  0  0  0  0  0  0  0
    1.7958   -1.7113   -2.0895 C   0  0  0  0  0  0  0  0  0  0  0  0
   -2.2691    1.7188    1.6122 H   0  0  0  0  0  0  0  0  0  0  0  0
    0.1031    2.1871    2.0139 H   0  0  0  0  0  0  0  0  0  0  0  0
   -1.2327   -1.1830   -1.4068 H   0  0  0  0  0  0  0  0  0  0  0  0
   -3.4567   -0.7055   -1.0684 H   0  0  0  0  0  0  0  0  0  0  0  0
   -3.7301    1.7773   -1.3294 H   0  0  0  0  0  0  0  0  0  0  0  0
   -4.2566    1.8739    0.3418 H   0  0  0  0  0  0  0  0  0  0  0  0
   -6.2952    1.7039   -0.7142 H   0  0  0  0  0  0  0  0  0  0  0  0
   -5.6888    0.7237   -2.0353 H   0  0  0  0  0  0  0  0  0  0  0  0
   -5.9837   -1.2773   -0.9248 H   0  0  0  0  0  0  0  0  0  0  0  0
   -7.2737   -0.3407   -0.1865 H   0  0  0  0  0  0  0  0  0  0  0  0
   -5.9921   -1.5363    1.5568 H   0  0  0  0  0  0  0  0  0  0  0  0
   -5.7807    0.1988    1.7392 H   0  0  0  0  0  0  0  0  0  0  0  0
   -3.7926   -1.8881    0.8765 H   0  0  0  0  0  0  0  0  0  0  0  0
   -3.5974   -0.5264    1.9543 H   0  0  0  0  0  0  0  0  0  0  0  0
    3.4224    2.4533    0.5430 H   0  0  0  0  0  0  0  0  0  0  0  0
    2.3113    2.3570    1.9058 H   0  0  0  0  0  0  0  0  0  0  0  0
    3.5983    0.3236    2.7641 H   0  0  0  0  0  0  0  0  0  0  0  0
    4.4190    1.8785    2.8412 H   0  0  0  0  0  0  0  0  0  0  0  0
    5.9954    0.2901    2.0782 H   0  0  0  0  0  0  0  0  0  0  0  0
    5.6708    1.3608    0.7304 H   0  0  0  0  0  0  0  0  0  0  0  0
    5.7924   -1.0479    0.2882 H   0  0  0  0  0  0  0  0  0  0  0  0
    4.5414    0.5223   -1.1909 H   0  0  0  0  0  0  0  0  0  0  0  0
    5.2751   -1.5959   -2.0225 H   0  0  0  0  0  0  0  0  0  0  0  0
    4.1845   -2.5103   -0.9854 H   0  0  0  0  0  0  0  0  0  0  0  0
    3.3018   -0.7225   -3.3020 H   0  0  0  0  0  0  0  0  0  0  0  0
    3.3857   -2.4848   -3.3384 H   0  0  0  0  0  0  0  0  0  0  0  0
    1.6308   -2.7134   -1.6757 H   0  0  0  0  0  0  0  0  0  0  0  0
    1.0573   -1.5559   -2.8838 H   0  0  0  0  0  0  0  0  0  0  0  0
  1  2  2  0
  2  3  1  0
  3  4  2  0
  4  5  1  0
  5  6  2  0
  6  7  1  0
  7  8  1  0
  8  9  1  0
  9 10  1  0
 10 11  1  0
 11 12  1  0
  4 13  1  0
 13 14  2  0
 14 15  1  0
 15 16  1  0
 16 17  1  0
 17 18  1  0
 18 19  1  0
 19 20  1  0
 20 21  1  0
 21 22  1  0
 22 23  1  0
  6  1  1  0
 12  7  1  0
 23 13  1  0
 15  3  1  0
 20 14  1  0
  1 24  1  0
  2 25  1  0
  5 26  1  0
  7 27  1  0
  8 28  1  0
  8 29  1  0
  9 30  1  0
  9 31  1  0
 10 32  1  0
 10 33  1  0
 11 34  1  0
 11 35  1  0
 12 36  1  0
 12 37  1  0
 16 38  1  0
 16 39  1  0
 17 40  1  0
 17 41  1  0
 18 42  1  0
 18 43  1  0
 19 44  1  0
 20 45  1  0
 21 46  1  0
 21 47  1  0
 22 48  1  0
 22 49  1  0
 23 50  1  0
 23 51  1  0
M  END
$$$$
