
     RDKit          3D

 44 47  0  0  0  0  0  0  0  0999 V2000
    6.4658   -0.3678    0.5802 C   0  0  0  0  0  0  0  0  0  0  0  0
    5.3174   -0.3872    1.5785 C   0  0  0  0  0  0  0  0  0  0  0  0
    3.9852   -0.3630    0.8918 C   0  0  0  0  0  0  0  0  0  0  0  0
    3.2357   -1.4310    0.4404 C   0  0  0  0  0  0  0  0  0  0  0  0
    2.0137   -1.0091   -0.1612 C   0  0  0  0  0  0  0  0  0  0  0  0
    0.9565   -1.8043   -0.7448 C   0  0  0  0  0  0  0  0  0  0  0  0
    1.0398   -3.0286   -0.7889 O   0  0  0  0  0  0  0  0  0  0  0  0
   -0.1316   -1.0664   -1.2291 N   0  0  0  0  0  0  0  0  0  0  0  0
   -1.2387   -1.8532   -1.7841 C   0  0  0  0  0  0  0  0  0  0  0  0
   -2.3662   -2.0677   -0.7920 C   0  0  0  0  0  0  0  0  0  0  0  0
   -2.1588   -2.7987    0.3885 C   0  0  0  0  0  0  0  0  0  0  0  0
   -3.2006   -2.9937    1.2982 C   0  0  0  0  0  0  0  0  0  0  0  0
   -4.4634   -2.4688    1.0374 C   0  0  0  0  0  0  0  0  0  0  0  0
   -4.6888   -1.7550   -0.1371 C   0  0  0  0  0  0  0  0  0  0  0  0
   -3.6485   -1.5598   -1.0488 C   0  0  0  0  0  0  0  0  0  0  0  0
   -0.1264    0.3299   -1.1655 C   0  0  0  0  0  0  0  0  0  0  0  0
   -1.4981    1.1931   -1.8424 S   0  0  0  0  0  0  0  0  0  0  0  0
   -1.2035    2.8787   -1.2380 C   0  0  0  0  0  0  0  0  0  0  0  0
   -1.5014    3.0362    0.2399 C   0  0  0  0  0  0  0  0  0  0  0  0
   -1.8401    4.5016    0.3295 C   0  0  0  0  0  0  0  0  0  0  0  0
   -2.5125    4.8030   -0.8949 O   0  0  0  0  0  0  0  0  0  0  0  0
   -2.1765    3.8680   -1.8365 C   0  0  0  0  0  0  0  0  0  0  0  0
   -2.5848    3.9019   -2.9875 O   0  0  0  0  0  0  0  0  0  0  0  0
    0.8263    1.0477   -0.6553 N   0  0  0  0  0  0  0  0  0  0  0  0
    1.8703    0.3532   -0.1550 C   0  0  0  0  0  0  0  0  0  0  0  0
    3.1973    1.1279    0.5794 S   0  0  0  0  0  0  0  0  0  0  0  0
    6.4411    0.5341   -0.0398 H   0  0  0  0  0  0  0  0  0  0  0  0
    7.4257   -0.3898    1.1044 H   0  0  0  0  0  0  0  0  0  0  0  0
    6.4246   -1.2341   -0.0880 H   0  0  0  0  0  0  0  0  0  0  0  0
    5.4150    0.4630    2.2636 H   0  0  0  0  0  0  0  0  0  0  0  0
    5.3897   -1.2917    2.1944 H   0  0  0  0  0  0  0  0  0  0  0  0
    3.5431   -2.4667    0.5351 H   0  0  0  0  0  0  0  0  0  0  0  0
   -1.6112   -1.3705   -2.6944 H   0  0  0  0  0  0  0  0  0  0  0  0
   -0.8853   -2.8388   -2.1127 H   0  0  0  0  0  0  0  0  0  0  0  0
   -1.1866   -3.2372    0.6071 H   0  0  0  0  0  0  0  0  0  0  0  0
   -3.0260   -3.5640    2.2077 H   0  0  0  0  0  0  0  0  0  0  0  0
   -5.2745   -2.6244    1.7444 H   0  0  0  0  0  0  0  0  0  0  0  0
   -5.6774   -1.3556   -0.3485 H   0  0  0  0  0  0  0  0  0  0  0  0
   -3.8525   -1.0056   -1.9635 H   0  0  0  0  0  0  0  0  0  0  0  0
   -0.1979    3.2319   -1.4958 H   0  0  0  0  0  0  0  0  0  0  0  0
   -2.3781    2.4457    0.5370 H   0  0  0  0  0  0  0  0  0  0  0  0
   -0.6707    2.7656    0.8983 H   0  0  0  0  0  0  0  0  0  0  0  0
   -0.9484    5.1358    0.4056 H   0  0  0  0  0  0  0  0  0  0  0  0
   -2.4988    4.7154    1.1774 H   0  0  0  0  0  0  0  0  0  0  0  0
  1  2  1  0
  2  3  1  0
  3  4  2  0
  4  5  1  0
  5  6  1  0
  6  7  2  0
  6  8  1  0
  8  9  1  0
  9 10  1  0
 10 11  2  0
 11 12  1  0
 12 13  2  0
 13 14  1  0
 14 15  2  0
  8 16  1  0
 16 17  1  0
 17 18  1  0
 18 19  1  0
 19 20  1  0
 20 21  1  0
 21 22  1  0
 22 23  2  0
 16 24  2  0
 24 25  1  0
 25 26  1  0
 26  3  1  0
 25  5  2  0
 15 10  1  0
 22 18  1  0
  1 27  1  0
  1 28  1  0
  1 29  1  0
  2 30  1  0
  2 31  1  0
  4 32  1  0
  9 33  1  0
  9 34  1  0
 11 35  1  0
 12 36  1  0
 13 37  1  0
 14 38  1  0
 15 39  1  0
 18 40  1  0
 19 41  1  0
 19 42  1  0
 20 43  1  0
 20 44  1  0
M  END
$$$$
