
     RDKit          3D

 57 60  0  0  0  0  0  0  0  0999 V2000
   -4.1118   -4.3805    1.3081 C   0  0  0  0  0  0  0  0  0  0  0  0
   -4.1945   -3.0384    0.8475 O   0  0  0  0  0  0  0  0  0  0  0  0
   -3.0903   -2.2426    0.9714 C   0  0  0  0  0  0  0  0  0  0  0  0
   -1.8163   -2.7285    1.2970 C   0  0  0  0  0  0  0  0  0  0  0  0
   -0.7210   -1.8633    1.3702 C   0  0  0  0  0  0  0  0  0  0  0  0
   -0.8890   -0.5069    1.0921 C   0  0  0  0  0  0  0  0  0  0  0  0
    0.2424    0.4452    1.1775 C   0  0  0  0  0  0  0  0  0  0  0  0
    0.0746    1.4632    1.8454 O   0  0  0  0  0  0  0  0  0  0  0  0
    1.4224    0.1610    0.5029 N   0  0  0  0  0  0  0  0  0  0  0  0
    2.5538    1.0736    0.6787 C   0  0  0  0  0  0  0  0  0  0  0  0
    3.9075    0.4348    0.3216 C   0  0  0  0  0  0  0  0  0  0  0  0
    3.9044   -0.1472   -1.0343 N   0  0  0  0  0  0  0  0  0  0  0  0
    5.0794   -0.2186   -1.7697 C   0  0  0  0  0  0  0  0  0  0  0  0
    5.0836   -0.2433   -3.1742 C   0  0  0  0  0  0  0  0  0  0  0  0
    6.2715   -0.3209   -3.9130 C   0  0  0  0  0  0  0  0  0  0  0  0
    7.4963   -0.3813   -3.2605 C   0  0  0  0  0  0  0  0  0  0  0  0
    7.5288   -0.3652   -1.8722 C   0  0  0  0  0  0  0  0  0  0  0  0
    6.3357   -0.2859   -1.1429 C   0  0  0  0  0  0  0  0  0  0  0  0
    2.5956   -0.4231   -1.6447 C   0  0  0  0  0  0  0  0  0  0  0  0
    1.5551   -0.8247   -0.5799 C   0  0  0  0  0  0  0  0  0  0  0  0
   -2.1565   -0.0031    0.7916 C   0  0  0  0  0  0  0  0  0  0  0  0
   -3.2549   -0.8664    0.7288 C   0  0  0  0  0  0  0  0  0  0  0  0
   -4.8890   -0.2532    0.3644 S   0  0  0  0  0  6  0  0  0  0  0  0
   -5.1677   -0.6118   -1.0112 O   0  0  0  0  0  0  0  0  0  0  0  0
   -5.7500   -0.6525    1.4591 O   0  0  0  0  0  0  0  0  0  0  0  0
   -4.8207    1.4182    0.4226 N   0  0  0  0  0  0  0  0  0  0  0  0
   -4.3307    2.2291   -0.6995 C   0  0  0  0  0  0  0  0  0  0  0  0
   -3.7891    3.4934   -0.0374 C   0  0  0  0  0  0  0  0  0  0  0  0
   -4.6007    3.6015    1.2435 C   0  0  0  0  0  0  0  0  0  0  0  0
   -4.7347    2.1505    1.6915 C   0  0  0  0  0  0  0  0  0  0  0  0
   -5.1111   -4.8206    1.2372 H   0  0  0  0  0  0  0  0  0  0  0  0
   -3.8023   -4.4230    2.3577 H   0  0  0  0  0  0  0  0  0  0  0  0
   -3.4426   -4.9704    0.6736 H   0  0  0  0  0  0  0  0  0  0  0  0
   -1.6427   -3.7811    1.4997 H   0  0  0  0  0  0  0  0  0  0  0  0
    0.2531   -2.2529    1.6554 H   0  0  0  0  0  0  0  0  0  0  0  0
    2.5748    1.4362    1.7127 H   0  0  0  0  0  0  0  0  0  0  0  0
    2.3666    1.9398    0.0315 H   0  0  0  0  0  0  0  0  0  0  0  0
    4.1359   -0.3598    1.0421 H   0  0  0  0  0  0  0  0  0  0  0  0
    4.6734    1.2140    0.4162 H   0  0  0  0  0  0  0  0  0  0  0  0
    4.1549   -0.1783   -3.7333 H   0  0  0  0  0  0  0  0  0  0  0  0
    6.2326   -0.3298   -4.9989 H   0  0  0  0  0  0  0  0  0  0  0  0
    8.4191   -0.4424   -3.8302 H   0  0  0  0  0  0  0  0  0  0  0  0
    8.4794   -0.4200   -1.3487 H   0  0  0  0  0  0  0  0  0  0  0  0
    6.4101   -0.3029   -0.0591 H   0  0  0  0  0  0  0  0  0  0  0  0
    2.6638   -1.2496   -2.3620 H   0  0  0  0  0  0  0  0  0  0  0  0
    2.2505    0.4700   -2.1798 H   0  0  0  0  0  0  0  0  0  0  0  0
    1.8651   -1.7657   -0.1107 H   0  0  0  0  0  0  0  0  0  0  0  0
    0.5857   -0.9837   -1.0625 H   0  0  0  0  0  0  0  0  0  0  0  0
   -2.2556    1.0603    0.6169 H   0  0  0  0  0  0  0  0  0  0  0  0
   -3.5562    1.7278   -1.2855 H   0  0  0  0  0  0  0  0  0  0  0  0
   -5.1734    2.4693   -1.3562 H   0  0  0  0  0  0  0  0  0  0  0  0
   -2.7268    3.3700    0.2037 H   0  0  0  0  0  0  0  0  0  0  0  0
   -3.8889    4.3741   -0.6782 H   0  0  0  0  0  0  0  0  0  0  0  0
   -5.5897    4.0215    1.0237 H   0  0  0  0  0  0  0  0  0  0  0  0
   -4.1212    4.2302    1.9988 H   0  0  0  0  0  0  0  0  0  0  0  0
   -5.6332    2.0117    2.2984 H   0  0  0  0  0  0  0  0  0  0  0  0
   -3.8556    1.8421    2.2642 H   0  0  0  0  0  0  0  0  0  0  0  0
  1  2  1  0
  2  3  1  0
  3  4  2  0
  4  5  1  0
  5  6  2  0
  6  7  1  0
  7  8  2  0
  7  9  1  0
  9 10  1  0
 10 11  1  0
 11 12  1  0
 12 13  1  0
 13 14  2  0
 14 15  1  0
 15 16  2  0
 16 17  1  0
 17 18  2  0
 12 19  1  0
 19 20  1  0
  6 21  1  0
 21 22  2  0
 22 23  1  0
 23 24  2  0
 23 25  2  0
 23 26  1  0
 26 27  1  0
 27 28  1  0
 28 29  1  0
 29 30  1  0
 22  3  1  0
 30 26  1  0
 20  9  1  0
 18 13  1  0
  1 31  1  0
  1 32  1  0
  1 33  1  0
  4 34  1  0
  5 35  1  0
 10 36  1  0
 10 37  1  0
 11 38  1  0
 11 39  1  0
 14 40  1  0
 15 41  1  0
 16 42  1  0
 17 43  1  0
 18 44  1  0
 19 45  1  0
 19 46  1  0
 20 47  1  0
 20 48  1  0
 21 49  1  0
 27 50  1  0
 27 51  1  0
 28 52  1  0
 28 53  1  0
 29 54  1  0
 29 55  1  0
 30 56  1  0
 30 57  1  0
M  END
$$$$
