
     RDKit          3D

 60 64  0  0  0  0  0  0  0  0999 V2000
    1.5742   -1.0016    2.0805 C   0  0  0  0  0  0  0  0  0  0  0  0
    1.8325   -0.0663    0.8811 C   0  0  0  0  0  0  0  0  0  0  0  0
    1.6031   -0.8373   -0.4424 C   0  0  0  0  0  0  0  0  0  0  0  0
    0.1323   -1.1705   -0.6745 C   0  0  0  0  0  0  0  0  0  0  0  0
   -0.7567    0.0873   -0.6946 C   0  0  0  0  0  0  0  0  0  0  0  0
   -0.5496    0.9621    0.5711 C   0  0  0  0  0  0  0  0  0  0  0  0
   -1.3609    2.2898    0.4973 C   0  0  0  0  0  0  0  0  0  0  0  0
   -2.5238    2.2617   -0.4936 C   0  0  0  0  0  0  0  0  0  0  0  0
   -3.1637    0.9052   -0.4550 C   0  0  0  0  0  0  0  0  0  0  0  0
   -4.3772    0.7254    0.1011 C   0  0  0  0  0  0  0  0  0  0  0  0
   -5.0096   -0.6087    0.3334 C   0  0  0  0  0  0  0  0  0  0  0  0
   -6.3508   -0.5357   -0.1296 O   0  0  0  0  0  0  0  0  0  0  0  0
   -4.2711   -1.7522   -0.3590 C   0  0  0  0  0  0  0  0  0  0  0  0
   -2.7511   -1.5716   -0.2846 C   0  0  0  0  0  0  0  0  0  0  0  0
   -2.2820   -0.2473   -0.9454 C   0  0  0  0  0  0  0  0  0  0  0  0
   -2.4572   -0.2977   -2.4707 C   0  0  0  0  0  0  0  0  0  0  0  0
   -2.5978   -1.4039   -3.1318 N   0  0  0  0  0  0  0  0  0  0  0  0
   -2.6686   -1.1084   -4.4975 O   0  0  0  0  0  0  0  0  0  0  0  0
    0.9416    1.2115    0.9279 C   0  0  0  0  0  0  0  0  0  0  0  0
    1.0025    1.7587    2.2547 O   0  0  0  0  0  0  0  0  0  0  0  0
    1.6805    2.1944   -0.0002 C   0  0  0  0  0  0  0  0  0  0  0  0
    3.1643    1.8120    0.0591 C   0  0  0  0  0  0  0  0  0  0  0  0
    3.2614    0.5590    0.9540 C   0  0  0  0  0  0  0  0  0  0  0  0
    4.4265   -0.3498    0.6713 C   0  0  0  0  0  0  0  0  0  0  0  0
    5.1235   -0.5079   -0.4560 C   0  0  0  0  0  0  0  0  0  0  0  0
    6.1901   -1.4667   -0.1762 C   0  0  0  0  0  0  0  0  0  0  0  0
    7.0087   -1.8482   -0.9925 O   0  0  0  0  0  0  0  0  0  0  0  0
    6.1182   -1.8495    1.1261 O   0  0  0  0  0  0  0  0  0  0  0  0
    5.0196   -1.1834    1.7482 C   0  0  0  0  0  0  0  0  0  0  0  0
    0.5101   -1.2229    2.2015 H   0  0  0  0  0  0  0  0  0  0  0  0
    2.0870   -1.9612    1.9556 H   0  0  0  0  0  0  0  0  0  0  0  0
    1.9219   -0.5626    3.0224 H   0  0  0  0  0  0  0  0  0  0  0  0
    1.9669   -0.2621   -1.3016 H   0  0  0  0  0  0  0  0  0  0  0  0
    2.1779   -1.7724   -0.4422 H   0  0  0  0  0  0  0  0  0  0  0  0
   -0.1923   -1.8671    0.1054 H   0  0  0  0  0  0  0  0  0  0  0  0
    0.0388   -1.7028   -1.6287 H   0  0  0  0  0  0  0  0  0  0  0  0
   -0.4019    0.6877   -1.5458 H   0  0  0  0  0  0  0  0  0  0  0  0
   -0.9814    0.4026    1.4143 H   0  0  0  0  0  0  0  0  0  0  0  0
   -1.7549    2.4995    1.5021 H   0  0  0  0  0  0  0  0  0  0  0  0
   -0.7280    3.1467    0.2423 H   0  0  0  0  0  0  0  0  0  0  0  0
   -3.2344    3.0626   -0.2532 H   0  0  0  0  0  0  0  0  0  0  0  0
   -2.1619    2.4757   -1.5058 H   0  0  0  0  0  0  0  0  0  0  0  0
   -4.9400    1.5793    0.4736 H   0  0  0  0  0  0  0  0  0  0  0  0
   -5.0385   -0.7901    1.4147 H   0  0  0  0  0  0  0  0  0  0  0  0
   -6.7292   -1.4285   -0.0559 H   0  0  0  0  0  0  0  0  0  0  0  0
   -4.5531   -2.7019    0.1127 H   0  0  0  0  0  0  0  0  0  0  0  0
   -4.6022   -1.8375   -1.4021 H   0  0  0  0  0  0  0  0  0  0  0  0
   -2.4516   -1.5873    0.7719 H   0  0  0  0  0  0  0  0  0  0  0  0
   -2.2808   -2.4402   -0.7598 H   0  0  0  0  0  0  0  0  0  0  0  0
   -2.4008    0.6636   -3.0120 H   0  0  0  0  0  0  0  0  0  0  0  0
   -3.0345   -1.9327   -4.8740 H   0  0  0  0  0  0  0  0  0  0  0  0
    0.4993    2.5918    2.2687 H   0  0  0  0  0  0  0  0  0  0  0  0
    1.3352    2.1138   -1.0362 H   0  0  0  0  0  0  0  0  0  0  0  0
    1.5575    3.2370    0.3120 H   0  0  0  0  0  0  0  0  0  0  0  0
    3.7639    2.6279    0.4798 H   0  0  0  0  0  0  0  0  0  0  0  0
    3.5300    1.6458   -0.9592 H   0  0  0  0  0  0  0  0  0  0  0  0
    3.4195    0.9407    1.9751 H   0  0  0  0  0  0  0  0  0  0  0  0
    4.9963   -0.0530   -1.4233 H   0  0  0  0  0  0  0  0  0  0  0  0
    4.3275   -1.9382    2.1293 H   0  0  0  0  0  0  0  0  0  0  0  0
    5.3950   -0.5749    2.5785 H   0  0  0  0  0  0  0  0  0  0  0  0
  1  2  1  0
  2  3  1  0
  3  4  1  0
  4  5  1  0
  5  6  1  0
  6  7  1  0
  7  8  1  0
  8  9  1  0
  9 10  2  0
 10 11  1  0
 11 12  1  0
 11 13  1  0
 13 14  1  0
 14 15  1  0
 15 16  1  0
 16 17  2  3
 17 18  1  0
  6 19  1  0
 19 20  1  0
 19 21  1  0
 21 22  1  0
 22 23  1  0
 23 24  1  0
 24 25  2  0
 25 26  1  0
 26 27  2  0
 26 28  1  0
 28 29  1  0
 19  2  1  0
 29 24  1  0
 23  2  1  0
 15  5  1  0
 15  9  1  0
  1 30  1  0
  1 31  1  0
  1 32  1  0
  3 33  1  0
  3 34  1  0
  4 35  1  0
  4 36  1  0
  5 37  1  0
  6 38  1  0
  7 39  1  0
  7 40  1  0
  8 41  1  0
  8 42  1  0
 10 43  1  0
 11 44  1  0
 12 45  1  0
 13 46  1  0
 13 47  1  0
 14 48  1  0
 14 49  1  0
 16 50  1  0
 18 51  1  0
 20 52  1  0
 21 53  1  0
 21 54  1  0
 22 55  1  0
 22 56  1  0
 23 57  1  0
 25 58  1  0
 29 59  1  0
 29 60  1  0
M  END
$$$$
