
     RDKit          3D

 43 45  0  0  0  0  0  0  0  0999 V2000
   -4.1399    1.8869    1.8713 C   0  0  0  0  0  0  0  0  0  0  0  0
   -4.6246    0.6375    1.1930 C   0  0  0  0  0  0  0  0  0  0  0  0
   -6.0015    0.4325    1.0294 C   0  0  0  0  0  0  0  0  0  0  0  0
   -6.4782   -0.7247    0.4128 C   0  0  0  0  0  0  0  0  0  0  0  0
   -5.5857   -1.6954   -0.0424 C   0  0  0  0  0  0  0  0  0  0  0  0
   -4.2039   -1.5169    0.1054 C   0  0  0  0  0  0  0  0  0  0  0  0
   -3.2626   -2.5779   -0.3901 C   0  0  0  0  0  0  0  0  0  0  0  0
   -3.7358   -0.3235    0.6827 C   0  0  0  0  0  0  0  0  0  0  0  0
   -2.3819   -0.1310    0.8126 O   0  0  0  0  0  0  0  0  0  0  0  0
   -1.8701    0.5676   -0.3297 C   0  0  0  0  0  0  0  0  0  0  0  0
   -0.3951    0.5950   -0.1973 C   0  0  0  0  0  0  0  0  0  0  0  0
    0.4896    0.4620    0.8443 C   0  0  0  0  0  0  0  0  0  0  0  0
    1.7748    0.6000    0.2560 C   0  0  0  0  0  0  0  0  0  0  0  0
    3.0594    0.5847    0.9707 C   0  0  0  0  0  0  0  0  0  0  0  0
    3.0917    0.8430    2.1753 O   0  0  0  0  0  0  0  0  0  0  0  0
    4.2359    0.3075    0.2691 N   0  0  0  0  0  0  0  0  0  0  0  0
    4.3174   -0.5891   -0.8856 C   0  0  0  0  0  0  0  0  0  0  0  0
    5.3772   -0.0733   -1.8540 C   0  0  0  0  0  0  0  0  0  0  0  0
    6.6546    0.1164   -1.1946 N   0  0  0  0  0  0  0  0  0  0  0  0
    6.7501    0.5950    0.0904 C   0  0  0  0  0  0  0  0  0  0  0  0
    7.8387    0.9774    0.5161 O   0  0  0  0  0  0  0  0  0  0  0  0
    5.5001    0.5020    0.9832 C   0  0  0  0  0  0  0  0  0  0  0  0
    1.6565    0.8426   -1.0619 N   0  0  0  0  0  0  0  0  0  0  0  0
    0.3045    0.8183   -1.3410 O   0  0  0  0  0  0  0  0  0  0  0  0
   -4.8993    2.2799    2.5563 H   0  0  0  0  0  0  0  0  0  0  0  0
   -3.2442    1.6893    2.4693 H   0  0  0  0  0  0  0  0  0  0  0  0
   -3.9135    2.6569    1.1275 H   0  0  0  0  0  0  0  0  0  0  0  0
   -6.7144    1.1709    1.3920 H   0  0  0  0  0  0  0  0  0  0  0  0
   -7.5489   -0.8759    0.2965 H   0  0  0  0  0  0  0  0  0  0  0  0
   -5.9776   -2.5967   -0.5090 H   0  0  0  0  0  0  0  0  0  0  0  0
   -2.9134   -2.3313   -1.3975 H   0  0  0  0  0  0  0  0  0  0  0  0
   -2.3988   -2.6800    0.2763 H   0  0  0  0  0  0  0  0  0  0  0  0
   -3.7552   -3.5561   -0.4230 H   0  0  0  0  0  0  0  0  0  0  0  0
   -2.2502    1.5949   -0.3528 H   0  0  0  0  0  0  0  0  0  0  0  0
   -2.1477    0.0572   -1.2603 H   0  0  0  0  0  0  0  0  0  0  0  0
    0.2545    0.2905    1.8852 H   0  0  0  0  0  0  0  0  0  0  0  0
    3.3659   -0.7303   -1.3948 H   0  0  0  0  0  0  0  0  0  0  0  0
    4.6061   -1.5744   -0.4972 H   0  0  0  0  0  0  0  0  0  0  0  0
    5.0794    0.8970   -2.2660 H   0  0  0  0  0  0  0  0  0  0  0  0
    5.5275   -0.7742   -2.6806 H   0  0  0  0  0  0  0  0  0  0  0  0
    7.4863    0.2711   -1.7520 H   0  0  0  0  0  0  0  0  0  0  0  0
    5.6334   -0.3475    1.6627 H   0  0  0  0  0  0  0  0  0  0  0  0
    5.4390    1.4222    1.5745 H   0  0  0  0  0  0  0  0  0  0  0  0
  1  2  1  0
  2  3  2  0
  3  4  1  0
  4  5  2  0
  5  6  1  0
  6  7  1  0
  6  8  2  0
  8  9  1  0
  9 10  1  0
 10 11  1  0
 11 12  2  0
 12 13  1  0
 13 14  1  0
 14 15  2  0
 14 16  1  0
 16 17  1  0
 17 18  1  0
 18 19  1  0
 19 20  1  0
 20 21  2  0
 20 22  1  0
 13 23  2  0
 23 24  1  0
  8  2  1  0
 24 11  1  0
 22 16  1  0
  1 25  1  0
  1 26  1  0
  1 27  1  0
  3 28  1  0
  4 29  1  0
  5 30  1  0
  7 31  1  0
  7 32  1  0
  7 33  1  0
 10 34  1  0
 10 35  1  0
 12 36  1  0
 17 37  1  0
 17 38  1  0
 18 39  1  0
 18 40  1  0
 19 41  1  0
 22 42  1  0
 22 43  1  0
M  END
$$$$
