
     RDKit          3D

 57 61  0  0  0  0  0  0  0  0999 V2000
    4.2689    2.9488   -0.5905 C   0  0  0  0  0  0  0  0  0  0  0  0
    4.8263    1.5751   -0.2224 C   0  0  0  0  0  0  0  0  0  0  0  0
    6.3313    1.5427   -0.5065 C   0  0  0  0  0  0  0  0  0  0  0  0
    4.1050    0.4708   -1.0033 C   0  0  0  0  0  0  0  0  0  0  0  0
    4.6761   -0.1227   -1.9221 O   0  0  0  0  0  0  0  0  0  0  0  0
    2.7836    0.1736   -0.6778 N   0  0  0  0  0  0  0  0  0  0  0  0
    2.1101   -0.8303   -1.4969 C   0  0  0  0  0  0  0  0  0  0  0  0
    0.5987   -0.8198   -1.2981 C   0  0  0  0  0  0  0  0  0  0  0  0
    0.2285   -1.1213    0.1759 C   0  0  0  0  0  0  0  0  0  0  0  0
    1.2001   -0.3769    1.1438 C   0  0  0  0  0  0  0  0  0  0  0  0
    2.0428    0.7005    0.4648 C   0  0  0  0  0  0  0  0  0  0  0  0
    0.5158   -2.5273    0.4302 O   0  0  0  0  0  0  0  0  0  0  0  0
   -0.4137   -3.4512    0.0540 C   0  0  0  0  0  0  0  0  0  0  0  0
    0.0008   -4.7827    0.0773 C   0  0  0  0  0  0  0  0  0  0  0  0
   -0.8757   -5.7967   -0.3177 C   0  0  0  0  0  0  0  0  0  0  0  0
   -2.1679   -5.4754   -0.7339 C   0  0  0  0  0  0  0  0  0  0  0  0
   -3.2407   -6.7261   -1.2260 Cl  0  0  0  0  0  0  0  0  0  0  0  0
   -2.5948   -4.1505   -0.7508 C   0  0  0  0  0  0  0  0  0  0  0  0
   -1.7119   -3.1460   -0.3428 C   0  0  0  0  0  0  0  0  0  0  0  0
   -2.1349   -1.7398   -0.3284 C   0  0  0  0  0  0  0  0  0  0  0  0
   -3.1288   -1.3910   -0.9593 O   0  0  0  0  0  0  0  0  0  0  0  0
   -1.2602   -0.7958    0.4875 C   0  0  0  0  0  0  0  0  0  0  0  0
   -1.6656    0.6555    0.2808 C   0  0  0  0  0  0  0  0  0  0  0  0
   -2.6069    0.7939    1.4295 C   0  0  0  0  0  0  0  0  0  0  0  0
   -3.5439    1.9357    1.5516 C   0  0  0  0  0  0  0  0  0  0  0  0
   -3.5474    2.9856    0.6254 C   0  0  0  0  0  0  0  0  0  0  0  0
   -4.4441    4.0492    0.7759 C   0  0  0  0  0  0  0  0  0  0  0  0
   -5.3337    4.0647    1.8493 C   0  0  0  0  0  0  0  0  0  0  0  0
   -6.4318    5.3759    2.0294 Cl  0  0  0  0  0  0  0  0  0  0  0  0
   -5.3363    3.0255    2.7763 C   0  0  0  0  0  0  0  0  0  0  0  0
   -4.4418    1.9619    2.6279 C   0  0  0  0  0  0  0  0  0  0  0  0
   -2.5089   -0.1384    2.3230 N   0  0  0  0  0  0  0  0  0  0  0  0
   -1.5369   -1.0590    1.8744 O   0  0  0  0  0  0  0  0  0  0  0  0
    4.8040    3.7417   -0.0573 H   0  0  0  0  0  0  0  0  0  0  0  0
    3.2087    3.0425   -0.3413 H   0  0  0  0  0  0  0  0  0  0  0  0
    4.3660    3.1367   -1.6658 H   0  0  0  0  0  0  0  0  0  0  0  0
    4.7080    1.3911    0.8496 H   0  0  0  0  0  0  0  0  0  0  0  0
    6.8565    2.2920    0.0952 H   0  0  0  0  0  0  0  0  0  0  0  0
    6.7518    0.5608   -0.2627 H   0  0  0  0  0  0  0  0  0  0  0  0
    6.5465    1.7442   -1.5618 H   0  0  0  0  0  0  0  0  0  0  0  0
    2.3420   -0.6435   -2.5521 H   0  0  0  0  0  0  0  0  0  0  0  0
    2.5332   -1.8087   -1.2389 H   0  0  0  0  0  0  0  0  0  0  0  0
    0.2097    0.1593   -1.6024 H   0  0  0  0  0  0  0  0  0  0  0  0
    0.1622   -1.5623   -1.9757 H   0  0  0  0  0  0  0  0  0  0  0  0
    0.6591    0.0859    1.9767 H   0  0  0  0  0  0  0  0  0  0  0  0
    1.8875   -1.0977    1.6082 H   0  0  0  0  0  0  0  0  0  0  0  0
    2.7128    1.1402    1.2050 H   0  0  0  0  0  0  0  0  0  0  0  0
    1.4055    1.5078    0.0889 H   0  0  0  0  0  0  0  0  0  0  0  0
    1.0100   -5.0334    0.3964 H   0  0  0  0  0  0  0  0  0  0  0  0
   -0.5440   -6.8321   -0.3004 H   0  0  0  0  0  0  0  0  0  0  0  0
   -3.6048   -3.9000   -1.0666 H   0  0  0  0  0  0  0  0  0  0  0  0
   -0.8463    1.3606    0.4402 H   0  0  0  0  0  0  0  0  0  0  0  0
   -2.1354    0.8557   -0.6844 H   0  0  0  0  0  0  0  0  0  0  0  0
   -2.8668    3.0031   -0.2203 H   0  0  0  0  0  0  0  0  0  0  0  0
   -4.4448    4.8610    0.0526 H   0  0  0  0  0  0  0  0  0  0  0  0
   -6.0292    3.0333    3.6138 H   0  0  0  0  0  0  0  0  0  0  0  0
   -4.4541    1.1534    3.3571 H   0  0  0  0  0  0  0  0  0  0  0  0
  1  2  1  0
  2  3  1  0
  2  4  1  0
  4  5  2  0
  4  6  1  0
  6  7  1  0
  7  8  1  0
  8  9  1  0
  9 10  1  0
 10 11  1  0
  9 12  1  0
 12 13  1  0
 13 14  2  0
 14 15  1  0
 15 16  2  0
 16 17  1  0
 16 18  1  0
 18 19  2  0
 19 20  1  0
 20 21  2  0
 20 22  1  0
 22 23  1  0
 23 24  1  0
 24 25  1  0
 25 26  2  0
 26 27  1  0
 27 28  2  0
 28 29  1  0
 28 30  1  0
 30 31  2  0
 24 32  2  0
 32 33  1  0
 11  6  1  0
 19 13  1  0
 33 22  1  0
 22  9  1  0
 31 25  1  0
  1 34  1  0
  1 35  1  0
  1 36  1  0
  2 37  1  0
  3 38  1  0
  3 39  1  0
  3 40  1  0
  7 41  1  0
  7 42  1  0
  8 43  1  0
  8 44  1  0
 10 45  1  0
 10 46  1  0
 11 47  1  0
 11 48  1  0
 14 49  1  0
 15 50  1  0
 18 51  1  0
 23 52  1  0
 23 53  1  0
 26 54  1  0
 27 55  1  0
 30 56  1  0
 31 57  1  0
M  END
$$$$
