
     RDKit          3D

 52 55  0  0  0  0  0  0  0  0999 V2000
    9.7321    0.5153    0.1386 C   0  0  0  0  0  0  0  0  0  0  0  0
    8.2629    0.8893    0.0572 C   0  0  0  0  0  0  0  0  0  0  0  0
    7.4952   -0.2850    0.3121 O   0  0  0  0  0  0  0  0  0  0  0  0
    6.1347   -0.1573    0.2922 C   0  0  0  0  0  0  0  0  0  0  0  0
    5.4216    1.0107    0.0328 C   0  0  0  0  0  0  0  0  0  0  0  0
    4.0203    0.9963    0.0445 C   0  0  0  0  0  0  0  0  0  0  0  0
    3.3134   -0.1809    0.3203 C   0  0  0  0  0  0  0  0  0  0  0  0
    1.9050   -0.1089    0.2997 N   0  0  0  0  0  0  0  0  0  0  0  0
    1.0062   -1.0782    0.6945 C   0  0  0  0  0  0  0  0  0  0  0  0
    1.3137   -2.1281    1.2516 O   0  0  0  0  0  0  0  0  0  0  0  0
   -0.3293   -0.7601    0.4234 N   0  0  0  0  0  0  0  0  0  0  0  0
   -0.7553    0.3136   -0.4736 C   0  0  0  0  0  0  0  0  0  0  0  0
   -2.1930    0.1595   -0.9514 C   0  0  0  0  0  0  0  0  0  0  0  0
   -3.1539    0.0062    0.2347 C   0  0  0  0  0  0  0  0  0  0  0  0
   -4.4858   -0.3563   -0.2209 N   0  0  0  0  0  0  0  0  0  0  0  0
   -4.8477   -1.5962   -0.7960 C   0  0  0  0  0  0  0  0  0  0  0  0
   -4.1411   -2.5747   -0.9682 O   0  0  0  0  0  0  0  0  0  0  0  0
   -6.2003   -1.4961   -1.1483 N   0  0  0  0  0  0  0  0  0  0  0  0
   -6.6605   -0.2271   -0.8235 C   0  0  0  0  0  0  0  0  0  0  0  0
   -7.9149    0.3086   -1.0067 C   0  0  0  0  0  0  0  0  0  0  0  0
   -8.1013    1.6302   -0.5930 C   0  0  0  0  0  0  0  0  0  0  0  0
   -7.0435    2.3659   -0.0186 C   0  0  0  0  0  0  0  0  0  0  0  0
   -5.7757    1.7963    0.1560 C   0  0  0  0  0  0  0  0  0  0  0  0
   -5.6071    0.4909   -0.2544 C   0  0  0  0  0  0  0  0  0  0  0  0
   -2.6212   -0.9632    1.3069 C   0  0  0  0  0  0  0  0  0  0  0  0
   -1.3619   -1.6993    0.8644 C   0  0  0  0  0  0  0  0  0  0  0  0
    4.0323   -1.3483    0.5706 C   0  0  0  0  0  0  0  0  0  0  0  0
    5.4321   -1.3329    0.5585 C   0  0  0  0  0  0  0  0  0  0  0  0
    9.9725    0.1100    1.1272 H   0  0  0  0  0  0  0  0  0  0  0  0
    9.9727   -0.2638   -0.5924 H   0  0  0  0  0  0  0  0  0  0  0  0
   10.3670    1.3854   -0.0504 H   0  0  0  0  0  0  0  0  0  0  0  0
    8.0470    1.6564    0.8098 H   0  0  0  0  0  0  0  0  0  0  0  0
    8.0472    1.2744   -0.9461 H   0  0  0  0  0  0  0  0  0  0  0  0
    5.9204    1.9491   -0.1831 H   0  0  0  0  0  0  0  0  0  0  0  0
    3.4932    1.9236   -0.1633 H   0  0  0  0  0  0  0  0  0  0  0  0
    1.5175    0.8020    0.1246 H   0  0  0  0  0  0  0  0  0  0  0  0
   -0.0836    0.3462   -1.3387 H   0  0  0  0  0  0  0  0  0  0  0  0
   -0.6426    1.2567    0.0741 H   0  0  0  0  0  0  0  0  0  0  0  0
   -2.4810    1.0272   -1.5573 H   0  0  0  0  0  0  0  0  0  0  0  0
   -2.2584   -0.7110   -1.6163 H   0  0  0  0  0  0  0  0  0  0  0  0
   -3.2287    0.9858    0.7220 H   0  0  0  0  0  0  0  0  0  0  0  0
   -6.7187   -2.2412   -1.5832 H   0  0  0  0  0  0  0  0  0  0  0  0
   -8.7225   -0.2607   -1.4504 H   0  0  0  0  0  0  0  0  0  0  0  0
   -9.0751    2.1006   -0.7150 H   0  0  0  0  0  0  0  0  0  0  0  0
   -7.2185    3.3935    0.2948 H   0  0  0  0  0  0  0  0  0  0  0  0
   -4.9753    2.3739    0.6003 H   0  0  0  0  0  0  0  0  0  0  0  0
   -3.3839   -1.6844    1.6227 H   0  0  0  0  0  0  0  0  0  0  0  0
   -2.3749   -0.3766    2.2027 H   0  0  0  0  0  0  0  0  0  0  0  0
   -0.9945   -2.3103    1.6959 H   0  0  0  0  0  0  0  0  0  0  0  0
   -1.5696   -2.3808    0.0317 H   0  0  0  0  0  0  0  0  0  0  0  0
    3.5368   -2.2930    0.7719 H   0  0  0  0  0  0  0  0  0  0  0  0
    5.9759   -2.2533    0.7583 H   0  0  0  0  0  0  0  0  0  0  0  0
  1  2  1  0
  2  3  1  0
  3  4  1  0
  4  5  2  0
  5  6  1  0
  6  7  2  0
  7  8  1  0
  8  9  1  0
  9 10  2  0
  9 11  1  0
 11 12  1  0
 12 13  1  0
 13 14  1  0
 14 15  1  0
 15 16  1  0
 16 17  2  0
 16 18  1  0
 18 19  1  0
 19 20  2  0
 20 21  1  0
 21 22  2  0
 22 23  1  0
 23 24  2  0
 14 25  1  0
 25 26  1  0
  7 27  1  0
 27 28  2  0
 28  4  1  0
 26 11  1  0
 24 15  1  0
 24 19  1  0
  1 29  1  0
  1 30  1  0
  1 31  1  0
  2 32  1  0
  2 33  1  0
  5 34  1  0
  6 35  1  0
  8 36  1  0
 12 37  1  0
 12 38  1  0
 13 39  1  0
 13 40  1  0
 14 41  1  0
 18 42  1  0
 20 43  1  0
 21 44  1  0
 22 45  1  0
 23 46  1  0
 25 47  1  0
 25 48  1  0
 26 49  1  0
 26 50  1  0
 27 51  1  0
 28 52  1  0
M  END
$$$$
