
     RDKit          3D

 44 46  0  0  0  0  0  0  0  0999 V2000
    4.1711    1.1762   -2.7963 C   0  0  0  0  0  0  0  0  0  0  0  0
    2.9583    1.6195   -2.1152 N   0  0  0  0  0  0  0  0  0  0  0  0
    1.7915    1.5393   -3.0203 C   0  0  0  0  0  0  0  0  0  0  0  0
    0.4448    1.4328   -2.2846 C   0  0  0  0  0  0  0  0  0  0  0  0
    0.3948    0.2547   -1.4171 N   0  0  0  0  0  0  0  0  0  0  0  0
   -0.8409   -0.3076   -1.1296 C   0  0  0  0  0  0  0  0  0  0  0  0
   -1.9068    0.1101   -1.5718 O   0  0  0  0  0  0  0  0  0  0  0  0
   -0.8747   -1.5006   -0.2616 C   0  0  0  0  0  0  0  0  0  0  0  0
   -0.6645   -2.7474   -0.8672 C   0  0  0  0  0  0  0  0  0  0  0  0
   -0.6785   -3.9037   -0.0909 C   0  0  0  0  0  0  0  0  0  0  0  0
   -0.9060   -3.8142    1.2811 C   0  0  0  0  0  0  0  0  0  0  0  0
   -1.1247   -2.5692    1.8803 C   0  0  0  0  0  0  0  0  0  0  0  0
   -1.1223   -1.3854    1.1201 C   0  0  0  0  0  0  0  0  0  0  0  0
   -1.3320   -0.0880    1.7881 C   0  0  0  0  0  0  0  0  0  0  0  0
   -0.2488    0.4562    2.5131 C   0  0  0  0  0  0  0  0  0  0  0  0
   -0.3367    1.7016    3.1380 C   0  0  0  0  0  0  0  0  0  0  0  0
   -1.5120    2.4366    3.0530 C   0  0  0  0  0  0  0  0  0  0  0  0
   -2.6008    1.9193    2.3527 C   0  0  0  0  0  0  0  0  0  0  0  0
   -2.5299    0.6587    1.7287 C   0  0  0  0  0  0  0  0  0  0  0  0
   -3.7740    0.2239    1.0388 C   0  0  0  0  0  0  0  0  0  0  0  0
   -4.6686    0.9649    0.6682 O   0  0  0  0  0  0  0  0  0  0  0  0
   -3.9030   -1.1080    0.9333 O   0  0  0  0  0  0  0  0  0  0  0  0
    1.6826   -0.2217   -0.9003 C   0  0  0  0  0  0  0  0  0  0  0  0
    2.7379    0.8990   -0.8463 C   0  0  0  0  0  0  0  0  0  0  0  0
    4.1339    0.1116   -3.0536 H   0  0  0  0  0  0  0  0  0  0  0  0
    4.3287    1.7501   -3.7163 H   0  0  0  0  0  0  0  0  0  0  0  0
    5.0504    1.3480   -2.1657 H   0  0  0  0  0  0  0  0  0  0  0  0
    1.7832    2.4261   -3.6641 H   0  0  0  0  0  0  0  0  0  0  0  0
    1.8801    0.6620   -3.6760 H   0  0  0  0  0  0  0  0  0  0  0  0
    0.2823    2.3124   -1.6500 H   0  0  0  0  0  0  0  0  0  0  0  0
   -0.3743    1.3947   -3.0112 H   0  0  0  0  0  0  0  0  0  0  0  0
   -0.4991   -2.8122   -1.9397 H   0  0  0  0  0  0  0  0  0  0  0  0
   -0.5219   -4.8742   -0.5551 H   0  0  0  0  0  0  0  0  0  0  0  0
   -0.9259   -4.7163    1.8884 H   0  0  0  0  0  0  0  0  0  0  0  0
   -1.3156   -2.5258    2.9513 H   0  0  0  0  0  0  0  0  0  0  0  0
    0.6878   -0.0950    2.5837 H   0  0  0  0  0  0  0  0  0  0  0  0
    0.5159    2.0991    3.6830 H   0  0  0  0  0  0  0  0  0  0  0  0
   -1.5853    3.4112    3.5290 H   0  0  0  0  0  0  0  0  0  0  0  0
   -3.5176    2.5048    2.2938 H   0  0  0  0  0  0  0  0  0  0  0  0
   -4.7284   -1.2148    0.4175 H   0  0  0  0  0  0  0  0  0  0  0  0
    2.0193   -1.0250   -1.5664 H   0  0  0  0  0  0  0  0  0  0  0  0
    1.5562   -0.6500    0.0976 H   0  0  0  0  0  0  0  0  0  0  0  0
    3.6772    0.5014   -0.4425 H   0  0  0  0  0  0  0  0  0  0  0  0
    2.3964    1.6448   -0.1162 H   0  0  0  0  0  0  0  0  0  0  0  0
  1  2  1  0
  2  3  1  0
  3  4  1  0
  4  5  1  0
  5  6  1  0
  6  7  2  0
  6  8  1  0
  8  9  2  0
  9 10  1  0
 10 11  2  0
 11 12  1  0
 12 13  2  0
 13 14  1  0
 14 15  2  0
 15 16  1  0
 16 17  2  0
 17 18  1  0
 18 19  2  0
 19 20  1  0
 20 21  2  0
 20 22  1  0
  5 23  1  0
 23 24  1  0
 24  2  1  0
 13  8  1  0
 19 14  1  0
  1 25  1  0
  1 26  1  0
  1 27  1  0
  3 28  1  0
  3 29  1  0
  4 30  1  0
  4 31  1  0
  9 32  1  0
 10 33  1  0
 11 34  1  0
 12 35  1  0
 15 36  1  0
 16 37  1  0
 17 38  1  0
 18 39  1  0
 22 40  1  0
 23 41  1  0
 23 42  1  0
 24 43  1  0
 24 44  1  0
M  END
$$$$
