
     RDKit          3D

 90 91  0  0  0  0  0  0  0  0999 V2000
    4.9618   -1.1052   -2.4218 C   0  0  0  0  0  0  0  0  0  0  0  0
    3.6096   -0.7608   -1.8795 C   0  0  0  0  0  0  0  0  0  0  0  0
    2.5635   -0.8930   -2.4994 O   0  0  0  0  0  0  0  0  0  0  0  0
    3.7226   -0.2998   -0.6057 O   0  0  0  0  0  0  0  0  0  0  0  0
    2.4933    0.0602    0.0820 C   0  0  1  0  0  0  0  0  0  0  0  0
    2.0010   -1.1175    0.9670 C   0  0  2  0  0  0  0  0  0  0  0  0
    1.7777   -2.3068    0.1755 O   0  0  0  0  0  0  0  0  0  0  0  0
    2.8055   -3.1896    0.0786 C   0  0  0  0  0  0  0  0  0  0  0  0
    2.3921   -4.3877   -0.7181 C   0  0  0  0  0  0  0  0  0  0  0  0
    3.9182   -3.0455    0.5656 O   0  0  0  0  0  0  0  0  0  0  0  0
    0.6818   -0.8631    1.7020 C   0  0  0  0  0  0  0  0  0  0  0  0
    0.8008   -0.9819    3.2076 C   0  0  0  0  0  0  0  0  0  0  0  0
   -0.5405   -0.6294    1.1698 C   0  0  0  0  0  0  0  0  0  0  0  0
   -0.9916   -0.5530   -0.2809 C   0  0  1  0  0  0  0  0  0  0  0  0
   -1.2513   -1.9400   -0.9237 C   0  0  1  0  0  0  0  0  0  0  0  0
   -2.0756   -2.7523   -0.0665 O   0  0  0  0  0  0  0  0  0  0  0  0
   -1.7594   -4.0710    0.0283 C   0  0  0  0  0  0  0  0  0  0  0  0
   -2.7012   -4.7490    0.9735 C   0  0  0  0  0  0  0  0  0  0  0  0
   -0.8635   -4.6441   -0.5761 O   0  0  0  0  0  0  0  0  0  0  0  0
   -1.9910   -1.5832   -2.2263 C   0  0  1  0  0  0  0  0  0  0  0  0
   -2.9609   -2.6391   -2.7373 C   0  0  0  0  0  0  0  0  0  0  0  0
   -2.6752   -0.2190   -1.9814 C   0  0  0  0  0  0  0  0  0  0  0  0
   -2.3529    0.1990   -0.5264 C   0  0  1  0  0  0  0  0  0  0  0  0
   -3.2870   -0.4293    0.4317 O   0  0  0  0  0  0  0  0  0  0  0  0
   -4.6344   -0.4596    0.3220 C   0  0  0  0  0  0  0  0  0  0  0  0
   -5.2103   -1.2380    1.4652 C   0  0  0  0  0  0  0  0  0  0  0  0
   -5.3095    0.0328   -0.5683 O   0  0  0  0  0  0  0  0  0  0  0  0
   -2.3123    1.7479   -0.2545 C   0  0  2  0  0  0  0  0  0  0  0  0
   -3.6653    2.2725   -0.3871 O   0  0  0  0  0  0  0  0  0  0  0  0
   -4.3006    2.6693    0.7480 C   0  0  0  0  0  0  0  0  0  0  0  0
   -5.6335    3.2658    0.4117 C   0  0  0  0  0  0  0  0  0  0  0  0
   -3.8675    2.5508    1.8856 O   0  0  0  0  0  0  0  0  0  0  0  0
   -1.4383    2.6472   -1.1939 C   0  0  1  0  0  0  0  0  0  0  0  0
   -1.7638    4.1483   -1.0173 C   0  0  0  0  0  0  0  0  0  0  0  0
    0.0641    2.4980   -1.1054 C   0  0  0  0  0  0  0  0  0  0  0  0
    0.7952    2.6843    0.0073 C   0  0  0  0  0  0  0  0  0  0  0  0
    2.3229    2.6616    0.1331 C   0  0  0  0  0  0  0  0  0  0  0  0
    3.0594    2.8015   -1.2164 C   0  0  0  0  0  0  0  0  0  0  0  0
    2.7125    3.9020    0.9746 C   0  0  0  0  0  0  0  0  0  0  0  0
    2.7524    1.3622    0.8990 C   0  0  2  0  0  0  0  0  0  0  0  0
    4.1635    1.4685    1.2277 O   0  0  0  0  0  0  0  0  0  0  0  0
    4.5660    0.9519    2.4172 C   0  0  0  0  0  0  0  0  0  0  0  0
    6.0551    1.0487    2.5450 C   0  0  0  0  0  0  0  0  0  0  0  0
    3.8321    0.4575    3.2602 O   0  0  0  0  0  0  0  0  0  0  0  0
    5.6391   -0.2558   -2.3012 H   0  0  0  0  0  0  0  0  0  0  0  0
    4.8764   -1.3238   -3.4898 H   0  0  0  0  0  0  0  0  0  0  0  0
    5.3531   -1.9864   -1.9075 H   0  0  0  0  0  0  0  0  0  0  0  0
    1.7329    0.2545   -0.6702 H   0  0  0  0  0  0  0  0  0  0  0  0
    2.7798   -1.3366    1.7069 H   0  0  0  0  0  0  0  0  0  0  0  0
    1.8505   -4.0755   -1.6142 H   0  0  0  0  0  0  0  0  0  0  0  0
    3.2842   -4.9337   -1.0378 H   0  0  0  0  0  0  0  0  0  0  0  0
    1.7751   -5.0432   -0.1002 H   0  0  0  0  0  0  0  0  0  0  0  0
    1.3511   -0.1300    3.6156 H   0  0  0  0  0  0  0  0  0  0  0  0
   -0.1742   -1.0125    3.7049 H   0  0  0  0  0  0  0  0  0  0  0  0
    1.3294   -1.9027    3.4746 H   0  0  0  0  0  0  0  0  0  0  0  0
   -1.3613   -0.5199    1.8822 H   0  0  0  0  0  0  0  0  0  0  0  0
   -0.2275   -0.0662   -0.8843 H   0  0  0  0  0  0  0  0  0  0  0  0
   -0.3044   -2.4376   -1.1552 H   0  0  0  0  0  0  0  0  0  0  0  0
   -2.3820   -5.7851    1.1252 H   0  0  0  0  0  0  0  0  0  0  0  0
   -2.6903   -4.2383    1.9392 H   0  0  0  0  0  0  0  0  0  0  0  0
   -3.7071   -4.7485    0.5492 H   0  0  0  0  0  0  0  0  0  0  0  0
   -1.2326   -1.4250   -3.0050 H   0  0  0  0  0  0  0  0  0  0  0  0
   -2.4463   -3.5913   -2.9002 H   0  0  0  0  0  0  0  0  0  0  0  0
   -3.7864   -2.8065   -2.0382 H   0  0  0  0  0  0  0  0  0  0  0  0
   -3.3937   -2.3298   -3.6949 H   0  0  0  0  0  0  0  0  0  0  0  0
   -2.2452    0.4846   -2.6999 H   0  0  0  0  0  0  0  0  0  0  0  0
   -3.7402   -0.2664   -2.2075 H   0  0  0  0  0  0  0  0  0  0  0  0
   -6.2622   -0.9700    1.5912 H   0  0  0  0  0  0  0  0  0  0  0  0
   -5.1318   -2.3076    1.2569 H   0  0  0  0  0  0  0  0  0  0  0  0
   -4.6880   -0.9925    2.3946 H   0  0  0  0  0  0  0  0  0  0  0  0
   -1.9677    1.8977    0.7758 H   0  0  0  0  0  0  0  0  0  0  0  0
   -6.0259    3.7878    1.2898 H   0  0  0  0  0  0  0  0  0  0  0  0
   -5.5235    3.9999   -0.3919 H   0  0  0  0  0  0  0  0  0  0  0  0
   -6.3334    2.4788    0.1207 H   0  0  0  0  0  0  0  0  0  0  0  0
   -1.7179    2.4297   -2.2321 H   0  0  0  0  0  0  0  0  0  0  0  0
   -1.0946    4.7749   -1.6203 H   0  0  0  0  0  0  0  0  0  0  0  0
   -1.6627    4.4600    0.0290 H   0  0  0  0  0  0  0  0  0  0  0  0
   -2.7850    4.3754   -1.3437 H   0  0  0  0  0  0  0  0  0  0  0  0
    0.5584    2.2897   -2.0529 H   0  0  0  0  0  0  0  0  0  0  0  0
    0.2632    2.8990    0.9374 H   0  0  0  0  0  0  0  0  0  0  0  0
    4.1450    2.8048   -1.0785 H   0  0  0  0  0  0  0  0  0  0  0  0
    2.8237    1.9908   -1.9097 H   0  0  0  0  0  0  0  0  0  0  0  0
    2.7920    3.7399   -1.7161 H   0  0  0  0  0  0  0  0  0  0  0  0
    2.2979    3.8453    1.9880 H   0  0  0  0  0  0  0  0  0  0  0  0
    3.8003    4.0021    1.0706 H   0  0  0  0  0  0  0  0  0  0  0  0
    2.3389    4.8263    0.5163 H   0  0  0  0  0  0  0  0  0  0  0  0
    2.1672    1.3532    1.8262 H   0  0  0  0  0  0  0  0  0  0  0  0
    6.3917    2.0557    2.2805 H   0  0  0  0  0  0  0  0  0  0  0  0
    6.3406    0.8592    3.5845 H   0  0  0  0  0  0  0  0  0  0  0  0
    6.5278    0.3036    1.9002 H   0  0  0  0  0  0  0  0  0  0  0  0
  1  2  1  0
  2  3  2  0
  2  4  1  0
  4  5  1  0
  5  6  1  0
  6  7  1  0
  7  8  1  0
  8  9  1  0
  8 10  2  0
  6 11  1  0
 11 12  1  0
 11 13  2  0
 13 14  1  0
 14 15  1  0
 15 16  1  0
 16 17  1  0
 17 18  1  0
 17 19  2  0
 15 20  1  0
 20 21  1  0
 20 22  1  0
 22 23  1  0
 23 24  1  1
 24 25  1  0
 25 26  1  0
 25 27  2  0
 23 28  1  0
 28 29  1  0
 29 30  1  0
 30 31  1  0
 30 32  2  0
 28 33  1  0
 33 34  1  0
 33 35  1  0
 35 36  2  0
 36 37  1  0
 37 38  1  0
 37 39  1  0
 37 40  1  0
 40 41  1  0
 41 42  1  0
 42 43  1  0
 42 44  2  0
 40  5  1  0
 23 14  1  0
  1 45  1  0
  1 46  1  0
  1 47  1  0
  5 48  1  6
  6 49  1  1
  9 50  1  0
  9 51  1  0
  9 52  1  0
 12 53  1  0
 12 54  1  0
 12 55  1  0
 13 56  1  0
 14 57  1  6
 15 58  1  6
 18 59  1  0
 18 60  1  0
 18 61  1  0
 20 62  1  6
 21 63  1  0
 21 64  1  0
 21 65  1  0
 22 66  1  0
 22 67  1  0
 26 68  1  0
 26 69  1  0
 26 70  1  0
 28 71  1  1
 31 72  1  0
 31 73  1  0
 31 74  1  0
 33 75  1  6
 34 76  1  0
 34 77  1  0
 34 78  1  0
 35 79  1  0
 36 80  1  0
 38 81  1  0
 38 82  1  0
 38 83  1  0
 39 84  1  0
 39 85  1  0
 39 86  1  0
 40 87  1  1
 43 88  1  0
 43 89  1  0
 43 90  1  0
M  END
$$$$
