
     RDKit          3D

 38 40  0  0  0  0  0  0  0  0999 V2000
   -3.0330    1.0788    2.4255 C   0  0  0  0  0  0  0  0  0  0  0  0
   -3.5808    0.5469    1.1434 C   0  0  0  0  0  0  0  0  0  0  0  0
   -4.9154    0.3892    0.8219 C   0  0  0  0  0  0  0  0  0  0  0  0
   -4.9907   -0.0237   -0.5175 C   0  0  0  0  0  0  0  0  0  0  0  0
   -3.7010   -0.1394   -0.9996 C   0  0  0  0  0  0  0  0  0  0  0  0
   -3.2960   -0.6474   -2.3422 C   0  0  0  0  0  0  0  0  0  0  0  0
   -2.8181    0.2129    0.0228 N   0  0  0  0  0  0  0  0  0  0  0  0
   -1.3998    0.2292   -0.0635 C   0  0  0  0  0  0  0  0  0  0  0  0
   -0.7442    0.7310   -1.1813 C   0  0  0  0  0  0  0  0  0  0  0  0
    0.6527    0.7268   -1.2114 C   0  0  0  0  0  0  0  0  0  0  0  0
    1.3825    0.2131   -0.1381 C   0  0  0  0  0  0  0  0  0  0  0  0
    2.7732    0.2267   -0.1498 N   0  0  0  0  0  0  0  0  0  0  0  0
    3.4756   -0.1645   -1.3848 C   0  0  0  0  0  0  0  0  0  0  0  0
    4.5095   -1.2686   -1.1034 C   0  0  0  0  0  0  0  0  0  0  0  0
    5.4870   -0.9046   -0.1193 O   0  0  0  0  0  0  0  0  0  0  0  0
    4.9530   -0.0844    0.9337 C   0  0  0  0  0  0  0  0  0  0  0  0
    3.4292   -0.1938    1.0999 C   0  0  0  0  0  0  0  0  0  0  0  0
    0.7417   -0.2599    0.9531 N   0  0  0  0  0  0  0  0  0  0  0  0
   -0.6148   -0.2518    0.9703 C   0  0  0  0  0  0  0  0  0  0  0  0
   -3.8019    1.6468    2.9614 H   0  0  0  0  0  0  0  0  0  0  0  0
   -2.1932    1.7597    2.2583 H   0  0  0  0  0  0  0  0  0  0  0  0
   -2.7159    0.2619    3.0803 H   0  0  0  0  0  0  0  0  0  0  0  0
   -5.7490    0.5809    1.4862 H   0  0  0  0  0  0  0  0  0  0  0  0
   -5.8928   -0.2396   -1.0766 H   0  0  0  0  0  0  0  0  0  0  0  0
   -4.1103   -1.2270   -2.7916 H   0  0  0  0  0  0  0  0  0  0  0  0
   -2.4288   -1.3116   -2.2818 H   0  0  0  0  0  0  0  0  0  0  0  0
   -3.0743    0.1819   -3.0202 H   0  0  0  0  0  0  0  0  0  0  0  0
   -1.2844    1.1789   -2.0088 H   0  0  0  0  0  0  0  0  0  0  0  0
    1.1621    1.1626   -2.0645 H   0  0  0  0  0  0  0  0  0  0  0  0
    2.7938   -0.5276   -2.1623 H   0  0  0  0  0  0  0  0  0  0  0  0
    3.9890    0.7233   -1.7717 H   0  0  0  0  0  0  0  0  0  0  0  0
    5.0485   -1.5185   -2.0230 H   0  0  0  0  0  0  0  0  0  0  0  0
    4.0108   -2.1835   -0.7617 H   0  0  0  0  0  0  0  0  0  0  0  0
    5.4566   -0.3733    1.8616 H   0  0  0  0  0  0  0  0  0  0  0  0
    5.2370    0.9516    0.7149 H   0  0  0  0  0  0  0  0  0  0  0  0
    3.1658   -1.2324    1.3378 H   0  0  0  0  0  0  0  0  0  0  0  0
    3.1174    0.4498    1.9310 H   0  0  0  0  0  0  0  0  0  0  0  0
   -1.0410   -0.7002    1.8618 H   0  0  0  0  0  0  0  0  0  0  0  0
  1  2  1  0
  2  3  2  0
  3  4  1  0
  4  5  2  0
  5  6  1  0
  5  7  1  0
  7  8  1  0
  8  9  2  0
  9 10  1  0
 10 11  2  0
 11 12  1  0
 12 13  1  0
 13 14  1  0
 14 15  1  0
 15 16  1  0
 16 17  1  0
 11 18  1  0
 18 19  2  0
  7  2  1  0
 19  8  1  0
 17 12  1  0
  1 20  1  0
  1 21  1  0
  1 22  1  0
  3 23  1  0
  4 24  1  0
  6 25  1  0
  6 26  1  0
  6 27  1  0
  9 28  1  0
 10 29  1  0
 13 30  1  0
 13 31  1  0
 14 32  1  0
 14 33  1  0
 16 34  1  0
 16 35  1  0
 17 36  1  0
 17 37  1  0
 19 38  1  0
M  END
$$$$
