
     RDKit          3D

 44 46  0  0  0  0  0  0  0  0999 V2000
    4.7297    2.2593   -0.9144 C   0  0  0  0  0  0  0  0  0  0  0  0
    4.0423    1.0538   -0.5896 O   0  0  0  0  0  0  0  0  0  0  0  0
    4.7950   -0.0320   -0.2134 C   0  0  0  0  0  0  0  0  0  0  0  0
    6.1954   -0.0624   -0.3155 C   0  0  0  0  0  0  0  0  0  0  0  0
    6.9206   -1.1887    0.0817 C   0  0  0  0  0  0  0  0  0  0  0  0
    6.2591   -2.3021    0.5821 C   0  0  0  0  0  0  0  0  0  0  0  0
    4.8686   -2.2900    0.6831 C   0  0  0  0  0  0  0  0  0  0  0  0
    4.1166   -1.1661    0.2866 C   0  0  0  0  0  0  0  0  0  0  0  0
    2.6204   -1.2818    0.4465 C   0  0  0  0  0  0  0  0  0  0  0  0
    2.1674   -2.2821    0.9964 O   0  0  0  0  0  0  0  0  0  0  0  0
    1.8626   -0.2414   -0.0532 N   0  0  0  0  0  0  0  0  0  0  0  0
    0.4628   -0.0947   -0.0414 C   0  0  0  0  0  0  0  0  0  0  0  0
   -0.0612    1.0681   -0.6151 C   0  0  0  0  0  0  0  0  0  0  0  0
   -1.4425    1.2913   -0.6447 C   0  0  0  0  0  0  0  0  0  0  0  0
   -2.3293    0.3528   -0.1019 C   0  0  0  0  0  0  0  0  0  0  0  0
   -3.8033    0.6343   -0.1603 C   0  0  0  0  0  0  0  0  0  0  0  0
   -4.1994    1.8373   -0.4656 N   0  0  0  0  0  0  0  0  0  0  0  0
   -5.5356    2.0787   -0.5533 N   0  0  0  0  0  0  0  0  0  0  0  0
   -6.5194    1.1299   -0.6656 C   0  0  0  0  0  0  0  0  0  0  0  0
   -7.7029    1.4305   -0.7966 O   0  0  0  0  0  0  0  0  0  0  0  0
   -6.0374   -0.2934   -0.6932 C   0  0  0  0  0  0  0  0  0  0  0  0
   -4.7973   -0.4724    0.1714 C   0  0  0  0  0  0  0  0  0  0  0  0
   -5.1380   -0.4392    1.6626 C   0  0  0  0  0  0  0  0  0  0  0  0
   -1.8047   -0.8073    0.4744 C   0  0  0  0  0  0  0  0  0  0  0  0
   -0.4193   -1.0273    0.5031 C   0  0  0  0  0  0  0  0  0  0  0  0
    3.9764    3.0345   -1.0870 H   0  0  0  0  0  0  0  0  0  0  0  0
    5.3641    2.5919   -0.0863 H   0  0  0  0  0  0  0  0  0  0  0  0
    5.3045    2.1433   -1.8387 H   0  0  0  0  0  0  0  0  0  0  0  0
    6.7609    0.7775   -0.7066 H   0  0  0  0  0  0  0  0  0  0  0  0
    8.0051   -1.1945   -0.0024 H   0  0  0  0  0  0  0  0  0  0  0  0
    6.8193   -3.1803    0.8936 H   0  0  0  0  0  0  0  0  0  0  0  0
    4.3673   -3.1732    1.0769 H   0  0  0  0  0  0  0  0  0  0  0  0
    2.3889    0.5188   -0.4731 H   0  0  0  0  0  0  0  0  0  0  0  0
    0.5952    1.8187   -1.0480 H   0  0  0  0  0  0  0  0  0  0  0  0
   -1.8161    2.2064   -1.0995 H   0  0  0  0  0  0  0  0  0  0  0  0
   -5.8178    3.0502   -0.6391 H   0  0  0  0  0  0  0  0  0  0  0  0
   -6.8444   -0.9532   -0.3563 H   0  0  0  0  0  0  0  0  0  0  0  0
   -5.8118   -0.5387   -1.7380 H   0  0  0  0  0  0  0  0  0  0  0  0
   -4.3714   -1.4511   -0.0734 H   0  0  0  0  0  0  0  0  0  0  0  0
   -4.2454   -0.6013    2.2753 H   0  0  0  0  0  0  0  0  0  0  0  0
   -5.5627    0.5243    1.9638 H   0  0  0  0  0  0  0  0  0  0  0  0
   -5.8618   -1.2223    1.9129 H   0  0  0  0  0  0  0  0  0  0  0  0
   -2.4387   -1.5632    0.9265 H   0  0  0  0  0  0  0  0  0  0  0  0
   -0.0620   -1.9429    0.9646 H   0  0  0  0  0  0  0  0  0  0  0  0
  1  2  1  0
  2  3  1  0
  3  4  2  0
  4  5  1  0
  5  6  2  0
  6  7  1  0
  7  8  2  0
  8  9  1  0
  9 10  2  0
  9 11  1  0
 11 12  1  0
 12 13  2  0
 13 14  1  0
 14 15  2  0
 15 16  1  0
 16 17  2  0
 17 18  1  0
 18 19  1  0
 19 20  2  0
 19 21  1  0
 21 22  1  0
 22 23  1  0
 15 24  1  0
 24 25  2  0
  8  3  1  0
 25 12  1  0
 22 16  1  0
  1 26  1  0
  1 27  1  0
  1 28  1  0
  4 29  1  0
  5 30  1  0
  6 31  1  0
  7 32  1  0
 11 33  1  0
 13 34  1  0
 14 35  1  0
 18 36  1  0
 21 37  1  0
 21 38  1  0
 22 39  1  0
 23 40  1  0
 23 41  1  0
 23 42  1  0
 24 43  1  0
 25 44  1  0
M  END
$$$$
