
     RDKit          3D

 53 56  0  0  0  0  0  0  0  0999 V2000
    6.1717    2.3723    1.6285 C   0  0  0  0  0  0  0  0  0  0  0  0
    6.1647    0.9700    1.3932 O   0  0  0  0  0  0  0  0  0  0  0  0
    4.8784    0.4754    1.0092 C   0  0  0  0  0  0  0  0  0  0  0  0
    4.6369    0.6542   -0.4873 C   0  0  0  0  0  0  0  0  0  0  0  0
    3.3463    0.1258   -0.9054 N   0  0  0  0  0  0  0  0  0  0  0  0
    3.1340   -1.1506   -1.3806 C   0  0  0  0  0  0  0  0  0  0  0  0
    4.2055   -2.1759   -1.5138 C   0  0  0  0  0  0  0  0  0  0  0  0
    1.7933   -1.2582   -1.6856 C   0  0  0  0  0  0  0  0  0  0  0  0
    1.1587   -0.0180   -1.3963 C   0  0  0  0  0  0  0  0  0  0  0  0
   -0.2574    0.3420   -1.5829 C   0  0  0  0  0  0  0  0  0  0  0  0
   -0.6466    1.5090   -1.4748 O   0  0  0  0  0  0  0  0  0  0  0  0
   -1.2524   -0.7336   -1.9821 C   0  0  0  0  0  0  0  0  0  0  0  0
   -1.6052   -1.9200   -0.6506 S   0  0  0  0  0  0  0  0  0  0  0  0
   -2.1744   -0.7914    0.5816 C   0  0  0  0  0  0  0  0  0  0  0  0
   -1.2492   -0.1427    1.3123 N   0  0  0  0  0  0  0  0  0  0  0  0
   -1.6622    0.7290    2.2486 C   0  0  0  0  0  0  0  0  0  0  0  0
   -0.5992    1.4740    2.9962 C   0  0  0  0  0  0  0  0  0  0  0  0
   -2.9340    1.0214    2.5506 N   0  0  0  0  0  0  0  0  0  0  0  0
   -3.8244    0.3418    1.8095 C   0  0  0  0  0  0  0  0  0  0  0  0
   -5.5123    0.5702    2.0589 S   0  0  0  0  0  0  0  0  0  0  0  0
   -5.8570   -0.5329    0.8537 C   0  0  0  0  0  0  0  0  0  0  0  0
   -4.7523   -1.0747    0.2545 C   0  0  0  0  0  0  0  0  0  0  0  0
   -3.5362   -0.5808    0.8035 C   0  0  0  0  0  0  0  0  0  0  0  0
   -5.1486   -2.0441   -0.8000 C   0  0  0  0  0  0  0  0  0  0  0  0
   -6.6707   -1.7456   -0.9777 C   0  0  0  0  0  0  0  0  0  0  0  0
   -7.1463   -1.0314    0.3228 C   0  0  0  0  0  0  0  0  0  0  0  0
    2.1520    0.8224   -0.8958 C   0  0  0  0  0  0  0  0  0  0  0  0
    2.0205    2.2328   -0.4182 C   0  0  0  0  0  0  0  0  0  0  0  0
    7.1805    2.6624    1.9347 H   0  0  0  0  0  0  0  0  0  0  0  0
    5.9148    2.9237    0.7202 H   0  0  0  0  0  0  0  0  0  0  0  0
    5.4775    2.6289    2.4345 H   0  0  0  0  0  0  0  0  0  0  0  0
    4.0921    0.9432    1.6138 H   0  0  0  0  0  0  0  0  0  0  0  0
    4.8664   -0.5922    1.2557 H   0  0  0  0  0  0  0  0  0  0  0  0
    5.4247    0.1558   -1.0630 H   0  0  0  0  0  0  0  0  0  0  0  0
    4.6877    1.7056   -0.7879 H   0  0  0  0  0  0  0  0  0  0  0  0
    4.7276   -2.3240   -0.5637 H   0  0  0  0  0  0  0  0  0  0  0  0
    3.7848   -3.1410   -1.8152 H   0  0  0  0  0  0  0  0  0  0  0  0
    4.9330   -1.8765   -2.2747 H   0  0  0  0  0  0  0  0  0  0  0  0
    1.3279   -2.1515   -2.0832 H   0  0  0  0  0  0  0  0  0  0  0  0
   -0.8780   -1.2678   -2.8609 H   0  0  0  0  0  0  0  0  0  0  0  0
   -2.1896   -0.2512   -2.2821 H   0  0  0  0  0  0  0  0  0  0  0  0
   -0.8774    1.5816    4.0490 H   0  0  0  0  0  0  0  0  0  0  0  0
    0.3569    0.9436    2.9465 H   0  0  0  0  0  0  0  0  0  0  0  0
   -0.4711    2.4688    2.5596 H   0  0  0  0  0  0  0  0  0  0  0  0
   -4.6134   -1.8947   -1.7415 H   0  0  0  0  0  0  0  0  0  0  0  0
   -4.9986   -3.0715   -0.4522 H   0  0  0  0  0  0  0  0  0  0  0  0
   -7.2490   -2.6497   -1.1916 H   0  0  0  0  0  0  0  0  0  0  0  0
   -6.8020   -1.0627   -1.8276 H   0  0  0  0  0  0  0  0  0  0  0  0
   -7.5992   -1.7509    1.0125 H   0  0  0  0  0  0  0  0  0  0  0  0
   -7.8612   -0.2350    0.0992 H   0  0  0  0  0  0  0  0  0  0  0  0
    2.8619    2.5533    0.2008 H   0  0  0  0  0  0  0  0  0  0  0  0
    1.1225    2.3490    0.1970 H   0  0  0  0  0  0  0  0  0  0  0  0
    1.9478    2.9126   -1.2730 H   0  0  0  0  0  0  0  0  0  0  0  0
  1  2  1  0
  2  3  1  0
  3  4  1  0
  4  5  1  0
  5  6  1  0
  6  7  1  0
  6  8  2  0
  8  9  1  0
  9 10  1  0
 10 11  2  0
 10 12  1  0
 12 13  1  0
 13 14  1  0
 14 15  2  0
 15 16  1  0
 16 17  1  0
 16 18  2  0
 18 19  1  0
 19 20  1  0
 20 21  1  0
 21 22  2  0
 22 23  1  0
 22 24  1  0
 24 25  1  0
 25 26  1  0
  9 27  2  0
 27 28  1  0
 27  5  1  0
 23 14  1  0
 23 19  2  0
 26 21  1  0
  1 29  1  0
  1 30  1  0
  1 31  1  0
  3 32  1  0
  3 33  1  0
  4 34  1  0
  4 35  1  0
  7 36  1  0
  7 37  1  0
  7 38  1  0
  8 39  1  0
 12 40  1  0
 12 41  1  0
 17 42  1  0
 17 43  1  0
 17 44  1  0
 24 45  1  0
 24 46  1  0
 25 47  1  0
 25 48  1  0
 26 49  1  0
 26 50  1  0
 28 51  1  0
 28 52  1  0
 28 53  1  0
M  END
$$$$
