
     RDKit          3D

 53 55  0  0  0  0  0  0  0  0999 V2000
    4.6207   -3.3512    1.8258 C   0  0  0  0  0  0  0  0  0  0  0  0
    5.0761   -2.0144    1.6622 O   0  0  0  0  0  0  0  0  0  0  0  0
    4.2149   -1.1285    1.0708 C   0  0  0  0  0  0  0  0  0  0  0  0
    2.8640   -1.3632    0.8197 C   0  0  0  0  0  0  0  0  0  0  0  0
    2.0843   -0.3616    0.2255 C   0  0  0  0  0  0  0  0  0  0  0  0
    0.6542   -0.6376   -0.0218 C   0  0  0  0  0  0  0  0  0  0  0  0
   -0.1270    0.2431   -0.5642 N   0  0  0  0  0  0  0  0  0  0  0  0
   -1.4433   -0.1202   -0.7203 N   0  0  0  0  0  0  0  0  0  0  0  0
   -2.2101    0.7021   -1.6591 C   0  0  0  0  0  0  0  0  0  0  0  0
   -3.6175    0.1330   -1.9113 C   0  0  0  0  0  0  0  0  0  0  0  0
   -4.3746   -0.0564   -0.6536 N   0  0  0  0  0  0  0  0  0  0  0  0
   -5.7570    0.0564   -0.6526 C   0  0  0  0  0  0  0  0  0  0  0  0
   -6.5161   -0.2617   -1.7931 C   0  0  0  0  0  0  0  0  0  0  0  0
   -7.9135   -0.1635   -1.8087 C   0  0  0  0  0  0  0  0  0  0  0  0
   -8.5867    0.2567   -0.6699 C   0  0  0  0  0  0  0  0  0  0  0  0
  -10.3015    0.3808   -0.6798 Cl  0  0  0  0  0  0  0  0  0  0  0  0
   -7.8734    0.5740    0.4782 C   0  0  0  0  0  0  0  0  0  0  0  0
   -6.4757    0.4700    0.4818 C   0  0  0  0  0  0  0  0  0  0  0  0
   -3.5920   -0.0322    0.5953 C   0  0  0  0  0  0  0  0  0  0  0  0
   -2.2038   -0.6799    0.4092 C   0  0  0  0  0  0  0  0  0  0  0  0
    2.6362    0.8803   -0.1190 C   0  0  0  0  0  0  0  0  0  0  0  0
    3.9844    1.1320    0.1253 C   0  0  0  0  0  0  0  0  0  0  0  0
    4.6361    2.3045   -0.1519 O   0  0  0  0  0  0  0  0  0  0  0  0
    3.9066    3.2958   -0.8646 C   0  0  0  0  0  0  0  0  0  0  0  0
    4.7568    0.1162    0.7105 C   0  0  0  0  0  0  0  0  0  0  0  0
    6.1083    0.3699    0.9808 O   0  0  0  0  0  0  0  0  0  0  0  0
    6.9231   -0.0224   -0.0706 C   0  0  0  0  0  0  0  0  0  0  0  0
    8.3462    0.2904    0.2858 C   0  0  0  0  0  0  0  0  0  0  0  0
    6.5804   -0.5428   -1.1253 O   0  0  0  0  0  0  0  0  0  0  0  0
    3.8129   -3.4015    2.5630 H   0  0  0  0  0  0  0  0  0  0  0  0
    4.3115   -3.7866    0.8696 H   0  0  0  0  0  0  0  0  0  0  0  0
    5.4568   -3.9449    2.2075 H   0  0  0  0  0  0  0  0  0  0  0  0
    2.3990   -2.3067    1.0828 H   0  0  0  0  0  0  0  0  0  0  0  0
    0.2862   -1.6391    0.2643 H   0  0  0  0  0  0  0  0  0  0  0  0
   -1.6523    0.7606   -2.6001 H   0  0  0  0  0  0  0  0  0  0  0  0
   -2.2813    1.7113   -1.2354 H   0  0  0  0  0  0  0  0  0  0  0  0
   -4.1372    0.8261   -2.5838 H   0  0  0  0  0  0  0  0  0  0  0  0
   -3.5343   -0.8372   -2.4159 H   0  0  0  0  0  0  0  0  0  0  0  0
   -6.0273   -0.6212   -2.6950 H   0  0  0  0  0  0  0  0  0  0  0  0
   -8.4604   -0.4235   -2.7104 H   0  0  0  0  0  0  0  0  0  0  0  0
   -8.3894    0.9057    1.3747 H   0  0  0  0  0  0  0  0  0  0  0  0
   -5.9587    0.7457    1.3964 H   0  0  0  0  0  0  0  0  0  0  0  0
   -4.1063   -0.5874    1.3887 H   0  0  0  0  0  0  0  0  0  0  0  0
   -3.4731    1.0070    0.9263 H   0  0  0  0  0  0  0  0  0  0  0  0
   -2.3212   -1.7491    0.1986 H   0  0  0  0  0  0  0  0  0  0  0  0
   -1.6288   -0.5712    1.3351 H   0  0  0  0  0  0  0  0  0  0  0  0
    1.9913    1.6281   -0.5696 H   0  0  0  0  0  0  0  0  0  0  0  0
    4.5833    4.1340   -1.0572 H   0  0  0  0  0  0  0  0  0  0  0  0
    3.0709    3.6740   -0.2668 H   0  0  0  0  0  0  0  0  0  0  0  0
    3.5628    2.9166   -1.8327 H   0  0  0  0  0  0  0  0  0  0  0  0
    8.9988    0.0026   -0.5435 H   0  0  0  0  0  0  0  0  0  0  0  0
    8.4578    1.3637    0.4589 H   0  0  0  0  0  0  0  0  0  0  0  0
    8.6389   -0.2764    1.1731 H   0  0  0  0  0  0  0  0  0  0  0  0
  1  2  1  0
  2  3  1  0
  3  4  2  0
  4  5  1  0
  5  6  1  0
  6  7  2  3
  7  8  1  0
  8  9  1  0
  9 10  1  0
 10 11  1  0
 11 12  1  0
 12 13  2  0
 13 14  1  0
 14 15  2  0
 15 16  1  0
 15 17  1  0
 17 18  2  0
 11 19  1  0
 19 20  1  0
  5 21  2  0
 21 22  1  0
 22 23  1  0
 23 24  1  0
 22 25  2  0
 25 26  1  0
 26 27  1  0
 27 28  1  0
 27 29  2  0
 25  3  1  0
 20  8  1  0
 18 12  1  0
  1 30  1  0
  1 31  1  0
  1 32  1  0
  4 33  1  0
  6 34  1  0
  9 35  1  0
  9 36  1  0
 10 37  1  0
 10 38  1  0
 13 39  1  0
 14 40  1  0
 17 41  1  0
 18 42  1  0
 19 43  1  0
 19 44  1  0
 20 45  1  0
 20 46  1  0
 21 47  1  0
 24 48  1  0
 24 49  1  0
 24 50  1  0
 28 51  1  0
 28 52  1  0
 28 53  1  0
M  END
$$$$
