
     RDKit          3D

 48 50  0  0  0  0  0  0  0  0999 V2000
    6.5541   -2.3395   -0.6890 C   0  0  0  0  0  0  0  0  0  0  0  0
    5.2233   -2.6810   -1.3417 C   0  0  0  0  0  0  0  0  0  0  0  0
    4.0140   -2.1252   -0.5968 C   0  0  0  0  0  0  0  0  0  0  0  0
    3.8629   -0.3526   -0.7252 S   0  0  0  0  0  6  0  0  0  0  0  0
    3.7075    0.0113   -2.1217 O   0  0  0  0  0  0  0  0  0  0  0  0
    4.8444    0.2797    0.1352 O   0  0  0  0  0  0  0  0  0  0  0  0
    2.2892   -0.0314    0.0258 C   0  0  0  0  0  0  0  0  0  0  0  0
    1.4253   -0.9418    0.4163 N   0  0  0  0  0  0  0  0  0  0  0  0
    0.3090   -0.2951    0.9567 C   0  0  0  0  0  0  0  0  0  0  0  0
   -1.0643   -1.2303    1.5093 S   0  0  0  0  0  6  0  0  0  0  0  0
   -1.8188   -0.3525    2.3881 O   0  0  0  0  0  0  0  0  0  0  0  0
   -0.5096   -2.4868    1.9752 O   0  0  0  0  0  0  0  0  0  0  0  0
   -2.0053   -1.5150    0.0382 C   0  0  0  0  0  0  0  0  0  0  0  0
   -1.8831   -2.7305   -0.6384 C   0  0  0  0  0  0  0  0  0  0  0  0
   -2.6334   -2.9501   -1.7944 C   0  0  0  0  0  0  0  0  0  0  0  0
   -3.5061   -1.9635   -2.2752 C   0  0  0  0  0  0  0  0  0  0  0  0
   -4.3235   -2.2244   -3.5071 C   0  0  0  0  0  0  0  0  0  0  0  0
   -3.6343   -0.7581   -1.5729 C   0  0  0  0  0  0  0  0  0  0  0  0
   -2.8864   -0.5303   -0.4164 C   0  0  0  0  0  0  0  0  0  0  0  0
    0.3464    1.0990    0.9602 C   0  0  0  0  0  0  0  0  0  0  0  0
   -0.6140    1.9639    1.4086 N   0  0  0  0  0  0  0  0  0  0  0  0
   -0.3243    3.3634    1.7237 C   0  0  0  0  0  0  0  0  0  0  0  0
   -1.5219    4.1730    2.0980 C   0  0  0  0  0  0  0  0  0  0  0  0
   -2.8476    3.8777    2.3493 C   0  0  0  0  0  0  0  0  0  0  0  0
   -3.4816    5.1059    2.6545 C   0  0  0  0  0  0  0  0  0  0  0  0
   -2.5063    6.0708    2.5733 C   0  0  0  0  0  0  0  0  0  0  0  0
   -1.3144    5.5154    2.2390 O   0  0  0  0  0  0  0  0  0  0  0  0
    1.8382    1.5941    0.2412 S   0  0  0  0  0  0  0  0  0  0  0  0
    6.5640   -2.6357    0.3647 H   0  0  0  0  0  0  0  0  0  0  0  0
    6.7718   -1.2700   -0.7538 H   0  0  0  0  0  0  0  0  0  0  0  0
    7.3661   -2.8708   -1.1954 H   0  0  0  0  0  0  0  0  0  0  0  0
    5.2285   -2.3289   -2.3800 H   0  0  0  0  0  0  0  0  0  0  0  0
    5.1325   -3.7735   -1.3756 H   0  0  0  0  0  0  0  0  0  0  0  0
    4.0467   -2.3871    0.4653 H   0  0  0  0  0  0  0  0  0  0  0  0
    3.1064   -2.5496   -1.0387 H   0  0  0  0  0  0  0  0  0  0  0  0
   -1.2119   -3.5075   -0.2779 H   0  0  0  0  0  0  0  0  0  0  0  0
   -2.5371   -3.8982   -2.3210 H   0  0  0  0  0  0  0  0  0  0  0  0
   -4.7745   -1.3033   -3.8909 H   0  0  0  0  0  0  0  0  0  0  0  0
   -3.6935   -2.6373   -4.3022 H   0  0  0  0  0  0  0  0  0  0  0  0
   -5.1257   -2.9335   -3.2800 H   0  0  0  0  0  0  0  0  0  0  0  0
   -4.3189    0.0115   -1.9233 H   0  0  0  0  0  0  0  0  0  0  0  0
   -2.9991    0.4110    0.1159 H   0  0  0  0  0  0  0  0  0  0  0  0
   -1.3014    1.5662    2.0597 H   0  0  0  0  0  0  0  0  0  0  0  0
    0.3832    3.3996    2.5605 H   0  0  0  0  0  0  0  0  0  0  0  0
    0.1463    3.8536    0.8631 H   0  0  0  0  0  0  0  0  0  0  0  0
   -3.3030    2.8972    2.3146 H   0  0  0  0  0  0  0  0  0  0  0  0
   -4.5208    5.2683    2.9027 H   0  0  0  0  0  0  0  0  0  0  0  0
   -2.4988    7.1418    2.7161 H   0  0  0  0  0  0  0  0  0  0  0  0
  1  2  1  0
  2  3  1  0
  3  4  1  0
  4  5  2  0
  4  6  2  0
  4  7  1  0
  7  8  2  0
  8  9  1  0
  9 10  1  0
 10 11  2  0
 10 12  2  0
 10 13  1  0
 13 14  2  0
 14 15  1  0
 15 16  2  0
 16 17  1  0
 16 18  1  0
 18 19  2  0
  9 20  2  0
 20 21  1  0
 21 22  1  0
 22 23  1  0
 23 24  2  0
 24 25  1  0
 25 26  2  0
 26 27  1  0
 20 28  1  0
 28  7  1  0
 19 13  1  0
 27 23  1  0
  1 29  1  0
  1 30  1  0
  1 31  1  0
  2 32  1  0
  2 33  1  0
  3 34  1  0
  3 35  1  0
 14 36  1  0
 15 37  1  0
 17 38  1  0
 17 39  1  0
 17 40  1  0
 18 41  1  0
 19 42  1  0
 21 43  1  0
 22 44  1  0
 22 45  1  0
 24 46  1  0
 25 47  1  0
 26 48  1  0
M  END
$$$$
