
     RDKit          3D

 40 42  0  0  0  0  0  0  0  0999 V2000
   -5.1089   -2.3526    0.7687 C   0  0  0  0  0  0  0  0  0  0  0  0
   -4.0800   -1.4766    0.3278 O   0  0  0  0  0  0  0  0  0  0  0  0
   -4.2157   -0.1402    0.6173 C   0  0  0  0  0  0  0  0  0  0  0  0
   -5.2955    0.4076    1.3213 C   0  0  0  0  0  0  0  0  0  0  0  0
   -5.3565    1.7806    1.5715 C   0  0  0  0  0  0  0  0  0  0  0  0
   -4.3443    2.6190    1.1170 C   0  0  0  0  0  0  0  0  0  0  0  0
   -3.2634    2.0858    0.4152 C   0  0  0  0  0  0  0  0  0  0  0  0
   -3.1772    0.7052    0.1690 C   0  0  0  0  0  0  0  0  0  0  0  0
   -2.0444    0.1562   -0.6011 C   0  0  0  0  0  0  0  0  0  0  0  0
   -0.7750    0.5546   -0.4423 C   0  0  0  0  0  0  0  0  0  0  0  0
    0.2884   -0.0743   -1.2512 C   0  0  0  0  0  0  0  0  0  0  0  0
    1.5224    0.2779   -1.1010 N   0  0  0  0  0  0  0  0  0  0  0  0
    2.4563   -0.2985   -1.9096 N   0  0  0  0  0  0  0  0  0  0  0  0
    3.7484   -0.5221   -1.5198 C   0  0  0  0  0  0  0  0  0  0  0  0
    4.1891   -0.2590   -0.1503 C   0  0  0  0  0  0  0  0  0  0  0  0
    4.4741   -1.3658    0.6598 C   0  0  0  0  0  0  0  0  0  0  0  0
    4.8930   -1.1697    1.9764 C   0  0  0  0  0  0  0  0  0  0  0  0
    5.0344    0.1268    2.4713 C   0  0  0  0  0  0  0  0  0  0  0  0
    5.5509    0.3650    4.0952 Cl  0  0  0  0  0  0  0  0  0  0  0  0
    4.7707    1.2315    1.6615 C   0  0  0  0  0  0  0  0  0  0  0  0
    4.3515    1.0404    0.3422 C   0  0  0  0  0  0  0  0  0  0  0  0
    4.1016    2.4419   -0.6356 Cl  0  0  0  0  0  0  0  0  0  0  0  0
    4.5205   -1.0187   -2.4475 N   0  0  0  0  0  0  0  0  0  0  0  0
    3.7086   -1.0899   -3.5498 N   0  0  0  0  0  0  0  0  0  0  0  0
    2.4359   -0.5828   -3.2649 C   0  0  0  0  0  0  0  0  0  0  0  0
    1.2761   -0.3784   -4.4345 S   0  0  0  0  0  0  0  0  0  0  0  0
   -6.0679   -2.1017    0.3036 H   0  0  0  0  0  0  0  0  0  0  0  0
   -4.8423   -3.3659    0.4530 H   0  0  0  0  0  0  0  0  0  0  0  0
   -5.1848   -2.3547    1.8610 H   0  0  0  0  0  0  0  0  0  0  0  0
   -6.1102   -0.2068    1.6896 H   0  0  0  0  0  0  0  0  0  0  0  0
   -6.2002    2.1955    2.1176 H   0  0  0  0  0  0  0  0  0  0  0  0
   -4.3975    3.6889    1.3022 H   0  0  0  0  0  0  0  0  0  0  0  0
   -2.4945    2.7635    0.0512 H   0  0  0  0  0  0  0  0  0  0  0  0
   -2.3031   -0.6330   -1.3039 H   0  0  0  0  0  0  0  0  0  0  0  0
   -0.4677    1.3165    0.2639 H   0  0  0  0  0  0  0  0  0  0  0  0
   -0.0378   -0.8698   -1.9418 H   0  0  0  0  0  0  0  0  0  0  0  0
    4.3675   -2.3754    0.2689 H   0  0  0  0  0  0  0  0  0  0  0  0
    5.1089   -2.0280    2.6082 H   0  0  0  0  0  0  0  0  0  0  0  0
    4.8996    2.2369    2.0540 H   0  0  0  0  0  0  0  0  0  0  0  0
    4.0689   -1.3297   -4.4658 H   0  0  0  0  0  0  0  0  0  0  0  0
  1  2  1  0
  2  3  1  0
  3  4  2  0
  4  5  1  0
  5  6  2  0
  6  7  1  0
  7  8  2  0
  8  9  1  0
  9 10  2  3
 10 11  1  0
 11 12  2  3
 12 13  1  0
 13 14  1  0
 14 15  1  0
 15 16  2  0
 16 17  1  0
 17 18  2  0
 18 19  1  0
 18 20  1  0
 20 21  2  0
 21 22  1  0
 14 23  2  0
 23 24  1  0
 24 25  1  0
 25 26  2  0
  8  3  1  0
 25 13  1  0
 21 15  1  0
  1 27  1  0
  1 28  1  0
  1 29  1  0
  4 30  1  0
  5 31  1  0
  6 32  1  0
  7 33  1  0
  9 34  1  0
 10 35  1  0
 11 36  1  0
 16 37  1  0
 17 38  1  0
 20 39  1  0
 24 40  1  0
M  END
$$$$
