
     RDKit          3D

 44 46  0  0  0  0  0  0  0  0999 V2000
    2.6244    3.1834   -3.6709 C   0  0  0  0  0  0  0  0  0  0  0  0
    2.8622    3.4078   -2.2473 N   0  0  0  0  0  0  0  0  0  0  0  0
    3.5687    2.2717   -1.6230 C   0  0  0  0  0  0  0  0  0  0  0  0
    2.7375    0.9807   -1.4499 C   0  0  0  0  0  0  0  0  0  0  0  0
    1.4470    1.2283   -0.7528 N   0  0  0  0  0  0  0  0  0  0  0  0
    0.7892    0.1842   -0.0669 C   0  0  0  0  0  0  0  0  0  0  0  0
   -0.5523    0.0390   -0.0054 C   0  0  0  0  0  0  0  0  0  0  0  0
   -1.2410   -1.0374    0.6938 C   0  0  0  0  0  0  0  0  0  0  0  0
   -2.5825   -1.0349    0.8161 C   0  0  0  0  0  0  0  0  0  0  0  0
   -3.3442   -2.0881    1.4983 C   0  0  0  0  0  0  0  0  0  0  0  0
   -4.6810   -2.0063    1.7226 C   0  0  0  0  0  0  0  0  0  0  0  0
   -5.3943   -3.0623    2.3632 C   0  0  0  0  0  0  0  0  0  0  0  0
   -5.9627   -3.9300    2.8837 N   0  0  0  0  0  0  0  0  0  0  0  0
   -5.4534   -0.8749    1.3246 C   0  0  0  0  0  0  0  0  0  0  0  0
   -6.0711    0.0500    0.9925 N   0  0  0  0  0  0  0  0  0  0  0  0
   -2.5130   -3.2922    1.9255 C   0  0  0  0  0  0  0  0  0  0  0  0
   -1.1128   -2.8919    2.3880 C   0  0  0  0  0  0  0  0  0  0  0  0
   -0.3774   -2.1336    1.2775 C   0  0  0  0  0  0  0  0  0  0  0  0
    0.9405   -1.5605    1.7993 C   0  0  0  0  0  0  0  0  0  0  0  0
    1.6720   -0.8007    0.6917 C   0  0  0  0  0  0  0  0  0  0  0  0
    0.7050    2.3790   -1.3287 C   0  0  0  0  0  0  0  0  0  0  0  0
    1.6016    3.6254   -1.5099 C   0  0  0  0  0  0  0  0  0  0  0  0
    3.5761    3.0583   -4.1994 H   0  0  0  0  0  0  0  0  0  0  0  0
    2.1347    4.0569   -4.1157 H   0  0  0  0  0  0  0  0  0  0  0  0
    2.0041    2.3058   -3.8776 H   0  0  0  0  0  0  0  0  0  0  0  0
    4.4813    2.0447   -2.1879 H   0  0  0  0  0  0  0  0  0  0  0  0
    3.9109    2.5961   -0.6310 H   0  0  0  0  0  0  0  0  0  0  0  0
    2.5281    0.5286   -2.4268 H   0  0  0  0  0  0  0  0  0  0  0  0
    3.3597    0.2687   -0.8985 H   0  0  0  0  0  0  0  0  0  0  0  0
   -1.1929    0.7486   -0.5198 H   0  0  0  0  0  0  0  0  0  0  0  0
   -3.1362   -0.1997    0.3882 H   0  0  0  0  0  0  0  0  0  0  0  0
   -2.9855   -3.8466    2.7434 H   0  0  0  0  0  0  0  0  0  0  0  0
   -2.4331   -3.9824    1.0754 H   0  0  0  0  0  0  0  0  0  0  0  0
   -0.5458   -3.7893    2.6636 H   0  0  0  0  0  0  0  0  0  0  0  0
   -1.1887   -2.2737    3.2928 H   0  0  0  0  0  0  0  0  0  0  0  0
   -0.1498   -2.8430    0.4684 H   0  0  0  0  0  0  0  0  0  0  0  0
    0.7536   -0.8824    2.6433 H   0  0  0  0  0  0  0  0  0  0  0  0
    1.5847   -2.3641    2.1760 H   0  0  0  0  0  0  0  0  0  0  0  0
    2.0920   -1.5198   -0.0229 H   0  0  0  0  0  0  0  0  0  0  0  0
    2.5106   -0.2681    1.1570 H   0  0  0  0  0  0  0  0  0  0  0  0
    0.2633    2.0815   -2.2871 H   0  0  0  0  0  0  0  0  0  0  0  0
   -0.1132    2.6740   -0.6611 H   0  0  0  0  0  0  0  0  0  0  0  0
    1.0221    4.4248   -1.9883 H   0  0  0  0  0  0  0  0  0  0  0  0
    1.8619    4.0087   -0.5140 H   0  0  0  0  0  0  0  0  0  0  0  0
  1  2  1  0
  2  3  1  0
  3  4  1  0
  4  5  1  0
  5  6  1  0
  6  7  2  0
  7  8  1  0
  8  9  2  0
  9 10  1  0
 10 11  2  3
 11 12  1  0
 12 13  3  0
 11 14  1  0
 14 15  3  0
 10 16  1  0
 16 17  1  0
 17 18  1  0
 18 19  1  0
 19 20  1  0
  5 21  1  0
 21 22  1  0
 22  2  1  0
 20  6  1  0
 18  8  1  0
  1 23  1  0
  1 24  1  0
  1 25  1  0
  3 26  1  0
  3 27  1  0
  4 28  1  0
  4 29  1  0
  7 30  1  0
  9 31  1  0
 16 32  1  0
 16 33  1  0
 17 34  1  0
 17 35  1  0
 18 36  1  0
 19 37  1  0
 19 38  1  0
 20 39  1  0
 20 40  1  0
 21 41  1  0
 21 42  1  0
 22 43  1  0
 22 44  1  0
M  END
$$$$
