
     RDKit          3D

 41 42  0  0  0  0  0  0  0  0999 V2000
   -6.1699   -1.1230    1.1104 C   0  0  0  0  0  0  0  0  0  0  0  0
   -5.7752   -0.9001   -0.3375 C   0  0  0  0  0  0  0  0  0  0  0  0
   -4.3756   -0.5963   -0.4282 O   0  0  0  0  0  0  0  0  0  0  0  0
   -4.0375    0.7126   -0.2729 C   0  0  0  0  0  0  0  0  0  0  0  0
   -4.8495    1.6075   -0.0716 O   0  0  0  0  0  0  0  0  0  0  0  0
   -2.6710    0.9198   -0.3728 N   0  0  0  0  0  0  0  0  0  0  0  0
   -1.7161   -0.1941   -0.3390 C   0  0  0  0  0  0  0  0  0  0  0  0
   -0.3783    0.1664   -1.0092 C   0  0  0  0  0  0  0  0  0  0  0  0
    0.1565    1.4315   -0.4679 N   0  0  0  0  0  0  0  0  0  0  0  0
    1.1276    1.4300    0.5602 C   0  0  0  0  0  0  0  0  0  0  0  0
    1.1853    2.5473    1.8083 S   0  0  0  0  0  0  0  0  0  0  0  0
    2.0669    0.4090    0.3722 N   0  0  0  0  0  0  0  0  0  0  0  0
    3.0985    0.0021    1.2155 C   0  0  0  0  0  0  0  0  0  0  0  0
    3.0998    0.0724    2.4378 O   0  0  0  0  0  0  0  0  0  0  0  0
    4.2520   -0.6656    0.5534 C   0  0  0  0  0  0  0  0  0  0  0  0
    5.5295   -0.4741    1.1060 C   0  0  0  0  0  0  0  0  0  0  0  0
    6.6472   -1.0814    0.5275 C   0  0  0  0  0  0  0  0  0  0  0  0
    6.4828   -1.8858   -0.5943 C   0  0  0  0  0  0  0  0  0  0  0  0
    7.5533   -2.4678   -1.1503 F   0  0  0  0  0  0  0  0  0  0  0  0
    5.2166   -2.0909   -1.1318 C   0  0  0  0  0  0  0  0  0  0  0  0
    5.0598   -2.8775   -2.2052 F   0  0  0  0  0  0  0  0  0  0  0  0
    4.0942   -1.4910   -0.5659 C   0  0  0  0  0  0  0  0  0  0  0  0
   -0.8037    2.5413   -0.6455 C   0  0  0  0  0  0  0  0  0  0  0  0
   -2.1492    2.2318    0.0256 C   0  0  0  0  0  0  0  0  0  0  0  0
   -5.5524   -1.9071    1.5606 H   0  0  0  0  0  0  0  0  0  0  0  0
   -7.2212   -1.4150    1.1851 H   0  0  0  0  0  0  0  0  0  0  0  0
   -6.0161   -0.2165    1.7042 H   0  0  0  0  0  0  0  0  0  0  0  0
   -5.9391   -1.8201   -0.9082 H   0  0  0  0  0  0  0  0  0  0  0  0
   -6.3857   -0.1197   -0.8062 H   0  0  0  0  0  0  0  0  0  0  0  0
   -1.5564   -0.4436    0.7170 H   0  0  0  0  0  0  0  0  0  0  0  0
   -2.1357   -1.0774   -0.8304 H   0  0  0  0  0  0  0  0  0  0  0  0
    0.3186   -0.6651   -0.8779 H   0  0  0  0  0  0  0  0  0  0  0  0
   -0.5241    0.3130   -2.0860 H   0  0  0  0  0  0  0  0  0  0  0  0
    2.2172    0.2515   -0.6120 H   0  0  0  0  0  0  0  0  0  0  0  0
    5.6533    0.1498    1.9912 H   0  0  0  0  0  0  0  0  0  0  0  0
    7.6380   -0.9351    0.9474 H   0  0  0  0  0  0  0  0  0  0  0  0
    3.1225   -1.7106   -0.9936 H   0  0  0  0  0  0  0  0  0  0  0  0
   -0.9520    2.6546   -1.7268 H   0  0  0  0  0  0  0  0  0  0  0  0
   -0.3951    3.4885   -0.2837 H   0  0  0  0  0  0  0  0  0  0  0  0
   -2.0436    2.2124    1.1165 H   0  0  0  0  0  0  0  0  0  0  0  0
   -2.8721    3.0164   -0.2222 H   0  0  0  0  0  0  0  0  0  0  0  0
  1  2  1  0
  2  3  1  0
  3  4  1  0
  4  5  2  0
  4  6  1  0
  6  7  1  0
  7  8  1  0
  8  9  1  0
  9 10  1  0
 10 11  2  0
 10 12  1  0
 12 13  1  0
 13 14  2  0
 13 15  1  0
 15 16  2  0
 16 17  1  0
 17 18  2  0
 18 19  1  0
 18 20  1  0
 20 21  1  0
 20 22  2  0
  9 23  1  0
 23 24  1  0
 24  6  1  0
 22 15  1  0
  1 25  1  0
  1 26  1  0
  1 27  1  0
  2 28  1  0
  2 29  1  0
  7 30  1  0
  7 31  1  0
  8 32  1  0
  8 33  1  0
 12 34  1  0
 16 35  1  0
 17 36  1  0
 22 37  1  0
 23 38  1  0
 23 39  1  0
 24 40  1  0
 24 41  1  0
M  END
$$$$
