
     RDKit          3D

 46 49  0  0  0  0  0  0  0  0999 V2000
    6.2884   -0.9253    2.1880 N   0  0  0  0  0  0  0  0  0  0  0  0
    6.0271   -0.2118    0.6834 S   0  0  0  0  0  6  0  0  0  0  0  0
    6.5016    1.1496    0.7523 O   0  0  0  0  0  0  0  0  0  0  0  0
    6.5213   -1.1604   -0.2879 O   0  0  0  0  0  0  0  0  0  0  0  0
    4.2579   -0.1934    0.6090 C   0  0  0  0  0  0  0  0  0  0  0  0
    3.5748   -1.2751    0.0606 C   0  0  0  0  0  0  0  0  0  0  0  0
    2.1770   -1.2479    0.0139 C   0  0  0  0  0  0  0  0  0  0  0  0
    1.4324   -0.1536    0.4952 C   0  0  0  0  0  0  0  0  0  0  0  0
    0.0404   -0.1607    0.4337 N   0  0  0  0  0  0  0  0  0  0  0  0
   -0.6329   -1.2473   -0.0479 N   0  0  0  0  0  0  0  0  0  0  0  0
   -1.8989   -1.0350    0.1502 C   0  0  0  0  0  0  0  0  0  0  0  0
   -2.9551   -1.9880   -0.2641 C   0  0  0  0  0  0  0  0  0  0  0  0
   -4.3003   -1.7755    0.0580 C   0  0  0  0  0  0  0  0  0  0  0  0
   -5.2707   -2.6947   -0.3502 C   0  0  0  0  0  0  0  0  0  0  0  0
   -4.9029   -3.8258   -1.0778 C   0  0  0  0  0  0  0  0  0  0  0  0
   -3.5643   -4.0429   -1.3994 C   0  0  0  0  0  0  0  0  0  0  0  0
   -2.5919   -3.1271   -0.9935 C   0  0  0  0  0  0  0  0  0  0  0  0
   -2.2241    0.2456    0.8689 C   0  0  0  0  0  0  0  0  0  0  0  0
   -0.8500    0.9182    0.8679 C   0  0  0  0  0  0  0  0  0  0  0  0
   -0.8360    2.1265   -0.0592 C   0  0  0  0  0  0  0  0  0  0  0  0
   -1.0397    3.4101    0.4765 C   0  0  0  0  0  0  0  0  0  0  0  0
   -1.0553    4.5349   -0.3522 C   0  0  0  0  0  0  0  0  0  0  0  0
   -0.8732    4.3857   -1.7250 C   0  0  0  0  0  0  0  0  0  0  0  0
   -0.8951    5.9080   -2.8451 Br  0  0  0  0  0  0  0  0  0  0  0  0
   -0.6775    3.1230   -2.2772 C   0  0  0  0  0  0  0  0  0  0  0  0
   -0.6631    1.9990   -1.4481 C   0  0  0  0  0  0  0  0  0  0  0  0
    2.1591    0.9255    1.0266 C   0  0  0  0  0  0  0  0  0  0  0  0
    3.5584    0.9146    1.0836 C   0  0  0  0  0  0  0  0  0  0  0  0
    6.7570   -1.8219    2.0465 H   0  0  0  0  0  0  0  0  0  0  0  0
    5.4336   -1.0263    2.7343 H   0  0  0  0  0  0  0  0  0  0  0  0
    4.1073   -2.1364   -0.3355 H   0  0  0  0  0  0  0  0  0  0  0  0
    1.6554   -2.1006   -0.4178 H   0  0  0  0  0  0  0  0  0  0  0  0
   -4.6192   -0.9074    0.6264 H   0  0  0  0  0  0  0  0  0  0  0  0
   -6.3160   -2.5292   -0.1001 H   0  0  0  0  0  0  0  0  0  0  0  0
   -5.6598   -4.5394   -1.3945 H   0  0  0  0  0  0  0  0  0  0  0  0
   -3.2755   -4.9244   -1.9664 H   0  0  0  0  0  0  0  0  0  0  0  0
   -1.5503   -3.3078   -1.2516 H   0  0  0  0  0  0  0  0  0  0  0  0
   -2.5417    0.0039    1.8889 H   0  0  0  0  0  0  0  0  0  0  0  0
   -3.0042    0.8181    0.3599 H   0  0  0  0  0  0  0  0  0  0  0  0
   -0.5991    1.2303    1.8897 H   0  0  0  0  0  0  0  0  0  0  0  0
   -1.1858    3.5456    1.5463 H   0  0  0  0  0  0  0  0  0  0  0  0
   -1.2092    5.5198    0.0811 H   0  0  0  0  0  0  0  0  0  0  0  0
   -0.5321    2.9995   -3.3471 H   0  0  0  0  0  0  0  0  0  0  0  0
   -0.5039    1.0177   -1.8943 H   0  0  0  0  0  0  0  0  0  0  0  0
    1.6496    1.8083    1.4015 H   0  0  0  0  0  0  0  0  0  0  0  0
    4.0867    1.7738    1.4923 H   0  0  0  0  0  0  0  0  0  0  0  0
  1  2  1  0
  2  3  2  0
  2  4  2  0
  2  5  1  0
  5  6  2  0
  6  7  1  0
  7  8  2  0
  8  9  1  0
  9 10  1  0
 10 11  2  0
 11 12  1  0
 12 13  2  0
 13 14  1  0
 14 15  2  0
 15 16  1  0
 16 17  2  0
 11 18  1  0
 18 19  1  0
 19 20  1  0
 20 21  2  0
 21 22  1  0
 22 23  2  0
 23 24  1  0
 23 25  1  0
 25 26  2  0
  8 27  1  0
 27 28  2  0
 28  5  1  0
 19  9  1  0
 26 20  1  0
 17 12  1  0
  1 29  1  0
  1 30  1  0
  6 31  1  0
  7 32  1  0
 13 33  1  0
 14 34  1  0
 15 35  1  0
 16 36  1  0
 17 37  1  0
 18 38  1  0
 18 39  1  0
 19 40  1  0
 21 41  1  0
 22 42  1  0
 25 43  1  0
 26 44  1  0
 27 45  1  0
 28 46  1  0
M  END
$$$$
