
     RDKit          3D

 58 61  0  0  0  0  0  0  0  0999 V2000
    8.3488    1.8218   -1.4129 C   0  0  0  0  0  0  0  0  0  0  0  0
    7.6651    0.6103   -1.1087 O   0  0  0  0  0  0  0  0  0  0  0  0
    6.4103    0.7267   -0.5749 C   0  0  0  0  0  0  0  0  0  0  0  0
    5.7546    1.9199   -0.2710 C   0  0  0  0  0  0  0  0  0  0  0  0
    4.4576    1.8965    0.2594 C   0  0  0  0  0  0  0  0  0  0  0  0
    3.7923    0.6812    0.4982 C   0  0  0  0  0  0  0  0  0  0  0  0
    2.4121    0.6806    0.9896 C   0  0  0  0  0  0  0  0  0  0  0  0
    1.3664    0.2202    0.2100 C   0  0  0  0  0  0  0  0  0  0  0  0
    0.0816    0.2667    0.7433 C   0  0  0  0  0  0  0  0  0  0  0  0
   -0.9986   -0.2073   -0.1446 C   0  0  0  0  0  0  0  0  0  0  0  0
   -1.1747    0.3345   -1.2282 O   0  0  0  0  0  0  0  0  0  0  0  0
   -1.7337   -1.2760    0.3175 N   0  0  0  0  0  0  0  0  0  0  0  0
   -2.8455   -1.8068   -0.4527 C   0  0  0  0  0  0  0  0  0  0  0  0
   -4.0836   -0.8891   -0.3832 C   0  0  0  0  0  0  0  0  0  0  0  0
   -5.2770   -1.4364   -1.0554 N   0  0  0  0  0  0  0  0  0  0  0  0
   -6.4599   -0.5714   -0.8284 C   0  0  0  0  0  0  0  0  0  0  0  0
   -6.7393    0.3949   -1.9941 C   0  0  0  0  0  0  0  0  0  0  0  0
   -7.0115   -0.2898   -3.2283 O   0  0  0  0  0  0  0  0  0  0  0  0
   -6.3469   -1.5623   -3.3266 C   0  0  0  0  0  0  0  0  0  0  0  0
   -5.0439   -1.6208   -2.5125 C   0  0  0  0  0  0  0  0  0  0  0  0
   -0.1569    0.7836    2.0370 C   0  0  0  0  0  0  0  0  0  0  0  0
   -1.4343    0.9124    2.6418 C   0  0  0  0  0  0  0  0  0  0  0  0
   -1.5721    1.4304    3.9297 C   0  0  0  0  0  0  0  0  0  0  0  0
   -0.4433    1.8377    4.6272 C   0  0  0  0  0  0  0  0  0  0  0  0
    0.8144    1.7323    4.0278 C   0  0  0  0  0  0  0  0  0  0  0  0
    0.9806    1.2203    2.7465 C   0  0  0  0  0  0  0  0  0  0  0  0
    2.2247    1.1745    2.2388 N   0  0  0  0  0  0  0  0  0  0  0  0
    4.4817   -0.5085    0.2158 C   0  0  0  0  0  0  0  0  0  0  0  0
    3.8784   -1.7276    0.4418 O   0  0  0  0  0  0  0  0  0  0  0  0
    4.3221   -2.2654    1.6952 C   0  0  0  0  0  0  0  0  0  0  0  0
    5.7675   -0.4882   -0.3309 C   0  0  0  0  0  0  0  0  0  0  0  0
    7.8029    2.4071   -2.1692 H   0  0  0  0  0  0  0  0  0  0  0  0
    8.5287    2.4144   -0.5058 H   0  0  0  0  0  0  0  0  0  0  0  0
    9.3247    1.5566   -1.8351 H   0  0  0  0  0  0  0  0  0  0  0  0
    6.2135    2.8876   -0.4499 H   0  0  0  0  0  0  0  0  0  0  0  0
    3.9593    2.8375    0.4819 H   0  0  0  0  0  0  0  0  0  0  0  0
    1.5413   -0.1595   -0.7939 H   0  0  0  0  0  0  0  0  0  0  0  0
   -1.5394   -1.6629    1.2332 H   0  0  0  0  0  0  0  0  0  0  0  0
   -3.0774   -2.7989   -0.0436 H   0  0  0  0  0  0  0  0  0  0  0  0
   -2.5096   -1.9306   -1.4907 H   0  0  0  0  0  0  0  0  0  0  0  0
   -4.3177   -0.7477    0.6819 H   0  0  0  0  0  0  0  0  0  0  0  0
   -3.8403    0.1079   -0.7794 H   0  0  0  0  0  0  0  0  0  0  0  0
   -6.3835   -0.0144    0.1169 H   0  0  0  0  0  0  0  0  0  0  0  0
   -7.3237   -1.2401   -0.7191 H   0  0  0  0  0  0  0  0  0  0  0  0
   -5.8907    1.0725   -2.1583 H   0  0  0  0  0  0  0  0  0  0  0  0
   -7.6106    1.0174   -1.7629 H   0  0  0  0  0  0  0  0  0  0  0  0
   -7.0458   -2.3417   -2.9996 H   0  0  0  0  0  0  0  0  0  0  0  0
   -6.1397   -1.7359   -4.3898 H   0  0  0  0  0  0  0  0  0  0  0  0
   -4.5628   -2.5924   -2.6745 H   0  0  0  0  0  0  0  0  0  0  0  0
   -4.3767   -0.8391   -2.8967 H   0  0  0  0  0  0  0  0  0  0  0  0
   -2.3367    0.6252    2.1051 H   0  0  0  0  0  0  0  0  0  0  0  0
   -2.5571    1.5218    4.3817 H   0  0  0  0  0  0  0  0  0  0  0  0
   -0.5332    2.2486    5.6306 H   0  0  0  0  0  0  0  0  0  0  0  0
    1.6933    2.0670    4.5760 H   0  0  0  0  0  0  0  0  0  0  0  0
    5.3389   -2.6645    1.6043 H   0  0  0  0  0  0  0  0  0  0  0  0
    4.2800   -1.5164    2.5012 H   0  0  0  0  0  0  0  0  0  0  0  0
    3.6542   -3.0932    1.9592 H   0  0  0  0  0  0  0  0  0  0  0  0
    6.2710   -1.4213   -0.5609 H   0  0  0  0  0  0  0  0  0  0  0  0
  1  2  1  0
  2  3  1  0
  3  4  2  0
  4  5  1  0
  5  6  2  0
  6  7  1  0
  7  8  2  0
  8  9  1  0
  9 10  1  0
 10 11  2  0
 10 12  1  0
 12 13  1  0
 13 14  1  0
 14 15  1  0
 15 16  1  0
 16 17  1  0
 17 18  1  0
 18 19  1  0
 19 20  1  0
  9 21  2  0
 21 22  1  0
 22 23  2  0
 23 24  1  0
 24 25  2  0
 25 26  1  0
 26 27  2  0
  6 28  1  0
 28 29  1  0
 29 30  1  0
 28 31  2  0
 31  3  1  0
 27  7  1  0
 20 15  1  0
 26 21  1  0
  1 32  1  0
  1 33  1  0
  1 34  1  0
  4 35  1  0
  5 36  1  0
  8 37  1  0
 12 38  1  0
 13 39  1  0
 13 40  1  0
 14 41  1  0
 14 42  1  0
 16 43  1  0
 16 44  1  0
 17 45  1  0
 17 46  1  0
 19 47  1  0
 19 48  1  0
 20 49  1  0
 20 50  1  0
 22 51  1  0
 23 52  1  0
 24 53  1  0
 25 54  1  0
 30 55  1  0
 30 56  1  0
 30 57  1  0
 31 58  1  0
M  END
$$$$
