
     RDKit          3D

 55 57  0  0  0  0  0  0  0  0999 V2000
   -8.0144    2.8487   -0.6367 C   0  0  0  0  0  0  0  0  0  0  0  0
   -7.6666    1.6043   -0.0462 O   0  0  0  0  0  0  0  0  0  0  0  0
   -6.3320    1.3016    0.0319 C   0  0  0  0  0  0  0  0  0  0  0  0
   -5.3165    1.9896   -0.6383 C   0  0  0  0  0  0  0  0  0  0  0  0
   -3.9796    1.5980   -0.4922 C   0  0  0  0  0  0  0  0  0  0  0  0
   -3.6369    0.5123    0.3248 C   0  0  0  0  0  0  0  0  0  0  0  0
   -2.2235    0.1404    0.4632 C   0  0  0  0  0  0  0  0  0  0  0  0
   -1.6740   -1.0316    0.1088 C   0  0  0  0  0  0  0  0  0  0  0  0
   -2.4462   -2.4012   -0.5782 S   0  0  0  0  0  0  0  0  0  0  0  0
   -0.9595   -3.3404   -0.6143 C   0  0  0  0  0  0  0  0  0  0  0  0
   -0.9300   -4.9131   -1.1721 S   0  0  0  0  0  0  0  0  0  0  0  0
    0.0888   -2.5797   -0.1337 N   0  0  0  0  0  0  0  0  0  0  0  0
    1.4741   -3.0479   -0.0295 C   0  0  0  0  0  0  0  0  0  0  0  0
    2.2536   -2.9052   -1.3431 C   0  0  0  0  0  0  0  0  0  0  0  0
    2.7098   -1.4773   -1.6468 C   0  0  0  0  0  0  0  0  0  0  0  0
    3.8155   -0.9925   -0.7175 C   0  0  0  0  0  0  0  0  0  0  0  0
    4.3721   -1.7477    0.0706 O   0  0  0  0  0  0  0  0  0  0  0  0
    4.1013    0.3463   -0.9244 N   0  0  0  0  0  0  0  0  0  0  0  0
    5.1094    1.1190   -0.3100 C   0  0  0  0  0  0  0  0  0  0  0  0
    5.1706    2.4763   -0.6646 C   0  0  0  0  0  0  0  0  0  0  0  0
    6.1425    3.3159   -0.1183 C   0  0  0  0  0  0  0  0  0  0  0  0
    7.0689    2.8062    0.7863 C   0  0  0  0  0  0  0  0  0  0  0  0
    7.0235    1.4542    1.1464 C   0  0  0  0  0  0  0  0  0  0  0  0
    8.0480    0.9551    2.0959 C   0  0  0  0  0  0  0  0  0  0  0  0
    8.9454    1.6204    2.5802 O   0  0  0  0  0  0  0  0  0  0  0  0
    7.9101   -0.3478    2.3856 O   0  0  0  0  0  0  0  0  0  0  0  0
    6.0421    0.6131    0.5987 C   0  0  0  0  0  0  0  0  0  0  0  0
   -0.2169   -1.2880    0.2578 C   0  0  0  0  0  0  0  0  0  0  0  0
    0.5784   -0.4411    0.6412 O   0  0  0  0  0  0  0  0  0  0  0  0
   -4.6474   -0.1710    1.0063 C   0  0  0  0  0  0  0  0  0  0  0  0
   -5.9823    0.2067    0.8366 C   0  0  0  0  0  0  0  0  0  0  0  0
   -6.9312   -0.4857    1.5488 O   0  0  0  0  0  0  0  0  0  0  0  0
   -7.5243   -1.4873    0.7224 C   0  0  0  0  0  0  0  0  0  0  0  0
   -7.7948    2.8475   -1.7116 H   0  0  0  0  0  0  0  0  0  0  0  0
   -9.0934    2.9847   -0.5167 H   0  0  0  0  0  0  0  0  0  0  0  0
   -7.5155    3.6818   -0.1300 H   0  0  0  0  0  0  0  0  0  0  0  0
   -5.5293    2.8322   -1.2882 H   0  0  0  0  0  0  0  0  0  0  0  0
   -3.2077    2.1509   -1.0256 H   0  0  0  0  0  0  0  0  0  0  0  0
   -1.5895    0.9282    0.8697 H   0  0  0  0  0  0  0  0  0  0  0  0
    1.9739   -2.5128    0.7844 H   0  0  0  0  0  0  0  0  0  0  0  0
    1.4600   -4.1037    0.2594 H   0  0  0  0  0  0  0  0  0  0  0  0
    1.6448   -3.2609   -2.1811 H   0  0  0  0  0  0  0  0  0  0  0  0
    3.1333   -3.5575   -1.2970 H   0  0  0  0  0  0  0  0  0  0  0  0
    3.1173   -1.4523   -2.6646 H   0  0  0  0  0  0  0  0  0  0  0  0
    1.8662   -0.7822   -1.6164 H   0  0  0  0  0  0  0  0  0  0  0  0
    3.5017    0.8390   -1.5750 H   0  0  0  0  0  0  0  0  0  0  0  0
    4.4624    2.8990   -1.3731 H   0  0  0  0  0  0  0  0  0  0  0  0
    6.1783    4.3659   -0.4004 H   0  0  0  0  0  0  0  0  0  0  0  0
    7.8298    3.4616    1.2060 H   0  0  0  0  0  0  0  0  0  0  0  0
    8.6518   -0.5406    2.9936 H   0  0  0  0  0  0  0  0  0  0  0  0
    6.0318   -0.4339    0.8862 H   0  0  0  0  0  0  0  0  0  0  0  0
   -4.4141   -0.9999    1.6688 H   0  0  0  0  0  0  0  0  0  0  0  0
   -7.9613   -1.0647   -0.1891 H   0  0  0  0  0  0  0  0  0  0  0  0
   -8.3279   -1.9587    1.2946 H   0  0  0  0  0  0  0  0  0  0  0  0
   -6.7903   -2.2619    0.4664 H   0  0  0  0  0  0  0  0  0  0  0  0
  1  2  1  0
  2  3  1  0
  3  4  2  0
  4  5  1  0
  5  6  2  0
  6  7  1  0
  7  8  2  3
  8  9  1  0
  9 10  1  0
 10 11  2  0
 10 12  1  0
 12 13  1  0
 13 14  1  0
 14 15  1  0
 15 16  1  0
 16 17  2  0
 16 18  1  0
 18 19  1  0
 19 20  2  0
 20 21  1  0
 21 22  2  0
 22 23  1  0
 23 24  1  0
 24 25  2  0
 24 26  1  0
 23 27  2  0
 12 28  1  0
 28 29  2  0
  6 30  1  0
 30 31  2  0
 31 32  1  0
 32 33  1  0
 31  3  1  0
 28  8  1  0
 27 19  1  0
  1 34  1  0
  1 35  1  0
  1 36  1  0
  4 37  1  0
  5 38  1  0
  7 39  1  0
 13 40  1  0
 13 41  1  0
 14 42  1  0
 14 43  1  0
 15 44  1  0
 15 45  1  0
 18 46  1  0
 20 47  1  0
 21 48  1  0
 22 49  1  0
 26 50  1  0
 27 51  1  0
 30 52  1  0
 33 53  1  0
 33 54  1  0
 33 55  1  0
M  END
$$$$
