
     RDKit          3D

 48 48  0  0  0  0  0  0  0  0999 V2000
    3.0388    0.5076    1.4566 C   0  0  0  0  0  0  0  0  0  0  0  0
    3.3710    0.0419    0.0344 C   0  0  0  0  0  0  0  0  0  0  0  0
    2.5417    0.8045   -1.0161 C   0  0  0  0  0  0  0  0  0  0  0  0
    1.1230    0.5108   -0.9304 N   0  0  0  0  0  0  0  0  0  0  0  0
    0.2265    1.3937   -0.3633 C   0  0  0  0  0  0  0  0  0  0  0  0
    0.5423    2.4904    0.0834 O   0  0  0  0  0  0  0  0  0  0  0  0
   -1.1859    0.9317   -0.2759 C   0  0  0  0  0  0  0  0  0  0  0  0
   -1.9815    1.4157    0.7632 C   0  0  0  0  0  0  0  0  0  0  0  0
   -3.3129    1.0041    0.8814 C   0  0  0  0  0  0  0  0  0  0  0  0
   -3.8912    0.1067   -0.0381 C   0  0  0  0  0  0  0  0  0  0  0  0
   -5.3610   -0.3216    0.1241 C   0  0  0  0  0  0  0  0  0  0  0  0
   -5.5544   -1.0071    1.4942 C   0  0  0  0  0  0  0  0  0  0  0  0
   -5.8448   -1.3163   -0.9553 C   0  0  0  0  0  0  0  0  0  0  0  0
   -6.2750    0.9201    0.0437 C   0  0  0  0  0  0  0  0  0  0  0  0
   -3.0775   -0.3534   -1.0877 C   0  0  0  0  0  0  0  0  0  0  0  0
   -1.7422    0.0546   -1.2099 C   0  0  0  0  0  0  0  0  0  0  0  0
    4.8733    0.2340   -0.2841 C   0  0  0  0  0  0  0  0  0  0  0  0
    5.7929   -0.4727    0.6262 N   0  0  0  0  0  0  0  0  0  0  0  0
    7.1692   -0.0223    0.4011 C   0  0  0  0  0  0  0  0  0  0  0  0
    5.7171   -1.9261    0.4707 C   0  0  0  0  0  0  0  0  0  0  0  0
    3.2444    1.5761    1.5812 H   0  0  0  0  0  0  0  0  0  0  0  0
    1.9843    0.3349    1.6935 H   0  0  0  0  0  0  0  0  0  0  0  0
    3.6251   -0.0395    2.2017 H   0  0  0  0  0  0  0  0  0  0  0  0
    3.1130   -1.0213   -0.0443 H   0  0  0  0  0  0  0  0  0  0  0  0
    2.8471    0.4983   -2.0231 H   0  0  0  0  0  0  0  0  0  0  0  0
    2.7077    1.8845   -0.9343 H   0  0  0  0  0  0  0  0  0  0  0  0
    0.8259   -0.4339   -1.1305 H   0  0  0  0  0  0  0  0  0  0  0  0
   -1.5677    2.1142    1.4881 H   0  0  0  0  0  0  0  0  0  0  0  0
   -3.8964    1.4031    1.7089 H   0  0  0  0  0  0  0  0  0  0  0  0
   -5.3404   -0.3318    2.3299 H   0  0  0  0  0  0  0  0  0  0  0  0
   -4.8946   -1.8768    1.5966 H   0  0  0  0  0  0  0  0  0  0  0  0
   -6.5865   -1.3547    1.6202 H   0  0  0  0  0  0  0  0  0  0  0  0
   -6.8930   -1.5953   -0.7941 H   0  0  0  0  0  0  0  0  0  0  0  0
   -5.2590   -2.2429   -0.9414 H   0  0  0  0  0  0  0  0  0  0  0  0
   -5.7783   -0.8848   -1.9608 H   0  0  0  0  0  0  0  0  0  0  0  0
   -6.0735    1.6358    0.8483 H   0  0  0  0  0  0  0  0  0  0  0  0
   -6.1401    1.4482   -0.9077 H   0  0  0  0  0  0  0  0  0  0  0  0
   -7.3317    0.6389    0.1223 H   0  0  0  0  0  0  0  0  0  0  0  0
   -3.4618   -1.0329   -1.8439 H   0  0  0  0  0  0  0  0  0  0  0  0
   -1.1646   -0.3012   -2.0580 H   0  0  0  0  0  0  0  0  0  0  0  0
    5.0711   -0.0680   -1.3217 H   0  0  0  0  0  0  0  0  0  0  0  0
    5.0832    1.3113   -0.2298 H   0  0  0  0  0  0  0  0  0  0  0  0
    7.2563    1.0558    0.5769 H   0  0  0  0  0  0  0  0  0  0  0  0
    7.8542   -0.5075    1.1055 H   0  0  0  0  0  0  0  0  0  0  0  0
    7.5121   -0.2359   -0.6178 H   0  0  0  0  0  0  0  0  0  0  0  0
    5.9342   -2.2439   -0.5554 H   0  0  0  0  0  0  0  0  0  0  0  0
    4.7297   -2.3051    0.7511 H   0  0  0  0  0  0  0  0  0  0  0  0
    6.4298   -2.4218    1.1400 H   0  0  0  0  0  0  0  0  0  0  0  0
  1  2  1  0
  2  3  1  0
  3  4  1  0
  4  5  1  0
  5  6  2  0
  5  7  1  0
  7  8  2  0
  8  9  1  0
  9 10  2  0
 10 11  1  0
 11 12  1  0
 11 13  1  0
 11 14  1  0
 10 15  1  0
 15 16  2  0
  2 17  1  0
 17 18  1  0
 18 19  1  0
 18 20  1  0
 16  7  1  0
  1 21  1  0
  1 22  1  0
  1 23  1  0
  2 24  1  0
  3 25  1  0
  3 26  1  0
  4 27  1  0
  8 28  1  0
  9 29  1  0
 12 30  1  0
 12 31  1  0
 12 32  1  0
 13 33  1  0
 13 34  1  0
 13 35  1  0
 14 36  1  0
 14 37  1  0
 14 38  1  0
 15 39  1  0
 16 40  1  0
 17 41  1  0
 17 42  1  0
 19 43  1  0
 19 44  1  0
 19 45  1  0
 20 46  1  0
 20 47  1  0
 20 48  1  0
M  END
$$$$
