
     RDKit          3D

 37 38  0  0  0  0  0  0  0  0999 V2000
   -3.3928   -2.2134   -0.4747 C   0  0  0  0  0  0  0  0  0  0  0  0
   -4.1100   -0.8643   -0.6329 C   0  0  0  0  0  0  0  0  0  0  0  0
   -5.4404   -0.9524    0.1337 C   0  0  0  0  0  0  0  0  0  0  0  0
   -3.2383    0.3197   -0.1290 C   0  0  0  0  0  0  0  0  0  0  0  0
   -3.7963    1.7146   -0.4647 C   0  0  0  0  0  0  0  0  0  0  0  0
   -4.9707    2.0469   -0.4845 O   0  0  0  0  0  0  0  0  0  0  0  0
   -2.8474    2.6559   -0.6688 O   0  0  0  0  0  0  0  0  0  0  0  0
   -1.8022    0.2460   -0.4996 N   0  0  0  0  0  0  0  0  0  0  0  0
   -0.8673    0.2906    0.5225 C   0  0  0  0  0  0  0  0  0  0  0  0
   -1.1105    0.3495    1.7209 O   0  0  0  0  0  0  0  0  0  0  0  0
    0.5142    0.2511   -0.0247 C   0  0  0  0  0  0  0  0  0  0  0  0
    1.5893    0.2676    0.7761 C   0  0  0  0  0  0  0  0  0  0  0  0
    2.9784    0.2322    0.3594 C   0  0  0  0  0  0  0  0  0  0  0  0
    3.9976    0.2523    1.2325 C   0  0  0  0  0  0  0  0  0  0  0  0
    5.3485    0.2161    0.7870 C   0  0  0  0  0  0  0  0  0  0  0  0
    6.5115    0.2316    1.5498 C   0  0  0  0  0  0  0  0  0  0  0  0
    7.6159    0.1809    0.6666 C   0  0  0  0  0  0  0  0  0  0  0  0
    7.0823    0.1366   -0.5950 C   0  0  0  0  0  0  0  0  0  0  0  0
    5.7294    0.1570   -0.5369 O   0  0  0  0  0  0  0  0  0  0  0  0
    0.4663    0.1855   -1.7358 S   0  0  0  0  0  0  0  0  0  0  0  0
   -1.2935    0.2479   -1.7857 C   0  0  0  0  0  0  0  0  0  0  0  0
   -2.1059    0.3117   -3.2431 S   0  0  0  0  0  0  0  0  0  0  0  0
   -3.0993   -2.3841    0.5669 H   0  0  0  0  0  0  0  0  0  0  0  0
   -4.0458   -3.0388   -0.7795 H   0  0  0  0  0  0  0  0  0  0  0  0
   -2.4944   -2.2742   -1.0950 H   0  0  0  0  0  0  0  0  0  0  0  0
   -4.3629   -0.7264   -1.6889 H   0  0  0  0  0  0  0  0  0  0  0  0
   -6.0209   -1.8208   -0.1976 H   0  0  0  0  0  0  0  0  0  0  0  0
   -6.0667   -0.0727   -0.0316 H   0  0  0  0  0  0  0  0  0  0  0  0
   -5.2724   -1.0540    1.2114 H   0  0  0  0  0  0  0  0  0  0  0  0
   -3.2870    0.2896    0.9677 H   0  0  0  0  0  0  0  0  0  0  0  0
   -3.3587    3.4774   -0.8340 H   0  0  0  0  0  0  0  0  0  0  0  0
    1.4211    0.3124    1.8530 H   0  0  0  0  0  0  0  0  0  0  0  0
    3.1880    0.1879   -0.7084 H   0  0  0  0  0  0  0  0  0  0  0  0
    3.8179    0.2969    2.3025 H   0  0  0  0  0  0  0  0  0  0  0  0
    6.5500    0.2752    2.6297 H   0  0  0  0  0  0  0  0  0  0  0  0
    8.6666    0.1772    0.9190 H   0  0  0  0  0  0  0  0  0  0  0  0
    7.5064    0.0905   -1.5883 H   0  0  0  0  0  0  0  0  0  0  0  0
  1  2  1  0
  2  3  1  0
  2  4  1  0
  4  5  1  0
  5  6  2  0
  5  7  1  0
  4  8  1  0
  8  9  1  0
  9 10  2  0
  9 11  1  0
 11 12  2  3
 12 13  1  0
 13 14  2  3
 14 15  1  0
 15 16  2  0
 16 17  1  0
 17 18  2  0
 18 19  1  0
 11 20  1  0
 20 21  1  0
 21 22  2  0
 21  8  1  0
 19 15  1  0
  1 23  1  0
  1 24  1  0
  1 25  1  0
  2 26  1  0
  3 27  1  0
  3 28  1  0
  3 29  1  0
  4 30  1  0
  7 31  1  0
 12 32  1  0
 13 33  1  0
 14 34  1  0
 16 35  1  0
 17 36  1  0
 18 37  1  0
M  END
$$$$
