
     RDKit          3D

 55 56  0  0  0  0  0  0  0  0999 V2000
   -4.3673    4.3954    0.8899 C   0  0  0  0  0  0  0  0  0  0  0  0
   -4.5569    2.9258    1.2699 C   0  0  0  0  0  0  0  0  0  0  0  0
   -4.1880    2.0742    0.1499 N   0  0  0  0  0  0  0  0  0  0  0  0
   -3.4442    0.9259    0.3257 C   0  0  0  0  0  0  0  0  0  0  0  0
   -2.9516    0.5937    1.3984 O   0  0  0  0  0  0  0  0  0  0  0  0
   -3.3516    0.0849   -0.9329 C   0  0  0  0  0  0  0  0  0  0  0  0
   -2.1853   -0.8948   -0.9072 C   0  0  0  0  0  0  0  0  0  0  0  0
   -0.6087   -0.0502   -1.2815 S   0  0  0  0  0  0  0  0  0  0  0  0
    0.5173   -1.4596   -1.0142 C   0  0  0  0  0  0  0  0  0  0  0  0
    1.9604   -1.0121   -1.1995 C   0  0  0  0  0  0  0  0  0  0  0  0
    2.9148   -2.1713   -1.0061 C   0  0  0  0  0  0  0  0  0  0  0  0
    2.5504   -3.3224   -0.7943 O   0  0  0  0  0  0  0  0  0  0  0  0
    4.2359   -1.7988   -1.1031 N   0  0  0  0  0  0  0  0  0  0  0  0
    5.3245   -2.7496   -0.9506 C   0  0  0  0  0  0  0  0  0  0  0  0
    5.4945   -3.6079   -2.2080 C   0  0  0  0  0  0  0  0  0  0  0  0
    6.5926   -2.0058   -0.5692 C   0  0  0  0  0  0  0  0  0  0  0  0
    7.3231   -1.2526   -1.5028 C   0  0  0  0  0  0  0  0  0  0  0  0
    8.4712   -0.5576   -1.1163 C   0  0  0  0  0  0  0  0  0  0  0  0
    8.9000   -0.5980    0.2083 C   0  0  0  0  0  0  0  0  0  0  0  0
    8.1796   -1.3292    1.1492 C   0  0  0  0  0  0  0  0  0  0  0  0
    7.0315   -2.0248    0.7647 C   0  0  0  0  0  0  0  0  0  0  0  0
   -5.9652    2.5745    1.7221 C   0  0  0  0  0  0  0  0  0  0  0  0
   -7.1119    3.1496    1.1523 C   0  0  0  0  0  0  0  0  0  0  0  0
   -8.3873    2.7721    1.5810 C   0  0  0  0  0  0  0  0  0  0  0  0
   -8.5356    1.8084    2.5761 C   0  0  0  0  0  0  0  0  0  0  0  0
   -7.4096    1.2160    3.1408 C   0  0  0  0  0  0  0  0  0  0  0  0
   -6.1351    1.5925    2.7138 C   0  0  0  0  0  0  0  0  0  0  0  0
   -4.6873    5.0586    1.7007 H   0  0  0  0  0  0  0  0  0  0  0  0
   -4.9238    4.6648   -0.0143 H   0  0  0  0  0  0  0  0  0  0  0  0
   -3.3105    4.5994    0.6826 H   0  0  0  0  0  0  0  0  0  0  0  0
   -3.8721    2.7327    2.1057 H   0  0  0  0  0  0  0  0  0  0  0  0
   -4.7466    2.1546   -0.6884 H   0  0  0  0  0  0  0  0  0  0  0  0
   -3.3123    0.7275   -1.8205 H   0  0  0  0  0  0  0  0  0  0  0  0
   -4.2875   -0.4856   -0.9866 H   0  0  0  0  0  0  0  0  0  0  0  0
   -2.1082   -1.3982    0.0615 H   0  0  0  0  0  0  0  0  0  0  0  0
   -2.3404   -1.6576   -1.6771 H   0  0  0  0  0  0  0  0  0  0  0  0
    0.2650   -2.2521   -1.7268 H   0  0  0  0  0  0  0  0  0  0  0  0
    0.3688   -1.8486   -0.0010 H   0  0  0  0  0  0  0  0  0  0  0  0
    2.2178   -0.2326   -0.4720 H   0  0  0  0  0  0  0  0  0  0  0  0
    2.1160   -0.6144   -2.2099 H   0  0  0  0  0  0  0  0  0  0  0  0
    4.4700   -0.8269   -1.2609 H   0  0  0  0  0  0  0  0  0  0  0  0
    5.0535   -3.4311   -0.1337 H   0  0  0  0  0  0  0  0  0  0  0  0
    5.6450   -2.9972   -3.1047 H   0  0  0  0  0  0  0  0  0  0  0  0
    6.3499   -4.2850   -2.1092 H   0  0  0  0  0  0  0  0  0  0  0  0
    4.6028   -4.2188   -2.3862 H   0  0  0  0  0  0  0  0  0  0  0  0
    7.0044   -1.1958   -2.5410 H   0  0  0  0  0  0  0  0  0  0  0  0
    9.0301    0.0189   -1.8494 H   0  0  0  0  0  0  0  0  0  0  0  0
    9.7932   -0.0565    0.5084 H   0  0  0  0  0  0  0  0  0  0  0  0
    8.5090   -1.3568    2.1848 H   0  0  0  0  0  0  0  0  0  0  0  0
    6.4776   -2.5829    1.5173 H   0  0  0  0  0  0  0  0  0  0  0  0
   -7.0325    3.8955    0.3661 H   0  0  0  0  0  0  0  0  0  0  0  0
   -9.2668    3.2293    1.1349 H   0  0  0  0  0  0  0  0  0  0  0  0
   -9.5281    1.5154    2.9075 H   0  0  0  0  0  0  0  0  0  0  0  0
   -7.5201    0.4571    3.9112 H   0  0  0  0  0  0  0  0  0  0  0  0
   -5.2644    1.1077    3.1550 H   0  0  0  0  0  0  0  0  0  0  0  0
  1  2  1  0
  2  3  1  0
  3  4  1  0
  4  5  2  0
  4  6  1  0
  6  7  1  0
  7  8  1  0
  8  9  1  0
  9 10  1  0
 10 11  1  0
 11 12  2  0
 11 13  1  0
 13 14  1  0
 14 15  1  0
 14 16  1  0
 16 17  2  0
 17 18  1  0
 18 19  2  0
 19 20  1  0
 20 21  2  0
  2 22  1  0
 22 23  2  0
 23 24  1  0
 24 25  2  0
 25 26  1  0
 26 27  2  0
 21 16  1  0
 27 22  1  0
  1 28  1  0
  1 29  1  0
  1 30  1  0
  2 31  1  0
  3 32  1  0
  6 33  1  0
  6 34  1  0
  7 35  1  0
  7 36  1  0
  9 37  1  0
  9 38  1  0
 10 39  1  0
 10 40  1  0
 13 41  1  0
 14 42  1  0
 15 43  1  0
 15 44  1  0
 15 45  1  0
 17 46  1  0
 18 47  1  0
 19 48  1  0
 20 49  1  0
 21 50  1  0
 23 51  1  0
 24 52  1  0
 25 53  1  0
 26 54  1  0
 27 55  1  0
M  END
$$$$
