
     RDKit          3D

 55 59  0  0  0  0  0  0  0  0999 V2000
   -7.2132    0.6795    1.2280 C   0  0  0  0  0  0  0  0  0  0  0  0
   -5.7981    1.0356    0.8819 C   0  0  0  0  0  0  0  0  0  0  0  0
   -5.0825    0.2742   -0.0481 C   0  0  0  0  0  0  0  0  0  0  0  0
   -3.7728    0.6192   -0.3908 C   0  0  0  0  0  0  0  0  0  0  0  0
   -3.1566    1.7386    0.1850 C   0  0  0  0  0  0  0  0  0  0  0  0
   -1.7422    2.1075   -0.1762 C   0  0  0  0  0  0  0  0  0  0  0  0
   -0.5352    1.7508    1.1374 S   0  0  0  0  0  0  0  0  0  0  0  0
   -0.5066   -0.0010    0.9955 C   0  0  0  0  0  0  0  0  0  0  0  0
   -1.3469   -0.6763    1.7234 N   0  0  0  0  0  0  0  0  0  0  0  0
   -1.3848   -2.0856    1.6184 C   0  0  0  0  0  0  0  0  0  0  0  0
   -2.2976   -2.7963    2.3976 C   0  0  0  0  0  0  0  0  0  0  0  0
   -2.3638   -4.1900    2.3130 C   0  0  0  0  0  0  0  0  0  0  0  0
   -1.5180   -4.8826    1.4444 C   0  0  0  0  0  0  0  0  0  0  0  0
   -0.6034   -4.1846    0.6559 C   0  0  0  0  0  0  0  0  0  0  0  0
   -0.5390   -2.7922    0.7435 C   0  0  0  0  0  0  0  0  0  0  0  0
    0.3891   -2.0012   -0.0417 C   0  0  0  0  0  0  0  0  0  0  0  0
    1.2651   -2.3940   -0.9415 N   0  0  0  0  0  0  0  0  0  0  0  0
    1.9093   -1.2498   -1.3509 C   0  0  0  0  0  0  0  0  0  0  0  0
    2.9965   -1.3075   -2.3671 C   0  0  0  0  0  0  0  0  0  0  0  0
    4.3396   -0.9115   -1.7806 C   0  0  0  0  0  0  0  0  0  0  0  0
    5.2160   -1.7289   -1.5088 O   0  0  0  0  0  0  0  0  0  0  0  0
    4.5079    0.4471   -1.6064 N   0  0  0  0  0  0  0  0  0  0  0  0
    5.6562    0.9382   -0.8841 C   0  0  0  0  0  0  0  0  0  0  0  0
    5.6654    2.4170   -0.9668 C   0  0  0  0  0  0  0  0  0  0  0  0
    6.3830    3.3202   -1.7234 C   0  0  0  0  0  0  0  0  0  0  0  0
    5.9309    4.6071   -1.3445 C   0  0  0  0  0  0  0  0  0  0  0  0
    4.9654    4.4083   -0.3863 C   0  0  0  0  0  0  0  0  0  0  0  0
    4.7908    3.0817   -0.1534 O   0  0  0  0  0  0  0  0  0  0  0  0
    1.3922   -0.1382   -0.7054 C   0  0  0  0  0  0  0  0  0  0  0  0
    1.7521    1.1406   -0.8157 O   0  0  0  0  0  0  0  0  0  0  0  0
    0.3954   -0.6318    0.1236 N   0  0  0  0  0  0  0  0  0  0  0  0
   -3.8820    2.5079    1.1056 C   0  0  0  0  0  0  0  0  0  0  0  0
   -5.1921    2.1627    1.4459 C   0  0  0  0  0  0  0  0  0  0  0  0
   -7.4570    0.9932    2.2487 H   0  0  0  0  0  0  0  0  0  0  0  0
   -7.3660   -0.4034    1.1767 H   0  0  0  0  0  0  0  0  0  0  0  0
   -7.9028    1.1688    0.5334 H   0  0  0  0  0  0  0  0  0  0  0  0
   -5.5389   -0.5996   -0.5078 H   0  0  0  0  0  0  0  0  0  0  0  0
   -3.2397   -0.0016   -1.1071 H   0  0  0  0  0  0  0  0  0  0  0  0
   -1.7011    3.1820   -0.3898 H   0  0  0  0  0  0  0  0  0  0  0  0
   -1.4323    1.6052   -1.0998 H   0  0  0  0  0  0  0  0  0  0  0  0
   -2.9596   -2.2590    3.0723 H   0  0  0  0  0  0  0  0  0  0  0  0
   -3.0765   -4.7355    2.9267 H   0  0  0  0  0  0  0  0  0  0  0  0
   -1.5702   -5.9674    1.3830 H   0  0  0  0  0  0  0  0  0  0  0  0
    0.0581   -4.7226   -0.0198 H   0  0  0  0  0  0  0  0  0  0  0  0
    3.0860   -2.3211   -2.7742 H   0  0  0  0  0  0  0  0  0  0  0  0
    2.7639   -0.6456   -3.2095 H   0  0  0  0  0  0  0  0  0  0  0  0
    3.6568    0.9989   -1.5215 H   0  0  0  0  0  0  0  0  0  0  0  0
    5.5773    0.6060    0.1565 H   0  0  0  0  0  0  0  0  0  0  0  0
    6.5668    0.5075   -1.3125 H   0  0  0  0  0  0  0  0  0  0  0  0
    7.1373    3.0757   -2.4591 H   0  0  0  0  0  0  0  0  0  0  0  0
    6.2663    5.5621   -1.7246 H   0  0  0  0  0  0  0  0  0  0  0  0
    4.3404    5.0716    0.1943 H   0  0  0  0  0  0  0  0  0  0  0  0
    1.3345    1.6716   -0.1063 H   0  0  0  0  0  0  0  0  0  0  0  0
   -3.4291    3.3809    1.5706 H   0  0  0  0  0  0  0  0  0  0  0  0
   -5.7340    2.7763    2.1622 H   0  0  0  0  0  0  0  0  0  0  0  0
  1  2  1  0
  2  3  2  0
  3  4  1  0
  4  5  2  0
  5  6  1  0
  6  7  1  0
  7  8  1  0
  8  9  2  0
  9 10  1  0
 10 11  2  0
 11 12  1  0
 12 13  2  0
 13 14  1  0
 14 15  2  0
 15 16  1  0
 16 17  2  0
 17 18  1  0
 18 19  1  0
 19 20  1  0
 20 21  2  0
 20 22  1  0
 22 23  1  0
 23 24  1  0
 24 25  2  0
 25 26  1  0
 26 27  2  0
 27 28  1  0
 18 29  2  0
 29 30  1  0
 29 31  1  0
  5 32  1  0
 32 33  2  0
 33  2  1  0
 31  8  1  0
 15 10  1  0
 31 16  1  0
 28 24  1  0
  1 34  1  0
  1 35  1  0
  1 36  1  0
  3 37  1  0
  4 38  1  0
  6 39  1  0
  6 40  1  0
 11 41  1  0
 12 42  1  0
 13 43  1  0
 14 44  1  0
 19 45  1  0
 19 46  1  0
 22 47  1  0
 23 48  1  0
 23 49  1  0
 25 50  1  0
 26 51  1  0
 27 52  1  0
 30 53  1  0
 32 54  1  0
 33 55  1  0
M  END
$$$$
