
     RDKit          3D

 62 65  0  0  0  0  0  0  0  0999 V2000
   -2.6562   -0.3475   -3.2434 C   0  0  0  0  0  0  0  0  0  0  0  0
   -2.6893    0.1032   -1.8074 C   0  0  0  0  0  0  0  0  0  0  0  0
   -3.9284    0.5550   -1.3095 C   0  0  0  0  0  0  0  0  0  0  0  0
   -4.0703    0.9806    0.0110 C   0  0  0  0  0  0  0  0  0  0  0  0
   -5.2886    1.4106    0.4557 O   0  0  0  0  0  0  0  0  0  0  0  0
   -2.9888    0.9702    0.8874 C   0  0  0  0  0  0  0  0  0  0  0  0
   -3.1232    1.4308    2.3302 C   0  0  0  0  0  0  0  0  0  0  0  0
   -2.2516    2.6592    2.6079 C   0  0  0  0  0  0  0  0  0  0  0  0
   -2.8009    0.3012    3.3135 C   0  0  0  0  0  0  0  0  0  0  0  0
   -1.7525    0.5241    0.3886 C   0  0  0  0  0  0  0  0  0  0  0  0
   -1.5600    0.1029   -0.9553 C   0  0  0  0  0  0  0  0  0  0  0  0
   -0.1407   -0.3778   -1.3577 C   0  0  0  0  0  0  0  0  0  0  0  0
    0.9992    0.5027   -0.7641 C   0  0  0  0  0  0  0  0  0  0  0  0
    1.9874   -0.0644    0.0811 C   0  0  0  0  0  0  0  0  0  0  0  0
    3.0257    0.6857    0.6708 C   0  0  0  0  0  0  0  0  0  0  0  0
    4.0232    0.0141    1.6035 C   0  0  0  0  0  0  0  0  0  0  0  0
    5.0495   -0.7898    0.8031 C   0  0  0  0  0  0  0  0  0  0  0  0
    3.3559   -0.8659    2.6681 C   0  0  0  0  0  0  0  0  0  0  0  0
    3.0911    2.0432    0.3581 C   0  0  0  0  0  0  0  0  0  0  0  0
    4.0771    2.8699    0.8155 O   0  0  0  0  0  0  0  0  0  0  0  0
    2.1383    2.6386   -0.4631 C   0  0  0  0  0  0  0  0  0  0  0  0
    1.0981    1.8911   -1.0427 C   0  0  0  0  0  0  0  0  0  0  0  0
    0.1164    2.6429   -1.9065 C   0  0  0  0  0  0  0  0  0  0  0  0
    0.0987   -0.3079   -2.7934 O   0  0  0  0  0  0  0  0  0  0  0  0
    0.5490   -1.4782   -3.3220 C   0  0  0  0  0  0  0  0  0  0  0  0
    0.9151   -1.6680   -4.4640 O   0  0  0  0  0  0  0  0  0  0  0  0
    0.4364   -2.4742   -2.2732 C   0  0  0  0  0  0  0  0  0  0  0  0
    0.6730   -3.8360   -2.3631 C   0  0  0  0  0  0  0  0  0  0  0  0
    0.4354   -4.6096   -1.2277 C   0  0  0  0  0  0  0  0  0  0  0  0
   -0.0366   -4.0107   -0.0491 C   0  0  0  0  0  0  0  0  0  0  0  0
   -0.2673   -2.6317    0.0097 C   0  0  0  0  0  0  0  0  0  0  0  0
   -0.0123   -1.8615   -1.1210 C   0  0  0  0  0  0  0  0  0  0  0  0
   -2.2766   -1.3698   -3.3186 H   0  0  0  0  0  0  0  0  0  0  0  0
   -2.0536    0.3362   -3.8479 H   0  0  0  0  0  0  0  0  0  0  0  0
   -3.6595   -0.3601   -3.6843 H   0  0  0  0  0  0  0  0  0  0  0  0
   -4.7921    0.5668   -1.9703 H   0  0  0  0  0  0  0  0  0  0  0  0
   -5.9209    1.3829   -0.2803 H   0  0  0  0  0  0  0  0  0  0  0  0
   -4.1601    1.7293    2.5254 H   0  0  0  0  0  0  0  0  0  0  0  0
   -2.4880    3.4721    1.9121 H   0  0  0  0  0  0  0  0  0  0  0  0
   -2.4213    3.0286    3.6251 H   0  0  0  0  0  0  0  0  0  0  0  0
   -1.1833    2.4372    2.5100 H   0  0  0  0  0  0  0  0  0  0  0  0
   -2.9888    0.6237    4.3434 H   0  0  0  0  0  0  0  0  0  0  0  0
   -3.4253   -0.5776    3.1182 H   0  0  0  0  0  0  0  0  0  0  0  0
   -1.7531   -0.0123    3.2510 H   0  0  0  0  0  0  0  0  0  0  0  0
   -0.9030    0.5155    1.0719 H   0  0  0  0  0  0  0  0  0  0  0  0
    1.9638   -1.1295    0.2947 H   0  0  0  0  0  0  0  0  0  0  0  0
    4.5649    0.7833    2.1653 H   0  0  0  0  0  0  0  0  0  0  0  0
    4.5789   -1.6100    0.2497 H   0  0  0  0  0  0  0  0  0  0  0  0
    5.5679   -0.1532    0.0774 H   0  0  0  0  0  0  0  0  0  0  0  0
    5.8046   -1.2236    1.4674 H   0  0  0  0  0  0  0  0  0  0  0  0
    2.5898   -0.3058    3.2150 H   0  0  0  0  0  0  0  0  0  0  0  0
    2.8830   -1.7550    2.2391 H   0  0  0  0  0  0  0  0  0  0  0  0
    4.0992   -1.2131    3.3945 H   0  0  0  0  0  0  0  0  0  0  0  0
    4.8800    2.3443    0.9546 H   0  0  0  0  0  0  0  0  0  0  0  0
    2.2222    3.7055   -0.6635 H   0  0  0  0  0  0  0  0  0  0  0  0
   -0.1083    2.1085   -2.8316 H   0  0  0  0  0  0  0  0  0  0  0  0
    0.5237    3.6134   -2.2119 H   0  0  0  0  0  0  0  0  0  0  0  0
   -0.8073    2.8363   -1.3543 H   0  0  0  0  0  0  0  0  0  0  0  0
    1.0193   -4.2824   -3.2901 H   0  0  0  0  0  0  0  0  0  0  0  0
    0.6053   -5.6837   -1.2577 H   0  0  0  0  0  0  0  0  0  0  0  0
   -0.2287   -4.6276    0.8268 H   0  0  0  0  0  0  0  0  0  0  0  0
   -0.6353   -2.1824    0.9280 H   0  0  0  0  0  0  0  0  0  0  0  0
  1  2  1  0
  2  3  2  0
  3  4  1  0
  4  5  1  0
  4  6  2  0
  6  7  1  0
  7  8  1  0
  7  9  1  0
  6 10  1  0
 10 11  2  0
 11 12  1  0
 12 13  1  0
 13 14  2  0
 14 15  1  0
 15 16  1  0
 16 17  1  0
 16 18  1  0
 15 19  2  0
 19 20  1  0
 19 21  1  0
 21 22  2  0
 22 23  1  0
 12 24  1  0
 24 25  1  0
 25 26  2  0
 25 27  1  0
 27 28  2  0
 28 29  1  0
 29 30  2  0
 30 31  1  0
 31 32  2  0
 11  2  1  0
 32 12  1  0
 22 13  1  0
 32 27  1  0
  1 33  1  0
  1 34  1  0
  1 35  1  0
  3 36  1  0
  5 37  1  0
  7 38  1  0
  8 39  1  0
  8 40  1  0
  8 41  1  0
  9 42  1  0
  9 43  1  0
  9 44  1  0
 10 45  1  0
 14 46  1  0
 16 47  1  0
 17 48  1  0
 17 49  1  0
 17 50  1  0
 18 51  1  0
 18 52  1  0
 18 53  1  0
 20 54  1  0
 21 55  1  0
 23 56  1  0
 23 57  1  0
 23 58  1  0
 28 59  1  0
 29 60  1  0
 30 61  1  0
 31 62  1  0
M  END
$$$$
