
     RDKit          3D

 39 40  0  0  0  0  0  0  0  0999 V2000
   -5.3176   -1.1133    1.7965 C   0  0  0  0  0  0  0  0  0  0  0  0
   -5.1416   -0.0726    0.8462 O   0  0  0  0  0  0  0  0  0  0  0  0
   -3.8572    0.2659    0.4988 C   0  0  0  0  0  0  0  0  0  0  0  0
   -2.7105   -0.3376    1.0307 C   0  0  0  0  0  0  0  0  0  0  0  0
   -1.4411    0.0726    0.6187 C   0  0  0  0  0  0  0  0  0  0  0  0
   -1.3206    1.0888   -0.3291 C   0  0  0  0  0  0  0  0  0  0  0  0
    0.0277    1.5306   -0.7769 C   0  0  0  0  0  0  0  0  0  0  0  0
    0.3137    1.5262   -2.0430 N   0  0  0  0  0  0  0  0  0  0  0  0
    0.9267    1.9393    0.1886 N   0  0  0  0  0  0  0  0  0  0  0  0
    2.2674    1.7739   -0.2238 O   0  0  0  0  0  0  0  0  0  0  0  0
    2.7806    0.5548    0.1442 C   0  0  0  0  0  0  0  0  0  0  0  0
    2.1953   -0.2435    0.8707 O   0  0  0  0  0  0  0  0  0  0  0  0
    4.0437    0.4272   -0.4048 O   0  0  0  0  0  0  0  0  0  0  0  0
    4.6360   -0.8005   -0.1127 C   0  0  0  0  0  0  0  0  0  0  0  0
    5.5598   -0.8728    0.9281 C   0  0  0  0  0  0  0  0  0  0  0  0
    6.1876   -2.0886    1.1954 C   0  0  0  0  0  0  0  0  0  0  0  0
    5.8987   -3.2110    0.4152 C   0  0  0  0  0  0  0  0  0  0  0  0
    4.9860   -3.1203   -0.6385 C   0  0  0  0  0  0  0  0  0  0  0  0
    4.3546   -1.9078   -0.9117 C   0  0  0  0  0  0  0  0  0  0  0  0
   -2.4545    1.6992   -0.8738 C   0  0  0  0  0  0  0  0  0  0  0  0
   -3.7273    1.2939   -0.4613 C   0  0  0  0  0  0  0  0  0  0  0  0
   -4.9007    1.8320   -0.9295 O   0  0  0  0  0  0  0  0  0  0  0  0
   -4.8139    2.8824   -1.8821 C   0  0  0  0  0  0  0  0  0  0  0  0
   -4.8792   -0.8439    2.7629 H   0  0  0  0  0  0  0  0  0  0  0  0
   -4.9104   -2.0598    1.4261 H   0  0  0  0  0  0  0  0  0  0  0  0
   -6.3928   -1.2508    1.9467 H   0  0  0  0  0  0  0  0  0  0  0  0
   -2.7720   -1.1355    1.7636 H   0  0  0  0  0  0  0  0  0  0  0  0
   -0.5610   -0.4236    1.0218 H   0  0  0  0  0  0  0  0  0  0  0  0
   -0.4719    1.1733   -2.5988 H   0  0  0  0  0  0  0  0  0  0  0  0
    0.7644    1.5871    1.1307 H   0  0  0  0  0  0  0  0  0  0  0  0
    5.7901    0.0040    1.5251 H   0  0  0  0  0  0  0  0  0  0  0  0
    6.9051   -2.1631    2.0084 H   0  0  0  0  0  0  0  0  0  0  0  0
    6.3904   -4.1578    0.6253 H   0  0  0  0  0  0  0  0  0  0  0  0
    4.7707   -3.9943   -1.2477 H   0  0  0  0  0  0  0  0  0  0  0  0
    3.6523   -1.8307   -1.7365 H   0  0  0  0  0  0  0  0  0  0  0  0
   -2.3154    2.4927   -1.6007 H   0  0  0  0  0  0  0  0  0  0  0  0
   -4.2979    3.7531   -1.4642 H   0  0  0  0  0  0  0  0  0  0  0  0
   -5.8332    3.1900   -2.1346 H   0  0  0  0  0  0  0  0  0  0  0  0
   -4.3321    2.5404   -2.8039 H   0  0  0  0  0  0  0  0  0  0  0  0
  1  2  1  0
  2  3  1  0
  3  4  2  0
  4  5  1  0
  5  6  2  0
  6  7  1  0
  7  8  2  3
  7  9  1  0
  9 10  1  0
 10 11  1  0
 11 12  2  0
 11 13  1  0
 13 14  1  0
 14 15  2  0
 15 16  1  0
 16 17  2  0
 17 18  1  0
 18 19  2  0
  6 20  1  0
 20 21  2  0
 21 22  1  0
 22 23  1  0
 21  3  1  0
 19 14  1  0
  1 24  1  0
  1 25  1  0
  1 26  1  0
  4 27  1  0
  5 28  1  0
  8 29  1  0
  9 30  1  0
 15 31  1  0
 16 32  1  0
 17 33  1  0
 18 34  1  0
 19 35  1  0
 20 36  1  0
 23 37  1  0
 23 38  1  0
 23 39  1  0
M  END
$$$$
