
     RDKit          3D

 50 53  0  0  0  0  0  0  0  0999 V2000
  -10.0568    0.8768    0.0076 C   0  0  0  0  0  0  0  0  0  0  0  0
   -8.6524    0.3521   -0.0846 C   0  0  0  0  0  0  0  0  0  0  0  0
   -8.3963   -1.0061    0.1194 C   0  0  0  0  0  0  0  0  0  0  0  0
   -7.0896   -1.5057    0.0687 C   0  0  0  0  0  0  0  0  0  0  0  0
   -6.0139   -0.6317   -0.1809 C   0  0  0  0  0  0  0  0  0  0  0  0
   -4.6790   -0.9874   -0.2565 N   0  0  0  0  0  0  0  0  0  0  0  0
   -3.9264    0.0676   -0.5034 C   0  0  0  0  0  0  0  0  0  0  0  0
   -2.4545    0.0104   -0.6318 C   0  0  0  0  0  0  0  0  0  0  0  0
   -1.7872   -1.1709   -0.2709 C   0  0  0  0  0  0  0  0  0  0  0  0
   -0.3933   -1.2892   -0.3715 C   0  0  0  0  0  0  0  0  0  0  0  0
    0.3730   -0.2263   -0.8422 C   0  0  0  0  0  0  0  0  0  0  0  0
    1.7766   -0.2583   -0.9790 N   0  0  0  0  0  0  0  0  0  0  0  0
    2.6250   -1.3120   -0.6859 C   0  0  0  0  0  0  0  0  0  0  0  0
    2.3017   -2.4278   -0.2962 O   0  0  0  0  0  0  0  0  0  0  0  0
    4.0770   -0.9812   -0.9925 C   0  0  0  0  0  0  0  0  0  0  0  0
    5.0331   -1.8375   -0.1775 C   0  0  0  0  0  0  0  0  0  0  0  0
    5.2291   -1.2374    1.4942 S   0  0  0  0  0  6  0  0  0  0  0  0
    5.9655   -2.2300    2.2532 O   0  0  0  0  0  0  0  0  0  0  0  0
    3.9611   -0.7197    1.9696 O   0  0  0  0  0  0  0  0  0  0  0  0
    6.3218    0.1588    1.3034 C   0  0  0  0  0  0  0  0  0  0  0  0
    5.8172    1.4587    1.3988 C   0  0  0  0  0  0  0  0  0  0  0  0
    6.6839    2.5411    1.2492 C   0  0  0  0  0  0  0  0  0  0  0  0
    8.0432    2.3220    1.0175 C   0  0  0  0  0  0  0  0  0  0  0  0
    8.5443    1.0211    0.9440 C   0  0  0  0  0  0  0  0  0  0  0  0
    7.6853   -0.0672    1.0928 C   0  0  0  0  0  0  0  0  0  0  0  0
   -0.2787    0.9563   -1.2077 C   0  0  0  0  0  0  0  0  0  0  0  0
   -1.6728    1.0735   -1.1057 C   0  0  0  0  0  0  0  0  0  0  0  0
   -4.7990    1.5471   -0.6447 S   0  0  0  0  0  0  0  0  0  0  0  0
   -6.2808    0.7221   -0.3692 C   0  0  0  0  0  0  0  0  0  0  0  0
   -7.5881    1.2371   -0.3196 C   0  0  0  0  0  0  0  0  0  0  0  0
  -10.2841    1.1562    1.0409 H   0  0  0  0  0  0  0  0  0  0  0  0
  -10.1888    1.7543   -0.6342 H   0  0  0  0  0  0  0  0  0  0  0  0
  -10.7783    0.1221   -0.3228 H   0  0  0  0  0  0  0  0  0  0  0  0
   -9.2141   -1.6955    0.3210 H   0  0  0  0  0  0  0  0  0  0  0  0
   -6.8947   -2.5624    0.2233 H   0  0  0  0  0  0  0  0  0  0  0  0
   -2.3540   -2.0239    0.1020 H   0  0  0  0  0  0  0  0  0  0  0  0
    0.0544   -2.2300   -0.0667 H   0  0  0  0  0  0  0  0  0  0  0  0
    2.2011    0.5961   -1.3146 H   0  0  0  0  0  0  0  0  0  0  0  0
    4.2680    0.0851   -0.8371 H   0  0  0  0  0  0  0  0  0  0  0  0
    4.2232   -1.1942   -2.0581 H   0  0  0  0  0  0  0  0  0  0  0  0
    4.6987   -2.8771   -0.1004 H   0  0  0  0  0  0  0  0  0  0  0  0
    6.0280   -1.8520   -0.6340 H   0  0  0  0  0  0  0  0  0  0  0  0
    4.7635    1.6382    1.6003 H   0  0  0  0  0  0  0  0  0  0  0  0
    6.3040    3.5573    1.3264 H   0  0  0  0  0  0  0  0  0  0  0  0
    8.7177    3.1687    0.9104 H   0  0  0  0  0  0  0  0  0  0  0  0
    9.6076    0.8575    0.7841 H   0  0  0  0  0  0  0  0  0  0  0  0
    8.0856   -1.0783    1.0585 H   0  0  0  0  0  0  0  0  0  0  0  0
    0.2829    1.8091   -1.5805 H   0  0  0  0  0  0  0  0  0  0  0  0
   -2.1248    2.0133   -1.4121 H   0  0  0  0  0  0  0  0  0  0  0  0
   -7.7651    2.2995   -0.4621 H   0  0  0  0  0  0  0  0  0  0  0  0
  1  2  1  0
  2  3  2  0
  3  4  1  0
  4  5  2  0
  5  6  1  0
  6  7  2  0
  7  8  1  0
  8  9  2  0
  9 10  1  0
 10 11  2  0
 11 12  1  0
 12 13  1  0
 13 14  2  0
 13 15  1  0
 15 16  1  0
 16 17  1  0
 17 18  2  0
 17 19  2  0
 17 20  1  0
 20 21  2  0
 21 22  1  0
 22 23  2  0
 23 24  1  0
 24 25  2  0
 11 26  1  0
 26 27  2  0
  7 28  1  0
 28 29  1  0
 29 30  2  0
 30  2  1  0
 29  5  1  0
 27  8  1  0
 25 20  1  0
  1 31  1  0
  1 32  1  0
  1 33  1  0
  3 34  1  0
  4 35  1  0
  9 36  1  0
 10 37  1  0
 12 38  1  0
 15 39  1  0
 15 40  1  0
 16 41  1  0
 16 42  1  0
 21 43  1  0
 22 44  1  0
 23 45  1  0
 24 46  1  0
 25 47  1  0
 26 48  1  0
 27 49  1  0
 30 50  1  0
M  END
$$$$
