
     RDKit          3D

 41 42  0  0  0  0  0  0  0  0999 V2000
   -0.2253    0.8029   -0.8623 O   0  0  0  0  0  0  0  0  0  0  0  0
   -0.3920    0.2394    0.4472 C   0  0  0  0  0  0  0  0  0  0  0  0
    1.0087   -0.0183    1.0260 C   0  0  0  0  0  0  0  0  0  0  0  0
    1.7088   -0.9224    0.1587 O   0  0  0  0  0  0  0  0  0  0  0  0
    3.0237   -1.2270    0.6296 C   0  0  0  0  0  0  0  0  0  0  0  0
    4.0056   -0.1259    0.3099 C   0  0  0  0  0  0  0  0  0  0  0  0
    4.0616    0.4274   -0.9786 C   0  0  0  0  0  0  0  0  0  0  0  0
    4.9801    1.4354   -1.2798 C   0  0  0  0  0  0  0  0  0  0  0  0
    5.8541    1.8901   -0.2957 C   0  0  0  0  0  0  0  0  0  0  0  0
    6.9875    3.1309   -0.6645 Cl  0  0  0  0  0  0  0  0  0  0  0  0
    5.8186    1.3442    0.9857 C   0  0  0  0  0  0  0  0  0  0  0  0
    4.8989    0.3364    1.2873 C   0  0  0  0  0  0  0  0  0  0  0  0
   -1.2145   -1.0729    0.3743 C   0  0  0  0  0  0  0  0  0  0  0  0
   -2.6648   -0.9789    0.1100 N   0  0  0  0  0  0  0  0  0  0  0  0
   -2.9721   -0.3647   -1.1873 C   0  0  0  0  0  0  0  0  0  0  0  0
   -4.4652   -0.4933   -1.4983 C   0  0  0  0  0  0  0  0  0  0  0  0
   -5.3148    0.1212   -0.3904 C   0  0  0  0  0  0  0  0  0  0  0  0
   -4.9104   -0.4390    0.9694 C   0  0  0  0  0  0  0  0  0  0  0  0
   -3.4011   -0.3228    1.1954 C   0  0  0  0  0  0  0  0  0  0  0  0
    0.3984    0.2064   -1.3200 H   0  0  0  0  0  0  0  0  0  0  0  0
   -0.8962    0.9830    1.0714 H   0  0  0  0  0  0  0  0  0  0  0  0
    0.9349   -0.4463    2.0319 H   0  0  0  0  0  0  0  0  0  0  0  0
    1.5587    0.9282    1.0733 H   0  0  0  0  0  0  0  0  0  0  0  0
    2.9948   -1.4531    1.7022 H   0  0  0  0  0  0  0  0  0  0  0  0
    3.3533   -2.1377    0.1170 H   0  0  0  0  0  0  0  0  0  0  0  0
    3.3817    0.0760   -1.7527 H   0  0  0  0  0  0  0  0  0  0  0  0
    5.0070    1.8587   -2.2802 H   0  0  0  0  0  0  0  0  0  0  0  0
    6.5036    1.6969    1.7521 H   0  0  0  0  0  0  0  0  0  0  0  0
    4.8858   -0.0829    2.2911 H   0  0  0  0  0  0  0  0  0  0  0  0
   -1.0888   -1.6235    1.3157 H   0  0  0  0  0  0  0  0  0  0  0  0
   -0.7869   -1.7187   -0.4039 H   0  0  0  0  0  0  0  0  0  0  0  0
   -2.6986    0.6968   -1.2030 H   0  0  0  0  0  0  0  0  0  0  0  0
   -2.4119   -0.8668   -1.9850 H   0  0  0  0  0  0  0  0  0  0  0  0
   -4.7274   -1.5524   -1.6162 H   0  0  0  0  0  0  0  0  0  0  0  0
   -4.6888   -0.0006   -2.4513 H   0  0  0  0  0  0  0  0  0  0  0  0
   -5.1823    1.2102   -0.3904 H   0  0  0  0  0  0  0  0  0  0  0  0
   -6.3763   -0.0742   -0.5776 H   0  0  0  0  0  0  0  0  0  0  0  0
   -5.4459    0.0945    1.7629 H   0  0  0  0  0  0  0  0  0  0  0  0
   -5.2110   -1.4926    1.0336 H   0  0  0  0  0  0  0  0  0  0  0  0
   -3.1286    0.7360    1.2810 H   0  0  0  0  0  0  0  0  0  0  0  0
   -3.1631   -0.8006    2.1533 H   0  0  0  0  0  0  0  0  0  0  0  0
  1  2  1  0
  2  3  1  0
  3  4  1  0
  4  5  1  0
  5  6  1  0
  6  7  2  0
  7  8  1  0
  8  9  2  0
  9 10  1  0
  9 11  1  0
 11 12  2  0
  2 13  1  0
 13 14  1  0
 14 15  1  0
 15 16  1  0
 16 17  1  0
 17 18  1  0
 18 19  1  0
 12  6  1  0
 19 14  1  0
  1 20  1  0
  2 21  1  0
  3 22  1  0
  3 23  1  0
  5 24  1  0
  5 25  1  0
  7 26  1  0
  8 27  1  0
 11 28  1  0
 12 29  1  0
 13 30  1  0
 13 31  1  0
 15 32  1  0
 15 33  1  0
 16 34  1  0
 16 35  1  0
 17 36  1  0
 17 37  1  0
 18 38  1  0
 18 39  1  0
 19 40  1  0
 19 41  1  0
M  END
$$$$
