
     RDKit          3D

 62 66  0  0  0  0  0  0  0  0999 V2000
   -4.9941   -3.4119   -2.8807 C   0  0  0  0  0  0  0  0  0  0  0  0
   -3.8309   -4.0933   -2.4286 O   0  0  0  0  0  0  0  0  0  0  0  0
   -3.1393   -3.5196   -1.3966 C   0  0  0  0  0  0  0  0  0  0  0  0
   -2.0072   -4.2289   -0.9894 C   0  0  0  0  0  0  0  0  0  0  0  0
   -1.2082   -3.7562    0.0509 C   0  0  0  0  0  0  0  0  0  0  0  0
   -1.5404   -2.5654    0.6948 C   0  0  0  0  0  0  0  0  0  0  0  0
   -2.6724   -1.8397    0.3016 C   0  0  0  0  0  0  0  0  0  0  0  0
   -3.0091   -0.5760    0.9724 C   0  0  0  0  0  0  0  0  0  0  0  0
   -4.4910   -0.4801    1.8247 S   0  0  0  0  0  0  0  0  0  0  0  0
   -4.2060    1.1360    2.3256 C   0  0  0  0  0  0  0  0  0  0  0  0
   -5.0534    1.9374    3.1149 C   0  0  0  0  0  0  0  0  0  0  0  0
   -4.6643    3.2449    3.4279 C   0  0  0  0  0  0  0  0  0  0  0  0
   -3.4586    3.7533    2.9655 C   0  0  0  0  0  0  0  0  0  0  0  0
   -2.9709    5.0096    3.2014 O   0  0  0  0  0  0  0  0  0  0  0  0
   -3.7821    5.8811    3.9788 C   0  0  0  0  0  0  0  0  0  0  0  0
   -2.6262    2.9456    2.1814 C   0  0  0  0  0  0  0  0  0  0  0  0
   -2.9845    1.6118    1.8498 C   0  0  0  0  0  0  0  0  0  0  0  0
   -2.2917    0.6079    1.0689 C   0  0  0  0  0  0  0  0  0  0  0  0
   -0.9857    0.7751    0.4365 C   0  0  0  0  0  0  0  0  0  0  0  0
   -0.8580    0.7629   -0.9544 C   0  0  0  0  0  0  0  0  0  0  0  0
    0.3994    0.9266   -1.5410 C   0  0  0  0  0  0  0  0  0  0  0  0
    1.5403    1.1109   -0.7545 C   0  0  0  0  0  0  0  0  0  0  0  0
    2.6956    1.2602   -1.4670 O   0  0  0  0  0  0  0  0  0  0  0  0
    3.9222    1.4839   -0.7699 C   0  0  0  0  0  0  0  0  0  0  0  0
    4.5934    0.1727   -0.3139 C   0  0  0  0  0  0  0  0  0  0  0  0
    4.9847   -0.7284   -1.4069 N   0  0  0  0  0  0  0  0  0  0  0  0
    5.5292   -1.9929   -0.9122 C   0  0  0  0  0  0  0  0  0  0  0  0
    6.1398   -2.6028   -2.1620 C   0  0  0  0  0  0  0  0  0  0  0  0
    6.5548   -1.4108   -3.0162 C   0  0  0  0  0  0  0  0  0  0  0  0
    6.0166   -0.1847   -2.2890 C   0  0  0  0  0  0  0  0  0  0  0  0
    1.4116    1.1259    0.6338 C   0  0  0  0  0  0  0  0  0  0  0  0
    0.1542    0.9594    1.2269 C   0  0  0  0  0  0  0  0  0  0  0  0
   -3.4678   -2.3255   -0.7509 C   0  0  0  0  0  0  0  0  0  0  0  0
   -5.7447   -3.3418   -2.0865 H   0  0  0  0  0  0  0  0  0  0  0  0
   -4.7429   -2.4227   -3.2773 H   0  0  0  0  0  0  0  0  0  0  0  0
   -5.4279   -3.9971   -3.6973 H   0  0  0  0  0  0  0  0  0  0  0  0
   -1.7446   -5.1572   -1.4909 H   0  0  0  0  0  0  0  0  0  0  0  0
   -0.3268   -4.3135    0.3560 H   0  0  0  0  0  0  0  0  0  0  0  0
   -0.9095   -2.2056    1.5042 H   0  0  0  0  0  0  0  0  0  0  0  0
   -6.0004    1.5469    3.4777 H   0  0  0  0  0  0  0  0  0  0  0  0
   -5.3380    3.8375    4.0384 H   0  0  0  0  0  0  0  0  0  0  0  0
   -4.7411    6.0724    3.4862 H   0  0  0  0  0  0  0  0  0  0  0  0
   -3.9277    5.4871    4.9900 H   0  0  0  0  0  0  0  0  0  0  0  0
   -3.2567    6.8370    4.0668 H   0  0  0  0  0  0  0  0  0  0  0  0
   -1.6865    3.3549    1.8167 H   0  0  0  0  0  0  0  0  0  0  0  0
   -1.7279    0.6245   -1.5914 H   0  0  0  0  0  0  0  0  0  0  0  0
    0.4926    0.9082   -2.6244 H   0  0  0  0  0  0  0  0  0  0  0  0
    3.7865    2.1722    0.0726 H   0  0  0  0  0  0  0  0  0  0  0  0
    4.5839    2.0168   -1.4620 H   0  0  0  0  0  0  0  0  0  0  0  0
    5.4673    0.4250    0.3003 H   0  0  0  0  0  0  0  0  0  0  0  0
    3.8916   -0.3685    0.3312 H   0  0  0  0  0  0  0  0  0  0  0  0
    6.3077   -1.8308   -0.1557 H   0  0  0  0  0  0  0  0  0  0  0  0
    4.7552   -2.6395   -0.4869 H   0  0  0  0  0  0  0  0  0  0  0  0
    6.9879   -3.2535   -1.9271 H   0  0  0  0  0  0  0  0  0  0  0  0
    5.3956   -3.2016   -2.7007 H   0  0  0  0  0  0  0  0  0  0  0  0
    7.6429   -1.3569   -3.1252 H   0  0  0  0  0  0  0  0  0  0  0  0
    6.1202   -1.4992   -4.0183 H   0  0  0  0  0  0  0  0  0  0  0  0
    6.8262    0.2892   -1.7196 H   0  0  0  0  0  0  0  0  0  0  0  0
    5.6155    0.5461   -2.9979 H   0  0  0  0  0  0  0  0  0  0  0  0
    2.2638    1.2583    1.2899 H   0  0  0  0  0  0  0  0  0  0  0  0
    0.0731    0.9700    2.3117 H   0  0  0  0  0  0  0  0  0  0  0  0
   -4.3352   -1.7474   -1.0525 H   0  0  0  0  0  0  0  0  0  0  0  0
  1  2  1  0
  2  3  1  0
  3  4  2  0
  4  5  1  0
  5  6  2  0
  6  7  1  0
  7  8  1  0
  8  9  1  0
  9 10  1  0
 10 11  2  0
 11 12  1  0
 12 13  2  0
 13 14  1  0
 14 15  1  0
 13 16  1  0
 16 17  2  0
 17 18  1  0
 18 19  1  0
 19 20  2  0
 20 21  1  0
 21 22  2  0
 22 23  1  0
 23 24  1  0
 24 25  1  0
 25 26  1  0
 26 27  1  0
 27 28  1  0
 28 29  1  0
 29 30  1  0
 22 31  1  0
 31 32  2  0
  7 33  2  0
 33  3  1  0
 18  8  2  0
 32 19  1  0
 17 10  1  0
 30 26  1  0
  1 34  1  0
  1 35  1  0
  1 36  1  0
  4 37  1  0
  5 38  1  0
  6 39  1  0
 11 40  1  0
 12 41  1  0
 15 42  1  0
 15 43  1  0
 15 44  1  0
 16 45  1  0
 20 46  1  0
 21 47  1  0
 24 48  1  0
 24 49  1  0
 25 50  1  0
 25 51  1  0
 27 52  1  0
 27 53  1  0
 28 54  1  0
 28 55  1  0
 29 56  1  0
 29 57  1  0
 30 58  1  0
 30 59  1  0
 31 60  1  0
 32 61  1  0
 33 62  1  0
M  END
$$$$
