
     RDKit          3D

 67 70  0  0  0  0  0  0  0  0999 V2000
    1.4329    1.9460   -2.7846 C   0  0  0  0  0  0  0  0  0  0  0  0
    0.4119    1.0080   -2.4451 O   0  0  0  0  0  0  0  0  0  0  0  0
   -0.4567    1.5103   -1.5073 C   0  0  0  0  0  0  0  0  0  0  0  0
   -1.2520    2.6184   -1.8355 C   0  0  0  0  0  0  0  0  0  0  0  0
   -2.1865    3.1179   -0.9260 C   0  0  0  0  0  0  0  0  0  0  0  0
   -2.9963    4.2006   -1.1624 O   0  0  0  0  0  0  0  0  0  0  0  0
   -2.9280    4.8073   -2.4469 C   0  0  0  0  0  0  0  0  0  0  0  0
   -2.3330    2.4844    0.3194 C   0  0  0  0  0  0  0  0  0  0  0  0
   -3.3014    2.9385    1.3174 C   0  0  0  0  0  0  0  0  0  0  0  0
   -3.4345    2.2973    2.4811 C   0  0  0  0  0  0  0  0  0  0  0  0
   -2.6225    1.1227    2.8199 C   0  0  0  0  0  0  0  0  0  0  0  0
   -2.7495    0.5539    3.8976 O   0  0  0  0  0  0  0  0  0  0  0  0
   -1.7069    0.7129    1.8650 O   0  0  0  0  0  0  0  0  0  0  0  0
   -1.5409    1.3651    0.6188 C   0  0  0  0  0  0  0  0  0  0  0  0
   -0.5866    0.8479   -0.2751 C   0  0  0  0  0  0  0  0  0  0  0  0
    0.2570   -0.3921    0.0316 C   0  0  0  0  0  0  0  0  0  0  0  0
    1.1143   -0.2886    1.3214 C   0  0  0  0  0  0  0  0  0  0  0  0
    2.1127    0.8831    1.3477 C   0  0  0  0  0  0  0  0  0  0  0  0
    3.0729    0.9303    0.2329 N   0  0  0  0  0  0  0  0  0  0  0  0
    3.9672   -0.2350    0.1561 C   0  0  0  0  0  0  0  0  0  0  0  0
    5.0270   -0.2803    1.2593 C   0  0  0  0  0  0  0  0  0  0  0  0
    5.8378    1.0110    1.2966 C   0  0  0  0  0  0  0  0  0  0  0  0
    4.9236    2.2304    1.3481 C   0  0  0  0  0  0  0  0  0  0  0  0
    3.8586    2.1758    0.2494 C   0  0  0  0  0  0  0  0  0  0  0  0
   -0.5852   -1.6691   -0.0518 C   0  0  0  0  0  0  0  0  0  0  0  0
   -0.8712   -2.2167   -1.3075 C   0  0  0  0  0  0  0  0  0  0  0  0
   -1.6522   -3.3757   -1.4353 C   0  0  0  0  0  0  0  0  0  0  0  0
   -2.2012   -4.0384   -0.3256 C   0  0  0  0  0  0  0  0  0  0  0  0
   -2.9698   -5.2032   -0.4589 N   0  0  0  0  0  0  0  0  0  0  0  0
   -3.5816   -5.4878   -1.7557 C   0  0  0  0  0  0  0  0  0  0  0  0
   -3.6990   -5.7044    0.7044 C   0  0  0  0  0  0  0  0  0  0  0  0
   -1.8931   -3.4791    0.9258 C   0  0  0  0  0  0  0  0  0  0  0  0
   -1.1118   -2.3196    1.0652 C   0  0  0  0  0  0  0  0  0  0  0  0
    1.7344    2.5663   -1.9333 H   0  0  0  0  0  0  0  0  0  0  0  0
    2.3076    1.3821   -3.1221 H   0  0  0  0  0  0  0  0  0  0  0  0
    1.0977    2.5800   -3.6115 H   0  0  0  0  0  0  0  0  0  0  0  0
   -1.1327    3.0568   -2.8195 H   0  0  0  0  0  0  0  0  0  0  0  0
   -3.2043    4.0981   -3.2339 H   0  0  0  0  0  0  0  0  0  0  0  0
   -3.6532    5.6266   -2.4684 H   0  0  0  0  0  0  0  0  0  0  0  0
   -1.9371    5.2362   -2.6274 H   0  0  0  0  0  0  0  0  0  0  0  0
   -3.9166    3.8034    1.0920 H   0  0  0  0  0  0  0  0  0  0  0  0
   -4.1489    2.6143    3.2304 H   0  0  0  0  0  0  0  0  0  0  0  0
    1.0026   -0.5099   -0.7658 H   0  0  0  0  0  0  0  0  0  0  0  0
    1.6584   -1.2306    1.4683 H   0  0  0  0  0  0  0  0  0  0  0  0
    0.4847   -0.1904    2.2119 H   0  0  0  0  0  0  0  0  0  0  0  0
    2.6329    0.8568    2.3126 H   0  0  0  0  0  0  0  0  0  0  0  0
    1.5292    1.8127    1.3496 H   0  0  0  0  0  0  0  0  0  0  0  0
    4.4752   -0.2083   -0.8173 H   0  0  0  0  0  0  0  0  0  0  0  0
    3.4000   -1.1713    0.1468 H   0  0  0  0  0  0  0  0  0  0  0  0
    4.5528   -0.4489    2.2332 H   0  0  0  0  0  0  0  0  0  0  0  0
    5.7000   -1.1279    1.0870 H   0  0  0  0  0  0  0  0  0  0  0  0
    6.4682    1.0692    0.4005 H   0  0  0  0  0  0  0  0  0  0  0  0
    6.5108    1.0077    2.1611 H   0  0  0  0  0  0  0  0  0  0  0  0
    5.5222    3.1411    1.2324 H   0  0  0  0  0  0  0  0  0  0  0  0
    4.4475    2.2916    2.3337 H   0  0  0  0  0  0  0  0  0  0  0  0
    3.1941    3.0446    0.3346 H   0  0  0  0  0  0  0  0  0  0  0  0
    4.3503    2.2837   -0.7265 H   0  0  0  0  0  0  0  0  0  0  0  0
   -0.4847   -1.7443   -2.2090 H   0  0  0  0  0  0  0  0  0  0  0  0
   -1.8121   -3.7448   -2.4431 H   0  0  0  0  0  0  0  0  0  0  0  0
   -4.1939   -6.3958   -1.7153 H   0  0  0  0  0  0  0  0  0  0  0  0
   -2.8209   -5.6745   -2.5210 H   0  0  0  0  0  0  0  0  0  0  0  0
   -4.2325   -4.6662   -2.0747 H   0  0  0  0  0  0  0  0  0  0  0  0
   -4.4367   -4.9730    1.0531 H   0  0  0  0  0  0  0  0  0  0  0  0
   -4.2364   -6.6292    0.4655 H   0  0  0  0  0  0  0  0  0  0  0  0
   -3.0159   -5.9596    1.5219 H   0  0  0  0  0  0  0  0  0  0  0  0
   -2.2596   -3.9265    1.8445 H   0  0  0  0  0  0  0  0  0  0  0  0
   -0.9389   -1.9419    2.0696 H   0  0  0  0  0  0  0  0  0  0  0  0
  1  2  1  0
  2  3  1  0
  3  4  2  0
  4  5  1  0
  5  6  1  0
  6  7  1  0
  5  8  2  0
  8  9  1  0
  9 10  2  0
 10 11  1  0
 11 12  2  0
 11 13  1  0
 13 14  1  0
 14 15  2  0
 15 16  1  0
 16 17  1  0
 17 18  1  0
 18 19  1  0
 19 20  1  0
 20 21  1  0
 21 22  1  0
 22 23  1  0
 23 24  1  0
 16 25  1  0
 25 26  2  0
 26 27  1  0
 27 28  2  0
 28 29  1  0
 29 30  1  0
 29 31  1  0
 28 32  1  0
 32 33  2  0
 15  3  1  0
 24 19  1  0
 33 25  1  0
 14  8  1  0
  1 34  1  0
  1 35  1  0
  1 36  1  0
  4 37  1  0
  7 38  1  0
  7 39  1  0
  7 40  1  0
  9 41  1  0
 10 42  1  0
 16 43  1  0
 17 44  1  0
 17 45  1  0
 18 46  1  0
 18 47  1  0
 20 48  1  0
 20 49  1  0
 21 50  1  0
 21 51  1  0
 22 52  1  0
 22 53  1  0
 23 54  1  0
 23 55  1  0
 24 56  1  0
 24 57  1  0
 26 58  1  0
 27 59  1  0
 30 60  1  0
 30 61  1  0
 30 62  1  0
 31 63  1  0
 31 64  1  0
 31 65  1  0
 32 66  1  0
 33 67  1  0
M  END
$$$$
