
     RDKit          3D

 38 39  0  0  0  0  0  0  0  0999 V2000
   -3.2462   -0.6433    2.4910 C   0  0  0  0  0  0  0  0  0  0  0  0
   -2.9170   -1.5247    1.3775 N   0  0  0  0  0  0  0  0  0  0  0  0
   -3.6456   -1.1692    0.1499 C   0  0  0  0  0  0  0  0  0  0  0  0
   -3.1922    0.1208   -0.4903 C   0  0  0  0  0  0  0  0  0  0  0  0
   -3.9329    1.2991   -0.2968 C   0  0  0  0  0  0  0  0  0  0  0  0
   -3.5400    2.4983   -0.8972 C   0  0  0  0  0  0  0  0  0  0  0  0
   -2.4066    2.5366   -1.7069 C   0  0  0  0  0  0  0  0  0  0  0  0
   -1.6599    1.3784   -1.9101 C   0  0  0  0  0  0  0  0  0  0  0  0
   -2.0413    0.1872   -1.2893 C   0  0  0  0  0  0  0  0  0  0  0  0
   -1.2965   -0.9368   -1.5326 O   0  0  0  0  0  0  0  0  0  0  0  0
   -0.2512   -1.0594   -0.5720 C   0  0  0  0  0  0  0  0  0  0  0  0
    1.1325   -0.6310   -1.0854 C   0  0  0  0  0  0  0  0  0  0  0  0
    1.3320   -0.3019   -2.2505 O   0  0  0  0  0  0  0  0  0  0  0  0
    2.0861   -0.6754   -0.0733 N   0  0  0  0  0  0  0  0  0  0  0  0
    3.4576   -0.3605   -0.1666 C   0  0  0  0  0  0  0  0  0  0  0  0
    4.0898    0.0463   -1.3424 C   0  0  0  0  0  0  0  0  0  0  0  0
    5.4579    0.3391   -1.3476 C   0  0  0  0  0  0  0  0  0  0  0  0
    6.2051    0.2275   -0.1779 C   0  0  0  0  0  0  0  0  0  0  0  0
    5.5851   -0.1777    1.0004 C   0  0  0  0  0  0  0  0  0  0  0  0
    4.2185   -0.4703    1.0054 C   0  0  0  0  0  0  0  0  0  0  0  0
   -4.3229   -0.6239    2.6881 H   0  0  0  0  0  0  0  0  0  0  0  0
   -2.8896    0.3768    2.3206 H   0  0  0  0  0  0  0  0  0  0  0  0
   -2.7490   -1.0076    3.3957 H   0  0  0  0  0  0  0  0  0  0  0  0
   -3.1876   -2.4752    1.6290 H   0  0  0  0  0  0  0  0  0  0  0  0
   -3.5097   -1.9800   -0.5770 H   0  0  0  0  0  0  0  0  0  0  0  0
   -4.7260   -1.1417    0.3429 H   0  0  0  0  0  0  0  0  0  0  0  0
   -4.8272    1.2872    0.3219 H   0  0  0  0  0  0  0  0  0  0  0  0
   -4.1250    3.4011   -0.7409 H   0  0  0  0  0  0  0  0  0  0  0  0
   -2.1073    3.4648   -2.1860 H   0  0  0  0  0  0  0  0  0  0  0  0
   -0.7845    1.4001   -2.5549 H   0  0  0  0  0  0  0  0  0  0  0  0
   -0.1821   -2.1229   -0.3145 H   0  0  0  0  0  0  0  0  0  0  0  0
   -0.4627   -0.5103    0.3560 H   0  0  0  0  0  0  0  0  0  0  0  0
    1.7612   -0.9573    0.8432 H   0  0  0  0  0  0  0  0  0  0  0  0
    3.5487    0.1462   -2.2780 H   0  0  0  0  0  0  0  0  0  0  0  0
    5.9358    0.6544   -2.2719 H   0  0  0  0  0  0  0  0  0  0  0  0
    7.2675    0.4559   -0.1867 H   0  0  0  0  0  0  0  0  0  0  0  0
    6.1640   -0.2664    1.9159 H   0  0  0  0  0  0  0  0  0  0  0  0
    3.7610   -0.7841    1.9398 H   0  0  0  0  0  0  0  0  0  0  0  0
  1  2  1  0
  2  3  1  0
  3  4  1  0
  4  5  2  0
  5  6  1  0
  6  7  2  0
  7  8  1  0
  8  9  2  0
  9 10  1  0
 10 11  1  0
 11 12  1  0
 12 13  2  0
 12 14  1  0
 14 15  1  0
 15 16  2  0
 16 17  1  0
 17 18  2  0
 18 19  1  0
 19 20  2  0
  9  4  1  0
 20 15  1  0
  1 21  1  0
  1 22  1  0
  1 23  1  0
  2 24  1  0
  3 25  1  0
  3 26  1  0
  5 27  1  0
  6 28  1  0
  7 29  1  0
  8 30  1  0
 11 31  1  0
 11 32  1  0
 14 33  1  0
 16 34  1  0
 17 35  1  0
 18 36  1  0
 19 37  1  0
 20 38  1  0
M  END
$$$$
