
     RDKit          3D

 37 39  0  0  0  0  0  0  0  0999 V2000
    0.0978   -2.9337   -2.0936 C   0  0  0  0  0  0  0  0  0  0  0  0
   -0.7859   -2.2398   -2.9666 O   0  0  0  0  0  0  0  0  0  0  0  0
   -1.3008   -1.0393   -2.4851 C   0  0  0  0  0  0  0  0  0  0  0  0
   -2.2825   -0.4842   -3.3145 C   0  0  0  0  0  0  0  0  0  0  0  0
   -2.9069    0.7165   -2.9889 C   0  0  0  0  0  0  0  0  0  0  0  0
   -2.5693    1.4130   -1.8210 C   0  0  0  0  0  0  0  0  0  0  0  0
   -3.1301    2.5993   -1.4271 O   0  0  0  0  0  0  0  0  0  0  0  0
   -4.2377    3.0804   -2.1787 C   0  0  0  0  0  0  0  0  0  0  0  0
   -1.5658    0.8523   -1.0003 C   0  0  0  0  0  0  0  0  0  0  0  0
   -0.9228    1.4678    0.4787 S   0  0  0  0  0  0  0  0  0  0  0  0
    0.1615    0.1350    0.6063 C   0  0  0  0  0  0  0  0  0  0  0  0
    1.0574   -0.0284    1.6244 N   0  0  0  0  0  0  0  0  0  0  0  0
    1.5038    1.0767    2.4704 C   0  0  0  0  0  0  0  0  0  0  0  0
    3.0223    1.0394    2.6368 C   0  0  0  0  0  0  0  0  0  0  0  0
    3.5210   -0.2861    3.2137 C   0  0  0  0  0  0  0  0  0  0  0  0
    2.5268   -1.4252    3.0177 C   0  0  0  0  0  0  0  0  0  0  0  0
    1.7866   -1.2950    1.6897 C   0  0  0  0  0  0  0  0  0  0  0  0
    0.0243   -0.7439   -0.3604 N   0  0  0  0  0  0  0  0  0  0  0  0
   -0.9281   -0.3538   -1.2971 C   0  0  0  0  0  0  0  0  0  0  0  0
   -0.3942   -3.1736   -1.1440 H   0  0  0  0  0  0  0  0  0  0  0  0
    0.3605   -3.8839   -2.5732 H   0  0  0  0  0  0  0  0  0  0  0  0
    1.0298   -2.3809   -1.9467 H   0  0  0  0  0  0  0  0  0  0  0  0
   -2.5671   -1.0085   -4.2262 H   0  0  0  0  0  0  0  0  0  0  0  0
   -3.6625    1.0908   -3.6749 H   0  0  0  0  0  0  0  0  0  0  0  0
   -3.9217    3.3875   -3.1828 H   0  0  0  0  0  0  0  0  0  0  0  0
   -5.0439    2.3413   -2.2249 H   0  0  0  0  0  0  0  0  0  0  0  0
   -4.6292    3.9636   -1.6654 H   0  0  0  0  0  0  0  0  0  0  0  0
    1.2471    2.0580    2.0564 H   0  0  0  0  0  0  0  0  0  0  0  0
    1.0153    1.0028    3.4502 H   0  0  0  0  0  0  0  0  0  0  0  0
    3.4918    1.1989    1.6569 H   0  0  0  0  0  0  0  0  0  0  0  0
    3.3521    1.8657    3.2780 H   0  0  0  0  0  0  0  0  0  0  0  0
    4.4752   -0.5402    2.7375 H   0  0  0  0  0  0  0  0  0  0  0  0
    3.7380   -0.1689    4.2812 H   0  0  0  0  0  0  0  0  0  0  0  0
    1.8011   -1.4142    3.8395 H   0  0  0  0  0  0  0  0  0  0  0  0
    3.0463   -2.3887    3.0729 H   0  0  0  0  0  0  0  0  0  0  0  0
    2.4977   -1.3626    0.8580 H   0  0  0  0  0  0  0  0  0  0  0  0
    1.0922   -2.1380    1.6032 H   0  0  0  0  0  0  0  0  0  0  0  0
  1  2  1  0
  2  3  1  0
  3  4  2  0
  4  5  1  0
  5  6  2  0
  6  7  1  0
  7  8  1  0
  6  9  1  0
  9 10  1  0
 10 11  1  0
 11 12  1  0
 12 13  1  0
 13 14  1  0
 14 15  1  0
 15 16  1  0
 16 17  1  0
 11 18  2  0
 18 19  1  0
 19  3  1  0
 19  9  2  0
 17 12  1  0
  1 20  1  0
  1 21  1  0
  1 22  1  0
  4 23  1  0
  5 24  1  0
  8 25  1  0
  8 26  1  0
  8 27  1  0
 13 28  1  0
 13 29  1  0
 14 30  1  0
 14 31  1  0
 15 32  1  0
 15 33  1  0
 16 34  1  0
 16 35  1  0
 17 36  1  0
 17 37  1  0
M  END
$$$$
