
     RDKit          3D

 52 55  0  0  0  0  0  0  0  0999 V2000
   -0.0575    3.9566   -2.8864 C   0  0  0  0  0  0  0  0  0  0  0  0
    1.0330    2.9795   -2.5216 C   0  0  0  0  0  0  0  0  0  0  0  0
    2.1434    3.0680   -3.0308 O   0  0  0  0  0  0  0  0  0  0  0  0
    0.5812    2.0500   -1.6060 N   0  0  0  0  0  0  0  0  0  0  0  0
    1.2923    1.0234   -1.0077 C   0  0  0  0  0  0  0  0  0  0  0  0
    2.9412    0.7950   -1.3132 S   0  0  0  0  0  0  0  0  0  0  0  0
    3.0395   -0.4816   -0.2064 C   0  0  0  0  0  0  0  0  0  0  0  0
    1.8238   -0.7708    0.3835 C   0  0  0  0  0  0  0  0  0  0  0  0
    0.7681    0.1054   -0.0981 C   0  0  0  0  0  0  0  0  0  0  0  0
   -0.6890    0.0186    0.3690 C   0  0  0  0  0  0  0  0  0  0  0  0
   -1.3298   -1.0149   -0.5655 C   0  0  0  0  0  0  0  0  0  0  0  0
   -1.8222   -2.2188   -0.0237 C   0  0  0  0  0  0  0  0  0  0  0  0
   -2.4296   -3.1806   -0.8360 C   0  0  0  0  0  0  0  0  0  0  0  0
   -2.5596   -2.9505   -2.2021 C   0  0  0  0  0  0  0  0  0  0  0  0
   -3.3089   -4.1332   -3.2011 Cl  0  0  0  0  0  0  0  0  0  0  0  0
   -2.0915   -1.7661   -2.7615 C   0  0  0  0  0  0  0  0  0  0  0  0
   -1.4854   -0.8036   -1.9484 C   0  0  0  0  0  0  0  0  0  0  0  0
   -1.3504    1.3539    0.3606 N   0  0  0  0  0  0  0  0  0  0  0  0
   -0.8007    2.2354    1.4347 C   0  0  0  0  0  0  0  0  0  0  0  0
   -1.2342    1.8621    2.8641 C   0  0  0  0  0  0  0  0  0  0  0  0
   -2.6586    1.7934    2.9791 O   0  0  0  0  0  0  0  0  0  0  0  0
   -3.2104    0.8791    2.0267 C   0  0  0  0  0  0  0  0  0  0  0  0
   -2.8169    1.2727    0.5941 C   0  0  0  0  0  0  0  0  0  0  0  0
    1.7015   -1.8600    1.4134 C   0  0  0  0  0  0  0  0  0  0  0  0
    2.9105   -2.8079    1.4063 C   0  0  0  0  0  0  0  0  0  0  0  0
    4.2344   -2.0380    1.3287 C   0  0  0  0  0  0  0  0  0  0  0  0
    4.3259   -1.2068    0.0417 C   0  0  0  0  0  0  0  0  0  0  0  0
   -0.8694    3.4310   -3.3969 H   0  0  0  0  0  0  0  0  0  0  0  0
   -0.4392    4.4459   -1.9857 H   0  0  0  0  0  0  0  0  0  0  0  0
    0.3437    4.7231   -3.5556 H   0  0  0  0  0  0  0  0  0  0  0  0
   -0.3783    2.1281   -1.2716 H   0  0  0  0  0  0  0  0  0  0  0  0
   -0.6960   -0.3892    1.3864 H   0  0  0  0  0  0  0  0  0  0  0  0
   -1.7348   -2.4211    1.0420 H   0  0  0  0  0  0  0  0  0  0  0  0
   -2.7971   -4.1046   -0.3974 H   0  0  0  0  0  0  0  0  0  0  0  0
   -2.1913   -1.5828   -3.8281 H   0  0  0  0  0  0  0  0  0  0  0  0
   -1.1343    0.1137   -2.4124 H   0  0  0  0  0  0  0  0  0  0  0  0
    0.2917    2.2950    1.3887 H   0  0  0  0  0  0  0  0  0  0  0  0
   -1.1600    3.2513    1.2228 H   0  0  0  0  0  0  0  0  0  0  0  0
   -0.8867    2.6302    3.5627 H   0  0  0  0  0  0  0  0  0  0  0  0
   -0.8006    0.9098    3.1878 H   0  0  0  0  0  0  0  0  0  0  0  0
   -2.8922   -0.1392    2.2752 H   0  0  0  0  0  0  0  0  0  0  0  0
   -4.2995    0.9167    2.1310 H   0  0  0  0  0  0  0  0  0  0  0  0
   -3.2265    2.2711    0.3894 H   0  0  0  0  0  0  0  0  0  0  0  0
   -3.3070    0.6105   -0.1265 H   0  0  0  0  0  0  0  0  0  0  0  0
    0.7943   -2.4484    1.2499 H   0  0  0  0  0  0  0  0  0  0  0  0
    1.6147   -1.3908    2.4013 H   0  0  0  0  0  0  0  0  0  0  0  0
    2.8391   -3.4867    0.5466 H   0  0  0  0  0  0  0  0  0  0  0  0
    2.8912   -3.4305    2.3079 H   0  0  0  0  0  0  0  0  0  0  0  0
    4.3173   -1.3773    2.2013 H   0  0  0  0  0  0  0  0  0  0  0  0
    5.0780   -2.7360    1.3740 H   0  0  0  0  0  0  0  0  0  0  0  0
    5.1659   -0.5072    0.1203 H   0  0  0  0  0  0  0  0  0  0  0  0
    4.5270   -1.8726   -0.8067 H   0  0  0  0  0  0  0  0  0  0  0  0
  1  2  1  0
  2  3  2  0
  2  4  1  0
  4  5  1  0
  5  6  1  0
  6  7  1  0
  7  8  2  0
  8  9  1  0
  9 10  1  0
 10 11  1  0
 11 12  2  0
 12 13  1  0
 13 14  2  0
 14 15  1  0
 14 16  1  0
 16 17  2  0
 10 18  1  0
 18 19  1  0
 19 20  1  0
 20 21  1  0
 21 22  1  0
 22 23  1  0
  8 24  1  0
 24 25  1  0
 25 26  1  0
 26 27  1  0
  9  5  2  0
 17 11  1  0
 23 18  1  0
 27  7  1  0
  1 28  1  0
  1 29  1  0
  1 30  1  0
  4 31  1  0
 10 32  1  0
 12 33  1  0
 13 34  1  0
 16 35  1  0
 17 36  1  0
 19 37  1  0
 19 38  1  0
 20 39  1  0
 20 40  1  0
 22 41  1  0
 22 42  1  0
 23 43  1  0
 23 44  1  0
 24 45  1  0
 24 46  1  0
 25 47  1  0
 25 48  1  0
 26 49  1  0
 26 50  1  0
 27 51  1  0
 27 52  1  0
M  END
$$$$
