
     RDKit          3D

 80 86  0  0  0  0  0  0  0  0999 V2000
   -5.0878   -2.0766    1.3751 C   0  0  0  0  0  0  0  0  0  0  0  0
   -3.8998   -1.1852    1.5865 C   0  0  0  0  0  0  0  0  0  0  0  0
   -3.8476   -0.3441    2.7261 C   0  0  0  0  0  0  0  0  0  0  0  0
   -5.1570   -0.2428    3.8598 Cl  0  0  0  0  0  0  0  0  0  0  0  0
   -2.7403    0.4738    2.9987 C   0  0  0  0  0  0  0  0  0  0  0  0
   -1.6461    0.4794    2.1468 C   0  0  0  0  0  0  0  0  0  0  0  0
   -1.6876   -0.3231    1.0115 C   0  0  0  0  0  0  0  0  0  0  0  0
   -2.8149   -1.1168    0.7009 C   0  0  0  0  0  0  0  0  0  0  0  0
   -2.6025   -1.7109   -0.5706 N   0  0  0  0  0  0  0  0  0  0  0  0
   -3.5579   -2.4038   -1.4100 C   0  0  0  0  0  0  0  0  0  0  0  0
   -4.5950   -1.4977   -2.0398 C   0  0  0  0  0  0  0  0  0  0  0  0
   -5.9461   -1.8760   -2.0550 C   0  0  0  0  0  0  0  0  0  0  0  0
   -6.9111   -1.0547   -2.6412 C   0  0  0  0  0  0  0  0  0  0  0  0
   -6.5355    0.1447   -3.2399 C   0  0  0  0  0  0  0  0  0  0  0  0
   -5.1944    0.5172   -3.2657 C   0  0  0  0  0  0  0  0  0  0  0  0
   -4.2294   -0.3041   -2.6808 C   0  0  0  0  0  0  0  0  0  0  0  0
   -1.3445   -1.3622   -1.1054 C   0  0  0  0  0  0  0  0  0  0  0  0
   -0.9071   -1.7031   -2.1977 O   0  0  0  0  0  0  0  0  0  0  0  0
   -0.6515   -0.4494   -0.0728 C   0  0  1  0  0  0  0  0  0  0  0  0
   -0.3838    0.9043   -0.6120 C   0  0  0  0  0  0  0  0  0  0  0  0
    0.9862    1.1340   -0.7115 C   0  0  0  0  0  0  0  0  0  0  0  0
    1.1893    2.3740   -1.2565 C   0  0  0  0  0  0  0  0  0  0  0  0
    2.3280    2.9627   -1.6130 O   0  0  0  0  0  0  0  0  0  0  0  0
   -0.0803    2.9615   -1.4683 N   0  0  0  0  0  0  0  0  0  0  0  0
   -0.3364    4.2707   -2.0104 C   0  0  0  0  0  0  0  0  0  0  0  0
    0.6360    5.2800   -1.9456 C   0  0  0  0  0  0  0  0  0  0  0  0
    0.3849    6.5521   -2.4720 C   0  0  0  0  0  0  0  0  0  0  0  0
   -0.8391    6.8339   -3.0700 C   0  0  0  0  0  0  0  0  0  0  0  0
   -1.8129    5.8435   -3.1443 C   0  0  0  0  0  0  0  0  0  0  0  0
   -1.5647    4.5706   -2.6184 C   0  0  0  0  0  0  0  0  0  0  0  0
   -1.0507    2.0209   -1.0517 C   0  0  0  0  0  0  0  0  0  0  0  0
   -2.3574    2.2790   -1.0682 O   0  0  0  0  0  0  0  0  0  0  0  0
    1.7721   -0.0330   -0.2524 C   0  0  1  0  0  0  0  0  0  0  0  0
    2.8440    0.3092    0.8020 C   0  0  0  0  0  0  0  0  0  0  0  0
    3.3757   -0.8972    1.4359 N   0  0  0  0  0  0  0  0  0  0  0  0
    4.7357   -1.0603    1.5942 C   0  0  0  0  0  0  0  0  0  0  0  0
    5.5603   -0.2185    1.2669 O   0  0  0  0  0  0  0  0  0  0  0  0
    5.0350   -2.2646    2.1444 O   0  0  0  0  0  0  0  0  0  0  0  0
    6.4104   -2.6820    2.3369 C   0  0  0  0  0  0  0  0  0  0  0  0
    6.3065   -4.0741    2.9782 C   0  0  0  0  0  0  0  0  0  0  0  0
    7.1381   -2.8139    0.9940 C   0  0  0  0  0  0  0  0  0  0  0  0
    7.1523   -1.7540    3.3053 C   0  0  0  0  0  0  0  0  0  0  0  0
    2.4148   -1.9544    1.7597 C   0  0  0  0  0  0  0  0  0  0  0  0
    0.9521   -1.5024    1.5822 C   0  0  0  0  0  0  0  0  0  0  0  0
    0.7087   -0.9842    0.2374 N   0  0  0  0  0  0  0  0  0  0  0  0
   -4.7846   -3.0523    0.9921 H   0  0  0  0  0  0  0  0  0  0  0  0
   -5.6052   -2.3151    2.3089 H   0  0  0  0  0  0  0  0  0  0  0  0
   -5.8094   -1.6016    0.7079 H   0  0  0  0  0  0  0  0  0  0  0  0
   -2.7346    1.1118    3.8805 H   0  0  0  0  0  0  0  0  0  0  0  0
   -0.7928    1.1199    2.3546 H   0  0  0  0  0  0  0  0  0  0  0  0
   -4.0105   -3.2195   -0.8448 H   0  0  0  0  0  0  0  0  0  0  0  0
   -3.0248   -2.8935   -2.2343 H   0  0  0  0  0  0  0  0  0  0  0  0
   -6.2619   -2.8150   -1.6047 H   0  0  0  0  0  0  0  0  0  0  0  0
   -7.9558   -1.3555   -2.6376 H   0  0  0  0  0  0  0  0  0  0  0  0
   -7.2847    0.7822   -3.7017 H   0  0  0  0  0  0  0  0  0  0  0  0
   -4.8935    1.4412   -3.7558 H   0  0  0  0  0  0  0  0  0  0  0  0
   -3.1849   -0.0060   -2.7520 H   0  0  0  0  0  0  0  0  0  0  0  0
    3.0512    2.3156   -1.5427 H   0  0  0  0  0  0  0  0  0  0  0  0
    1.5942    5.1215   -1.4612 H   0  0  0  0  0  0  0  0  0  0  0  0
    1.1496    7.3224   -2.4074 H   0  0  0  0  0  0  0  0  0  0  0  0
   -1.0326    7.8215   -3.4777 H   0  0  0  0  0  0  0  0  0  0  0  0
   -2.7682    6.0553   -3.6177 H   0  0  0  0  0  0  0  0  0  0  0  0
   -2.3444    3.8240   -2.7351 H   0  0  0  0  0  0  0  0  0  0  0  0
   -2.8312    1.5476   -0.6340 H   0  0  0  0  0  0  0  0  0  0  0  0
    2.2568   -0.5110   -1.1131 H   0  0  0  0  0  0  0  0  0  0  0  0
    3.6485    0.8951    0.3434 H   0  0  0  0  0  0  0  0  0  0  0  0
    2.4215    0.9304    1.6037 H   0  0  0  0  0  0  0  0  0  0  0  0
    7.2921   -4.5251    3.1344 H   0  0  0  0  0  0  0  0  0  0  0  0
    5.7929   -4.0168    3.9470 H   0  0  0  0  0  0  0  0  0  0  0  0
    5.7069   -4.7510    2.3566 H   0  0  0  0  0  0  0  0  0  0  0  0
    7.2932   -1.8422    0.5144 H   0  0  0  0  0  0  0  0  0  0  0  0
    8.1218   -3.2785    1.1199 H   0  0  0  0  0  0  0  0  0  0  0  0
    6.5556   -3.4228    0.2926 H   0  0  0  0  0  0  0  0  0  0  0  0
    8.1300   -2.1656    3.5824 H   0  0  0  0  0  0  0  0  0  0  0  0
    6.5666   -1.5940    4.2179 H   0  0  0  0  0  0  0  0  0  0  0  0
    7.3275   -0.7655    2.8688 H   0  0  0  0  0  0  0  0  0  0  0  0
    2.6288   -2.8103    1.1070 H   0  0  0  0  0  0  0  0  0  0  0  0
    2.5851   -2.2731    2.7944 H   0  0  0  0  0  0  0  0  0  0  0  0
    0.7527   -0.7396    2.3434 H   0  0  0  0  0  0  0  0  0  0  0  0
    0.2951   -2.3572    1.7808 H   0  0  0  0  0  0  0  0  0  0  0  0
  1  2  1  0
  2  3  2  0
  3  4  1  0
  3  5  1  0
  5  6  2  0
  6  7  1  0
  7  8  2  0
  8  9  1  0
  9 10  1  0
 10 11  1  0
 11 12  2  0
 12 13  1  0
 13 14  2  0
 14 15  1  0
 15 16  2  0
  9 17  1  0
 17 18  2  0
 17 19  1  0
 19 20  1  0
 20 21  1  0
 21 22  2  0
 22 23  1  0
 22 24  1  0
 24 25  1  0
 25 26  2  0
 26 27  1  0
 27 28  2  0
 28 29  1  0
 29 30  2  0
 24 31  1  0
 31 32  1  0
 21 33  1  0
 33 34  1  0
 34 35  1  0
 35 36  1  0
 36 37  2  0
 36 38  1  0
 38 39  1  0
 39 40  1  0
 39 41  1  0
 39 42  1  0
 35 43  1  0
 43 44  1  0
 44 45  1  0
  8  2  1  0
 16 11  1  0
 19 45  1  1
 19  7  1  0
 31 20  2  0
 45 33  1  0
 30 25  1  0
  1 46  1  0
  1 47  1  0
  1 48  1  0
  5 49  1  0
  6 50  1  0
 10 51  1  0
 10 52  1  0
 12 53  1  0
 13 54  1  0
 14 55  1  0
 15 56  1  0
 16 57  1  0
 23 58  1  0
 26 59  1  0
 27 60  1  0
 28 61  1  0
 29 62  1  0
 30 63  1  0
 32 64  1  0
 33 65  1  6
 34 66  1  0
 34 67  1  0
 40 68  1  0
 40 69  1  0
 40 70  1  0
 41 71  1  0
 41 72  1  0
 41 73  1  0
 42 74  1  0
 42 75  1  0
 42 76  1  0
 43 77  1  0
 43 78  1  0
 44 79  1  0
 44 80  1  0
M  END
$$$$
