
     RDKit          3D

 41 42  0  0  0  0  0  0  0  0999 V2000
   -6.2485    2.4538   -2.4046 C   0  0  0  0  0  0  0  0  0  0  0  0
   -6.2223    1.5841   -0.8142 S   0  0  0  0  0  0  0  0  0  0  0  0
   -4.4671    1.3187   -0.6421 C   0  0  0  0  0  0  0  0  0  0  0  0
   -3.5633    2.3838   -0.6268 C   0  0  0  0  0  0  0  0  0  0  0  0
   -2.1939    2.1456   -0.4804 C   0  0  0  0  0  0  0  0  0  0  0  0
   -1.7064    0.8382   -0.3418 C   0  0  0  0  0  0  0  0  0  0  0  0
   -0.2242    0.5823   -0.1633 C   0  0  0  0  0  0  0  0  0  0  0  0
    0.5954    1.1314   -1.2539 N   0  0  0  0  0  0  0  0  0  0  0  0
    0.4052    0.3840   -2.5009 C   0  0  0  0  0  0  0  0  0  0  0  0
    2.0265    1.2255   -0.8948 C   0  0  0  0  0  0  0  0  0  0  0  0
    2.6661   -0.1204   -0.5152 C   0  0  0  0  0  0  0  0  0  0  0  0
    3.0051   -0.9287   -1.3747 O   0  0  0  0  0  0  0  0  0  0  0  0
    2.7791   -0.2905    0.8579 N   0  0  0  0  0  0  0  0  0  0  0  0
    3.2879   -1.4109    1.5480 C   0  0  0  0  0  0  0  0  0  0  0  0
    3.2874   -1.3470    2.9492 C   0  0  0  0  0  0  0  0  0  0  0  0
    3.7689   -2.4120    3.7149 C   0  0  0  0  0  0  0  0  0  0  0  0
    4.2567   -3.5542    3.0863 C   0  0  0  0  0  0  0  0  0  0  0  0
    4.2599   -3.6216    1.6952 C   0  0  0  0  0  0  0  0  0  0  0  0
    4.9227   -5.1749    0.8416 Br  0  0  0  0  0  0  0  0  0  0  0  0
    3.7795   -2.5592    0.9245 C   0  0  0  0  0  0  0  0  0  0  0  0
   -2.6188   -0.2250   -0.3409 C   0  0  0  0  0  0  0  0  0  0  0  0
   -3.9885    0.0152   -0.4866 C   0  0  0  0  0  0  0  0  0  0  0  0
   -5.7386    1.8655   -3.1726 H   0  0  0  0  0  0  0  0  0  0  0  0
   -5.7740    3.4349   -2.3216 H   0  0  0  0  0  0  0  0  0  0  0  0
   -7.2872    2.6001   -2.7129 H   0  0  0  0  0  0  0  0  0  0  0  0
   -3.9116    3.4089   -0.7187 H   0  0  0  0  0  0  0  0  0  0  0  0
   -1.5021    2.9856   -0.4792 H   0  0  0  0  0  0  0  0  0  0  0  0
    0.0528    1.0587    0.7869 H   0  0  0  0  0  0  0  0  0  0  0  0
   -0.0399   -0.4923   -0.0360 H   0  0  0  0  0  0  0  0  0  0  0  0
   -0.6221    0.4908   -2.8658 H   0  0  0  0  0  0  0  0  0  0  0  0
    0.6127   -0.6854   -2.3895 H   0  0  0  0  0  0  0  0  0  0  0  0
    1.0499    0.7816   -3.2929 H   0  0  0  0  0  0  0  0  0  0  0  0
    2.6033    1.6492   -1.7264 H   0  0  0  0  0  0  0  0  0  0  0  0
    2.1445    1.9418   -0.0724 H   0  0  0  0  0  0  0  0  0  0  0  0
    2.4509    0.4713    1.4382 H   0  0  0  0  0  0  0  0  0  0  0  0
    2.9118   -0.4680    3.4676 H   0  0  0  0  0  0  0  0  0  0  0  0
    3.7626   -2.3499    4.8004 H   0  0  0  0  0  0  0  0  0  0  0  0
    4.6297   -4.3817    3.6837 H   0  0  0  0  0  0  0  0  0  0  0  0
    3.7997   -2.6530   -0.1560 H   0  0  0  0  0  0  0  0  0  0  0  0
   -2.2724   -1.2500   -0.2281 H   0  0  0  0  0  0  0  0  0  0  0  0
   -4.6777   -0.8262   -0.4814 H   0  0  0  0  0  0  0  0  0  0  0  0
  1  2  1  0
  2  3  1  0
  3  4  2  0
  4  5  1  0
  5  6  2  0
  6  7  1  0
  7  8  1  0
  8  9  1  0
  8 10  1  0
 10 11  1  0
 11 12  2  0
 11 13  1  0
 13 14  1  0
 14 15  2  0
 15 16  1  0
 16 17  2  0
 17 18  1  0
 18 19  1  0
 18 20  2  0
  6 21  1  0
 21 22  2  0
 22  3  1  0
 20 14  1  0
  1 23  1  0
  1 24  1  0
  1 25  1  0
  4 26  1  0
  5 27  1  0
  7 28  1  0
  7 29  1  0
  9 30  1  0
  9 31  1  0
  9 32  1  0
 10 33  1  0
 10 34  1  0
 13 35  1  0
 15 36  1  0
 16 37  1  0
 17 38  1  0
 20 39  1  0
 21 40  1  0
 22 41  1  0
M  END
$$$$
