
     RDKit          3D

 47 49  0  0  0  0  0  0  0  0999 V2000
    5.3082   -1.7938    3.3062 C   0  0  0  0  0  0  0  0  0  0  0  0
    4.8099   -1.0575    2.0924 C   0  0  0  0  0  0  0  0  0  0  0  0
    3.9237    0.0170    2.2665 C   0  0  0  0  0  0  0  0  0  0  0  0
    3.4173    0.7279    1.1761 C   0  0  0  0  0  0  0  0  0  0  0  0
    2.5367    1.7185    1.5077 O   0  0  0  0  0  0  0  0  0  0  0  0
    2.1781    2.6874    0.5198 C   0  0  0  0  0  0  0  0  0  0  0  0
    0.8954    2.2942   -0.1076 C   0  0  0  0  0  0  0  0  0  0  0  0
    0.2735    1.1057   -0.4007 C   0  0  0  0  0  0  0  0  0  0  0  0
   -0.9521    1.4693   -1.0276 C   0  0  0  0  0  0  0  0  0  0  0  0
   -1.9543    0.5242   -1.5505 C   0  0  0  0  0  0  0  0  0  0  0  0
   -1.6142   -0.6430   -1.7672 O   0  0  0  0  0  0  0  0  0  0  0  0
   -3.2743    0.9340   -1.7822 N   0  0  0  0  0  0  0  0  0  0  0  0
   -3.8223    2.2079   -1.3365 C   0  0  0  0  0  0  0  0  0  0  0  0
   -4.2450   -0.0943   -2.1606 C   0  0  0  0  0  0  0  0  0  0  0  0
   -4.9071   -0.7467   -0.9618 C   0  0  0  0  0  0  0  0  0  0  0  0
   -4.3324   -1.8644   -0.3592 C   0  0  0  0  0  0  0  0  0  0  0  0
   -4.9462   -2.4200    0.7598 C   0  0  0  0  0  0  0  0  0  0  0  0
   -6.1113   -1.8484    1.2505 C   0  0  0  0  0  0  0  0  0  0  0  0
   -6.6184   -0.7377    0.5968 C   0  0  0  0  0  0  0  0  0  0  0  0
   -6.0452   -0.1738   -0.4896 N   0  0  0  0  0  0  0  0  0  0  0  0
   -1.0377    2.8072   -1.1180 N   0  0  0  0  0  0  0  0  0  0  0  0
    0.1099    3.3129   -0.5432 O   0  0  0  0  0  0  0  0  0  0  0  0
    3.7936    0.3558   -0.1134 C   0  0  0  0  0  0  0  0  0  0  0  0
    4.6809   -0.7174   -0.3251 C   0  0  0  0  0  0  0  0  0  0  0  0
    5.0165   -1.1068   -1.7410 C   0  0  0  0  0  0  0  0  0  0  0  0
    5.1748   -1.4295    0.7855 C   0  0  0  0  0  0  0  0  0  0  0  0
    6.2252   -2.7898    0.5426 Cl  0  0  0  0  0  0  0  0  0  0  0  0
    4.8848   -2.8044    3.3384 H   0  0  0  0  0  0  0  0  0  0  0  0
    6.4015   -1.8493    3.3054 H   0  0  0  0  0  0  0  0  0  0  0  0
    5.0176   -1.2825    4.2301 H   0  0  0  0  0  0  0  0  0  0  0  0
    3.6122    0.3059    3.2683 H   0  0  0  0  0  0  0  0  0  0  0  0
    2.9668    2.8615   -0.2197 H   0  0  0  0  0  0  0  0  0  0  0  0
    2.0439    3.6369    1.0526 H   0  0  0  0  0  0  0  0  0  0  0  0
    0.6295    0.1061   -0.1920 H   0  0  0  0  0  0  0  0  0  0  0  0
   -4.9011    2.2519   -1.5105 H   0  0  0  0  0  0  0  0  0  0  0  0
   -3.3660    3.0198   -1.9127 H   0  0  0  0  0  0  0  0  0  0  0  0
   -3.6245    2.3439   -0.2674 H   0  0  0  0  0  0  0  0  0  0  0  0
   -3.7635   -0.8644   -2.7799 H   0  0  0  0  0  0  0  0  0  0  0  0
   -5.0094    0.3722   -2.7986 H   0  0  0  0  0  0  0  0  0  0  0  0
   -3.4162   -2.2951   -0.7506 H   0  0  0  0  0  0  0  0  0  0  0  0
   -4.5138   -3.2902    1.2466 H   0  0  0  0  0  0  0  0  0  0  0  0
   -6.6115   -2.2579    2.1207 H   0  0  0  0  0  0  0  0  0  0  0  0
   -7.5269   -0.2547    0.9433 H   0  0  0  0  0  0  0  0  0  0  0  0
    3.3908    0.8647   -0.9843 H   0  0  0  0  0  0  0  0  0  0  0  0
    4.4451   -1.9938   -2.0285 H   0  0  0  0  0  0  0  0  0  0  0  0
    6.0838   -1.3062   -1.8574 H   0  0  0  0  0  0  0  0  0  0  0  0
    4.7738   -0.3030   -2.4445 H   0  0  0  0  0  0  0  0  0  0  0  0
  1  2  1  0
  2  3  2  0
  3  4  1  0
  4  5  1  0
  5  6  1  0
  6  7  1  0
  7  8  2  0
  8  9  1  0
  9 10  1  0
 10 11  2  0
 10 12  1  0
 12 13  1  0
 12 14  1  0
 14 15  1  0
 15 16  2  0
 16 17  1  0
 17 18  2  0
 18 19  1  0
 19 20  2  0
  9 21  2  0
 21 22  1  0
  4 23  2  0
 23 24  1  0
 24 25  1  0
 24 26  2  0
 26 27  1  0
 26  2  1  0
 22  7  1  0
 20 15  1  0
  1 28  1  0
  1 29  1  0
  1 30  1  0
  3 31  1  0
  6 32  1  0
  6 33  1  0
  8 34  1  0
 13 35  1  0
 13 36  1  0
 13 37  1  0
 14 38  1  0
 14 39  1  0
 16 40  1  0
 17 41  1  0
 18 42  1  0
 19 43  1  0
 23 44  1  0
 25 45  1  0
 25 46  1  0
 25 47  1  0
M  END
$$$$
