
     RDKit          3D

 50 53  0  0  0  0  0  0  0  0999 V2000
    1.4611   -4.2748   -0.8668 C   0  0  0  0  0  0  0  0  0  0  0  0
    2.2621   -3.0466   -0.6977 C   0  0  0  0  0  0  0  0  0  0  0  0
    3.5392   -2.6867   -1.0682 C   0  0  0  0  0  0  0  0  0  0  0  0
    3.7270   -1.3588   -0.6147 C   0  0  0  0  0  0  0  0  0  0  0  0
    2.5501   -0.9869    0.0016 C   0  0  0  0  0  0  0  0  0  0  0  0
    2.1035    0.2606    0.6764 C   0  0  0  0  0  0  0  0  0  0  0  0
    1.0616    0.9134   -0.1183 N   0  0  0  0  0  0  0  0  0  0  0  0
    1.4947    1.7171   -1.2624 C   0  0  0  0  0  0  0  0  0  0  0  0
    2.0730    3.0413   -0.8434 C   0  0  0  0  0  0  0  0  0  0  0  0
    1.2967    4.0065   -0.1948 C   0  0  0  0  0  0  0  0  0  0  0  0
    1.8712    5.2162    0.1822 C   0  0  0  0  0  0  0  0  0  0  0  0
    3.2098    5.4235   -0.1045 C   0  0  0  0  0  0  0  0  0  0  0  0
    3.9922    4.5193   -0.7328 N   0  0  0  0  0  0  0  0  0  0  0  0
    3.4050    3.3558   -1.0925 C   0  0  0  0  0  0  0  0  0  0  0  0
   -0.3053    0.7929    0.1264 C   0  0  0  0  0  0  0  0  0  0  0  0
   -1.1330    1.3834   -0.5735 O   0  0  0  0  0  0  0  0  0  0  0  0
   -0.7425   -0.0781    1.3189 C   0  0  0  0  0  0  0  0  0  0  0  0
   -2.1921   -0.2456    1.3903 N   0  0  0  0  0  0  0  0  0  0  0  0
   -2.9047    0.6172    2.2073 C   0  0  0  0  0  0  0  0  0  0  0  0
   -2.3786    1.4933    2.8969 O   0  0  0  0  0  0  0  0  0  0  0  0
   -4.4021    0.3481    2.2896 C   0  0  0  0  0  0  0  0  0  0  0  0
   -5.0709   -0.3124    1.2383 O   0  0  0  0  0  0  0  0  0  0  0  0
   -4.2817   -1.1590    0.5124 C   0  0  0  0  0  0  0  0  0  0  0  0
   -4.9808   -2.0266   -0.3335 C   0  0  0  0  0  0  0  0  0  0  0  0
   -4.2934   -2.9152   -1.1547 C   0  0  0  0  0  0  0  0  0  0  0  0
   -2.9034   -2.9272   -1.1391 C   0  0  0  0  0  0  0  0  0  0  0  0
   -2.2017   -2.0531   -0.3015 C   0  0  0  0  0  0  0  0  0  0  0  0
   -2.8799   -1.1585    0.5419 C   0  0  0  0  0  0  0  0  0  0  0  0
    1.6567   -2.0172   -0.0440 O   0  0  0  0  0  0  0  0  0  0  0  0
    2.0658   -5.0831   -1.2892 H   0  0  0  0  0  0  0  0  0  0  0  0
    1.0665   -4.6123    0.0966 H   0  0  0  0  0  0  0  0  0  0  0  0
    0.6184   -4.0903   -1.5400 H   0  0  0  0  0  0  0  0  0  0  0  0
    4.2479   -3.3073   -1.5993 H   0  0  0  0  0  0  0  0  0  0  0  0
    4.6122   -0.7473   -0.7246 H   0  0  0  0  0  0  0  0  0  0  0  0
    2.9426    0.9527    0.8034 H   0  0  0  0  0  0  0  0  0  0  0  0
    1.7414    0.0238    1.6798 H   0  0  0  0  0  0  0  0  0  0  0  0
    0.6634    1.9056   -1.9514 H   0  0  0  0  0  0  0  0  0  0  0  0
    2.2268    1.1338   -1.8331 H   0  0  0  0  0  0  0  0  0  0  0  0
    0.2448    3.8193    0.0140 H   0  0  0  0  0  0  0  0  0  0  0  0
    1.2866    5.9780    0.6857 H   0  0  0  0  0  0  0  0  0  0  0  0
    3.7027    6.3517    0.1700 H   0  0  0  0  0  0  0  0  0  0  0  0
    4.0658    2.6596   -1.6020 H   0  0  0  0  0  0  0  0  0  0  0  0
   -0.3930    0.4227    2.2290 H   0  0  0  0  0  0  0  0  0  0  0  0
   -0.2697   -1.0612    1.2976 H   0  0  0  0  0  0  0  0  0  0  0  0
   -4.8927    1.3208    2.4098 H   0  0  0  0  0  0  0  0  0  0  0  0
   -4.5777   -0.2193    3.2118 H   0  0  0  0  0  0  0  0  0  0  0  0
   -6.0674   -2.0014   -0.3529 H   0  0  0  0  0  0  0  0  0  0  0  0
   -4.8409   -3.5858   -1.8114 H   0  0  0  0  0  0  0  0  0  0  0  0
   -2.3590   -3.6088   -1.7879 H   0  0  0  0  0  0  0  0  0  0  0  0
   -1.1184   -2.0935   -0.3458 H   0  0  0  0  0  0  0  0  0  0  0  0
  1  2  1  0
  2  3  2  0
  3  4  1  0
  4  5  2  0
  5  6  1  0
  6  7  1  0
  7  8  1  0
  8  9  1  0
  9 10  2  0
 10 11  1  0
 11 12  2  0
 12 13  1  0
 13 14  2  0
  7 15  1  0
 15 16  2  0
 15 17  1  0
 17 18  1  0
 18 19  1  0
 19 20  2  0
 19 21  1  0
 21 22  1  0
 22 23  1  0
 23 24  2  0
 24 25  1  0
 25 26  2  0
 26 27  1  0
 27 28  2  0
  5 29  1  0
 29  2  1  0
 14  9  1  0
 28 18  1  0
 28 23  1  0
  1 30  1  0
  1 31  1  0
  1 32  1  0
  3 33  1  0
  4 34  1  0
  6 35  1  0
  6 36  1  0
  8 37  1  0
  8 38  1  0
 10 39  1  0
 11 40  1  0
 12 41  1  0
 14 42  1  0
 17 43  1  0
 17 44  1  0
 21 45  1  0
 21 46  1  0
 24 47  1  0
 25 48  1  0
 26 49  1  0
 27 50  1  0
M  END
$$$$
