
     RDKit          3D

 47 49  0  0  0  0  0  0  0  0999 V2000
    7.7252   -0.6117   -2.3541 C   0  0  0  0  0  0  0  0  0  0  0  0
    6.4295   -0.7885   -1.7947 O   0  0  0  0  0  0  0  0  0  0  0  0
    5.5447    0.2439   -1.9483 C   0  0  0  0  0  0  0  0  0  0  0  0
    5.7828    1.4321   -2.6347 C   0  0  0  0  0  0  0  0  0  0  0  0
    4.7771    2.3959   -2.7235 C   0  0  0  0  0  0  0  0  0  0  0  0
    3.5351    2.1827   -2.1190 C   0  0  0  0  0  0  0  0  0  0  0  0
    3.2914    1.0112   -1.4044 C   0  0  0  0  0  0  0  0  0  0  0  0
    2.0571    0.6987   -0.7942 N   0  0  0  0  0  0  0  0  0  0  0  0
    1.0231    1.5088   -0.3409 C   0  0  0  0  0  0  0  0  0  0  0  0
    1.1782    3.1324    0.0710 S   0  0  0  0  0  0  0  0  0  0  0  0
   -0.1750    0.7730   -0.1767 N   0  0  0  0  0  0  0  0  0  0  0  0
   -0.5383   -0.2985   -1.1149 C   0  0  0  0  0  0  0  0  0  0  0  0
   -1.1917   -1.4662   -0.3817 C   0  0  0  0  0  0  0  0  0  0  0  0
   -2.3264   -1.0028    0.4951 C   0  0  0  0  0  0  0  0  0  0  0  0
   -3.3144   -1.9132    0.9010 C   0  0  0  0  0  0  0  0  0  0  0  0
   -4.3629   -1.5079    1.7342 C   0  0  0  0  0  0  0  0  0  0  0  0
   -5.3714   -2.3319    2.1699 O   0  0  0  0  0  0  0  0  0  0  0  0
   -5.3410   -3.6897    1.7564 C   0  0  0  0  0  0  0  0  0  0  0  0
   -4.4210   -0.1726    2.1770 C   0  0  0  0  0  0  0  0  0  0  0  0
   -5.4823    0.1483    2.9875 O   0  0  0  0  0  0  0  0  0  0  0  0
   -5.5554    1.4755    3.4867 C   0  0  0  0  0  0  0  0  0  0  0  0
   -3.4270    0.7299    1.7811 C   0  0  0  0  0  0  0  0  0  0  0  0
   -2.3697    0.3239    0.9492 C   0  0  0  0  0  0  0  0  0  0  0  0
   -1.3239    1.3425    0.5443 C   0  0  0  0  0  0  0  0  0  0  0  0
    4.2980    0.0380   -1.3462 C   0  0  0  0  0  0  0  0  0  0  0  0
    7.6737   -0.5106   -3.4432 H   0  0  0  0  0  0  0  0  0  0  0  0
    8.3108   -1.5087   -2.1308 H   0  0  0  0  0  0  0  0  0  0  0  0
    8.2386    0.2427   -1.9006 H   0  0  0  0  0  0  0  0  0  0  0  0
    6.7315    1.6372   -3.1188 H   0  0  0  0  0  0  0  0  0  0  0  0
    4.9552    3.3169   -3.2737 H   0  0  0  0  0  0  0  0  0  0  0  0
    2.7686    2.9383   -2.2534 H   0  0  0  0  0  0  0  0  0  0  0  0
    1.9869   -0.2462   -0.4385 H   0  0  0  0  0  0  0  0  0  0  0  0
   -1.2331    0.1392   -1.8441 H   0  0  0  0  0  0  0  0  0  0  0  0
    0.3188   -0.6584   -1.6903 H   0  0  0  0  0  0  0  0  0  0  0  0
   -1.5543   -2.1917   -1.1189 H   0  0  0  0  0  0  0  0  0  0  0  0
   -0.4503   -1.9667    0.2532 H   0  0  0  0  0  0  0  0  0  0  0  0
   -3.2428   -2.9376    0.5502 H   0  0  0  0  0  0  0  0  0  0  0  0
   -5.4261   -3.7734    0.6679 H   0  0  0  0  0  0  0  0  0  0  0  0
   -4.4419   -4.1952    2.1241 H   0  0  0  0  0  0  0  0  0  0  0  0
   -6.2075   -4.1929    2.1962 H   0  0  0  0  0  0  0  0  0  0  0  0
   -4.6854    1.7136    4.1073 H   0  0  0  0  0  0  0  0  0  0  0  0
   -5.6716    2.1978    2.6720 H   0  0  0  0  0  0  0  0  0  0  0  0
   -6.4444    1.5457    4.1211 H   0  0  0  0  0  0  0  0  0  0  0  0
   -3.4490    1.7644    2.1102 H   0  0  0  0  0  0  0  0  0  0  0  0
   -0.9601    1.8411    1.4495 H   0  0  0  0  0  0  0  0  0  0  0  0
   -1.7919    2.0862   -0.1124 H   0  0  0  0  0  0  0  0  0  0  0  0
    4.1324   -0.8953   -0.8141 H   0  0  0  0  0  0  0  0  0  0  0  0
  1  2  1  0
  2  3  1  0
  3  4  2  0
  4  5  1  0
  5  6  2  0
  6  7  1  0
  7  8  1  0
  8  9  1  0
  9 10  2  0
  9 11  1  0
 11 12  1  0
 12 13  1  0
 13 14  1  0
 14 15  2  0
 15 16  1  0
 16 17  1  0
 17 18  1  0
 16 19  2  0
 19 20  1  0
 20 21  1  0
 19 22  1  0
 22 23  2  0
 23 24  1  0
  7 25  2  0
 25  3  1  0
 24 11  1  0
 23 14  1  0
  1 26  1  0
  1 27  1  0
  1 28  1  0
  4 29  1  0
  5 30  1  0
  6 31  1  0
  8 32  1  0
 12 33  1  0
 12 34  1  0
 13 35  1  0
 13 36  1  0
 15 37  1  0
 18 38  1  0
 18 39  1  0
 18 40  1  0
 21 41  1  0
 21 42  1  0
 21 43  1  0
 22 44  1  0
 24 45  1  0
 24 46  1  0
 25 47  1  0
M  END
$$$$
