
     RDKit          3D

 57 60  0  0  0  0  0  0  0  0999 V2000
   -5.2483    0.1478   -4.9256 C   0  0  0  0  0  0  0  0  0  0  0  0
   -4.3045   -0.0920   -3.7797 C   0  0  0  0  0  0  0  0  0  0  0  0
   -4.7702   -0.0444   -2.4575 C   0  0  0  0  0  0  0  0  0  0  0  0
   -3.9065   -0.3016   -1.3883 C   0  0  0  0  0  0  0  0  0  0  0  0
   -2.5672   -0.6182   -1.6332 C   0  0  0  0  0  0  0  0  0  0  0  0
   -1.6888   -0.8935   -0.5437 N   0  0  0  0  0  0  0  0  0  0  0  0
   -0.8616   -2.0137   -0.4381 C   0  0  0  0  0  0  0  0  0  0  0  0
   -0.8415   -3.1620   -1.4020 C   0  0  0  0  0  0  0  0  0  0  0  0
   -0.1806   -1.9231    0.7591 C   0  0  0  0  0  0  0  0  0  0  0  0
   -0.5453   -0.7055    1.3839 C   0  0  0  0  0  0  0  0  0  0  0  0
    0.0125   -0.1884    2.6171 C   0  0  0  0  0  0  0  0  0  0  0  0
   -0.5360   -0.8099    3.5705 O   0  0  0  0  0  1  0  0  0  0  0  0
    0.9888    0.7740    2.6013 C   0  0  0  0  0  0  0  0  0  0  0  0
    1.5182    1.2110    1.2164 C   0  0  0  0  0  0  0  0  0  0  0  0
    1.2348    2.7626    0.6209 S   0  0  0  0  0  0  0  0  0  0  0  0
    2.2760    0.1812    0.6387 N   0  0  0  0  0  0  0  0  0  0  0  0
    2.8775    0.0006   -0.6311 C   0  0  0  0  0  0  0  0  0  0  0  0
    3.0608    0.9867   -1.6058 C   0  0  0  0  0  0  0  0  0  0  0  0
    3.6209    0.6632   -2.8480 C   0  0  0  0  0  0  0  0  0  0  0  0
    4.0130   -0.6536   -3.1218 C   0  0  0  0  0  0  0  0  0  0  0  0
    4.5256   -0.9431   -4.3214 F   0  0  0  0  0  0  0  0  0  0  0  0
    3.8545   -1.6393   -2.1562 C   0  0  0  0  0  0  0  0  0  0  0  0
    4.3093   -3.2740   -2.4785 Cl  0  0  0  0  0  0  0  0  0  0  0  0
    3.2958   -1.3140   -0.9195 C   0  0  0  0  0  0  0  0  0  0  0  0
    1.6536    1.3194    3.9037 N   0  0  0  0  0  4  0  0  0  0  0  0
    1.2021    0.9846    5.1489 C   0  0  0  0  0  0  0  0  0  0  0  0
    1.8395    1.4437    6.2998 C   0  0  0  0  0  0  0  0  0  0  0  0
    2.9366    2.2846    6.1926 C   0  0  0  0  0  0  0  0  0  0  0  0
    3.3780    2.6467    4.9284 C   0  0  0  0  0  0  0  0  0  0  0  0
    2.7338    2.1404    3.8027 C   0  0  0  0  0  0  0  0  0  0  0  0
   -1.5175   -0.1035    0.5952 C   0  0  0  0  0  0  0  0  0  0  0  0
   -2.2463    1.1759    0.8331 C   0  0  0  0  0  0  0  0  0  0  0  0
   -2.0964   -0.6920   -2.9520 C   0  0  0  0  0  0  0  0  0  0  0  0
   -2.9643   -0.4288   -4.0183 C   0  0  0  0  0  0  0  0  0  0  0  0
   -4.7077    0.4975   -5.8161 H   0  0  0  0  0  0  0  0  0  0  0  0
   -5.7805   -0.7778   -5.1850 H   0  0  0  0  0  0  0  0  0  0  0  0
   -5.9905    0.9137   -4.6662 H   0  0  0  0  0  0  0  0  0  0  0  0
   -5.8122    0.1834   -2.2474 H   0  0  0  0  0  0  0  0  0  0  0  0
   -4.3030   -0.3108   -0.3788 H   0  0  0  0  0  0  0  0  0  0  0  0
   -0.4365   -4.0658   -0.9142 H   0  0  0  0  0  0  0  0  0  0  0  0
   -0.2057   -2.9309   -2.2651 H   0  0  0  0  0  0  0  0  0  0  0  0
   -1.8472   -3.4176   -1.7555 H   0  0  0  0  0  0  0  0  0  0  0  0
    0.4982   -2.6686    1.1497 H   0  0  0  0  0  0  0  0  0  0  0  0
    2.1993   -0.6884    1.1634 H   0  0  0  0  0  0  0  0  0  0  0  0
    2.7907    2.0369   -1.4447 H   0  0  0  0  0  0  0  0  0  0  0  0
    3.7435    1.4267   -3.6117 H   0  0  0  0  0  0  0  0  0  0  0  0
    3.1633   -2.1126   -0.1876 H   0  0  0  0  0  0  0  0  0  0  0  0
    0.3270    0.3568    5.2639 H   0  0  0  0  0  0  0  0  0  0  0  0
    1.4658    1.1282    7.2753 H   0  0  0  0  0  0  0  0  0  0  0  0
    3.4395    2.6520    7.0801 H   0  0  0  0  0  0  0  0  0  0  0  0
    4.2357    3.3084    4.8080 H   0  0  0  0  0  0  0  0  0  0  0  0
    3.1126    2.3928    2.8188 H   0  0  0  0  0  0  0  0  0  0  0  0
   -2.2365    1.8040   -0.0531 H   0  0  0  0  0  0  0  0  0  0  0  0
   -3.2706    0.9918    1.1208 H   0  0  0  0  0  0  0  0  0  0  0  0
   -1.8014    1.7634    1.6418 H   0  0  0  0  0  0  0  0  0  0  0  0
   -1.0530   -0.9206   -3.1611 H   0  0  0  0  0  0  0  0  0  0  0  0
   -2.5874   -0.4843   -5.0373 H   0  0  0  0  0  0  0  0  0  0  0  0
  1  2  1  0
  2  3  2  0
  3  4  1  0
  4  5  2  0
  5  6  1  0
  6  7  1  0
  7  8  1  0
  7  9  2  0
  9 10  1  0
 10 11  1  0
 11 12  1  0
 11 13  2  3
 13 14  1  0
 14 15  2  0
 14 16  1  0
 16 17  1  0
 17 18  2  0
 18 19  1  0
 19 20  2  0
 20 21  1  0
 20 22  1  0
 22 23  1  0
 22 24  2  0
 13 25  1  0
 25 26  2  0
 26 27  1  0
 27 28  2  0
 28 29  1  0
 29 30  2  0
 10 31  2  0
 31 32  1  0
  5 33  1  0
 33 34  2  0
 34  2  1  0
 31  6  1  0
 24 17  1  0
 30 25  1  0
  1 35  1  0
  1 36  1  0
  1 37  1  0
  3 38  1  0
  4 39  1  0
  8 40  1  0
  8 41  1  0
  8 42  1  0
  9 43  1  0
 16 44  1  0
 18 45  1  0
 19 46  1  0
 24 47  1  0
 26 48  1  0
 27 49  1  0
 28 50  1  0
 29 51  1  0
 30 52  1  0
 32 53  1  0
 32 54  1  0
 32 55  1  0
 33 56  1  0
 34 57  1  0
M  CHG  2  12  -1  25   1
M  END
$$$$
