
     RDKit          3D

 41 44  0  0  0  0  0  0  0  0999 V2000
    1.2350    2.1848   -0.8837 O   0  0  0  0  0  0  0  0  0  0  0  0
    0.9349    1.0061   -0.7438 C   0  0  0  0  0  0  0  0  0  0  0  0
    1.5791    0.0515   -1.4435 O   0  0  0  0  0  0  0  0  0  0  0  0
   -0.1443    0.4670    0.1848 C   0  0  0  0  0  0  0  0  0  0  0  0
    0.3207    0.6178    1.6398 C   0  0  0  0  0  0  0  0  0  0  0  0
    1.4334   -0.3184    1.9991 C   0  0  0  0  0  0  0  0  0  0  0  0
    1.2913   -1.6358    2.3885 C   0  0  0  0  0  0  0  0  0  0  0  0
    2.5365   -2.1536    2.6185 N   0  0  0  0  0  0  0  0  0  0  0  0
    3.4989   -1.1993    2.3858 C   0  0  0  0  0  0  0  0  0  0  0  0
    4.8928   -1.2818    2.4886 C   0  0  0  0  0  0  0  0  0  0  0  0
    5.6340   -0.1355    2.1885 C   0  0  0  0  0  0  0  0  0  0  0  0
    5.0039    1.0446    1.8022 C   0  0  0  0  0  0  0  0  0  0  0  0
    3.6091    1.1099    1.7048 C   0  0  0  0  0  0  0  0  0  0  0  0
    2.8371   -0.0329    2.0009 C   0  0  0  0  0  0  0  0  0  0  0  0
   -1.3540    1.3025   -0.0631 N   0  0  0  0  0  0  0  0  0  0  0  0
   -2.8516    0.6840    0.3398 S   0  0  0  0  0  6  0  0  0  0  0  0
   -3.5827    1.8202    0.8615 O   0  0  0  0  0  0  0  0  0  0  0  0
   -2.7007   -0.5238    1.1159 O   0  0  0  0  0  0  0  0  0  0  0  0
   -3.5661    0.2754   -1.2097 C   0  0  0  0  0  0  0  0  0  0  0  0
   -4.7463    0.9244   -1.6428 C   0  0  0  0  0  0  0  0  0  0  0  0
   -5.3761    0.6426   -2.8771 C   0  0  0  0  0  0  0  0  0  0  0  0
   -4.8843   -0.3098   -3.7834 C   0  0  0  0  0  0  0  0  0  0  0  0
   -3.7051   -0.9921   -3.3982 C   0  0  0  0  0  0  0  0  0  0  0  0
   -3.0815   -1.9326   -4.1233 N   0  0  0  0  0  0  0  0  0  0  0  0
   -1.7651   -2.4146   -3.2374 S   0  0  0  0  0  0  0  0  0  0  0  0
   -1.9250   -1.4482   -1.9015 N   0  0  0  0  0  0  0  0  0  0  0  0
   -3.0242   -0.6981   -2.0785 C   0  0  0  0  0  0  0  0  0  0  0  0
    2.2628    0.5364   -1.9499 H   0  0  0  0  0  0  0  0  0  0  0  0
   -0.3373   -0.5777   -0.0715 H   0  0  0  0  0  0  0  0  0  0  0  0
    0.6350    1.6518    1.8340 H   0  0  0  0  0  0  0  0  0  0  0  0
   -0.5166    0.4353    2.3250 H   0  0  0  0  0  0  0  0  0  0  0  0
    0.4069   -2.2471    2.5187 H   0  0  0  0  0  0  0  0  0  0  0  0
    2.7278   -3.1003    2.9155 H   0  0  0  0  0  0  0  0  0  0  0  0
    5.3865   -2.1993    2.7915 H   0  0  0  0  0  0  0  0  0  0  0  0
    6.7188   -0.1664    2.2605 H   0  0  0  0  0  0  0  0  0  0  0  0
    5.5986    1.9263    1.5761 H   0  0  0  0  0  0  0  0  0  0  0  0
    3.1327    2.0388    1.4039 H   0  0  0  0  0  0  0  0  0  0  0  0
   -1.2503    2.2959    0.1543 H   0  0  0  0  0  0  0  0  0  0  0  0
   -5.2048    1.6808   -1.0021 H   0  0  0  0  0  0  0  0  0  0  0  0
   -6.2844    1.1889   -3.1357 H   0  0  0  0  0  0  0  0  0  0  0  0
   -5.3753   -0.5176   -4.7269 H   0  0  0  0  0  0  0  0  0  0  0  0
  1  2  2  0
  2  3  1  0
  2  4  1  0
  4  5  1  0
  5  6  1  0
  6  7  2  0
  7  8  1  0
  8  9  1  0
  9 10  2  0
 10 11  1  0
 11 12  2  0
 12 13  1  0
 13 14  2  0
  4 15  1  0
 15 16  1  0
 16 17  2  0
 16 18  2  0
 16 19  1  0
 19 20  2  0
 20 21  1  0
 21 22  2  0
 22 23  1  0
 23 24  2  0
 24 25  1  0
 25 26  1  0
 26 27  2  0
 14  6  1  0
 27 19  1  0
 14  9  1  0
 27 23  1  0
  3 28  1  0
  4 29  1  0
  5 30  1  0
  5 31  1  0
  7 32  1  0
  8 33  1  0
 10 34  1  0
 11 35  1  0
 12 36  1  0
 13 37  1  0
 15 38  1  0
 20 39  1  0
 21 40  1  0
 22 41  1  0
M  END
$$$$
