
     RDKit          3D

 49 52  0  0  0  0  0  0  0  0999 V2000
   -6.8684   -1.7640   -1.8460 C   0  0  0  0  0  0  0  0  0  0  0  0
   -6.2641   -0.7246   -0.9477 C   0  0  0  0  0  0  0  0  0  0  0  0
   -7.0716    0.0175   -0.0784 C   0  0  0  0  0  0  0  0  0  0  0  0
   -6.5072    0.9590    0.7882 C   0  0  0  0  0  0  0  0  0  0  0  0
   -7.3813    1.7818    1.6879 C   0  0  0  0  0  0  0  0  0  0  0  0
   -5.1204    1.1627    0.7643 C   0  0  0  0  0  0  0  0  0  0  0  0
   -4.2944    0.4206   -0.0909 C   0  0  0  0  0  0  0  0  0  0  0  0
   -2.9082    0.6787   -0.0298 N   0  0  0  0  0  0  0  0  0  0  0  0
   -1.9164    0.1318   -0.8219 C   0  0  0  0  0  0  0  0  0  0  0  0
   -2.0551   -0.6324   -1.7687 O   0  0  0  0  0  0  0  0  0  0  0  0
   -0.5361    0.5690   -0.4766 C   0  0  0  0  0  0  0  0  0  0  0  0
   -0.1240    0.7100    0.8545 C   0  0  0  0  0  0  0  0  0  0  0  0
    1.1852    1.1098    1.1362 C   0  0  0  0  0  0  0  0  0  0  0  0
    2.0919    1.3545    0.1004 C   0  0  0  0  0  0  0  0  0  0  0  0
    3.4002    1.7553    0.3877 N   0  0  0  0  0  0  0  0  0  0  0  0
    4.2922    0.8462    0.5561 C   0  0  0  0  0  0  0  0  0  0  0  0
    4.2096   -0.5189    0.4872 N   0  0  0  0  0  0  0  0  0  0  0  0
    5.4719   -1.2300    0.3959 C   0  0  0  0  0  0  0  0  0  0  0  0
    5.9449   -1.3516   -1.0442 C   0  0  0  0  0  0  0  0  0  0  0  0
    7.6983   -1.5498   -0.8870 S   0  0  0  0  0  6  0  0  0  0  0  0
    7.9577   -2.9541   -0.6420 O   0  0  0  0  0  0  0  0  0  0  0  0
    8.3536   -0.8178   -1.9479 O   0  0  0  0  0  0  0  0  0  0  0  0
    7.8983   -0.6779    0.6529 C   0  0  0  0  0  0  0  0  0  0  0  0
    6.4992   -0.3821    1.1650 C   0  0  0  0  0  0  0  0  0  0  0  0
    5.9504    1.3455    0.8988 S   0  0  0  0  0  0  0  0  0  0  0  0
    1.6735    1.2174   -1.2259 C   0  0  0  0  0  0  0  0  0  0  0  0
    0.3686    0.8130   -1.5165 C   0  0  0  0  0  0  0  0  0  0  0  0
   -4.8745   -0.5276   -0.9349 C   0  0  0  0  0  0  0  0  0  0  0  0
   -7.8982   -1.5021   -2.1110 H   0  0  0  0  0  0  0  0  0  0  0  0
   -6.3046   -1.8469   -2.7811 H   0  0  0  0  0  0  0  0  0  0  0  0
   -6.8694   -2.7366   -1.3444 H   0  0  0  0  0  0  0  0  0  0  0  0
   -8.1485   -0.1402   -0.0778 H   0  0  0  0  0  0  0  0  0  0  0  0
   -7.6874    2.6989    1.1753 H   0  0  0  0  0  0  0  0  0  0  0  0
   -8.2770    1.2237    1.9804 H   0  0  0  0  0  0  0  0  0  0  0  0
   -6.8519    2.0498    2.6082 H   0  0  0  0  0  0  0  0  0  0  0  0
   -4.6899    1.9107    1.4258 H   0  0  0  0  0  0  0  0  0  0  0  0
   -2.6280    1.3968    0.6252 H   0  0  0  0  0  0  0  0  0  0  0  0
   -0.7975    0.4899    1.6783 H   0  0  0  0  0  0  0  0  0  0  0  0
    1.5087    1.2268    2.1677 H   0  0  0  0  0  0  0  0  0  0  0  0
    3.3862   -0.9083    0.0404 H   0  0  0  0  0  0  0  0  0  0  0  0
    5.3872   -2.2231    0.8525 H   0  0  0  0  0  0  0  0  0  0  0  0
    5.5184   -2.2190   -1.5537 H   0  0  0  0  0  0  0  0  0  0  0  0
    5.7532   -0.4546   -1.6409 H   0  0  0  0  0  0  0  0  0  0  0  0
    8.5116    0.2123    0.4928 H   0  0  0  0  0  0  0  0  0  0  0  0
    8.4236   -1.3556    1.3334 H   0  0  0  0  0  0  0  0  0  0  0  0
    6.4315   -0.5614    2.2437 H   0  0  0  0  0  0  0  0  0  0  0  0
    2.3677    1.4298   -2.0351 H   0  0  0  0  0  0  0  0  0  0  0  0
    0.0549    0.6987   -2.5524 H   0  0  0  0  0  0  0  0  0  0  0  0
   -4.2644   -1.1314   -1.6001 H   0  0  0  0  0  0  0  0  0  0  0  0
  1  2  1  0
  2  3  2  0
  3  4  1  0
  4  5  1  0
  4  6  2  0
  6  7  1  0
  7  8  1  0
  8  9  1  0
  9 10  2  0
  9 11  1  0
 11 12  2  0
 12 13  1  0
 13 14  2  0
 14 15  1  0
 15 16  2  3
 16 17  1  0
 17 18  1  0
 18 19  1  0
 19 20  1  0
 20 21  2  0
 20 22  2  0
 20 23  1  0
 23 24  1  0
 24 25  1  0
 14 26  1  0
 26 27  2  0
  7 28  2  0
 28  2  1  0
 27 11  1  0
 25 16  1  0
 24 18  1  0
  1 29  1  0
  1 30  1  0
  1 31  1  0
  3 32  1  0
  5 33  1  0
  5 34  1  0
  5 35  1  0
  6 36  1  0
  8 37  1  0
 12 38  1  0
 13 39  1  0
 17 40  1  0
 18 41  1  0
 19 42  1  0
 19 43  1  0
 23 44  1  0
 23 45  1  0
 24 46  1  0
 26 47  1  0
 27 48  1  0
 28 49  1  0
M  END
$$$$
