
     RDKit          3D

 40 40  0  0  0  0  0  0  0  0999 V2000
   -3.4388    0.7777   -2.1339 C   0  0  0  0  0  0  0  0  0  0  0  0
   -3.8280   -0.3049   -1.1146 C   0  0  0  0  0  0  0  0  0  0  0  0
   -4.0183   -1.6376   -1.8606 C   0  0  0  0  0  0  0  0  0  0  0  0
   -5.1569    0.0650   -0.4352 C   0  0  0  0  0  0  0  0  0  0  0  0
   -2.7625   -0.4856   -0.1234 N   0  0  0  0  0  0  0  0  0  0  0  0
   -2.3208    0.4755    0.7595 C   0  0  0  0  0  0  0  0  0  0  0  0
   -2.7716    1.6009    0.9112 O   0  0  0  0  0  0  0  0  0  0  0  0
   -1.1207    0.0134    1.6109 C   0  0  0  0  0  0  0  0  0  0  0  0
   -0.6514   -1.1121    1.4806 O   0  0  0  0  0  0  0  0  0  0  0  0
   -0.6511    0.9813    2.4782 N   0  0  0  0  0  0  0  0  0  0  0  0
    0.6374    0.7863    3.0217 N   0  0  0  0  0  0  0  0  0  0  0  0
    1.6652    1.5241    2.4441 C   0  0  0  0  0  0  0  0  0  0  0  0
    1.4540    2.4828    1.7045 O   0  0  0  0  0  0  0  0  0  0  0  0
    3.0591    1.0257    2.8334 C   0  0  0  0  0  0  0  0  0  0  0  0
    4.0756    1.2811    1.8790 O   0  0  0  0  0  0  0  0  0  0  0  0
    4.2417    0.3675    0.8748 C   0  0  0  0  0  0  0  0  0  0  0  0
    5.4590    0.4666    0.1925 C   0  0  0  0  0  0  0  0  0  0  0  0
    5.7659   -0.4088   -0.8508 C   0  0  0  0  0  0  0  0  0  0  0  0
    4.8487   -1.3868   -1.2268 C   0  0  0  0  0  0  0  0  0  0  0  0
    3.6252   -1.4812   -0.5626 C   0  0  0  0  0  0  0  0  0  0  0  0
    3.3191   -0.6042    0.4837 C   0  0  0  0  0  0  0  0  0  0  0  0
   -3.3252    1.7591   -1.6607 H   0  0  0  0  0  0  0  0  0  0  0  0
   -4.1986    0.8764   -2.9177 H   0  0  0  0  0  0  0  0  0  0  0  0
   -2.4846    0.5364   -2.6174 H   0  0  0  0  0  0  0  0  0  0  0  0
   -4.3056   -2.4380   -1.1689 H   0  0  0  0  0  0  0  0  0  0  0  0
   -3.0905   -1.9496   -2.3540 H   0  0  0  0  0  0  0  0  0  0  0  0
   -4.7967   -1.5608   -2.6278 H   0  0  0  0  0  0  0  0  0  0  0  0
   -5.4202   -0.6659    0.3387 H   0  0  0  0  0  0  0  0  0  0  0  0
   -5.1117    1.0481    0.0440 H   0  0  0  0  0  0  0  0  0  0  0  0
   -5.9770    0.0966   -1.1617 H   0  0  0  0  0  0  0  0  0  0  0  0
   -2.2231   -1.3482   -0.1296 H   0  0  0  0  0  0  0  0  0  0  0  0
   -0.9229    1.9484    2.2785 H   0  0  0  0  0  0  0  0  0  0  0  0
    0.8246   -0.1714    3.3168 H   0  0  0  0  0  0  0  0  0  0  0  0
    3.3330    1.5790    3.7399 H   0  0  0  0  0  0  0  0  0  0  0  0
    3.0404   -0.0329    3.1222 H   0  0  0  0  0  0  0  0  0  0  0  0
    6.1772    1.2312    0.4801 H   0  0  0  0  0  0  0  0  0  0  0  0
    6.7185   -0.3246   -1.3690 H   0  0  0  0  0  0  0  0  0  0  0  0
    5.0831   -2.0692   -2.0408 H   0  0  0  0  0  0  0  0  0  0  0  0
    2.9023   -2.2367   -0.8622 H   0  0  0  0  0  0  0  0  0  0  0  0
    2.3463   -0.7046    0.9530 H   0  0  0  0  0  0  0  0  0  0  0  0
  1  2  1  0
  2  3  1  0
  2  4  1  0
  2  5  1  0
  5  6  1  0
  6  7  2  0
  6  8  1  0
  8  9  2  0
  8 10  1  0
 10 11  1  0
 11 12  1  0
 12 13  2  0
 12 14  1  0
 14 15  1  0
 15 16  1  0
 16 17  2  0
 17 18  1  0
 18 19  2  0
 19 20  1  0
 20 21  2  0
 21 16  1  0
  1 22  1  0
  1 23  1  0
  1 24  1  0
  3 25  1  0
  3 26  1  0
  3 27  1  0
  4 28  1  0
  4 29  1  0
  4 30  1  0
  5 31  1  0
 10 32  1  0
 11 33  1  0
 14 34  1  0
 14 35  1  0
 17 36  1  0
 18 37  1  0
 19 38  1  0
 20 39  1  0
 21 40  1  0
M  END
$$$$
