
     RDKit          3D

 48 50  0  0  0  0  0  0  0  0999 V2000
    5.5944    2.7439    0.4595 C   0  0  0  0  0  0  0  0  0  0  0  0
    5.2298    1.4758    0.9847 O   0  0  0  0  0  0  0  0  0  0  0  0
    4.3140    0.7466    0.2745 C   0  0  0  0  0  0  0  0  0  0  0  0
    3.7065    1.1308   -0.9191 C   0  0  0  0  0  0  0  0  0  0  0  0
    2.7931    0.2799   -1.5544 C   0  0  0  0  0  0  0  0  0  0  0  0
    2.4705   -0.9618   -0.9992 C   0  0  0  0  0  0  0  0  0  0  0  0
    1.4896   -1.8866   -1.6801 C   0  0  0  0  0  0  0  0  0  0  0  0
    0.2258   -2.1509   -0.8708 C   0  0  0  0  0  0  0  0  0  0  0  0
   -0.1450   -3.2994   -0.6560 O   0  0  0  0  0  0  0  0  0  0  0  0
   -0.4343   -0.9894   -0.5033 N   0  0  0  0  0  0  0  0  0  0  0  0
   -1.6533   -0.9391    0.1550 C   0  0  0  0  0  0  0  0  0  0  0  0
   -2.4490   -1.9247    0.7007 C   0  0  0  0  0  0  0  0  0  0  0  0
   -3.5806   -1.2766    1.1842 C   0  0  0  0  0  0  0  0  0  0  0  0
   -3.5617    0.0330    0.9821 N   0  0  0  0  0  0  0  0  0  0  0  0
   -2.3484    0.2533    0.4030 N   0  0  0  0  0  0  0  0  0  0  0  0
   -1.9603    1.6520    0.1025 C   0  0  0  0  0  0  0  0  0  0  0  0
   -3.0575    2.6605    0.5458 C   0  0  0  0  0  0  0  0  0  0  0  0
   -0.6768    2.0307    0.8721 C   0  0  0  0  0  0  0  0  0  0  0  0
   -1.7724    1.8514   -1.4159 C   0  0  0  0  0  0  0  0  0  0  0  0
   -4.6381   -2.0714    1.8162 C   0  0  0  0  0  0  0  0  0  0  0  0
   -3.9609   -3.8059    1.8664 S   0  0  0  0  0  3  0  0  0  0  0  0
   -3.4944   -4.1089    3.4375 O   0  0  0  0  0  1  0  0  0  0  0  0
   -2.4124   -3.3825    0.8927 C   0  0  0  0  0  0  0  0  0  0  0  0
    3.0816   -1.3420    0.1986 C   0  0  0  0  0  0  0  0  0  0  0  0
    3.9942   -0.4917    0.8278 C   0  0  0  0  0  0  0  0  0  0  0  0
    6.0342    2.6486   -0.5403 H   0  0  0  0  0  0  0  0  0  0  0  0
    6.3592    3.1700    1.1180 H   0  0  0  0  0  0  0  0  0  0  0  0
    4.7382    3.4238    0.4567 H   0  0  0  0  0  0  0  0  0  0  0  0
    3.9308    2.0828   -1.3937 H   0  0  0  0  0  0  0  0  0  0  0  0
    2.3499    0.5977   -2.4908 H   0  0  0  0  0  0  0  0  0  0  0  0
    1.9877   -2.8440   -1.8800 H   0  0  0  0  0  0  0  0  0  0  0  0
    1.1822   -1.4825   -2.6540 H   0  0  0  0  0  0  0  0  0  0  0  0
    0.0165   -0.1214   -0.7554 H   0  0  0  0  0  0  0  0  0  0  0  0
   -2.7605    3.6938    0.3222 H   0  0  0  0  0  0  0  0  0  0  0  0
   -3.2433    2.6025    1.6256 H   0  0  0  0  0  0  0  0  0  0  0  0
   -4.0066    2.4741    0.0266 H   0  0  0  0  0  0  0  0  0  0  0  0
   -0.4254    3.0887    0.7218 H   0  0  0  0  0  0  0  0  0  0  0  0
    0.1955    1.4501    0.5571 H   0  0  0  0  0  0  0  0  0  0  0  0
   -0.8028    1.8661    1.9506 H   0  0  0  0  0  0  0  0  0  0  0  0
   -1.6497    2.9151   -1.6643 H   0  0  0  0  0  0  0  0  0  0  0  0
   -2.6428    1.4769   -1.9723 H   0  0  0  0  0  0  0  0  0  0  0  0
   -0.8886    1.3367   -1.8056 H   0  0  0  0  0  0  0  0  0  0  0  0
   -5.5490   -2.0943    1.2131 H   0  0  0  0  0  0  0  0  0  0  0  0
   -4.8600   -1.7554    2.8377 H   0  0  0  0  0  0  0  0  0  0  0  0
   -2.4854   -3.9322   -0.0498 H   0  0  0  0  0  0  0  0  0  0  0  0
   -1.5574   -3.7164    1.4839 H   0  0  0  0  0  0  0  0  0  0  0  0
    2.8571   -2.3061    0.6563 H   0  0  0  0  0  0  0  0  0  0  0  0
    4.4660   -0.8015    1.7608 H   0  0  0  0  0  0  0  0  0  0  0  0
  1  2  1  0
  2  3  1  0
  3  4  2  0
  4  5  1  0
  5  6  2  0
  6  7  1  0
  7  8  1  0
  8  9  2  0
  8 10  1  0
 10 11  1  0
 11 12  2  0
 12 13  1  0
 13 14  2  0
 14 15  1  0
 15 16  1  0
 16 17  1  0
 16 18  1  0
 16 19  1  0
 13 20  1  0
 20 21  1  0
 21 22  1  0
 21 23  1  0
  6 24  1  0
 24 25  2  0
 25  3  1  0
 15 11  1  0
 23 12  1  0
  1 26  1  0
  1 27  1  0
  1 28  1  0
  4 29  1  0
  5 30  1  0
  7 31  1  0
  7 32  1  0
 10 33  1  0
 17 34  1  0
 17 35  1  0
 17 36  1  0
 18 37  1  0
 18 38  1  0
 18 39  1  0
 19 40  1  0
 19 41  1  0
 19 42  1  0
 20 43  1  0
 20 44  1  0
 23 45  1  0
 23 46  1  0
 24 47  1  0
 25 48  1  0
M  CHG  2  21   1  22  -1
M  END
$$$$
