
     RDKit          3D

 33 35  0  0  0  0  0  0  0  0999 V2000
    1.5021    2.1958   -0.7967 O   0  0  0  0  0  0  0  0  0  0  0  0
    1.6961    1.1485   -0.1913 C   0  0  0  0  0  0  0  0  0  0  0  0
    0.7765    0.1768    0.1465 N   0  0  0  0  0  0  0  0  0  0  0  0
   -0.5949    0.1974   -0.0691 C   0  0  0  0  0  0  0  0  0  0  0  0
   -1.3613    1.5339   -0.8235 S   0  0  0  0  0  0  0  0  0  0  0  0
   -2.8511    0.8030   -0.6795 C   0  0  0  0  0  0  0  0  0  0  0  0
   -2.8132   -0.4236   -0.0798 C   0  0  0  0  0  0  0  0  0  0  0  0
   -1.4940   -0.8127    0.2853 C   0  0  0  0  0  0  0  0  0  0  0  0
   -1.0823   -2.0500    0.9235 C   0  0  0  0  0  0  0  0  0  0  0  0
    0.0723   -2.3482    1.2033 O   0  0  0  0  0  0  0  0  0  0  0  0
   -2.0872   -2.9087    1.2043 O   0  0  0  0  0  0  0  0  0  0  0  0
   -4.1757   -1.0100    0.0102 C   0  0  0  0  0  0  0  0  0  0  0  0
   -5.0892    0.2117   -0.3232 C   0  0  0  0  0  0  0  0  0  0  0  0
   -4.2044    1.2427   -1.0871 C   0  0  0  0  0  0  0  0  0  0  0  0
    3.1028    0.8270    0.1714 C   0  0  0  0  0  0  0  0  0  0  0  0
    4.0730    1.0478   -0.8209 C   0  0  0  0  0  0  0  0  0  0  0  0
    5.4173    0.7666   -0.5739 C   0  0  0  0  0  0  0  0  0  0  0  0
    5.8055    0.2714    0.6684 C   0  0  0  0  0  0  0  0  0  0  0  0
    4.8512    0.0669    1.6668 C   0  0  0  0  0  0  0  0  0  0  0  0
    3.5006    0.3481    1.4262 C   0  0  0  0  0  0  0  0  0  0  0  0
    2.4046    0.1169    2.7417 Cl  0  0  0  0  0  0  0  0  0  0  0  0
    1.1176   -0.6541    0.6276 H   0  0  0  0  0  0  0  0  0  0  0  0
   -1.6293   -3.6653    1.6235 H   0  0  0  0  0  0  0  0  0  0  0  0
   -4.3033   -1.7989   -0.7384 H   0  0  0  0  0  0  0  0  0  0  0  0
   -4.4048   -1.4077    1.0026 H   0  0  0  0  0  0  0  0  0  0  0  0
   -5.9778   -0.0773   -0.8930 H   0  0  0  0  0  0  0  0  0  0  0  0
   -5.4339    0.6646    0.6160 H   0  0  0  0  0  0  0  0  0  0  0  0
   -4.3391    1.1376   -2.1685 H   0  0  0  0  0  0  0  0  0  0  0  0
   -4.4383    2.2669   -0.7846 H   0  0  0  0  0  0  0  0  0  0  0  0
    3.7768    1.4420   -1.7922 H   0  0  0  0  0  0  0  0  0  0  0  0
    6.1596    0.9394   -1.3500 H   0  0  0  0  0  0  0  0  0  0  0  0
    6.8532    0.0552    0.8647 H   0  0  0  0  0  0  0  0  0  0  0  0
    5.1705   -0.3036    2.6385 H   0  0  0  0  0  0  0  0  0  0  0  0
  1  2  2  0
  2  3  1  0
  3  4  1  0
  4  5  1  0
  5  6  1  0
  6  7  2  0
  7  8  1  0
  8  9  1  0
  9 10  2  0
  9 11  1  0
  7 12  1  0
 12 13  1  0
 13 14  1  0
  2 15  1  0
 15 16  2  0
 16 17  1  0
 17 18  2  0
 18 19  1  0
 19 20  2  0
 20 21  1  0
  8  4  2  0
 20 15  1  0
 14  6  1  0
  3 22  1  0
 11 23  1  0
 12 24  1  0
 12 25  1  0
 13 26  1  0
 13 27  1  0
 14 28  1  0
 14 29  1  0
 16 30  1  0
 17 31  1  0
 18 32  1  0
 19 33  1  0
M  END
$$$$
