
     RDKit          3D

 53 58  0  0  0  0  0  0  0  0999 V2000
   -0.3026   -1.1417    1.7133 O   0  0  0  0  0  0  0  0  0  0  0  0
   -1.0594   -1.1410    0.7385 C   0  0  0  0  0  0  0  0  0  0  0  0
   -0.4352   -1.0752   -0.6740 C   0  0  0  0  0  0  0  0  0  0  0  0
    0.8297   -0.3110   -0.6628 N   0  0  0  0  0  4  0  0  0  0  0  0
    2.0560   -0.7147   -1.1901 C   0  0  0  0  0  0  0  0  0  0  0  0
    3.0062    0.2650   -0.9267 C   0  0  0  0  0  0  0  0  0  0  0  0
    4.5289    0.2159   -1.3104 C   0  0  0  0  0  0  0  0  0  0  0  0
    5.0237   -0.8484   -2.0748 C   0  0  0  0  0  0  0  0  0  0  0  0
    6.3773   -0.8974   -2.4176 C   0  0  0  0  0  0  0  0  0  0  0  0
    7.2424    0.1088   -1.9948 C   0  0  0  0  0  0  0  0  0  0  0  0
    6.7556    1.1665   -1.2310 C   0  0  0  0  0  0  0  0  0  0  0  0
    5.4015    1.2217   -0.8891 C   0  0  0  0  0  0  0  0  0  0  0  0
    2.2822    1.2403   -0.2651 N   0  0  0  0  0  0  0  0  0  0  0  0
    1.0166    0.8735   -0.0857 C   0  0  0  0  0  0  0  0  0  0  0  0
    0.2156    1.8854    0.6448 C   0  0  0  0  0  0  0  0  0  0  0  0
    1.1359    3.1202    0.5928 C   0  0  0  0  0  0  0  0  0  0  0  0
    2.5522    2.5509    0.3083 C   0  0  0  0  0  0  0  0  0  0  0  0
   -2.4597   -1.0101    0.7819 N   0  0  0  0  0  0  0  0  0  0  0  0
   -3.3013   -1.5341   -0.2605 C   0  0  0  0  0  0  0  0  0  0  0  0
   -2.9627   -2.7613   -0.8656 C   0  0  0  0  0  0  0  0  0  0  0  0
   -3.7443   -3.3056   -1.8877 C   0  0  0  0  0  0  0  0  0  0  0  0
   -4.8859   -2.6403   -2.3153 C   0  0  0  0  0  0  0  0  0  0  0  0
   -5.2570   -1.4446   -1.7048 C   0  0  0  0  0  0  0  0  0  0  0  0
   -4.4831   -0.8991   -0.6703 C   0  0  0  0  0  0  0  0  0  0  0  0
   -5.0180    0.6262    0.0518 S   0  0  0  0  0  0  0  0  0  0  0  0
   -4.2867    0.4347    1.6615 C   0  0  0  0  0  0  0  0  0  0  0  0
   -4.8849    1.1374    2.7195 C   0  0  0  0  0  0  0  0  0  0  0  0
   -4.3376    1.0949    3.9975 C   0  0  0  0  0  0  0  0  0  0  0  0
   -3.1896    0.3505    4.2233 C   0  0  0  0  0  0  0  0  0  0  0  0
   -2.5844   -0.3440    3.1707 C   0  0  0  0  0  0  0  0  0  0  0  0
   -3.1131   -0.3170    1.8677 C   0  0  0  0  0  0  0  0  0  0  0  0
   -0.2241   -2.0895   -1.0227 H   0  0  0  0  0  0  0  0  0  0  0  0
   -1.0926   -0.5602   -1.3818 H   0  0  0  0  0  0  0  0  0  0  0  0
    2.1036   -1.6727   -1.6790 H   0  0  0  0  0  0  0  0  0  0  0  0
    4.3849   -1.6527   -2.4275 H   0  0  0  0  0  0  0  0  0  0  0  0
    6.7629   -1.7185   -3.0176 H   0  0  0  0  0  0  0  0  0  0  0  0
    8.2970    0.0680   -2.2598 H   0  0  0  0  0  0  0  0  0  0  0  0
    7.4354    1.9479   -0.8969 H   0  0  0  0  0  0  0  0  0  0  0  0
    5.0718    2.0512   -0.2785 H   0  0  0  0  0  0  0  0  0  0  0  0
   -0.7354    2.0280    0.1298 H   0  0  0  0  0  0  0  0  0  0  0  0
    0.0832    1.5153    1.6631 H   0  0  0  0  0  0  0  0  0  0  0  0
    0.8340    3.7573   -0.2471 H   0  0  0  0  0  0  0  0  0  0  0  0
    1.0947    3.7220    1.5048 H   0  0  0  0  0  0  0  0  0  0  0  0
    3.1182    2.4208    1.2349 H   0  0  0  0  0  0  0  0  0  0  0  0
    3.0943    3.1845   -0.3972 H   0  0  0  0  0  0  0  0  0  0  0  0
   -2.1227   -3.3543   -0.5104 H   0  0  0  0  0  0  0  0  0  0  0  0
   -3.4793   -4.2632   -2.3326 H   0  0  0  0  0  0  0  0  0  0  0  0
   -5.5037   -3.0630   -3.1052 H   0  0  0  0  0  0  0  0  0  0  0  0
   -6.1675   -0.9464   -2.0352 H   0  0  0  0  0  0  0  0  0  0  0  0
   -5.7825    1.7304    2.5527 H   0  0  0  0  0  0  0  0  0  0  0  0
   -4.8101    1.6367    4.8133 H   0  0  0  0  0  0  0  0  0  0  0  0
   -2.7652    0.2968    5.2239 H   0  0  0  0  0  0  0  0  0  0  0  0
   -1.7153   -0.9450    3.4238 H   0  0  0  0  0  0  0  0  0  0  0  0
  1  2  2  0
  2  3  1  0
  3  4  1  0
  4  5  1  0
  5  6  2  0
  6  7  1  0
  7  8  2  0
  8  9  1  0
  9 10  2  0
 10 11  1  0
 11 12  2  0
  6 13  1  0
 13 14  1  0
 14 15  1  0
 15 16  1  0
 16 17  1  0
  2 18  1  0
 18 19  1  0
 19 20  2  0
 20 21  1  0
 21 22  2  0
 22 23  1  0
 23 24  2  0
 24 25  1  0
 25 26  1  0
 26 27  2  0
 27 28  1  0
 28 29  2  0
 29 30  1  0
 30 31  2  0
 14  4  2  0
 31 18  1  0
 12  7  1  0
 17 13  1  0
 24 19  1  0
 31 26  1  0
  3 32  1  0
  3 33  1  0
  5 34  1  0
  8 35  1  0
  9 36  1  0
 10 37  1  0
 11 38  1  0
 12 39  1  0
 15 40  1  0
 15 41  1  0
 16 42  1  0
 16 43  1  0
 17 44  1  0
 17 45  1  0
 20 46  1  0
 21 47  1  0
 22 48  1  0
 23 49  1  0
 27 50  1  0
 28 51  1  0
 29 52  1  0
 30 53  1  0
M  CHG  1   4   1
M  END
$$$$
