
     RDKit          3D

 31 32  0  0  0  0  0  0  0  0999 V2000
   -6.4441    0.2845   -0.6333 N   0  0  0  0  0  0  0  0  0  0  0  0
   -5.0540    0.0742   -0.5119 N   0  0  0  0  0  0  0  0  0  0  0  0
   -4.5777   -0.9607    0.2821 C   0  0  0  0  0  0  0  0  0  0  0  0
   -5.3119   -1.7989    0.8055 O   0  0  0  0  0  0  0  0  0  0  0  0
   -3.0585   -0.9896    0.4340 C   0  0  0  0  0  0  0  0  0  0  0  0
   -2.4638    0.1852   -0.1111 O   0  0  0  0  0  0  0  0  0  0  0  0
   -1.1014    0.2775   -0.0407 C   0  0  0  0  0  0  0  0  0  0  0  0
   -0.2414   -0.6670    0.5159 C   0  0  0  0  0  0  0  0  0  0  0  0
    1.1413   -0.4443    0.5207 C   0  0  0  0  0  0  0  0  0  0  0  0
    1.6919    0.7262   -0.0292 C   0  0  0  0  0  0  0  0  0  0  0  0
    3.1845    0.9902   -0.0388 C   0  0  0  0  0  0  0  0  0  0  0  0
    3.8868    1.0707    1.6422 S   0  0  0  0  0  0  0  0  0  0  0  0
    5.4314    0.2123    1.2576 C   0  0  0  0  0  0  0  0  0  0  0  0
    5.0978   -0.9160    0.3038 C   0  0  0  0  0  0  0  0  0  0  0  0
    4.0977   -0.2317   -1.0417 S   0  0  0  0  0  0  0  0  0  0  0  0
    0.8136    1.6678   -0.5862 C   0  0  0  0  0  0  0  0  0  0  0  0
   -0.5663    1.4434   -0.5900 C   0  0  0  0  0  0  0  0  0  0  0  0
   -6.8833   -0.1102    0.2093 H   0  0  0  0  0  0  0  0  0  0  0  0
   -6.7811   -0.3267   -1.3832 H   0  0  0  0  0  0  0  0  0  0  0  0
   -4.4046    0.8208   -0.7660 H   0  0  0  0  0  0  0  0  0  0  0  0
   -2.8453   -1.0553    1.5071 H   0  0  0  0  0  0  0  0  0  0  0  0
   -2.7011   -1.8796   -0.0966 H   0  0  0  0  0  0  0  0  0  0  0  0
   -0.6047   -1.5894    0.9570 H   0  0  0  0  0  0  0  0  0  0  0  0
    1.7892   -1.1991    0.9624 H   0  0  0  0  0  0  0  0  0  0  0  0
    3.3781    1.9652   -0.4987 H   0  0  0  0  0  0  0  0  0  0  0  0
    5.8809   -0.1731    2.1776 H   0  0  0  0  0  0  0  0  0  0  0  0
    6.1379    0.9209    0.8115 H   0  0  0  0  0  0  0  0  0  0  0  0
    4.5322   -1.7099    0.8040 H   0  0  0  0  0  0  0  0  0  0  0  0
    6.0084   -1.3644   -0.1047 H   0  0  0  0  0  0  0  0  0  0  0  0
    1.1943    2.5884   -1.0243 H   0  0  0  0  0  0  0  0  0  0  0  0
   -1.2268    2.1886   -1.0269 H   0  0  0  0  0  0  0  0  0  0  0  0
  1  2  1  0
  2  3  1  0
  3  4  2  0
  3  5  1  0
  5  6  1  0
  6  7  1  0
  7  8  2  0
  8  9  1  0
  9 10  2  0
 10 11  1  0
 11 12  1  0
 12 13  1  0
 13 14  1  0
 14 15  1  0
 10 16  1  0
 16 17  2  0
 17  7  1  0
 15 11  1  0
  1 18  1  0
  1 19  1  0
  2 20  1  0
  5 21  1  0
  5 22  1  0
  8 23  1  0
  9 24  1  0
 11 25  1  0
 13 26  1  0
 13 27  1  0
 14 28  1  0
 14 29  1  0
 16 30  1  0
 17 31  1  0
M  END
$$$$
