
     RDKit          3D

 33 35  0  0  0  0  0  0  0  0999 V2000
    4.7865   -0.2590    1.2371 O   0  0  0  0  0  0  0  0  0  0  0  0
    4.2417   -1.4116    0.5993 C   0  0  0  0  0  0  0  0  0  0  0  0
    2.7363   -1.2210    0.3966 C   0  0  0  0  0  0  0  0  0  0  0  0
    2.5416   -0.0342   -0.4251 N   0  0  0  0  0  0  0  0  0  0  0  0
    1.3919    0.4881   -0.6627 C   0  0  0  0  0  0  0  0  0  0  0  0
    1.3793    1.7554   -1.5262 C   0  0  0  0  0  0  0  0  0  0  0  0
    0.3046    2.7459   -1.0671 C   0  0  0  0  0  0  0  0  0  0  0  0
   -1.0939    2.1157   -1.0998 C   0  0  0  0  0  0  0  0  0  0  0  0
   -1.0831    0.7754   -0.4395 C   0  0  0  0  0  0  0  0  0  0  0  0
    0.0773    0.0344   -0.2472 C   0  0  0  0  0  0  0  0  0  0  0  0
   -0.3014   -1.1316    0.3665 N   0  0  0  0  0  0  0  0  0  0  0  0
   -1.6625   -1.1584    0.5780 C   0  0  0  0  0  0  0  0  0  0  0  0
   -2.4615   -2.1452    1.1681 C   0  0  0  0  0  0  0  0  0  0  0  0
   -3.8363   -1.9011    1.2465 C   0  0  0  0  0  0  0  0  0  0  0  0
   -4.3782   -0.7176    0.7514 C   0  0  0  0  0  0  0  0  0  0  0  0
   -6.0768   -0.4510    0.8633 Cl  0  0  0  0  0  0  0  0  0  0  0  0
   -3.5694    0.2596    0.1638 C   0  0  0  0  0  0  0  0  0  0  0  0
   -2.1816    0.0336    0.0769 C   0  0  0  0  0  0  0  0  0  0  0  0
    4.4049    0.4943    0.7437 H   0  0  0  0  0  0  0  0  0  0  0  0
    4.4409   -2.2825    1.2303 H   0  0  0  0  0  0  0  0  0  0  0  0
    4.7554   -1.5463   -0.3581 H   0  0  0  0  0  0  0  0  0  0  0  0
    2.3330   -2.1099   -0.0981 H   0  0  0  0  0  0  0  0  0  0  0  0
    2.2697   -1.0839    1.3782 H   0  0  0  0  0  0  0  0  0  0  0  0
    1.2034    1.4541   -2.5659 H   0  0  0  0  0  0  0  0  0  0  0  0
    2.3646    2.2332   -1.4811 H   0  0  0  0  0  0  0  0  0  0  0  0
    0.5310    3.0706   -0.0430 H   0  0  0  0  0  0  0  0  0  0  0  0
    0.3215    3.6392   -1.7012 H   0  0  0  0  0  0  0  0  0  0  0  0
   -1.4205    1.9959   -2.1399 H   0  0  0  0  0  0  0  0  0  0  0  0
   -1.8071    2.7835   -0.6039 H   0  0  0  0  0  0  0  0  0  0  0  0
    0.3119   -1.8881    0.6256 H   0  0  0  0  0  0  0  0  0  0  0  0
   -2.0380   -3.0675    1.5529 H   0  0  0  0  0  0  0  0  0  0  0  0
   -4.4832   -2.6484    1.7000 H   0  0  0  0  0  0  0  0  0  0  0  0
   -4.0020    1.1783   -0.2194 H   0  0  0  0  0  0  0  0  0  0  0  0
  1  2  1  0
  2  3  1  0
  3  4  1  0
  4  5  2  3
  5  6  1  0
  6  7  1  0
  7  8  1  0
  8  9  1  0
  9 10  2  0
 10 11  1  0
 11 12  1  0
 12 13  2  0
 13 14  1  0
 14 15  2  0
 15 16  1  0
 15 17  1  0
 17 18  2  0
 10  5  1  0
 18 12  1  0
 18  9  1  0
  1 19  1  0
  2 20  1  0
  2 21  1  0
  3 22  1  0
  3 23  1  0
  6 24  1  0
  6 25  1  0
  7 26  1  0
  7 27  1  0
  8 28  1  0
  8 29  1  0
 11 30  1  0
 13 31  1  0
 14 32  1  0
 17 33  1  0
M  END
$$$$
