
     RDKit          3D

 42 44  0  0  0  0  0  0  0  0999 V2000
   -0.9535   -4.6673   -0.8064 C   0  0  0  0  0  0  0  0  0  0  0  0
   -2.2181   -3.8211   -0.8282 C   0  0  0  0  0  0  0  0  0  0  0  0
   -2.5625   -3.0651    0.7931 S   0  0  0  0  0  0  0  0  0  0  0  0
   -1.6607   -1.5366    0.6203 C   0  0  0  0  0  0  0  0  0  0  0  0
   -2.3298   -0.3433    0.7475 C   0  0  0  0  0  0  0  0  0  0  0  0
   -1.5942    0.8158    0.6312 C   0  0  0  0  0  0  0  0  0  0  0  0
   -2.1741    2.0559    0.7436 N   0  0  0  0  0  0  0  0  0  0  0  0
   -3.5945    2.3235    0.5400 C   0  0  0  0  0  0  0  0  0  0  0  0
   -3.6366    3.7827    0.0790 C   0  0  0  0  0  0  0  0  0  0  0  0
   -2.3903    4.3856    0.7080 C   0  0  0  0  0  0  0  0  0  0  0  0
   -1.3665    3.2579    0.5664 C   0  0  0  0  0  0  0  0  0  0  0  0
   -0.2686    0.7550    0.4435 N   0  0  0  0  0  0  0  0  0  0  0  0
    0.3169   -0.4533    0.3497 C   0  0  0  0  0  0  0  0  0  0  0  0
    1.7873   -0.4959    0.1804 C   0  0  0  0  0  0  0  0  0  0  0  0
    2.5502    0.6829    0.0720 C   0  0  0  0  0  0  0  0  0  0  0  0
    3.9387    0.6476   -0.0660 C   0  0  0  0  0  0  0  0  0  0  0  0
    4.6203   -0.5763   -0.0994 C   0  0  0  0  0  0  0  0  0  0  0  0
    6.1092   -0.6241   -0.2571 C   0  0  0  0  0  0  0  0  0  0  0  0
    3.8841   -1.7600   -0.0158 C   0  0  0  0  0  0  0  0  0  0  0  0
    2.4914   -1.7173    0.1273 C   0  0  0  0  0  0  0  0  0  0  0  0
   -0.3406   -1.6192    0.4134 N   0  0  0  0  0  0  0  0  0  0  0  0
   -0.0549   -4.0566   -0.6757 H   0  0  0  0  0  0  0  0  0  0  0  0
   -0.8484   -5.1991   -1.7532 H   0  0  0  0  0  0  0  0  0  0  0  0
   -0.9899   -5.4155   -0.0104 H   0  0  0  0  0  0  0  0  0  0  0  0
   -2.1694   -3.0497   -1.6076 H   0  0  0  0  0  0  0  0  0  0  0  0
   -3.0703   -4.4692   -1.0595 H   0  0  0  0  0  0  0  0  0  0  0  0
   -3.3916   -0.3260    0.9455 H   0  0  0  0  0  0  0  0  0  0  0  0
   -4.0538    1.6800   -0.2165 H   0  0  0  0  0  0  0  0  0  0  0  0
   -4.1288    2.2041    1.4926 H   0  0  0  0  0  0  0  0  0  0  0  0
   -4.5561    4.2904    0.3834 H   0  0  0  0  0  0  0  0  0  0  0  0
   -3.5621    3.8330   -1.0150 H   0  0  0  0  0  0  0  0  0  0  0  0
   -2.5752    4.6020    1.7701 H   0  0  0  0  0  0  0  0  0  0  0  0
   -2.0685    5.3087    0.2155 H   0  0  0  0  0  0  0  0  0  0  0  0
   -0.9151    3.2798   -0.4364 H   0  0  0  0  0  0  0  0  0  0  0  0
   -0.5766    3.3456    1.3232 H   0  0  0  0  0  0  0  0  0  0  0  0
    2.0536    1.6559    0.1063 H   0  0  0  0  0  0  0  0  0  0  0  0
    4.4831    1.5861   -0.1419 H   0  0  0  0  0  0  0  0  0  0  0  0
    6.5682    0.3210    0.0471 H   0  0  0  0  0  0  0  0  0  0  0  0
    6.5374   -1.4119    0.3738 H   0  0  0  0  0  0  0  0  0  0  0  0
    6.3748   -0.8195   -1.3023 H   0  0  0  0  0  0  0  0  0  0  0  0
    4.3856   -2.7269   -0.0513 H   0  0  0  0  0  0  0  0  0  0  0  0
    1.9497   -2.6596    0.2075 H   0  0  0  0  0  0  0  0  0  0  0  0
  1  2  1  0
  2  3  1  0
  3  4  1  0
  4  5  2  0
  5  6  1  0
  6  7  1  0
  7  8  1  0
  8  9  1  0
  9 10  1  0
 10 11  1  0
  6 12  2  0
 12 13  1  0
 13 14  1  0
 14 15  2  0
 15 16  1  0
 16 17  2  0
 17 18  1  0
 17 19  1  0
 19 20  2  0
 13 21  2  0
 21  4  1  0
 11  7  1  0
 20 14  1  0
  1 22  1  0
  1 23  1  0
  1 24  1  0
  2 25  1  0
  2 26  1  0
  5 27  1  0
  8 28  1  0
  8 29  1  0
  9 30  1  0
  9 31  1  0
 10 32  1  0
 10 33  1  0
 11 34  1  0
 11 35  1  0
 15 36  1  0
 16 37  1  0
 18 38  1  0
 18 39  1  0
 18 40  1  0
 19 41  1  0
 20 42  1  0
M  END
$$$$
