
     RDKit          3D

 46 48  0  0  0  0  0  0  0  0999 V2000
    5.9905    0.9841   -2.1820 C   0  0  0  0  0  0  0  0  0  0  0  0
    4.7352    0.4772   -2.6154 O   0  0  0  0  0  0  0  0  0  0  0  0
    3.8323    0.1484   -1.6437 C   0  0  0  0  0  0  0  0  0  0  0  0
    4.0124    0.2921   -0.2706 C   0  0  0  0  0  0  0  0  0  0  0  0
    2.9959   -0.0793    0.6212 C   0  0  0  0  0  0  0  0  0  0  0  0
    1.7727   -0.5910    0.1592 C   0  0  0  0  0  0  0  0  0  0  0  0
    0.6547   -1.0292    1.1027 C   0  0  0  0  0  0  0  0  0  0  0  0
    0.8652   -0.8118    2.6084 C   0  0  0  0  0  0  0  0  0  0  0  0
   -0.6769   -0.5139    0.6888 N   0  0  0  0  0  0  0  0  0  0  0  0
   -1.7553   -1.3409    0.3365 C   0  0  0  0  0  0  0  0  0  0  0  0
   -1.6212   -2.8276    0.2838 C   0  0  0  0  0  0  0  0  0  0  0  0
   -2.8327   -0.5094    0.0887 C   0  0  0  0  0  0  0  0  0  0  0  0
   -4.1505   -0.8618   -0.2754 C   0  0  0  0  0  0  0  0  0  0  0  0
   -4.7754   -2.1948   -0.4858 C   0  0  0  0  0  0  0  0  0  0  0  0
   -4.9423    0.2441   -0.4478 N   0  0  0  0  0  0  0  0  0  0  0  0
   -4.4885    1.6237   -0.2747 N   0  0  0  0  0  0  0  0  0  0  0  0
   -3.2150    1.9767    0.0823 C   0  0  0  0  0  0  0  0  0  0  0  0
   -2.9014    3.4236    0.2268 C   0  0  0  0  0  0  0  0  0  0  0  0
   -2.3915    0.8461    0.2622 C   0  0  0  0  0  0  0  0  0  0  0  0
   -1.0581    0.8290    0.6295 C   0  0  0  0  0  0  0  0  0  0  0  0
   -0.1471    1.9765    0.9171 C   0  0  0  0  0  0  0  0  0  0  0  0
    1.6145   -0.7445   -1.2289 C   0  0  0  0  0  0  0  0  0  0  0  0
    2.6297   -0.3737   -2.1157 C   0  0  0  0  0  0  0  0  0  0  0  0
    6.5269    0.2446   -1.5771 H   0  0  0  0  0  0  0  0  0  0  0  0
    5.8708    1.9275   -1.6382 H   0  0  0  0  0  0  0  0  0  0  0  0
    6.5936    1.1876   -3.0719 H   0  0  0  0  0  0  0  0  0  0  0  0
    4.9303    0.6952    0.1443 H   0  0  0  0  0  0  0  0  0  0  0  0
    3.1841    0.0532    1.6832 H   0  0  0  0  0  0  0  0  0  0  0  0
    0.6216   -2.1177    0.9850 H   0  0  0  0  0  0  0  0  0  0  0  0
    0.0040   -1.1801    3.1784 H   0  0  0  0  0  0  0  0  0  0  0  0
    1.0014    0.2423    2.8684 H   0  0  0  0  0  0  0  0  0  0  0  0
    1.7481   -1.3567    2.9605 H   0  0  0  0  0  0  0  0  0  0  0  0
   -2.5020   -3.3242   -0.1198 H   0  0  0  0  0  0  0  0  0  0  0  0
   -0.7893   -3.1177   -0.3658 H   0  0  0  0  0  0  0  0  0  0  0  0
   -1.4482   -3.2309    1.2872 H   0  0  0  0  0  0  0  0  0  0  0  0
   -5.8469   -2.0926   -0.6880 H   0  0  0  0  0  0  0  0  0  0  0  0
   -4.3225   -2.6970   -1.3446 H   0  0  0  0  0  0  0  0  0  0  0  0
   -4.6662   -2.8158    0.4074 H   0  0  0  0  0  0  0  0  0  0  0  0
   -2.1107    3.7157   -0.4690 H   0  0  0  0  0  0  0  0  0  0  0  0
   -2.5895    3.6456    1.2502 H   0  0  0  0  0  0  0  0  0  0  0  0
   -3.7815    4.0364    0.0062 H   0  0  0  0  0  0  0  0  0  0  0  0
   -0.5313    2.5585    1.7608 H   0  0  0  0  0  0  0  0  0  0  0  0
   -0.0768    2.6304    0.0419 H   0  0  0  0  0  0  0  0  0  0  0  0
    0.8701    1.6907    1.1753 H   0  0  0  0  0  0  0  0  0  0  0  0
    0.6898   -1.1459   -1.6407 H   0  0  0  0  0  0  0  0  0  0  0  0
    2.4769   -0.4923   -3.1862 H   0  0  0  0  0  0  0  0  0  0  0  0
  1  2  1  0
  2  3  1  0
  3  4  2  0
  4  5  1  0
  5  6  2  0
  6  7  1  0
  7  8  1  0
  7  9  1  0
  9 10  1  0
 10 11  1  0
 10 12  2  0
 12 13  1  0
 13 14  1  0
 13 15  2  0
 15 16  1  0
 16 17  2  0
 17 18  1  0
 17 19  1  0
 19 20  2  0
 20 21  1  0
  6 22  1  0
 22 23  2  0
 23  3  1  0
 20  9  1  0
 19 12  1  0
  1 24  1  0
  1 25  1  0
  1 26  1  0
  4 27  1  0
  5 28  1  0
  7 29  1  0
  8 30  1  0
  8 31  1  0
  8 32  1  0
 11 33  1  0
 11 34  1  0
 11 35  1  0
 14 36  1  0
 14 37  1  0
 14 38  1  0
 18 39  1  0
 18 40  1  0
 18 41  1  0
 21 42  1  0
 21 43  1  0
 21 44  1  0
 22 45  1  0
 23 46  1  0
M  END
$$$$
