
     RDKit          3D

 43 45  0  0  0  0  0  0  0  0999 V2000
   -4.9993    2.0631   -1.8756 C   0  0  0  0  0  0  0  0  0  0  0  0
   -3.7739    2.4187   -1.0480 C   0  0  0  0  0  0  0  0  0  0  0  0
   -3.1322    1.2123   -0.3610 C   0  0  0  0  0  0  0  0  0  0  0  0
   -2.5381    0.2042   -1.3452 C   0  0  0  0  0  0  0  0  0  0  0  0
   -1.8349   -0.8746   -0.6523 N   0  0  0  0  0  0  0  0  0  0  0  0
   -2.3881   -2.1006   -0.2710 C   0  0  0  0  0  0  0  0  0  0  0  0
   -3.9698   -2.5848   -0.2596 S   0  0  0  0  0  0  0  0  0  0  0  0
   -1.3556   -2.9276    0.1409 N   0  0  0  0  0  0  0  0  0  0  0  0
   -0.1131   -2.2080    0.2250 C   0  0  0  0  0  0  0  0  0  0  0  0
   -0.3691   -0.9409   -0.6009 C   0  0  0  0  0  0  0  0  0  0  0  0
    0.3010    0.3125   -0.0197 C   0  0  0  0  0  0  0  0  0  0  0  0
    1.8169    0.2314   -0.0335 C   0  0  0  0  0  0  0  0  0  0  0  0
    2.4516    0.3904   -1.2809 C   0  0  0  0  0  0  0  0  0  0  0  0
    3.8333    0.3059   -1.3971 C   0  0  0  0  0  0  0  0  0  0  0  0
    4.6065    0.0605   -0.2681 C   0  0  0  0  0  0  0  0  0  0  0  0
    4.0127   -0.0986    0.9917 C   0  0  0  0  0  0  0  0  0  0  0  0
    4.8224   -0.3436    2.1132 C   0  0  0  0  0  0  0  0  0  0  0  0
    4.2670   -0.5041    3.3801 C   0  0  0  0  0  0  0  0  0  0  0  0
    2.8922   -0.4191    3.5411 C   0  0  0  0  0  0  0  0  0  0  0  0
    2.0731   -0.1758    2.4347 C   0  0  0  0  0  0  0  0  0  0  0  0
    2.6021   -0.0120    1.1316 C   0  0  0  0  0  0  0  0  0  0  0  0
   -5.4691    2.9738   -2.2609 H   0  0  0  0  0  0  0  0  0  0  0  0
   -5.7400    1.5293   -1.2719 H   0  0  0  0  0  0  0  0  0  0  0  0
   -4.7364    1.4383   -2.7340 H   0  0  0  0  0  0  0  0  0  0  0  0
   -4.0716    3.1397   -0.2772 H   0  0  0  0  0  0  0  0  0  0  0  0
   -3.0366    2.9218   -1.6843 H   0  0  0  0  0  0  0  0  0  0  0  0
   -3.8699    0.7200    0.2837 H   0  0  0  0  0  0  0  0  0  0  0  0
   -2.3429    1.5778    0.3068 H   0  0  0  0  0  0  0  0  0  0  0  0
   -1.8349    0.6935   -2.0283 H   0  0  0  0  0  0  0  0  0  0  0  0
   -3.3276   -0.2369   -1.9612 H   0  0  0  0  0  0  0  0  0  0  0  0
   -1.5503   -3.8122    0.5937 H   0  0  0  0  0  0  0  0  0  0  0  0
    0.0599   -1.9996    1.2843 H   0  0  0  0  0  0  0  0  0  0  0  0
    0.7026   -2.8198   -0.1688 H   0  0  0  0  0  0  0  0  0  0  0  0
   -0.0391   -1.1132   -1.6340 H   0  0  0  0  0  0  0  0  0  0  0  0
   -0.0915    0.5266    0.9787 H   0  0  0  0  0  0  0  0  0  0  0  0
    0.0155    1.1929   -0.6110 H   0  0  0  0  0  0  0  0  0  0  0  0
    1.8638    0.5851   -2.1766 H   0  0  0  0  0  0  0  0  0  0  0  0
    4.3092    0.4314   -2.3661 H   0  0  0  0  0  0  0  0  0  0  0  0
    5.6871   -0.0027   -0.3797 H   0  0  0  0  0  0  0  0  0  0  0  0
    5.9034   -0.4104    2.0071 H   0  0  0  0  0  0  0  0  0  0  0  0
    4.9082   -0.6916    4.2371 H   0  0  0  0  0  0  0  0  0  0  0  0
    2.4507   -0.5388    4.5272 H   0  0  0  0  0  0  0  0  0  0  0  0
    1.0048   -0.1143    2.6207 H   0  0  0  0  0  0  0  0  0  0  0  0
  1  2  1  0
  2  3  1  0
  3  4  1  0
  4  5  1  0
  5  6  1  0
  6  7  2  0
  6  8  1  0
  8  9  1  0
  9 10  1  0
 10 11  1  0
 11 12  1  0
 12 13  2  0
 13 14  1  0
 14 15  2  0
 15 16  1  0
 16 17  2  0
 17 18  1  0
 18 19  2  0
 19 20  1  0
 20 21  2  0
 10  5  1  0
 21 12  1  0
 21 16  1  0
  1 22  1  0
  1 23  1  0
  1 24  1  0
  2 25  1  0
  2 26  1  0
  3 27  1  0
  3 28  1  0
  4 29  1  0
  4 30  1  0
  8 31  1  0
  9 32  1  0
  9 33  1  0
 10 34  1  0
 11 35  1  0
 11 36  1  0
 13 37  1  0
 14 38  1  0
 15 39  1  0
 17 40  1  0
 18 41  1  0
 19 42  1  0
 20 43  1  0
M  END
$$$$
