
     RDKit          3D

 35 36  0  0  0  0  0  0  0  0999 V2000
   -5.5706   -0.6587    1.1497 N   0  0  0  0  0  0  0  0  0  0  0  0
   -4.5649   -0.6011    0.2254 C   0  0  0  0  0  0  0  0  0  0  0  0
   -4.5417    0.4979   -0.7608 C   0  0  0  0  0  0  0  0  0  0  0  0
   -3.5521    0.4582   -1.6509 C   0  0  0  0  0  0  0  0  0  0  0  0
   -2.6169   -0.5501   -1.6217 N   0  0  0  0  0  0  0  0  0  0  0  0
   -1.5376   -0.5637   -2.6103 C   0  0  0  0  0  0  0  0  0  0  0  0
   -0.2688    0.1472   -2.1286 C   0  0  0  0  0  0  0  0  0  0  0  0
    0.3584    0.9084   -2.8627 O   0  0  0  0  0  0  0  0  0  0  0  0
    0.1697   -0.2202   -0.8731 N   0  0  0  0  0  0  0  0  0  0  0  0
    1.4483    0.2369   -0.3585 C   0  0  0  0  0  0  0  0  0  0  0  0
    1.5621    0.0143    1.1461 C   0  0  0  0  0  0  0  0  0  0  0  0
    2.9177    0.4248    1.6552 C   0  0  0  0  0  0  0  0  0  0  0  0
    3.9551   -0.5016    1.7351 C   0  0  0  0  0  0  0  0  0  0  0  0
    5.2005   -0.0780    2.1907 C   0  0  0  0  0  0  0  0  0  0  0  0
    5.3782    1.2522    2.5491 C   0  0  0  0  0  0  0  0  0  0  0  0
    4.2969    2.1084    2.4354 C   0  0  0  0  0  0  0  0  0  0  0  0
    3.0776    1.7259    1.9965 N   0  0  0  0  0  0  0  0  0  0  0  0
   -2.6357   -1.5330   -0.6314 C   0  0  0  0  0  0  0  0  0  0  0  0
   -1.7207   -2.3537   -0.5536 O   0  0  0  0  0  0  0  0  0  0  0  0
   -3.6727   -1.5406    0.2673 N   0  0  0  0  0  0  0  0  0  0  0  0
   -6.4818   -0.3256    0.8611 H   0  0  0  0  0  0  0  0  0  0  0  0
   -5.6063   -1.5591    1.6189 H   0  0  0  0  0  0  0  0  0  0  0  0
   -5.2912    1.2748   -0.7322 H   0  0  0  0  0  0  0  0  0  0  0  0
   -3.4491    1.2215   -2.4167 H   0  0  0  0  0  0  0  0  0  0  0  0
   -1.8846   -0.0819   -3.5320 H   0  0  0  0  0  0  0  0  0  0  0  0
   -1.2720   -1.5982   -2.8569 H   0  0  0  0  0  0  0  0  0  0  0  0
   -0.2030   -1.0970   -0.5086 H   0  0  0  0  0  0  0  0  0  0  0  0
    2.2273   -0.3154   -0.8974 H   0  0  0  0  0  0  0  0  0  0  0  0
    1.5707    1.2978   -0.6077 H   0  0  0  0  0  0  0  0  0  0  0  0
    0.7892    0.5929    1.6678 H   0  0  0  0  0  0  0  0  0  0  0  0
    1.3716   -1.0371    1.3959 H   0  0  0  0  0  0  0  0  0  0  0  0
    3.8022   -1.5371    1.4485 H   0  0  0  0  0  0  0  0  0  0  0  0
    6.0253   -0.7810    2.2638 H   0  0  0  0  0  0  0  0  0  0  0  0
    6.3353    1.6139    2.9069 H   0  0  0  0  0  0  0  0  0  0  0  0
    4.3835    3.1581    2.7008 H   0  0  0  0  0  0  0  0  0  0  0  0
  1  2  1  0
  2  3  1  0
  3  4  2  0
  4  5  1  0
  5  6  1  0
  6  7  1  0
  7  8  2  0
  7  9  1  0
  9 10  1  0
 10 11  1  0
 11 12  1  0
 12 13  2  0
 13 14  1  0
 14 15  2  0
 15 16  1  0
 16 17  2  0
  5 18  1  0
 18 19  2  0
 18 20  1  0
 20  2  2  0
 17 12  1  0
  1 21  1  0
  1 22  1  0
  3 23  1  0
  4 24  1  0
  6 25  1  0
  6 26  1  0
  9 27  1  0
 10 28  1  0
 10 29  1  0
 11 30  1  0
 11 31  1  0
 13 32  1  0
 14 33  1  0
 15 34  1  0
 16 35  1  0
M  END
$$$$
