
     RDKit          3D

 43 45  0  0  0  0  0  0  0  0999 V2000
   -0.5097   -2.3663    1.3289 N   0  0  0  0  0  0  0  0  0  0  0  0
    0.2277   -1.2575    1.5245 C   0  0  0  0  0  0  0  0  0  0  0  0
    1.0316   -1.1090    2.5331 N   0  0  0  0  0  0  0  0  0  0  0  0
    1.6310    0.2388    2.3280 C   0  0  0  0  0  0  0  0  0  0  0  0
    0.9883    0.8372    1.0585 C   0  0  0  0  0  0  0  0  0  0  0  0
    1.9916    1.2915   -0.0158 C   0  0  0  0  0  0  0  0  0  0  0  0
    2.9253    0.2434   -0.5815 C   0  0  0  0  0  0  0  0  0  0  0  0
    4.2578    0.1632   -0.1491 C   0  0  0  0  0  0  0  0  0  0  0  0
    5.1205   -0.8027   -0.6738 C   0  0  0  0  0  0  0  0  0  0  0  0
    4.6518   -1.6878   -1.6383 C   0  0  0  0  0  0  0  0  0  0  0  0
    5.4590   -2.6460   -2.1764 O   0  0  0  0  0  0  0  0  0  0  0  0
    3.3391   -1.6209   -2.0853 C   0  0  0  0  0  0  0  0  0  0  0  0
    2.4778   -0.6573   -1.5588 C   0  0  0  0  0  0  0  0  0  0  0  0
    0.1234   -0.2540    0.6142 N   0  0  0  0  0  0  0  0  0  0  0  0
   -1.0878    0.0573   -0.1359 C   0  0  0  0  0  0  0  0  0  0  0  0
   -2.2439    0.4867    0.7769 C   0  0  0  0  0  0  0  0  0  0  0  0
   -3.4835    0.8208   -0.0172 C   0  0  0  0  0  0  0  0  0  0  0  0
   -3.7092    2.1279   -0.4749 C   0  0  0  0  0  0  0  0  0  0  0  0
   -4.8470    2.4304   -1.2281 C   0  0  0  0  0  0  0  0  0  0  0  0
   -5.7665    1.4287   -1.5332 C   0  0  0  0  0  0  0  0  0  0  0  0
   -5.5413    0.1335   -1.0831 C   0  0  0  0  0  0  0  0  0  0  0  0
   -6.4235   -0.8299   -1.3794 F   0  0  0  0  0  0  0  0  0  0  0  0
   -4.4125   -0.1796   -0.3325 C   0  0  0  0  0  0  0  0  0  0  0  0
   -0.2108   -3.0892    1.9762 H   0  0  0  0  0  0  0  0  0  0  0  0
   -0.4390   -2.6995    0.3759 H   0  0  0  0  0  0  0  0  0  0  0  0
    1.4033    0.8635    3.1991 H   0  0  0  0  0  0  0  0  0  0  0  0
    2.7183    0.1473    2.2633 H   0  0  0  0  0  0  0  0  0  0  0  0
    0.3846    1.7048    1.3535 H   0  0  0  0  0  0  0  0  0  0  0  0
    1.4408    1.7333   -0.8572 H   0  0  0  0  0  0  0  0  0  0  0  0
    2.5917    2.1141    0.3956 H   0  0  0  0  0  0  0  0  0  0  0  0
    4.6343    0.8503    0.6052 H   0  0  0  0  0  0  0  0  0  0  0  0
    6.1449   -0.8476   -0.3188 H   0  0  0  0  0  0  0  0  0  0  0  0
    6.3272   -2.5932   -1.7448 H   0  0  0  0  0  0  0  0  0  0  0  0
    2.9854   -2.3180   -2.8390 H   0  0  0  0  0  0  0  0  0  0  0  0
    1.4510   -0.6175   -1.9132 H   0  0  0  0  0  0  0  0  0  0  0  0
   -0.8711    0.8507   -0.8621 H   0  0  0  0  0  0  0  0  0  0  0  0
   -1.3812   -0.8152   -0.7329 H   0  0  0  0  0  0  0  0  0  0  0  0
   -1.9553    1.3570    1.3794 H   0  0  0  0  0  0  0  0  0  0  0  0
   -2.4824   -0.3024    1.5007 H   0  0  0  0  0  0  0  0  0  0  0  0
   -3.0011    2.9215   -0.2444 H   0  0  0  0  0  0  0  0  0  0  0  0
   -5.0158    3.4468   -1.5752 H   0  0  0  0  0  0  0  0  0  0  0  0
   -6.6549    1.6479   -2.1165 H   0  0  0  0  0  0  0  0  0  0  0  0
   -4.2699   -1.2034    0.0022 H   0  0  0  0  0  0  0  0  0  0  0  0
  1  2  1  0
  2  3  2  0
  3  4  1  0
  4  5  1  0
  5  6  1  0
  6  7  1  0
  7  8  2  0
  8  9  1  0
  9 10  2  0
 10 11  1  0
 10 12  1  0
 12 13  2  0
  5 14  1  0
 14 15  1  0
 15 16  1  0
 16 17  1  0
 17 18  2  0
 18 19  1  0
 19 20  2  0
 20 21  1  0
 21 22  1  0
 21 23  2  0
 14  2  1  0
 23 17  1  0
 13  7  1  0
  1 24  1  0
  1 25  1  0
  4 26  1  0
  4 27  1  0
  5 28  1  0
  6 29  1  0
  6 30  1  0
  8 31  1  0
  9 32  1  0
 11 33  1  0
 12 34  1  0
 13 35  1  0
 15 36  1  0
 15 37  1  0
 16 38  1  0
 16 39  1  0
 18 40  1  0
 19 41  1  0
 20 42  1  0
 23 43  1  0
M  END
$$$$
