
     RDKit          3D

 34 35  0  0  0  0  0  0  0  0999 V2000
   -0.5761   -1.1642   -1.6454 C   0  0  0  0  0  0  0  0  0  0  0  0
   -0.8970   -0.4558   -0.3473 C   0  0  0  0  0  0  0  0  0  0  0  0
    0.0071    0.0020    0.4827 N   0  0  0  0  0  0  0  0  0  0  0  0
    1.3300   -0.0767    0.1331 N   0  0  0  0  0  0  0  0  0  0  0  0
    2.2495   -0.2000    1.2704 C   0  0  0  0  0  0  0  0  0  0  0  0
    3.6884   -0.3465    0.7955 C   0  0  0  0  0  0  0  0  0  0  0  0
    4.1362    0.8513   -0.0483 C   0  0  0  0  0  0  0  0  0  0  0  0
    2.9658    1.6497   -0.6234 C   0  0  0  0  0  0  0  0  0  0  0  0
    1.7980    0.7440   -0.9996 C   0  0  0  0  0  0  0  0  0  0  0  0
   -2.3344   -0.3206    0.0369 C   0  0  0  0  0  0  0  0  0  0  0  0
   -2.6836   -0.3257    1.3357 C   0  0  0  0  0  0  0  0  0  0  0  0
   -1.8124   -0.3839    2.3940 O   0  0  0  0  0  0  0  0  0  0  0  0
   -3.9834   -0.2665    1.7270 N   0  0  0  0  0  0  0  0  0  0  0  0
   -5.0381   -0.2187    0.8652 C   0  0  0  0  0  0  0  0  0  0  0  0
   -6.2009   -0.1456    1.2456 O   0  0  0  0  0  0  0  0  0  0  0  0
   -4.7093   -0.2487   -0.4596 N   0  0  0  0  0  0  0  0  0  0  0  0
   -3.4354   -0.2103   -0.9537 C   0  0  0  0  0  0  0  0  0  0  0  0
   -3.2256   -0.0682   -2.1541 O   0  0  0  0  0  0  0  0  0  0  0  0
    0.3316   -1.7651   -1.5433 H   0  0  0  0  0  0  0  0  0  0  0  0
   -0.4396   -0.4274   -2.4394 H   0  0  0  0  0  0  0  0  0  0  0  0
   -1.3803   -1.8500   -1.9258 H   0  0  0  0  0  0  0  0  0  0  0  0
    1.9485   -1.0771    1.8535 H   0  0  0  0  0  0  0  0  0  0  0  0
    2.1388    0.6886    1.9038 H   0  0  0  0  0  0  0  0  0  0  0  0
    4.3620   -0.4710    1.6510 H   0  0  0  0  0  0  0  0  0  0  0  0
    3.7743   -1.2598    0.1908 H   0  0  0  0  0  0  0  0  0  0  0  0
    4.7599    1.5226    0.5561 H   0  0  0  0  0  0  0  0  0  0  0  0
    4.7767    0.4893   -0.8627 H   0  0  0  0  0  0  0  0  0  0  0  0
    2.6291    2.3817    0.1231 H   0  0  0  0  0  0  0  0  0  0  0  0
    3.3006    2.2220   -1.4966 H   0  0  0  0  0  0  0  0  0  0  0  0
    2.1082    0.0472   -1.7858 H   0  0  0  0  0  0  0  0  0  0  0  0
    0.9693    1.3479   -1.3841 H   0  0  0  0  0  0  0  0  0  0  0  0
   -0.9039   -0.2546    2.0334 H   0  0  0  0  0  0  0  0  0  0  0  0
   -4.1868   -0.2562    2.7186 H   0  0  0  0  0  0  0  0  0  0  0  0
   -5.4675   -0.1534   -1.1175 H   0  0  0  0  0  0  0  0  0  0  0  0
  1  2  1  0
  2  3  2  3
  3  4  1  0
  4  5  1  0
  5  6  1  0
  6  7  1  0
  7  8  1  0
  8  9  1  0
  2 10  1  0
 10 11  2  0
 11 12  1  0
 11 13  1  0
 13 14  1  0
 14 15  2  0
 14 16  1  0
 16 17  1  0
 17 18  2  0
  9  4  1  0
 17 10  1  0
  1 19  1  0
  1 20  1  0
  1 21  1  0
  5 22  1  0
  5 23  1  0
  6 24  1  0
  6 25  1  0
  7 26  1  0
  7 27  1  0
  8 28  1  0
  8 29  1  0
  9 30  1  0
  9 31  1  0
 12 32  1  0
 13 33  1  0
 16 34  1  0
M  END
$$$$
