
     RDKit          3D

 43 45  0  0  0  0  0  0  0  0999 V2000
   -0.8443    4.3911   -0.1684 C   0  0  0  0  0  0  0  0  0  0  0  0
   -0.7762    3.3647    0.8228 O   0  0  0  0  0  0  0  0  0  0  0  0
   -1.0143    2.1087    0.3367 C   0  0  0  0  0  0  0  0  0  0  0  0
   -1.2833    1.8565   -0.8306 O   0  0  0  0  0  0  0  0  0  0  0  0
   -0.9165    1.1128    1.4660 C   0  0  0  0  0  0  0  0  0  0  0  0
   -0.9145   -0.2639    0.9993 N   0  0  0  0  0  0  0  0  0  0  0  0
    0.1949   -1.0560    0.7489 C   0  0  0  0  0  0  0  0  0  0  0  0
    1.6160   -0.5917    0.9121 C   0  0  0  0  0  0  0  0  0  0  0  0
    1.9115    0.6095    0.1134 N   0  0  0  0  0  0  0  0  0  0  0  0
    3.2372    1.1766    0.4457 C   0  0  0  0  0  0  0  0  0  0  0  0
    4.3273    0.8605   -0.5897 C   0  0  0  0  0  0  0  0  0  0  0  0
    4.0072    1.3462   -1.8988 O   0  0  0  0  0  0  0  0  0  0  0  0
    2.5980    1.3485   -2.1718 C   0  0  0  0  0  0  0  0  0  0  0  0
    1.8279    0.3125   -1.3406 C   0  0  0  0  0  0  0  0  0  0  0  0
   -0.1724   -2.2620    0.3397 N   0  0  0  0  0  0  0  0  0  0  0  0
   -1.5309   -2.2290    0.3131 C   0  0  0  0  0  0  0  0  0  0  0  0
   -2.0182   -1.0229    0.7214 C   0  0  0  0  0  0  0  0  0  0  0  0
   -3.4093   -0.7392    0.7775 C   0  0  0  0  0  0  0  0  0  0  0  0
   -3.8970    0.3181    1.1603 O   0  0  0  0  0  0  0  0  0  0  0  0
   -4.1796   -1.8035    0.3664 N   0  0  0  0  0  0  0  0  0  0  0  0
   -3.7386   -3.0478   -0.0473 C   0  0  0  0  0  0  0  0  0  0  0  0
   -4.5713   -3.8964   -0.3670 O   0  0  0  0  0  0  0  0  0  0  0  0
   -2.3638   -3.2585   -0.0690 N   0  0  0  0  0  0  0  0  0  0  0  0
   -1.8151   -4.5286   -0.5009 C   0  0  0  0  0  0  0  0  0  0  0  0
   -0.6298    5.3465    0.3183 H   0  0  0  0  0  0  0  0  0  0  0  0
   -0.0931    4.2227   -0.9465 H   0  0  0  0  0  0  0  0  0  0  0  0
   -1.8485    4.4400   -0.6007 H   0  0  0  0  0  0  0  0  0  0  0  0
   -1.7639    1.2421    2.1451 H   0  0  0  0  0  0  0  0  0  0  0  0
    0.0017    1.2816    2.0356 H   0  0  0  0  0  0  0  0  0  0  0  0
    1.7608   -0.3755    1.9786 H   0  0  0  0  0  0  0  0  0  0  0  0
    2.3033   -1.4100    0.6620 H   0  0  0  0  0  0  0  0  0  0  0  0
    3.1090    2.2659    0.4827 H   0  0  0  0  0  0  0  0  0  0  0  0
    3.5710    0.8743    1.4453 H   0  0  0  0  0  0  0  0  0  0  0  0
    4.5026   -0.2197   -0.6547 H   0  0  0  0  0  0  0  0  0  0  0  0
    5.2730    1.3248   -0.2919 H   0  0  0  0  0  0  0  0  0  0  0  0
    2.2158    2.3592   -1.9858 H   0  0  0  0  0  0  0  0  0  0  0  0
    2.4719    1.1446   -3.2400 H   0  0  0  0  0  0  0  0  0  0  0  0
    2.2499   -0.6786   -1.5547 H   0  0  0  0  0  0  0  0  0  0  0  0
    0.7802    0.3056   -1.6575 H   0  0  0  0  0  0  0  0  0  0  0  0
   -5.1783   -1.6717    0.3784 H   0  0  0  0  0  0  0  0  0  0  0  0
   -2.6026   -5.2425   -0.7568 H   0  0  0  0  0  0  0  0  0  0  0  0
   -1.2084   -4.9501    0.3067 H   0  0  0  0  0  0  0  0  0  0  0  0
   -1.1891   -4.3654   -1.3838 H   0  0  0  0  0  0  0  0  0  0  0  0
  1  2  1  0
  2  3  1  0
  3  4  2  0
  3  5  1  0
  5  6  1  0
  6  7  1  0
  7  8  1  0
  8  9  1  0
  9 10  1  0
 10 11  1  0
 11 12  1  0
 12 13  1  0
 13 14  1  0
  7 15  2  0
 15 16  1  0
 16 17  2  0
 17 18  1  0
 18 19  2  0
 18 20  1  0
 20 21  1  0
 21 22  2  0
 21 23  1  0
 23 24  1  0
 17  6  1  0
 14  9  1  0
 23 16  1  0
  1 25  1  0
  1 26  1  0
  1 27  1  0
  5 28  1  0
  5 29  1  0
  8 30  1  0
  8 31  1  0
 10 32  1  0
 10 33  1  0
 11 34  1  0
 11 35  1  0
 13 36  1  0
 13 37  1  0
 14 38  1  0
 14 39  1  0
 20 40  1  0
 24 41  1  0
 24 42  1  0
 24 43  1  0
M  END
$$$$
