
     RDKit          3D

 64 67  0  0  0  0  0  0  0  0999 V2000
    0.0928    0.6476   -3.2353 C   0  0  0  0  0  0  0  0  0  0  0  0
   -1.0071    0.2346   -2.4206 O   0  0  0  0  0  0  0  0  0  0  0  0
   -1.3917    1.2399   -1.5651 C   0  0  0  0  0  0  0  0  0  0  0  0
   -2.0325    2.3653   -2.1032 C   0  0  0  0  0  0  0  0  0  0  0  0
   -2.4541    3.4042   -1.2739 C   0  0  0  0  0  0  0  0  0  0  0  0
   -3.0809    4.5422   -1.7161 O   0  0  0  0  0  0  0  0  0  0  0  0
   -3.4382    4.6047   -3.0912 C   0  0  0  0  0  0  0  0  0  0  0  0
   -2.2242    3.3076    0.1086 C   0  0  0  0  0  0  0  0  0  0  0  0
   -2.6176    4.3693    1.0353 C   0  0  0  0  0  0  0  0  0  0  0  0
   -2.3799    4.2582    2.3442 C   0  0  0  0  0  0  0  0  0  0  0  0
   -1.7195    3.0799    2.9157 C   0  0  0  0  0  0  0  0  0  0  0  0
   -1.4983    2.9980    4.1177 O   0  0  0  0  0  0  0  0  0  0  0  0
   -1.3659    2.0812    2.0228 O   0  0  0  0  0  0  0  0  0  0  0  0
   -1.6053    2.1571    0.6287 C   0  0  0  0  0  0  0  0  0  0  0  0
   -1.1964    1.0814   -0.1800 C   0  0  0  0  0  0  0  0  0  0  0  0
   -0.5360   -0.2029    0.3445 C   0  0  0  0  0  0  0  0  0  0  0  0
   -1.0408   -0.7079    1.7206 C   0  0  0  0  0  0  0  0  0  0  0  0
   -0.6984   -2.1796    2.0187 C   0  0  0  0  0  0  0  0  0  0  0  0
   -1.2338   -3.1308    1.0411 N   0  0  0  0  0  0  0  0  0  0  0  0
   -0.7924   -4.4999    1.3121 C   0  0  0  0  0  0  0  0  0  0  0  0
   -1.7197   -5.3407    0.4489 C   0  0  0  0  0  0  0  0  0  0  0  0
   -2.9690   -4.4871    0.2584 C   0  0  0  0  0  0  0  0  0  0  0  0
   -2.6956   -3.2022    1.0266 C   0  0  0  0  0  0  0  0  0  0  0  0
    0.9884   -0.1306    0.2971 C   0  0  0  0  0  0  0  0  0  0  0  0
    1.7057   -1.0437   -0.4811 C   0  0  0  0  0  0  0  0  0  0  0  0
    3.1066   -0.9994   -0.5411 C   0  0  0  0  0  0  0  0  0  0  0  0
    3.8604   -0.0591    0.1807 C   0  0  0  0  0  0  0  0  0  0  0  0
    5.2596   -0.0041    0.1078 N   0  0  0  0  0  0  0  0  0  0  0  0
    5.9789   -1.1130   -0.5168 C   0  0  0  0  0  0  0  0  0  0  0  0
    5.9829    0.6948    1.1693 C   0  0  0  0  0  0  0  0  0  0  0  0
    3.1172    0.8536    0.9495 C   0  0  0  0  0  0  0  0  0  0  0  0
    1.7153    0.8184    1.0170 C   0  0  0  0  0  0  0  0  0  0  0  0
   -0.2612    1.2520   -4.0768 H   0  0  0  0  0  0  0  0  0  0  0  0
    0.5644   -0.2526   -3.6409 H   0  0  0  0  0  0  0  0  0  0  0  0
    0.8478    1.1990   -2.6628 H   0  0  0  0  0  0  0  0  0  0  0  0
   -2.1930    2.3945   -3.1751 H   0  0  0  0  0  0  0  0  0  0  0  0
   -3.9795    5.5421   -3.2530 H   0  0  0  0  0  0  0  0  0  0  0  0
   -4.1081    3.7829   -3.3641 H   0  0  0  0  0  0  0  0  0  0  0  0
   -2.5481    4.6204   -3.7281 H   0  0  0  0  0  0  0  0  0  0  0  0
   -3.1063    5.2531    0.6381 H   0  0  0  0  0  0  0  0  0  0  0  0
   -2.6615    5.0336    3.0455 H   0  0  0  0  0  0  0  0  0  0  0  0
   -0.8490   -0.9814   -0.3638 H   0  0  0  0  0  0  0  0  0  0  0  0
   -2.1282   -0.5757    1.7875 H   0  0  0  0  0  0  0  0  0  0  0  0
   -0.6053   -0.1161    2.5346 H   0  0  0  0  0  0  0  0  0  0  0  0
    0.3933   -2.2811    2.0560 H   0  0  0  0  0  0  0  0  0  0  0  0
   -1.0618   -2.4223    3.0263 H   0  0  0  0  0  0  0  0  0  0  0  0
   -0.9263   -4.7672    2.3681 H   0  0  0  0  0  0  0  0  0  0  0  0
    0.2569   -4.6554    1.0437 H   0  0  0  0  0  0  0  0  0  0  0  0
   -1.2615   -5.5524   -0.5249 H   0  0  0  0  0  0  0  0  0  0  0  0
   -1.9531   -6.2981    0.9262 H   0  0  0  0  0  0  0  0  0  0  0  0
   -3.1160   -4.2786   -0.8087 H   0  0  0  0  0  0  0  0  0  0  0  0
   -3.8668   -4.9930    0.6285 H   0  0  0  0  0  0  0  0  0  0  0  0
   -3.1527   -2.3421    0.5275 H   0  0  0  0  0  0  0  0  0  0  0  0
   -3.1079   -3.2799    2.0410 H   0  0  0  0  0  0  0  0  0  0  0  0
    1.1786   -1.8068   -1.0516 H   0  0  0  0  0  0  0  0  0  0  0  0
    3.5880   -1.7374   -1.1743 H   0  0  0  0  0  0  0  0  0  0  0  0
    7.0589   -0.9267   -0.5265 H   0  0  0  0  0  0  0  0  0  0  0  0
    5.8083   -2.0502    0.0257 H   0  0  0  0  0  0  0  0  0  0  0  0
    5.6882   -1.2353   -1.5664 H   0  0  0  0  0  0  0  0  0  0  0  0
    5.7533    0.2668    2.1515 H   0  0  0  0  0  0  0  0  0  0  0  0
    7.0671    0.6238    1.0249 H   0  0  0  0  0  0  0  0  0  0  0  0
    5.7510    1.7652    1.1690 H   0  0  0  0  0  0  0  0  0  0  0  0
    3.6106    1.6330    1.5221 H   0  0  0  0  0  0  0  0  0  0  0  0
    1.2091    1.5488    1.6419 H   0  0  0  0  0  0  0  0  0  0  0  0
  1  2  1  0
  2  3  1  0
  3  4  2  0
  4  5  1  0
  5  6  1  0
  6  7  1  0
  5  8  2  0
  8  9  1  0
  9 10  2  0
 10 11  1  0
 11 12  2  0
 11 13  1  0
 13 14  1  0
 14 15  2  0
 15 16  1  0
 16 17  1  0
 17 18  1  0
 18 19  1  0
 19 20  1  0
 20 21  1  0
 21 22  1  0
 22 23  1  0
 16 24  1  0
 24 25  2  0
 25 26  1  0
 26 27  2  0
 27 28  1  0
 28 29  1  0
 28 30  1  0
 27 31  1  0
 31 32  2  0
 15  3  1  0
 23 19  1  0
 32 24  1  0
 14  8  1  0
  1 33  1  0
  1 34  1  0
  1 35  1  0
  4 36  1  0
  7 37  1  0
  7 38  1  0
  7 39  1  0
  9 40  1  0
 10 41  1  0
 16 42  1  0
 17 43  1  0
 17 44  1  0
 18 45  1  0
 18 46  1  0
 20 47  1  0
 20 48  1  0
 21 49  1  0
 21 50  1  0
 22 51  1  0
 22 52  1  0
 23 53  1  0
 23 54  1  0
 25 55  1  0
 26 56  1  0
 29 57  1  0
 29 58  1  0
 29 59  1  0
 30 60  1  0
 30 61  1  0
 30 62  1  0
 31 63  1  0
 32 64  1  0
M  END
$$$$
