
     RDKit          3D

 29 31  0  0  0  0  0  0  0  0999 V2000
   -0.0528   -0.3553    1.4143 O   0  0  0  0  0  0  0  0  0  0  0  0
    0.1617    0.0221    0.2673 C   0  0  0  0  0  0  0  0  0  0  0  0
   -0.8043    0.3907   -0.6633 N   0  0  0  0  0  0  0  0  0  0  0  0
   -2.1607    0.2921   -0.4681 N   0  0  0  0  0  0  0  0  0  0  0  0
   -2.6328    0.5281    0.7181 C   0  0  0  0  0  0  0  0  0  0  0  0
   -4.0487    0.3966    0.9716 C   0  0  0  0  0  0  0  0  0  0  0  0
   -5.0538   -0.0002    0.1115 C   0  0  0  0  0  0  0  0  0  0  0  0
   -6.3336   -0.0028    0.7389 C   0  0  0  0  0  0  0  0  0  0  0  0
   -6.2608    0.3920    2.0561 C   0  0  0  0  0  0  0  0  0  0  0  0
   -4.6584    0.7623    2.5273 S   0  0  0  0  0  0  0  0  0  0  0  0
    1.5660    0.0658   -0.2300 C   0  0  0  0  0  0  0  0  0  0  0  0
    1.9769    1.0037   -1.2054 C   0  0  0  0  0  0  0  0  0  0  0  0
    3.3025    1.0272   -1.6533 C   0  0  0  0  0  0  0  0  0  0  0  0
    4.1811    0.1169   -1.1060 C   0  0  0  0  0  0  0  0  0  0  0  0
    3.7871   -0.7865   -0.1468 C   0  0  0  0  0  0  0  0  0  0  0  0
    2.4903   -0.8361    0.3174 C   0  0  0  0  0  0  0  0  0  0  0  0
    4.8083   -1.5860    0.2615 O   0  0  0  0  0  0  0  0  0  0  0  0
    5.8923   -1.0787   -0.5441 C   0  0  0  0  0  0  0  0  0  0  0  0
    5.4987   -0.0007   -1.4195 O   0  0  0  0  0  0  0  0  0  0  0  0
   -0.5463    0.3615   -1.6453 H   0  0  0  0  0  0  0  0  0  0  0  0
   -2.0001    0.8683    1.5558 H   0  0  0  0  0  0  0  0  0  0  0  0
   -4.8744   -0.2776   -0.9208 H   0  0  0  0  0  0  0  0  0  0  0  0
   -7.2584   -0.2817    0.2490 H   0  0  0  0  0  0  0  0  0  0  0  0
   -7.0706    0.4806    2.7674 H   0  0  0  0  0  0  0  0  0  0  0  0
    1.2813    1.7392   -1.6026 H   0  0  0  0  0  0  0  0  0  0  0  0
    3.6345    1.7430   -2.3976 H   0  0  0  0  0  0  0  0  0  0  0  0
    2.1998   -1.5526    1.0793 H   0  0  0  0  0  0  0  0  0  0  0  0
    6.2894   -1.8982   -1.1541 H   0  0  0  0  0  0  0  0  0  0  0  0
    6.6855   -0.7185    0.1212 H   0  0  0  0  0  0  0  0  0  0  0  0
  1  2  2  0
  2  3  1  0
  3  4  1  0
  4  5  2  3
  5  6  1  0
  6  7  2  0
  7  8  1  0
  8  9  2  0
  9 10  1  0
  2 11  1  0
 11 12  2  0
 12 13  1  0
 13 14  2  0
 14 15  1  0
 15 16  2  0
 15 17  1  0
 17 18  1  0
 18 19  1  0
 10  6  1  0
 16 11  1  0
 19 14  1  0
  3 20  1  0
  5 21  1  0
  7 22  1  0
  8 23  1  0
  9 24  1  0
 12 25  1  0
 13 26  1  0
 16 27  1  0
 18 28  1  0
 18 29  1  0
M  END
$$$$
