
     RDKit          3D

 45 48  0  0  0  0  0  0  0  0999 V2000
    1.0561   -2.1864   -1.2516 O   0  0  0  0  0  0  0  0  0  0  0  0
   -0.0912   -2.0540   -0.8351 C   0  0  0  0  0  0  0  0  0  0  0  0
   -0.7632   -0.8670   -0.8887 N   0  0  0  0  0  0  0  0  0  0  0  0
   -0.4516    0.0548   -0.0481 C   0  0  0  0  0  0  0  0  0  0  0  0
    0.4781   -0.0464    0.9402 N   0  0  0  0  0  0  0  0  0  0  0  0
    1.7197    0.0682    0.6044 C   0  0  0  0  0  0  0  0  0  0  0  0
    2.3027    0.2007   -0.6440 N   0  0  0  0  0  0  0  0  0  0  0  0
    3.6659    0.1072   -0.4207 C   0  0  0  0  0  0  0  0  0  0  0  0
    4.7216    0.1114   -1.3022 C   0  0  0  0  0  0  0  0  0  0  0  0
    6.0132    0.0556   -0.7658 C   0  0  0  0  0  0  0  0  0  0  0  0
    6.2156    0.0068    0.6277 C   0  0  0  0  0  0  0  0  0  0  0  0
    5.1293    0.0128    1.5058 C   0  0  0  0  0  0  0  0  0  0  0  0
    3.8713    0.0673    0.9471 C   0  0  0  0  0  0  0  0  0  0  0  0
    2.6703    0.0572    1.6393 O   0  0  0  0  0  0  0  0  0  0  0  0
   -1.1041    1.2591   -0.0073 N   0  0  0  0  0  0  0  0  0  0  0  0
   -2.1335    1.6972   -0.8216 C   0  0  0  0  0  0  0  0  0  0  0  0
   -2.5232    1.1571   -1.8492 O   0  0  0  0  0  0  0  0  0  0  0  0
   -2.7524    2.9885   -0.4098 C   0  0  0  0  0  0  0  0  0  0  0  0
   -3.2189    3.8521   -1.4088 C   0  0  0  0  0  0  0  0  0  0  0  0
   -3.8045    5.0712   -1.0644 C   0  0  0  0  0  0  0  0  0  0  0  0
   -3.9354    5.4269    0.2775 C   0  0  0  0  0  0  0  0  0  0  0  0
   -3.4902    4.5624    1.2778 C   0  0  0  0  0  0  0  0  0  0  0  0
   -2.9028    3.3412    0.9386 C   0  0  0  0  0  0  0  0  0  0  0  0
   -0.8355   -3.2243   -0.2841 C   0  0  0  0  0  0  0  0  0  0  0  0
   -2.2051   -3.1454    0.0024 C   0  0  0  0  0  0  0  0  0  0  0  0
   -2.8768   -4.2550    0.5198 C   0  0  0  0  0  0  0  0  0  0  0  0
   -2.1862   -5.4445    0.7518 C   0  0  0  0  0  0  0  0  0  0  0  0
   -0.8239   -5.5301    0.4653 C   0  0  0  0  0  0  0  0  0  0  0  0
   -0.1485   -4.4234   -0.0529 C   0  0  0  0  0  0  0  0  0  0  0  0
    1.9348   -0.4338   -1.3543 H   0  0  0  0  0  0  0  0  0  0  0  0
    4.5641    0.1606   -2.3738 H   0  0  0  0  0  0  0  0  0  0  0  0
    6.8730    0.0533   -1.4325 H   0  0  0  0  0  0  0  0  0  0  0  0
    7.2286   -0.0365    1.0217 H   0  0  0  0  0  0  0  0  0  0  0  0
    5.2676   -0.0287    2.5795 H   0  0  0  0  0  0  0  0  0  0  0  0
   -0.7814    1.8533    0.7390 H   0  0  0  0  0  0  0  0  0  0  0  0
   -3.1259    3.5759   -2.4577 H   0  0  0  0  0  0  0  0  0  0  0  0
   -4.1633    5.7396   -1.8433 H   0  0  0  0  0  0  0  0  0  0  0  0
   -4.3965    6.3751    0.5442 H   0  0  0  0  0  0  0  0  0  0  0  0
   -3.6126    4.8365    2.3231 H   0  0  0  0  0  0  0  0  0  0  0  0
   -2.5999    2.6694    1.7370 H   0  0  0  0  0  0  0  0  0  0  0  0
   -2.7597   -2.2285   -0.1853 H   0  0  0  0  0  0  0  0  0  0  0  0
   -3.9402   -4.1916    0.7374 H   0  0  0  0  0  0  0  0  0  0  0  0
   -2.7118   -6.3076    1.1530 H   0  0  0  0  0  0  0  0  0  0  0  0
   -0.2875   -6.4588    0.6435 H   0  0  0  0  0  0  0  0  0  0  0  0
    0.9139   -4.4993   -0.2749 H   0  0  0  0  0  0  0  0  0  0  0  0
  1  2  2  0
  2  3  1  0
  3  4  2  3
  4  5  1  0
  5  6  2  3
  6  7  1  0
  7  8  1  0
  8  9  2  0
  9 10  1  0
 10 11  2  0
 11 12  1  0
 12 13  2  0
 13 14  1  0
  4 15  1  0
 15 16  1  0
 16 17  2  0
 16 18  1  0
 18 19  2  0
 19 20  1  0
 20 21  2  0
 21 22  1  0
 22 23  2  0
  2 24  1  0
 24 25  2  0
 25 26  1  0
 26 27  2  0
 27 28  1  0
 28 29  2  0
 14  6  1  0
 23 18  1  0
 29 24  1  0
 13  8  1  0
  7 30  1  0
  9 31  1  0
 10 32  1  0
 11 33  1  0
 12 34  1  0
 15 35  1  0
 19 36  1  0
 20 37  1  0
 21 38  1  0
 22 39  1  0
 23 40  1  0
 25 41  1  0
 26 42  1  0
 27 43  1  0
 28 44  1  0
 29 45  1  0
M  END
$$$$
