
     RDKit          3D

 48 50  0  0  0  0  0  0  0  0999 V2000
    0.7411   -0.2845    0.2772 C   0  0  0  0  0  0  0  0  0  0  0  0
    0.4688    0.3079   -0.8941 C   0  0  0  0  0  0  0  0  0  0  0  0
    1.4370    0.7885   -1.9074 C   0  0  0  0  0  0  0  0  0  0  0  0
    2.7718    0.9486   -1.9030 C   0  0  0  0  0  0  0  0  0  0  0  0
    3.6279    0.7172   -0.7979 C   0  0  0  0  0  0  0  0  0  0  0  0
    4.7718   -0.5701   -0.8357 S   0  0  0  0  0  0  0  0  0  0  0  0
    5.3253   -0.1279    0.7113 C   0  0  0  0  0  0  0  0  0  0  0  0
    6.3189   -0.8014    1.3756 N   0  0  0  0  0  0  0  0  0  0  0  0
    7.0085   -1.9096    0.9412 C   0  0  0  0  0  0  0  0  0  0  0  0
    8.0232   -2.3768    1.9561 C   0  0  0  0  0  0  0  0  0  0  0  0
    6.8603   -2.5177   -0.1118 O   0  0  0  0  0  0  0  0  0  0  0  0
    4.7515    0.9203    1.2550 N   0  0  0  0  0  0  0  0  0  0  0  0
    3.8047    1.4048    0.3899 C   0  0  0  0  0  0  0  0  0  0  0  0
    3.0919    2.4974    0.6983 O   0  0  0  0  0  0  0  0  0  0  0  0
    0.6622    1.1700   -3.0896 C   0  0  0  0  0  0  0  0  0  0  0  0
   -0.6411    1.0021   -2.7935 C   0  0  0  0  0  0  0  0  0  0  0  0
   -1.7711    1.3666   -3.6960 C   0  0  0  0  0  0  0  0  0  0  0  0
   -0.7973    0.5050   -1.4837 N   0  0  0  0  0  0  0  0  0  0  0  0
   -2.0425    0.3180   -0.8336 C   0  0  0  0  0  0  0  0  0  0  0  0
   -3.0230   -0.5246   -1.3708 C   0  0  0  0  0  0  0  0  0  0  0  0
   -4.2569   -0.7050   -0.7308 C   0  0  0  0  0  0  0  0  0  0  0  0
   -4.5375   -0.0433    0.4636 C   0  0  0  0  0  0  0  0  0  0  0  0
   -5.7512   -0.1677    1.1702 N   0  0  0  0  0  0  0  0  0  0  0  0
   -6.8597   -0.9151    0.8157 C   0  0  0  0  0  0  0  0  0  0  0  0
   -7.9720   -0.7962    1.8280 C   0  0  0  0  0  0  0  0  0  0  0  0
   -7.0027   -1.5936   -0.1948 O   0  0  0  0  0  0  0  0  0  0  0  0
   -3.5624    0.7978    1.0109 C   0  0  0  0  0  0  0  0  0  0  0  0
   -2.3306    0.9745    0.3702 C   0  0  0  0  0  0  0  0  0  0  0  0
    1.7446   -0.4631    0.6331 H   0  0  0  0  0  0  0  0  0  0  0  0
   -0.0545   -0.6574    0.9120 H   0  0  0  0  0  0  0  0  0  0  0  0
    3.2611    1.3107   -2.8044 H   0  0  0  0  0  0  0  0  0  0  0  0
    6.5266   -0.4060    2.2814 H   0  0  0  0  0  0  0  0  0  0  0  0
    7.5358   -3.0392    2.6765 H   0  0  0  0  0  0  0  0  0  0  0  0
    8.8242   -2.9197    1.4456 H   0  0  0  0  0  0  0  0  0  0  0  0
    8.4715   -1.5289    2.4817 H   0  0  0  0  0  0  0  0  0  0  0  0
    3.3982    2.7843    1.5746 H   0  0  0  0  0  0  0  0  0  0  0  0
    1.0684    1.5618   -4.0080 H   0  0  0  0  0  0  0  0  0  0  0  0
   -1.4118    1.8848   -4.5922 H   0  0  0  0  0  0  0  0  0  0  0  0
   -2.4736    2.0382   -3.1922 H   0  0  0  0  0  0  0  0  0  0  0  0
   -2.3086    0.4745   -4.0305 H   0  0  0  0  0  0  0  0  0  0  0  0
   -2.8238   -1.0731   -2.2881 H   0  0  0  0  0  0  0  0  0  0  0  0
   -4.9717   -1.3779   -1.1944 H   0  0  0  0  0  0  0  0  0  0  0  0
   -5.8180    0.3646    2.0283 H   0  0  0  0  0  0  0  0  0  0  0  0
   -7.5732   -0.7952    2.8465 H   0  0  0  0  0  0  0  0  0  0  0  0
   -8.6468   -1.6512    1.7292 H   0  0  0  0  0  0  0  0  0  0  0  0
   -8.5284    0.1274    1.6488 H   0  0  0  0  0  0  0  0  0  0  0  0
   -3.7421    1.3336    1.9389 H   0  0  0  0  0  0  0  0  0  0  0  0
   -1.5946    1.6464    0.8061 H   0  0  0  0  0  0  0  0  0  0  0  0
  1  2  2  0
  2  3  1  0
  3  4  2  3
  4  5  1  0
  5  6  1  0
  6  7  1  0
  7  8  1  0
  8  9  1  0
  9 10  1  0
  9 11  2  0
  7 12  2  0
 12 13  1  0
 13 14  1  0
  3 15  1  0
 15 16  2  0
 16 17  1  0
 16 18  1  0
 18 19  1  0
 19 20  2  0
 20 21  1  0
 21 22  2  0
 22 23  1  0
 23 24  1  0
 24 25  1  0
 24 26  2  0
 22 27  1  0
 27 28  2  0
 18  2  1  0
 28 19  1  0
 13  5  2  0
  1 29  1  0
  1 30  1  0
  4 31  1  0
  8 32  1  0
 10 33  1  0
 10 34  1  0
 10 35  1  0
 14 36  1  0
 15 37  1  0
 17 38  1  0
 17 39  1  0
 17 40  1  0
 20 41  1  0
 21 42  1  0
 23 43  1  0
 25 44  1  0
 25 45  1  0
 25 46  1  0
 27 47  1  0
 28 48  1  0
M  END
$$$$
