
     RDKit          3D

 42 44  0  0  0  0  0  0  0  0999 V2000
    7.5963   -2.1104   -2.2003 C   0  0  0  0  0  0  0  0  0  0  0  0
    7.3692   -1.2096   -1.1237 O   0  0  0  0  0  0  0  0  0  0  0  0
    6.0812   -0.8021   -0.9153 C   0  0  0  0  0  0  0  0  0  0  0  0
    4.9649   -1.1972   -1.6547 C   0  0  0  0  0  0  0  0  0  0  0  0
    3.6940   -0.7034   -1.3330 C   0  0  0  0  0  0  0  0  0  0  0  0
    3.5338    0.1840   -0.2608 C   0  0  0  0  0  0  0  0  0  0  0  0
    2.1982    0.7312    0.1162 C   0  0  0  0  0  0  0  0  0  0  0  0
    2.1488    1.8800    0.5354 O   0  0  0  0  0  0  0  0  0  0  0  0
    1.1546   -0.1696   -0.0151 N   0  0  0  0  0  0  0  0  0  0  0  0
   -0.1934    0.0797    0.2183 C   0  0  0  0  0  0  0  0  0  0  0  0
   -0.7661    1.6476    0.5574 S   0  0  0  0  0  0  0  0  0  0  0  0
   -2.3772    1.1210    0.6791 C   0  0  0  0  0  0  0  0  0  0  0  0
   -2.4978   -0.2385    0.4698 C   0  0  0  0  0  0  0  0  0  0  0  0
   -1.2294   -0.8386    0.1864 C   0  0  0  0  0  0  0  0  0  0  0  0
   -1.0332   -2.2281   -0.0997 C   0  0  0  0  0  0  0  0  0  0  0  0
   -0.8431   -3.3476   -0.3379 N   0  0  0  0  0  0  0  0  0  0  0  0
   -3.8412   -0.8971    0.5277 C   0  0  0  0  0  0  0  0  0  0  0  0
   -4.8369   -0.0295    1.3159 C   0  0  0  0  0  0  0  0  0  0  0  0
   -4.7915    1.3849    0.9040 N   0  0  0  0  0  0  0  0  0  0  0  0
   -5.9103    2.2077    0.8554 C   0  0  0  0  0  0  0  0  0  0  0  0
   -7.2626    1.5423    0.8592 C   0  0  0  0  0  0  0  0  0  0  0  0
   -5.8264    3.4347    0.7995 O   0  0  0  0  0  0  0  0  0  0  0  0
   -3.4922    2.0707    0.9977 C   0  0  0  0  0  0  0  0  0  0  0  0
    4.6545    0.5952    0.4666 C   0  0  0  0  0  0  0  0  0  0  0  0
    5.9186    0.0975    0.1418 C   0  0  0  0  0  0  0  0  0  0  0  0
    8.6676   -2.3313   -2.2313 H   0  0  0  0  0  0  0  0  0  0  0  0
    7.3217   -1.6573   -3.1586 H   0  0  0  0  0  0  0  0  0  0  0  0
    7.0657   -3.0552   -2.0427 H   0  0  0  0  0  0  0  0  0  0  0  0
    5.0502   -1.8801   -2.4940 H   0  0  0  0  0  0  0  0  0  0  0  0
    2.8492   -0.9991   -1.9495 H   0  0  0  0  0  0  0  0  0  0  0  0
    1.4011   -1.1295   -0.2251 H   0  0  0  0  0  0  0  0  0  0  0  0
   -4.2062   -1.0301   -0.4983 H   0  0  0  0  0  0  0  0  0  0  0  0
   -3.7736   -1.8873    0.9910 H   0  0  0  0  0  0  0  0  0  0  0  0
   -4.6005   -0.0520    2.3875 H   0  0  0  0  0  0  0  0  0  0  0  0
   -5.8384   -0.4502    1.2019 H   0  0  0  0  0  0  0  0  0  0  0  0
   -7.4508    1.0778    1.8305 H   0  0  0  0  0  0  0  0  0  0  0  0
   -7.3256    0.8034    0.0560 H   0  0  0  0  0  0  0  0  0  0  0  0
   -8.0363    2.2961    0.6831 H   0  0  0  0  0  0  0  0  0  0  0  0
   -3.3909    2.4455    2.0232 H   0  0  0  0  0  0  0  0  0  0  0  0
   -3.4803    2.9248    0.3109 H   0  0  0  0  0  0  0  0  0  0  0  0
    4.5483    1.3019    1.2873 H   0  0  0  0  0  0  0  0  0  0  0  0
    6.7857    0.4182    0.7150 H   0  0  0  0  0  0  0  0  0  0  0  0
  1  2  1  0
  2  3  1  0
  3  4  2  0
  4  5  1  0
  5  6  2  0
  6  7  1  0
  7  8  2  0
  7  9  1  0
  9 10  1  0
 10 11  1  0
 11 12  1  0
 12 13  2  0
 13 14  1  0
 14 15  1  0
 15 16  3  0
 13 17  1  0
 17 18  1  0
 18 19  1  0
 19 20  1  0
 20 21  1  0
 20 22  2  0
 19 23  1  0
  6 24  1  0
 24 25  2  0
 25  3  1  0
 14 10  2  0
 23 12  1  0
  1 26  1  0
  1 27  1  0
  1 28  1  0
  4 29  1  0
  5 30  1  0
  9 31  1  0
 17 32  1  0
 17 33  1  0
 18 34  1  0
 18 35  1  0
 21 36  1  0
 21 37  1  0
 21 38  1  0
 23 39  1  0
 23 40  1  0
 24 41  1  0
 25 42  1  0
M  END
$$$$
