
     RDKit          3D

 55 56  0  0  0  0  0  0  0  0999 V2000
   -5.1674    3.2502    0.9146 C   0  0  0  0  0  0  0  0  0  0  0  0
   -4.5369    1.8829    1.1997 C   0  0  0  0  0  0  0  0  0  0  0  0
   -3.0848    1.9565    1.1615 N   0  0  0  0  0  0  0  0  0  0  0  0
   -2.3471    2.4633    2.2061 C   0  0  0  0  0  0  0  0  0  0  0  0
   -2.8449    2.8881    3.2417 O   0  0  0  0  0  0  0  0  0  0  0  0
   -0.8565    2.4438    1.9369 C   0  0  0  0  0  0  0  0  0  0  0  0
   -0.0743    2.9012    3.1613 C   0  0  0  0  0  0  0  0  0  0  0  0
    1.7283    2.9560    2.8549 S   0  0  0  0  0  0  0  0  0  0  0  0
    2.0845    1.1706    2.6982 C   0  0  0  0  0  0  0  0  0  0  0  0
    2.5113    0.8498    1.2722 C   0  0  0  0  0  0  0  0  0  0  0  0
    2.7056   -0.6396    1.0826 C   0  0  0  0  0  0  0  0  0  0  0  0
    2.4053   -1.4742    1.9279 O   0  0  0  0  0  0  0  0  0  0  0  0
    3.2250   -0.9603   -0.1505 N   0  0  0  0  0  0  0  0  0  0  0  0
    3.4826   -2.3343   -0.5510 C   0  0  0  0  0  0  0  0  0  0  0  0
    2.1850   -3.0578   -0.9245 C   0  0  0  0  0  0  0  0  0  0  0  0
    4.5003   -2.3507   -1.6783 C   0  0  0  0  0  0  0  0  0  0  0  0
    4.1737   -1.9298   -2.9787 C   0  0  0  0  0  0  0  0  0  0  0  0
    5.1337   -1.9373   -3.9936 C   0  0  0  0  0  0  0  0  0  0  0  0
    6.4336   -2.3579   -3.7213 C   0  0  0  0  0  0  0  0  0  0  0  0
    6.7761   -2.7683   -2.4341 C   0  0  0  0  0  0  0  0  0  0  0  0
    5.8176   -2.7622   -1.4183 C   0  0  0  0  0  0  0  0  0  0  0  0
   -5.0094    0.8055    0.2390 C   0  0  0  0  0  0  0  0  0  0  0  0
   -4.9609    0.9790   -1.1543 C   0  0  0  0  0  0  0  0  0  0  0  0
   -5.3702   -0.0423   -2.0147 C   0  0  0  0  0  0  0  0  0  0  0  0
   -5.8271   -1.2518   -1.4956 C   0  0  0  0  0  0  0  0  0  0  0  0
   -5.8734   -1.4427   -0.1167 C   0  0  0  0  0  0  0  0  0  0  0  0
   -5.4634   -0.4233    0.7450 C   0  0  0  0  0  0  0  0  0  0  0  0
   -4.8450    3.6590   -0.0500 H   0  0  0  0  0  0  0  0  0  0  0  0
   -6.2621    3.1872    0.9080 H   0  0  0  0  0  0  0  0  0  0  0  0
   -4.8790    3.9798    1.6800 H   0  0  0  0  0  0  0  0  0  0  0  0
   -4.8271    1.6037    2.2216 H   0  0  0  0  0  0  0  0  0  0  0  0
   -2.6133    1.5957    0.3429 H   0  0  0  0  0  0  0  0  0  0  0  0
   -0.6606    3.1066    1.0857 H   0  0  0  0  0  0  0  0  0  0  0  0
   -0.5800    1.4218    1.6543 H   0  0  0  0  0  0  0  0  0  0  0  0
   -0.3824    3.9138    3.4469 H   0  0  0  0  0  0  0  0  0  0  0  0
   -0.2706    2.2549    4.0245 H   0  0  0  0  0  0  0  0  0  0  0  0
    1.2164    0.5780    3.0055 H   0  0  0  0  0  0  0  0  0  0  0  0
    2.8959    0.9287    3.3934 H   0  0  0  0  0  0  0  0  0  0  0  0
    3.4555    1.3555    1.0355 H   0  0  0  0  0  0  0  0  0  0  0  0
    1.7521    1.1763    0.5519 H   0  0  0  0  0  0  0  0  0  0  0  0
    3.5079   -0.2215   -0.7811 H   0  0  0  0  0  0  0  0  0  0  0  0
    3.9031   -2.8558    0.3191 H   0  0  0  0  0  0  0  0  0  0  0  0
    1.5168   -3.1331   -0.0590 H   0  0  0  0  0  0  0  0  0  0  0  0
    2.3888   -4.0742   -1.2793 H   0  0  0  0  0  0  0  0  0  0  0  0
    1.6315   -2.5285   -1.7080 H   0  0  0  0  0  0  0  0  0  0  0  0
    3.1674   -1.5914   -3.2150 H   0  0  0  0  0  0  0  0  0  0  0  0
    4.8666   -1.6162   -4.9974 H   0  0  0  0  0  0  0  0  0  0  0  0
    7.1806   -2.3655   -4.5113 H   0  0  0  0  0  0  0  0  0  0  0  0
    7.7910   -3.0947   -2.2200 H   0  0  0  0  0  0  0  0  0  0  0  0
    6.1071   -3.0839   -0.4185 H   0  0  0  0  0  0  0  0  0  0  0  0
   -4.6026    1.9119   -1.5836 H   0  0  0  0  0  0  0  0  0  0  0  0
   -5.3306    0.1043   -3.0917 H   0  0  0  0  0  0  0  0  0  0  0  0
   -6.1452   -2.0464   -2.1655 H   0  0  0  0  0  0  0  0  0  0  0  0
   -6.2277   -2.3873    0.2906 H   0  0  0  0  0  0  0  0  0  0  0  0
   -5.5009   -0.5929    1.8204 H   0  0  0  0  0  0  0  0  0  0  0  0
  1  2  1  0
  2  3  1  0
  3  4  1  0
  4  5  2  0
  4  6  1  0
  6  7  1  0
  7  8  1  0
  8  9  1  0
  9 10  1  0
 10 11  1  0
 11 12  2  0
 11 13  1  0
 13 14  1  0
 14 15  1  0
 14 16  1  0
 16 17  2  0
 17 18  1  0
 18 19  2  0
 19 20  1  0
 20 21  2  0
  2 22  1  0
 22 23  2  0
 23 24  1  0
 24 25  2  0
 25 26  1  0
 26 27  2  0
 21 16  1  0
 27 22  1  0
  1 28  1  0
  1 29  1  0
  1 30  1  0
  2 31  1  0
  3 32  1  0
  6 33  1  0
  6 34  1  0
  7 35  1  0
  7 36  1  0
  9 37  1  0
  9 38  1  0
 10 39  1  0
 10 40  1  0
 13 41  1  0
 14 42  1  0
 15 43  1  0
 15 44  1  0
 15 45  1  0
 17 46  1  0
 18 47  1  0
 19 48  1  0
 20 49  1  0
 21 50  1  0
 23 51  1  0
 24 52  1  0
 25 53  1  0
 26 54  1  0
 27 55  1  0
M  END
$$$$
