
     RDKit          3D

 36 37  0  0  0  0  0  0  0  0999 V2000
   -2.5511   -1.8099   -0.7400 C   0  0  0  0  0  0  0  0  0  0  0  0
   -2.3720   -1.4723    0.7437 C   0  0  0  0  0  0  0  0  0  0  0  0
   -3.0375   -0.1427    1.1118 C   0  0  0  0  0  0  0  0  0  0  0  0
   -2.3236    1.0745    0.4972 C   0  0  0  0  0  0  0  0  0  0  0  0
   -2.6103    2.3237    1.3346 C   0  0  0  0  0  0  0  0  0  0  0  0
   -0.8117    0.8537    0.3274 C   0  0  0  0  0  0  0  0  0  0  0  0
   -0.3352   -0.1233    1.3219 N   0  0  0  0  0  0  0  0  0  0  0  0
    1.2871   -0.0003    1.8065 S   0  0  0  0  0  6  0  0  0  0  0  0
    1.5434    1.3834    2.1488 O   0  0  0  0  0  0  0  0  0  0  0  0
    1.5893   -1.0729    2.7280 O   0  0  0  0  0  0  0  0  0  0  0  0
    2.3147   -0.2671    0.3703 C   0  0  0  0  0  0  0  0  0  0  0  0
    2.9481    0.6222   -0.4790 C   0  0  0  0  0  0  0  0  0  0  0  0
    3.6866   -0.0204   -1.5375 C   0  0  0  0  0  0  0  0  0  0  0  0
    4.4465    0.6607   -2.5706 C   0  0  0  0  0  0  0  0  0  0  0  0
    5.0864    0.1434   -3.4725 O   0  0  0  0  0  0  0  0  0  0  0  0
    4.3995    2.0094   -2.4791 O   0  0  0  0  0  0  0  0  0  0  0  0
    3.5609   -1.3869   -1.4160 C   0  0  0  0  0  0  0  0  0  0  0  0
    4.2283   -2.6248   -2.4118 Cl  0  0  0  0  0  0  0  0  0  0  0  0
    2.6105   -1.8800   -0.0997 S   0  0  0  0  0  0  0  0  0  0  0  0
   -0.8895   -1.4905    1.1650 C   0  0  0  0  0  0  0  0  0  0  0  0
   -3.6134   -1.8195   -1.0065 H   0  0  0  0  0  0  0  0  0  0  0  0
   -2.1473   -2.8048   -0.9573 H   0  0  0  0  0  0  0  0  0  0  0  0
   -2.0474   -1.0968   -1.3976 H   0  0  0  0  0  0  0  0  0  0  0  0
   -2.8836   -2.2711    1.2974 H   0  0  0  0  0  0  0  0  0  0  0  0
   -4.0914   -0.1431    0.8070 H   0  0  0  0  0  0  0  0  0  0  0  0
   -3.0408   -0.0572    2.2072 H   0  0  0  0  0  0  0  0  0  0  0  0
   -2.7420    1.2584   -0.5012 H   0  0  0  0  0  0  0  0  0  0  0  0
   -2.1866    3.2151    0.8599 H   0  0  0  0  0  0  0  0  0  0  0  0
   -2.1792    2.2379    2.3379 H   0  0  0  0  0  0  0  0  0  0  0  0
   -3.6889    2.4823    1.4386 H   0  0  0  0  0  0  0  0  0  0  0  0
   -0.5943    0.4708   -0.6764 H   0  0  0  0  0  0  0  0  0  0  0  0
   -0.2822    1.8082    0.4145 H   0  0  0  0  0  0  0  0  0  0  0  0
    2.8898    1.6974   -0.3402 H   0  0  0  0  0  0  0  0  0  0  0  0
    4.9602    2.3029   -3.2276 H   0  0  0  0  0  0  0  0  0  0  0  0
   -0.2983   -2.0724    0.4534 H   0  0  0  0  0  0  0  0  0  0  0  0
   -0.8251   -1.9880    2.1403 H   0  0  0  0  0  0  0  0  0  0  0  0
  1  2  1  0
  2  3  1  0
  3  4  1  0
  4  5  1  0
  4  6  1  0
  6  7  1  0
  7  8  1  0
  8  9  2  0
  8 10  2  0
  8 11  1  0
 11 12  2  0
 12 13  1  0
 13 14  1  0
 14 15  2  0
 14 16  1  0
 13 17  2  0
 17 18  1  0
 17 19  1  0
  7 20  1  0
 20  2  1  0
 19 11  1  0
  1 21  1  0
  1 22  1  0
  1 23  1  0
  2 24  1  0
  3 25  1  0
  3 26  1  0
  4 27  1  0
  5 28  1  0
  5 29  1  0
  5 30  1  0
  6 31  1  0
  6 32  1  0
 12 33  1  0
 16 34  1  0
 20 35  1  0
 20 36  1  0
M  END
$$$$
