
     RDKit          3D

 52 56  0  0  0  0  0  0  0  0999 V2000
   -5.8409    3.4851    0.4797 C   0  0  0  0  0  0  0  0  0  0  0  0
   -4.8700    2.3440    0.5479 C   0  0  0  0  0  0  0  0  0  0  0  0
   -4.3096    1.9595    1.7691 C   0  0  0  0  0  0  0  0  0  0  0  0
   -3.3793    0.9172    1.8237 C   0  0  0  0  0  0  0  0  0  0  0  0
   -2.9736    0.2480    0.6606 C   0  0  0  0  0  0  0  0  0  0  0  0
   -2.0542   -0.8278    0.7930 N   0  0  0  0  0  0  0  0  0  0  0  0
   -1.6691   -1.6448   -0.2315 C   0  0  0  0  0  0  0  0  0  0  0  0
   -0.4383   -1.8850   -0.8216 C   0  0  0  0  0  0  0  0  0  0  0  0
    0.8154   -1.2170   -0.5189 C   0  0  0  0  0  0  0  0  0  0  0  0
    2.0013   -1.9513   -0.5078 C   0  0  0  0  0  0  0  0  0  0  0  0
    3.2243   -1.3305   -0.2149 C   0  0  0  0  0  0  0  0  0  0  0  0
    3.3162    0.0417    0.0658 C   0  0  0  0  0  0  0  0  0  0  0  0
    4.5247    0.6471    0.3571 N   0  0  0  0  0  0  0  0  0  0  0  0
    4.6089    1.9660    1.0024 C   0  0  0  0  0  0  0  0  0  0  0  0
    5.9592    2.1121    1.7245 C   0  0  0  0  0  0  0  0  0  0  0  0
    7.1007    1.9835    0.8653 O   0  0  0  0  0  0  0  0  0  0  0  0
    6.8563    1.1547   -0.2798 C   0  0  0  0  0  0  0  0  0  0  0  0
    5.8098    0.0513   -0.0460 C   0  0  0  0  0  0  0  0  0  0  0  0
    2.1123    0.7629    0.0331 C   0  0  0  0  0  0  0  0  0  0  0  0
    0.8830    0.1523   -0.2594 C   0  0  0  0  0  0  0  0  0  0  0  0
   -0.5252   -2.8829   -1.7643 N   0  0  0  0  0  0  0  0  0  0  0  0
   -1.7834   -3.2685   -1.7752 C   0  0  0  0  0  0  0  0  0  0  0  0
   -2.3680   -4.2360   -2.5442 N   0  0  0  0  0  0  0  0  0  0  0  0
   -3.6238   -4.4666   -2.3162 C   0  0  0  0  0  0  0  0  0  0  0  0
   -4.4827   -3.7865   -1.3088 C   0  0  0  0  0  0  0  0  0  0  0  0
   -3.8685   -2.8354   -0.5939 C   0  0  0  0  0  0  0  0  0  0  0  0
   -2.5239   -2.5568   -0.8297 N   0  0  0  0  0  0  0  0  0  0  0  0
   -3.5382    0.6400   -0.5589 C   0  0  0  0  0  0  0  0  0  0  0  0
   -4.4679    1.6840   -0.6170 C   0  0  0  0  0  0  0  0  0  0  0  0
   -6.5537    3.3425   -0.3394 H   0  0  0  0  0  0  0  0  0  0  0  0
   -6.4214    3.5605    1.4053 H   0  0  0  0  0  0  0  0  0  0  0  0
   -5.3031    4.4250    0.3219 H   0  0  0  0  0  0  0  0  0  0  0  0
   -4.5964    2.4642    2.6890 H   0  0  0  0  0  0  0  0  0  0  0  0
   -2.9763    0.6241    2.7903 H   0  0  0  0  0  0  0  0  0  0  0  0
   -1.3059   -0.5302    1.4228 H   0  0  0  0  0  0  0  0  0  0  0  0
    1.9834   -3.0180   -0.7245 H   0  0  0  0  0  0  0  0  0  0  0  0
    4.1087   -1.9610   -0.1941 H   0  0  0  0  0  0  0  0  0  0  0  0
    3.8142    2.0936    1.7463 H   0  0  0  0  0  0  0  0  0  0  0  0
    4.5079    2.7457    0.2384 H   0  0  0  0  0  0  0  0  0  0  0  0
    6.0518    1.3530    2.5104 H   0  0  0  0  0  0  0  0  0  0  0  0
    6.0223    3.0916    2.2093 H   0  0  0  0  0  0  0  0  0  0  0  0
    6.5379    1.8101   -1.0992 H   0  0  0  0  0  0  0  0  0  0  0  0
    7.8125    0.7096   -0.5728 H   0  0  0  0  0  0  0  0  0  0  0  0
    5.7127   -0.5182   -0.9773 H   0  0  0  0  0  0  0  0  0  0  0  0
    6.1503   -0.6238    0.7476 H   0  0  0  0  0  0  0  0  0  0  0  0
    2.1071    1.8359    0.2034 H   0  0  0  0  0  0  0  0  0  0  0  0
   -0.0082    0.7729   -0.3074 H   0  0  0  0  0  0  0  0  0  0  0  0
   -4.1346   -5.2404   -2.9135 H   0  0  0  0  0  0  0  0  0  0  0  0
   -5.5177   -4.0729   -1.1955 H   0  0  0  0  0  0  0  0  0  0  0  0
   -4.3678   -2.2632    0.1773 H   0  0  0  0  0  0  0  0  0  0  0  0
   -3.2463    0.1608   -1.4895 H   0  0  0  0  0  0  0  0  0  0  0  0
   -4.8732    1.9781   -1.5829 H   0  0  0  0  0  0  0  0  0  0  0  0
  1  2  1  0
  2  3  2  0
  3  4  1  0
  4  5  2  0
  5  6  1  0
  6  7  1  0
  7  8  2  0
  8  9  1  0
  9 10  2  0
 10 11  1  0
 11 12  2  0
 12 13  1  0
 13 14  1  0
 14 15  1  0
 15 16  1  0
 16 17  1  0
 17 18  1  0
 12 19  1  0
 19 20  2  0
  8 21  1  0
 21 22  2  0
 22 23  1  0
 23 24  2  0
 24 25  1  0
 25 26  2  0
 26 27  1  0
  5 28  1  0
 28 29  2  0
 29  2  1  0
 27  7  1  0
 20  9  1  0
 27 22  1  0
 18 13  1  0
  1 30  1  0
  1 31  1  0
  1 32  1  0
  3 33  1  0
  4 34  1  0
  6 35  1  0
 10 36  1  0
 11 37  1  0
 14 38  1  0
 14 39  1  0
 15 40  1  0
 15 41  1  0
 17 42  1  0
 17 43  1  0
 18 44  1  0
 18 45  1  0
 19 46  1  0
 20 47  1  0
 24 48  1  0
 25 49  1  0
 26 50  1  0
 28 51  1  0
 29 52  1  0
M  END
$$$$
