
     RDKit          3D

 38 39  0  0  0  0  0  0  0  0999 V2000
   -4.3660    2.2004    2.8449 C   0  0  0  0  0  0  0  0  0  0  0  0
   -4.5813    1.4552    1.6551 O   0  0  0  0  0  0  0  0  0  0  0  0
   -3.4922    0.8611    1.0668 C   0  0  0  0  0  0  0  0  0  0  0  0
   -2.1852    0.9407    1.5639 C   0  0  0  0  0  0  0  0  0  0  0  0
   -1.1366    0.3029    0.8981 C   0  0  0  0  0  0  0  0  0  0  0  0
   -1.3977   -0.4152   -0.2689 C   0  0  0  0  0  0  0  0  0  0  0  0
   -0.2854   -1.0947   -0.9875 C   0  0  0  0  0  0  0  0  0  0  0  0
   -0.0965   -0.8537   -2.2500 N   0  0  0  0  0  0  0  0  0  0  0  0
    0.5066   -1.9708   -0.2712 N   0  0  0  0  0  0  0  0  0  0  0  0
    1.8011   -2.0789   -0.8151 O   0  0  0  0  0  0  0  0  0  0  0  0
    2.6922   -1.2375   -0.1898 C   0  0  0  0  0  0  0  0  0  0  0  0
    2.4215   -0.5959    0.8203 O   0  0  0  0  0  0  0  0  0  0  0  0
    3.9933   -1.2449   -0.9594 C   0  0  0  0  0  0  0  0  0  0  0  0
    5.0665   -0.4962   -0.2273 C   0  0  0  0  0  0  0  0  0  0  0  0
    5.3784    0.8474   -0.3047 C   0  0  0  0  0  0  0  0  0  0  0  0
    6.4726    1.1984    0.5376 C   0  0  0  0  0  0  0  0  0  0  0  0
    6.9623    0.1118    1.2263 C   0  0  0  0  0  0  0  0  0  0  0  0
    6.1072   -1.3213    0.8569 S   0  0  0  0  0  0  0  0  0  0  0  0
   -2.6959   -0.5018   -0.7811 C   0  0  0  0  0  0  0  0  0  0  0  0
   -3.7493    0.1325   -0.1156 C   0  0  0  0  0  0  0  0  0  0  0  0
   -5.0574    0.1040   -0.5326 O   0  0  0  0  0  0  0  0  0  0  0  0
   -5.3641   -0.6449   -1.7002 C   0  0  0  0  0  0  0  0  0  0  0  0
   -3.9821    1.5617    3.6472 H   0  0  0  0  0  0  0  0  0  0  0  0
   -3.7017    3.0516    2.6632 H   0  0  0  0  0  0  0  0  0  0  0  0
   -5.3324    2.5972    3.1705 H   0  0  0  0  0  0  0  0  0  0  0  0
   -1.9487    1.4975    2.4648 H   0  0  0  0  0  0  0  0  0  0  0  0
   -0.1234    0.3949    1.2835 H   0  0  0  0  0  0  0  0  0  0  0  0
   -0.7703   -0.1637   -2.5974 H   0  0  0  0  0  0  0  0  0  0  0  0
    0.5258   -1.8326    0.7391 H   0  0  0  0  0  0  0  0  0  0  0  0
    4.2991   -2.2838   -1.1286 H   0  0  0  0  0  0  0  0  0  0  0  0
    3.8157   -0.7749   -1.9335 H   0  0  0  0  0  0  0  0  0  0  0  0
    4.8431    1.5510   -0.9318 H   0  0  0  0  0  0  0  0  0  0  0  0
    6.8785    2.1978    0.6347 H   0  0  0  0  0  0  0  0  0  0  0  0
    7.7823    0.0889    1.9309 H   0  0  0  0  0  0  0  0  0  0  0  0
   -2.8576   -1.0799   -1.6849 H   0  0  0  0  0  0  0  0  0  0  0  0
   -4.8551   -0.2332   -2.5779 H   0  0  0  0  0  0  0  0  0  0  0  0
   -6.4416   -0.5667   -1.8742 H   0  0  0  0  0  0  0  0  0  0  0  0
   -5.1255   -1.7048   -1.5640 H   0  0  0  0  0  0  0  0  0  0  0  0
  1  2  1  0
  2  3  1  0
  3  4  2  0
  4  5  1  0
  5  6  2  0
  6  7  1  0
  7  8  2  3
  7  9  1  0
  9 10  1  0
 10 11  1  0
 11 12  2  0
 11 13  1  0
 13 14  1  0
 14 15  2  0
 15 16  1  0
 16 17  2  0
 17 18  1  0
  6 19  1  0
 19 20  2  0
 20 21  1  0
 21 22  1  0
 20  3  1  0
 18 14  1  0
  1 23  1  0
  1 24  1  0
  1 25  1  0
  4 26  1  0
  5 27  1  0
  8 28  1  0
  9 29  1  0
 13 30  1  0
 13 31  1  0
 15 32  1  0
 16 33  1  0
 17 34  1  0
 19 35  1  0
 22 36  1  0
 22 37  1  0
 22 38  1  0
M  END
$$$$
