
     RDKit          3D

 39 41  0  0  0  0  0  0  0  0999 V2000
   -7.2518    1.7452   -0.8402 C   0  0  0  0  0  0  0  0  0  0  0  0
   -6.6574    0.7231   -0.0500 O   0  0  0  0  0  0  0  0  0  0  0  0
   -5.3103    0.5381   -0.1918 C   0  0  0  0  0  0  0  0  0  0  0  0
   -4.4724    1.2315   -1.0634 C   0  0  0  0  0  0  0  0  0  0  0  0
   -3.1017    0.9419   -1.1098 C   0  0  0  0  0  0  0  0  0  0  0  0
   -2.5563   -0.0539   -0.2914 C   0  0  0  0  0  0  0  0  0  0  0  0
   -1.1582   -0.3608   -0.3357 N   0  0  0  0  0  0  0  0  0  0  0  0
   -0.5838   -1.6165   -0.1018 C   0  0  0  0  0  0  0  0  0  0  0  0
   -1.2682   -2.7563    0.0087 O   0  0  0  0  0  0  0  0  0  0  0  0
    0.7847   -1.4673   -0.0646 C   0  0  0  0  0  0  0  0  0  0  0  0
    1.0793   -0.1302   -0.3851 C   0  0  0  0  0  0  0  0  0  0  0  0
    2.3064    0.4358   -0.4875 N   0  0  0  0  0  0  0  0  0  0  0  0
    3.4622   -0.2228   -0.0247 N   0  0  0  0  0  0  0  0  0  0  0  0
    4.5274    0.5852    0.3643 C   0  0  0  0  0  0  0  0  0  0  0  0
    4.3845    1.8068    0.4550 O   0  0  0  0  0  0  0  0  0  0  0  0
    5.7689   -0.1202    0.6154 C   0  0  0  0  0  0  0  0  0  0  0  0
    6.1016   -1.4640    0.6776 C   0  0  0  0  0  0  0  0  0  0  0  0
    7.4880   -1.5335    0.9634 C   0  0  0  0  0  0  0  0  0  0  0  0
    7.9220   -0.2345    1.0621 C   0  0  0  0  0  0  0  0  0  0  0  0
    6.8944    0.6254    0.8558 O   0  0  0  0  0  0  0  0  0  0  0  0
   -0.1140    0.5313   -0.6037 C   0  0  0  0  0  0  0  0  0  0  0  0
   -0.3285    1.8039   -0.9430 O   0  0  0  0  0  0  0  0  0  0  0  0
   -3.3992   -0.7396    0.5937 C   0  0  0  0  0  0  0  0  0  0  0  0
   -4.7653   -0.4446    0.6359 C   0  0  0  0  0  0  0  0  0  0  0  0
   -7.1592    1.5218   -1.9082 H   0  0  0  0  0  0  0  0  0  0  0  0
   -8.3186    1.7767   -0.5983 H   0  0  0  0  0  0  0  0  0  0  0  0
   -6.8274    2.7262   -0.6024 H   0  0  0  0  0  0  0  0  0  0  0  0
   -4.8487    2.0045   -1.7253 H   0  0  0  0  0  0  0  0  0  0  0  0
   -2.4899    1.4905   -1.8211 H   0  0  0  0  0  0  0  0  0  0  0  0
   -2.1415   -2.6405   -0.4078 H   0  0  0  0  0  0  0  0  0  0  0  0
    1.4792   -2.2711    0.1312 H   0  0  0  0  0  0  0  0  0  0  0  0
    2.4067    1.4516   -0.3705 H   0  0  0  0  0  0  0  0  0  0  0  0
    3.6227   -1.1487   -0.4027 H   0  0  0  0  0  0  0  0  0  0  0  0
    5.4306   -2.3010    0.5458 H   0  0  0  0  0  0  0  0  0  0  0  0
    8.0950   -2.4195    1.0879 H   0  0  0  0  0  0  0  0  0  0  0  0
    8.8800    0.2239    1.2661 H   0  0  0  0  0  0  0  0  0  0  0  0
    0.5404    2.2068   -1.1126 H   0  0  0  0  0  0  0  0  0  0  0  0
   -3.0124   -1.4703    1.3012 H   0  0  0  0  0  0  0  0  0  0  0  0
   -5.4089   -0.9749    1.3343 H   0  0  0  0  0  0  0  0  0  0  0  0
  1  2  1  0
  2  3  1  0
  3  4  2  0
  4  5  1  0
  5  6  2  0
  6  7  1  0
  7  8  1  0
  8  9  1  0
  8 10  2  0
 10 11  1  0
 11 12  1  0
 12 13  1  0
 13 14  1  0
 14 15  2  0
 14 16  1  0
 16 17  2  0
 17 18  1  0
 18 19  2  0
 19 20  1  0
 11 21  2  0
 21 22  1  0
  6 23  1  0
 23 24  2  0
 24  3  1  0
 21  7  1  0
 20 16  1  0
  1 25  1  0
  1 26  1  0
  1 27  1  0
  4 28  1  0
  5 29  1  0
  9 30  1  0
 10 31  1  0
 12 32  1  0
 13 33  1  0
 17 34  1  0
 18 35  1  0
 19 36  1  0
 22 37  1  0
 23 38  1  0
 24 39  1  0
M  END
$$$$
