
     RDKit          3D

 38 41  0  0  0  0  0  0  0  0999 V2000
    7.9030    2.5876    0.9633 C   0  0  0  0  0  0  0  0  0  0  0  0
    6.7379    1.7415    0.6054 C   0  0  0  0  0  0  0  0  0  0  0  0
    6.8112    0.5570    0.0358 N   0  0  0  0  0  0  0  0  0  0  0  0
    5.5609    0.0048   -0.1776 N   0  0  0  0  0  0  0  0  0  0  0  0
    4.6033    0.7946    0.2389 C   0  0  0  0  0  0  0  0  0  0  0  0
    3.2474    0.6378    0.2175 N   0  0  0  0  0  0  0  0  0  0  0  0
    2.6370   -0.4870   -0.2941 C   0  0  0  0  0  0  0  0  0  0  0  0
    3.2417   -1.4450   -0.7699 O   0  0  0  0  0  0  0  0  0  0  0  0
    1.1718   -0.4668   -0.2344 C   0  0  0  0  0  0  0  0  0  0  0  0
    0.3140    0.9299    0.2634 S   0  0  0  0  0  0  0  0  0  0  0  0
   -1.1921    0.1777    0.0380 C   0  0  0  0  0  0  0  0  0  0  0  0
   -2.3184    0.8634    0.3026 N   0  0  0  0  0  0  0  0  0  0  0  0
   -3.4623    0.1828    0.1154 C   0  0  0  0  0  0  0  0  0  0  0  0
   -4.6983    0.9218    0.4210 C   0  0  0  0  0  0  0  0  0  0  0  0
   -5.9062    0.4455    0.9066 C   0  0  0  0  0  0  0  0  0  0  0  0
   -6.8859    1.4700    1.0630 C   0  0  0  0  0  0  0  0  0  0  0  0
   -6.4028    2.7024    0.6909 C   0  0  0  0  0  0  0  0  0  0  0  0
   -4.7820    2.6215    0.1594 S   0  0  0  0  0  0  0  0  0  0  0  0
   -3.5044   -1.1377   -0.3124 C   0  0  0  0  0  0  0  0  0  0  0  0
   -2.3122   -1.8365   -0.5933 C   0  0  0  0  0  0  0  0  0  0  0  0
   -2.3880   -3.2775   -1.0199 C   0  0  0  0  0  0  0  0  0  0  0  0
   -2.0539   -4.1386   -0.0220 F   0  0  0  0  0  0  0  0  0  0  0  0
   -1.5731   -3.5759   -2.0712 F   0  0  0  0  0  0  0  0  0  0  0  0
   -3.6391   -3.6478   -1.4192 F   0  0  0  0  0  0  0  0  0  0  0  0
   -1.0919   -1.1341   -0.4092 C   0  0  0  0  0  0  0  0  0  0  0  0
    0.2950   -1.4864   -0.5713 C   0  0  0  0  0  0  0  0  0  0  0  0
    0.7202   -2.6994   -0.9996 N   0  0  0  0  0  0  0  0  0  0  0  0
    5.1314    2.2687    0.9218 S   0  0  0  0  0  0  0  0  0  0  0  0
    7.9289    2.7794    2.0406 H   0  0  0  0  0  0  0  0  0  0  0  0
    8.8378    2.0891    0.6876 H   0  0  0  0  0  0  0  0  0  0  0  0
    7.8647    3.5463    0.4364 H   0  0  0  0  0  0  0  0  0  0  0  0
    2.6861    1.3861    0.5948 H   0  0  0  0  0  0  0  0  0  0  0  0
   -6.0854   -0.5937    1.1542 H   0  0  0  0  0  0  0  0  0  0  0  0
   -7.8915    1.3103    1.4327 H   0  0  0  0  0  0  0  0  0  0  0  0
   -6.9219    3.6510    0.7066 H   0  0  0  0  0  0  0  0  0  0  0  0
   -4.4626   -1.6368   -0.4419 H   0  0  0  0  0  0  0  0  0  0  0  0
    1.7210   -2.8235   -1.1993 H   0  0  0  0  0  0  0  0  0  0  0  0
    0.1587   -3.2824   -1.6200 H   0  0  0  0  0  0  0  0  0  0  0  0
  1  2  1  0
  2  3  2  0
  3  4  1  0
  4  5  2  0
  5  6  1  0
  6  7  1  0
  7  8  2  0
  7  9  1  0
  9 10  1  0
 10 11  1  0
 11 12  2  0
 12 13  1  0
 13 14  1  0
 14 15  2  0
 15 16  1  0
 16 17  2  0
 17 18  1  0
 13 19  2  0
 19 20  1  0
 20 21  1  0
 21 22  1  0
 21 23  1  0
 21 24  1  0
 20 25  2  0
 25 26  1  0
 26 27  1  0
  5 28  1  0
 28  2  1  0
 26  9  2  0
 25 11  1  0
 18 14  1  0
  1 29  1  0
  1 30  1  0
  1 31  1  0
  6 32  1  0
 15 33  1  0
 16 34  1  0
 17 35  1  0
 19 36  1  0
 27 37  1  0
 27 38  1  0
M  END
$$$$
