
     RDKit          3D

 37 39  0  0  0  0  0  0  0  0999 V2000
    4.6669   -1.9451    1.6747 C   0  0  0  0  0  0  0  0  0  0  0  0
    3.3819   -1.2910    1.2655 C   0  0  0  0  0  0  0  0  0  0  0  0
    2.1637   -1.7407    1.7675 C   0  0  0  0  0  0  0  0  0  0  0  0
    0.9655   -1.1109    1.4060 C   0  0  0  0  0  0  0  0  0  0  0  0
    0.9428    0.0021    0.5524 C   0  0  0  0  0  0  0  0  0  0  0  0
    2.1830    0.4638    0.0583 C   0  0  0  0  0  0  0  0  0  0  0  0
    3.3830   -0.1844    0.4159 C   0  0  0  0  0  0  0  0  0  0  0  0
    2.2837    1.6295   -0.8885 C   0  0  0  0  0  0  0  0  0  0  0  0
    1.0514    2.5037   -0.8066 C   0  0  0  0  0  0  0  0  0  0  0  0
   -0.1843    1.6322   -0.9339 C   0  0  0  0  0  0  0  0  0  0  0  0
   -0.2905    0.6405    0.1432 N   0  0  0  0  0  0  0  0  0  0  0  0
   -1.5371    0.3248    0.7253 C   0  0  0  0  0  0  0  0  0  0  0  0
   -1.6645   -0.1926    1.8383 O   0  0  0  0  0  0  0  0  0  0  0  0
   -2.8071    0.6379   -0.1166 C   0  0  0  0  0  0  0  0  0  0  0  0
   -2.8324   -0.1755   -1.4111 C   0  0  0  0  0  0  0  0  0  0  0  0
   -4.2555   -0.6693   -1.5045 C   0  0  0  0  0  0  0  0  0  0  0  0
   -4.6330   -0.8052   -0.0521 C   0  0  0  0  0  0  0  0  0  0  0  0
   -4.0247    0.3177    0.5869 O   0  0  0  0  0  0  0  0  0  0  0  0
    5.4112   -1.8786    0.8742 H   0  0  0  0  0  0  0  0  0  0  0  0
    5.0658   -1.4590    2.5703 H   0  0  0  0  0  0  0  0  0  0  0  0
    4.5143   -3.0084    1.8878 H   0  0  0  0  0  0  0  0  0  0  0  0
    2.1256   -2.5930    2.4427 H   0  0  0  0  0  0  0  0  0  0  0  0
    0.0566   -1.5439    1.8109 H   0  0  0  0  0  0  0  0  0  0  0  0
    4.3292    0.1858    0.0244 H   0  0  0  0  0  0  0  0  0  0  0  0
    3.1659    2.2371   -0.6542 H   0  0  0  0  0  0  0  0  0  0  0  0
    2.4051    1.2423   -1.9076 H   0  0  0  0  0  0  0  0  0  0  0  0
    1.0724    3.2559   -1.6028 H   0  0  0  0  0  0  0  0  0  0  0  0
    1.0308    3.0402    0.1508 H   0  0  0  0  0  0  0  0  0  0  0  0
   -1.0493    2.2975   -0.9300 H   0  0  0  0  0  0  0  0  0  0  0  0
   -0.1861    1.0900   -1.8872 H   0  0  0  0  0  0  0  0  0  0  0  0
   -2.8680    1.7121   -0.3053 H   0  0  0  0  0  0  0  0  0  0  0  0
   -2.5473    0.4212   -2.2829 H   0  0  0  0  0  0  0  0  0  0  0  0
   -2.1432   -1.0272   -1.3605 H   0  0  0  0  0  0  0  0  0  0  0  0
   -4.3594   -1.6009   -2.0664 H   0  0  0  0  0  0  0  0  0  0  0  0
   -4.8770    0.0965   -1.9833 H   0  0  0  0  0  0  0  0  0  0  0  0
   -4.2254   -1.7214    0.3894 H   0  0  0  0  0  0  0  0  0  0  0  0
   -5.7141   -0.7838    0.1089 H   0  0  0  0  0  0  0  0  0  0  0  0
  1  2  1  0
  2  3  2  0
  3  4  1  0
  4  5  2  0
  5  6  1  0
  6  7  2  0
  6  8  1  0
  8  9  1  0
  9 10  1  0
 10 11  1  0
 11 12  1  0
 12 13  2  0
 12 14  1  0
 14 15  1  0
 15 16  1  0
 16 17  1  0
 17 18  1  0
  7  2  1  0
 18 14  1  0
 11  5  1  0
  1 19  1  0
  1 20  1  0
  1 21  1  0
  3 22  1  0
  4 23  1  0
  7 24  1  0
  8 25  1  0
  8 26  1  0
  9 27  1  0
  9 28  1  0
 10 29  1  0
 10 30  1  0
 14 31  1  0
 15 32  1  0
 15 33  1  0
 16 34  1  0
 16 35  1  0
 17 36  1  0
 17 37  1  0
M  END
$$$$
