
     RDKit          3D

 65 69  0  0  0  0  0  0  0  0999 V2000
   -7.4027    4.9950    2.1815 C   0  0  0  0  0  0  0  0  0  0  0  0
   -6.0475    5.1454    1.7776 O   0  0  0  0  0  0  0  0  0  0  0  0
   -5.4003    4.0181    1.3472 C   0  0  0  0  0  0  0  0  0  0  0  0
   -4.0764    4.2198    0.9753 C   0  0  0  0  0  0  0  0  0  0  0  0
   -3.2890    3.1589    0.5161 C   0  0  0  0  0  0  0  0  0  0  0  0
   -3.8268    1.8510    0.4223 C   0  0  0  0  0  0  0  0  0  0  0  0
   -3.2263    0.6092   -0.0138 C   0  0  0  0  0  0  0  0  0  0  0  0
   -1.8464    0.4377   -0.4562 C   0  0  0  0  0  0  0  0  0  0  0  0
   -1.5556    0.1775   -1.7976 C   0  0  0  0  0  0  0  0  0  0  0  0
   -0.2287    0.0215   -2.2058 C   0  0  0  0  0  0  0  0  0  0  0  0
    0.8186    0.1272   -1.2863 C   0  0  0  0  0  0  0  0  0  0  0  0
    2.0656   -0.0465   -1.8205 O   0  0  0  0  0  0  0  0  0  0  0  0
    3.1775    0.0540   -0.9241 C   0  0  0  0  0  0  0  0  0  0  0  0
    4.4648   -0.1456   -1.7411 C   0  0  0  0  0  0  0  0  0  0  0  0
    5.7092    0.0345   -0.9658 N   0  0  0  0  0  0  0  0  0  0  0  0
    5.9133   -1.0577   -0.0001 C   0  0  0  0  0  0  0  0  0  0  0  0
    7.1922   -0.8523    0.8149 C   0  0  0  0  0  0  0  0  0  0  0  0
    8.4101   -0.7004   -0.0870 C   0  0  0  0  0  0  0  0  0  0  0  0
    8.1622    0.3806   -1.1308 C   0  0  0  0  0  0  0  0  0  0  0  0
    6.8561    0.1328   -1.8863 C   0  0  0  0  0  0  0  0  0  0  0  0
    0.5283    0.3915    0.0526 C   0  0  0  0  0  0  0  0  0  0  0  0
   -0.7996    0.5473    0.4655 C   0  0  0  0  0  0  0  0  0  0  0  0
   -4.1129   -0.4545    0.0401 C   0  0  0  0  0  0  0  0  0  0  0  0
   -3.9120   -1.8721   -0.2955 C   0  0  0  0  0  0  0  0  0  0  0  0
   -4.4819   -2.3788   -1.4762 C   0  0  0  0  0  0  0  0  0  0  0  0
   -4.2932   -3.7106   -1.8421 C   0  0  0  0  0  0  0  0  0  0  0  0
   -3.5353   -4.5494   -1.0309 C   0  0  0  0  0  0  0  0  0  0  0  0
   -2.9619   -4.0601    0.1459 C   0  0  0  0  0  0  0  0  0  0  0  0
   -3.1364   -2.7218    0.5192 C   0  0  0  0  0  0  0  0  0  0  0  0
   -2.6239   -2.1773    1.6707 O   0  0  0  0  0  0  0  0  0  0  0  0
   -1.5304   -2.8598    2.2693 C   0  0  0  0  0  0  0  0  0  0  0  0
   -5.6499    0.0346    0.6078 S   0  0  0  0  0  0  0  0  0  0  0  0
   -5.1595    1.6717    0.7950 C   0  0  0  0  0  0  0  0  0  0  0  0
   -5.9583    2.7410    1.2600 C   0  0  0  0  0  0  0  0  0  0  0  0
   -8.0284    4.6624    1.3466 H   0  0  0  0  0  0  0  0  0  0  0  0
   -7.4873    4.3154    3.0359 H   0  0  0  0  0  0  0  0  0  0  0  0
   -7.7673    5.9763    2.5000 H   0  0  0  0  0  0  0  0  0  0  0  0
   -3.6439    5.2156    1.0403 H   0  0  0  0  0  0  0  0  0  0  0  0
   -2.2573    3.3458    0.2276 H   0  0  0  0  0  0  0  0  0  0  0  0
   -2.3537    0.0944   -2.5307 H   0  0  0  0  0  0  0  0  0  0  0  0
   -0.0098   -0.1833   -3.2508 H   0  0  0  0  0  0  0  0  0  0  0  0
    3.1954    1.0475   -0.4595 H   0  0  0  0  0  0  0  0  0  0  0  0
    3.0921   -0.7218   -0.1557 H   0  0  0  0  0  0  0  0  0  0  0  0
    4.4422   -1.1282   -2.2318 H   0  0  0  0  0  0  0  0  0  0  0  0
    4.4358    0.5893   -2.5575 H   0  0  0  0  0  0  0  0  0  0  0  0
    5.9562   -2.0275   -0.5131 H   0  0  0  0  0  0  0  0  0  0  0  0
    5.0804   -1.1011    0.7096 H   0  0  0  0  0  0  0  0  0  0  0  0
    7.0876    0.0425    1.4418 H   0  0  0  0  0  0  0  0  0  0  0  0
    7.3387   -1.7010    1.4927 H   0  0  0  0  0  0  0  0  0  0  0  0
    8.6169   -1.6540   -0.5880 H   0  0  0  0  0  0  0  0  0  0  0  0
    9.2935   -0.4516    0.5110 H   0  0  0  0  0  0  0  0  0  0  0  0
    8.1228    1.3616   -0.6404 H   0  0  0  0  0  0  0  0  0  0  0  0
    8.9989    0.4104   -1.8379 H   0  0  0  0  0  0  0  0  0  0  0  0
    6.7055    0.9700   -2.5788 H   0  0  0  0  0  0  0  0  0  0  0  0
    6.9477   -0.7788   -2.4917 H   0  0  0  0  0  0  0  0  0  0  0  0
    1.3072    0.4829    0.8019 H   0  0  0  0  0  0  0  0  0  0  0  0
   -1.0146    0.7446    1.5136 H   0  0  0  0  0  0  0  0  0  0  0  0
   -5.0735   -1.7302   -2.1187 H   0  0  0  0  0  0  0  0  0  0  0  0
   -4.7391   -4.0918   -2.7570 H   0  0  0  0  0  0  0  0  0  0  0  0
   -3.3928   -5.5904   -1.3105 H   0  0  0  0  0  0  0  0  0  0  0  0
   -2.3941   -4.7518    0.7591 H   0  0  0  0  0  0  0  0  0  0  0  0
   -1.1119   -2.2066    3.0410 H   0  0  0  0  0  0  0  0  0  0  0  0
   -1.8664   -3.7791    2.7593 H   0  0  0  0  0  0  0  0  0  0  0  0
   -0.7371   -3.0656    1.5423 H   0  0  0  0  0  0  0  0  0  0  0  0
   -6.9867    2.5416    1.5373 H   0  0  0  0  0  0  0  0  0  0  0  0
  1  2  1  0
  2  3  1  0
  3  4  2  0
  4  5  1  0
  5  6  2  0
  6  7  1  0
  7  8  1  0
  8  9  2  0
  9 10  1  0
 10 11  2  0
 11 12  1  0
 12 13  1  0
 13 14  1  0
 14 15  1  0
 15 16  1  0
 16 17  1  0
 17 18  1  0
 18 19  1  0
 19 20  1  0
 11 21  1  0
 21 22  2  0
  7 23  2  0
 23 24  1  0
 24 25  2  0
 25 26  1  0
 26 27  2  0
 27 28  1  0
 28 29  2  0
 29 30  1  0
 30 31  1  0
 23 32  1  0
 32 33  1  0
 33 34  2  0
 34  3  1  0
 33  6  1  0
 22  8  1  0
 29 24  1  0
 20 15  1  0
  1 35  1  0
  1 36  1  0
  1 37  1  0
  4 38  1  0
  5 39  1  0
  9 40  1  0
 10 41  1  0
 13 42  1  0
 13 43  1  0
 14 44  1  0
 14 45  1  0
 16 46  1  0
 16 47  1  0
 17 48  1  0
 17 49  1  0
 18 50  1  0
 18 51  1  0
 19 52  1  0
 19 53  1  0
 20 54  1  0
 20 55  1  0
 21 56  1  0
 22 57  1  0
 25 58  1  0
 26 59  1  0
 27 60  1  0
 28 61  1  0
 31 62  1  0
 31 63  1  0
 31 64  1  0
 34 65  1  0
M  END
$$$$
