
     RDKit          3D

 38 40  0  0  0  0  0  0  0  0999 V2000
   -5.1287    1.0840    0.1983 C   0  0  0  0  0  0  0  0  0  0  0  0
   -4.7926   -0.2596   -0.1284 O   0  0  0  0  0  0  0  0  0  0  0  0
   -3.4674   -0.6008   -0.0350 C   0  0  0  0  0  0  0  0  0  0  0  0
   -2.4290    0.2317    0.3832 C   0  0  0  0  0  0  0  0  0  0  0  0
   -1.1076   -0.2506    0.4299 C   0  0  0  0  0  0  0  0  0  0  0  0
   -0.8364   -1.5770    0.0504 C   0  0  0  0  0  0  0  0  0  0  0  0
   -1.8753   -2.4182   -0.3515 C   0  0  0  0  0  0  0  0  0  0  0  0
   -3.1716   -1.9211   -0.3937 C   0  0  0  0  0  0  0  0  0  0  0  0
   -4.1720   -2.7636   -0.7992 O   0  0  0  0  0  0  0  0  0  0  0  0
    0.5847   -2.0542    0.1240 C   0  0  0  0  0  0  0  0  0  0  0  0
    1.5291   -0.9492   -0.3512 C   0  0  0  0  0  0  0  0  0  0  0  0
    1.3131    0.3624    0.2734 N   0  0  0  0  0  0  0  0  0  0  0  0
    2.2438    1.4165    0.2298 C   0  0  0  0  0  0  0  0  0  0  0  0
    2.0259    2.4504    0.8686 O   0  0  0  0  0  0  0  0  0  0  0  0
    3.4657    1.2970   -0.5571 C   0  0  0  0  0  0  0  0  0  0  0  0
    4.6095    2.0792   -0.5212 C   0  0  0  0  0  0  0  0  0  0  0  0
    5.4893    1.5803   -1.5101 C   0  0  0  0  0  0  0  0  0  0  0  0
    4.8304    0.5340   -2.1073 C   0  0  0  0  0  0  0  0  0  0  0  0
    3.6072    0.3602   -1.5467 O   0  0  0  0  0  0  0  0  0  0  0  0
    0.0241    0.6312    0.9372 C   0  0  0  0  0  0  0  0  0  0  0  0
    0.1498    0.4924    2.4607 C   0  0  0  0  0  0  0  0  0  0  0  0
   -4.9050    1.3018    1.2478 H   0  0  0  0  0  0  0  0  0  0  0  0
   -4.6258    1.7910   -0.4699 H   0  0  0  0  0  0  0  0  0  0  0  0
   -6.2073    1.2019    0.0566 H   0  0  0  0  0  0  0  0  0  0  0  0
   -2.6158    1.2571    0.6857 H   0  0  0  0  0  0  0  0  0  0  0  0
   -1.6868   -3.4494   -0.6353 H   0  0  0  0  0  0  0  0  0  0  0  0
   -4.9850   -2.2236   -0.7567 H   0  0  0  0  0  0  0  0  0  0  0  0
    0.8108   -2.3340    1.1596 H   0  0  0  0  0  0  0  0  0  0  0  0
    0.7314   -2.9441   -0.4986 H   0  0  0  0  0  0  0  0  0  0  0  0
    2.5583   -1.2710   -0.1622 H   0  0  0  0  0  0  0  0  0  0  0  0
    1.4021   -0.8067   -1.4317 H   0  0  0  0  0  0  0  0  0  0  0  0
    4.7711    2.9138    0.1482 H   0  0  0  0  0  0  0  0  0  0  0  0
    6.4752    1.9444   -1.7626 H   0  0  0  0  0  0  0  0  0  0  0  0
    5.0796   -0.1486   -2.9080 H   0  0  0  0  0  0  0  0  0  0  0  0
   -0.2430    1.6723    0.7121 H   0  0  0  0  0  0  0  0  0  0  0  0
   -0.7962    0.7329    2.9583 H   0  0  0  0  0  0  0  0  0  0  0  0
    0.9160    1.1638    2.8613 H   0  0  0  0  0  0  0  0  0  0  0  0
    0.4283   -0.5263    2.7521 H   0  0  0  0  0  0  0  0  0  0  0  0
  1  2  1  0
  2  3  1  0
  3  4  2  0
  4  5  1  0
  5  6  2  0
  6  7  1  0
  7  8  2  0
  8  9  1  0
  6 10  1  0
 10 11  1  0
 11 12  1  0
 12 13  1  0
 13 14  2  0
 13 15  1  0
 15 16  2  0
 16 17  1  0
 17 18  2  0
 18 19  1  0
 12 20  1  0
 20 21  1  0
  8  3  1  0
 19 15  1  0
 20  5  1  0
  1 22  1  0
  1 23  1  0
  1 24  1  0
  4 25  1  0
  7 26  1  0
  9 27  1  0
 10 28  1  0
 10 29  1  0
 11 30  1  0
 11 31  1  0
 16 32  1  0
 17 33  1  0
 18 34  1  0
 20 35  1  0
 21 36  1  0
 21 37  1  0
 21 38  1  0
M  END
$$$$
