
     RDKit          3D

 38 42  0  0  0  0  0  0  0  0999 V2000
    0.5327   -2.5654   -0.4443 O   0  0  0  0  0  0  0  0  0  0  0  0
   -0.0991   -1.4075   -0.5917 C   0  0  0  0  0  0  0  0  0  0  0  0
   -1.3512   -0.9955   -0.2186 C   0  0  0  0  0  0  0  0  0  0  0  0
   -1.5188    0.3645   -0.6520 C   0  0  0  0  0  0  0  0  0  0  0  0
   -0.3654    0.7538   -1.2804 C   0  0  0  0  0  0  0  0  0  0  0  0
   -0.0166    1.8932   -1.8650 O   0  0  0  0  0  0  0  0  0  0  0  0
    0.5060   -0.3250   -1.2158 N   0  0  0  0  0  0  0  0  0  0  0  0
    1.8525   -0.3370   -1.7740 C   0  0  0  0  0  0  0  0  0  0  0  0
    2.8836    0.1111   -0.7662 C   0  0  0  0  0  0  0  0  0  0  0  0
    3.5046   -0.8182    0.0810 C   0  0  0  0  0  0  0  0  0  0  0  0
    4.4535   -0.4025    1.0164 C   0  0  0  0  0  0  0  0  0  0  0  0
    4.7885    0.9463    1.1185 C   0  0  0  0  0  0  0  0  0  0  0  0
    4.1720    1.8810    0.2889 C   0  0  0  0  0  0  0  0  0  0  0  0
    3.2230    1.4667   -0.6469 C   0  0  0  0  0  0  0  0  0  0  0  0
   -2.8788    0.9460   -0.3002 C   0  0  0  0  0  0  0  0  0  0  0  0
   -3.8987   -0.0541   -0.9178 C   0  0  0  0  0  0  0  0  0  0  0  0
   -3.7402   -1.3413   -0.5076 C   0  0  0  0  0  0  0  0  0  0  0  0
   -2.5707   -1.5548    0.4966 C   0  0  0  0  0  0  0  0  0  0  0  0
   -2.9210   -0.6323    1.7093 C   0  0  0  0  0  0  0  0  0  0  0  0
   -2.0415    0.4697    2.2632 C   0  0  0  0  0  0  0  0  0  0  0  0
   -3.1013    0.8311    1.2429 C   0  0  0  0  0  0  0  0  0  0  0  0
   -0.0734   -3.1584    0.0327 H   0  0  0  0  0  0  0  0  0  0  0  0
   -0.7706    2.5006   -1.7706 H   0  0  0  0  0  0  0  0  0  0  0  0
    1.8644    0.3085   -2.6601 H   0  0  0  0  0  0  0  0  0  0  0  0
    2.0687   -1.3506   -2.1315 H   0  0  0  0  0  0  0  0  0  0  0  0
    3.2427   -1.8727    0.0190 H   0  0  0  0  0  0  0  0  0  0  0  0
    4.9268   -1.1317    1.6683 H   0  0  0  0  0  0  0  0  0  0  0  0
    5.5251    1.2697    1.8488 H   0  0  0  0  0  0  0  0  0  0  0  0
    4.4257    2.9343    0.3730 H   0  0  0  0  0  0  0  0  0  0  0  0
    2.7398    2.2077   -1.2809 H   0  0  0  0  0  0  0  0  0  0  0  0
   -3.0192    1.9661   -0.6646 H   0  0  0  0  0  0  0  0  0  0  0  0
   -4.6532    0.2709   -1.6206 H   0  0  0  0  0  0  0  0  0  0  0  0
   -4.3530   -2.1659   -0.8441 H   0  0  0  0  0  0  0  0  0  0  0  0
   -2.4566   -2.6006    0.7906 H   0  0  0  0  0  0  0  0  0  0  0  0
   -3.6889   -1.0547    2.3453 H   0  0  0  0  0  0  0  0  0  0  0  0
   -2.2122    0.7761    3.2907 H   0  0  0  0  0  0  0  0  0  0  0  0
   -0.9931    0.5122    1.9913 H   0  0  0  0  0  0  0  0  0  0  0  0
   -3.9863    1.3588    1.5763 H   0  0  0  0  0  0  0  0  0  0  0  0
  1  2  1  0
  2  3  2  0
  3  4  1  0
  4  5  2  0
  5  6  1  0
  5  7  1  0
  7  8  1  0
  8  9  1  0
  9 10  2  0
 10 11  1  0
 11 12  2  0
 12 13  1  0
 13 14  2  0
  4 15  1  0
 15 16  1  0
 16 17  2  0
 17 18  1  0
 18 19  1  0
 19 20  1  0
 20 21  1  0
  7  2  1  0
 14  9  1  0
 21 15  1  0
 18  3  1  0
 21 19  1  0
  1 22  1  0
  6 23  1  0
  8 24  1  0
  8 25  1  0
 10 26  1  0
 11 27  1  0
 12 28  1  0
 13 29  1  0
 14 30  1  0
 15 31  1  0
 16 32  1  0
 17 33  1  0
 18 34  1  0
 19 35  1  0
 20 36  1  0
 20 37  1  0
 21 38  1  0
M  END
$$$$
