
     RDKit          3D

 39 41  0  0  0  0  0  0  0  0999 V2000
    4.8844   -1.0638    0.2159 C   0  0  0  0  0  0  0  0  0  0  0  0
    4.2292   -0.0669   -0.7398 C   0  0  0  0  0  0  0  0  0  0  0  0
    4.7496    1.3464   -0.4786 C   0  0  0  0  0  0  0  0  0  0  0  0
    2.6916   -0.1417   -0.7010 C   0  0  0  0  0  0  0  0  0  0  0  0
    2.0524    0.2113    0.6485 C   0  0  0  0  0  0  0  0  0  0  0  0
    0.5944    0.1127    0.5893 N   0  0  0  0  0  0  0  0  0  0  0  0
    0.0202   -1.1294    0.8486 C   0  0  0  0  0  0  0  0  0  0  0  0
    0.6684   -2.1371    1.1215 O   0  0  0  0  0  0  0  0  0  0  0  0
   -1.4569   -1.2175    0.7738 C   0  0  0  0  0  0  0  0  0  0  0  0
   -2.0739   -2.4415    1.0585 C   0  0  0  0  0  0  0  0  0  0  0  0
   -3.4553   -2.5527    0.9889 C   0  0  0  0  0  0  0  0  0  0  0  0
   -4.2223   -1.4402    0.6413 C   0  0  0  0  0  0  0  0  0  0  0  0
   -3.6315   -0.1869    0.3552 C   0  0  0  0  0  0  0  0  0  0  0  0
   -4.3843    0.9702    0.0135 C   0  0  0  0  0  0  0  0  0  0  0  0
   -5.7819    0.9478   -0.1791 N   0  0  0  0  0  0  0  0  0  0  0  0
   -3.7223    2.1495   -0.3451 C   0  0  0  0  0  0  0  0  0  0  0  0
   -2.3363    2.2349   -0.2824 C   0  0  0  0  0  0  0  0  0  0  0  0
   -1.5874    1.1211    0.1070 C   0  0  0  0  0  0  0  0  0  0  0  0
   -2.2133   -0.0920    0.4178 C   0  0  0  0  0  0  0  0  0  0  0  0
   -0.1118    1.2371    0.1684 C   0  0  0  0  0  0  0  0  0  0  0  0
    0.4214    2.2953   -0.1569 O   0  0  0  0  0  0  0  0  0  0  0  0
    4.7058   -0.8021    1.2636 H   0  0  0  0  0  0  0  0  0  0  0  0
    4.5030   -2.0759    0.0454 H   0  0  0  0  0  0  0  0  0  0  0  0
    5.9687   -1.0859    0.0618 H   0  0  0  0  0  0  0  0  0  0  0  0
    4.5335   -0.3433   -1.7582 H   0  0  0  0  0  0  0  0  0  0  0  0
    5.8299    1.3950   -0.6530 H   0  0  0  0  0  0  0  0  0  0  0  0
    4.5679    1.6637    0.5531 H   0  0  0  0  0  0  0  0  0  0  0  0
    4.2712    2.0683   -1.1487 H   0  0  0  0  0  0  0  0  0  0  0  0
    2.2884    0.5242   -1.4752 H   0  0  0  0  0  0  0  0  0  0  0  0
    2.3823   -1.1543   -0.9916 H   0  0  0  0  0  0  0  0  0  0  0  0
    2.3244    1.2298    0.9451 H   0  0  0  0  0  0  0  0  0  0  0  0
    2.4188   -0.4606    1.4318 H   0  0  0  0  0  0  0  0  0  0  0  0
   -1.4779   -3.3106    1.3318 H   0  0  0  0  0  0  0  0  0  0  0  0
   -3.9373   -3.5030    1.2059 H   0  0  0  0  0  0  0  0  0  0  0  0
   -5.3000   -1.5724    0.5973 H   0  0  0  0  0  0  0  0  0  0  0  0
   -6.2599    0.2429    0.3709 H   0  0  0  0  0  0  0  0  0  0  0  0
   -6.0107    0.8367   -1.1652 H   0  0  0  0  0  0  0  0  0  0  0  0
   -4.2974    3.0197   -0.6556 H   0  0  0  0  0  0  0  0  0  0  0  0
   -1.8453    3.1712   -0.5410 H   0  0  0  0  0  0  0  0  0  0  0  0
  1  2  1  0
  2  3  1  0
  2  4  1  0
  4  5  1  0
  5  6  1  0
  6  7  1  0
  7  8  2  0
  7  9  1  0
  9 10  1  0
 10 11  2  0
 11 12  1  0
 12 13  2  0
 13 14  1  0
 14 15  1  0
 14 16  2  0
 16 17  1  0
 17 18  2  0
 18 19  1  0
 18 20  1  0
 20 21  2  0
 20  6  1  0
 19  9  2  0
 19 13  1  0
  1 22  1  0
  1 23  1  0
  1 24  1  0
  2 25  1  0
  3 26  1  0
  3 27  1  0
  3 28  1  0
  4 29  1  0
  4 30  1  0
  5 31  1  0
  5 32  1  0
 10 33  1  0
 11 34  1  0
 12 35  1  0
 15 36  1  0
 15 37  1  0
 16 38  1  0
 17 39  1  0
M  END
$$$$
