
     RDKit          3D

 54 56  0  0  0  0  0  0  0  0999 V2000
    7.8745    1.4864   -1.1193 C   0  0  0  0  0  0  0  0  0  0  0  0
    6.5992    1.9663   -0.7138 O   0  0  0  0  0  0  0  0  0  0  0  0
    5.5320    1.1363   -0.9212 C   0  0  0  0  0  0  0  0  0  0  0  0
    5.5797   -0.1375   -1.4878 C   0  0  0  0  0  0  0  0  0  0  0  0
    4.4059   -0.8849   -1.6430 C   0  0  0  0  0  0  0  0  0  0  0  0
    3.1688   -0.3663   -1.2388 C   0  0  0  0  0  0  0  0  0  0  0  0
    1.9007   -1.1721   -1.3944 C   0  0  0  0  0  0  0  0  0  0  0  0
    1.4578   -1.6834   -0.0973 N   0  0  0  0  0  0  0  0  0  0  0  0
    0.2889   -2.5576   -0.1985 C   0  0  0  0  0  0  0  0  0  0  0  0
   -1.0151   -1.8448   -0.5906 C   0  0  0  0  0  0  0  0  0  0  0  0
   -1.4108   -0.6726    0.3423 C   0  0  0  0  0  0  0  0  0  0  0  0
   -1.7087   -1.1608    1.7596 C   0  0  0  0  0  0  0  0  0  0  0  0
   -0.7968   -0.8877    2.7949 C   0  0  0  0  0  0  0  0  0  0  0  0
   -1.0434   -1.3330    4.0943 C   0  0  0  0  0  0  0  0  0  0  0  0
   -2.2002   -2.0528    4.3634 C   0  0  0  0  0  0  0  0  0  0  0  0
   -2.4361   -2.4806    5.6108 F   0  0  0  0  0  0  0  0  0  0  0  0
   -3.1148   -2.3383    3.3577 C   0  0  0  0  0  0  0  0  0  0  0  0
   -2.8698   -1.8956    2.0568 C   0  0  0  0  0  0  0  0  0  0  0  0
   -2.5385    0.2106   -0.2014 C   0  0  0  0  0  0  0  0  0  0  0  0
   -2.6449    1.5338    0.2617 C   0  0  0  0  0  0  0  0  0  0  0  0
   -3.6620    2.3830   -0.1902 C   0  0  0  0  0  0  0  0  0  0  0  0
   -4.5979    1.9234   -1.1134 C   0  0  0  0  0  0  0  0  0  0  0  0
   -5.6369    2.6429   -1.6356 O   0  0  0  0  0  0  0  0  0  0  0  0
   -5.7791    3.9835   -1.1837 C   0  0  0  0  0  0  0  0  0  0  0  0
   -4.5063    0.6096   -1.5744 C   0  0  0  0  0  0  0  0  0  0  0  0
   -3.4919   -0.2412   -1.1235 C   0  0  0  0  0  0  0  0  0  0  0  0
    3.1294    0.9100   -0.6632 C   0  0  0  0  0  0  0  0  0  0  0  0
    4.3020    1.6529   -0.5094 C   0  0  0  0  0  0  0  0  0  0  0  0
    8.1534    0.5864   -0.5614 H   0  0  0  0  0  0  0  0  0  0  0  0
    8.6119    2.2617   -0.8897 H   0  0  0  0  0  0  0  0  0  0  0  0
    7.9045    1.3082   -2.1993 H   0  0  0  0  0  0  0  0  0  0  0  0
    6.5127   -0.5810   -1.8184 H   0  0  0  0  0  0  0  0  0  0  0  0
    4.4668   -1.8775   -2.0835 H   0  0  0  0  0  0  0  0  0  0  0  0
    2.0745   -1.9982   -2.0951 H   0  0  0  0  0  0  0  0  0  0  0  0
    1.1405   -0.5232   -1.8446 H   0  0  0  0  0  0  0  0  0  0  0  0
    2.2297   -2.2077    0.3162 H   0  0  0  0  0  0  0  0  0  0  0  0
    0.1484   -3.0457    0.7727 H   0  0  0  0  0  0  0  0  0  0  0  0
    0.4874   -3.3682   -0.9107 H   0  0  0  0  0  0  0  0  0  0  0  0
   -1.8114   -2.6005   -0.6110 H   0  0  0  0  0  0  0  0  0  0  0  0
   -0.9218   -1.4783   -1.6209 H   0  0  0  0  0  0  0  0  0  0  0  0
   -0.5382   -0.0051    0.3872 H   0  0  0  0  0  0  0  0  0  0  0  0
    0.1175   -0.3338    2.5889 H   0  0  0  0  0  0  0  0  0  0  0  0
   -0.3403   -1.1249    4.8941 H   0  0  0  0  0  0  0  0  0  0  0  0
   -4.0128   -2.9005    3.5917 H   0  0  0  0  0  0  0  0  0  0  0  0
   -3.5953   -2.1207    1.2786 H   0  0  0  0  0  0  0  0  0  0  0  0
   -1.9304    1.9134    0.9902 H   0  0  0  0  0  0  0  0  0  0  0  0
   -3.6926    3.3933    0.2032 H   0  0  0  0  0  0  0  0  0  0  0  0
   -5.9670    4.0191   -0.1056 H   0  0  0  0  0  0  0  0  0  0  0  0
   -6.6494    4.4154   -1.6873 H   0  0  0  0  0  0  0  0  0  0  0  0
   -4.9055    4.5860   -1.4538 H   0  0  0  0  0  0  0  0  0  0  0  0
   -5.2362    0.2417   -2.2915 H   0  0  0  0  0  0  0  0  0  0  0  0
   -3.4710   -1.2581   -1.5047 H   0  0  0  0  0  0  0  0  0  0  0  0
    2.1829    1.3267   -0.3260 H   0  0  0  0  0  0  0  0  0  0  0  0
    4.2562    2.6423   -0.0614 H   0  0  0  0  0  0  0  0  0  0  0  0
  1  2  1  0
  2  3  1  0
  3  4  2  0
  4  5  1  0
  5  6  2  0
  6  7  1  0
  7  8  1  0
  8  9  1  0
  9 10  1  0
 10 11  1  0
 11 12  1  0
 12 13  2  0
 13 14  1  0
 14 15  2  0
 15 16  1  0
 15 17  1  0
 17 18  2  0
 11 19  1  0
 19 20  2  0
 20 21  1  0
 21 22  2  0
 22 23  1  0
 23 24  1  0
 22 25  1  0
 25 26  2  0
  6 27  1  0
 27 28  2  0
 28  3  1  0
 18 12  1  0
 26 19  1  0
  1 29  1  0
  1 30  1  0
  1 31  1  0
  4 32  1  0
  5 33  1  0
  7 34  1  0
  7 35  1  0
  8 36  1  0
  9 37  1  0
  9 38  1  0
 10 39  1  0
 10 40  1  0
 11 41  1  0
 13 42  1  0
 14 43  1  0
 17 44  1  0
 18 45  1  0
 20 46  1  0
 21 47  1  0
 24 48  1  0
 24 49  1  0
 24 50  1  0
 25 51  1  0
 26 52  1  0
 27 53  1  0
 28 54  1  0
M  END
$$$$
