
     RDKit          3D

 59 62  0  0  0  0  0  0  0  0999 V2000
   -7.4896    0.0103    0.7274 C   0  0  0  0  0  0  0  0  0  0  0  0
   -6.3563    0.9960    0.9954 C   0  0  0  0  0  0  0  0  0  0  0  0
   -6.3000    2.0873   -0.0728 C   0  0  0  0  0  0  0  0  0  0  0  0
   -5.1784    3.0848    0.2271 C   0  0  0  0  0  0  0  0  0  0  0  0
   -4.0932    2.5219    1.1517 C   0  0  0  0  0  0  0  0  0  0  0  0
   -3.8292    1.1183    0.8307 N   0  0  0  0  0  0  0  0  0  0  0  0
   -2.6144    0.6278    1.4926 C   0  0  0  0  0  0  0  0  0  0  0  0
   -2.1358   -0.7350    0.9762 C   0  0  0  0  0  0  0  0  0  0  0  0
   -1.8575   -0.7240   -0.5251 C   0  0  0  0  0  0  0  0  0  0  0  0
   -1.2458   -2.0050   -0.9033 N   0  0  0  0  0  0  0  0  0  0  0  0
   -0.3202   -2.0702   -2.3038 S   0  0  0  0  0  6  0  0  0  0  0  0
   -0.2158   -3.4722   -2.6477 O   0  0  0  0  0  0  0  0  0  0  0  0
   -0.8262   -1.0933   -3.2420 O   0  0  0  0  0  0  0  0  0  0  0  0
    1.2683   -1.5349   -1.7159 C   0  0  0  0  0  0  0  0  0  0  0  0
    1.5952   -0.1678   -1.7570 C   0  0  0  0  0  0  0  0  0  0  0  0
    2.8436    0.2708   -1.3047 C   0  0  0  0  0  0  0  0  0  0  0  0
    3.7496   -0.6717   -0.8434 C   0  0  0  0  0  0  0  0  0  0  0  0
    3.4267   -2.0313   -0.8276 C   0  0  0  0  0  0  0  0  0  0  0  0
    2.1880   -2.4843   -1.2575 C   0  0  0  0  0  0  0  0  0  0  0  0
    4.5498   -2.8503   -0.2750 C   0  0  0  0  0  0  0  0  0  0  0  0
    5.6550   -1.8010   -0.1047 C   0  0  0  0  0  0  0  0  0  0  0  0
    5.0550   -0.4814   -0.3584 N   0  0  0  0  0  0  0  0  0  0  0  0
    5.6852    0.7391   -0.1927 C   0  0  0  0  0  0  0  0  0  0  0  0
    5.1838    1.8407   -0.3816 O   0  0  0  0  0  0  0  0  0  0  0  0
    7.0984    0.6726    0.2878 C   0  0  0  0  0  0  0  0  0  0  0  0
    8.2167    0.3203   -0.6671 C   0  0  0  0  0  0  0  0  0  0  0  0
    8.0971    1.7216   -0.1518 C   0  0  0  0  0  0  0  0  0  0  0  0
   -5.0015    0.2618    1.0923 C   0  0  0  0  0  0  0  0  0  0  0  0
   -7.5445   -0.7427    1.5209 H   0  0  0  0  0  0  0  0  0  0  0  0
   -7.3453   -0.5086   -0.2253 H   0  0  0  0  0  0  0  0  0  0  0  0
   -8.4537    0.5277    0.6873 H   0  0  0  0  0  0  0  0  0  0  0  0
   -6.5602    1.4809    1.9611 H   0  0  0  0  0  0  0  0  0  0  0  0
   -7.2559    2.6178   -0.1404 H   0  0  0  0  0  0  0  0  0  0  0  0
   -6.1251    1.6347   -1.0567 H   0  0  0  0  0  0  0  0  0  0  0  0
   -5.6013    3.9830    0.6934 H   0  0  0  0  0  0  0  0  0  0  0  0
   -4.7314    3.4080   -0.7219 H   0  0  0  0  0  0  0  0  0  0  0  0
   -3.1917    3.1317    1.0129 H   0  0  0  0  0  0  0  0  0  0  0  0
   -4.3891    2.6349    2.2038 H   0  0  0  0  0  0  0  0  0  0  0  0
   -1.7951    1.3414    1.3279 H   0  0  0  0  0  0  0  0  0  0  0  0
   -2.7591    0.5735    2.5784 H   0  0  0  0  0  0  0  0  0  0  0  0
   -1.2152   -0.9987    1.5139 H   0  0  0  0  0  0  0  0  0  0  0  0
   -2.8588   -1.5210    1.2214 H   0  0  0  0  0  0  0  0  0  0  0  0
   -2.7868   -0.5990   -1.0907 H   0  0  0  0  0  0  0  0  0  0  0  0
   -1.1884    0.1081   -0.7638 H   0  0  0  0  0  0  0  0  0  0  0  0
   -1.7879   -2.8558   -0.7570 H   0  0  0  0  0  0  0  0  0  0  0  0
    0.8823    0.5608   -2.1399 H   0  0  0  0  0  0  0  0  0  0  0  0
    3.0834    1.3290   -1.3355 H   0  0  0  0  0  0  0  0  0  0  0  0
    1.9429   -3.5427   -1.2386 H   0  0  0  0  0  0  0  0  0  0  0  0
    4.2700   -3.2854    0.6902 H   0  0  0  0  0  0  0  0  0  0  0  0
    4.8571   -3.6453   -0.9612 H   0  0  0  0  0  0  0  0  0  0  0  0
    6.0933   -1.8303    0.8976 H   0  0  0  0  0  0  0  0  0  0  0  0
    6.4572   -1.9595   -0.8342 H   0  0  0  0  0  0  0  0  0  0  0  0
    7.1929    0.3403    1.3176 H   0  0  0  0  0  0  0  0  0  0  0  0
    9.0302   -0.2885   -0.2924 H   0  0  0  0  0  0  0  0  0  0  0  0
    7.9707    0.1441   -1.7079 H   0  0  0  0  0  0  0  0  0  0  0  0
    7.7616    2.4932   -0.8370 H   0  0  0  0  0  0  0  0  0  0  0  0
    8.8194    2.0658    0.5805 H   0  0  0  0  0  0  0  0  0  0  0  0
   -4.9447   -0.1835    2.0958 H   0  0  0  0  0  0  0  0  0  0  0  0
   -4.9753   -0.5646    0.3713 H   0  0  0  0  0  0  0  0  0  0  0  0
  1  2  1  0
  2  3  1  0
  3  4  1  0
  4  5  1  0
  5  6  1  0
  6  7  1  0
  7  8  1  0
  8  9  1  0
  9 10  1  0
 10 11  1  0
 11 12  2  0
 11 13  2  0
 11 14  1  0
 14 15  2  0
 15 16  1  0
 16 17  2  0
 17 18  1  0
 18 19  2  0
 18 20  1  0
 20 21  1  0
 21 22  1  0
 22 23  1  0
 23 24  2  0
 23 25  1  0
 25 26  1  0
 26 27  1  0
  6 28  1  0
 28  2  1  0
 19 14  1  0
 27 25  1  0
 22 17  1  0
  1 29  1  0
  1 30  1  0
  1 31  1  0
  2 32  1  0
  3 33  1  0
  3 34  1  0
  4 35  1  0
  4 36  1  0
  5 37  1  0
  5 38  1  0
  7 39  1  0
  7 40  1  0
  8 41  1  0
  8 42  1  0
  9 43  1  0
  9 44  1  0
 10 45  1  0
 15 46  1  0
 16 47  1  0
 19 48  1  0
 20 49  1  0
 20 50  1  0
 21 51  1  0
 21 52  1  0
 25 53  1  0
 26 54  1  0
 26 55  1  0
 27 56  1  0
 27 57  1  0
 28 58  1  0
 28 59  1  0
M  END
$$$$
