
     RDKit          3D

 44 46  0  0  0  0  0  0  0  0999 V2000
    6.7302   -2.3455   -2.3605 C   0  0  0  0  0  0  0  0  0  0  0  0
    6.2213   -2.2104   -1.0388 O   0  0  0  0  0  0  0  0  0  0  0  0
    5.1452   -1.3830   -0.8765 C   0  0  0  0  0  0  0  0  0  0  0  0
    4.6442   -1.3256    0.4207 C   0  0  0  0  0  0  0  0  0  0  0  0
    3.5441   -0.5200    0.7299 C   0  0  0  0  0  0  0  0  0  0  0  0
    2.9270    0.2432   -0.2599 C   0  0  0  0  0  0  0  0  0  0  0  0
    1.8186    1.0828   -0.0346 N   0  0  0  0  0  0  0  0  0  0  0  0
    1.1343    1.2834    1.1547 C   0  0  0  0  0  0  0  0  0  0  0  0
    1.3671    0.7472    2.2380 O   0  0  0  0  0  0  0  0  0  0  0  0
    0.0081    2.2995    1.0087 C   0  0  0  0  0  0  0  0  0  0  0  0
   -0.7768    1.9200   -0.1174 O   0  0  0  0  0  0  0  0  0  0  0  0
   -1.9292    2.6271   -0.1660 C   0  0  0  0  0  0  0  0  0  0  0  0
   -1.8091    3.9158   -0.4853 N   0  0  0  0  0  0  0  0  0  0  0  0
   -3.3859    4.4704   -0.4809 S   0  0  0  0  0  0  0  0  0  0  0  0
   -4.2001    3.0736   -0.0752 N   0  0  0  0  0  0  0  0  0  0  0  0
   -3.2751    2.1109    0.0491 C   0  0  0  0  0  0  0  0  0  0  0  0
   -3.5782    0.8104    0.3814 N   0  0  0  0  0  0  0  0  0  0  0  0
   -2.6397   -0.2904    0.1460 C   0  0  0  0  0  0  0  0  0  0  0  0
   -3.3672   -1.6203   -0.0218 C   0  0  0  0  0  0  0  0  0  0  0  0
   -4.2518   -1.9439    1.1776 C   0  0  0  0  0  0  0  0  0  0  0  0
   -4.9151   -0.7024    1.7707 C   0  0  0  0  0  0  0  0  0  0  0  0
   -4.9424    0.4702    0.7927 C   0  0  0  0  0  0  0  0  0  0  0  0
    3.4324    0.1872   -1.5610 C   0  0  0  0  0  0  0  0  0  0  0  0
    4.5337   -0.6202   -1.8691 C   0  0  0  0  0  0  0  0  0  0  0  0
    7.0884   -1.3873   -2.7559 H   0  0  0  0  0  0  0  0  0  0  0  0
    7.5865   -3.0266   -2.3155 H   0  0  0  0  0  0  0  0  0  0  0  0
    5.9819   -2.7930   -3.0277 H   0  0  0  0  0  0  0  0  0  0  0  0
    5.1088   -1.9178    1.2027 H   0  0  0  0  0  0  0  0  0  0  0  0
    3.1968   -0.5182    1.7544 H   0  0  0  0  0  0  0  0  0  0  0  0
    1.4542    1.5790   -0.8428 H   0  0  0  0  0  0  0  0  0  0  0  0
   -0.5898    2.2805    1.9268 H   0  0  0  0  0  0  0  0  0  0  0  0
    0.4550    3.2923    0.8651 H   0  0  0  0  0  0  0  0  0  0  0  0
   -2.0618   -0.1231   -0.7710 H   0  0  0  0  0  0  0  0  0  0  0  0
   -1.9395   -0.3576    0.9858 H   0  0  0  0  0  0  0  0  0  0  0  0
   -3.9893   -1.5794   -0.9255 H   0  0  0  0  0  0  0  0  0  0  0  0
   -2.6440   -2.4280   -0.1784 H   0  0  0  0  0  0  0  0  0  0  0  0
   -3.6573   -2.4371    1.9593 H   0  0  0  0  0  0  0  0  0  0  0  0
   -5.0152   -2.6673    0.8731 H   0  0  0  0  0  0  0  0  0  0  0  0
   -5.9312   -0.9478    2.0971 H   0  0  0  0  0  0  0  0  0  0  0  0
   -4.3628   -0.3993    2.6739 H   0  0  0  0  0  0  0  0  0  0  0  0
   -5.4296    1.3115    1.3001 H   0  0  0  0  0  0  0  0  0  0  0  0
   -5.5454    0.2235   -0.0893 H   0  0  0  0  0  0  0  0  0  0  0  0
    2.9738    0.7661   -2.3615 H   0  0  0  0  0  0  0  0  0  0  0  0
    4.8851   -0.6313   -2.8934 H   0  0  0  0  0  0  0  0  0  0  0  0
  1  2  1  0
  2  3  1  0
  3  4  2  0
  4  5  1  0
  5  6  2  0
  6  7  1  0
  7  8  1  0
  8  9  2  0
  8 10  1  0
 10 11  1  0
 11 12  1  0
 12 13  2  0
 13 14  1  0
 14 15  1  0
 15 16  2  0
 16 17  1  0
 17 18  1  0
 18 19  1  0
 19 20  1  0
 20 21  1  0
 21 22  1  0
  6 23  1  0
 23 24  2  0
 24  3  1  0
 16 12  1  0
 22 17  1  0
  1 25  1  0
  1 26  1  0
  1 27  1  0
  4 28  1  0
  5 29  1  0
  7 30  1  0
 10 31  1  0
 10 32  1  0
 18 33  1  0
 18 34  1  0
 19 35  1  0
 19 36  1  0
 20 37  1  0
 20 38  1  0
 21 39  1  0
 21 40  1  0
 22 41  1  0
 22 42  1  0
 23 43  1  0
 24 44  1  0
M  END
$$$$
