
     RDKit          3D

 53 56  0  0  0  0  0  0  0  0999 V2000
   -3.0908   -1.2031    3.4318 C   0  0  0  0  0  0  0  0  0  0  0  0
   -3.6229   -0.1162    2.5061 C   0  0  0  0  0  0  0  0  0  0  0  0
   -3.4155   -0.3910    1.0025 C   0  0  0  0  0  0  0  0  0  0  0  0
   -4.1184   -1.6643    0.4864 C   0  0  0  0  0  0  0  0  0  0  0  0
   -5.6231   -1.6377    0.6050 C   0  0  0  0  0  0  0  0  0  0  0  0
   -6.2844   -2.4936    1.4960 C   0  0  0  0  0  0  0  0  0  0  0  0
   -7.6757   -2.4634    1.6063 C   0  0  0  0  0  0  0  0  0  0  0  0
   -8.4195   -1.5807    0.8260 C   0  0  0  0  0  0  0  0  0  0  0  0
   -7.7733   -0.7285   -0.0668 C   0  0  0  0  0  0  0  0  0  0  0  0
   -6.3824   -0.7573   -0.1786 C   0  0  0  0  0  0  0  0  0  0  0  0
   -1.9852   -0.4490    0.6896 N   0  0  0  0  0  0  0  0  0  0  0  0
   -1.2440    0.6889    0.4488 C   0  0  0  0  0  0  0  0  0  0  0  0
   -1.7272    1.8116    0.3647 O   0  0  0  0  0  0  0  0  0  0  0  0
    0.2193    0.4972    0.2544 C   0  0  0  0  0  0  0  0  0  0  0  0
    0.9262   -0.5039    0.9258 C   0  0  0  0  0  0  0  0  0  0  0  0
    2.3037   -0.6543    0.7214 C   0  0  0  0  0  0  0  0  0  0  0  0
    2.9837    0.2127   -0.1582 C   0  0  0  0  0  0  0  0  0  0  0  0
    4.3329    0.1731   -0.4504 N   0  0  0  0  0  0  0  0  0  0  0  0
    4.6698    1.1191   -1.3011 C   0  0  0  0  0  0  0  0  0  0  0  0
    5.9442    1.2909   -1.7519 N   0  0  0  0  0  0  0  0  0  0  0  0
    6.3420    2.3858   -2.6397 C   0  0  0  0  0  0  0  0  0  0  0  0
    7.7433    2.1170   -3.2126 C   0  0  0  0  0  0  0  0  0  0  0  0
    8.7613    1.9768   -2.2120 O   0  0  0  0  0  0  0  0  0  0  0  0
    8.2758    1.4312   -0.9760 C   0  0  0  0  0  0  0  0  0  0  0  0
    7.0373    0.5340   -1.1290 C   0  0  0  0  0  0  0  0  0  0  0  0
    3.3391    2.1139   -1.7921 S   0  0  0  0  0  0  0  0  0  0  0  0
    2.2644    1.2143   -0.8030 C   0  0  0  0  0  0  0  0  0  0  0  0
    0.8832    1.3820   -0.6094 C   0  0  0  0  0  0  0  0  0  0  0  0
   -3.2386   -0.9071    4.4756 H   0  0  0  0  0  0  0  0  0  0  0  0
   -2.0195   -1.3681    3.2817 H   0  0  0  0  0  0  0  0  0  0  0  0
   -3.6116   -2.1526    3.2824 H   0  0  0  0  0  0  0  0  0  0  0  0
   -3.1266    0.8266    2.7693 H   0  0  0  0  0  0  0  0  0  0  0  0
   -4.6891    0.0332    2.7122 H   0  0  0  0  0  0  0  0  0  0  0  0
   -3.8245    0.4725    0.4621 H   0  0  0  0  0  0  0  0  0  0  0  0
   -3.8714   -1.8073   -0.5750 H   0  0  0  0  0  0  0  0  0  0  0  0
   -3.7136   -2.5525    0.9879 H   0  0  0  0  0  0  0  0  0  0  0  0
   -5.7223   -3.1903    2.1135 H   0  0  0  0  0  0  0  0  0  0  0  0
   -8.1798   -3.1294    2.3017 H   0  0  0  0  0  0  0  0  0  0  0  0
   -9.5025   -1.5574    0.9126 H   0  0  0  0  0  0  0  0  0  0  0  0
   -8.3522   -0.0404   -0.6773 H   0  0  0  0  0  0  0  0  0  0  0  0
   -5.8949   -0.0863   -0.8832 H   0  0  0  0  0  0  0  0  0  0  0  0
   -1.5277   -1.3489    0.7280 H   0  0  0  0  0  0  0  0  0  0  0  0
    0.4343   -1.1612    1.6372 H   0  0  0  0  0  0  0  0  0  0  0  0
    2.8611   -1.4277    1.2414 H   0  0  0  0  0  0  0  0  0  0  0  0
    5.6461    2.4881   -3.4797 H   0  0  0  0  0  0  0  0  0  0  0  0
    6.3524    3.3240   -2.0721 H   0  0  0  0  0  0  0  0  0  0  0  0
    8.0431    2.9367   -3.8734 H   0  0  0  0  0  0  0  0  0  0  0  0
    7.7396    1.1993   -3.8128 H   0  0  0  0  0  0  0  0  0  0  0  0
    8.0523    2.2737   -0.3108 H   0  0  0  0  0  0  0  0  0  0  0  0
    9.0966    0.8667   -0.5223 H   0  0  0  0  0  0  0  0  0  0  0  0
    6.7678    0.1502   -0.1384 H   0  0  0  0  0  0  0  0  0  0  0  0
    7.2753   -0.3225   -1.7708 H   0  0  0  0  0  0  0  0  0  0  0  0
    0.3419    2.1752   -1.1190 H   0  0  0  0  0  0  0  0  0  0  0  0
  1  2  1  0
  2  3  1  0
  3  4  1  0
  4  5  1  0
  5  6  2  0
  6  7  1  0
  7  8  2  0
  8  9  1  0
  9 10  2  0
  3 11  1  0
 11 12  1  0
 12 13  2  0
 12 14  1  0
 14 15  2  0
 15 16  1  0
 16 17  2  0
 17 18  1  0
 18 19  2  0
 19 20  1  0
 20 21  1  0
 21 22  1  0
 22 23  1  0
 23 24  1  0
 24 25  1  0
 19 26  1  0
 26 27  1  0
 27 28  2  0
 10  5  1  0
 28 14  1  0
 27 17  1  0
 25 20  1  0
  1 29  1  0
  1 30  1  0
  1 31  1  0
  2 32  1  0
  2 33  1  0
  3 34  1  0
  4 35  1  0
  4 36  1  0
  6 37  1  0
  7 38  1  0
  8 39  1  0
  9 40  1  0
 10 41  1  0
 11 42  1  0
 15 43  1  0
 16 44  1  0
 21 45  1  0
 21 46  1  0
 22 47  1  0
 22 48  1  0
 24 49  1  0
 24 50  1  0
 25 51  1  0
 25 52  1  0
 28 53  1  0
M  END
$$$$
