
     RDKit          3D

 66 68  0  0  0  0  0  0  0  0999 V2000
   -2.6436   -2.2496    2.5823 C   0  0  0  0  0  0  0  0  0  0  0  0
   -1.7630   -1.0139    2.6672 C   0  0  0  0  0  0  0  0  0  0  0  0
   -2.0126   -0.1224    1.5789 O   0  0  0  0  0  0  0  0  0  0  0  0
   -3.1256    0.6795    1.6125 C   0  0  0  0  0  0  0  0  0  0  0  0
   -3.8837    0.9242    2.7652 C   0  0  0  0  0  0  0  0  0  0  0  0
   -4.9833    1.7866    2.7295 C   0  0  0  0  0  0  0  0  0  0  0  0
   -5.3356    2.4207    1.5444 C   0  0  0  0  0  0  0  0  0  0  0  0
   -4.5899    2.1887    0.3903 C   0  0  0  0  0  0  0  0  0  0  0  0
   -3.4888    1.3147    0.4058 C   0  0  0  0  0  0  0  0  0  0  0  0
   -2.7664    1.1562   -0.8690 C   0  0  0  0  0  0  0  0  0  0  0  0
   -2.4762   -0.0318   -1.4238 C   0  0  0  0  0  0  0  0  0  0  0  0
   -1.8283   -0.0954   -2.6928 C   0  0  0  0  0  0  0  0  0  0  0  0
   -1.8354    0.9694   -3.5716 O   0  0  0  0  0  0  0  0  0  0  0  0
   -1.1677    0.6660   -4.7314 N   0  0  0  0  0  0  0  0  0  0  0  0
   -0.7400   -0.5910   -4.5923 C   0  0  0  0  0  0  0  0  0  0  0  0
    0.0136   -1.2211   -5.7038 C   0  0  0  0  0  0  0  0  0  0  0  0
   -1.1060   -1.1009   -3.3222 C   0  0  0  0  0  0  0  0  0  0  0  0
   -0.6777   -2.6363   -2.6898 S   0  0  0  0  0  6  0  0  0  0  0  0
   -1.8272   -3.0570   -1.9209 O   0  0  0  0  0  0  0  0  0  0  0  0
   -0.2322   -3.3952   -3.8379 O   0  0  0  0  0  0  0  0  0  0  0  0
    0.6473   -2.4465   -1.6535 N   0  0  0  0  0  0  0  0  0  0  0  0
    1.9563   -2.1434   -2.2697 C   0  0  0  0  0  0  0  0  0  0  0  0
    2.9693   -1.7152   -1.2158 C   0  0  0  0  0  0  0  0  0  0  0  0
    2.4949   -0.4393   -0.4960 C   0  0  0  0  0  0  0  0  0  0  0  0
    3.3393   -0.1551    0.7501 C   0  0  0  0  0  0  0  0  0  0  0  0
    4.0960   -1.0233    1.1938 O   0  0  0  0  0  0  0  0  0  0  0  0
    3.2243    1.0903    1.3710 N   0  0  0  0  0  0  0  0  0  0  0  0
    4.0909    1.3373    2.5289 C   0  0  0  0  0  0  0  0  0  0  0  0
    5.4840    1.7924    2.1166 C   0  0  0  0  0  0  0  0  0  0  0  0
    2.4776    2.2445    0.8488 C   0  0  0  0  0  0  0  0  0  0  0  0
    1.3015    2.6396    1.7331 C   0  0  0  0  0  0  0  0  0  0  0  0
    1.0011   -0.5188   -0.1464 C   0  0  0  0  0  0  0  0  0  0  0  0
    0.4260   -1.9202   -0.2948 C   0  0  0  0  0  0  0  0  0  0  0  0
   -3.7033   -1.9966    2.6854 H   0  0  0  0  0  0  0  0  0  0  0  0
   -2.5263   -2.7365    1.6087 H   0  0  0  0  0  0  0  0  0  0  0  0
   -2.3822   -2.9658    3.3671 H   0  0  0  0  0  0  0  0  0  0  0  0
   -1.8236   -0.5162    3.6399 H   0  0  0  0  0  0  0  0  0  0  0  0
   -0.7192   -1.3327    2.5693 H   0  0  0  0  0  0  0  0  0  0  0  0
   -3.6459    0.4678    3.7191 H   0  0  0  0  0  0  0  0  0  0  0  0
   -5.5612    1.9655    3.6330 H   0  0  0  0  0  0  0  0  0  0  0  0
   -6.1882    3.0950    1.5161 H   0  0  0  0  0  0  0  0  0  0  0  0
   -4.8808    2.6891   -0.5317 H   0  0  0  0  0  0  0  0  0  0  0  0
   -2.5177    2.0890   -1.3714 H   0  0  0  0  0  0  0  0  0  0  0  0
   -2.7494   -0.9541   -0.9186 H   0  0  0  0  0  0  0  0  0  0  0  0
    0.1817   -0.5145   -6.5245 H   0  0  0  0  0  0  0  0  0  0  0  0
    0.9953   -1.5660   -5.3654 H   0  0  0  0  0  0  0  0  0  0  0  0
   -0.5420   -2.0709   -6.1128 H   0  0  0  0  0  0  0  0  0  0  0  0
    1.8500   -1.3444   -3.0106 H   0  0  0  0  0  0  0  0  0  0  0  0
    2.3236   -3.0404   -2.7796 H   0  0  0  0  0  0  0  0  0  0  0  0
    3.1236   -2.5370   -0.5048 H   0  0  0  0  0  0  0  0  0  0  0  0
    3.9424   -1.5307   -1.6871 H   0  0  0  0  0  0  0  0  0  0  0  0
    2.6603    0.3860   -1.1989 H   0  0  0  0  0  0  0  0  0  0  0  0
    4.1727    0.4183    3.1206 H   0  0  0  0  0  0  0  0  0  0  0  0
    3.6285    2.0879    3.1766 H   0  0  0  0  0  0  0  0  0  0  0  0
    6.1046    1.9626    3.0024 H   0  0  0  0  0  0  0  0  0  0  0  0
    5.9791    1.0413    1.4933 H   0  0  0  0  0  0  0  0  0  0  0  0
    5.4437    2.7250    1.5451 H   0  0  0  0  0  0  0  0  0  0  0  0
    2.1046    2.0508   -0.1565 H   0  0  0  0  0  0  0  0  0  0  0  0
    3.1749    3.0855    0.7611 H   0  0  0  0  0  0  0  0  0  0  0  0
    0.7481    3.4661    1.2759 H   0  0  0  0  0  0  0  0  0  0  0  0
    0.6078    1.8067    1.8773 H   0  0  0  0  0  0  0  0  0  0  0  0
    1.6313    2.9682    2.7223 H   0  0  0  0  0  0  0  0  0  0  0  0
    0.4583    0.1671   -0.8057 H   0  0  0  0  0  0  0  0  0  0  0  0
    0.8116   -0.1836    0.8767 H   0  0  0  0  0  0  0  0  0  0  0  0
    0.8943   -2.6044    0.4232 H   0  0  0  0  0  0  0  0  0  0  0  0
   -0.6361   -1.9119   -0.0423 H   0  0  0  0  0  0  0  0  0  0  0  0
  1  2  1  0
  2  3  1  0
  3  4  1  0
  4  5  2  0
  5  6  1  0
  6  7  2  0
  7  8  1  0
  8  9  2  0
  9 10  1  0
 10 11  2  3
 11 12  1  0
 12 13  1  0
 13 14  1  0
 14 15  2  0
 15 16  1  0
 15 17  1  0
 17 18  1  0
 18 19  2  0
 18 20  2  0
 18 21  1  0
 21 22  1  0
 22 23  1  0
 23 24  1  0
 24 25  1  0
 25 26  2  0
 25 27  1  0
 27 28  1  0
 28 29  1  0
 27 30  1  0
 30 31  1  0
 24 32  1  0
 32 33  1  0
  9  4  1  0
 17 12  2  0
 33 21  1  0
  1 34  1  0
  1 35  1  0
  1 36  1  0
  2 37  1  0
  2 38  1  0
  5 39  1  0
  6 40  1  0
  7 41  1  0
  8 42  1  0
 10 43  1  0
 11 44  1  0
 16 45  1  0
 16 46  1  0
 16 47  1  0
 22 48  1  0
 22 49  1  0
 23 50  1  0
 23 51  1  0
 24 52  1  0
 28 53  1  0
 28 54  1  0
 29 55  1  0
 29 56  1  0
 29 57  1  0
 30 58  1  0
 30 59  1  0
 31 60  1  0
 31 61  1  0
 31 62  1  0
 32 63  1  0
 32 64  1  0
 33 65  1  0
 33 66  1  0
M  END
$$$$
