
     RDKit          3D

 34 35  0  0  0  0  0  0  0  0999 V2000
   -0.4264   -0.7098   -0.6326 O   0  0  0  0  0  0  0  0  0  0  0  0
   -0.6537   -0.0478    0.3753 C   0  0  0  0  0  0  0  0  0  0  0  0
    0.4431    0.6300    1.1948 C   0  0  0  0  0  0  0  0  0  0  0  0
    1.7138    0.4484    0.5729 O   0  0  0  0  0  0  0  0  0  0  0  0
    2.7463    0.9914    1.2543 C   0  0  0  0  0  0  0  0  0  0  0  0
    2.6654    1.5875    2.3154 O   0  0  0  0  0  0  0  0  0  0  0  0
    4.0158    0.7621    0.5312 C   0  0  0  0  0  0  0  0  0  0  0  0
    4.1011    0.0835   -0.6890 C   0  0  0  0  0  0  0  0  0  0  0  0
    5.3472   -0.0823   -1.2941 C   0  0  0  0  0  0  0  0  0  0  0  0
    6.4588    0.4384   -0.6521 C   0  0  0  0  0  0  0  0  0  0  0  0
    8.0244    0.2759   -1.3299 Cl  0  0  0  0  0  0  0  0  0  0  0  0
    6.4176    1.0982    0.5240 N   0  0  0  0  0  0  0  0  0  0  0  0
    5.1936    1.2456    1.0898 C   0  0  0  0  0  0  0  0  0  0  0  0
   -1.9184    0.1418    0.9157 N   0  0  0  0  0  0  0  0  0  0  0  0
   -3.1087   -0.4000    0.3616 C   0  0  0  0  0  0  0  0  0  0  0  0
   -4.0354   -0.9572    1.2728 C   0  0  0  0  0  0  0  0  0  0  0  0
   -3.7286   -0.9325    2.9802 Cl  0  0  0  0  0  0  0  0  0  0  0  0
   -5.2087   -1.5735    0.8362 C   0  0  0  0  0  0  0  0  0  0  0  0
   -5.4885   -1.6326   -0.5221 C   0  0  0  0  0  0  0  0  0  0  0  0
   -4.6127   -1.0411   -1.4311 C   0  0  0  0  0  0  0  0  0  0  0  0
   -3.4293   -0.3882   -1.0096 C   0  0  0  0  0  0  0  0  0  0  0  0
   -2.6585    0.3577   -2.0782 C   0  0  0  0  0  0  0  0  0  0  0  0
   -1.8661    1.3680   -1.6223 F   0  0  0  0  0  0  0  0  0  0  0  0
   -3.5119    0.9757   -2.9564 F   0  0  0  0  0  0  0  0  0  0  0  0
   -1.8870   -0.4455   -2.8582 F   0  0  0  0  0  0  0  0  0  0  0  0
    0.2127    1.6998    1.2581 H   0  0  0  0  0  0  0  0  0  0  0  0
    0.4503    0.1780    2.1935 H   0  0  0  0  0  0  0  0  0  0  0  0
    3.2141   -0.3170   -1.1754 H   0  0  0  0  0  0  0  0  0  0  0  0
    5.4405   -0.6042   -2.2401 H   0  0  0  0  0  0  0  0  0  0  0  0
    5.1935    1.7821    2.0364 H   0  0  0  0  0  0  0  0  0  0  0  0
   -1.9377    0.2608    1.9263 H   0  0  0  0  0  0  0  0  0  0  0  0
   -5.9002   -2.0163    1.5486 H   0  0  0  0  0  0  0  0  0  0  0  0
   -6.3962   -2.1177   -0.8743 H   0  0  0  0  0  0  0  0  0  0  0  0
   -4.8701   -1.0594   -2.4917 H   0  0  0  0  0  0  0  0  0  0  0  0
  1  2  2  0
  2  3  1  0
  3  4  1  0
  4  5  1  0
  5  6  2  0
  5  7  1  0
  7  8  2  0
  8  9  1  0
  9 10  2  0
 10 11  1  0
 10 12  1  0
 12 13  2  0
  2 14  1  0
 14 15  1  0
 15 16  2  0
 16 17  1  0
 16 18  1  0
 18 19  2  0
 19 20  1  0
 20 21  2  0
 21 22  1  0
 22 23  1  0
 22 24  1  0
 22 25  1  0
 13  7  1  0
 21 15  1  0
  3 26  1  0
  3 27  1  0
  8 28  1  0
  9 29  1  0
 13 30  1  0
 14 31  1  0
 18 32  1  0
 19 33  1  0
 20 34  1  0
M  END
$$$$
