
     RDKit          3D

 50 53  0  0  0  0  0  0  0  0999 V2000
   -6.9600    0.4251    2.8184 C   0  0  0  0  0  0  0  0  0  0  0  0
   -6.8198    0.6313    1.3641 C   0  0  0  0  0  0  0  0  0  0  0  0
   -6.4511   -0.1704    0.3105 C   0  0  0  0  0  0  0  0  0  0  0  0
   -6.5362    0.6700   -0.8184 C   0  0  0  0  0  0  0  0  0  0  0  0
   -6.2773    0.3851   -2.1456 N   0  0  0  0  0  0  0  0  0  0  0  0
   -5.5663   -0.9955   -2.7311 S   0  0  0  0  0  6  0  0  0  0  0  0
   -5.5141   -0.8657   -4.1723 O   0  0  0  0  0  0  0  0  0  0  0  0
   -6.1735   -2.1508   -2.1024 O   0  0  0  0  0  0  0  0  0  0  0  0
   -3.8969   -0.8545   -2.1348 C   0  0  0  0  0  0  0  0  0  0  0  0
   -3.4281   -1.7191   -1.1453 C   0  0  0  0  0  0  0  0  0  0  0  0
   -2.1101   -1.5977   -0.6948 C   0  0  0  0  0  0  0  0  0  0  0  0
   -1.2520   -0.6283   -1.2341 C   0  0  0  0  0  0  0  0  0  0  0  0
    0.0608   -0.5775   -0.7215 N   0  0  0  0  0  0  0  0  0  0  0  0
    1.0880    0.2673   -1.1153 C   0  0  0  0  0  0  0  0  0  0  0  0
    1.0324    1.1246   -1.9893 O   0  0  0  0  0  0  0  0  0  0  0  0
    2.3526    0.0159   -0.3175 C   0  0  0  0  0  0  0  0  0  0  0  0
    3.4887    0.9181   -0.7916 C   0  0  0  0  0  0  0  0  0  0  0  0
    4.7125    0.6710   -0.0493 N   0  0  0  0  0  0  0  0  0  0  0  0
    5.5616   -0.3708   -0.3051 C   0  0  0  0  0  0  0  0  0  0  0  0
    5.4671   -1.2479   -1.1410 O   0  0  0  0  0  0  0  0  0  0  0  0
    6.6413   -0.2779    0.6748 C   0  0  0  0  0  0  0  0  0  0  0  0
    7.7661   -1.0601    0.8460 C   0  0  0  0  0  0  0  0  0  0  0  0
    8.6259   -0.7197    1.8958 C   0  0  0  0  0  0  0  0  0  0  0  0
    8.3428    0.3753    2.7374 C   0  0  0  0  0  0  0  0  0  0  0  0
    7.1921    1.1473    2.5482 C   0  0  0  0  0  0  0  0  0  0  0  0
    6.3611    0.7931    1.5031 C   0  0  0  0  0  0  0  0  0  0  0  0
    5.1007    1.3821    1.0527 C   0  0  0  0  0  0  0  0  0  0  0  0
    4.5392    2.3063    1.6082 O   0  0  0  0  0  0  0  0  0  0  0  0
   -1.7334    0.2179   -2.2365 C   0  0  0  0  0  0  0  0  0  0  0  0
   -3.0519    0.1055   -2.6919 C   0  0  0  0  0  0  0  0  0  0  0  0
   -6.9408    1.8971   -0.4781 N   0  0  0  0  0  0  0  0  0  0  0  0
   -7.1135    1.8736    0.8958 O   0  0  0  0  0  0  0  0  0  0  0  0
   -6.3269    1.1318    3.3688 H   0  0  0  0  0  0  0  0  0  0  0  0
   -6.6629   -0.5907    3.0984 H   0  0  0  0  0  0  0  0  0  0  0  0
   -7.9990    0.5728    3.1307 H   0  0  0  0  0  0  0  0  0  0  0  0
   -6.1803   -1.2142    0.3643 H   0  0  0  0  0  0  0  0  0  0  0  0
   -6.4451    1.1246   -2.8211 H   0  0  0  0  0  0  0  0  0  0  0  0
   -4.0699   -2.4902   -0.7262 H   0  0  0  0  0  0  0  0  0  0  0  0
   -1.7629   -2.2802    0.0773 H   0  0  0  0  0  0  0  0  0  0  0  0
    0.2792   -1.2486    0.0051 H   0  0  0  0  0  0  0  0  0  0  0  0
    2.1423    0.2030    0.7425 H   0  0  0  0  0  0  0  0  0  0  0  0
    2.6337   -1.0394   -0.4276 H   0  0  0  0  0  0  0  0  0  0  0  0
    3.2107    1.9713   -0.6685 H   0  0  0  0  0  0  0  0  0  0  0  0
    3.6943    0.7399   -1.8534 H   0  0  0  0  0  0  0  0  0  0  0  0
    7.9720   -1.9012    0.1897 H   0  0  0  0  0  0  0  0  0  0  0  0
    9.5286   -1.3062    2.0638 H   0  0  0  0  0  0  0  0  0  0  0  0
    9.0290    0.6213    3.5473 H   0  0  0  0  0  0  0  0  0  0  0  0
    6.9567    1.9905    3.1952 H   0  0  0  0  0  0  0  0  0  0  0  0
   -1.1068    0.9788   -2.6927 H   0  0  0  0  0  0  0  0  0  0  0  0
   -3.4007    0.7654   -3.4828 H   0  0  0  0  0  0  0  0  0  0  0  0
  1  2  1  0
  2  3  2  0
  3  4  1  0
  4  5  1  0
  5  6  1  0
  6  7  2  0
  6  8  2  0
  6  9  1  0
  9 10  2  0
 10 11  1  0
 11 12  2  0
 12 13  1  0
 13 14  1  0
 14 15  2  0
 14 16  1  0
 16 17  1  0
 17 18  1  0
 18 19  1  0
 19 20  2  0
 19 21  1  0
 21 22  2  0
 22 23  1  0
 23 24  2  0
 24 25  1  0
 25 26  2  0
 26 27  1  0
 27 28  2  0
 12 29  1  0
 29 30  2  0
  4 31  2  0
 31 32  1  0
 32  2  1  0
 30  9  1  0
 27 18  1  0
 26 21  1  0
  1 33  1  0
  1 34  1  0
  1 35  1  0
  3 36  1  0
  5 37  1  0
 10 38  1  0
 11 39  1  0
 13 40  1  0
 16 41  1  0
 16 42  1  0
 17 43  1  0
 17 44  1  0
 22 45  1  0
 23 46  1  0
 24 47  1  0
 25 48  1  0
 29 49  1  0
 30 50  1  0
M  END
$$$$
