
     RDKit          3D

 44 47  0  0  0  0  0  0  0  0999 V2000
    1.7202   -1.9438    2.8869 O   0  0  0  0  0  0  0  0  0  0  0  0
    1.4554   -0.7774    2.0621 S   0  0  0  0  0  6  0  0  0  0  0  0
    0.8713    0.3939    2.6774 O   0  0  0  0  0  0  0  0  0  0  0  0
    2.9756   -0.3904    1.2306 C   0  0  0  0  0  0  0  0  0  0  0  0
    3.9597   -1.3971    1.1924 C   0  0  0  0  0  0  0  0  0  0  0  0
    5.1945   -1.1450    0.6118 C   0  0  0  0  0  0  0  0  0  0  0  0
    5.4484    0.1117    0.0779 C   0  0  0  0  0  0  0  0  0  0  0  0
    4.4674    1.1172    0.1158 C   0  0  0  0  0  0  0  0  0  0  0  0
    4.7385    2.3793   -0.4310 C   0  0  0  0  0  0  0  0  0  0  0  0
    3.7728    3.3742   -0.4029 C   0  0  0  0  0  0  0  0  0  0  0  0
    2.5576    3.0672    0.1660 C   0  0  0  0  0  0  0  0  0  0  0  0
    2.2621    1.8580    0.6901 N   0  0  0  0  0  0  0  0  0  0  0  0
    3.1977    0.8820    0.6972 C   0  0  0  0  0  0  0  0  0  0  0  0
    0.4150   -1.3057    0.8081 N   0  0  0  0  0  0  0  0  0  0  0  0
    0.0898   -0.2626   -0.2249 C   0  0  0  0  0  0  0  0  0  0  0  0
   -1.1520   -0.6275   -1.0623 C   0  0  0  0  0  0  0  0  0  0  0  0
   -2.3427   -0.7911   -0.2107 N   0  0  0  0  0  0  0  0  0  0  0  0
   -3.6017   -0.4314   -0.6617 C   0  0  0  0  0  0  0  0  0  0  0  0
   -3.9229   -0.4402   -2.0297 C   0  0  0  0  0  0  0  0  0  0  0  0
   -5.1943   -0.0854   -2.4980 C   0  0  0  0  0  0  0  0  0  0  0  0
   -6.1868    0.2891   -1.6014 C   0  0  0  0  0  0  0  0  0  0  0  0
   -5.9048    0.3040   -0.2413 C   0  0  0  0  0  0  0  0  0  0  0  0
   -4.6305   -0.0546    0.2168 C   0  0  0  0  0  0  0  0  0  0  0  0
   -2.0898   -1.1405    1.1967 C   0  0  0  0  0  0  0  0  0  0  0  0
   -0.8195   -2.0007    1.3210 C   0  0  0  0  0  0  0  0  0  0  0  0
    3.7664   -2.3791    1.6213 H   0  0  0  0  0  0  0  0  0  0  0  0
    5.9565   -1.9201    0.5834 H   0  0  0  0  0  0  0  0  0  0  0  0
    6.4212    0.3046   -0.3708 H   0  0  0  0  0  0  0  0  0  0  0  0
    5.7059    2.5952   -0.8788 H   0  0  0  0  0  0  0  0  0  0  0  0
    3.9647    4.3591   -0.8126 H   0  0  0  0  0  0  0  0  0  0  0  0
    1.7592    3.8020    0.2219 H   0  0  0  0  0  0  0  0  0  0  0  0
    0.9444   -0.1645   -0.9016 H   0  0  0  0  0  0  0  0  0  0  0  0
   -0.0962    0.7019    0.2599 H   0  0  0  0  0  0  0  0  0  0  0  0
   -1.2958    0.1747   -1.7960 H   0  0  0  0  0  0  0  0  0  0  0  0
   -0.9737   -1.5612   -1.6089 H   0  0  0  0  0  0  0  0  0  0  0  0
   -3.1869   -0.7538   -2.7647 H   0  0  0  0  0  0  0  0  0  0  0  0
   -5.4039   -0.1105   -3.5638 H   0  0  0  0  0  0  0  0  0  0  0  0
   -7.1743    0.5652   -1.9597 H   0  0  0  0  0  0  0  0  0  0  0  0
   -6.6712    0.5974    0.4710 H   0  0  0  0  0  0  0  0  0  0  0  0
   -4.4540   -0.0080    1.2876 H   0  0  0  0  0  0  0  0  0  0  0  0
   -2.9235   -1.7258    1.6026 H   0  0  0  0  0  0  0  0  0  0  0  0
   -1.9879   -0.2256    1.7925 H   0  0  0  0  0  0  0  0  0  0  0  0
   -0.9323   -2.9226    0.7364 H   0  0  0  0  0  0  0  0  0  0  0  0
   -0.6996   -2.3120    2.3637 H   0  0  0  0  0  0  0  0  0  0  0  0
  1  2  2  0
  2  3  2  0
  2  4  1  0
  4  5  2  0
  5  6  1  0
  6  7  2  0
  7  8  1  0
  8  9  2  0
  9 10  1  0
 10 11  2  0
 11 12  1  0
 12 13  2  0
  2 14  1  0
 14 15  1  0
 15 16  1  0
 16 17  1  0
 17 18  1  0
 18 19  2  0
 19 20  1  0
 20 21  2  0
 21 22  1  0
 22 23  2  0
 17 24  1  0
 24 25  1  0
 13  4  1  0
 25 14  1  0
 13  8  1  0
 23 18  1  0
  5 26  1  0
  6 27  1  0
  7 28  1  0
  9 29  1  0
 10 30  1  0
 11 31  1  0
 15 32  1  0
 15 33  1  0
 16 34  1  0
 16 35  1  0
 19 36  1  0
 20 37  1  0
 21 38  1  0
 22 39  1  0
 23 40  1  0
 24 41  1  0
 24 42  1  0
 25 43  1  0
 25 44  1  0
M  END
$$$$
