
     RDKit          3D

 56 59  0  0  0  0  0  0  0  0999 V2000
    7.7440   -0.8195   -1.1303 C   0  0  0  0  0  0  0  0  0  0  0  0
    7.7332   -0.0179    0.0462 O   0  0  0  0  0  0  0  0  0  0  0  0
    6.4616    0.3172    0.4641 C   0  0  0  0  0  0  0  0  0  0  0  0
    6.3773    1.0921    1.6061 C   0  0  0  0  0  0  0  0  0  0  0  0
    5.1136    1.4540    2.0646 C   0  0  0  0  0  0  0  0  0  0  0  0
    3.9680    1.0341    1.3745 C   0  0  0  0  0  0  0  0  0  0  0  0
    2.6431    1.4530    1.9181 C   0  0  0  0  0  0  0  0  0  0  0  0
    2.5919    2.1943    2.8959 O   0  0  0  0  0  0  0  0  0  0  0  0
    1.5113    0.9861    1.2941 N   0  0  0  0  0  0  0  0  0  0  0  0
    0.1861    1.4264    1.6754 C   0  0  0  0  0  0  0  0  0  0  0  0
   -0.1253    2.8099    1.0573 C   0  0  0  0  0  0  0  0  0  0  0  0
   -1.6266    3.1384    1.1001 C   0  0  0  0  0  0  0  0  0  0  0  0
   -2.4750    2.1145    0.3190 C   0  0  0  0  0  0  0  0  0  0  0  0
   -2.0306    0.7275    0.6473 C   0  0  0  0  0  0  0  0  0  0  0  0
   -0.8060    0.4134    1.2101 C   0  0  0  0  0  0  0  0  0  0  0  0
   -0.7664   -0.9865    1.2078 C   0  0  0  0  0  0  0  0  0  0  0  0
   -1.8408   -1.5243    0.6336 N   0  0  0  0  0  0  0  0  0  0  0  0
   -2.6495   -0.4721    0.3267 N   0  0  0  0  0  0  0  0  0  0  0  0
   -3.9565   -0.7040   -0.1947 C   0  0  0  0  0  0  0  0  0  0  0  0
   -5.0164    0.0703    0.3034 C   0  0  0  0  0  0  0  0  0  0  0  0
   -6.3203   -0.1500   -0.1302 C   0  0  0  0  0  0  0  0  0  0  0  0
   -6.5844   -1.1627   -1.0451 C   0  0  0  0  0  0  0  0  0  0  0  0
   -5.5504   -1.9721   -1.5422 C   0  0  0  0  0  0  0  0  0  0  0  0
   -5.9105   -3.0636   -2.5167 C   0  0  0  0  0  0  0  0  0  0  0  0
   -4.2109   -1.7315   -1.1416 C   0  0  0  0  0  0  0  0  0  0  0  0
   -3.0944   -2.5620   -1.7312 C   0  0  0  0  0  0  0  0  0  0  0  0
    4.1638    0.2552    0.2316 C   0  0  0  0  0  0  0  0  0  0  0  0
    3.0579   -0.1657   -0.4846 O   0  0  0  0  0  0  0  0  0  0  0  0
    3.3739   -0.9938   -1.6014 C   0  0  0  0  0  0  0  0  0  0  0  0
    5.3873   -0.1071   -0.2321 N   0  0  0  0  0  0  0  0  0  0  0  0
    7.2387   -1.7771   -0.9632 H   0  0  0  0  0  0  0  0  0  0  0  0
    8.7882   -1.0334   -1.3782 H   0  0  0  0  0  0  0  0  0  0  0  0
    7.3031   -0.2847   -1.9789 H   0  0  0  0  0  0  0  0  0  0  0  0
    7.2735    1.4072    2.1291 H   0  0  0  0  0  0  0  0  0  0  0  0
    5.0257    2.0629    2.9625 H   0  0  0  0  0  0  0  0  0  0  0  0
    1.6130    0.4847    0.4171 H   0  0  0  0  0  0  0  0  0  0  0  0
    0.1339    1.4994    2.7689 H   0  0  0  0  0  0  0  0  0  0  0  0
    0.4398    3.5870    1.5858 H   0  0  0  0  0  0  0  0  0  0  0  0
    0.2109    2.8404    0.0115 H   0  0  0  0  0  0  0  0  0  0  0  0
   -1.7995    4.1398    0.6894 H   0  0  0  0  0  0  0  0  0  0  0  0
   -1.9552    3.1612    2.1473 H   0  0  0  0  0  0  0  0  0  0  0  0
   -3.5232    2.3001    0.5532 H   0  0  0  0  0  0  0  0  0  0  0  0
   -2.3428    2.2804   -0.7570 H   0  0  0  0  0  0  0  0  0  0  0  0
    0.0156   -1.6404    1.5732 H   0  0  0  0  0  0  0  0  0  0  0  0
   -4.8625    0.8036    1.0891 H   0  0  0  0  0  0  0  0  0  0  0  0
   -7.1359    0.4473    0.2687 H   0  0  0  0  0  0  0  0  0  0  0  0
   -7.6126   -1.3307   -1.3594 H   0  0  0  0  0  0  0  0  0  0  0  0
   -5.5778   -2.7953   -3.5243 H   0  0  0  0  0  0  0  0  0  0  0  0
   -5.4561   -4.0135   -2.2170 H   0  0  0  0  0  0  0  0  0  0  0  0
   -6.9932   -3.2276   -2.5533 H   0  0  0  0  0  0  0  0  0  0  0  0
   -2.8610   -3.4051   -1.0741 H   0  0  0  0  0  0  0  0  0  0  0  0
   -2.1968   -1.9587   -1.9016 H   0  0  0  0  0  0  0  0  0  0  0  0
   -3.3549   -2.9588   -2.7170 H   0  0  0  0  0  0  0  0  0  0  0  0
    3.8790   -1.9127   -1.2840 H   0  0  0  0  0  0  0  0  0  0  0  0
    2.4315   -1.2801   -2.0784 H   0  0  0  0  0  0  0  0  0  0  0  0
    3.9698   -0.4495   -2.3421 H   0  0  0  0  0  0  0  0  0  0  0  0
  1  2  1  0
  2  3  1  0
  3  4  2  0
  4  5  1  0
  5  6  2  0
  6  7  1  0
  7  8  2  0
  7  9  1  0
  9 10  1  0
 10 11  1  0
 11 12  1  0
 12 13  1  0
 13 14  1  0
 14 15  2  0
 15 16  1  0
 16 17  2  0
 17 18  1  0
 18 19  1  0
 19 20  2  0
 20 21  1  0
 21 22  2  0
 22 23  1  0
 23 24  1  0
 23 25  2  0
 25 26  1  0
  6 27  1  0
 27 28  1  0
 28 29  1  0
 27 30  2  0
 30  3  1  0
 15 10  1  0
 25 19  1  0
 18 14  1  0
  1 31  1  0
  1 32  1  0
  1 33  1  0
  4 34  1  0
  5 35  1  0
  9 36  1  0
 10 37  1  0
 11 38  1  0
 11 39  1  0
 12 40  1  0
 12 41  1  0
 13 42  1  0
 13 43  1  0
 16 44  1  0
 20 45  1  0
 21 46  1  0
 22 47  1  0
 24 48  1  0
 24 49  1  0
 24 50  1  0
 26 51  1  0
 26 52  1  0
 26 53  1  0
 29 54  1  0
 29 55  1  0
 29 56  1  0
M  END
$$$$
