
     RDKit          3D

 40 43  0  0  0  0  0  0  0  0999 V2000
    6.8753    1.5507   -2.4426 C   0  0  0  0  0  0  0  0  0  0  0  0
    5.7206    1.0194   -1.6686 C   0  0  0  0  0  0  0  0  0  0  0  0
    5.7316   -0.1210   -1.0142 N   0  0  0  0  0  0  0  0  0  0  0  0
    4.5143   -0.3165   -0.3848 C   0  0  0  0  0  0  0  0  0  0  0  0
    4.1602   -1.4214    0.4111 C   0  0  0  0  0  0  0  0  0  0  0  0
    2.8869   -1.4853    0.9961 C   0  0  0  0  0  0  0  0  0  0  0  0
    1.9548   -0.4684    0.7988 C   0  0  0  0  0  0  0  0  0  0  0  0
    0.6596   -0.4719    1.3577 N   0  0  0  0  0  0  0  0  0  0  0  0
    0.0834   -1.4423    2.1628 C   0  0  0  0  0  0  0  0  0  0  0  0
    0.6195   -2.4721    2.5609 O   0  0  0  0  0  0  0  0  0  0  0  0
   -1.3379   -1.0975    2.5893 C   0  0  0  0  0  0  0  0  0  0  0  0
   -2.2797   -0.8577    1.4320 C   0  0  0  0  0  0  0  0  0  0  0  0
   -2.5335   -1.8770    0.5014 C   0  0  0  0  0  0  0  0  0  0  0  0
   -3.3948   -1.6554   -0.5753 C   0  0  0  0  0  0  0  0  0  0  0  0
   -4.0125   -0.4172   -0.7290 C   0  0  0  0  0  0  0  0  0  0  0  0
   -3.7937    0.5928    0.2120 C   0  0  0  0  0  0  0  0  0  0  0  0
   -2.9218    0.3808    1.2800 C   0  0  0  0  0  0  0  0  0  0  0  0
   -4.3977    1.8232    0.1472 O   0  0  0  0  0  0  0  0  0  0  0  0
   -5.5214    1.7993   -0.7416 C   0  0  0  0  0  0  0  0  0  0  0  0
   -5.1548    1.1109   -2.0456 C   0  0  0  0  0  0  0  0  0  0  0  0
   -4.8306   -0.2658   -1.8188 O   0  0  0  0  0  0  0  0  0  0  0  0
    2.2917    0.6378    0.0015 C   0  0  0  0  0  0  0  0  0  0  0  0
    3.5732    0.6949   -0.5762 C   0  0  0  0  0  0  0  0  0  0  0  0
    4.2596    1.9155   -1.5795 S   0  0  0  0  0  0  0  0  0  0  0  0
    7.6310    0.7708   -2.5837 H   0  0  0  0  0  0  0  0  0  0  0  0
    7.3432    2.3826   -1.9070 H   0  0  0  0  0  0  0  0  0  0  0  0
    6.5659    1.8993   -3.4333 H   0  0  0  0  0  0  0  0  0  0  0  0
    4.8779   -2.2210    0.5695 H   0  0  0  0  0  0  0  0  0  0  0  0
    2.6630   -2.3572    1.6031 H   0  0  0  0  0  0  0  0  0  0  0  0
    0.0659    0.3101    1.1060 H   0  0  0  0  0  0  0  0  0  0  0  0
   -1.7337   -1.9201    3.1985 H   0  0  0  0  0  0  0  0  0  0  0  0
   -1.2857   -0.2179    3.2425 H   0  0  0  0  0  0  0  0  0  0  0  0
   -2.0578   -2.8517    0.6070 H   0  0  0  0  0  0  0  0  0  0  0  0
   -3.5778   -2.4470   -1.2967 H   0  0  0  0  0  0  0  0  0  0  0  0
   -2.7640    1.1835    1.9973 H   0  0  0  0  0  0  0  0  0  0  0  0
   -5.8171    2.8360   -0.9302 H   0  0  0  0  0  0  0  0  0  0  0  0
   -6.3541    1.2926   -0.2391 H   0  0  0  0  0  0  0  0  0  0  0  0
   -5.9998    1.1420   -2.7408 H   0  0  0  0  0  0  0  0  0  0  0  0
   -4.2969    1.5959   -2.5273 H   0  0  0  0  0  0  0  0  0  0  0  0
    1.5879    1.4462   -0.1734 H   0  0  0  0  0  0  0  0  0  0  0  0
  1  2  1  0
  2  3  2  0
  3  4  1  0
  4  5  2  0
  5  6  1  0
  6  7  2  0
  7  8  1  0
  8  9  1  0
  9 10  2  0
  9 11  1  0
 11 12  1  0
 12 13  2  0
 13 14  1  0
 14 15  2  0
 15 16  1  0
 16 17  2  0
 16 18  1  0
 18 19  1  0
 19 20  1  0
 20 21  1  0
  7 22  1  0
 22 23  2  0
 23 24  1  0
 24  2  1  0
 23  4  1  0
 17 12  1  0
 21 15  1  0
  1 25  1  0
  1 26  1  0
  1 27  1  0
  5 28  1  0
  6 29  1  0
  8 30  1  0
 11 31  1  0
 11 32  1  0
 13 33  1  0
 14 34  1  0
 17 35  1  0
 19 36  1  0
 19 37  1  0
 20 38  1  0
 20 39  1  0
 22 40  1  0
M  END
$$$$
