
     RDKit          3D

 35 38  0  0  0  0  0  0  0  0999 V2000
   -3.6014   -3.4112   -1.4918 O   0  0  0  0  0  0  0  0  0  0  0  0
   -3.4623   -2.3039   -1.0071 C   0  0  0  0  0  0  0  0  0  0  0  0
   -4.4436   -1.3478   -0.8188 N   0  0  0  0  0  0  0  0  0  0  0  0
   -3.9265   -0.2076   -0.2114 C   0  0  0  0  0  0  0  0  0  0  0  0
   -4.6402    0.9219    0.1412 C   0  0  0  0  0  0  0  0  0  0  0  0
   -3.9416    1.9499    0.7741 C   0  0  0  0  0  0  0  0  0  0  0  0
   -2.5684    1.8194    1.0419 C   0  0  0  0  0  0  0  0  0  0  0  0
   -1.8683    0.6622    0.6750 C   0  0  0  0  0  0  0  0  0  0  0  0
   -2.5531   -0.3507    0.0299 C   0  0  0  0  0  0  0  0  0  0  0  0
   -2.1933   -1.6780   -0.4836 C   0  0  0  0  0  0  0  0  0  0  0  0
   -1.0556   -2.3845   -0.5750 C   0  0  0  0  0  0  0  0  0  0  0  0
    0.2656   -2.0134   -0.2202 C   0  0  0  0  0  0  0  0  0  0  0  0
    1.2721   -2.8700    0.1485 C   0  0  0  0  0  0  0  0  0  0  0  0
    2.3632   -2.0657    0.3327 N   0  0  0  0  0  0  0  0  0  0  0  0
    1.9994   -0.7657    0.0567 C   0  0  0  0  0  0  0  0  0  0  0  0
    2.9009    0.3898    0.1314 C   0  0  0  0  0  0  0  0  0  0  0  0
    2.4819    1.6165   -0.4071 C   0  0  0  0  0  0  0  0  0  0  0  0
    3.3056    2.7437   -0.3592 C   0  0  0  0  0  0  0  0  0  0  0  0
    4.5627    2.6606    0.2327 C   0  0  0  0  0  0  0  0  0  0  0  0
    4.9936    1.4532    0.7777 C   0  0  0  0  0  0  0  0  0  0  0  0
    4.1684    0.3243    0.7289 C   0  0  0  0  0  0  0  0  0  0  0  0
    0.7261   -0.7316   -0.3009 N   0  0  0  0  0  0  0  0  0  0  0  0
   -5.4060   -1.4940   -1.0787 H   0  0  0  0  0  0  0  0  0  0  0  0
   -5.7016    1.0110   -0.0578 H   0  0  0  0  0  0  0  0  0  0  0  0
   -4.4623    2.8576    1.0699 H   0  0  0  0  0  0  0  0  0  0  0  0
   -2.0387    2.6263    1.5442 H   0  0  0  0  0  0  0  0  0  0  0  0
   -0.8133    0.5803    0.9064 H   0  0  0  0  0  0  0  0  0  0  0  0
   -1.1402   -3.3912   -0.9842 H   0  0  0  0  0  0  0  0  0  0  0  0
    1.3134   -3.9407    0.2889 H   0  0  0  0  0  0  0  0  0  0  0  0
    3.2868   -2.3729    0.5976 H   0  0  0  0  0  0  0  0  0  0  0  0
    1.5007    1.6953   -0.8741 H   0  0  0  0  0  0  0  0  0  0  0  0
    2.9621    3.6828   -0.7851 H   0  0  0  0  0  0  0  0  0  0  0  0
    5.2045    3.5370    0.2714 H   0  0  0  0  0  0  0  0  0  0  0  0
    5.9732    1.3904    1.2451 H   0  0  0  0  0  0  0  0  0  0  0  0
    4.5362   -0.5934    1.1769 H   0  0  0  0  0  0  0  0  0  0  0  0
  1  2  2  0
  2  3  1  0
  3  4  1  0
  4  5  2  0
  5  6  1  0
  6  7  2  0
  7  8  1  0
  8  9  2  0
  9 10  1  0
 10 11  2  3
 11 12  1  0
 12 13  2  0
 13 14  1  0
 14 15  1  0
 15 16  1  0
 16 17  2  0
 17 18  1  0
 18 19  2  0
 19 20  1  0
 20 21  2  0
 15 22  2  0
 10  2  1  0
 22 12  1  0
  9  4  1  0
 21 16  1  0
  3 23  1  0
  5 24  1  0
  6 25  1  0
  7 26  1  0
  8 27  1  0
 11 28  1  0
 13 29  1  0
 14 30  1  0
 17 31  1  0
 18 32  1  0
 19 33  1  0
 20 34  1  0
 21 35  1  0
M  END
$$$$
