
     RDKit          3D

 46 49  0  0  0  0  0  0  0  0999 V2000
    8.9555   -0.6590    0.9500 O   0  0  0  0  0  0  0  0  0  0  0  0
    8.0830   -1.5333    1.0558 N   0  0  0  0  0  4  0  0  0  0  0  0
    8.2407   -2.6162    1.6383 O   0  0  0  0  0  1  0  0  0  0  0  0
    6.7744   -1.2700    0.4448 C   0  0  0  0  0  0  0  0  0  0  0  0
    5.7681   -2.2414    0.5137 C   0  0  0  0  0  0  0  0  0  0  0  0
    4.5245   -1.9857   -0.0693 C   0  0  0  0  0  0  0  0  0  0  0  0
    4.2806   -0.7702   -0.7283 C   0  0  0  0  0  0  0  0  0  0  0  0
    2.9252   -0.4941   -1.3351 C   0  0  0  0  0  0  0  0  0  0  0  0
    2.0669   -0.0375   -0.2945 O   0  0  0  0  0  0  0  0  0  0  0  0
    0.7727    0.2511   -0.6253 C   0  0  0  0  0  0  0  0  0  0  0  0
   -0.0142    0.6818    0.4429 C   0  0  0  0  0  0  0  0  0  0  0  0
   -1.3598    1.0131    0.2543 C   0  0  0  0  0  0  0  0  0  0  0  0
   -1.9567    0.9105   -1.0080 C   0  0  0  0  0  0  0  0  0  0  0  0
   -3.3753    1.2568   -1.1899 C   0  0  0  0  0  0  0  0  0  0  0  0
   -3.8316    1.8122   -2.3641 N   0  0  0  0  0  0  0  0  0  0  0  0
   -5.1315    2.1496   -2.3615 N   0  0  0  0  0  0  0  0  0  0  0  0
   -5.5470    1.7433   -1.1626 C   0  0  0  0  0  0  0  0  0  0  0  0
   -4.5106    1.1643   -0.3928 C   0  0  0  0  0  0  0  0  0  0  0  0
   -4.5965    0.5764    0.9292 C   0  0  0  0  0  0  0  0  0  0  0  0
   -5.1175    1.3226    1.9942 C   0  0  0  0  0  0  0  0  0  0  0  0
   -5.2122    0.7583    3.2694 C   0  0  0  0  0  0  0  0  0  0  0  0
   -4.7926   -0.5542    3.4792 C   0  0  0  0  0  0  0  0  0  0  0  0
   -4.9074   -1.2470    5.0497 Cl  0  0  0  0  0  0  0  0  0  0  0  0
   -4.2817   -1.3093    2.4254 C   0  0  0  0  0  0  0  0  0  0  0  0
   -4.1871   -0.7456    1.1504 C   0  0  0  0  0  0  0  0  0  0  0  0
   -1.1440    0.4937   -2.0791 C   0  0  0  0  0  0  0  0  0  0  0  0
   -1.6790    0.4193   -3.3427 O   0  0  0  0  0  0  0  0  0  0  0  0
    0.2050    0.1610   -1.8951 C   0  0  0  0  0  0  0  0  0  0  0  0
    5.2947    0.1989   -0.7779 C   0  0  0  0  0  0  0  0  0  0  0  0
    6.5419   -0.0478   -0.1982 C   0  0  0  0  0  0  0  0  0  0  0  0
    5.9314   -3.1914    1.0186 H   0  0  0  0  0  0  0  0  0  0  0  0
    3.7391   -2.7371    0.0006 H   0  0  0  0  0  0  0  0  0  0  0  0
    3.0210    0.2679   -2.1186 H   0  0  0  0  0  0  0  0  0  0  0  0
    2.5381   -1.4180   -1.7834 H   0  0  0  0  0  0  0  0  0  0  0  0
    0.4227    0.7674    1.4358 H   0  0  0  0  0  0  0  0  0  0  0  0
   -1.9269    1.3658    1.1123 H   0  0  0  0  0  0  0  0  0  0  0  0
   -3.2836    1.9757   -3.2024 H   0  0  0  0  0  0  0  0  0  0  0  0
   -6.5892    1.8702   -0.8987 H   0  0  0  0  0  0  0  0  0  0  0  0
   -5.4428    2.3497    1.8425 H   0  0  0  0  0  0  0  0  0  0  0  0
   -5.6124    1.3467    4.0908 H   0  0  0  0  0  0  0  0  0  0  0  0
   -3.9584   -2.3341    2.5865 H   0  0  0  0  0  0  0  0  0  0  0  0
   -3.7943   -1.3446    0.3312 H   0  0  0  0  0  0  0  0  0  0  0  0
   -1.0539   -0.0430   -3.9263 H   0  0  0  0  0  0  0  0  0  0  0  0
    0.7930   -0.1535   -2.7487 H   0  0  0  0  0  0  0  0  0  0  0  0
    5.1156    1.1572   -1.2626 H   0  0  0  0  0  0  0  0  0  0  0  0
    7.3118    0.7196   -0.2503 H   0  0  0  0  0  0  0  0  0  0  0  0
  1  2  2  0
  2  3  1  0
  2  4  1  0
  4  5  2  0
  5  6  1  0
  6  7  2  0
  7  8  1  0
  8  9  1  0
  9 10  1  0
 10 11  2  0
 11 12  1  0
 12 13  2  0
 13 14  1  0
 14 15  1  0
 15 16  1  0
 16 17  2  0
 17 18  1  0
 18 19  1  0
 19 20  2  0
 20 21  1  0
 21 22  2  0
 22 23  1  0
 22 24  1  0
 24 25  2  0
 13 26  1  0
 26 27  1  0
 26 28  2  0
  7 29  1  0
 29 30  2  0
 30  4  1  0
 28 10  1  0
 18 14  2  0
 25 19  1  0
  5 31  1  0
  6 32  1  0
  8 33  1  0
  8 34  1  0
 11 35  1  0
 12 36  1  0
 15 37  1  0
 17 38  1  0
 20 39  1  0
 21 40  1  0
 24 41  1  0
 25 42  1  0
 27 43  1  0
 28 44  1  0
 29 45  1  0
 30 46  1  0
M  CHG  2   2   1   3  -1
M  END
$$$$
