
     RDKit          3D

 56 59  0  0  0  0  0  0  0  0999 V2000
    1.2716   -1.7343    1.5811 C   0  0  0  0  0  0  0  0  0  0  0  0
    2.0541   -0.4206    1.6005 C   0  0  0  0  0  0  0  0  0  0  0  0
    3.1998   -0.4016    0.5767 C   0  0  0  0  0  0  0  0  0  0  0  0
    4.3181   -1.3904    0.9190 C   0  0  0  0  0  0  0  0  0  0  0  0
    5.4980   -1.2472   -0.0099 C   0  0  0  0  0  0  0  0  0  0  0  0
    5.5986   -2.0371   -1.1619 C   0  0  0  0  0  0  0  0  0  0  0  0
    6.6900   -1.8984   -2.0199 C   0  0  0  0  0  0  0  0  0  0  0  0
    7.6851   -0.9657   -1.7384 C   0  0  0  0  0  0  0  0  0  0  0  0
    7.5899   -0.1684   -0.5998 C   0  0  0  0  0  0  0  0  0  0  0  0
    6.5009   -0.3070    0.2605 C   0  0  0  0  0  0  0  0  0  0  0  0
    1.1553    0.6992    1.3451 N   0  0  0  0  0  0  0  0  0  0  0  0
    0.3651    1.2420    2.3399 C   0  0  0  0  0  0  0  0  0  0  0  0
    0.4168    0.8883    3.5155 O   0  0  0  0  0  0  0  0  0  0  0  0
   -0.5893    2.3368    1.8564 C   0  0  0  0  0  0  0  0  0  0  0  0
   -1.8165    1.8374    1.3260 O   0  0  0  0  0  0  0  0  0  0  0  0
   -1.7313    1.3102    0.0836 C   0  0  0  0  0  0  0  0  0  0  0  0
   -0.7285    1.2058   -0.6021 O   0  0  0  0  0  0  0  0  0  0  0  0
   -3.0773    0.8741   -0.3230 C   0  0  0  0  0  0  0  0  0  0  0  0
   -3.5126   -0.4266    0.0488 C   0  0  0  0  0  0  0  0  0  0  0  0
   -2.7349   -1.3495    0.7917 C   0  0  0  0  0  0  0  0  0  0  0  0
   -3.2210   -2.6147    1.1250 C   0  0  0  0  0  0  0  0  0  0  0  0
   -4.4956   -2.9915    0.7253 C   0  0  0  0  0  0  0  0  0  0  0  0
   -5.2824   -2.1023   -0.0059 C   0  0  0  0  0  0  0  0  0  0  0  0
   -4.8063   -0.8250   -0.3489 C   0  0  0  0  0  0  0  0  0  0  0  0
   -5.6115    0.0586   -1.0857 C   0  0  0  0  0  0  0  0  0  0  0  0
   -5.1714    1.3403   -1.4520 C   0  0  0  0  0  0  0  0  0  0  0  0
   -6.0092    2.1942   -2.1897 C   0  0  0  0  0  0  0  0  0  0  0  0
   -5.5881    3.4696   -2.5614 C   0  0  0  0  0  0  0  0  0  0  0  0
   -4.3203    3.9084   -2.2037 C   0  0  0  0  0  0  0  0  0  0  0  0
   -3.4761    3.0704   -1.4731 C   0  0  0  0  0  0  0  0  0  0  0  0
   -3.8811    1.7714   -1.0768 C   0  0  0  0  0  0  0  0  0  0  0  0
    1.9073   -2.5852    1.8390 H   0  0  0  0  0  0  0  0  0  0  0  0
    0.8335   -1.9183    0.5943 H   0  0  0  0  0  0  0  0  0  0  0  0
    0.4493   -1.7120    2.3052 H   0  0  0  0  0  0  0  0  0  0  0  0
    2.4721   -0.2825    2.6055 H   0  0  0  0  0  0  0  0  0  0  0  0
    3.6169    0.6149    0.5332 H   0  0  0  0  0  0  0  0  0  0  0  0
    2.8093   -0.6076   -0.4298 H   0  0  0  0  0  0  0  0  0  0  0  0
    3.9522   -2.4220    0.8716 H   0  0  0  0  0  0  0  0  0  0  0  0
    4.6565   -1.2371    1.9510 H   0  0  0  0  0  0  0  0  0  0  0  0
    4.8293   -2.7685   -1.3977 H   0  0  0  0  0  0  0  0  0  0  0  0
    6.7636   -2.5202   -2.9074 H   0  0  0  0  0  0  0  0  0  0  0  0
    8.5350   -0.8588   -2.4059 H   0  0  0  0  0  0  0  0  0  0  0  0
    8.3649    0.5616   -0.3796 H   0  0  0  0  0  0  0  0  0  0  0  0
    6.4391    0.3230    1.1441 H   0  0  0  0  0  0  0  0  0  0  0  0
    0.8337    0.8411    0.3847 H   0  0  0  0  0  0  0  0  0  0  0  0
   -0.8368    2.9680    2.7182 H   0  0  0  0  0  0  0  0  0  0  0  0
   -0.0853    2.9881    1.1310 H   0  0  0  0  0  0  0  0  0  0  0  0
   -1.7320   -1.0908    1.1258 H   0  0  0  0  0  0  0  0  0  0  0  0
   -2.6016   -3.3003    1.6980 H   0  0  0  0  0  0  0  0  0  0  0  0
   -4.8795   -3.9748    0.9820 H   0  0  0  0  0  0  0  0  0  0  0  0
   -6.2792   -2.4180   -0.3082 H   0  0  0  0  0  0  0  0  0  0  0  0
   -6.6095   -0.2622   -1.3846 H   0  0  0  0  0  0  0  0  0  0  0  0
   -7.0066    1.8693   -2.4822 H   0  0  0  0  0  0  0  0  0  0  0  0
   -6.2504    4.1171   -3.1301 H   0  0  0  0  0  0  0  0  0  0  0  0
   -3.9841    4.9009   -2.4919 H   0  0  0  0  0  0  0  0  0  0  0  0
   -2.4873    3.4481   -1.2178 H   0  0  0  0  0  0  0  0  0  0  0  0
  1  2  1  0
  2  3  1  0
  3  4  1  0
  4  5  1  0
  5  6  2  0
  6  7  1  0
  7  8  2  0
  8  9  1  0
  9 10  2  0
  2 11  1  0
 11 12  1  0
 12 13  2  0
 12 14  1  0
 14 15  1  0
 15 16  1  0
 16 17  2  0
 16 18  1  0
 18 19  1  0
 19 20  2  0
 20 21  1  0
 21 22  2  0
 22 23  1  0
 23 24  2  0
 24 25  1  0
 25 26  2  0
 26 27  1  0
 27 28  2  0
 28 29  1  0
 29 30  2  0
 30 31  1  0
 10  5  1  0
 31 18  2  0
 24 19  1  0
 31 26  1  0
  1 32  1  0
  1 33  1  0
  1 34  1  0
  2 35  1  0
  3 36  1  0
  3 37  1  0
  4 38  1  0
  4 39  1  0
  6 40  1  0
  7 41  1  0
  8 42  1  0
  9 43  1  0
 10 44  1  0
 11 45  1  0
 14 46  1  0
 14 47  1  0
 20 48  1  0
 21 49  1  0
 22 50  1  0
 23 51  1  0
 25 52  1  0
 27 53  1  0
 28 54  1  0
 29 55  1  0
 30 56  1  0
M  END
$$$$
