
     RDKit          3D

 93 99  0  0  0  0  0  0  0  0999 V2000
   -5.2577    0.7897   -1.3848 C   0  0  0  0  0  0  0  0  0  0  0  0
   -4.1143    1.0380   -2.3634 C   0  0  0  0  0  0  0  0  0  0  0  0
   -2.7877    0.4859   -1.8628 C   0  0  0  0  0  0  0  0  0  0  0  0
   -1.8007    1.3067   -1.4436 C   0  0  0  0  0  0  0  0  0  0  0  0
   -1.9838    2.6975   -1.4343 O   0  0  0  0  0  0  0  0  0  0  0  0
   -2.4835    3.1659   -0.2408 C   0  0  0  0  0  0  0  0  0  0  0  0
   -2.6988    2.4614    0.7450 O   0  0  0  0  0  0  0  0  0  0  0  0
   -2.7404    4.5327   -0.2695 N   0  0  0  0  0  0  0  0  0  0  0  0
   -3.1777    5.1875    0.9594 C   0  0  0  0  0  0  0  0  0  0  0  0
   -4.6917    5.1523    1.1104 C   0  0  0  0  0  0  0  0  0  0  0  0
   -2.5465    5.3535   -1.4602 C   0  0  0  0  0  0  0  0  0  0  0  0
   -1.1364    5.9103   -1.5448 C   0  0  0  0  0  0  0  0  0  0  0  0
   -0.5883    0.8224   -0.9897 N   0  0  0  0  0  0  0  0  0  0  0  0
    0.3663    1.5867   -0.3570 C   0  0  0  0  0  0  0  0  0  0  0  0
    0.5058    2.7995   -0.3627 O   0  0  0  0  0  0  0  0  0  0  0  0
    1.1332    0.7671    0.3900 O   0  0  0  0  0  0  0  0  0  0  0  0
    0.6624   -0.4940    0.2542 C   0  0  0  0  0  0  0  0  0  0  0  0
    1.0218   -1.4541    1.0369 N   0  0  0  0  0  0  0  0  0  0  0  0
    1.9163   -1.0949    2.1549 C   0  0  0  0  0  0  0  0  0  0  0  0
    3.3837   -1.1183    1.7185 C   0  0  0  0  0  0  0  0  0  0  0  0
    4.3151   -0.8825    2.8655 C   0  0  0  0  0  0  0  0  0  0  0  0
    5.0889   -1.8340    3.4983 C   0  0  0  0  0  0  0  0  0  0  0  0
    5.7771   -1.2248    4.5115 N   0  0  0  0  0  0  0  0  0  0  0  0
    5.4831    0.1176    4.5514 C   0  0  0  0  0  0  0  0  0  0  0  0
    5.9471    1.1183    5.4131 C   0  0  0  0  0  0  0  0  0  0  0  0
    5.4671    2.4164    5.2144 C   0  0  0  0  0  0  0  0  0  0  0  0
    4.5620    2.7007    4.1946 C   0  0  0  0  0  0  0  0  0  0  0  0
    4.1081    1.6877    3.3424 C   0  0  0  0  0  0  0  0  0  0  0  0
    4.5728    0.3668    3.5234 C   0  0  0  0  0  0  0  0  0  0  0  0
   -0.2779   -0.6147   -0.9339 C   0  0  0  0  0  0  0  0  0  0  0  0
    0.5032   -1.1186   -2.1858 C   0  0  0  0  0  0  0  0  0  0  0  0
    1.7697   -0.3725   -2.5516 C   0  0  0  0  0  0  0  0  0  0  0  0
    1.7177    0.7757   -3.3528 C   0  0  0  0  0  0  0  0  0  0  0  0
    2.8841    1.4802   -3.6530 C   0  0  0  0  0  0  0  0  0  0  0  0
    4.1117    1.0450   -3.1579 C   0  0  0  0  0  0  0  0  0  0  0  0
    4.1771   -0.1030   -2.3725 C   0  0  0  0  0  0  0  0  0  0  0  0
    3.0133   -0.8125   -2.0775 C   0  0  0  0  0  0  0  0  0  0  0  0
   -1.5780   -1.4444   -0.7030 C   0  0  0  0  0  0  0  0  0  0  0  0
   -2.5965   -0.9716   -1.7937 C   0  0  0  0  0  0  0  0  0  0  0  0
   -3.2125   -1.8012   -2.6627 C   0  0  0  0  0  0  0  0  0  0  0  0
   -3.0363   -3.2870   -2.7327 C   0  0  0  0  0  0  0  0  0  0  0  0
   -2.1488   -3.7955   -1.6607 C   0  0  0  0  0  0  0  0  0  0  0  0
   -1.4574   -2.9737   -0.7074 C   0  0  0  0  0  0  0  0  0  0  0  0
   -0.8452   -3.8648    0.1623 C   0  0  0  0  0  0  0  0  0  0  0  0
   -0.1315   -3.7086    1.2675 O   0  0  0  0  0  0  0  0  0  0  0  0
   -1.0859   -5.1498   -0.2768 N   0  0  0  0  0  0  0  0  0  0  0  0
   -0.5243   -6.3394    0.3447 C   0  0  0  0  0  0  0  0  0  0  0  0
   -1.4102   -6.8883    1.4488 C   0  0  0  0  0  0  0  0  0  0  0  0
   -1.9079   -5.1204   -1.3739 C   0  0  0  0  0  0  0  0  0  0  0  0
   -2.3768   -6.1990   -1.9929 O   0  0  0  0  0  0  0  0  0  0  0  0
   -5.0967    1.3365   -0.4506 H   0  0  0  0  0  0  0  0  0  0  0  0
   -5.3742   -0.2711   -1.1455 H   0  0  0  0  0  0  0  0  0  0  0  0
   -6.1988    1.1408   -1.8170 H   0  0  0  0  0  0  0  0  0  0  0  0
   -4.0538    2.1194   -2.5419 H   0  0  0  0  0  0  0  0  0  0  0  0
   -4.3647    0.6230   -3.3474 H   0  0  0  0  0  0  0  0  0  0  0  0
   -2.7200    4.6823    1.8197 H   0  0  0  0  0  0  0  0  0  0  0  0
   -2.8167    6.2234    0.9625 H   0  0  0  0  0  0  0  0  0  0  0  0
   -5.1830    5.6541    0.2671 H   0  0  0  0  0  0  0  0  0  0  0  0
   -5.0595    4.1215    1.1513 H   0  0  0  0  0  0  0  0  0  0  0  0
   -4.9907    5.6574    2.0354 H   0  0  0  0  0  0  0  0  0  0  0  0
   -3.2781    6.1689   -1.4433 H   0  0  0  0  0  0  0  0  0  0  0  0
   -2.7547    4.7583   -2.3573 H   0  0  0  0  0  0  0  0  0  0  0  0
   -0.8961    6.5167   -0.6651 H   0  0  0  0  0  0  0  0  0  0  0  0
   -1.0316    6.5361   -2.4373 H   0  0  0  0  0  0  0  0  0  0  0  0
   -0.3949    5.1047   -1.6042 H   0  0  0  0  0  0  0  0  0  0  0  0
    1.6389   -0.1305    2.5992 H   0  0  0  0  0  0  0  0  0  0  0  0
    1.7568   -1.8350    2.9488 H   0  0  0  0  0  0  0  0  0  0  0  0
    3.6085   -2.0867    1.2516 H   0  0  0  0  0  0  0  0  0  0  0  0
    3.5662   -0.3586    0.9480 H   0  0  0  0  0  0  0  0  0  0  0  0
    5.2021   -2.8960    3.3191 H   0  0  0  0  0  0  0  0  0  0  0  0
    6.4151   -1.6865    5.1431 H   0  0  0  0  0  0  0  0  0  0  0  0
    6.6540    0.9049    6.2083 H   0  0  0  0  0  0  0  0  0  0  0  0
    5.8113    3.2208    5.8623 H   0  0  0  0  0  0  0  0  0  0  0  0
    4.2049    3.7223    4.0561 H   0  0  0  0  0  0  0  0  0  0  0  0
    3.4025    1.9228    2.5499 H   0  0  0  0  0  0  0  0  0  0  0  0
    0.7713   -2.1751   -2.0515 H   0  0  0  0  0  0  0  0  0  0  0  0
   -0.1477   -1.0970   -3.0699 H   0  0  0  0  0  0  0  0  0  0  0  0
    0.7690    1.1370   -3.7433 H   0  0  0  0  0  0  0  0  0  0  0  0
    2.8354    2.3751   -4.2678 H   0  0  0  0  0  0  0  0  0  0  0  0
    5.0191    1.5975   -3.3853 H   0  0  0  0  0  0  0  0  0  0  0  0
    5.1352   -0.4447   -1.9891 H   0  0  0  0  0  0  0  0  0  0  0  0
    3.0849   -1.7088   -1.4649 H   0  0  0  0  0  0  0  0  0  0  0  0
   -2.0028   -1.1739    0.2757 H   0  0  0  0  0  0  0  0  0  0  0  0
   -3.8851   -1.4197   -3.4247 H   0  0  0  0  0  0  0  0  0  0  0  0
   -2.6250   -3.5513   -3.7135 H   0  0  0  0  0  0  0  0  0  0  0  0
   -4.0211   -3.7600   -2.6470 H   0  0  0  0  0  0  0  0  0  0  0  0
    0.1591   -2.7730    1.3205 H   0  0  0  0  0  0  0  0  0  0  0  0
    0.4714   -6.0896    0.7302 H   0  0  0  0  0  0  0  0  0  0  0  0
   -0.3733   -7.0885   -0.4387 H   0  0  0  0  0  0  0  0  0  0  0  0
   -0.9784   -7.8063    1.8617 H   0  0  0  0  0  0  0  0  0  0  0  0
   -2.4154   -7.1155    1.0776 H   0  0  0  0  0  0  0  0  0  0  0  0
   -1.5127   -6.1651    2.2635 H   0  0  0  0  0  0  0  0  0  0  0  0
   -2.2211   -6.9886   -1.4509 H   0  0  0  0  0  0  0  0  0  0  0  0
  1  2  1  0
  2  3  1  0
  3  4  2  0
  4  5  1  0
  5  6  1  0
  6  7  2  0
  6  8  1  0
  8  9  1  0
  9 10  1  0
  8 11  1  0
 11 12  1  0
  4 13  1  0
 13 14  1  0
 14 15  2  0
 14 16  1  0
 16 17  1  0
 17 18  2  3
 18 19  1  0
 19 20  1  0
 20 21  1  0
 21 22  2  0
 22 23  1  0
 23 24  1  0
 24 25  2  0
 25 26  1  0
 26 27  2  0
 27 28  1  0
 28 29  2  0
 17 30  1  0
 30 31  1  0
 31 32  1  0
 32 33  2  0
 33 34  1  0
 34 35  2  0
 35 36  1  0
 36 37  2  0
 30 38  1  0
 38 39  1  0
 39 40  2  0
 40 41  1  0
 41 42  1  0
 42 43  1  0
 43 44  2  0
 44 45  1  0
 44 46  1  0
 46 47  1  0
 47 48  1  0
 46 49  1  0
 49 50  1  0
 39  3  1  0
 49 42  2  0
 30 13  1  0
 37 32  1  0
 43 38  1  0
 29 21  1  0
 29 24  1  0
  1 51  1  0
  1 52  1  0
  1 53  1  0
  2 54  1  0
  2 55  1  0
  9 56  1  0
  9 57  1  0
 10 58  1  0
 10 59  1  0
 10 60  1  0
 11 61  1  0
 11 62  1  0
 12 63  1  0
 12 64  1  0
 12 65  1  0
 19 66  1  0
 19 67  1  0
 20 68  1  0
 20 69  1  0
 22 70  1  0
 23 71  1  0
 25 72  1  0
 26 73  1  0
 27 74  1  0
 28 75  1  0
 31 76  1  0
 31 77  1  0
 33 78  1  0
 34 79  1  0
 35 80  1  0
 36 81  1  0
 37 82  1  0
 38 83  1  0
 40 84  1  0
 41 85  1  0
 41 86  1  0
 45 87  1  0
 47 88  1  0
 47 89  1  0
 48 90  1  0
 48 91  1  0
 48 92  1  0
 50 93  1  0
M  END
$$$$
