
     RDKit          3D

 50 52  0  0  0  0  0  0  0  0999 V2000
    2.6263   -0.3295   -3.6302 C   0  0  0  0  0  0  0  0  0  0  0  0
    2.5943    0.1117   -2.2778 O   0  0  0  0  0  0  0  0  0  0  0  0
    3.5185    1.0641   -1.9089 C   0  0  0  0  0  0  0  0  0  0  0  0
    4.3993    1.7049   -2.7852 C   0  0  0  0  0  0  0  0  0  0  0  0
    5.3071    2.6487   -2.2984 C   0  0  0  0  0  0  0  0  0  0  0  0
    5.3356    2.9577   -0.9403 C   0  0  0  0  0  0  0  0  0  0  0  0
    4.4558    2.3267   -0.0568 C   0  0  0  0  0  0  0  0  0  0  0  0
    3.5457    1.3805   -0.5318 C   0  0  0  0  0  0  0  0  0  0  0  0
    2.6342    0.6932    0.2943 N   0  0  0  0  0  0  0  0  0  0  0  0
    2.4616    0.7737    1.6611 C   0  0  0  0  0  0  0  0  0  0  0  0
    3.0878    1.4883    2.4380 O   0  0  0  0  0  0  0  0  0  0  0  0
    1.4093   -0.2108    2.1670 C   0  0  0  0  0  0  0  0  0  0  0  0
    0.3859   -0.3872    1.1826 O   0  0  0  0  0  0  0  0  0  0  0  0
   -0.3902   -1.4797    1.3676 C   0  0  0  0  0  0  0  0  0  0  0  0
   -0.2681   -2.3452    2.2139 O   0  0  0  0  0  0  0  0  0  0  0  0
   -1.3902   -1.4917    0.2895 C   0  0  0  0  0  0  0  0  0  0  0  0
   -0.9622   -2.1250   -0.8937 C   0  0  0  0  0  0  0  0  0  0  0  0
   -1.7829   -2.0930   -2.0185 C   0  0  0  0  0  0  0  0  0  0  0  0
   -1.3390   -2.7230   -3.2660 N   0  0  0  0  0  4  0  0  0  0  0  0
   -0.1766   -3.1508   -3.3119 O   0  0  0  0  0  0  0  0  0  0  0  0
   -2.1463   -2.7778   -4.2034 O   0  0  0  0  0  1  0  0  0  0  0  0
   -3.0119   -1.4375   -1.9676 C   0  0  0  0  0  0  0  0  0  0  0  0
   -3.4184   -0.8196   -0.7757 C   0  0  0  0  0  0  0  0  0  0  0  0
   -2.6395   -0.8353    0.4011 C   0  0  0  0  0  0  0  0  0  0  0  0
   -3.0990   -0.2092    1.5463 N   0  0  0  0  0  0  0  0  0  0  0  0
   -2.7887   -0.6889    2.9025 C   0  0  0  0  0  0  0  0  0  0  0  0
   -3.9317   -0.1595    3.7686 C   0  0  0  0  0  0  0  0  0  0  0  0
   -4.3781    1.0906    3.0310 C   0  0  0  0  0  0  0  0  0  0  0  0
   -4.2828    0.6570    1.5739 C   0  0  0  0  0  0  0  0  0  0  0  0
    2.3408    0.4788   -4.3099 H   0  0  0  0  0  0  0  0  0  0  0  0
    3.6071   -0.7420   -3.8887 H   0  0  0  0  0  0  0  0  0  0  0  0
    1.8904   -1.1330   -3.7387 H   0  0  0  0  0  0  0  0  0  0  0  0
    4.4072    1.4949   -3.8496 H   0  0  0  0  0  0  0  0  0  0  0  0
    5.9946    3.1444   -2.9810 H   0  0  0  0  0  0  0  0  0  0  0  0
    6.0433    3.6922   -0.5633 H   0  0  0  0  0  0  0  0  0  0  0  0
    4.5040    2.5930    0.9945 H   0  0  0  0  0  0  0  0  0  0  0  0
    2.0116    0.0652   -0.2080 H   0  0  0  0  0  0  0  0  0  0  0  0
    0.9559    0.1994    3.0740 H   0  0  0  0  0  0  0  0  0  0  0  0
    1.9201   -1.1543    2.3869 H   0  0  0  0  0  0  0  0  0  0  0  0
    0.0094   -2.6157   -0.9188 H   0  0  0  0  0  0  0  0  0  0  0  0
   -3.6666   -1.3882   -2.8362 H   0  0  0  0  0  0  0  0  0  0  0  0
   -4.3873   -0.3242   -0.7892 H   0  0  0  0  0  0  0  0  0  0  0  0
   -1.8392   -0.2604    3.2446 H   0  0  0  0  0  0  0  0  0  0  0  0
   -2.7515   -1.7813    2.9650 H   0  0  0  0  0  0  0  0  0  0  0  0
   -3.6164    0.0430    4.7956 H   0  0  0  0  0  0  0  0  0  0  0  0
   -4.7501   -0.8875    3.7968 H   0  0  0  0  0  0  0  0  0  0  0  0
   -5.3862    1.4116    3.3073 H   0  0  0  0  0  0  0  0  0  0  0  0
   -3.6829    1.9123    3.2346 H   0  0  0  0  0  0  0  0  0  0  0  0
   -4.1761    1.5243    0.9123 H   0  0  0  0  0  0  0  0  0  0  0  0
   -5.1837    0.0939    1.3010 H   0  0  0  0  0  0  0  0  0  0  0  0
  1  2  1  0
  2  3  1  0
  3  4  2  0
  4  5  1  0
  5  6  2  0
  6  7  1  0
  7  8  2  0
  8  9  1  0
  9 10  1  0
 10 11  2  0
 10 12  1  0
 12 13  1  0
 13 14  1  0
 14 15  2  0
 14 16  1  0
 16 17  2  0
 17 18  1  0
 18 19  1  0
 19 20  2  0
 19 21  1  0
 18 22  2  0
 22 23  1  0
 23 24  2  0
 24 25  1  0
 25 26  1  0
 26 27  1  0
 27 28  1  0
 28 29  1  0
  8  3  1  0
 24 16  1  0
 29 25  1  0
  1 30  1  0
  1 31  1  0
  1 32  1  0
  4 33  1  0
  5 34  1  0
  6 35  1  0
  7 36  1  0
  9 37  1  0
 12 38  1  0
 12 39  1  0
 17 40  1  0
 22 41  1  0
 23 42  1  0
 26 43  1  0
 26 44  1  0
 27 45  1  0
 27 46  1  0
 28 47  1  0
 28 48  1  0
 29 49  1  0
 29 50  1  0
M  CHG  2  19   1  21  -1
M  END
$$$$
