
     RDKit          3D

 31 31  0  0  0  0  0  0  0  0999 V2000
    4.0633    1.3250   -1.5822 N   0  0  0  0  0  0  0  0  0  0  0  0
    4.2484    0.0356   -1.1934 C   0  0  0  0  0  0  0  0  0  0  0  0
    5.5788   -0.8272   -1.6711 S   0  0  0  0  0  0  0  0  0  0  0  0
    3.2675   -0.4971   -0.4127 N   0  0  0  0  0  0  0  0  0  0  0  0
    2.0009    0.1094   -0.3375 N   0  0  0  0  0  0  0  0  0  0  0  0
    0.9949   -0.6407    0.2520 C   0  0  0  0  0  0  0  0  0  0  0  0
    1.2117   -1.6889    0.8552 O   0  0  0  0  0  0  0  0  0  0  0  0
   -0.3945   -0.0270    0.0969 C   0  0  0  0  0  0  0  0  0  0  0  0
   -0.4837    1.2476    0.9509 C   0  0  0  0  0  0  0  0  0  0  0  0
   -1.8765    1.8672    0.9087 C   0  0  0  0  0  0  0  0  0  0  0  0
   -2.9478    0.8630    1.3142 C   0  0  0  0  0  0  0  0  0  0  0  0
   -2.8812   -0.3979    0.4599 C   0  0  0  0  0  0  0  0  0  0  0  0
   -1.4888   -1.0397    0.4935 C   0  0  0  0  0  0  0  0  0  0  0  0
   -1.5136   -2.2703   -0.3907 C   0  0  0  0  0  0  0  0  0  0  0  0
   -2.0736   -3.3222   -0.1257 O   0  0  0  0  0  0  0  0  0  0  0  0
   -0.9197   -2.1099   -1.5879 O   0  0  0  0  0  0  0  0  0  0  0  0
    4.8599    1.7459   -2.0491 H   0  0  0  0  0  0  0  0  0  0  0  0
    3.6215    1.9227   -0.8948 H   0  0  0  0  0  0  0  0  0  0  0  0
    3.3143   -1.4809   -0.1395 H   0  0  0  0  0  0  0  0  0  0  0  0
    1.7607    0.6920   -1.1365 H   0  0  0  0  0  0  0  0  0  0  0  0
   -0.5202    0.2538   -0.9578 H   0  0  0  0  0  0  0  0  0  0  0  0
    0.2470    1.9895    0.6065 H   0  0  0  0  0  0  0  0  0  0  0  0
   -0.2188    1.0163    1.9911 H   0  0  0  0  0  0  0  0  0  0  0  0
   -2.0824    2.2341   -0.1044 H   0  0  0  0  0  0  0  0  0  0  0  0
   -1.9137    2.7354    1.5763 H   0  0  0  0  0  0  0  0  0  0  0  0
   -3.9384    1.3215    1.2179 H   0  0  0  0  0  0  0  0  0  0  0  0
   -2.8200    0.5965    2.3705 H   0  0  0  0  0  0  0  0  0  0  0  0
   -3.1532   -0.1519   -0.5751 H   0  0  0  0  0  0  0  0  0  0  0  0
   -3.6340   -1.1137    0.8127 H   0  0  0  0  0  0  0  0  0  0  0  0
   -1.2834   -1.3977    1.5119 H   0  0  0  0  0  0  0  0  0  0  0  0
   -1.0254   -2.9902   -2.0098 H   0  0  0  0  0  0  0  0  0  0  0  0
  1  2  1  0
  2  3  2  0
  2  4  1  0
  4  5  1  0
  5  6  1  0
  6  7  2  0
  6  8  1  0
  8  9  1  0
  9 10  1  0
 10 11  1  0
 11 12  1  0
 12 13  1  0
 13 14  1  0
 14 15  2  0
 14 16  1  0
 13  8  1  0
  1 17  1  0
  1 18  1  0
  4 19  1  0
  5 20  1  0
  8 21  1  0
  9 22  1  0
  9 23  1  0
 10 24  1  0
 10 25  1  0
 11 26  1  0
 11 27  1  0
 12 28  1  0
 12 29  1  0
 13 30  1  0
 16 31  1  0
M  END
$$$$
