
     RDKit          3D

 50 52  0  0  0  0  0  0  0  0999 V2000
   -6.9311   -1.3306   -1.0749 C   0  0  0  0  0  0  0  0  0  0  0  0
   -5.9506   -0.3492   -0.4339 C   0  0  0  0  0  0  0  0  0  0  0  0
   -4.5720   -0.4427   -1.0968 C   0  0  0  0  0  0  0  0  0  0  0  0
   -3.5747    0.5010   -0.4288 C   0  0  0  0  0  0  0  0  0  0  0  0
   -3.5070    0.2930    1.0232 N   0  0  0  0  0  0  0  0  0  0  0  0
   -2.4037    0.7254    1.7701 C   0  0  0  0  0  0  0  0  0  0  0  0
   -2.4695    1.1380    2.9257 O   0  0  0  0  0  0  0  0  0  0  0  0
   -1.0592    0.6515    1.1555 C   0  0  0  0  0  0  0  0  0  0  0  0
   -0.2176    1.7681    1.2259 C   0  0  0  0  0  0  0  0  0  0  0  0
    1.0625    1.7177    0.6656 C   0  0  0  0  0  0  0  0  0  0  0  0
    1.5198    0.5367    0.0597 C   0  0  0  0  0  0  0  0  0  0  0  0
    3.1003    0.5815   -0.7652 S   0  0  0  0  0  6  0  0  0  0  0  0
    3.0254   -0.3740   -1.8525 O   0  0  0  0  0  0  0  0  0  0  0  0
    3.3444    1.9826   -1.0591 O   0  0  0  0  0  0  0  0  0  0  0  0
    4.2523    0.0245    0.4919 C   0  0  0  0  0  0  0  0  0  0  0  0
    5.6451    0.0898   -0.0657 C   0  0  0  0  0  0  0  0  0  0  0  0
    6.2006   -0.9961   -0.7601 C   0  0  0  0  0  0  0  0  0  0  0  0
    7.4915   -0.9068   -1.2889 C   0  0  0  0  0  0  0  0  0  0  0  0
    8.2356    0.2662   -1.1354 C   0  0  0  0  0  0  0  0  0  0  0  0
    7.6906    1.3518   -0.4485 C   0  0  0  0  0  0  0  0  0  0  0  0
    6.4066    1.2550    0.0787 C   0  0  0  0  0  0  0  0  0  0  0  0
    5.8984    2.3025    0.7476 F   0  0  0  0  0  0  0  0  0  0  0  0
    0.6783   -0.5807    0.0221 C   0  0  0  0  0  0  0  0  0  0  0  0
    1.1088   -1.8556   -0.5166 N   0  0  0  0  0  4  0  0  0  0  0  0
    0.4086   -2.3577   -1.4057 O   0  0  0  0  0  0  0  0  0  0  0  0
    2.0989   -2.3730    0.0203 O   0  0  0  0  0  1  0  0  0  0  0  0
   -0.6104   -0.5372    0.5742 C   0  0  0  0  0  0  0  0  0  0  0  0
   -4.7950    0.3299    1.7125 C   0  0  0  0  0  0  0  0  0  0  0  0
   -5.8160   -0.6093    1.0731 C   0  0  0  0  0  0  0  0  0  0  0  0
   -7.0522   -1.1138   -2.1432 H   0  0  0  0  0  0  0  0  0  0  0  0
   -6.5858   -2.3667   -0.9766 H   0  0  0  0  0  0  0  0  0  0  0  0
   -7.9173   -1.2569   -0.6056 H   0  0  0  0  0  0  0  0  0  0  0  0
   -6.3422    0.6672   -0.5814 H   0  0  0  0  0  0  0  0  0  0  0  0
   -4.6485   -0.1982   -2.1645 H   0  0  0  0  0  0  0  0  0  0  0  0
   -4.1964   -1.4730   -1.0271 H   0  0  0  0  0  0  0  0  0  0  0  0
   -2.5958    0.3803   -0.8969 H   0  0  0  0  0  0  0  0  0  0  0  0
   -3.8695    1.5468   -0.5912 H   0  0  0  0  0  0  0  0  0  0  0  0
   -0.5651    2.6826    1.7072 H   0  0  0  0  0  0  0  0  0  0  0  0
    1.6859    2.6130    0.6959 H   0  0  0  0  0  0  0  0  0  0  0  0
    4.0039   -0.9952    0.7911 H   0  0  0  0  0  0  0  0  0  0  0  0
    4.1438    0.6757    1.3656 H   0  0  0  0  0  0  0  0  0  0  0  0
    5.6311   -1.9154   -0.9047 H   0  0  0  0  0  0  0  0  0  0  0  0
    7.9149   -1.7533   -1.8297 H   0  0  0  0  0  0  0  0  0  0  0  0
    9.2369    0.3341   -1.5543 H   0  0  0  0  0  0  0  0  0  0  0  0
    8.2547    2.2729   -0.3246 H   0  0  0  0  0  0  0  0  0  0  0  0
   -1.2563   -1.4147    0.5620 H   0  0  0  0  0  0  0  0  0  0  0  0
   -4.6600    0.0537    2.7661 H   0  0  0  0  0  0  0  0  0  0  0  0
   -5.1542    1.3667    1.6890 H   0  0  0  0  0  0  0  0  0  0  0  0
   -6.7857   -0.4840    1.5679 H   0  0  0  0  0  0  0  0  0  0  0  0
   -5.5030   -1.6492    1.2408 H   0  0  0  0  0  0  0  0  0  0  0  0
  1  2  1  0
  2  3  1  0
  3  4  1  0
  4  5  1  0
  5  6  1  0
  6  7  2  0
  6  8  1  0
  8  9  2  0
  9 10  1  0
 10 11  2  0
 11 12  1  0
 12 13  2  0
 12 14  2  0
 12 15  1  0
 15 16  1  0
 16 17  2  0
 17 18  1  0
 18 19  2  0
 19 20  1  0
 20 21  2  0
 21 22  1  0
 11 23  1  0
 23 24  1  0
 24 25  2  0
 24 26  1  0
 23 27  2  0
  5 28  1  0
 28 29  1  0
 29  2  1  0
 27  8  1  0
 21 16  1  0
  1 30  1  0
  1 31  1  0
  1 32  1  0
  2 33  1  0
  3 34  1  0
  3 35  1  0
  4 36  1  0
  4 37  1  0
  9 38  1  0
 10 39  1  0
 15 40  1  0
 15 41  1  0
 17 42  1  0
 18 43  1  0
 19 44  1  0
 20 45  1  0
 27 46  1  0
 28 47  1  0
 28 48  1  0
 29 49  1  0
 29 50  1  0
M  CHG  2  24   1  26  -1
M  END
$$$$
