
     RDKit          3D

 40 42  0  0  0  0  0  0  0  0999 V2000
    4.3677   -3.1678   -1.6719 C   0  0  0  0  0  0  0  0  0  0  0  0
    3.8980   -1.8470   -1.1452 C   0  0  0  0  0  0  0  0  0  0  0  0
    4.4349   -0.7753   -1.3800 O   0  0  0  0  0  0  0  0  0  0  0  0
    2.7795   -2.0148   -0.3892 O   0  0  0  0  0  0  0  0  0  0  0  0
    2.2639   -0.8208    0.2312 C   0  0  0  0  0  0  0  0  0  0  0  0
    1.5937    0.1105   -0.7866 C   0  0  0  0  0  0  0  0  0  0  0  0
    0.5041    0.8824   -0.1742 N   0  0  0  0  0  0  0  0  0  0  0  0
    0.7757    2.0849    0.4671 C   0  0  0  0  0  0  0  0  0  0  0  0
    1.9753    2.5554    0.6254 N   0  0  0  0  0  0  0  0  0  0  0  0
    2.1975    3.7429    1.2657 C   0  0  0  0  0  0  0  0  0  0  0  0
    3.2765    4.0176    1.7791 O   0  0  0  0  0  0  0  0  0  0  0  0
    1.1838    4.6512    1.3532 N   0  0  0  0  0  0  0  0  0  0  0  0
   -0.0954    4.2436    1.5748 C   0  0  0  0  0  0  0  0  0  0  0  0
   -0.9102    4.8828    2.2187 O   0  0  0  0  0  0  0  0  0  0  0  0
   -0.3881    2.8795    1.0102 C   0  0  0  0  0  0  0  0  0  0  0  0
   -1.6044    2.4270    0.9940 N   0  0  0  0  0  0  0  0  0  0  0  0
   -1.8326    1.1470    0.4547 C   0  0  0  0  0  0  0  0  0  0  0  0
   -3.1449    0.6641    0.5168 C   0  0  0  0  0  0  0  0  0  0  0  0
   -3.4869   -0.5989    0.0187 C   0  0  0  0  0  0  0  0  0  0  0  0
   -4.9124   -1.0679    0.1140 C   0  0  0  0  0  0  0  0  0  0  0  0
   -2.4821   -1.3970   -0.5502 C   0  0  0  0  0  0  0  0  0  0  0  0
   -2.7880   -2.7676   -1.0934 C   0  0  0  0  0  0  0  0  0  0  0  0
   -1.1620   -0.9081   -0.6146 C   0  0  0  0  0  0  0  0  0  0  0  0
   -0.8089    0.3626   -0.1265 C   0  0  0  0  0  0  0  0  0  0  0  0
    4.5741   -3.8467   -0.8407 H   0  0  0  0  0  0  0  0  0  0  0  0
    3.6108   -3.5915   -2.3366 H   0  0  0  0  0  0  0  0  0  0  0  0
    5.2920   -3.0238   -2.2387 H   0  0  0  0  0  0  0  0  0  0  0  0
    3.0612   -0.3065    0.7819 H   0  0  0  0  0  0  0  0  0  0  0  0
    1.5414   -1.1631    0.9802 H   0  0  0  0  0  0  0  0  0  0  0  0
    2.3468    0.7959   -1.1964 H   0  0  0  0  0  0  0  0  0  0  0  0
    1.2506   -0.4426   -1.6687 H   0  0  0  0  0  0  0  0  0  0  0  0
    1.4410    5.4761    1.8759 H   0  0  0  0  0  0  0  0  0  0  0  0
   -3.9059    1.2985    0.9684 H   0  0  0  0  0  0  0  0  0  0  0  0
   -5.5577   -0.3061    0.5644 H   0  0  0  0  0  0  0  0  0  0  0  0
   -5.3092   -1.2859   -0.8826 H   0  0  0  0  0  0  0  0  0  0  0  0
   -4.9762   -1.9653    0.7374 H   0  0  0  0  0  0  0  0  0  0  0  0
   -3.1903   -3.4088   -0.3027 H   0  0  0  0  0  0  0  0  0  0  0  0
   -1.8901   -3.2557   -1.4869 H   0  0  0  0  0  0  0  0  0  0  0  0
   -3.5109   -2.6986   -1.9124 H   0  0  0  0  0  0  0  0  0  0  0  0
   -0.4126   -1.5620   -1.0507 H   0  0  0  0  0  0  0  0  0  0  0  0
  1  2  1  0
  2  3  2  0
  2  4  1  0
  4  5  1  0
  5  6  1  0
  6  7  1  0
  7  8  1  0
  8  9  2  0
  9 10  1  0
 10 11  2  0
 10 12  1  0
 12 13  1  0
 13 14  2  0
 13 15  1  0
 15 16  2  0
 16 17  1  0
 17 18  2  0
 18 19  1  0
 19 20  1  0
 19 21  2  0
 21 22  1  0
 21 23  1  0
 23 24  2  0
 24  7  1  0
 15  8  1  0
 24 17  1  0
  1 25  1  0
  1 26  1  0
  1 27  1  0
  5 28  1  0
  5 29  1  0
  6 30  1  0
  6 31  1  0
 12 32  1  0
 18 33  1  0
 20 34  1  0
 20 35  1  0
 20 36  1  0
 22 37  1  0
 22 38  1  0
 22 39  1  0
 23 40  1  0
M  END
$$$$
