
     RDKit          3D

 57 59  0  0  0  0  0  0  0  0999 V2000
   -0.6334   -1.9395    4.2996 C   0  0  0  0  0  0  0  0  0  0  0  0
   -0.9346   -2.3069    2.8601 C   0  0  0  0  0  0  0  0  0  0  0  0
   -0.7598   -1.1135    1.9216 C   0  0  0  0  0  0  0  0  0  0  0  0
   -1.0010   -1.5685    0.5822 O   0  0  0  0  0  0  0  0  0  0  0  0
   -1.4862   -0.5435   -0.1925 C   0  0  0  0  0  0  0  0  0  0  0  0
   -2.8787   -0.4065   -0.2957 C   0  0  0  0  0  0  0  0  0  0  0  0
   -3.4783    0.6028   -1.0684 C   0  0  0  0  0  0  0  0  0  0  0  0
   -4.8594    0.7465   -1.1633 N   0  0  0  0  0  0  0  0  0  0  0  0
   -5.4823    1.8862   -1.8500 C   0  0  0  0  0  0  0  0  0  0  0  0
   -5.6741    1.5916   -3.3309 C   0  0  0  0  0  0  0  0  0  0  0  0
   -5.7877   -0.2071   -0.5428 C   0  0  0  0  0  0  0  0  0  0  0  0
   -6.0794    0.1759    0.9008 C   0  0  0  0  0  0  0  0  0  0  0  0
   -2.5848    1.4556   -1.7434 C   0  0  0  0  0  0  0  0  0  0  0  0
   -1.1891    1.3078   -1.6721 C   0  0  0  0  0  0  0  0  0  0  0  0
   -0.6242    0.2981   -0.8968 C   0  0  0  0  0  0  0  0  0  0  0  0
    0.8315    0.0939   -0.8673 C   0  0  0  0  0  0  0  0  0  0  0  0
    1.7357    0.9403   -0.3305 C   0  0  0  0  0  0  0  0  0  0  0  0
    1.3430    2.1539    0.3203 C   0  0  0  0  0  0  0  0  0  0  0  0
    0.9955    3.1444    0.8187 N   0  0  0  0  0  0  0  0  0  0  0  0
    3.1154    0.5876   -0.3363 C   0  0  0  0  0  0  0  0  0  0  0  0
    4.0232    0.7059    0.6140 N   0  0  0  0  0  0  0  0  0  0  0  0
    5.1957    0.2259    0.0832 C   0  0  0  0  0  0  0  0  0  0  0  0
    6.4623    0.1009    0.6707 C   0  0  0  0  0  0  0  0  0  0  0  0
    7.5206   -0.4268   -0.0917 C   0  0  0  0  0  0  0  0  0  0  0  0
    8.8750   -0.6112    0.5285 C   0  0  0  0  0  0  0  0  0  0  0  0
    7.2943   -0.8320   -1.4162 C   0  0  0  0  0  0  0  0  0  0  0  0
    6.0361   -0.7106   -2.0201 C   0  0  0  0  0  0  0  0  0  0  0  0
    5.0143   -0.1784   -1.2323 C   0  0  0  0  0  0  0  0  0  0  0  0
    3.6904    0.0751   -1.4817 N   0  0  0  0  0  0  0  0  0  0  0  0
   -0.7954   -2.8123    4.9476 H   0  0  0  0  0  0  0  0  0  0  0  0
   -1.2893   -1.1313    4.6457 H   0  0  0  0  0  0  0  0  0  0  0  0
    0.4040   -1.6098    4.4114 H   0  0  0  0  0  0  0  0  0  0  0  0
   -1.9606   -2.6844    2.7815 H   0  0  0  0  0  0  0  0  0  0  0  0
   -0.2841   -3.1327    2.5433 H   0  0  0  0  0  0  0  0  0  0  0  0
   -1.4492   -0.3071    2.2160 H   0  0  0  0  0  0  0  0  0  0  0  0
    0.2695   -0.7372    1.9835 H   0  0  0  0  0  0  0  0  0  0  0  0
   -3.4793   -1.1154    0.2671 H   0  0  0  0  0  0  0  0  0  0  0  0
   -6.4662    2.0929   -1.4093 H   0  0  0  0  0  0  0  0  0  0  0  0
   -4.9136    2.8107   -1.7043 H   0  0  0  0  0  0  0  0  0  0  0  0
   -6.1534    2.4424   -3.8272 H   0  0  0  0  0  0  0  0  0  0  0  0
   -6.3084    0.7112   -3.4775 H   0  0  0  0  0  0  0  0  0  0  0  0
   -4.7204    1.3987   -3.8328 H   0  0  0  0  0  0  0  0  0  0  0  0
   -6.7341   -0.2133   -1.0979 H   0  0  0  0  0  0  0  0  0  0  0  0
   -5.4195   -1.2372   -0.6081 H   0  0  0  0  0  0  0  0  0  0  0  0
   -6.7733   -0.5406    1.3512 H   0  0  0  0  0  0  0  0  0  0  0  0
   -6.5306    1.1706    0.9609 H   0  0  0  0  0  0  0  0  0  0  0  0
   -5.1702    0.1869    1.5105 H   0  0  0  0  0  0  0  0  0  0  0  0
   -2.9513    2.2614   -2.3725 H   0  0  0  0  0  0  0  0  0  0  0  0
   -0.5658    1.9926   -2.2407 H   0  0  0  0  0  0  0  0  0  0  0  0
    1.1312   -0.8697   -1.2799 H   0  0  0  0  0  0  0  0  0  0  0  0
    6.6028    0.4115    1.7006 H   0  0  0  0  0  0  0  0  0  0  0  0
    9.6653   -0.3737   -0.1913 H   0  0  0  0  0  0  0  0  0  0  0  0
    9.0094    0.0507    1.3903 H   0  0  0  0  0  0  0  0  0  0  0  0
    8.9951   -1.6468    0.8617 H   0  0  0  0  0  0  0  0  0  0  0  0
    8.1134   -1.2549   -1.9977 H   0  0  0  0  0  0  0  0  0  0  0  0
    5.8736   -1.0244   -3.0458 H   0  0  0  0  0  0  0  0  0  0  0  0
    3.2206   -0.0865   -2.3615 H   0  0  0  0  0  0  0  0  0  0  0  0
  1  2  1  0
  2  3  1  0
  3  4  1  0
  4  5  1  0
  5  6  2  0
  6  7  1  0
  7  8  1  0
  8  9  1  0
  9 10  1  0
  8 11  1  0
 11 12  1  0
  7 13  2  0
 13 14  1  0
 14 15  2  0
 15 16  1  0
 16 17  2  3
 17 18  1  0
 18 19  3  0
 17 20  1  0
 20 21  2  0
 21 22  1  0
 22 23  2  0
 23 24  1  0
 24 25  1  0
 24 26  2  0
 26 27  1  0
 27 28  2  0
 28 29  1  0
 15  5  1  0
 29 20  1  0
 28 22  1  0
  1 30  1  0
  1 31  1  0
  1 32  1  0
  2 33  1  0
  2 34  1  0
  3 35  1  0
  3 36  1  0
  6 37  1  0
  9 38  1  0
  9 39  1  0
 10 40  1  0
 10 41  1  0
 10 42  1  0
 11 43  1  0
 11 44  1  0
 12 45  1  0
 12 46  1  0
 12 47  1  0
 13 48  1  0
 14 49  1  0
 16 50  1  0
 23 51  1  0
 25 52  1  0
 25 53  1  0
 25 54  1  0
 26 55  1  0
 27 56  1  0
 29 57  1  0
M  END
$$$$
