
     RDKit          3D

 40 41  0  0  0  0  0  0  0  0999 V2000
   -6.6026   -0.3704    0.5565 C   0  0  0  0  0  0  0  0  0  0  0  0
   -5.1577   -0.1867    0.2017 C   0  0  0  0  0  0  0  0  0  0  0  0
   -4.2530    0.3197    1.1361 C   0  0  0  0  0  0  0  0  0  0  0  0
   -2.9131    0.5166    0.7862 C   0  0  0  0  0  0  0  0  0  0  0  0
   -2.4470    0.2181   -0.5023 C   0  0  0  0  0  0  0  0  0  0  0  0
   -1.0821    0.4604   -0.7406 N   0  0  0  0  0  0  0  0  0  0  0  0
   -0.2240    0.2037   -1.7858 C   0  0  0  0  0  0  0  0  0  0  0  0
   -0.4751   -0.5995   -3.2233 S   0  0  0  0  0  0  0  0  0  0  0  0
    1.0458    0.7154   -1.5559 N   0  0  0  0  0  0  0  0  0  0  0  0
    1.4285    1.0889   -0.2260 N   0  0  0  0  0  0  0  0  0  0  0  0
    1.8268    2.5068   -0.1994 C   0  0  0  0  0  0  0  0  0  0  0  0
    2.5586    0.3038    0.1703 C   0  0  0  0  0  0  0  0  0  0  0  0
    3.4294   -0.1174   -0.7887 N   0  0  0  0  0  0  0  0  0  0  0  0
    4.4845   -0.8616   -0.3766 C   0  0  0  0  0  0  0  0  0  0  0  0
    5.4503   -1.3419   -1.4132 C   0  0  0  0  0  0  0  0  0  0  0  0
    4.6723   -1.1732    0.9624 C   0  0  0  0  0  0  0  0  0  0  0  0
    3.8239   -0.7717    1.9339 N   0  0  0  0  0  0  0  0  0  0  0  0
    2.7531   -0.0407    1.5215 C   0  0  0  0  0  0  0  0  0  0  0  0
    1.7723    0.3571    2.5832 C   0  0  0  0  0  0  0  0  0  0  0  0
   -3.3591   -0.2640   -1.4375 C   0  0  0  0  0  0  0  0  0  0  0  0
   -4.7027   -0.4623   -1.0905 C   0  0  0  0  0  0  0  0  0  0  0  0
   -7.1617    0.5439    0.3350 H   0  0  0  0  0  0  0  0  0  0  0  0
   -6.7171   -0.6064    1.6197 H   0  0  0  0  0  0  0  0  0  0  0  0
   -7.0409   -1.1996   -0.0088 H   0  0  0  0  0  0  0  0  0  0  0  0
   -4.5814    0.5632    2.1438 H   0  0  0  0  0  0  0  0  0  0  0  0
   -2.2357    0.9051    1.5424 H   0  0  0  0  0  0  0  0  0  0  0  0
   -0.5581    0.8601    0.0301 H   0  0  0  0  0  0  0  0  0  0  0  0
    1.8108    0.3604   -2.1354 H   0  0  0  0  0  0  0  0  0  0  0  0
    2.6519    2.7165   -0.8916 H   0  0  0  0  0  0  0  0  0  0  0  0
    0.9740    3.1310   -0.4900 H   0  0  0  0  0  0  0  0  0  0  0  0
    2.1236    2.8206    0.8072 H   0  0  0  0  0  0  0  0  0  0  0  0
    5.1483   -1.0078   -2.4110 H   0  0  0  0  0  0  0  0  0  0  0  0
    5.4885   -2.4356   -1.4175 H   0  0  0  0  0  0  0  0  0  0  0  0
    6.4509   -0.9478   -1.2103 H   0  0  0  0  0  0  0  0  0  0  0  0
    5.5175   -1.7656    1.2967 H   0  0  0  0  0  0  0  0  0  0  0  0
    0.7641    0.0209    2.3211 H   0  0  0  0  0  0  0  0  0  0  0  0
    1.7704    1.4420    2.7194 H   0  0  0  0  0  0  0  0  0  0  0  0
    2.0353   -0.1002    3.5430 H   0  0  0  0  0  0  0  0  0  0  0  0
   -3.0784   -0.4848   -2.4587 H   0  0  0  0  0  0  0  0  0  0  0  0
   -5.3907   -0.8340   -1.8471 H   0  0  0  0  0  0  0  0  0  0  0  0
  1  2  1  0
  2  3  2  0
  3  4  1  0
  4  5  2  0
  5  6  1  0
  6  7  1  0
  7  8  2  0
  7  9  1  0
  9 10  1  0
 10 11  1  0
 10 12  1  0
 12 13  2  0
 13 14  1  0
 14 15  1  0
 14 16  2  0
 16 17  1  0
 17 18  2  0
 18 19  1  0
  5 20  1  0
 20 21  2  0
 21  2  1  0
 18 12  1  0
  1 22  1  0
  1 23  1  0
  1 24  1  0
  3 25  1  0
  4 26  1  0
  6 27  1  0
  9 28  1  0
 11 29  1  0
 11 30  1  0
 11 31  1  0
 15 32  1  0
 15 33  1  0
 15 34  1  0
 16 35  1  0
 19 36  1  0
 19 37  1  0
 19 38  1  0
 20 39  1  0
 21 40  1  0
M  END
$$$$
