
     RDKit          3D

 45 47  0  0  0  0  0  0  0  0999 V2000
    1.5588    0.3035   -2.3556 O   0  0  0  0  0  0  0  0  0  0  0  0
    1.6340   -0.5605   -1.4811 C   0  0  0  0  0  0  0  0  0  0  0  0
    2.9548   -1.0130   -0.8606 C   0  0  0  0  0  0  0  0  0  0  0  0
    4.4220   -0.3416   -1.7060 S   0  0  0  0  0  0  0  0  0  0  0  0
    4.5901    1.1966   -0.8233 C   0  0  0  0  0  0  0  0  0  0  0  0
    5.4784    1.2829    0.2553 C   0  0  0  0  0  0  0  0  0  0  0  0
    5.6244    2.4842    0.9540 C   0  0  0  0  0  0  0  0  0  0  0  0
    4.8831    3.6007    0.5686 C   0  0  0  0  0  0  0  0  0  0  0  0
    5.0819    5.2272    1.5109 Br  0  0  0  0  0  0  0  0  0  0  0  0
    4.0022    3.5276   -0.5083 C   0  0  0  0  0  0  0  0  0  0  0  0
    3.8619    2.3263   -1.2069 C   0  0  0  0  0  0  0  0  0  0  0  0
    0.4834   -1.1838   -1.0003 N   0  0  0  0  0  0  0  0  0  0  0  0
   -0.8066   -0.8537   -1.6165 C   0  0  0  0  0  0  0  0  0  0  0  0
   -1.8028   -2.0183   -1.5553 C   0  0  0  0  0  0  0  0  0  0  0  0
   -2.0156   -2.5050   -0.1623 N   0  0  0  0  0  0  0  0  0  0  0  0
   -3.5930   -2.4753    0.4589 S   0  0  0  0  0  6  0  0  0  0  0  0
   -3.5612   -3.0849    1.7726 O   0  0  0  0  0  0  0  0  0  0  0  0
   -4.4891   -2.9558   -0.5710 O   0  0  0  0  0  0  0  0  0  0  0  0
   -3.9139   -0.7377    0.6822 C   0  0  0  0  0  0  0  0  0  0  0  0
   -3.6416   -0.1353    1.9158 C   0  0  0  0  0  0  0  0  0  0  0  0
   -3.9102    1.2217    2.0925 C   0  0  0  0  0  0  0  0  0  0  0  0
   -4.4636    1.9660    1.0492 C   0  0  0  0  0  0  0  0  0  0  0  0
   -4.7626    1.3556   -0.1697 C   0  0  0  0  0  0  0  0  0  0  0  0
   -4.4968   -0.0012   -0.3543 C   0  0  0  0  0  0  0  0  0  0  0  0
   -0.9099   -2.2196    0.7911 C   0  0  0  0  0  0  0  0  0  0  0  0
    0.4501   -2.1796    0.0783 C   0  0  0  0  0  0  0  0  0  0  0  0
    3.0174   -2.1023   -0.9415 H   0  0  0  0  0  0  0  0  0  0  0  0
    2.9796   -0.7343    0.1968 H   0  0  0  0  0  0  0  0  0  0  0  0
    6.0680    0.4200    0.5533 H   0  0  0  0  0  0  0  0  0  0  0  0
    6.3212    2.5388    1.7869 H   0  0  0  0  0  0  0  0  0  0  0  0
    3.4264    4.3964   -0.8187 H   0  0  0  0  0  0  0  0  0  0  0  0
    3.1808    2.2825   -2.0552 H   0  0  0  0  0  0  0  0  0  0  0  0
   -1.2021    0.0132   -1.0733 H   0  0  0  0  0  0  0  0  0  0  0  0
   -0.6604   -0.5523   -2.6597 H   0  0  0  0  0  0  0  0  0  0  0  0
   -1.4181   -2.8649   -2.1378 H   0  0  0  0  0  0  0  0  0  0  0  0
   -2.7417   -1.7162   -2.0267 H   0  0  0  0  0  0  0  0  0  0  0  0
   -3.2297   -0.7140    2.7398 H   0  0  0  0  0  0  0  0  0  0  0  0
   -3.6986    1.6992    3.0456 H   0  0  0  0  0  0  0  0  0  0  0  0
   -4.6754    3.0237    1.1921 H   0  0  0  0  0  0  0  0  0  0  0  0
   -5.2131    1.9366   -0.9714 H   0  0  0  0  0  0  0  0  0  0  0  0
   -4.7559   -0.4748   -1.2984 H   0  0  0  0  0  0  0  0  0  0  0  0
   -1.0790   -1.2550    1.2819 H   0  0  0  0  0  0  0  0  0  0  0  0
   -0.8829   -3.0020    1.5569 H   0  0  0  0  0  0  0  0  0  0  0  0
    1.2378   -1.9701    0.8082 H   0  0  0  0  0  0  0  0  0  0  0  0
    0.6673   -3.1516   -0.3822 H   0  0  0  0  0  0  0  0  0  0  0  0
  1  2  2  0
  2  3  1  0
  3  4  1  0
  4  5  1  0
  5  6  2  0
  6  7  1  0
  7  8  2  0
  8  9  1  0
  8 10  1  0
 10 11  2  0
  2 12  1  0
 12 13  1  0
 13 14  1  0
 14 15  1  0
 15 16  1  0
 16 17  2  0
 16 18  2  0
 16 19  1  0
 19 20  2  0
 20 21  1  0
 21 22  2  0
 22 23  1  0
 23 24  2  0
 15 25  1  0
 25 26  1  0
 11  5  1  0
 26 12  1  0
 24 19  1  0
  3 27  1  0
  3 28  1  0
  6 29  1  0
  7 30  1  0
 10 31  1  0
 11 32  1  0
 13 33  1  0
 13 34  1  0
 14 35  1  0
 14 36  1  0
 20 37  1  0
 21 38  1  0
 22 39  1  0
 23 40  1  0
 24 41  1  0
 25 42  1  0
 25 43  1  0
 26 44  1  0
 26 45  1  0
M  END
$$$$
