
     RDKit          3D

 43 46  0  0  0  0  0  0  0  0999 V2000
    8.0891   -0.2858    0.4972 C   0  0  0  0  0  0  0  0  0  0  0  0
    6.6534   -0.0807    0.8906 C   0  0  0  0  0  0  0  0  0  0  0  0
    6.3157    0.3841    2.1752 C   0  0  0  0  0  0  0  0  0  0  0  0
    4.9815    0.5357    2.5782 C   0  0  0  0  0  0  0  0  0  0  0  0
    4.0041    0.2433    1.6238 C   0  0  0  0  0  0  0  0  0  0  0  0
    2.6332    0.2359    1.6732 N   0  0  0  0  0  0  0  0  0  0  0  0
    2.1551   -0.0795    0.4196 C   0  0  0  0  0  0  0  0  0  0  0  0
    0.7510   -0.0596    0.1876 C   0  0  0  0  0  0  0  0  0  0  0  0
   -0.0931   -0.8998    0.9813 C   0  0  0  0  0  0  0  0  0  0  0  0
   -0.7238   -1.6018    1.6666 N   0  0  0  0  0  0  0  0  0  0  0  0
    0.3173    0.7573   -0.7935 C   0  0  0  0  0  0  0  0  0  0  0  0
   -1.0464    0.9437   -1.1589 C   0  0  0  0  0  0  0  0  0  0  0  0
   -1.5814    1.8644   -2.0568 C   0  0  0  0  0  0  0  0  0  0  0  0
   -2.9864    1.6923   -2.0702 C   0  0  0  0  0  0  0  0  0  0  0  0
   -3.2576    0.6594   -1.2000 C   0  0  0  0  0  0  0  0  0  0  0  0
   -4.3998    0.0565   -0.8033 N   0  0  0  0  0  0  0  0  0  0  0  0
   -4.3666   -1.2176   -0.0674 C   0  0  0  0  0  0  0  0  0  0  0  0
   -5.5743   -2.0919   -0.4462 C   0  0  0  0  0  0  0  0  0  0  0  0
   -6.8572   -1.4639   -0.2820 O   0  0  0  0  0  0  0  0  0  0  0  0
   -6.7982   -0.0311   -0.3075 C   0  0  0  0  0  0  0  0  0  0  0  0
   -5.7121    0.5251   -1.2435 C   0  0  0  0  0  0  0  0  0  0  0  0
   -2.0958    0.2167   -0.6529 O   0  0  0  0  0  0  0  0  0  0  0  0
    3.1516   -0.3305   -0.4099 N   0  0  0  0  0  0  0  0  0  0  0  0
    4.2995   -0.1681    0.3265 C   0  0  0  0  0  0  0  0  0  0  0  0
    5.6391   -0.3547   -0.0468 C   0  0  0  0  0  0  0  0  0  0  0  0
    8.3493    0.3689   -0.3425 H   0  0  0  0  0  0  0  0  0  0  0  0
    8.7684   -0.0577    1.3253 H   0  0  0  0  0  0  0  0  0  0  0  0
    8.2541   -1.3299    0.2047 H   0  0  0  0  0  0  0  0  0  0  0  0
    7.1031    0.6092    2.8941 H   0  0  0  0  0  0  0  0  0  0  0  0
    4.7322    0.8579    3.5836 H   0  0  0  0  0  0  0  0  0  0  0  0
    2.0827    0.3972    2.5031 H   0  0  0  0  0  0  0  0  0  0  0  0
    1.0459    1.3461   -1.3495 H   0  0  0  0  0  0  0  0  0  0  0  0
   -1.0144    2.5854   -2.6310 H   0  0  0  0  0  0  0  0  0  0  0  0
   -3.7071    2.2476   -2.6534 H   0  0  0  0  0  0  0  0  0  0  0  0
   -3.4556   -1.7916   -0.2837 H   0  0  0  0  0  0  0  0  0  0  0  0
   -4.3857   -0.9996    1.0088 H   0  0  0  0  0  0  0  0  0  0  0  0
   -5.5816   -3.0029    0.1613 H   0  0  0  0  0  0  0  0  0  0  0  0
   -5.4976   -2.4059   -1.4946 H   0  0  0  0  0  0  0  0  0  0  0  0
   -7.7859    0.3386   -0.6100 H   0  0  0  0  0  0  0  0  0  0  0  0
   -6.6270    0.3196    0.7190 H   0  0  0  0  0  0  0  0  0  0  0  0
   -5.8917    0.1910   -2.2735 H   0  0  0  0  0  0  0  0  0  0  0  0
   -5.7594    1.6205   -1.2021 H   0  0  0  0  0  0  0  0  0  0  0  0
    5.8722   -0.7438   -1.0405 H   0  0  0  0  0  0  0  0  0  0  0  0
  1  2  1  0
  2  3  2  0
  3  4  1  0
  4  5  2  0
  5  6  1  0
  6  7  1  0
  7  8  1  0
  8  9  1  0
  9 10  3  0
  8 11  2  3
 11 12  1  0
 12 13  2  0
 13 14  1  0
 14 15  2  0
 15 16  1  0
 16 17  1  0
 17 18  1  0
 18 19  1  0
 19 20  1  0
 20 21  1  0
 15 22  1  0
  7 23  2  0
 23 24  1  0
 24 25  2  0
 25  2  1  0
 24  5  1  0
 22 12  1  0
 21 16  1  0
  1 26  1  0
  1 27  1  0
  1 28  1  0
  3 29  1  0
  4 30  1  0
  6 31  1  0
 11 32  1  0
 13 33  1  0
 14 34  1  0
 17 35  1  0
 17 36  1  0
 18 37  1  0
 18 38  1  0
 20 39  1  0
 20 40  1  0
 21 41  1  0
 21 42  1  0
 25 43  1  0
M  END
$$$$
