
     RDKit          3D

 47 48  0  0  0  0  0  0  0  0999 V2000
    1.2378    0.6210    2.6813 C   0  0  0  0  0  0  0  0  0  0  0  0
    1.8150    0.3355    1.4130 O   0  0  0  0  0  0  0  0  0  0  0  0
    1.8057    1.3363    0.4820 C   0  0  0  0  0  0  0  0  0  0  0  0
    1.6373    2.6917    0.7792 C   0  0  0  0  0  0  0  0  0  0  0  0
    1.6904    3.6523   -0.2377 C   0  0  0  0  0  0  0  0  0  0  0  0
    1.9274    3.2722   -1.5582 C   0  0  0  0  0  0  0  0  0  0  0  0
    2.1015    1.9260   -1.8690 C   0  0  0  0  0  0  0  0  0  0  0  0
    2.0229    0.9644   -0.8527 C   0  0  0  0  0  0  0  0  0  0  0  0
    2.1789   -0.4563   -1.2375 C   0  0  0  0  0  0  0  0  0  0  0  0
    3.2919   -0.8146   -1.6139 O   0  0  0  0  0  0  0  0  0  0  0  0
    1.0297   -1.2668   -1.2156 N   0  0  0  0  0  0  0  0  0  0  0  0
   -0.2331   -0.6250   -1.3330 N   0  0  0  0  0  0  0  0  0  0  0  0
   -1.0130   -0.4197   -0.2149 C   0  0  0  0  0  0  0  0  0  0  0  0
   -0.8964   -0.9987    0.8571 O   0  0  0  0  0  0  0  0  0  0  0  0
   -1.9490    0.5633   -0.5092 O   0  0  0  0  0  0  0  0  0  0  0  0
   -2.7397    0.9610    0.5726 C   0  0  0  0  0  0  0  0  0  0  0  0
   -3.7350    0.1243    1.0742 C   0  0  0  0  0  0  0  0  0  0  0  0
   -4.5356    0.5748    2.1230 C   0  0  0  0  0  0  0  0  0  0  0  0
   -4.3464    1.8558    2.6474 C   0  0  0  0  0  0  0  0  0  0  0  0
   -3.3586    2.6925    2.1227 C   0  0  0  0  0  0  0  0  0  0  0  0
   -2.5539    2.2479    1.0749 C   0  0  0  0  0  0  0  0  0  0  0  0
    1.0360   -2.6837   -1.6871 C   0  0  0  0  0  0  0  0  0  0  0  0
    1.3275   -2.7417   -3.1989 C   0  0  0  0  0  0  0  0  0  0  0  0
   -0.3136   -3.4005   -1.4348 C   0  0  0  0  0  0  0  0  0  0  0  0
    2.1054   -3.4971   -0.9257 C   0  0  0  0  0  0  0  0  0  0  0  0
    0.2353    1.0503    2.5819 H   0  0  0  0  0  0  0  0  0  0  0  0
    1.1448   -0.3230    3.2267 H   0  0  0  0  0  0  0  0  0  0  0  0
    1.8903    1.2799    3.2628 H   0  0  0  0  0  0  0  0  0  0  0  0
    1.4851    3.0342    1.7980 H   0  0  0  0  0  0  0  0  0  0  0  0
    1.5678    4.7050    0.0080 H   0  0  0  0  0  0  0  0  0  0  0  0
    1.9898    4.0255   -2.3398 H   0  0  0  0  0  0  0  0  0  0  0  0
    2.3055    1.6234   -2.8932 H   0  0  0  0  0  0  0  0  0  0  0  0
   -0.3453    0.0276   -2.0992 H   0  0  0  0  0  0  0  0  0  0  0  0
   -3.8804   -0.8707    0.6651 H   0  0  0  0  0  0  0  0  0  0  0  0
   -5.3066   -0.0722    2.5334 H   0  0  0  0  0  0  0  0  0  0  0  0
   -4.9725    2.2029    3.4658 H   0  0  0  0  0  0  0  0  0  0  0  0
   -3.2205    3.6905    2.5300 H   0  0  0  0  0  0  0  0  0  0  0  0
   -1.7897    2.8963    0.6578 H   0  0  0  0  0  0  0  0  0  0  0  0
    1.3077   -3.7737   -3.5672 H   0  0  0  0  0  0  0  0  0  0  0  0
    0.5834   -2.1693   -3.7643 H   0  0  0  0  0  0  0  0  0  0  0  0
    2.3108   -2.3272   -3.4430 H   0  0  0  0  0  0  0  0  0  0  0  0
   -1.1355   -2.9362   -1.9911 H   0  0  0  0  0  0  0  0  0  0  0  0
   -0.2691   -4.4493   -1.7518 H   0  0  0  0  0  0  0  0  0  0  0  0
   -0.5758   -3.3909   -0.3713 H   0  0  0  0  0  0  0  0  0  0  0  0
    1.9664   -3.4051    0.1577 H   0  0  0  0  0  0  0  0  0  0  0  0
    3.1237   -3.1714   -1.1558 H   0  0  0  0  0  0  0  0  0  0  0  0
    2.0517   -4.5615   -1.1826 H   0  0  0  0  0  0  0  0  0  0  0  0
  1  2  1  0
  2  3  1  0
  3  4  2  0
  4  5  1  0
  5  6  2  0
  6  7  1  0
  7  8  2  0
  8  9  1  0
  9 10  2  0
  9 11  1  0
 11 12  1  0
 12 13  1  0
 13 14  2  0
 13 15  1  0
 15 16  1  0
 16 17  2  0
 17 18  1  0
 18 19  2  0
 19 20  1  0
 20 21  2  0
 11 22  1  0
 22 23  1  0
 22 24  1  0
 22 25  1  0
  8  3  1  0
 21 16  1  0
  1 26  1  0
  1 27  1  0
  1 28  1  0
  4 29  1  0
  5 30  1  0
  6 31  1  0
  7 32  1  0
 12 33  1  0
 17 34  1  0
 18 35  1  0
 19 36  1  0
 20 37  1  0
 21 38  1  0
 23 39  1  0
 23 40  1  0
 23 41  1  0
 24 42  1  0
 24 43  1  0
 24 44  1  0
 25 45  1  0
 25 46  1  0
 25 47  1  0
M  END
$$$$
