
     RDKit          3D

 46 49  0  0  0  0  0  0  0  0999 V2000
   -2.2072   -2.8409   -2.6218 C   0  0  0  0  0  0  0  0  0  0  0  0
   -2.1272   -2.7636   -1.1709 N   0  0  0  0  0  0  0  0  0  0  0  0
   -3.2950   -3.2346   -0.4431 C   0  0  0  0  0  0  0  0  0  0  0  0
   -1.5868   -1.5472   -0.6840 N   0  0  0  0  0  0  0  0  0  0  0  0
   -2.1850   -0.3211   -1.0251 C   0  0  0  0  0  0  0  0  0  0  0  0
   -3.3843   -0.1159   -1.4753 N   0  0  0  0  0  0  0  0  0  0  0  0
   -1.3033    0.9171   -0.8874 C   0  0  0  0  0  0  0  0  0  0  0  0
   -0.4227    0.9351   -2.0711 C   0  0  0  0  0  0  0  0  0  0  0  0
    0.2798    0.9187   -2.9960 N   0  0  0  0  0  0  0  0  0  0  0  0
   -0.5427    0.8609    0.4576 C   0  0  0  0  0  0  0  0  0  0  0  0
    0.3865    2.0729    0.5813 C   0  0  0  0  0  0  0  0  0  0  0  0
   -0.0769    3.2236    1.2689 C   0  0  0  0  0  0  0  0  0  0  0  0
    0.7201    4.3666    1.3943 C   0  0  0  0  0  0  0  0  0  0  0  0
    1.9725    4.3404    0.8246 C   0  0  0  0  0  0  0  0  0  0  0  0
    2.4356    3.2362    0.1520 C   0  0  0  0  0  0  0  0  0  0  0  0
    1.6729    2.0952    0.0086 C   0  0  0  0  0  0  0  0  0  0  0  0
    3.6931    3.4145   -0.3349 O   0  0  0  0  0  0  0  0  0  0  0  0
    3.9684    4.7572    0.1141 C   0  0  0  0  0  0  0  0  0  0  0  0
    2.8779    5.3543    0.8460 O   0  0  0  0  0  0  0  0  0  0  0  0
    0.0681   -0.5083    0.7158 C   0  0  0  0  0  0  0  0  0  0  0  0
   -0.4307   -1.6246    0.1287 C   0  0  0  0  0  0  0  0  0  0  0  0
    0.1866   -3.0011    0.3670 C   0  0  0  0  0  0  0  0  0  0  0  0
    1.1378   -3.0865    1.5577 C   0  0  0  0  0  0  0  0  0  0  0  0
    2.0377   -1.8731    1.6231 C   0  0  0  0  0  0  0  0  0  0  0  0
    1.1639   -0.6516    1.7202 C   0  0  0  0  0  0  0  0  0  0  0  0
    1.3320    0.1867    2.6007 O   0  0  0  0  0  0  0  0  0  0  0  0
   -2.3705   -3.8793   -2.9310 H   0  0  0  0  0  0  0  0  0  0  0  0
   -3.0164   -2.2399   -3.0462 H   0  0  0  0  0  0  0  0  0  0  0  0
   -1.2646   -2.5231   -3.0819 H   0  0  0  0  0  0  0  0  0  0  0  0
   -3.1355   -3.1719    0.6394 H   0  0  0  0  0  0  0  0  0  0  0  0
   -3.4696   -4.2924   -0.6698 H   0  0  0  0  0  0  0  0  0  0  0  0
   -4.2149   -2.6951   -0.6802 H   0  0  0  0  0  0  0  0  0  0  0  0
   -3.8709   -1.0083   -1.5522 H   0  0  0  0  0  0  0  0  0  0  0  0
   -1.9397    1.8118   -0.9087 H   0  0  0  0  0  0  0  0  0  0  0  0
   -1.2967    0.9641    1.2545 H   0  0  0  0  0  0  0  0  0  0  0  0
   -1.0665    3.2313    1.7229 H   0  0  0  0  0  0  0  0  0  0  0  0
    0.3677    5.2431    1.9259 H   0  0  0  0  0  0  0  0  0  0  0  0
    2.0817    1.2506   -0.5365 H   0  0  0  0  0  0  0  0  0  0  0  0
    4.1863    5.3811   -0.7603 H   0  0  0  0  0  0  0  0  0  0  0  0
    4.8540    4.7363    0.7598 H   0  0  0  0  0  0  0  0  0  0  0  0
   -0.5876   -3.7580    0.5349 H   0  0  0  0  0  0  0  0  0  0  0  0
    0.7270   -3.2890   -0.5442 H   0  0  0  0  0  0  0  0  0  0  0  0
    0.5489   -3.1564    2.4819 H   0  0  0  0  0  0  0  0  0  0  0  0
    1.7363   -4.0018    1.4913 H   0  0  0  0  0  0  0  0  0  0  0  0
    2.6801   -1.7860    0.7405 H   0  0  0  0  0  0  0  0  0  0  0  0
    2.6794   -1.9278    2.5087 H   0  0  0  0  0  0  0  0  0  0  0  0
  1  2  1  0
  2  3  1  0
  2  4  1  0
  4  5  1  0
  5  6  2  3
  5  7  1  0
  7  8  1  0
  8  9  3  0
  7 10  1  0
 10 11  1  0
 11 12  2  0
 12 13  1  0
 13 14  2  0
 14 15  1  0
 15 16  2  0
 15 17  1  0
 17 18  1  0
 18 19  1  0
 10 20  1  0
 20 21  2  0
 21 22  1  0
 22 23  1  0
 23 24  1  0
 24 25  1  0
 25 26  2  0
 21  4  1  0
 16 11  1  0
 25 20  1  0
 19 14  1  0
  1 27  1  0
  1 28  1  0
  1 29  1  0
  3 30  1  0
  3 31  1  0
  3 32  1  0
  6 33  1  0
  7 34  1  0
 10 35  1  0
 12 36  1  0
 13 37  1  0
 16 38  1  0
 18 39  1  0
 18 40  1  0
 22 41  1  0
 22 42  1  0
 23 43  1  0
 23 44  1  0
 24 45  1  0
 24 46  1  0
M  END
$$$$
