
     RDKit          3D

 33 35  0  0  0  0  0  0  0  0999 V2000
   -2.5149   -0.9911    3.4727 C   0  0  0  0  0  0  0  0  0  0  0  0
   -3.0529    0.2176    2.7242 C   0  0  0  0  0  0  0  0  0  0  0  0
   -3.5612   -0.1530    1.3782 C   0  0  0  0  0  0  0  0  0  0  0  0
   -4.8109   -0.4310    1.0540 N   0  0  0  0  0  0  0  0  0  0  0  0
   -4.8509   -0.7015   -0.2960 N   0  0  0  0  0  0  0  0  0  0  0  0
   -3.6257   -0.5938   -0.7454 C   0  0  0  0  0  0  0  0  0  0  0  0
   -2.7567   -0.2667    0.2634 N   0  0  0  0  0  0  0  0  0  0  0  0
   -1.4114   -0.0333    0.2175 N   0  0  0  0  0  0  0  0  0  0  0  0
   -0.7767   -0.4176   -0.8561 C   0  0  0  0  0  0  0  0  0  0  0  0
    0.6891   -0.1146   -0.9297 C   0  0  0  0  0  0  0  0  0  0  0  0
    1.1788    1.0254   -0.2794 C   0  0  0  0  0  0  0  0  0  0  0  0
    2.5422    1.3401   -0.3238 C   0  0  0  0  0  0  0  0  0  0  0  0
    3.4287    0.5137   -1.0128 C   0  0  0  0  0  0  0  0  0  0  0  0
    4.7768    0.7024   -1.1348 O   0  0  0  0  0  0  0  0  0  0  0  0
    5.3271    1.8504   -0.5001 C   0  0  0  0  0  0  0  0  0  0  0  0
    2.9403   -0.6295   -1.6511 C   0  0  0  0  0  0  0  0  0  0  0  0
    1.5795   -0.9491   -1.6107 C   0  0  0  0  0  0  0  0  0  0  0  0
   -1.3742   -1.2186   -2.0086 C   0  0  0  0  0  0  0  0  0  0  0  0
   -3.0790   -0.7536   -2.3665 S   0  0  0  0  0  0  0  0  0  0  0  0
   -2.1673   -0.6969    4.4681 H   0  0  0  0  0  0  0  0  0  0  0  0
   -1.6731   -1.4473    2.9408 H   0  0  0  0  0  0  0  0  0  0  0  0
   -3.2884   -1.7571    3.5953 H   0  0  0  0  0  0  0  0  0  0  0  0
   -2.2715    0.9817    2.6426 H   0  0  0  0  0  0  0  0  0  0  0  0
   -3.8689    0.6649    3.3038 H   0  0  0  0  0  0  0  0  0  0  0  0
    0.5031    1.6826    0.2647 H   0  0  0  0  0  0  0  0  0  0  0  0
    2.8754    2.2352    0.1913 H   0  0  0  0  0  0  0  0  0  0  0  0
    4.9100    2.7715   -0.9204 H   0  0  0  0  0  0  0  0  0  0  0  0
    5.1823    1.8089    0.5845 H   0  0  0  0  0  0  0  0  0  0  0  0
    6.4043    1.8545   -0.6924 H   0  0  0  0  0  0  0  0  0  0  0  0
    3.6317   -1.2817   -2.1811 H   0  0  0  0  0  0  0  0  0  0  0  0
    1.2518   -1.8607   -2.1015 H   0  0  0  0  0  0  0  0  0  0  0  0
   -1.3394   -2.2800   -1.7405 H   0  0  0  0  0  0  0  0  0  0  0  0
   -0.7982   -1.0719   -2.9261 H   0  0  0  0  0  0  0  0  0  0  0  0
  1  2  1  0
  2  3  1  0
  3  4  2  0
  4  5  1  0
  5  6  2  0
  6  7  1  0
  7  8  1  0
  8  9  2  0
  9 10  1  0
 10 11  2  0
 11 12  1  0
 12 13  2  0
 13 14  1  0
 14 15  1  0
 13 16  1  0
 16 17  2  0
  9 18  1  0
 18 19  1  0
  7  3  1  0
 17 10  1  0
 19  6  1  0
  1 20  1  0
  1 21  1  0
  1 22  1  0
  2 23  1  0
  2 24  1  0
 11 25  1  0
 12 26  1  0
 15 27  1  0
 15 28  1  0
 15 29  1  0
 16 30  1  0
 17 31  1  0
 18 32  1  0
 18 33  1  0
M  END
$$$$
