
     RDKit          3D

 40 42  0  0  0  0  0  0  0  0999 V2000
   -2.1483    3.2104   -0.8258 C   0  0  0  0  0  0  0  0  0  0  0  0
   -1.9931    1.8492   -0.4477 O   0  0  0  0  0  0  0  0  0  0  0  0
   -3.0791    1.2134    0.1037 C   0  0  0  0  0  0  0  0  0  0  0  0
   -4.3537    1.7835    0.2109 C   0  0  0  0  0  0  0  0  0  0  0  0
   -5.4053    1.0661    0.7859 C   0  0  0  0  0  0  0  0  0  0  0  0
   -5.1936   -0.2237    1.2618 C   0  0  0  0  0  0  0  0  0  0  0  0
   -3.9297   -0.8043    1.1569 C   0  0  0  0  0  0  0  0  0  0  0  0
   -2.8651   -0.1040    0.5663 C   0  0  0  0  0  0  0  0  0  0  0  0
   -1.5247   -0.7137    0.4870 C   0  0  0  0  0  0  0  0  0  0  0  0
   -1.2956   -1.9946    0.1623 C   0  0  0  0  0  0  0  0  0  0  0  0
    0.0924   -2.5086    0.0581 C   0  0  0  0  0  0  0  0  0  0  0  0
    1.1276   -1.8086    0.3802 N   0  0  0  0  0  0  0  0  0  0  0  0
    2.3646   -2.3639    0.2736 N   0  0  0  0  0  0  0  0  0  0  0  0
    3.4850   -1.6215    0.0164 C   0  0  0  0  0  0  0  0  0  0  0  0
    3.3942   -0.1881   -0.2642 C   0  0  0  0  0  0  0  0  0  0  0  0
    3.6389    0.2292   -1.5787 C   0  0  0  0  0  0  0  0  0  0  0  0
    3.5267    1.5809   -1.9072 C   0  0  0  0  0  0  0  0  0  0  0  0
    3.1805    2.5059   -0.9219 C   0  0  0  0  0  0  0  0  0  0  0  0
    3.0325    4.1704   -1.3327 Cl  0  0  0  0  0  0  0  0  0  0  0  0
    2.9594    2.0973    0.3931 C   0  0  0  0  0  0  0  0  0  0  0  0
    3.0719    0.7454    0.7273 C   0  0  0  0  0  0  0  0  0  0  0  0
    2.8479    0.3025    2.3816 Cl  0  0  0  0  0  0  0  0  0  0  0  0
    4.5988   -2.3012    0.0006 N   0  0  0  0  0  0  0  0  0  0  0  0
    4.2092   -3.5786    0.3140 N   0  0  0  0  0  0  0  0  0  0  0  0
    2.8311   -3.6360    0.5532 C   0  0  0  0  0  0  0  0  0  0  0  0
    2.0792   -5.0091    1.1043 S   0  0  0  0  0  0  0  0  0  0  0  0
   -2.4360    3.8300    0.0301 H   0  0  0  0  0  0  0  0  0  0  0  0
   -1.1786    3.5696   -1.1843 H   0  0  0  0  0  0  0  0  0  0  0  0
   -2.8644    3.3105   -1.6477 H   0  0  0  0  0  0  0  0  0  0  0  0
   -4.5637    2.7862   -0.1455 H   0  0  0  0  0  0  0  0  0  0  0  0
   -6.3904    1.5192    0.8666 H   0  0  0  0  0  0  0  0  0  0  0  0
   -6.0095   -0.7766    1.7204 H   0  0  0  0  0  0  0  0  0  0  0  0
   -3.7816   -1.8050    1.5558 H   0  0  0  0  0  0  0  0  0  0  0  0
   -0.6964   -0.0336    0.6786 H   0  0  0  0  0  0  0  0  0  0  0  0
   -2.0864   -2.6970   -0.0704 H   0  0  0  0  0  0  0  0  0  0  0  0
    0.1572   -3.5244   -0.3646 H   0  0  0  0  0  0  0  0  0  0  0  0
    3.9049   -0.4956   -2.3451 H   0  0  0  0  0  0  0  0  0  0  0  0
    3.7066    1.9050   -2.9294 H   0  0  0  0  0  0  0  0  0  0  0  0
    2.7047    2.8290    1.1554 H   0  0  0  0  0  0  0  0  0  0  0  0
    4.8818   -4.3157    0.4893 H   0  0  0  0  0  0  0  0  0  0  0  0
  1  2  1  0
  2  3  1  0
  3  4  2  0
  4  5  1  0
  5  6  2  0
  6  7  1  0
  7  8  2  0
  8  9  1  0
  9 10  2  3
 10 11  1  0
 11 12  2  3
 12 13  1  0
 13 14  1  0
 14 15  1  0
 15 16  2  0
 16 17  1  0
 17 18  2  0
 18 19  1  0
 18 20  1  0
 20 21  2  0
 21 22  1  0
 14 23  2  0
 23 24  1  0
 24 25  1  0
 25 26  2  0
  8  3  1  0
 25 13  1  0
 21 15  1  0
  1 27  1  0
  1 28  1  0
  1 29  1  0
  4 30  1  0
  5 31  1  0
  6 32  1  0
  7 33  1  0
  9 34  1  0
 10 35  1  0
 11 36  1  0
 16 37  1  0
 17 38  1  0
 20 39  1  0
 24 40  1  0
M  END
$$$$
