
     RDKit          3D

 53 56  0  0  0  0  0  0  0  0999 V2000
    6.0888   -0.5422    3.2681 C   0  0  0  0  0  0  0  0  0  0  0  0
    5.3754   -0.6271    1.9524 C   0  0  0  0  0  0  0  0  0  0  0  0
    4.1460   -1.2495    1.8646 C   0  0  0  0  0  0  0  0  0  0  0  0
    3.5226   -1.2955    0.6181 C   0  0  0  0  0  0  0  0  0  0  0  0
    2.1766   -1.9140    0.5838 C   0  0  0  0  0  0  0  0  0  0  0  0
    2.0556   -3.0577    1.0012 O   0  0  0  0  0  0  0  0  0  0  0  0
    1.1820   -1.0693    0.1283 N   0  0  0  0  0  0  0  0  0  0  0  0
   -0.1835   -1.3718   -0.0431 C   0  0  0  0  0  0  0  0  0  0  0  0
   -0.7396   -2.6264    0.1881 C   0  0  0  0  0  0  0  0  0  0  0  0
   -2.1059   -2.8500   -0.0237 C   0  0  0  0  0  0  0  0  0  0  0  0
   -2.9574   -1.8265   -0.4705 C   0  0  0  0  0  0  0  0  0  0  0  0
   -4.4068   -2.1537   -0.6847 C   0  0  0  0  0  0  0  0  0  0  0  0
   -2.3933   -0.5599   -0.6903 C   0  0  0  0  0  0  0  0  0  0  0  0
   -3.3182    0.8637   -1.2458 S   0  0  0  0  0  6  0  0  0  0  0  0
   -2.5893    1.4203   -2.3663 O   0  0  0  0  0  0  0  0  0  0  0  0
   -4.7224    0.5446   -1.3629 O   0  0  0  0  0  0  0  0  0  0  0  0
   -3.1467    1.9338    0.0711 N   0  0  0  0  0  0  0  0  0  0  0  0
   -3.4513    3.3675   -0.2357 C   0  0  0  0  0  0  0  0  0  0  0  0
   -4.9531    3.6507   -0.1540 C   0  0  0  0  0  0  0  0  0  0  0  0
   -5.4607    3.3173    1.1464 O   0  0  0  0  0  0  0  0  0  0  0  0
   -5.2760    1.9203    1.4133 C   0  0  0  0  0  0  0  0  0  0  0  0
   -3.7932    1.5302    1.3612 C   0  0  0  0  0  0  0  0  0  0  0  0
   -1.0166   -0.3424   -0.4849 C   0  0  0  0  0  0  0  0  0  0  0  0
    4.1471   -0.7663   -0.5338 C   0  0  0  0  0  0  0  0  0  0  0  0
    3.6250   -0.8356   -1.8520 C   0  0  0  0  0  0  0  0  0  0  0  0
    4.3084   -0.2712   -2.9272 C   0  0  0  0  0  0  0  0  0  0  0  0
    5.5236    0.3600   -2.7070 C   0  0  0  0  0  0  0  0  0  0  0  0
    6.0520    0.4116   -1.4152 C   0  0  0  0  0  0  0  0  0  0  0  0
    5.3935   -0.1451   -0.3269 C   0  0  0  0  0  0  0  0  0  0  0  0
    5.9806   -0.0680    0.8802 N   0  0  0  0  0  0  0  0  0  0  0  0
    6.2871   -1.5460    3.6564 H   0  0  0  0  0  0  0  0  0  0  0  0
    7.0469   -0.0236    3.1593 H   0  0  0  0  0  0  0  0  0  0  0  0
    5.4823    0.0107    3.9921 H   0  0  0  0  0  0  0  0  0  0  0  0
    3.6735   -1.6848    2.7399 H   0  0  0  0  0  0  0  0  0  0  0  0
    1.4602   -0.1205   -0.0970 H   0  0  0  0  0  0  0  0  0  0  0  0
   -0.1368   -3.4642    0.5265 H   0  0  0  0  0  0  0  0  0  0  0  0
   -2.4966   -3.8500    0.1619 H   0  0  0  0  0  0  0  0  0  0  0  0
   -4.6929   -1.9714   -1.7250 H   0  0  0  0  0  0  0  0  0  0  0  0
   -4.6128   -3.2110   -0.4826 H   0  0  0  0  0  0  0  0  0  0  0  0
   -5.0363   -1.5730   -0.0038 H   0  0  0  0  0  0  0  0  0  0  0  0
   -2.9210    3.9736    0.5096 H   0  0  0  0  0  0  0  0  0  0  0  0
   -3.0526    3.6530   -1.2136 H   0  0  0  0  0  0  0  0  0  0  0  0
   -5.1351    4.7184   -0.3123 H   0  0  0  0  0  0  0  0  0  0  0  0
   -5.5177    3.1025   -0.9160 H   0  0  0  0  0  0  0  0  0  0  0  0
   -5.8834    1.3390    0.7130 H   0  0  0  0  0  0  0  0  0  0  0  0
   -5.6676    1.7252    2.4170 H   0  0  0  0  0  0  0  0  0  0  0  0
   -3.6703    0.4597    1.5469 H   0  0  0  0  0  0  0  0  0  0  0  0
   -3.2523    2.0514    2.1611 H   0  0  0  0  0  0  0  0  0  0  0  0
   -0.6067    0.6482   -0.6763 H   0  0  0  0  0  0  0  0  0  0  0  0
    2.6877   -1.3499   -2.0572 H   0  0  0  0  0  0  0  0  0  0  0  0
    3.8968   -0.3333   -3.9317 H   0  0  0  0  0  0  0  0  0  0  0  0
    6.0712    0.8022   -3.5354 H   0  0  0  0  0  0  0  0  0  0  0  0
    7.0130    0.8955   -1.2531 H   0  0  0  0  0  0  0  0  0  0  0  0
  1  2  1  0
  2  3  2  0
  3  4  1  0
  4  5  1  0
  5  6  2  0
  5  7  1  0
  7  8  1  0
  8  9  2  0
  9 10  1  0
 10 11  2  0
 11 12  1  0
 11 13  1  0
 13 14  1  0
 14 15  2  0
 14 16  2  0
 14 17  1  0
 17 18  1  0
 18 19  1  0
 19 20  1  0
 20 21  1  0
 21 22  1  0
 13 23  2  0
  4 24  2  0
 24 25  1  0
 25 26  2  0
 26 27  1  0
 27 28  2  0
 28 29  1  0
 29 30  2  0
 30  2  1  0
 23  8  1  0
 29 24  1  0
 22 17  1  0
  1 31  1  0
  1 32  1  0
  1 33  1  0
  3 34  1  0
  7 35  1  0
  9 36  1  0
 10 37  1  0
 12 38  1  0
 12 39  1  0
 12 40  1  0
 18 41  1  0
 18 42  1  0
 19 43  1  0
 19 44  1  0
 21 45  1  0
 21 46  1  0
 22 47  1  0
 22 48  1  0
 23 49  1  0
 25 50  1  0
 26 51  1  0
 27 52  1  0
 28 53  1  0
M  END
$$$$
