
     RDKit          3D

 50 53  0  0  0  0  0  0  0  0999 V2000
    7.5050    1.6843   -1.6533 C   0  0  0  0  0  0  0  0  0  0  0  0
    6.3312    0.9309   -1.1119 C   0  0  0  0  0  0  0  0  0  0  0  0
    5.0316    1.3043   -1.4496 C   0  0  0  0  0  0  0  0  0  0  0  0
    3.9319    0.6542   -0.9983 N   0  0  0  0  0  0  0  0  0  0  0  0
    4.1934   -0.4119   -0.1879 C   0  0  0  0  0  0  0  0  0  0  0  0
    3.0230   -1.1655    0.3416 C   0  0  0  0  0  0  0  0  0  0  0  0
    3.1634   -2.1149    1.1028 O   0  0  0  0  0  0  0  0  0  0  0  0
    1.8022   -0.6929   -0.0864 N   0  0  0  0  0  0  0  0  0  0  0  0
    0.5510   -1.1989    0.4305 C   0  0  0  0  0  0  0  0  0  0  0  0
    0.2595   -0.6139    1.8327 C   0  0  0  0  0  0  0  0  0  0  0  0
   -1.2324   -0.7279    2.2648 C   0  0  0  0  0  0  0  0  0  0  0  0
   -1.4002   -0.0639    3.6450 C   0  0  0  0  0  0  0  0  0  0  0  0
   -1.6476   -2.2076    2.3954 C   0  0  0  0  0  0  0  0  0  0  0  0
   -2.1533    0.0092    1.2411 C   0  0  0  0  0  0  0  0  0  0  0  0
   -1.7479   -0.2824   -0.1663 C   0  0  0  0  0  0  0  0  0  0  0  0
   -0.5327   -0.8391   -0.5261 C   0  0  0  0  0  0  0  0  0  0  0  0
   -0.6333   -1.0489   -1.9048 C   0  0  0  0  0  0  0  0  0  0  0  0
   -1.7964   -0.6323   -2.3973 N   0  0  0  0  0  0  0  0  0  0  0  0
   -2.4771   -0.1034   -1.3366 N   0  0  0  0  0  0  0  0  0  0  0  0
   -3.7478    0.5108   -1.5716 C   0  0  0  0  0  0  0  0  0  0  0  0
   -4.4099    1.2811   -0.6088 C   0  0  0  0  0  0  0  0  0  0  0  0
   -5.6538    1.8580   -0.8940 C   0  0  0  0  0  0  0  0  0  0  0  0
   -6.2470    1.6764   -2.1405 C   0  0  0  0  0  0  0  0  0  0  0  0
   -5.5929    0.9273   -3.1130 C   0  0  0  0  0  0  0  0  0  0  0  0
   -4.3504    0.3526   -2.8334 C   0  0  0  0  0  0  0  0  0  0  0  0
    5.4806   -0.7956    0.1503 C   0  0  0  0  0  0  0  0  0  0  0  0
    6.5754   -0.1329   -0.3054 N   0  0  0  0  0  0  0  0  0  0  0  0
    7.3815    2.7573   -1.4788 H   0  0  0  0  0  0  0  0  0  0  0  0
    7.6031    1.5056   -2.7286 H   0  0  0  0  0  0  0  0  0  0  0  0
    8.4311    1.3674   -1.1636 H   0  0  0  0  0  0  0  0  0  0  0  0
    4.8384    2.1508   -2.1013 H   0  0  0  0  0  0  0  0  0  0  0  0
    1.8155    0.1690   -0.6264 H   0  0  0  0  0  0  0  0  0  0  0  0
    0.6226   -2.2910    0.5019 H   0  0  0  0  0  0  0  0  0  0  0  0
    0.5431    0.4490    1.8453 H   0  0  0  0  0  0  0  0  0  0  0  0
    0.9085   -1.1029    2.5710 H   0  0  0  0  0  0  0  0  0  0  0  0
   -0.7890   -0.5667    4.4029 H   0  0  0  0  0  0  0  0  0  0  0  0
   -2.4438   -0.1007    3.9778 H   0  0  0  0  0  0  0  0  0  0  0  0
   -1.0967    0.9889    3.6188 H   0  0  0  0  0  0  0  0  0  0  0  0
   -2.6734   -2.2948    2.7701 H   0  0  0  0  0  0  0  0  0  0  0  0
   -1.6062   -2.7381    1.4393 H   0  0  0  0  0  0  0  0  0  0  0  0
   -0.9928   -2.7371    3.0967 H   0  0  0  0  0  0  0  0  0  0  0  0
   -2.0679    1.0910    1.4009 H   0  0  0  0  0  0  0  0  0  0  0  0
   -3.1928   -0.2876    1.4195 H   0  0  0  0  0  0  0  0  0  0  0  0
    0.0891   -1.4997   -2.5736 H   0  0  0  0  0  0  0  0  0  0  0  0
   -3.9877    1.4907    0.3645 H   0  0  0  0  0  0  0  0  0  0  0  0
   -6.1584    2.4565   -0.1392 H   0  0  0  0  0  0  0  0  0  0  0  0
   -7.2136    2.1244   -2.3562 H   0  0  0  0  0  0  0  0  0  0  0  0
   -6.0457    0.7863   -4.0909 H   0  0  0  0  0  0  0  0  0  0  0  0
   -3.8645   -0.2298   -3.6154 H   0  0  0  0  0  0  0  0  0  0  0  0
    5.6742   -1.6454    0.7962 H   0  0  0  0  0  0  0  0  0  0  0  0
  1  2  1  0
  2  3  2  0
  3  4  1  0
  4  5  2  0
  5  6  1  0
  6  7  2  0
  6  8  1  0
  8  9  1  0
  9 10  1  0
 10 11  1  0
 11 12  1  0
 11 13  1  0
 11 14  1  0
 14 15  1  0
 15 16  2  0
 16 17  1  0
 17 18  2  0
 18 19  1  0
 19 20  1  0
 20 21  2  0
 21 22  1  0
 22 23  2  0
 23 24  1  0
 24 25  2  0
  5 26  1  0
 26 27  2  0
 27  2  1  0
 16  9  1  0
 25 20  1  0
 19 15  1  0
  1 28  1  0
  1 29  1  0
  1 30  1  0
  3 31  1  0
  8 32  1  0
  9 33  1  0
 10 34  1  0
 10 35  1  0
 12 36  1  0
 12 37  1  0
 12 38  1  0
 13 39  1  0
 13 40  1  0
 13 41  1  0
 14 42  1  0
 14 43  1  0
 17 44  1  0
 21 45  1  0
 22 46  1  0
 23 47  1  0
 24 48  1  0
 25 49  1  0
 26 50  1  0
M  END
$$$$
