
     RDKit          3D

 55 58  0  0  0  0  0  0  0  0999 V2000
    7.6665    1.4381   -0.4593 C   0  0  0  0  0  0  0  0  0  0  0  0
    6.2489    1.5236   -0.5369 O   0  0  0  0  0  0  0  0  0  0  0  0
    5.5419    0.3503   -0.5077 C   0  0  0  0  0  0  0  0  0  0  0  0
    6.1149   -0.9206   -0.3868 C   0  0  0  0  0  0  0  0  0  0  0  0
    5.3096   -2.0622   -0.3445 C   0  0  0  0  0  0  0  0  0  0  0  0
    3.9257   -1.9453   -0.4177 C   0  0  0  0  0  0  0  0  0  0  0  0
    3.3445   -0.6857   -0.5408 C   0  0  0  0  0  0  0  0  0  0  0  0
    4.1431    0.4715   -0.5992 C   0  0  0  0  0  0  0  0  0  0  0  0
    3.4641    1.8169   -0.7092 C   0  0  0  0  0  0  0  0  0  0  0  0
    3.0093    2.2697    0.6006 N   0  0  0  0  0  0  0  0  0  0  0  0
    1.7164    3.3170    0.6873 S   0  0  0  0  0  6  0  0  0  0  0  0
    1.6823    3.8362    2.0358 O   0  0  0  0  0  0  0  0  0  0  0  0
    1.7660    4.1868   -0.4671 O   0  0  0  0  0  0  0  0  0  0  0  0
    0.3391    2.2105    0.5106 C   0  0  0  0  0  0  0  0  0  0  0  0
    0.1628    1.1874    1.4573 C   0  0  0  0  0  0  0  0  0  0  0  0
   -0.8942    0.2805    1.3234 C   0  0  0  0  0  0  0  0  0  0  0  0
   -1.7640    0.4217    0.2524 C   0  0  0  0  0  0  0  0  0  0  0  0
   -1.5819    1.4496   -0.6776 C   0  0  0  0  0  0  0  0  0  0  0  0
   -0.5333    2.3523   -0.5711 C   0  0  0  0  0  0  0  0  0  0  0  0
   -2.5902    1.3674   -1.7779 C   0  0  0  0  0  0  0  0  0  0  0  0
   -3.5900    0.3337   -1.2145 C   0  0  0  0  0  0  0  0  0  0  0  0
   -4.8694    1.0290   -0.7401 C   0  0  0  0  0  0  0  0  0  0  0  0
   -2.8960   -0.3528   -0.0924 N   0  0  0  0  0  0  0  0  0  0  0  0
   -3.2840   -1.5317    0.5463 C   0  0  0  0  0  0  0  0  0  0  0  0
   -2.6467   -2.0146    1.4927 O   0  0  0  0  0  0  0  0  0  0  0  0
   -4.5607   -2.2550    0.0045 C   0  0  0  0  0  0  0  0  0  0  0  0
   -4.6078   -3.8038    0.1370 C   0  0  0  0  0  0  0  0  0  0  0  0
   -5.4355   -3.6249    1.4206 C   0  0  0  0  0  0  0  0  0  0  0  0
   -5.8204   -2.2256    0.9126 C   0  0  0  0  0  0  0  0  0  0  0  0
    8.0648    2.4564   -0.5041 H   0  0  0  0  0  0  0  0  0  0  0  0
    7.9836    0.9987    0.4921 H   0  0  0  0  0  0  0  0  0  0  0  0
    8.0760    0.8833   -1.3097 H   0  0  0  0  0  0  0  0  0  0  0  0
    7.1885   -1.0605   -0.3166 H   0  0  0  0  0  0  0  0  0  0  0  0
    5.7657   -3.0441   -0.2462 H   0  0  0  0  0  0  0  0  0  0  0  0
    3.2986   -2.8320   -0.3732 H   0  0  0  0  0  0  0  0  0  0  0  0
    2.2598   -0.6045   -0.5841 H   0  0  0  0  0  0  0  0  0  0  0  0
    4.1372    2.5656   -1.1401 H   0  0  0  0  0  0  0  0  0  0  0  0
    2.6231    1.7199   -1.4063 H   0  0  0  0  0  0  0  0  0  0  0  0
    3.7082    2.3845    1.3313 H   0  0  0  0  0  0  0  0  0  0  0  0
    0.8493    1.0913    2.2963 H   0  0  0  0  0  0  0  0  0  0  0  0
   -1.0156   -0.5018    2.0651 H   0  0  0  0  0  0  0  0  0  0  0  0
   -0.3938    3.1354   -1.3108 H   0  0  0  0  0  0  0  0  0  0  0  0
   -3.0493    2.3359   -1.9976 H   0  0  0  0  0  0  0  0  0  0  0  0
   -2.1074    0.9793   -2.6818 H   0  0  0  0  0  0  0  0  0  0  0  0
   -3.8400   -0.3929   -1.9945 H   0  0  0  0  0  0  0  0  0  0  0  0
   -5.3482    1.5609   -1.5691 H   0  0  0  0  0  0  0  0  0  0  0  0
   -5.5944    0.3143   -0.3439 H   0  0  0  0  0  0  0  0  0  0  0  0
   -4.6591    1.7541    0.0541 H   0  0  0  0  0  0  0  0  0  0  0  0
   -4.7991   -1.9751   -1.0264 H   0  0  0  0  0  0  0  0  0  0  0  0
   -3.6477   -4.3110    0.2653 H   0  0  0  0  0  0  0  0  0  0  0  0
   -5.1560   -4.2952   -0.6756 H   0  0  0  0  0  0  0  0  0  0  0  0
   -6.2637   -4.3259    1.5518 H   0  0  0  0  0  0  0  0  0  0  0  0
   -4.8338   -3.6117    2.3362 H   0  0  0  0  0  0  0  0  0  0  0  0
   -6.7623   -2.2006    0.3524 H   0  0  0  0  0  0  0  0  0  0  0  0
   -5.8457   -1.4446    1.6775 H   0  0  0  0  0  0  0  0  0  0  0  0
  1  2  1  0
  2  3  1  0
  3  4  2  0
  4  5  1  0
  5  6  2  0
  6  7  1  0
  7  8  2  0
  8  9  1  0
  9 10  1  0
 10 11  1  0
 11 12  2  0
 11 13  2  0
 11 14  1  0
 14 15  2  0
 15 16  1  0
 16 17  2  0
 17 18  1  0
 18 19  2  0
 18 20  1  0
 20 21  1  0
 21 22  1  0
 21 23  1  0
 23 24  1  0
 24 25  2  0
 24 26  1  0
 26 27  1  0
 27 28  1  0
 28 29  1  0
  8  3  1  0
 19 14  1  0
 29 26  1  0
 23 17  1  0
  1 30  1  0
  1 31  1  0
  1 32  1  0
  4 33  1  0
  5 34  1  0
  6 35  1  0
  7 36  1  0
  9 37  1  0
  9 38  1  0
 10 39  1  0
 15 40  1  0
 16 41  1  0
 19 42  1  0
 20 43  1  0
 20 44  1  0
 21 45  1  0
 22 46  1  0
 22 47  1  0
 22 48  1  0
 26 49  1  0
 27 50  1  0
 27 51  1  0
 28 52  1  0
 28 53  1  0
 29 54  1  0
 29 55  1  0
M  END
$$$$
