
     RDKit          3D

 56 60  0  0  0  0  0  0  0  0999 V2000
   -1.4047    0.9156    1.9075 C   0  0  0  0  0  0  0  0  0  0  0  0
   -1.0157   -0.0083    1.0171 C   0  0  0  0  0  0  0  0  0  0  0  0
    0.3731   -0.4626    0.7809 C   0  0  0  0  0  0  0  0  0  0  0  0
    1.4774   -0.0413    1.4229 C   0  0  0  0  0  0  0  0  0  0  0  0
    2.8554   -0.4600    1.1924 C   0  0  0  0  0  0  0  0  0  0  0  0
    3.2957   -1.7159    1.3312 C   0  0  0  0  0  0  0  0  0  0  0  0
    2.4819   -2.7512    1.7082 O   0  0  0  0  0  0  0  0  0  0  0  0
    4.5886   -2.0409    1.1203 N   0  0  0  0  0  0  0  0  0  0  0  0
    5.5727   -1.1546    0.7827 C   0  0  0  0  0  0  0  0  0  0  0  0
    6.7089   -1.6180    0.6774 O   0  0  0  0  0  0  0  0  0  0  0  0
    5.1936    0.1807    0.6431 N   0  0  0  0  0  0  0  0  0  0  0  0
    6.2011    1.1631    0.2938 C   0  0  0  0  0  0  0  0  0  0  0  0
    7.2797    0.8371   -0.5490 C   0  0  0  0  0  0  0  0  0  0  0  0
    8.2572    1.7821   -0.8883 C   0  0  0  0  0  0  0  0  0  0  0  0
    8.1735    3.0756   -0.3889 C   0  0  0  0  0  0  0  0  0  0  0  0
    9.3718    4.2367   -0.8025 Cl  0  0  0  0  0  0  0  0  0  0  0  0
    7.1210    3.4296    0.4457 C   0  0  0  0  0  0  0  0  0  0  0  0
    6.1458    2.4810    0.7824 C   0  0  0  0  0  0  0  0  0  0  0  0
    3.8684    0.5943    0.8431 C   0  0  0  0  0  0  0  0  0  0  0  0
    3.4608    1.7525    0.7204 O   0  0  0  0  0  0  0  0  0  0  0  0
    0.3282   -1.4420   -0.2982 C   0  0  0  0  0  0  0  0  0  0  0  0
   -0.9616   -1.5724   -0.6659 C   0  0  0  0  0  0  0  0  0  0  0  0
   -1.4651   -2.5102   -1.7109 C   0  0  0  0  0  0  0  0  0  0  0  0
   -1.8021   -0.7325    0.0993 N   0  0  0  0  0  0  0  0  0  0  0  0
   -3.1611   -0.6408   -0.0350 C   0  0  0  0  0  0  0  0  0  0  0  0
   -4.2258   -1.3350    1.1328 S   0  0  0  0  0  0  0  0  0  0  0  0
   -5.6068   -0.8292    0.2859 C   0  0  0  0  0  0  0  0  0  0  0  0
   -5.3015   -0.1457   -0.8741 C   0  0  0  0  0  0  0  0  0  0  0  0
   -3.8821   -0.0317   -1.0511 C   0  0  0  0  0  0  0  0  0  0  0  0
   -3.2584    0.6521   -2.1472 C   0  0  0  0  0  0  0  0  0  0  0  0
   -2.7933    1.2027   -3.0574 N   0  0  0  0  0  0  0  0  0  0  0  0
   -6.3720    0.4115   -1.7696 C   0  0  0  0  0  0  0  0  0  0  0  0
   -7.7471   -0.2064   -1.4705 C   0  0  0  0  0  0  0  0  0  0  0  0
   -8.0240   -0.2714    0.0380 C   0  0  0  0  0  0  0  0  0  0  0  0
   -6.9902   -1.1421    0.7683 C   0  0  0  0  0  0  0  0  0  0  0  0
   -0.7085    1.4239    2.5626 H   0  0  0  0  0  0  0  0  0  0  0  0
   -2.4466    1.1997    2.0029 H   0  0  0  0  0  0  0  0  0  0  0  0
    1.3943    0.7407    2.1743 H   0  0  0  0  0  0  0  0  0  0  0  0
    3.0280   -3.5360    1.8635 H   0  0  0  0  0  0  0  0  0  0  0  0
    4.9237   -2.9892    1.2192 H   0  0  0  0  0  0  0  0  0  0  0  0
    7.3732   -0.1523   -0.9910 H   0  0  0  0  0  0  0  0  0  0  0  0
    9.0739    1.4962   -1.5460 H   0  0  0  0  0  0  0  0  0  0  0  0
    7.0476    4.4380    0.8446 H   0  0  0  0  0  0  0  0  0  0  0  0
    5.3599    2.8004    1.4631 H   0  0  0  0  0  0  0  0  0  0  0  0
    1.1688   -1.9717   -0.7130 H   0  0  0  0  0  0  0  0  0  0  0  0
   -2.2283   -3.1775   -1.2981 H   0  0  0  0  0  0  0  0  0  0  0  0
   -1.8956   -1.9629   -2.5541 H   0  0  0  0  0  0  0  0  0  0  0  0
   -0.6582   -3.1380   -2.1041 H   0  0  0  0  0  0  0  0  0  0  0  0
   -6.1206    0.2381   -2.8221 H   0  0  0  0  0  0  0  0  0  0  0  0
   -6.4218    1.4968   -1.6172 H   0  0  0  0  0  0  0  0  0  0  0  0
   -7.7921   -1.2209   -1.8871 H   0  0  0  0  0  0  0  0  0  0  0  0
   -8.5269    0.3795   -1.9699 H   0  0  0  0  0  0  0  0  0  0  0  0
   -9.0289   -0.6697    0.2179 H   0  0  0  0  0  0  0  0  0  0  0  0
   -8.0042    0.7459    0.4497 H   0  0  0  0  0  0  0  0  0  0  0  0
   -7.0777   -0.9816    1.8488 H   0  0  0  0  0  0  0  0  0  0  0  0
   -7.2032   -2.2001    0.5711 H   0  0  0  0  0  0  0  0  0  0  0  0
  1  2  2  0
  2  3  1  0
  3  4  2  3
  4  5  1  0
  5  6  2  0
  6  7  1  0
  6  8  1  0
  8  9  1  0
  9 10  2  0
  9 11  1  0
 11 12  1  0
 12 13  2  0
 13 14  1  0
 14 15  2  0
 15 16  1  0
 15 17  1  0
 17 18  2  0
 11 19  1  0
 19 20  2  0
  3 21  1  0
 21 22  2  0
 22 23  1  0
 22 24  1  0
 24 25  1  0
 25 26  1  0
 26 27  1  0
 27 28  2  0
 28 29  1  0
 29 30  1  0
 30 31  3  0
 28 32  1  0
 32 33  1  0
 33 34  1  0
 34 35  1  0
 24  2  1  0
 29 25  2  0
 19  5  1  0
 35 27  1  0
 18 12  1  0
  1 36  1  0
  1 37  1  0
  4 38  1  0
  7 39  1  0
  8 40  1  0
 13 41  1  0
 14 42  1  0
 17 43  1  0
 18 44  1  0
 21 45  1  0
 23 46  1  0
 23 47  1  0
 23 48  1  0
 32 49  1  0
 32 50  1  0
 33 51  1  0
 33 52  1  0
 34 53  1  0
 34 54  1  0
 35 55  1  0
 35 56  1  0
M  END
$$$$
