
     RDKit          3D

 53 58  0  0  0  0  0  0  0  0999 V2000
   -1.2184   -2.0765   -0.0774 O   0  0  0  0  0  0  0  0  0  0  0  0
   -1.4496   -1.0890    0.6245 C   0  0  0  0  0  0  0  0  0  0  0  0
   -0.3439   -0.5760    1.5739 C   0  0  0  0  0  0  0  0  0  0  0  0
    0.9476   -0.5354    0.8668 N   0  0  0  0  0  4  0  0  0  0  0  0
    1.5244    0.5732    0.2466 C   0  0  0  0  0  0  0  0  0  0  0  0
    2.7128    0.1828   -0.3605 C   0  0  0  0  0  0  0  0  0  0  0  0
    3.7073    1.1121   -1.1464 C   0  0  0  0  0  0  0  0  0  0  0  0
    4.9148    0.6117   -1.6382 C   0  0  0  0  0  0  0  0  0  0  0  0
    5.7891    1.4474   -2.3383 C   0  0  0  0  0  0  0  0  0  0  0  0
    5.4615    2.7840   -2.5483 C   0  0  0  0  0  0  0  0  0  0  0  0
    4.2619    3.2898   -2.0535 C   0  0  0  0  0  0  0  0  0  0  0  0
    3.3842    2.4594   -1.3526 C   0  0  0  0  0  0  0  0  0  0  0  0
    2.7725   -1.1748   -0.0969 N   0  0  0  0  0  0  0  0  0  0  0  0
    1.7265   -1.5835    0.6174 C   0  0  0  0  0  0  0  0  0  0  0  0
    1.7560   -3.0329    0.9231 C   0  0  0  0  0  0  0  0  0  0  0  0
    2.8549   -3.5402   -0.0319 C   0  0  0  0  0  0  0  0  0  0  0  0
    3.6677   -2.2754   -0.4239 C   0  0  0  0  0  0  0  0  0  0  0  0
   -2.5965   -0.2780    0.5798 N   0  0  0  0  0  0  0  0  0  0  0  0
   -3.2371    0.0624   -0.6731 C   0  0  0  0  0  0  0  0  0  0  0  0
   -3.0499   -0.7210   -1.8307 C   0  0  0  0  0  0  0  0  0  0  0  0
   -3.6474   -0.3948   -3.0561 C   0  0  0  0  0  0  0  0  0  0  0  0
   -4.4490    0.7314   -3.1610 C   0  0  0  0  0  0  0  0  0  0  0  0
   -4.6350    1.5364   -2.0439 C   0  0  0  0  0  0  0  0  0  0  0  0
   -4.0301    1.2173   -0.8130 C   0  0  0  0  0  0  0  0  0  0  0  0
   -4.2108    2.4190    0.4828 S   0  0  0  0  0  0  0  0  0  0  0  0
   -3.9429    1.3768    1.8840 C   0  0  0  0  0  0  0  0  0  0  0  0
   -4.4777    1.7976    3.1127 C   0  0  0  0  0  0  0  0  0  0  0  0
   -4.3044    1.0364    4.2659 C   0  0  0  0  0  0  0  0  0  0  0  0
   -3.6033   -0.1580    4.1976 C   0  0  0  0  0  0  0  0  0  0  0  0
   -3.0636   -0.5782    2.9790 C   0  0  0  0  0  0  0  0  0  0  0  0
   -3.1960    0.1948    1.8040 C   0  0  0  0  0  0  0  0  0  0  0  0
   -0.2505   -1.2574    2.4261 H   0  0  0  0  0  0  0  0  0  0  0  0
   -0.5491    0.4339    1.9419 H   0  0  0  0  0  0  0  0  0  0  0  0
    1.0115    1.5177    0.3249 H   0  0  0  0  0  0  0  0  0  0  0  0
    5.2181   -0.4157   -1.4865 H   0  0  0  0  0  0  0  0  0  0  0  0
    6.7308    1.0597   -2.7209 H   0  0  0  0  0  0  0  0  0  0  0  0
    6.1427    3.4311   -3.0968 H   0  0  0  0  0  0  0  0  0  0  0  0
    4.0094    4.3348   -2.2210 H   0  0  0  0  0  0  0  0  0  0  0  0
    2.4579    2.8942   -0.9899 H   0  0  0  0  0  0  0  0  0  0  0  0
    2.0408   -3.1236    1.9741 H   0  0  0  0  0  0  0  0  0  0  0  0
    0.7811   -3.4762    0.7282 H   0  0  0  0  0  0  0  0  0  0  0  0
    2.3858   -3.9565   -0.9308 H   0  0  0  0  0  0  0  0  0  0  0  0
    3.4783   -4.3193    0.4136 H   0  0  0  0  0  0  0  0  0  0  0  0
    4.5735   -2.1872    0.1845 H   0  0  0  0  0  0  0  0  0  0  0  0
    3.9121   -2.2819   -1.4882 H   0  0  0  0  0  0  0  0  0  0  0  0
   -2.4601   -1.6327   -1.8270 H   0  0  0  0  0  0  0  0  0  0  0  0
   -3.4836   -1.0269   -3.9278 H   0  0  0  0  0  0  0  0  0  0  0  0
   -4.9146    0.9888   -4.1109 H   0  0  0  0  0  0  0  0  0  0  0  0
   -5.2389    2.4373   -2.1445 H   0  0  0  0  0  0  0  0  0  0  0  0
   -5.0419    2.7250    3.1785 H   0  0  0  0  0  0  0  0  0  0  0  0
   -4.7344    1.3693    5.2086 H   0  0  0  0  0  0  0  0  0  0  0  0
   -3.4995   -0.7744    5.0890 H   0  0  0  0  0  0  0  0  0  0  0  0
   -2.5953   -1.5585    2.9625 H   0  0  0  0  0  0  0  0  0  0  0  0
  1  2  2  0
  2  3  1  0
  3  4  1  0
  4  5  1  0
  5  6  2  0
  6  7  1  0
  7  8  2  0
  8  9  1  0
  9 10  2  0
 10 11  1  0
 11 12  2  0
  6 13  1  0
 13 14  1  0
 14 15  1  0
 15 16  1  0
 16 17  1  0
  2 18  1  0
 18 19  1  0
 19 20  2  0
 20 21  1  0
 21 22  2  0
 22 23  1  0
 23 24  2  0
 24 25  1  0
 25 26  1  0
 26 27  2  0
 27 28  1  0
 28 29  2  0
 29 30  1  0
 30 31  2  0
 14  4  2  0
 31 18  1  0
 12  7  1  0
 17 13  1  0
 24 19  1  0
 31 26  1  0
  3 32  1  0
  3 33  1  0
  5 34  1  0
  8 35  1  0
  9 36  1  0
 10 37  1  0
 11 38  1  0
 12 39  1  0
 15 40  1  0
 15 41  1  0
 16 42  1  0
 16 43  1  0
 17 44  1  0
 17 45  1  0
 20 46  1  0
 21 47  1  0
 22 48  1  0
 23 49  1  0
 27 50  1  0
 28 51  1  0
 29 52  1  0
 30 53  1  0
M  CHG  1   4   1
M  END
$$$$
