
     RDKit          3D

 39 41  0  0  0  0  0  0  0  0999 V2000
    4.7381    1.2000   -0.7970 C   0  0  0  0  0  0  0  0  0  0  0  0
    4.2542   -0.2377   -0.6087 C   0  0  0  0  0  0  0  0  0  0  0  0
    4.9069   -0.8653    0.6228 C   0  0  0  0  0  0  0  0  0  0  0  0
    2.7181   -0.3391   -0.5735 C   0  0  0  0  0  0  0  0  0  0  0  0
    2.0389    0.4021    0.5854 C   0  0  0  0  0  0  0  0  0  0  0  0
    0.5853    0.2490    0.5355 N   0  0  0  0  0  0  0  0  0  0  0  0
    0.0308   -0.8608    1.1689 C   0  0  0  0  0  0  0  0  0  0  0  0
    0.6932   -1.7104    1.7602 O   0  0  0  0  0  0  0  0  0  0  0  0
   -1.4420   -1.0079    1.1029 C   0  0  0  0  0  0  0  0  0  0  0  0
   -2.0438   -2.0745    1.7811 C   0  0  0  0  0  0  0  0  0  0  0  0
   -3.4228   -2.2247    1.7479 C   0  0  0  0  0  0  0  0  0  0  0  0
   -4.1999   -1.3183    1.0259 C   0  0  0  0  0  0  0  0  0  0  0  0
   -3.6229   -0.2409    0.3137 C   0  0  0  0  0  0  0  0  0  0  0  0
   -4.3882    0.6801   -0.4557 C   0  0  0  0  0  0  0  0  0  0  0  0
   -5.7965    0.6409   -0.4895 N   0  0  0  0  0  0  0  0  0  0  0  0
   -3.7541    1.7833   -1.0399 C   0  0  0  0  0  0  0  0  0  0  0  0
   -2.3724    1.9287   -0.9737 C   0  0  0  0  0  0  0  0  0  0  0  0
   -1.6047    0.9908   -0.2783 C   0  0  0  0  0  0  0  0  0  0  0  0
   -2.2104   -0.0865    0.3771 C   0  0  0  0  0  0  0  0  0  0  0  0
   -0.1349    1.1665   -0.2256 C   0  0  0  0  0  0  0  0  0  0  0  0
    0.3816    2.0896   -0.8510 O   0  0  0  0  0  0  0  0  0  0  0  0
    5.8212    1.2212   -0.9600 H   0  0  0  0  0  0  0  0  0  0  0  0
    4.2611    1.6612   -1.6679 H   0  0  0  0  0  0  0  0  0  0  0  0
    4.5247    1.8201    0.0794 H   0  0  0  0  0  0  0  0  0  0  0  0
    4.5889   -0.8115   -1.4832 H   0  0  0  0  0  0  0  0  0  0  0  0
    5.9949   -0.9047    0.5014 H   0  0  0  0  0  0  0  0  0  0  0  0
    4.6974   -0.2927    1.5318 H   0  0  0  0  0  0  0  0  0  0  0  0
    4.5513   -1.8899    0.7732 H   0  0  0  0  0  0  0  0  0  0  0  0
    2.3198    0.0384   -1.5245 H   0  0  0  0  0  0  0  0  0  0  0  0
    2.4374   -1.3998   -0.5357 H   0  0  0  0  0  0  0  0  0  0  0  0
    2.2820    1.4694    0.5507 H   0  0  0  0  0  0  0  0  0  0  0  0
    2.4004    0.0212    1.5464 H   0  0  0  0  0  0  0  0  0  0  0  0
   -1.4393   -2.7832    2.3444 H   0  0  0  0  0  0  0  0  0  0  0  0
   -3.8960   -3.0435    2.2846 H   0  0  0  0  0  0  0  0  0  0  0  0
   -5.2776   -1.4615    1.0371 H   0  0  0  0  0  0  0  0  0  0  0  0
   -6.1844   -0.2948   -0.4408 H   0  0  0  0  0  0  0  0  0  0  0  0
   -6.2013    1.1662   -1.2592 H   0  0  0  0  0  0  0  0  0  0  0  0
   -4.3356    2.5379   -1.5646 H   0  0  0  0  0  0  0  0  0  0  0  0
   -1.8996    2.7813   -1.4580 H   0  0  0  0  0  0  0  0  0  0  0  0
  1  2  1  0
  2  3  1  0
  2  4  1  0
  4  5  1  0
  5  6  1  0
  6  7  1  0
  7  8  2  0
  7  9  1  0
  9 10  1  0
 10 11  2  0
 11 12  1  0
 12 13  2  0
 13 14  1  0
 14 15  1  0
 14 16  2  0
 16 17  1  0
 17 18  2  0
 18 19  1  0
 18 20  1  0
 20 21  2  0
 20  6  1  0
 19  9  2  0
 19 13  1  0
  1 22  1  0
  1 23  1  0
  1 24  1  0
  2 25  1  0
  3 26  1  0
  3 27  1  0
  3 28  1  0
  4 29  1  0
  4 30  1  0
  5 31  1  0
  5 32  1  0
 10 33  1  0
 11 34  1  0
 12 35  1  0
 15 36  1  0
 15 37  1  0
 16 38  1  0
 17 39  1  0
M  END
$$$$
