
     RDKit          3D

 46 49  0  0  0  0  0  0  0  0999 V2000
    5.1859   -4.5391    1.1109 O   0  0  0  0  0  0  0  0  0  0  0  0
    4.3824   -4.1472    0.2520 N   0  0  0  0  0  4  0  0  0  0  0  0
    3.6861   -4.8945   -0.4501 O   0  0  0  0  0  1  0  0  0  0  0  0
    4.2520   -2.6992    0.0486 C   0  0  0  0  0  0  0  0  0  0  0  0
    5.1034   -1.8245    0.7357 C   0  0  0  0  0  0  0  0  0  0  0  0
    4.9754   -0.4495    0.5409 C   0  0  0  0  0  0  0  0  0  0  0  0
    4.0064    0.0472   -0.3337 C   0  0  0  0  0  0  0  0  0  0  0  0
    3.1531   -0.8233   -1.0307 C   0  0  0  0  0  0  0  0  0  0  0  0
    2.0914   -0.2685   -1.9561 C   0  0  0  0  0  0  0  0  0  0  0  0
    0.8583    0.1716   -1.2309 C   0  0  0  0  0  0  0  0  0  0  0  0
   -0.3425   -0.9783   -0.6831 S   0  0  0  0  0  0  0  0  0  0  0  0
   -1.4011    0.3441   -0.0672 C   0  0  0  0  0  0  0  0  0  0  0  0
   -2.5421    0.1473    0.5209 N   0  0  0  0  0  0  0  0  0  0  0  0
   -3.0400   -1.1457    0.7160 C   0  0  0  0  0  0  0  0  0  0  0  0
   -2.7621   -1.8370    1.8983 C   0  0  0  0  0  0  0  0  0  0  0  0
   -3.2786   -3.1172    2.1073 C   0  0  0  0  0  0  0  0  0  0  0  0
   -4.0899   -3.7070    1.1388 C   0  0  0  0  0  0  0  0  0  0  0  0
   -4.3905   -3.0148   -0.0337 C   0  0  0  0  0  0  0  0  0  0  0  0
   -3.8722   -1.7348   -0.2399 C   0  0  0  0  0  0  0  0  0  0  0  0
   -0.7623    1.5688   -0.3237 N   0  0  0  0  0  0  0  0  0  0  0  0
   -1.2629    2.7962    0.1996 C   0  0  0  0  0  0  0  0  0  0  0  0
   -2.6174    3.1419    0.0674 C   0  0  0  0  0  0  0  0  0  0  0  0
   -3.1066    4.3533    0.5646 C   0  0  0  0  0  0  0  0  0  0  0  0
   -2.2495    5.2409    1.2089 C   0  0  0  0  0  0  0  0  0  0  0  0
   -0.9051    4.9156    1.3628 C   0  0  0  0  0  0  0  0  0  0  0  0
   -0.4179    3.7039    0.8649 C   0  0  0  0  0  0  0  0  0  0  0  0
    0.4667    1.4330   -0.9786 C   0  0  0  0  0  0  0  0  0  0  0  0
    1.1926    2.5158   -1.4147 O   0  0  0  0  0  0  0  0  0  0  0  0
    3.2775   -2.2065   -0.8310 C   0  0  0  0  0  0  0  0  0  0  0  0
    5.8626   -2.1951    1.4211 H   0  0  0  0  0  0  0  0  0  0  0  0
    5.6288    0.2385    1.0730 H   0  0  0  0  0  0  0  0  0  0  0  0
    3.9148    1.1245   -0.4686 H   0  0  0  0  0  0  0  0  0  0  0  0
    1.8320   -1.0175   -2.7159 H   0  0  0  0  0  0  0  0  0  0  0  0
    2.5278    0.5632   -2.5246 H   0  0  0  0  0  0  0  0  0  0  0  0
   -2.1391   -1.3738    2.6581 H   0  0  0  0  0  0  0  0  0  0  0  0
   -3.0506   -3.6505    3.0262 H   0  0  0  0  0  0  0  0  0  0  0  0
   -4.4931   -4.7033    1.3009 H   0  0  0  0  0  0  0  0  0  0  0  0
   -5.0304   -3.4688   -0.7855 H   0  0  0  0  0  0  0  0  0  0  0  0
   -4.1156   -1.1930   -1.1490 H   0  0  0  0  0  0  0  0  0  0  0  0
   -3.3106    2.4685   -0.4330 H   0  0  0  0  0  0  0  0  0  0  0  0
   -4.1603    4.5971    0.4523 H   0  0  0  0  0  0  0  0  0  0  0  0
   -2.6328    6.1794    1.6015 H   0  0  0  0  0  0  0  0  0  0  0  0
   -0.2370    5.5980    1.8824 H   0  0  0  0  0  0  0  0  0  0  0  0
    0.6298    3.4598    1.0305 H   0  0  0  0  0  0  0  0  0  0  0  0
    0.5745    3.2679   -1.4364 H   0  0  0  0  0  0  0  0  0  0  0  0
    2.6092   -2.8874   -1.3561 H   0  0  0  0  0  0  0  0  0  0  0  0
  1  2  2  0
  2  3  1  0
  2  4  1  0
  4  5  2  0
  5  6  1  0
  6  7  2  0
  7  8  1  0
  8  9  1  0
  9 10  1  0
 10 11  1  0
 11 12  1  0
 12 13  2  3
 13 14  1  0
 14 15  2  0
 15 16  1  0
 16 17  2  0
 17 18  1  0
 18 19  2  0
 12 20  1  0
 20 21  1  0
 21 22  2  0
 22 23  1  0
 23 24  2  0
 24 25  1  0
 25 26  2  0
 20 27  1  0
 27 28  1  0
  8 29  2  0
 29  4  1  0
 27 10  2  0
 19 14  1  0
 26 21  1  0
  5 30  1  0
  6 31  1  0
  7 32  1  0
  9 33  1  0
  9 34  1  0
 15 35  1  0
 16 36  1  0
 17 37  1  0
 18 38  1  0
 19 39  1  0
 22 40  1  0
 23 41  1  0
 24 42  1  0
 25 43  1  0
 26 44  1  0
 28 45  1  0
 29 46  1  0
M  CHG  2   2   1   3  -1
M  END
$$$$
