
     RDKit          3D

 58 61  0  0  0  0  0  0  0  0999 V2000
    1.2359    3.7347   -5.2756 C   0  0  0  0  0  0  0  0  0  0  0  0
    2.5307    3.3063   -4.8748 O   0  0  0  0  0  0  0  0  0  0  0  0
    2.6147    2.1082   -4.2194 C   0  0  0  0  0  0  0  0  0  0  0  0
    1.5490    1.2507   -3.9314 C   0  0  0  0  0  0  0  0  0  0  0  0
    1.7781    0.0531   -3.2447 C   0  0  0  0  0  0  0  0  0  0  0  0
    3.0733   -0.3035   -2.8382 C   0  0  0  0  0  0  0  0  0  0  0  0
    3.3072   -1.5753   -2.0586 C   0  0  0  0  0  0  0  0  0  0  0  0
    2.7817   -1.4398   -0.7177 N   0  0  0  0  0  0  0  0  0  0  0  0
    1.8272   -2.2980   -0.2058 C   0  0  0  0  0  0  0  0  0  0  0  0
    1.4823   -3.3276   -0.7922 O   0  0  0  0  0  0  0  0  0  0  0  0
    1.2033   -1.9020    1.1279 C   0  0  0  0  0  0  0  0  0  0  0  0
    2.2252   -1.8314    2.1836 C   0  0  0  0  0  0  0  0  0  0  0  0
    3.0140   -1.7706    3.0351 N   0  0  0  0  0  0  0  0  0  0  0  0
    0.4218   -0.6063    1.0145 C   0  0  0  0  0  0  0  0  0  0  0  0
    1.0185    0.4449    0.3732 N   0  0  0  0  0  0  0  0  0  0  0  0
    0.2899    1.5699    0.2185 C   0  0  0  0  0  0  0  0  0  0  0  0
    0.8303    2.6576   -0.4615 C   0  0  0  0  0  0  0  0  0  0  0  0
    0.0953    3.8283   -0.6580 C   0  0  0  0  0  0  0  0  0  0  0  0
   -1.1995    3.9124   -0.1627 C   0  0  0  0  0  0  0  0  0  0  0  0
   -1.7489    2.8256    0.5249 C   0  0  0  0  0  0  0  0  0  0  0  0
   -1.0271    1.6582    0.7241 C   0  0  0  0  0  0  0  0  0  0  0  0
   -1.5949    0.6325    1.3889 N   0  0  0  0  0  0  0  0  0  0  0  0
   -0.8716   -0.5015    1.5490 C   0  0  0  0  0  0  0  0  0  0  0  0
   -1.4280   -1.5750    2.2784 N   0  0  0  0  0  0  0  0  0  0  0  0
   -1.3861   -1.2496    3.7309 C   0  0  0  0  0  0  0  0  0  0  0  0
   -2.3465   -2.1724    4.5094 C   0  0  0  0  0  0  0  0  0  0  0  0
   -3.7682   -1.9609    4.1518 N   0  0  0  0  0  0  0  0  0  0  0  0
   -4.5408   -3.1754    4.3907 C   0  0  0  0  0  0  0  0  0  0  0  0
   -3.9111   -1.4767    2.7600 C   0  0  0  0  0  0  0  0  0  0  0  0
   -2.7929   -1.9200    1.7924 C   0  0  0  0  0  0  0  0  0  0  0  0
    4.1379    0.5621   -3.1306 C   0  0  0  0  0  0  0  0  0  0  0  0
    3.9064    1.7552   -3.8187 C   0  0  0  0  0  0  0  0  0  0  0  0
    0.5877    3.8995   -4.4066 H   0  0  0  0  0  0  0  0  0  0  0  0
    0.7828    3.0304   -5.9883 H   0  0  0  0  0  0  0  0  0  0  0  0
    1.3553    4.6960   -5.7887 H   0  0  0  0  0  0  0  0  0  0  0  0
    0.5305    1.4847   -4.2192 H   0  0  0  0  0  0  0  0  0  0  0  0
    0.9343   -0.5979   -3.0161 H   0  0  0  0  0  0  0  0  0  0  0  0
    4.3766   -1.7827   -1.9637 H   0  0  0  0  0  0  0  0  0  0  0  0
    2.8543   -2.4199   -2.5843 H   0  0  0  0  0  0  0  0  0  0  0  0
    2.8123   -0.4985   -0.3198 H   0  0  0  0  0  0  0  0  0  0  0  0
    0.5240   -2.7339    1.3740 H   0  0  0  0  0  0  0  0  0  0  0  0
    1.8420    2.5880   -0.8568 H   0  0  0  0  0  0  0  0  0  0  0  0
    0.5385    4.6652   -1.1956 H   0  0  0  0  0  0  0  0  0  0  0  0
   -1.7844    4.8163   -0.3075 H   0  0  0  0  0  0  0  0  0  0  0  0
   -2.7614    2.8886    0.9148 H   0  0  0  0  0  0  0  0  0  0  0  0
   -1.6578   -0.2046    3.9297 H   0  0  0  0  0  0  0  0  0  0  0  0
   -0.3659   -1.3992    4.1005 H   0  0  0  0  0  0  0  0  0  0  0  0
   -2.2242   -1.9970    5.5857 H   0  0  0  0  0  0  0  0  0  0  0  0
   -2.0491   -3.2131    4.3137 H   0  0  0  0  0  0  0  0  0  0  0  0
   -4.4326   -3.4981    5.4279 H   0  0  0  0  0  0  0  0  0  0  0  0
   -5.6069   -2.9860    4.2282 H   0  0  0  0  0  0  0  0  0  0  0  0
   -4.2348   -4.0024    3.7373 H   0  0  0  0  0  0  0  0  0  0  0  0
   -3.9285   -0.3838    2.7980 H   0  0  0  0  0  0  0  0  0  0  0  0
   -4.8803   -1.7677    2.3483 H   0  0  0  0  0  0  0  0  0  0  0  0
   -2.8306   -3.0117    1.6931 H   0  0  0  0  0  0  0  0  0  0  0  0
   -2.9860   -1.5220    0.7827 H   0  0  0  0  0  0  0  0  0  0  0  0
    5.1534    0.3180   -2.8236 H   0  0  0  0  0  0  0  0  0  0  0  0
    4.7437    2.4182   -4.0402 H   0  0  0  0  0  0  0  0  0  0  0  0
  1  2  1  0
  2  3  1  0
  3  4  2  0
  4  5  1  0
  5  6  2  0
  6  7  1  0
  7  8  1  0
  8  9  1  0
  9 10  2  0
  9 11  1  0
 11 12  1  0
 12 13  3  0
 11 14  1  0
 14 15  2  0
 15 16  1  0
 16 17  2  0
 17 18  1  0
 18 19  2  0
 19 20  1  0
 20 21  2  0
 21 22  1  0
 22 23  2  0
 23 24  1  0
 24 25  1  0
 25 26  1  0
 26 27  1  0
 27 28  1  0
 27 29  1  0
 29 30  1  0
  6 31  1  0
 31 32  2  0
 32  3  1  0
 23 14  1  0
 30 24  1  0
 21 16  1  0
  1 33  1  0
  1 34  1  0
  1 35  1  0
  4 36  1  0
  5 37  1  0
  7 38  1  0
  7 39  1  0
  8 40  1  0
 11 41  1  0
 17 42  1  0
 18 43  1  0
 19 44  1  0
 20 45  1  0
 25 46  1  0
 25 47  1  0
 26 48  1  0
 26 49  1  0
 28 50  1  0
 28 51  1  0
 28 52  1  0
 29 53  1  0
 29 54  1  0
 30 55  1  0
 30 56  1  0
 31 57  1  0
 32 58  1  0
M  END
$$$$
