
     RDKit          3D

 44 46  0  0  0  0  0  0  0  0999 V2000
    4.7458    2.1374   -1.1294 C   0  0  0  0  0  0  0  0  0  0  0  0
    4.0524    1.0049   -0.6134 O   0  0  0  0  0  0  0  0  0  0  0  0
    4.7978   -0.0591   -0.1667 C   0  0  0  0  0  0  0  0  0  0  0  0
    6.2015   -0.0810   -0.2096 C   0  0  0  0  0  0  0  0  0  0  0  0
    6.9184   -1.1860    0.2560 C   0  0  0  0  0  0  0  0  0  0  0  0
    6.2455   -2.2855    0.7711 C   0  0  0  0  0  0  0  0  0  0  0  0
    4.8524   -2.2799    0.8205 C   0  0  0  0  0  0  0  0  0  0  0  0
    4.1083   -1.1763    0.3564 C   0  0  0  0  0  0  0  0  0  0  0  0
    2.6077   -1.2986    0.4669 C   0  0  0  0  0  0  0  0  0  0  0  0
    2.1392   -2.3289    0.9440 O   0  0  0  0  0  0  0  0  0  0  0  0
    1.8632   -0.2272    0.0152 N   0  0  0  0  0  0  0  0  0  0  0  0
    0.4634   -0.0780    0.0029 C   0  0  0  0  0  0  0  0  0  0  0  0
   -0.0460    1.1150   -0.5193 C   0  0  0  0  0  0  0  0  0  0  0  0
   -1.4260    1.3425   -0.5684 C   0  0  0  0  0  0  0  0  0  0  0  0
   -2.3263    0.3785   -0.0970 C   0  0  0  0  0  0  0  0  0  0  0  0
   -3.7988    0.6660   -0.1739 C   0  0  0  0  0  0  0  0  0  0  0  0
   -4.1863    1.8800   -0.4442 N   0  0  0  0  0  0  0  0  0  0  0  0
   -5.5199    2.1296   -0.5463 N   0  0  0  0  0  0  0  0  0  0  0  0
   -6.5057    1.1898   -0.7039 C   0  0  0  0  0  0  0  0  0  0  0  0
   -7.6862    1.4996   -0.8407 O   0  0  0  0  0  0  0  0  0  0  0  0
   -6.0291   -0.2334   -0.7749 C   0  0  0  0  0  0  0  0  0  0  0  0
   -4.8015   -0.4490    0.0991 C   0  0  0  0  0  0  0  0  0  0  0  0
   -5.1630   -0.4736    1.5855 C   0  0  0  0  0  0  0  0  0  0  0  0
   -1.8160   -0.8115    0.4294 C   0  0  0  0  0  0  0  0  0  0  0  0
   -0.4320   -1.0361    0.4770 C   0  0  0  0  0  0  0  0  0  0  0  0
    3.9964    2.8775   -1.4263 H   0  0  0  0  0  0  0  0  0  0  0  0
    5.3231    1.8734   -2.0214 H   0  0  0  0  0  0  0  0  0  0  0  0
    5.3791    2.5954   -0.3627 H   0  0  0  0  0  0  0  0  0  0  0  0
    6.7778    0.7508   -0.6024 H   0  0  0  0  0  0  0  0  0  0  0  0
    8.0053   -1.1856    0.2151 H   0  0  0  0  0  0  0  0  0  0  0  0
    6.7988   -3.1479    1.1348 H   0  0  0  0  0  0  0  0  0  0  0  0
    4.3424   -3.1520    1.2281 H   0  0  0  0  0  0  0  0  0  0  0  0
    2.3994    0.5508   -0.3558 H   0  0  0  0  0  0  0  0  0  0  0  0
    0.6211    1.8863   -0.8960 H   0  0  0  0  0  0  0  0  0  0  0  0
   -1.7878    2.2816   -0.9824 H   0  0  0  0  0  0  0  0  0  0  0  0
   -5.7973    3.1044   -0.6036 H   0  0  0  0  0  0  0  0  0  0  0  0
   -5.7905   -0.4428   -1.8246 H   0  0  0  0  0  0  0  0  0  0  0  0
   -6.8432   -0.9008   -0.4720 H   0  0  0  0  0  0  0  0  0  0  0  0
   -4.3752   -1.4184   -0.1781 H   0  0  0  0  0  0  0  0  0  0  0  0
   -4.2779   -0.6514    2.2048 H   0  0  0  0  0  0  0  0  0  0  0  0
   -5.5996    0.4750    1.9158 H   0  0  0  0  0  0  0  0  0  0  0  0
   -5.8840   -1.2704    1.7957 H   0  0  0  0  0  0  0  0  0  0  0  0
   -2.4603   -1.5892    0.8263 H   0  0  0  0  0  0  0  0  0  0  0  0
   -0.0865   -1.9757    0.8975 H   0  0  0  0  0  0  0  0  0  0  0  0
  1  2  1  0
  2  3  1  0
  3  4  2  0
  4  5  1  0
  5  6  2  0
  6  7  1  0
  7  8  2  0
  8  9  1  0
  9 10  2  0
  9 11  1  0
 11 12  1  0
 12 13  2  0
 13 14  1  0
 14 15  2  0
 15 16  1  0
 16 17  2  0
 17 18  1  0
 18 19  1  0
 19 20  2  0
 19 21  1  0
 21 22  1  0
 22 23  1  0
 15 24  1  0
 24 25  2  0
  8  3  1  0
 25 12  1  0
 22 16  1  0
  1 26  1  0
  1 27  1  0
  1 28  1  0
  4 29  1  0
  5 30  1  0
  6 31  1  0
  7 32  1  0
 11 33  1  0
 13 34  1  0
 14 35  1  0
 18 36  1  0
 21 37  1  0
 21 38  1  0
 22 39  1  0
 23 40  1  0
 23 41  1  0
 23 42  1  0
 24 43  1  0
 25 44  1  0
M  END
$$$$
