
     RDKit          3D

 57 60  0  0  0  0  0  0  0  0999 V2000
    3.6222    1.6110   -1.9572 O   0  0  0  0  0  0  0  0  0  0  0  0
    3.4080    0.2011   -1.7215 S   0  0  0  0  0  6  0  0  0  0  0  0
    3.1186   -0.7187   -2.7987 O   0  0  0  0  0  0  0  0  0  0  0  0
    4.7400   -0.4139   -0.9153 N   0  0  0  0  0  0  0  0  0  0  0  0
    5.4461    0.4110    0.0590 C   0  0  0  0  0  0  0  0  0  0  0  0
    6.1905   -0.4697    1.0546 C   0  0  0  0  0  0  0  0  0  0  0  0
    7.2116    0.4835    1.6543 C   0  0  0  0  0  0  0  0  0  0  0  0
    7.6242    1.3964    0.5020 C   0  0  0  0  0  0  0  0  0  0  0  0
    6.5648    1.2208   -0.5879 C   0  0  0  0  0  0  0  0  0  0  0  0
    2.1258    0.0122   -0.5067 C   0  0  0  0  0  0  0  0  0  0  0  0
    1.6277   -1.2669   -0.2344 C   0  0  0  0  0  0  0  0  0  0  0  0
    0.6147   -1.4238    0.7125 C   0  0  0  0  0  0  0  0  0  0  0  0
    0.0923   -0.2973    1.3598 C   0  0  0  0  0  0  0  0  0  0  0  0
   -1.1765   -0.4995    2.5981 S   0  0  0  0  0  6  0  0  0  0  0  0
   -1.0759    0.6268    3.5019 O   0  0  0  0  0  0  0  0  0  0  0  0
   -1.0885   -1.8605    3.0839 O   0  0  0  0  0  0  0  0  0  0  0  0
   -2.6125   -0.3454    1.7229 N   0  0  0  0  0  0  0  0  0  0  0  0
   -2.9922   -1.4458    0.7857 C   0  0  0  0  0  0  0  0  0  0  0  0
   -3.1398   -0.9440   -0.6603 C   0  0  0  0  0  0  0  0  0  0  0  0
   -4.1490    0.1290   -0.7736 N   0  0  0  0  0  0  0  0  0  0  0  0
   -5.3871   -0.1509   -1.3702 C   0  0  0  0  0  0  0  0  0  0  0  0
   -5.9606   -1.4293   -1.4074 C   0  0  0  0  0  0  0  0  0  0  0  0
   -7.2079   -1.6505   -2.0045 C   0  0  0  0  0  0  0  0  0  0  0  0
   -7.9063   -0.5942   -2.5805 C   0  0  0  0  0  0  0  0  0  0  0  0
   -7.3593    0.6835   -2.5570 C   0  0  0  0  0  0  0  0  0  0  0  0
   -6.1150    0.8985   -1.9567 C   0  0  0  0  0  0  0  0  0  0  0  0
   -4.2839    0.9953    0.4262 C   0  0  0  0  0  0  0  0  0  0  0  0
   -2.9857    1.0217    1.2539 C   0  0  0  0  0  0  0  0  0  0  0  0
    0.6046    0.9795    1.0984 C   0  0  0  0  0  0  0  0  0  0  0  0
    1.6169    1.1371    0.1508 C   0  0  0  0  0  0  0  0  0  0  0  0
    5.2534   -1.1162   -1.4459 H   0  0  0  0  0  0  0  0  0  0  0  0
    4.7562    1.0676    0.6017 H   0  0  0  0  0  0  0  0  0  0  0  0
    5.5258   -0.8958    1.8122 H   0  0  0  0  0  0  0  0  0  0  0  0
    6.6996   -1.3010    0.5509 H   0  0  0  0  0  0  0  0  0  0  0  0
    8.0647   -0.0440    2.0919 H   0  0  0  0  0  0  0  0  0  0  0  0
    6.7451    1.0793    2.4483 H   0  0  0  0  0  0  0  0  0  0  0  0
    8.6126    1.1201    0.1173 H   0  0  0  0  0  0  0  0  0  0  0  0
    7.6825    2.4383    0.8367 H   0  0  0  0  0  0  0  0  0  0  0  0
    7.0013    0.6889   -1.4427 H   0  0  0  0  0  0  0  0  0  0  0  0
    6.2065    2.1864   -0.9591 H   0  0  0  0  0  0  0  0  0  0  0  0
    2.0319   -2.1372   -0.7480 H   0  0  0  0  0  0  0  0  0  0  0  0
    0.2466   -2.4211    0.9446 H   0  0  0  0  0  0  0  0  0  0  0  0
   -2.2611   -2.2585    0.8089 H   0  0  0  0  0  0  0  0  0  0  0  0
   -3.9409   -1.8651    1.1403 H   0  0  0  0  0  0  0  0  0  0  0  0
   -3.3355   -1.7800   -1.3411 H   0  0  0  0  0  0  0  0  0  0  0  0
   -2.1807   -0.5227   -0.9878 H   0  0  0  0  0  0  0  0  0  0  0  0
   -5.4668   -2.2793   -0.9484 H   0  0  0  0  0  0  0  0  0  0  0  0
   -7.6326   -2.6507   -2.0140 H   0  0  0  0  0  0  0  0  0  0  0  0
   -8.8730   -0.7663   -3.0457 H   0  0  0  0  0  0  0  0  0  0  0  0
   -7.8935    1.5149   -3.0094 H   0  0  0  0  0  0  0  0  0  0  0  0
   -5.6972    1.9021   -1.9699 H   0  0  0  0  0  0  0  0  0  0  0  0
   -5.1001    0.6305    1.0651 H   0  0  0  0  0  0  0  0  0  0  0  0
   -4.5232    2.0206    0.1208 H   0  0  0  0  0  0  0  0  0  0  0  0
   -2.1810    1.4415    0.6421 H   0  0  0  0  0  0  0  0  0  0  0  0
   -3.1377    1.6689    2.1242 H   0  0  0  0  0  0  0  0  0  0  0  0
    0.2231    1.8512    1.6272 H   0  0  0  0  0  0  0  0  0  0  0  0
    2.0063    2.1308   -0.0626 H   0  0  0  0  0  0  0  0  0  0  0  0
  1  2  2  0
  2  3  2  0
  2  4  1  0
  4  5  1  0
  5  6  1  0
  6  7  1  0
  7  8  1  0
  8  9  1  0
  2 10  1  0
 10 11  2  0
 11 12  1  0
 12 13  2  0
 13 14  1  0
 14 15  2  0
 14 16  2  0
 14 17  1  0
 17 18  1  0
 18 19  1  0
 19 20  1  0
 20 21  1  0
 21 22  2  0
 22 23  1  0
 23 24  2  0
 24 25  1  0
 25 26  2  0
 20 27  1  0
 27 28  1  0
 13 29  1  0
 29 30  2  0
  9  5  1  0
 30 10  1  0
 28 17  1  0
 26 21  1  0
  4 31  1  0
  5 32  1  0
  6 33  1  0
  6 34  1  0
  7 35  1  0
  7 36  1  0
  8 37  1  0
  8 38  1  0
  9 39  1  0
  9 40  1  0
 11 41  1  0
 12 42  1  0
 18 43  1  0
 18 44  1  0
 19 45  1  0
 19 46  1  0
 22 47  1  0
 23 48  1  0
 24 49  1  0
 25 50  1  0
 26 51  1  0
 27 52  1  0
 27 53  1  0
 28 54  1  0
 28 55  1  0
 29 56  1  0
 30 57  1  0
M  END
$$$$
