
     RDKit          3D

 62 65  0  0  0  0  0  0  0  0999 V2000
    3.2493   -0.8847   -5.2758 C   0  0  0  0  0  0  0  0  0  0  0  0
    2.5013   -0.5633   -4.1077 O   0  0  0  0  0  0  0  0  0  0  0  0
    3.1961   -0.5054   -2.9205 C   0  0  0  0  0  0  0  0  0  0  0  0
    4.5685   -0.7371   -2.7839 C   0  0  0  0  0  0  0  0  0  0  0  0
    5.1719   -0.6592   -1.5263 C   0  0  0  0  0  0  0  0  0  0  0  0
    4.4016   -0.3371   -0.4079 C   0  0  0  0  0  0  0  0  0  0  0  0
    5.1864   -0.1516    1.1746 S   0  0  0  0  0  6  0  0  0  0  0  0
    6.5973    0.0637    0.9260 O   0  0  0  0  0  0  0  0  0  0  0  0
    4.4298    0.8105    1.9461 O   0  0  0  0  0  0  0  0  0  0  0  0
    5.0208   -1.6886    1.8884 N   0  0  0  0  0  0  0  0  0  0  0  0
    3.6379   -2.1633    2.2193 C   0  0  0  0  0  0  0  0  0  0  0  0
    3.1322   -1.5868    3.5482 C   0  0  0  0  0  0  0  0  0  0  0  0
    4.0400   -1.8786    4.6198 O   0  0  0  0  0  0  0  0  0  0  0  0
    5.3360   -1.3269    4.3455 C   0  0  0  0  0  0  0  0  0  0  0  0
    5.9239   -1.9242    3.0628 C   0  0  0  0  0  0  0  0  0  0  0  0
    3.0345   -0.0817   -0.5340 C   0  0  0  0  0  0  0  0  0  0  0  0
    2.4201   -0.2055   -1.7800 C   0  0  0  0  0  0  0  0  0  0  0  0
    1.0284   -0.0410   -1.9696 N   0  0  0  0  0  0  0  0  0  0  0  0
    0.0461   -0.0890   -0.9933 C   0  0  0  0  0  0  0  0  0  0  0  0
    0.2345   -0.3100    0.2012 O   0  0  0  0  0  0  0  0  0  0  0  0
   -1.3584    0.1065   -1.5768 C   0  0  0  0  0  0  0  0  0  0  0  0
   -2.3847   -0.0760   -0.6037 O   0  0  0  0  0  0  0  0  0  0  0  0
   -2.6269    1.0192    0.1653 C   0  0  0  0  0  0  0  0  0  0  0  0
   -2.1079    2.1189    0.0151 O   0  0  0  0  0  0  0  0  0  0  0  0
   -3.6323    0.6999    1.2430 C   0  0  0  0  0  0  0  0  0  0  0  0
   -5.1037    0.9330    0.8945 C   0  0  0  0  0  0  0  0  0  0  0  0
   -5.6740    0.0032   -0.1972 C   0  0  0  0  0  0  0  0  0  0  0  0
   -6.3889    0.9827   -1.1458 C   0  0  0  0  0  0  0  0  0  0  0  0
   -7.6014    1.6002   -0.4274 C   0  0  0  0  0  0  0  0  0  0  0  0
   -6.9565    2.5752    0.5707 C   0  0  0  0  0  0  0  0  0  0  0  0
   -5.4469    2.3411    0.3497 C   0  0  0  0  0  0  0  0  0  0  0  0
   -5.4107    2.1542   -1.1689 C   0  0  0  0  0  0  0  0  0  0  0  0
    4.0468   -0.1535   -5.4538 H   0  0  0  0  0  0  0  0  0  0  0  0
    2.5623   -0.8486   -6.1291 H   0  0  0  0  0  0  0  0  0  0  0  0
    3.6429   -1.9081   -5.2067 H   0  0  0  0  0  0  0  0  0  0  0  0
    5.1986   -0.9818   -3.6307 H   0  0  0  0  0  0  0  0  0  0  0  0
    6.2417   -0.8366   -1.4267 H   0  0  0  0  0  0  0  0  0  0  0  0
    3.6940   -3.2566    2.2985 H   0  0  0  0  0  0  0  0  0  0  0  0
    2.9369   -1.9537    1.4117 H   0  0  0  0  0  0  0  0  0  0  0  0
    2.9705   -0.5046    3.4981 H   0  0  0  0  0  0  0  0  0  0  0  0
    2.1719   -2.0464    3.8051 H   0  0  0  0  0  0  0  0  0  0  0  0
    5.2633   -0.2340    4.2950 H   0  0  0  0  0  0  0  0  0  0  0  0
    5.9789   -1.5763    5.1947 H   0  0  0  0  0  0  0  0  0  0  0  0
    6.9237   -1.5289    2.8724 H   0  0  0  0  0  0  0  0  0  0  0  0
    6.0320   -3.0080    3.1775 H   0  0  0  0  0  0  0  0  0  0  0  0
    2.4692    0.2183    0.3427 H   0  0  0  0  0  0  0  0  0  0  0  0
    0.7442   -0.0779   -2.9441 H   0  0  0  0  0  0  0  0  0  0  0  0
   -1.5143   -0.6474   -2.3595 H   0  0  0  0  0  0  0  0  0  0  0  0
   -1.4290    1.0921   -2.0554 H   0  0  0  0  0  0  0  0  0  0  0  0
   -3.3631    1.3154    2.1108 H   0  0  0  0  0  0  0  0  0  0  0  0
   -3.4779   -0.3379    1.5655 H   0  0  0  0  0  0  0  0  0  0  0  0
   -5.6623    0.7624    1.8252 H   0  0  0  0  0  0  0  0  0  0  0  0
   -4.8906   -0.5429   -0.7305 H   0  0  0  0  0  0  0  0  0  0  0  0
   -6.3647   -0.7333    0.2245 H   0  0  0  0  0  0  0  0  0  0  0  0
   -6.6324    0.5489   -2.1172 H   0  0  0  0  0  0  0  0  0  0  0  0
   -8.2321    2.1515   -1.1321 H   0  0  0  0  0  0  0  0  0  0  0  0
   -8.2184    0.8472    0.0705 H   0  0  0  0  0  0  0  0  0  0  0  0
   -7.2337    3.6058    0.3220 H   0  0  0  0  0  0  0  0  0  0  0  0
   -7.2777    2.3817    1.5990 H   0  0  0  0  0  0  0  0  0  0  0  0
   -4.8223    3.1447    0.7472 H   0  0  0  0  0  0  0  0  0  0  0  0
   -4.4289    1.8871   -1.5696 H   0  0  0  0  0  0  0  0  0  0  0  0
   -5.7936    3.0230   -1.7149 H   0  0  0  0  0  0  0  0  0  0  0  0
  1  2  1  0
  2  3  1  0
  3  4  2  0
  4  5  1  0
  5  6  2  0
  6  7  1  0
  7  8  2  0
  7  9  2  0
  7 10  1  0
 10 11  1  0
 11 12  1  0
 12 13  1  0
 13 14  1  0
 14 15  1  0
  6 16  1  0
 16 17  2  0
 17 18  1  0
 18 19  1  0
 19 20  2  0
 19 21  1  0
 21 22  1  0
 22 23  1  0
 23 24  2  0
 23 25  1  0
 25 26  1  0
 26 27  1  0
 27 28  1  0
 28 29  1  0
 29 30  1  0
 30 31  1  0
 31 32  1  0
 17  3  1  0
 31 26  1  0
 15 10  1  0
 32 28  1  0
  1 33  1  0
  1 34  1  0
  1 35  1  0
  4 36  1  0
  5 37  1  0
 11 38  1  0
 11 39  1  0
 12 40  1  0
 12 41  1  0
 14 42  1  0
 14 43  1  0
 15 44  1  0
 15 45  1  0
 16 46  1  0
 18 47  1  0
 21 48  1  0
 21 49  1  0
 25 50  1  0
 25 51  1  0
 26 52  1  0
 27 53  1  0
 27 54  1  0
 28 55  1  0
 29 56  1  0
 29 57  1  0
 30 58  1  0
 30 59  1  0
 31 60  1  0
 32 61  1  0
 32 62  1  0
M  END
$$$$
