
     RDKit          3D

 30 31  0  0  0  0  0  0  0  0999 V2000
    0.8178   -1.4330    0.8679 O   0  0  0  0  0  0  0  0  0  0  0  0
    1.3506   -1.0231   -0.1615 C   0  0  0  0  0  0  0  0  0  0  0  0
    2.8630   -1.0746   -0.3485 C   0  0  0  0  0  0  0  0  0  0  0  0
    3.5926    0.0215    0.3690 C   0  0  0  0  0  0  0  0  0  0  0  0
    3.0908    0.9647    1.1832 C   0  0  0  0  0  0  0  0  0  0  0  0
    4.2531    1.7635    1.6167 C   0  0  0  0  0  0  0  0  0  0  0  0
    4.2005    2.8015    2.2481 O   0  0  0  0  0  0  0  0  0  0  0  0
    5.3806    1.1248    1.1289 N   0  0  0  0  0  0  0  0  0  0  0  0
    4.9748    0.1376    0.2244 N   0  0  0  0  0  0  0  0  0  0  0  0
    0.6884   -0.4462   -1.2456 N   0  0  0  0  0  0  0  0  0  0  0  0
   -0.6768   -0.4141   -1.3815 N   0  0  0  0  0  0  0  0  0  0  0  0
   -1.3752   -0.1079   -0.3294 C   0  0  0  0  0  0  0  0  0  0  0  0
   -2.8585   -0.1045   -0.3616 C   0  0  0  0  0  0  0  0  0  0  0  0
   -3.4980   -0.5613   -1.5270 C   0  0  0  0  0  0  0  0  0  0  0  0
   -4.8889   -0.5869   -1.6098 C   0  0  0  0  0  0  0  0  0  0  0  0
   -5.6522   -0.1563   -0.5287 C   0  0  0  0  0  0  0  0  0  0  0  0
   -5.0272    0.3017    0.6366 C   0  0  0  0  0  0  0  0  0  0  0  0
   -6.0613    0.8199    1.9257 Cl  0  0  0  0  0  0  0  0  0  0  0  0
   -3.6248    0.3326    0.7323 C   0  0  0  0  0  0  0  0  0  0  0  0
   -2.8703    0.9186    2.1819 Cl  0  0  0  0  0  0  0  0  0  0  0  0
    3.1044   -1.0360   -1.4173 H   0  0  0  0  0  0  0  0  0  0  0  0
    3.2051   -2.0515    0.0138 H   0  0  0  0  0  0  0  0  0  0  0  0
    2.0817    1.1585    1.4968 H   0  0  0  0  0  0  0  0  0  0  0  0
    6.2125    1.6761    0.9486 H   0  0  0  0  0  0  0  0  0  0  0  0
    5.4552   -0.7576    0.3549 H   0  0  0  0  0  0  0  0  0  0  0  0
    1.1743   -0.4272   -2.1377 H   0  0  0  0  0  0  0  0  0  0  0  0
   -0.8861    0.1871    0.6123 H   0  0  0  0  0  0  0  0  0  0  0  0
   -2.9135   -0.9051   -2.3790 H   0  0  0  0  0  0  0  0  0  0  0  0
   -5.3746   -0.9437   -2.5154 H   0  0  0  0  0  0  0  0  0  0  0  0
   -6.7379   -0.1788   -0.5981 H   0  0  0  0  0  0  0  0  0  0  0  0
  1  2  2  0
  2  3  1  0
  3  4  1  0
  4  5  2  0
  5  6  1  0
  6  7  2  0
  6  8  1  0
  8  9  1  0
  2 10  1  0
 10 11  1  0
 11 12  2  3
 12 13  1  0
 13 14  2  0
 14 15  1  0
 15 16  2  0
 16 17  1  0
 17 18  1  0
 17 19  2  0
 19 20  1  0
  9  4  1  0
 19 13  1  0
  3 21  1  0
  3 22  1  0
  5 23  1  0
  8 24  1  0
  9 25  1  0
 10 26  1  0
 12 27  1  0
 14 28  1  0
 15 29  1  0
 16 30  1  0
M  END
$$$$
