
     RDKit          3D

 35 36  0  0  0  0  0  0  0  0999 V2000
    2.5541   -2.5002   -0.5635 O   0  0  0  0  0  0  0  0  0  0  0  0
    2.5986   -1.3598   -0.1162 C   0  0  0  0  0  0  0  0  0  0  0  0
    1.5075   -0.5115   -0.0798 N   0  0  0  0  0  0  0  0  0  0  0  0
    0.2558   -0.9080   -0.6980 C   0  0  0  0  0  0  0  0  0  0  0  0
   -0.9112   -0.1020   -0.1442 C   0  0  0  0  0  0  0  0  0  0  0  0
   -2.2218   -0.5124   -0.8109 C   0  0  0  0  0  0  0  0  0  0  0  0
   -3.3513    0.2632   -0.3306 N   0  0  0  0  0  0  0  0  0  0  0  0
   -3.9936   -0.0058    0.9307 C   0  0  0  0  0  0  0  0  0  0  0  0
   -5.1805    0.9366    0.9149 C   0  0  0  0  0  0  0  0  0  0  0  0
   -4.6710    2.1442    0.1362 C   0  0  0  0  0  0  0  0  0  0  0  0
   -3.6263    1.5504   -0.7780 C   0  0  0  0  0  0  0  0  0  0  0  0
   -3.0849    2.1295   -1.7051 O   0  0  0  0  0  0  0  0  0  0  0  0
    3.8814   -0.8161    0.3867 C   0  0  0  0  0  0  0  0  0  0  0  0
    5.0877   -1.3335   -0.0895 C   0  0  0  0  0  0  0  0  0  0  0  0
    6.2913   -0.8217    0.3904 C   0  0  0  0  0  0  0  0  0  0  0  0
    6.2446    0.1883    1.3387 C   0  0  0  0  0  0  0  0  0  0  0  0
    5.0959    0.7021    1.8327 N   0  0  0  0  0  0  0  0  0  0  0  0
    3.9399    0.1797    1.3525 C   0  0  0  0  0  0  0  0  0  0  0  0
    1.6858    0.4831   -0.0162 H   0  0  0  0  0  0  0  0  0  0  0  0
    0.0947   -1.9791   -0.5306 H   0  0  0  0  0  0  0  0  0  0  0  0
    0.3630   -0.7496   -1.7769 H   0  0  0  0  0  0  0  0  0  0  0  0
   -0.9790   -0.2473    0.9411 H   0  0  0  0  0  0  0  0  0  0  0  0
   -0.7297    0.9692   -0.2981 H   0  0  0  0  0  0  0  0  0  0  0  0
   -2.1444   -0.3550   -1.8931 H   0  0  0  0  0  0  0  0  0  0  0  0
   -2.4391   -1.5725   -0.6402 H   0  0  0  0  0  0  0  0  0  0  0  0
   -3.2997    0.2380    1.7419 H   0  0  0  0  0  0  0  0  0  0  0  0
   -4.2938   -1.0551    0.9953 H   0  0  0  0  0  0  0  0  0  0  0  0
   -5.5346    1.1932    1.9171 H   0  0  0  0  0  0  0  0  0  0  0  0
   -6.0143    0.4767    0.3697 H   0  0  0  0  0  0  0  0  0  0  0  0
   -5.4685    2.6221   -0.4374 H   0  0  0  0  0  0  0  0  0  0  0  0
   -4.1889    2.8708    0.7972 H   0  0  0  0  0  0  0  0  0  0  0  0
    5.0898   -2.1297   -0.8306 H   0  0  0  0  0  0  0  0  0  0  0  0
    7.2417   -1.2037    0.0341 H   0  0  0  0  0  0  0  0  0  0  0  0
    7.1567    0.6201    1.7417 H   0  0  0  0  0  0  0  0  0  0  0  0
    3.0443    0.5955    1.8038 H   0  0  0  0  0  0  0  0  0  0  0  0
  1  2  2  0
  2  3  1  0
  3  4  1  0
  4  5  1  0
  5  6  1  0
  6  7  1  0
  7  8  1  0
  8  9  1  0
  9 10  1  0
 10 11  1  0
 11 12  2  0
  2 13  1  0
 13 14  2  0
 14 15  1  0
 15 16  2  0
 16 17  1  0
 17 18  2  0
 11  7  1  0
 18 13  1  0
  3 19  1  0
  4 20  1  0
  4 21  1  0
  5 22  1  0
  5 23  1  0
  6 24  1  0
  6 25  1  0
  8 26  1  0
  8 27  1  0
  9 28  1  0
  9 29  1  0
 10 30  1  0
 10 31  1  0
 14 32  1  0
 15 33  1  0
 16 34  1  0
 18 35  1  0
M  END
$$$$
