
     RDKit          3D

 50 53  0  0  0  0  0  0  0  0999 V2000
  -10.1727    1.0501   -0.2455 C   0  0  0  0  0  0  0  0  0  0  0  0
   -8.7608    0.6252   -0.5319 C   0  0  0  0  0  0  0  0  0  0  0  0
   -8.4396    0.0466   -1.7622 C   0  0  0  0  0  0  0  0  0  0  0  0
   -7.1234   -0.3274   -2.0580 C   0  0  0  0  0  0  0  0  0  0  0  0
   -6.1033   -0.1107   -1.1115 C   0  0  0  0  0  0  0  0  0  0  0  0
   -4.7657   -0.4281   -1.2716 N   0  0  0  0  0  0  0  0  0  0  0  0
   -4.0756   -0.0982   -0.1961 C   0  0  0  0  0  0  0  0  0  0  0  0
   -2.6175   -0.3063   -0.0679 C   0  0  0  0  0  0  0  0  0  0  0  0
   -1.9077   -0.1340    1.1291 C   0  0  0  0  0  0  0  0  0  0  0  0
   -0.5209   -0.3448    1.1915 C   0  0  0  0  0  0  0  0  0  0  0  0
    0.1916   -0.7352    0.0592 C   0  0  0  0  0  0  0  0  0  0  0  0
    1.5833   -0.9615    0.0368 N   0  0  0  0  0  0  0  0  0  0  0  0
    2.4707   -0.8583    1.0942 C   0  0  0  0  0  0  0  0  0  0  0  0
    2.2033   -0.5510    2.2496 O   0  0  0  0  0  0  0  0  0  0  0  0
    3.8919   -1.1538    0.6617 C   0  0  0  0  0  0  0  0  0  0  0  0
    4.8335   -1.1757    1.8539 C   0  0  0  0  0  0  0  0  0  0  0  0
    6.5206   -1.4623    1.3784 S   0  0  0  0  0  6  0  0  0  0  0  0
    6.5366   -2.5677    0.4377 O   0  0  0  0  0  0  0  0  0  0  0  0
    7.3324   -1.5019    2.5795 O   0  0  0  0  0  0  0  0  0  0  0  0
    6.9852    0.0082    0.4944 C   0  0  0  0  0  0  0  0  0  0  0  0
    7.1902   -0.0418   -0.8868 C   0  0  0  0  0  0  0  0  0  0  0  0
    7.5485    1.1216   -1.5672 C   0  0  0  0  0  0  0  0  0  0  0  0
    7.7073    2.3196   -0.8685 C   0  0  0  0  0  0  0  0  0  0  0  0
    7.5178    2.3589    0.5139 C   0  0  0  0  0  0  0  0  0  0  0  0
    7.1606    1.2003    1.2027 C   0  0  0  0  0  0  0  0  0  0  0  0
   -0.5051   -0.9157   -1.1387 C   0  0  0  0  0  0  0  0  0  0  0  0
   -1.8885   -0.7055   -1.1990 C   0  0  0  0  0  0  0  0  0  0  0  0
   -5.0101    0.6291    1.0554 S   0  0  0  0  0  0  0  0  0  0  0  0
   -6.4340    0.4796    0.1058 C   0  0  0  0  0  0  0  0  0  0  0  0
   -7.7514    0.8609    0.4151 C   0  0  0  0  0  0  0  0  0  0  0  0
  -10.8875    0.3682   -0.7183 H   0  0  0  0  0  0  0  0  0  0  0  0
  -10.3426    2.0625   -0.6253 H   0  0  0  0  0  0  0  0  0  0  0  0
  -10.3754    1.0375    0.8306 H   0  0  0  0  0  0  0  0  0  0  0  0
   -9.2136   -0.1219   -2.5085 H   0  0  0  0  0  0  0  0  0  0  0  0
   -6.8791   -0.7822   -3.0130 H   0  0  0  0  0  0  0  0  0  0  0  0
   -2.4095    0.1628    2.0471 H   0  0  0  0  0  0  0  0  0  0  0  0
   -0.0330   -0.1926    2.1495 H   0  0  0  0  0  0  0  0  0  0  0  0
    1.9670   -1.2400   -0.8583 H   0  0  0  0  0  0  0  0  0  0  0  0
    4.1916   -0.3832   -0.0567 H   0  0  0  0  0  0  0  0  0  0  0  0
    3.9086   -2.1219    0.1474 H   0  0  0  0  0  0  0  0  0  0  0  0
    4.8007   -0.2414    2.4239 H   0  0  0  0  0  0  0  0  0  0  0  0
    4.5621   -1.9877    2.5384 H   0  0  0  0  0  0  0  0  0  0  0  0
    7.0829   -0.9739   -1.4368 H   0  0  0  0  0  0  0  0  0  0  0  0
    7.7142    1.0948   -2.6417 H   0  0  0  0  0  0  0  0  0  0  0  0
    7.9929    3.2239   -1.4016 H   0  0  0  0  0  0  0  0  0  0  0  0
    7.6591    3.2922    1.0544 H   0  0  0  0  0  0  0  0  0  0  0  0
    7.0347    1.2331    2.2827 H   0  0  0  0  0  0  0  0  0  0  0  0
    0.0087   -1.2209   -2.0462 H   0  0  0  0  0  0  0  0  0  0  0  0
   -2.4012   -0.8567   -2.1486 H   0  0  0  0  0  0  0  0  0  0  0  0
   -7.9777    1.3272    1.3701 H   0  0  0  0  0  0  0  0  0  0  0  0
  1  2  1  0
  2  3  2  0
  3  4  1  0
  4  5  2  0
  5  6  1  0
  6  7  2  0
  7  8  1  0
  8  9  2  0
  9 10  1  0
 10 11  2  0
 11 12  1  0
 12 13  1  0
 13 14  2  0
 13 15  1  0
 15 16  1  0
 16 17  1  0
 17 18  2  0
 17 19  2  0
 17 20  1  0
 20 21  2  0
 21 22  1  0
 22 23  2  0
 23 24  1  0
 24 25  2  0
 11 26  1  0
 26 27  2  0
  7 28  1  0
 28 29  1  0
 29 30  2  0
 30  2  1  0
 29  5  1  0
 27  8  1  0
 25 20  1  0
  1 31  1  0
  1 32  1  0
  1 33  1  0
  3 34  1  0
  4 35  1  0
  9 36  1  0
 10 37  1  0
 12 38  1  0
 15 39  1  0
 15 40  1  0
 16 41  1  0
 16 42  1  0
 21 43  1  0
 22 44  1  0
 23 45  1  0
 24 46  1  0
 25 47  1  0
 26 48  1  0
 27 49  1  0
 30 50  1  0
M  END
$$$$
