
     RDKit          3D

 63 66  0  0  0  0  0  0  0  0999 V2000
    7.2584    4.2891   -0.5636 C   0  0  0  0  0  0  0  0  0  0  0  0
    7.7154    2.9549   -0.7419 O   0  0  0  0  0  0  0  0  0  0  0  0
    6.8262    1.9407   -0.5054 C   0  0  0  0  0  0  0  0  0  0  0  0
    5.4608    2.1235   -0.2761 C   0  0  0  0  0  0  0  0  0  0  0  0
    4.6266    1.0213   -0.0515 C   0  0  0  0  0  0  0  0  0  0  0  0
    5.1370   -0.2818   -0.0467 C   0  0  0  0  0  0  0  0  0  0  0  0
    4.2218   -1.3258    0.1952 N   0  0  0  0  0  0  0  0  0  0  0  0
    4.4894   -2.6750    0.3023 C   0  0  0  0  0  0  0  0  0  0  0  0
    5.5832   -3.2197    0.2160 O   0  0  0  0  0  0  0  0  0  0  0  0
    3.2889   -3.4852    0.5620 C   0  0  0  0  0  0  0  0  0  0  0  0
    3.2361   -4.8096    0.7837 C   0  0  0  0  0  0  0  0  0  0  0  0
    1.9618   -5.2955    1.0012 N   0  0  0  0  0  0  0  0  0  0  0  0
    1.1466   -4.1683    1.0175 N   0  0  0  0  0  0  0  0  0  0  0  0
   -0.1797   -4.1517    1.3487 C   0  0  0  0  0  0  0  0  0  0  0  0
   -0.8543   -5.1010    1.7268 O   0  0  0  0  0  0  0  0  0  0  0  0
   -0.7552   -2.7891    1.2336 C   0  0  0  0  0  0  0  0  0  0  0  0
    0.0326   -1.7438    0.9050 C   0  0  0  0  0  0  0  0  0  0  0  0
   -0.4981   -0.3159    0.7556 C   0  0  0  0  0  0  0  0  0  0  0  0
   -0.6994   -0.0004   -0.7398 C   0  0  0  0  0  0  0  0  0  0  0  0
   -1.6492    1.1715   -0.9448 C   0  0  0  0  0  0  0  0  0  0  0  0
   -2.9610    0.8929   -0.3761 N   0  0  0  0  0  0  0  0  0  0  0  0
   -4.0878    1.4184   -0.9878 C   0  0  0  0  0  0  0  0  0  0  0  0
   -4.0445    2.1652   -1.9570 O   0  0  0  0  0  0  0  0  0  0  0  0
   -5.2321    0.9997   -0.3885 O   0  0  0  0  0  0  0  0  0  0  0  0
   -6.5317    1.4218   -0.8758 C   0  0  0  0  0  0  0  0  0  0  0  0
   -6.7833    0.9149   -2.2998 C   0  0  0  0  0  0  0  0  0  0  0  0
   -7.5362    0.7464    0.0700 C   0  0  0  0  0  0  0  0  0  0  0  0
   -6.7050    2.9409   -0.7685 C   0  0  0  0  0  0  0  0  0  0  0  0
   -3.0332    0.0268    0.7963 C   0  0  0  0  0  0  0  0  0  0  0  0
   -1.7380    0.0488    1.6017 C   0  0  0  0  0  0  0  0  0  0  0  0
    1.3990   -1.8512    0.6764 N   0  0  0  0  0  0  0  0  0  0  0  0
    1.8899   -3.0435    0.7339 C   0  0  0  0  0  0  0  0  0  0  0  0
    6.4982   -0.4694   -0.2799 C   0  0  0  0  0  0  0  0  0  0  0  0
    7.3333    0.6319   -0.5105 C   0  0  0  0  0  0  0  0  0  0  0  0
    9.0140    0.3253   -0.7968 Cl  0  0  0  0  0  0  0  0  0  0  0  0
    8.1094    4.9578   -0.7241 H   0  0  0  0  0  0  0  0  0  0  0  0
    6.8961    4.4485    0.4578 H   0  0  0  0  0  0  0  0  0  0  0  0
    6.4920    4.5462   -1.3023 H   0  0  0  0  0  0  0  0  0  0  0  0
    5.0080    3.1095   -0.2716 H   0  0  0  0  0  0  0  0  0  0  0  0
    3.5676    1.2012    0.1245 H   0  0  0  0  0  0  0  0  0  0  0  0
    3.2500   -1.0433    0.3207 H   0  0  0  0  0  0  0  0  0  0  0  0
    4.0742   -5.4954    0.8115 H   0  0  0  0  0  0  0  0  0  0  0  0
    1.8584   -5.9022    1.8168 H   0  0  0  0  0  0  0  0  0  0  0  0
   -1.8183   -2.7186    1.4156 H   0  0  0  0  0  0  0  0  0  0  0  0
    0.2999    0.3448    1.1283 H   0  0  0  0  0  0  0  0  0  0  0  0
   -1.1052   -0.8766   -1.2639 H   0  0  0  0  0  0  0  0  0  0  0  0
    0.2688    0.2217   -1.2053 H   0  0  0  0  0  0  0  0  0  0  0  0
   -1.7407    1.3936   -2.0131 H   0  0  0  0  0  0  0  0  0  0  0  0
   -1.2635    2.0726   -0.4542 H   0  0  0  0  0  0  0  0  0  0  0  0
   -6.1411    1.4145   -3.0312 H   0  0  0  0  0  0  0  0  0  0  0  0
   -7.8211    1.0850   -2.6060 H   0  0  0  0  0  0  0  0  0  0  0  0
   -6.5689   -0.1569   -2.3744 H   0  0  0  0  0  0  0  0  0  0  0  0
   -7.4172   -0.3430    0.0515 H   0  0  0  0  0  0  0  0  0  0  0  0
   -8.5707    0.9862   -0.1967 H   0  0  0  0  0  0  0  0  0  0  0  0
   -7.3649    1.0571    1.1071 H   0  0  0  0  0  0  0  0  0  0  0  0
   -7.7405    3.2383   -0.9665 H   0  0  0  0  0  0  0  0  0  0  0  0
   -6.4252    3.2957    0.2299 H   0  0  0  0  0  0  0  0  0  0  0  0
   -6.0705    3.4765   -1.4810 H   0  0  0  0  0  0  0  0  0  0  0  0
   -3.2549   -0.9848    0.4383 H   0  0  0  0  0  0  0  0  0  0  0  0
   -3.8650    0.3385    1.4371 H   0  0  0  0  0  0  0  0  0  0  0  0
   -1.8273   -0.5841    2.4919 H   0  0  0  0  0  0  0  0  0  0  0  0
   -1.5990    1.0711    1.9814 H   0  0  0  0  0  0  0  0  0  0  0  0
    6.9389   -1.4612   -0.2950 H   0  0  0  0  0  0  0  0  0  0  0  0
  1  2  1  0
  2  3  1  0
  3  4  2  0
  4  5  1  0
  5  6  2  0
  6  7  1  0
  7  8  1  0
  8  9  2  0
  8 10  1  0
 10 11  2  0
 11 12  1  0
 12 13  1  0
 13 14  1  0
 14 15  2  0
 14 16  1  0
 16 17  2  0
 17 18  1  0
 18 19  1  0
 19 20  1  0
 20 21  1  0
 21 22  1  0
 22 23  2  0
 22 24  1  0
 24 25  1  0
 25 26  1  0
 25 27  1  0
 25 28  1  0
 21 29  1  0
 29 30  1  0
 17 31  1  0
 31 32  2  0
  6 33  1  0
 33 34  2  0
 34 35  1  0
 34  3  1  0
 32 10  1  0
 32 13  1  0
 30 18  1  0
  1 36  1  0
  1 37  1  0
  1 38  1  0
  4 39  1  0
  5 40  1  0
  7 41  1  0
 11 42  1  0
 12 43  1  0
 16 44  1  0
 18 45  1  0
 19 46  1  0
 19 47  1  0
 20 48  1  0
 20 49  1  0
 26 50  1  0
 26 51  1  0
 26 52  1  0
 27 53  1  0
 27 54  1  0
 27 55  1  0
 28 56  1  0
 28 57  1  0
 28 58  1  0
 29 59  1  0
 29 60  1  0
 30 61  1  0
 30 62  1  0
 33 63  1  0
M  END
$$$$
