
     RDKit          3D

 45 48  0  0  0  0  0  0  0  0999 V2000
   -4.3303    2.3882   -1.8723 C   0  0  0  0  0  0  0  0  0  0  0  0
   -3.5252    1.1791   -1.3935 C   0  0  0  0  0  0  0  0  0  0  0  0
   -2.2671    1.0207   -2.2492 C   0  0  0  0  0  0  0  0  0  0  0  0
   -3.1893    1.3347    0.1005 C   0  0  0  0  0  0  0  0  0  0  0  0
   -2.5750    0.1383    0.6732 N   0  0  0  0  0  0  0  0  0  0  0  0
   -1.2059    0.1455    0.7653 N   0  0  0  0  0  0  0  0  0  0  0  0
   -0.6003   -0.8910    1.2707 C   0  0  0  0  0  0  0  0  0  0  0  0
    0.9235   -0.7838    1.3244 C   0  0  0  0  0  0  0  0  0  0  0  0
    1.5307   -1.2302    2.2813 O   0  0  0  0  0  0  0  0  0  0  0  0
    1.4102   -0.1329    0.2196 N   0  0  0  0  0  0  0  0  0  0  0  0
    2.7429    0.0733    0.0246 C   0  0  0  0  0  0  0  0  0  0  0  0
    3.7733   -0.3420    0.7196 N   0  0  0  0  0  0  0  0  0  0  0  0
    4.9678    0.0867    0.1650 N   0  0  0  0  0  0  0  0  0  0  0  0
    4.7674    0.8070   -0.9159 C   0  0  0  0  0  0  0  0  0  0  0  0
    5.9447    1.4099   -1.7419 C   0  0  0  0  0  0  0  0  0  0  0  0
    6.1352    2.9053   -1.7807 C   0  0  0  0  0  0  0  0  0  0  0  0
    7.0985    2.0496   -1.0115 C   0  0  0  0  0  0  0  0  0  0  0  0
    3.1251    1.0018   -1.3573 S   0  0  0  0  0  0  0  0  0  0  0  0
   -1.2999   -2.1051    1.7253 C   0  0  0  0  0  0  0  0  0  0  0  0
   -0.6479   -3.2444    2.2141 C   0  0  0  0  0  0  0  0  0  0  0  0
   -1.3888   -4.3603    2.6151 C   0  0  0  0  0  0  0  0  0  0  0  0
   -2.7788   -4.3497    2.5248 C   0  0  0  0  0  0  0  0  0  0  0  0
   -3.4312   -3.2226    2.0278 C   0  0  0  0  0  0  0  0  0  0  0  0
   -2.6887   -2.1030    1.6257 C   0  0  0  0  0  0  0  0  0  0  0  0
   -3.3823   -0.9237    1.0744 C   0  0  0  0  0  0  0  0  0  0  0  0
   -4.6071   -0.9288    0.9813 O   0  0  0  0  0  0  0  0  0  0  0  0
   -3.7570    3.3153   -1.7644 H   0  0  0  0  0  0  0  0  0  0  0  0
   -5.2556    2.4918   -1.2963 H   0  0  0  0  0  0  0  0  0  0  0  0
   -4.6050    2.2811   -2.9269 H   0  0  0  0  0  0  0  0  0  0  0  0
   -4.1441    0.2840   -1.5338 H   0  0  0  0  0  0  0  0  0  0  0  0
   -1.5833    1.8648   -2.1103 H   0  0  0  0  0  0  0  0  0  0  0  0
   -1.7291    0.1013   -1.9968 H   0  0  0  0  0  0  0  0  0  0  0  0
   -2.5251    0.9659   -3.3122 H   0  0  0  0  0  0  0  0  0  0  0  0
   -4.1073    1.5421    0.6644 H   0  0  0  0  0  0  0  0  0  0  0  0
   -2.5156    2.1854    0.2621 H   0  0  0  0  0  0  0  0  0  0  0  0
    0.7526    0.2910   -0.4221 H   0  0  0  0  0  0  0  0  0  0  0  0
    6.1827    0.8506   -2.6399 H   0  0  0  0  0  0  0  0  0  0  0  0
    6.4794    3.3478   -2.7086 H   0  0  0  0  0  0  0  0  0  0  0  0
    5.4596    3.5365   -1.2141 H   0  0  0  0  0  0  0  0  0  0  0  0
    8.0931    1.9052   -1.4165 H   0  0  0  0  0  0  0  0  0  0  0  0
    7.0660    2.0891    0.0724 H   0  0  0  0  0  0  0  0  0  0  0  0
    0.4345   -3.2970    2.3007 H   0  0  0  0  0  0  0  0  0  0  0  0
   -0.8764   -5.2396    3.0009 H   0  0  0  0  0  0  0  0  0  0  0  0
   -3.3537   -5.2186    2.8378 H   0  0  0  0  0  0  0  0  0  0  0  0
   -4.5171   -3.2191    1.9513 H   0  0  0  0  0  0  0  0  0  0  0  0
  1  2  1  0
  2  3  1  0
  2  4  1  0
  4  5  1  0
  5  6  1  0
  6  7  2  0
  7  8  1  0
  8  9  2  0
  8 10  1  0
 10 11  1  0
 11 12  2  0
 12 13  1  0
 13 14  2  0
 14 15  1  0
 15 16  1  0
 16 17  1  0
 14 18  1  0
  7 19  1  0
 19 20  2  0
 20 21  1  0
 21 22  2  0
 22 23  1  0
 23 24  2  0
 24 25  1  0
 25 26  2  0
 25  5  1  0
 18 11  1  0
 24 19  1  0
 17 15  1  0
  1 27  1  0
  1 28  1  0
  1 29  1  0
  2 30  1  0
  3 31  1  0
  3 32  1  0
  3 33  1  0
  4 34  1  0
  4 35  1  0
 10 36  1  0
 15 37  1  0
 16 38  1  0
 16 39  1  0
 17 40  1  0
 17 41  1  0
 20 42  1  0
 21 43  1  0
 22 44  1  0
 23 45  1  0
M  END
$$$$
