
     RDKit          3D

 47 50  0  0  0  0  0  0  0  0999 V2000
   -3.2822   -0.7693    1.5299 O   0  0  0  0  0  0  0  0  0  0  0  0
   -3.1518   -1.2048    0.4047 C   0  0  0  0  0  0  0  0  0  0  0  0
   -4.1310   -1.0097   -0.6611 C   0  0  0  0  0  0  0  0  0  0  0  0
   -5.3393   -0.3411   -0.6571 C   0  0  0  0  0  0  0  0  0  0  0  0
   -6.0604   -0.3177   -1.8543 C   0  0  0  0  0  0  0  0  0  0  0  0
   -5.5615   -0.9530   -3.0091 C   0  0  0  0  0  0  0  0  0  0  0  0
   -4.3334   -1.6207   -2.9877 C   0  0  0  0  0  0  0  0  0  0  0  0
   -3.6415   -1.6304   -1.7936 C   0  0  0  0  0  0  0  0  0  0  0  0
   -2.3472   -2.2163   -1.4528 C   0  0  0  0  0  0  0  0  0  0  0  0
   -1.6486   -2.8170   -2.2498 O   0  0  0  0  0  0  0  0  0  0  0  0
   -2.1257   -1.9240   -0.1394 N   0  0  0  0  0  0  0  0  0  0  0  0
   -0.9472   -2.3168    0.5970 C   0  0  0  0  0  0  0  0  0  0  0  0
   -0.0676   -1.2111    0.9788 N   0  0  0  0  0  0  0  0  0  0  0  0
    0.6785   -1.3787    2.1504 C   0  0  0  0  0  0  0  0  0  0  0  0
    0.4806   -2.3318    2.9141 O   0  0  0  0  0  0  0  0  0  0  0  0
    1.7755   -0.3658    2.4930 C   0  0  0  0  0  0  0  0  0  0  0  0
    2.7632   -0.3314    1.4700 O   0  0  0  0  0  0  0  0  0  0  0  0
    3.6836    0.6782    1.5309 C   0  0  0  0  0  0  0  0  0  0  0  0
    3.8630    1.5645    2.5933 C   0  0  0  0  0  0  0  0  0  0  0  0
    4.8451    2.5587    2.5215 C   0  0  0  0  0  0  0  0  0  0  0  0
    5.6570    2.6647    1.3920 C   0  0  0  0  0  0  0  0  0  0  0  0
    5.4888    1.7753    0.3343 C   0  0  0  0  0  0  0  0  0  0  0  0
    4.5042    0.7869    0.4060 C   0  0  0  0  0  0  0  0  0  0  0  0
    0.1841   -0.1854    0.0309 C   0  0  0  0  0  0  0  0  0  0  0  0
    0.5879   -0.4973   -1.2755 C   0  0  0  0  0  0  0  0  0  0  0  0
    0.8094    0.5194   -2.2066 C   0  0  0  0  0  0  0  0  0  0  0  0
    0.6089    1.8434   -1.8335 C   0  0  0  0  0  0  0  0  0  0  0  0
    0.8141    2.8201   -2.7292 F   0  0  0  0  0  0  0  0  0  0  0  0
    0.1814    2.1696   -0.5504 C   0  0  0  0  0  0  0  0  0  0  0  0
   -0.0324    1.1532    0.3840 C   0  0  0  0  0  0  0  0  0  0  0  0
   -5.7090    0.1459    0.2396 H   0  0  0  0  0  0  0  0  0  0  0  0
   -7.0187    0.1994   -1.8994 H   0  0  0  0  0  0  0  0  0  0  0  0
   -6.1390   -0.9200   -3.9292 H   0  0  0  0  0  0  0  0  0  0  0  0
   -3.9378   -2.1048   -3.8738 H   0  0  0  0  0  0  0  0  0  0  0  0
   -1.3054   -2.8241    1.4992 H   0  0  0  0  0  0  0  0  0  0  0  0
   -0.3585   -3.0415    0.0222 H   0  0  0  0  0  0  0  0  0  0  0  0
    1.3064    0.6083    2.6666 H   0  0  0  0  0  0  0  0  0  0  0  0
    2.2446   -0.6961    3.4293 H   0  0  0  0  0  0  0  0  0  0  0  0
    3.2629    1.5096    3.4959 H   0  0  0  0  0  0  0  0  0  0  0  0
    4.9812    3.2495    3.3515 H   0  0  0  0  0  0  0  0  0  0  0  0
    6.4226    3.4355    1.3404 H   0  0  0  0  0  0  0  0  0  0  0  0
    6.1210    1.8463   -0.5459 H   0  0  0  0  0  0  0  0  0  0  0  0
    4.3758    0.0932   -0.4215 H   0  0  0  0  0  0  0  0  0  0  0  0
    0.7633   -1.5250   -1.5757 H   0  0  0  0  0  0  0  0  0  0  0  0
    1.1289    0.2888   -3.2165 H   0  0  0  0  0  0  0  0  0  0  0  0
    0.0089    3.2061   -0.2903 H   0  0  0  0  0  0  0  0  0  0  0  0
   -0.4026    1.4170    1.3767 H   0  0  0  0  0  0  0  0  0  0  0  0
  1  2  2  0
  2  3  1  0
  3  4  2  0
  4  5  1  0
  5  6  2  0
  6  7  1  0
  7  8  2  0
  8  9  1  0
  9 10  2  0
  9 11  1  0
 11 12  1  0
 12 13  1  0
 13 14  1  0
 14 15  2  0
 14 16  1  0
 16 17  1  0
 17 18  1  0
 18 19  2  0
 19 20  1  0
 20 21  2  0
 21 22  1  0
 22 23  2  0
 13 24  1  0
 24 25  2  0
 25 26  1  0
 26 27  2  0
 27 28  1  0
 27 29  1  0
 29 30  2  0
 11  2  1  0
 23 18  1  0
 30 24  1  0
  8  3  1  0
  4 31  1  0
  5 32  1  0
  6 33  1  0
  7 34  1  0
 12 35  1  0
 12 36  1  0
 16 37  1  0
 16 38  1  0
 19 39  1  0
 20 40  1  0
 21 41  1  0
 22 42  1  0
 23 43  1  0
 25 44  1  0
 26 45  1  0
 29 46  1  0
 30 47  1  0
M  END
$$$$
