
     RDKit          3D

 42 44  0  0  0  0  0  0  0  0999 V2000
    1.9699    2.7902    2.0864 C   0  0  0  0  0  0  0  0  0  0  0  0
    2.2994    1.5006    1.5857 O   0  0  0  0  0  0  0  0  0  0  0  0
    1.2706    0.7165    1.1382 C   0  0  0  0  0  0  0  0  0  0  0  0
   -0.0816    1.0600    1.1994 C   0  0  0  0  0  0  0  0  0  0  0  0
   -1.0854    0.2046    0.7095 C   0  0  0  0  0  0  0  0  0  0  0  0
   -2.4099    0.6719    0.8262 N   0  0  0  0  0  0  0  0  0  0  0  0
   -3.3427   -0.2211    1.5397 C   0  0  0  0  0  0  0  0  0  0  0  0
   -4.5280   -0.4109    0.5958 C   0  0  0  0  0  0  0  0  0  0  0  0
   -4.5011    0.8492   -0.2492 C   0  0  0  0  0  0  0  0  0  0  0  0
   -3.0077    1.0643   -0.4611 C   0  0  0  0  0  0  0  0  0  0  0  0
   -0.7060   -1.0248    0.1261 C   0  0  0  0  0  0  0  0  0  0  0  0
   -1.7152   -1.8139   -0.3697 O   0  0  0  0  0  0  0  0  0  0  0  0
   -1.3449   -2.9417   -1.1513 C   0  0  0  0  0  0  0  0  0  0  0  0
    0.6488   -1.3757    0.0806 C   0  0  0  0  0  0  0  0  0  0  0  0
    1.6425   -0.5179    0.5861 C   0  0  0  0  0  0  0  0  0  0  0  0
    3.0959   -0.9233    0.4850 C   0  0  0  0  0  0  0  0  0  0  0  0
    3.7846   -0.2746   -0.6639 C   0  0  0  0  0  0  0  0  0  0  0  0
    4.6802    0.6661   -0.6369 N   0  0  0  0  0  0  0  0  0  0  0  0
    4.9819    0.9396   -1.9552 C   0  0  0  0  0  0  0  0  0  0  0  0
    6.0794    2.0507   -2.5253 S   0  0  0  0  0  0  0  0  0  0  0  0
    4.2563    0.1614   -2.7982 N   0  0  0  0  0  0  0  0  0  0  0  0
    3.4895   -0.6810   -2.0844 C   0  0  0  0  0  0  0  0  0  0  0  0
    2.7733   -1.5883   -2.4362 O   0  0  0  0  0  0  0  0  0  0  0  0
    1.4813    3.3999    1.3192 H   0  0  0  0  0  0  0  0  0  0  0  0
    2.9038    3.2893    2.3623 H   0  0  0  0  0  0  0  0  0  0  0  0
    1.3534    2.7165    2.9881 H   0  0  0  0  0  0  0  0  0  0  0  0
   -0.4062    2.0007    1.6334 H   0  0  0  0  0  0  0  0  0  0  0  0
   -2.9169   -1.1808    1.8528 H   0  0  0  0  0  0  0  0  0  0  0  0
   -3.6735    0.2976    2.4473 H   0  0  0  0  0  0  0  0  0  0  0  0
   -4.3731   -1.2919   -0.0376 H   0  0  0  0  0  0  0  0  0  0  0  0
   -5.4716   -0.5417    1.1329 H   0  0  0  0  0  0  0  0  0  0  0  0
   -4.9319    1.6885    0.3099 H   0  0  0  0  0  0  0  0  0  0  0  0
   -5.0479    0.7427   -1.1900 H   0  0  0  0  0  0  0  0  0  0  0  0
   -2.7857    2.1117   -0.6908 H   0  0  0  0  0  0  0  0  0  0  0  0
   -2.6614    0.4459   -1.2982 H   0  0  0  0  0  0  0  0  0  0  0  0
   -2.2622   -3.3860   -1.5496 H   0  0  0  0  0  0  0  0  0  0  0  0
   -0.8505   -3.6998   -0.5355 H   0  0  0  0  0  0  0  0  0  0  0  0
   -0.7208   -2.6504   -2.0027 H   0  0  0  0  0  0  0  0  0  0  0  0
    0.9622   -2.3198   -0.3556 H   0  0  0  0  0  0  0  0  0  0  0  0
    3.6230   -0.6740    1.4133 H   0  0  0  0  0  0  0  0  0  0  0  0
    3.1839   -2.0106    0.3732 H   0  0  0  0  0  0  0  0  0  0  0  0
    4.3443    0.1603   -3.8000 H   0  0  0  0  0  0  0  0  0  0  0  0
  1  2  1  0
  2  3  1  0
  3  4  2  0
  4  5  1  0
  5  6  1  0
  6  7  1  0
  7  8  1  0
  8  9  1  0
  9 10  1  0
  5 11  2  0
 11 12  1  0
 12 13  1  0
 11 14  1  0
 14 15  2  0
 15 16  1  0
 16 17  1  0
 17 18  2  0
 18 19  1  0
 19 20  2  0
 19 21  1  0
 21 22  1  0
 22 23  2  0
 15  3  1  0
 22 17  1  0
 10  6  1  0
  1 24  1  0
  1 25  1  0
  1 26  1  0
  4 27  1  0
  7 28  1  0
  7 29  1  0
  8 30  1  0
  8 31  1  0
  9 32  1  0
  9 33  1  0
 10 34  1  0
 10 35  1  0
 13 36  1  0
 13 37  1  0
 13 38  1  0
 14 39  1  0
 16 40  1  0
 16 41  1  0
 21 42  1  0
M  END
$$$$
