
     RDKit          3D

 61 64  0  0  0  0  0  0  0  0999 V2000
   -9.2486    2.1969   -2.7090 C   0  0  0  0  0  0  0  0  0  0  0  0
   -8.2436    1.6722   -1.8411 O   0  0  0  0  0  0  0  0  0  0  0  0
   -7.4589    0.7262   -2.4161 C   0  0  0  0  0  0  0  0  0  0  0  0
   -7.5589    0.3179   -3.5627 O   0  0  0  0  0  0  0  0  0  0  0  0
   -6.4358    0.2335   -1.4541 C   0  0  0  0  0  0  0  0  0  0  0  0
   -6.3370    0.7208   -0.1450 C   0  0  0  0  0  0  0  0  0  0  0  0
   -5.3542    0.2247    0.7162 C   0  0  0  0  0  0  0  0  0  0  0  0
   -4.4544   -0.7612    0.2842 C   0  0  0  0  0  0  0  0  0  0  0  0
   -3.3943   -1.2992    1.2248 C   0  0  0  0  0  0  0  0  0  0  0  0
   -2.4894   -0.2567    1.7400 N   0  0  0  0  0  0  0  0  0  0  0  0
   -1.6322    0.3378    0.7024 C   0  0  0  0  0  0  0  0  0  0  0  0
   -0.5149   -0.5828    0.2155 C   0  0  0  0  0  0  0  0  0  0  0  0
    0.3365   -1.0792    1.3864 C   0  0  0  0  0  0  0  0  0  0  0  0
    1.2419   -2.1025    0.9561 O   0  0  0  0  0  0  0  0  0  0  0  0
    2.4046   -1.7509    0.3312 C   0  0  0  0  0  0  0  0  0  0  0  0
    3.1437   -2.8324   -0.1611 C   0  0  0  0  0  0  0  0  0  0  0  0
    4.3436   -2.6315   -0.8468 C   0  0  0  0  0  0  0  0  0  0  0  0
    4.8247   -1.3382   -1.0337 C   0  0  0  0  0  0  0  0  0  0  0  0
    4.1092   -0.2560   -0.5133 C   0  0  0  0  0  0  0  0  0  0  0  0
    4.5771    1.1353   -0.7074 C   0  0  0  0  0  0  0  0  0  0  0  0
    3.7844    1.9547   -1.1658 O   0  0  0  0  0  0  0  0  0  0  0  0
    5.8707    1.4594   -0.3440 N   0  0  0  0  0  0  0  0  0  0  0  0
    6.3582    2.8174   -0.5086 C   0  0  0  0  0  0  0  0  0  0  0  0
    7.8133    2.7516   -0.0724 C   0  0  0  0  0  0  0  0  0  0  0  0
    7.7882    1.6780    1.0080 C   0  0  0  0  0  0  0  0  0  0  0  0
    6.7913    0.6648    0.4588 C   0  0  0  0  0  0  0  0  0  0  0  0
    2.8913   -0.4582    0.1514 C   0  0  0  0  0  0  0  0  0  0  0  0
   -0.5672   -1.7063    2.4521 C   0  0  0  0  0  0  0  0  0  0  0  0
   -1.6802   -0.7464    2.8646 C   0  0  0  0  0  0  0  0  0  0  0  0
   -4.5594   -1.2481   -1.0258 C   0  0  0  0  0  0  0  0  0  0  0  0
   -5.5418   -0.7539   -1.8885 C   0  0  0  0  0  0  0  0  0  0  0  0
   -9.8353    2.9272   -2.1447 H   0  0  0  0  0  0  0  0  0  0  0  0
   -8.7890    2.7059   -3.5621 H   0  0  0  0  0  0  0  0  0  0  0  0
   -9.9198    1.4011   -3.0469 H   0  0  0  0  0  0  0  0  0  0  0  0
   -7.0135    1.4891    0.2200 H   0  0  0  0  0  0  0  0  0  0  0  0
   -5.2800    0.6176    1.7289 H   0  0  0  0  0  0  0  0  0  0  0  0
   -2.8409   -2.1129    0.7415 H   0  0  0  0  0  0  0  0  0  0  0  0
   -3.9374   -1.7611    2.0607 H   0  0  0  0  0  0  0  0  0  0  0  0
   -1.1811    1.2498    1.1165 H   0  0  0  0  0  0  0  0  0  0  0  0
   -2.2256    0.6814   -0.1526 H   0  0  0  0  0  0  0  0  0  0  0  0
   -0.9249   -1.4357   -0.3396 H   0  0  0  0  0  0  0  0  0  0  0  0
    0.1087   -0.0429   -0.5060 H   0  0  0  0  0  0  0  0  0  0  0  0
    0.8739   -0.2517    1.8658 H   0  0  0  0  0  0  0  0  0  0  0  0
    2.7681   -3.8442   -0.0232 H   0  0  0  0  0  0  0  0  0  0  0  0
    4.8907   -3.4825   -1.2440 H   0  0  0  0  0  0  0  0  0  0  0  0
    5.7384   -1.1777   -1.5987 H   0  0  0  0  0  0  0  0  0  0  0  0
    6.2342    3.1505   -1.5433 H   0  0  0  0  0  0  0  0  0  0  0  0
    5.7740    3.4722    0.1482 H   0  0  0  0  0  0  0  0  0  0  0  0
    8.1904    3.7128    0.2866 H   0  0  0  0  0  0  0  0  0  0  0  0
    8.4433    2.4226   -0.9077 H   0  0  0  0  0  0  0  0  0  0  0  0
    8.7714    1.2393    1.1994 H   0  0  0  0  0  0  0  0  0  0  0  0
    7.4124    2.1046    1.9461 H   0  0  0  0  0  0  0  0  0  0  0  0
    7.2952   -0.0446   -0.2052 H   0  0  0  0  0  0  0  0  0  0  0  0
    6.2676    0.1200    1.2490 H   0  0  0  0  0  0  0  0  0  0  0  0
    2.3549    0.4160    0.5043 H   0  0  0  0  0  0  0  0  0  0  0  0
    0.0358   -1.9755    3.3285 H   0  0  0  0  0  0  0  0  0  0  0  0
   -0.9853   -2.6525    2.0850 H   0  0  0  0  0  0  0  0  0  0  0  0
   -1.2340    0.1197    3.3709 H   0  0  0  0  0  0  0  0  0  0  0  0
   -2.3210   -1.2219    3.6174 H   0  0  0  0  0  0  0  0  0  0  0  0
   -3.8743   -2.0120   -1.3873 H   0  0  0  0  0  0  0  0  0  0  0  0
   -5.6049   -1.1419   -2.9036 H   0  0  0  0  0  0  0  0  0  0  0  0
  1  2  1  0
  2  3  1  0
  3  4  2  0
  3  5  1  0
  5  6  2  0
  6  7  1  0
  7  8  2  0
  8  9  1  0
  9 10  1  0
 10 11  1  0
 11 12  1  0
 12 13  1  0
 13 14  1  0
 14 15  1  0
 15 16  2  0
 16 17  1  0
 17 18  2  0
 18 19  1  0
 19 20  1  0
 20 21  2  0
 20 22  1  0
 22 23  1  0
 23 24  1  0
 24 25  1  0
 25 26  1  0
 19 27  2  0
 13 28  1  0
 28 29  1  0
  8 30  1  0
 30 31  2  0
 31  5  1  0
 29 10  1  0
 27 15  1  0
 26 22  1  0
  1 32  1  0
  1 33  1  0
  1 34  1  0
  6 35  1  0
  7 36  1  0
  9 37  1  0
  9 38  1  0
 11 39  1  0
 11 40  1  0
 12 41  1  0
 12 42  1  0
 13 43  1  0
 16 44  1  0
 17 45  1  0
 18 46  1  0
 23 47  1  0
 23 48  1  0
 24 49  1  0
 24 50  1  0
 25 51  1  0
 25 52  1  0
 26 53  1  0
 26 54  1  0
 27 55  1  0
 28 56  1  0
 28 57  1  0
 29 58  1  0
 29 59  1  0
 30 60  1  0
 31 61  1  0
M  END
$$$$
