
     RDKit          3D

 54 57  0  0  0  0  0  0  0  0999 V2000
   -3.6214   -4.9525   -1.6574 C   0  0  0  0  0  0  0  0  0  0  0  0
   -2.8701   -3.8795   -2.2105 O   0  0  0  0  0  0  0  0  0  0  0  0
   -2.9561   -2.6723   -1.5741 C   0  0  0  0  0  0  0  0  0  0  0  0
   -2.2312   -1.6418   -2.1761 C   0  0  0  0  0  0  0  0  0  0  0  0
   -2.2310   -0.3552   -1.6299 C   0  0  0  0  0  0  0  0  0  0  0  0
   -2.9579   -0.0795   -0.4665 C   0  0  0  0  0  0  0  0  0  0  0  0
   -2.9431    1.2680    0.1186 C   0  0  0  0  0  0  0  0  0  0  0  0
   -4.4219    2.1240    0.2247 S   0  0  0  0  0  0  0  0  0  0  0  0
   -3.6807    3.5059    0.9229 C   0  0  0  0  0  0  0  0  0  0  0  0
   -4.3209    4.6995    1.3132 C   0  0  0  0  0  0  0  0  0  0  0  0
   -3.5597    5.7265    1.8741 C   0  0  0  0  0  0  0  0  0  0  0  0
   -2.1925    5.5737    2.0472 C   0  0  0  0  0  0  0  0  0  0  0  0
   -1.5624    4.3882    1.6576 C   0  0  0  0  0  0  0  0  0  0  0  0
   -2.3052    3.3254    1.0781 C   0  0  0  0  0  0  0  0  0  0  0  0
   -1.8848    2.0242    0.6018 C   0  0  0  0  0  0  0  0  0  0  0  0
   -0.5154    1.5172    0.6110 C   0  0  0  0  0  0  0  0  0  0  0  0
   -0.1591    0.4416    1.4317 C   0  0  0  0  0  0  0  0  0  0  0  0
    1.1533   -0.0448    1.4327 C   0  0  0  0  0  0  0  0  0  0  0  0
    2.1192    0.5430    0.6156 C   0  0  0  0  0  0  0  0  0  0  0  0
    3.4299    0.1668    0.5202 O   0  0  0  0  0  0  0  0  0  0  0  0
    3.8255   -1.0069    1.2327 C   0  0  0  0  0  0  0  0  0  0  0  0
    5.3101   -1.3151    0.9488 C   0  0  0  0  0  0  0  0  0  0  0  0
    5.6718   -1.9128   -0.3515 N   0  0  0  0  0  0  0  0  0  0  0  0
    5.1065   -3.2456   -0.5395 C   0  0  0  0  0  0  0  0  0  0  0  0
    5.3403   -1.0461   -1.4801 C   0  0  0  0  0  0  0  0  0  0  0  0
    1.7644    1.6250   -0.1941 C   0  0  0  0  0  0  0  0  0  0  0  0
    0.4554    2.1121   -0.1999 C   0  0  0  0  0  0  0  0  0  0  0  0
   -3.6816   -1.1174    0.1363 C   0  0  0  0  0  0  0  0  0  0  0  0
   -3.6823   -2.4055   -0.4139 C   0  0  0  0  0  0  0  0  0  0  0  0
   -4.6936   -4.7301   -1.6656 H   0  0  0  0  0  0  0  0  0  0  0  0
   -3.2753   -5.1968   -0.6477 H   0  0  0  0  0  0  0  0  0  0  0  0
   -3.4595   -5.8331   -2.2866 H   0  0  0  0  0  0  0  0  0  0  0  0
   -1.6609   -1.8409   -3.0801 H   0  0  0  0  0  0  0  0  0  0  0  0
   -1.6591    0.4280   -2.1219 H   0  0  0  0  0  0  0  0  0  0  0  0
   -5.3926    4.8200    1.1810 H   0  0  0  0  0  0  0  0  0  0  0  0
   -4.0452    6.6507    2.1787 H   0  0  0  0  0  0  0  0  0  0  0  0
   -1.6061    6.3760    2.4883 H   0  0  0  0  0  0  0  0  0  0  0  0
   -0.4900    4.2821    1.8054 H   0  0  0  0  0  0  0  0  0  0  0  0
   -0.9005   -0.0277    2.0746 H   0  0  0  0  0  0  0  0  0  0  0  0
    1.3839   -0.8806    2.0842 H   0  0  0  0  0  0  0  0  0  0  0  0
    3.1961   -1.8614    0.9615 H   0  0  0  0  0  0  0  0  0  0  0  0
    3.7242   -0.8175    2.3087 H   0  0  0  0  0  0  0  0  0  0  0  0
    5.6710   -1.9921    1.7338 H   0  0  0  0  0  0  0  0  0  0  0  0
    5.8897   -0.3903    1.0664 H   0  0  0  0  0  0  0  0  0  0  0  0
    4.0159   -3.2337   -0.6375 H   0  0  0  0  0  0  0  0  0  0  0  0
    5.3723   -3.9017    0.2967 H   0  0  0  0  0  0  0  0  0  0  0  0
    5.5200   -3.7090   -1.4425 H   0  0  0  0  0  0  0  0  0  0  0  0
    5.7860   -1.4404   -2.4004 H   0  0  0  0  0  0  0  0  0  0  0  0
    5.7567   -0.0427   -1.3384 H   0  0  0  0  0  0  0  0  0  0  0  0
    4.2610   -0.9588   -1.6440 H   0  0  0  0  0  0  0  0  0  0  0  0
    2.5139    2.0898   -0.8301 H   0  0  0  0  0  0  0  0  0  0  0  0
    0.2003    2.9500   -0.8444 H   0  0  0  0  0  0  0  0  0  0  0  0
   -4.2488   -0.9327    1.0462 H   0  0  0  0  0  0  0  0  0  0  0  0
   -4.2583   -3.1735    0.0909 H   0  0  0  0  0  0  0  0  0  0  0  0
  1  2  1  0
  2  3  1  0
  3  4  2  0
  4  5  1  0
  5  6  2  0
  6  7  1  0
  7  8  1  0
  8  9  1  0
  9 10  2  0
 10 11  1  0
 11 12  2  0
 12 13  1  0
 13 14  2  0
 14 15  1  0
 15 16  1  0
 16 17  2  0
 17 18  1  0
 18 19  2  0
 19 20  1  0
 20 21  1  0
 21 22  1  0
 22 23  1  0
 23 24  1  0
 23 25  1  0
 19 26  1  0
 26 27  2  0
  6 28  1  0
 28 29  2  0
 29  3  1  0
 15  7  2  0
 27 16  1  0
 14  9  1  0
  1 30  1  0
  1 31  1  0
  1 32  1  0
  4 33  1  0
  5 34  1  0
 10 35  1  0
 11 36  1  0
 12 37  1  0
 13 38  1  0
 17 39  1  0
 18 40  1  0
 21 41  1  0
 21 42  1  0
 22 43  1  0
 22 44  1  0
 24 45  1  0
 24 46  1  0
 24 47  1  0
 25 48  1  0
 25 49  1  0
 25 50  1  0
 26 51  1  0
 27 52  1  0
 28 53  1  0
 29 54  1  0
M  END
$$$$
