
     RDKit          3D

 41 42  0  0  0  0  0  0  0  0999 V2000
    4.4855   -2.5033    0.8653 C   0  0  0  0  0  0  0  0  0  0  0  0
    3.3504   -1.6641    0.6780 O   0  0  0  0  0  0  0  0  0  0  0  0
    3.5702   -0.4219    0.1260 C   0  0  0  0  0  0  0  0  0  0  0  0
    4.8274    0.0948   -0.2003 C   0  0  0  0  0  0  0  0  0  0  0  0
    4.9224    1.3787   -0.7578 C   0  0  0  0  0  0  0  0  0  0  0  0
    6.2424    1.9226   -1.1031 N   0  0  0  0  0  4  0  0  0  0  0  0
    6.2869    3.0408   -1.6342 O   0  0  0  0  0  0  0  0  0  0  0  0
    7.2357    1.2285   -0.8416 O   0  0  0  0  0  1  0  0  0  0  0  0
    3.7769    2.1482   -0.9847 C   0  0  0  0  0  0  0  0  0  0  0  0
    2.5221    1.6297   -0.6550 C   0  0  0  0  0  0  0  0  0  0  0  0
    2.4078    0.3489   -0.1064 C   0  0  0  0  0  0  0  0  0  0  0  0
    1.1740   -0.2337    0.2548 N   0  0  0  0  0  0  0  0  0  0  0  0
   -0.1013    0.2372    0.0007 C   0  0  0  0  0  0  0  0  0  0  0  0
   -0.3783    1.2265   -0.6673 O   0  0  0  0  0  0  0  0  0  0  0  0
   -1.0522   -0.6066    0.5923 N   0  0  0  0  0  0  0  0  0  0  0  0
   -2.4212   -0.2318    0.5528 N   0  0  0  0  0  0  0  0  0  0  0  0
   -3.2014   -0.8053    1.6548 C   0  0  0  0  0  0  0  0  0  0  0  0
   -4.6650   -0.2934    1.6671 C   0  0  0  0  0  0  0  0  0  0  0  0
   -5.2741   -0.0038    0.3504 N   0  0  0  0  0  0  0  0  0  0  0  0
   -5.2419    1.4335    0.0646 C   0  0  0  0  0  0  0  0  0  0  0  0
   -4.5709   -0.7575   -0.7034 C   0  0  0  0  0  0  0  0  0  0  0  0
   -3.0336   -0.5644   -0.7516 C   0  0  0  0  0  0  0  0  0  0  0  0
    4.1331   -3.4525    1.2806 H   0  0  0  0  0  0  0  0  0  0  0  0
    5.1848   -2.0641    1.5844 H   0  0  0  0  0  0  0  0  0  0  0  0
    4.9775   -2.7193   -0.0885 H   0  0  0  0  0  0  0  0  0  0  0  0
    5.7319   -0.4802   -0.0297 H   0  0  0  0  0  0  0  0  0  0  0  0
    3.8370    3.1473   -1.4123 H   0  0  0  0  0  0  0  0  0  0  0  0
    1.6490    2.2518   -0.8344 H   0  0  0  0  0  0  0  0  0  0  0  0
    1.2526   -1.1764    0.6149 H   0  0  0  0  0  0  0  0  0  0  0  0
   -0.7289   -1.0689    1.4342 H   0  0  0  0  0  0  0  0  0  0  0  0
   -2.7407   -0.5479    2.6166 H   0  0  0  0  0  0  0  0  0  0  0  0
   -3.1999   -1.9014    1.5818 H   0  0  0  0  0  0  0  0  0  0  0  0
   -4.7329    0.5860    2.3212 H   0  0  0  0  0  0  0  0  0  0  0  0
   -5.2796   -1.0626    2.1515 H   0  0  0  0  0  0  0  0  0  0  0  0
   -5.8451    1.9779    0.7998 H   0  0  0  0  0  0  0  0  0  0  0  0
   -5.6895    1.6397   -0.9142 H   0  0  0  0  0  0  0  0  0  0  0  0
   -4.2313    1.8553    0.0759 H   0  0  0  0  0  0  0  0  0  0  0  0
   -5.0018   -0.5314   -1.6868 H   0  0  0  0  0  0  0  0  0  0  0  0
   -4.7789   -1.8231   -0.5357 H   0  0  0  0  0  0  0  0  0  0  0  0
   -2.5956   -1.4820   -1.1665 H   0  0  0  0  0  0  0  0  0  0  0  0
   -2.8037    0.2483   -1.4508 H   0  0  0  0  0  0  0  0  0  0  0  0
  1  2  1  0
  2  3  1  0
  3  4  2  0
  4  5  1  0
  5  6  1  0
  6  7  2  0
  6  8  1  0
  5  9  2  0
  9 10  1  0
 10 11  2  0
 11 12  1  0
 12 13  1  0
 13 14  2  0
 13 15  1  0
 15 16  1  0
 16 17  1  0
 17 18  1  0
 18 19  1  0
 19 20  1  0
 19 21  1  0
 21 22  1  0
 11  3  1  0
 22 16  1  0
  1 23  1  0
  1 24  1  0
  1 25  1  0
  4 26  1  0
  9 27  1  0
 10 28  1  0
 12 29  1  0
 15 30  1  0
 17 31  1  0
 17 32  1  0
 18 33  1  0
 18 34  1  0
 20 35  1  0
 20 36  1  0
 20 37  1  0
 21 38  1  0
 21 39  1  0
 22 40  1  0
 22 41  1  0
M  CHG  2   6   1   8  -1
M  END
$$$$
