
     RDKit          3D

 67 69  0  0  0  0  0  0  0  0999 V2000
   -4.8417    0.2720   -4.1576 C   0  0  0  0  0  0  0  0  0  0  0  0
   -3.3625   -0.1337   -4.0186 C   0  0  0  0  0  0  0  0  0  0  0  0
   -3.2029   -1.5578   -4.5756 C   0  0  0  0  0  0  0  0  0  0  0  0
   -2.5083    0.8528   -4.8290 C   0  0  0  0  0  0  0  0  0  0  0  0
   -3.0112   -0.0813   -2.5916 N   0  0  0  0  0  0  0  0  0  0  0  0
   -1.7702   -0.4097   -2.0621 C   0  0  0  0  0  0  0  0  0  0  0  0
   -0.8377   -0.8079   -2.7569 O   0  0  0  0  0  0  0  0  0  0  0  0
   -1.6618   -0.2031   -0.5213 C   0  0  0  0  0  0  0  0  0  0  0  0
   -2.7083   -0.9131    0.3431 C   0  0  0  0  0  0  0  0  0  0  0  0
   -3.4470   -2.0270   -0.0914 C   0  0  0  0  0  0  0  0  0  0  0  0
   -4.3970   -2.6228    0.7424 C   0  0  0  0  0  0  0  0  0  0  0  0
   -4.6191   -2.1076    2.0126 C   0  0  0  0  0  0  0  0  0  0  0  0
   -5.5310   -2.6814    2.8083 F   0  0  0  0  0  0  0  0  0  0  0  0
   -3.9112   -1.0040    2.4666 C   0  0  0  0  0  0  0  0  0  0  0  0
   -2.9623   -0.4077    1.6348 C   0  0  0  0  0  0  0  0  0  0  0  0
   -0.2718   -0.3301   -0.0046 N   0  0  0  0  0  0  0  0  0  0  0  0
    0.3820    0.8711    0.2948 C   0  0  0  0  0  0  0  0  0  0  0  0
   -0.1639    1.9686    0.1562 O   0  0  0  0  0  0  0  0  0  0  0  0
    1.8076    0.7944    0.8155 C   0  0  0  0  0  0  0  0  0  0  0  0
    2.3467    2.1744    1.1845 C   0  0  0  0  0  0  0  0  0  0  0  0
    3.7481    2.0953    1.7583 C   0  0  0  0  0  0  0  0  0  0  0  0
    4.3264    1.0263    1.9203 O   0  0  0  0  0  0  0  0  0  0  0  0
    4.2417    3.3429    2.0613 N   0  0  0  0  0  0  0  0  0  0  0  0
    5.4818    3.6788    2.6034 C   0  0  0  0  0  0  0  0  0  0  0  0
    6.4682    2.7595    2.9312 C   0  0  0  0  0  0  0  0  0  0  0  0
    7.6690    3.2248    3.4665 C   0  0  0  0  0  0  0  0  0  0  0  0
    7.8490    4.5877    3.6582 C   0  0  0  0  0  0  0  0  0  0  0  0
    6.8133    5.4327    3.3038 C   0  0  0  0  0  0  0  0  0  0  0  0
    5.6397    5.0087    2.7839 N   0  0  0  0  0  0  0  0  0  0  0  0
    0.3701   -1.6492    0.1929 C   0  0  0  0  0  0  0  0  0  0  0  0
    0.2279   -2.1836    1.6335 C   0  0  0  0  0  0  0  0  0  0  0  0
   -0.1994   -3.6420    1.5042 C   0  0  0  0  0  0  0  0  0  0  0  0
    0.2787   -4.0530    0.1228 C   0  0  0  0  0  0  0  0  0  0  0  0
   -0.0153   -2.8206   -0.7200 C   0  0  0  0  0  0  0  0  0  0  0  0
   -5.4906   -0.4021   -3.5860 H   0  0  0  0  0  0  0  0  0  0  0  0
   -5.1686    0.2481   -5.2033 H   0  0  0  0  0  0  0  0  0  0  0  0
   -5.0100    1.2861   -3.7761 H   0  0  0  0  0  0  0  0  0  0  0  0
   -3.7686   -2.2792   -3.9747 H   0  0  0  0  0  0  0  0  0  0  0  0
   -3.5655   -1.6217   -5.6078 H   0  0  0  0  0  0  0  0  0  0  0  0
   -2.1584   -1.8846   -4.5802 H   0  0  0  0  0  0  0  0  0  0  0  0
   -2.5934    1.8695   -4.4280 H   0  0  0  0  0  0  0  0  0  0  0  0
   -2.8225    0.8774   -5.8786 H   0  0  0  0  0  0  0  0  0  0  0  0
   -1.4472    0.5842   -4.8120 H   0  0  0  0  0  0  0  0  0  0  0  0
   -3.6739    0.3641   -1.9665 H   0  0  0  0  0  0  0  0  0  0  0  0
   -1.9536    0.8536   -0.4352 H   0  0  0  0  0  0  0  0  0  0  0  0
   -3.2977   -2.4518   -1.0824 H   0  0  0  0  0  0  0  0  0  0  0  0
   -4.9632   -3.4862    0.4069 H   0  0  0  0  0  0  0  0  0  0  0  0
   -4.0992   -0.6143    3.4620 H   0  0  0  0  0  0  0  0  0  0  0  0
   -2.4098    0.4582    1.9991 H   0  0  0  0  0  0  0  0  0  0  0  0
    2.4461    0.3615    0.0376 H   0  0  0  0  0  0  0  0  0  0  0  0
    1.8304    0.1507    1.7002 H   0  0  0  0  0  0  0  0  0  0  0  0
    2.3689    2.8194    0.2975 H   0  0  0  0  0  0  0  0  0  0  0  0
    1.6967    2.6465    1.9315 H   0  0  0  0  0  0  0  0  0  0  0  0
    3.6700    4.1594    1.8893 H   0  0  0  0  0  0  0  0  0  0  0  0
    6.3371    1.6944    2.7858 H   0  0  0  0  0  0  0  0  0  0  0  0
    8.4541    2.5221    3.7315 H   0  0  0  0  0  0  0  0  0  0  0  0
    8.7701    4.9801    4.0740 H   0  0  0  0  0  0  0  0  0  0  0  0
    6.9002    6.5081    3.4317 H   0  0  0  0  0  0  0  0  0  0  0  0
    1.4433   -1.5080    0.0239 H   0  0  0  0  0  0  0  0  0  0  0  0
   -0.4743   -1.6172    2.2496 H   0  0  0  0  0  0  0  0  0  0  0  0
    1.2007   -2.1333    2.1378 H   0  0  0  0  0  0  0  0  0  0  0  0
   -1.2912   -3.7184    1.5635 H   0  0  0  0  0  0  0  0  0  0  0  0
    0.2246   -4.2687    2.2943 H   0  0  0  0  0  0  0  0  0  0  0  0
   -0.2363   -4.9437   -0.2484 H   0  0  0  0  0  0  0  0  0  0  0  0
    1.3558   -4.2579    0.1362 H   0  0  0  0  0  0  0  0  0  0  0  0
   -1.0673   -2.8285   -0.9956 H   0  0  0  0  0  0  0  0  0  0  0  0
    0.5657   -2.8216   -1.6478 H   0  0  0  0  0  0  0  0  0  0  0  0
  1  2  1  0
  2  3  1  0
  2  4  1  0
  2  5  1  0
  5  6  1  0
  6  7  2  0
  6  8  1  0
  8  9  1  0
  9 10  2  0
 10 11  1  0
 11 12  2  0
 12 13  1  0
 12 14  1  0
 14 15  2  0
  8 16  1  0
 16 17  1  0
 17 18  2  0
 17 19  1  0
 19 20  1  0
 20 21  1  0
 21 22  2  0
 21 23  1  0
 23 24  1  0
 24 25  2  0
 25 26  1  0
 26 27  2  0
 27 28  1  0
 28 29  2  0
 16 30  1  0
 30 31  1  0
 31 32  1  0
 32 33  1  0
 33 34  1  0
 15  9  1  0
 29 24  1  0
 34 30  1  0
  1 35  1  0
  1 36  1  0
  1 37  1  0
  3 38  1  0
  3 39  1  0
  3 40  1  0
  4 41  1  0
  4 42  1  0
  4 43  1  0
  5 44  1  0
  8 45  1  0
 10 46  1  0
 11 47  1  0
 14 48  1  0
 15 49  1  0
 19 50  1  0
 19 51  1  0
 20 52  1  0
 20 53  1  0
 23 54  1  0
 25 55  1  0
 26 56  1  0
 27 57  1  0
 28 58  1  0
 30 59  1  0
 31 60  1  0
 31 61  1  0
 32 62  1  0
 32 63  1  0
 33 64  1  0
 33 65  1  0
 34 66  1  0
 34 67  1  0
M  END
$$$$
