
     RDKit          3D

 47 50  0  0  0  0  0  0  0  0999 V2000
   -0.2272    4.7055    0.9606 N   0  0  0  0  0  0  0  0  0  0  0  0
    0.6129    3.7176    0.4603 C   0  0  0  0  0  0  0  0  0  0  0  0
    1.8772    4.0621    0.1295 N   0  0  0  0  0  0  0  0  0  0  0  0
    2.7022    3.0959   -0.3236 C   0  0  0  0  0  0  0  0  0  0  0  0
    2.4329    1.7883   -0.5219 N   0  0  0  0  0  0  0  0  0  0  0  0
    1.1466    1.5057   -0.2345 C   0  0  0  0  0  0  0  0  0  0  0  0
    0.2053    2.3865    0.2709 C   0  0  0  0  0  0  0  0  0  0  0  0
   -0.9893    1.7484    0.5119 N   0  0  0  0  0  0  0  0  0  0  0  0
   -0.7988    0.4985    0.1556 C   0  0  0  0  0  0  0  0  0  0  0  0
   -1.6582   -0.5500    0.3469 N   0  0  0  0  0  0  0  0  0  0  0  0
   -2.4254   -0.9908   -0.8429 C   0  0  0  0  0  0  0  0  0  0  0  0
   -3.6575   -0.1211   -1.0893 C   0  0  0  0  0  0  0  0  0  0  0  0
   -4.5476   -0.0656    0.1470 C   0  0  0  0  0  0  0  0  0  0  0  0
   -3.7471    0.4064    1.3585 C   0  0  0  0  0  0  0  0  0  0  0  0
   -2.5038   -0.4558    1.5649 C   0  0  0  0  0  0  0  0  0  0  0  0
    0.4811    0.3090   -0.3483 N   0  0  0  0  0  0  0  0  0  0  0  0
    1.0247   -0.9760   -0.7603 C   0  0  0  0  0  0  0  0  0  0  0  0
    2.2067   -0.8166   -1.5691 O   0  0  0  0  0  0  0  0  0  0  0  0
    3.1571   -1.8395   -1.1851 C   0  0  0  0  0  0  0  0  0  0  0  0
    4.3945   -1.1543   -0.6087 C   0  0  0  0  0  0  0  0  0  0  0  0
    4.0607   -0.3516    0.5196 O   0  0  0  0  0  0  0  0  0  0  0  0
    2.4486   -2.7553   -0.1893 C   0  0  0  0  0  0  0  0  0  0  0  0
    1.7932   -3.8176   -0.9039 O   0  0  0  0  0  0  0  0  0  0  0  0
    1.3877   -1.8652    0.4280 C   0  0  0  0  0  0  0  0  0  0  0  0
    0.2968   -2.6613    0.9106 O   0  0  0  0  0  0  0  0  0  0  0  0
    0.0702    5.6299    0.6779 H   0  0  0  0  0  0  0  0  0  0  0  0
   -1.2107    4.4802    0.8631 H   0  0  0  0  0  0  0  0  0  0  0  0
    3.7155    3.4131   -0.5569 H   0  0  0  0  0  0  0  0  0  0  0  0
   -1.8020   -0.9874   -1.7443 H   0  0  0  0  0  0  0  0  0  0  0  0
   -2.7338   -2.0322   -0.6823 H   0  0  0  0  0  0  0  0  0  0  0  0
   -3.3497    0.8957   -1.3652 H   0  0  0  0  0  0  0  0  0  0  0  0
   -4.2276   -0.5232   -1.9353 H   0  0  0  0  0  0  0  0  0  0  0  0
   -4.9625   -1.0636    0.3496 H   0  0  0  0  0  0  0  0  0  0  0  0
   -5.3960    0.6065   -0.0314 H   0  0  0  0  0  0  0  0  0  0  0  0
   -3.4696    1.4587    1.2200 H   0  0  0  0  0  0  0  0  0  0  0  0
   -4.3751    0.3613    2.2561 H   0  0  0  0  0  0  0  0  0  0  0  0
   -1.9169   -0.0809    2.4125 H   0  0  0  0  0  0  0  0  0  0  0  0
   -2.8126   -1.4720    1.8379 H   0  0  0  0  0  0  0  0  0  0  0  0
    0.2802   -1.4536   -1.4013 H   0  0  0  0  0  0  0  0  0  0  0  0
    3.4387   -2.3838   -2.0931 H   0  0  0  0  0  0  0  0  0  0  0  0
    4.8570   -0.4997   -1.3547 H   0  0  0  0  0  0  0  0  0  0  0  0
    5.1356   -1.8944   -0.2945 H   0  0  0  0  0  0  0  0  0  0  0  0
    3.5737    0.4220    0.1581 H   0  0  0  0  0  0  0  0  0  0  0  0
    3.1098   -3.2242    0.5414 H   0  0  0  0  0  0  0  0  0  0  0  0
    1.0789   -4.1163   -0.3023 H   0  0  0  0  0  0  0  0  0  0  0  0
    1.7940   -1.2864    1.2640 H   0  0  0  0  0  0  0  0  0  0  0  0
   -0.4704   -2.0532    0.9928 H   0  0  0  0  0  0  0  0  0  0  0  0
  1  2  1  0
  2  3  2  0
  3  4  1  0
  4  5  2  0
  5  6  1  0
  6  7  2  0
  7  8  1  0
  8  9  2  0
  9 10  1  0
 10 11  1  0
 11 12  1  0
 12 13  1  0
 13 14  1  0
 14 15  1  0
  9 16  1  0
 16 17  1  0
 17 18  1  0
 18 19  1  0
 19 20  1  0
 20 21  1  0
 19 22  1  0
 22 23  1  0
 22 24  1  0
 24 25  1  0
  7  2  1  0
 15 10  1  0
 24 17  1  0
 16  6  1  0
  1 26  1  0
  1 27  1  0
  4 28  1  0
 11 29  1  0
 11 30  1  0
 12 31  1  0
 12 32  1  0
 13 33  1  0
 13 34  1  0
 14 35  1  0
 14 36  1  0
 15 37  1  0
 15 38  1  0
 17 39  1  0
 19 40  1  0
 20 41  1  0
 20 42  1  0
 21 43  1  0
 22 44  1  0
 23 45  1  0
 24 46  1  0
 25 47  1  0
M  END
$$$$
