
     RDKit          3D

 38 39  0  0  0  0  0  0  0  0999 V2000
   -3.0198   -1.7600   -2.4533 O   0  0  0  0  0  0  0  0  0  0  0  0
   -2.5442   -1.2047   -1.4668 C   0  0  0  0  0  0  0  0  0  0  0  0
   -1.0706   -0.7942   -1.4304 C   0  0  0  0  0  0  0  0  0  0  0  0
   -0.7053   -0.2405   -0.1615 O   0  0  0  0  0  0  0  0  0  0  0  0
    0.6075    0.1006   -0.0820 C   0  0  0  0  0  0  0  0  0  0  0  0
    1.4271   -0.0138   -0.9738 O   0  0  0  0  0  0  0  0  0  0  0  0
    0.8429    0.6334    1.2798 C   0  0  0  0  0  0  0  0  0  0  0  0
    2.0369    0.9434    1.8069 C   0  0  0  0  0  0  0  0  0  0  0  0
    3.3348    0.8004    1.1485 C   0  0  0  0  0  0  0  0  0  0  0  0
    4.0333   -0.4081    1.2255 C   0  0  0  0  0  0  0  0  0  0  0  0
    5.2748   -0.5418    0.6034 C   0  0  0  0  0  0  0  0  0  0  0  0
    5.8221    0.5301   -0.1021 C   0  0  0  0  0  0  0  0  0  0  0  0
    5.1319    1.7490   -0.1948 C   0  0  0  0  0  0  0  0  0  0  0  0
    5.7320    2.9172   -0.9355 C   0  0  0  0  0  0  0  0  0  0  0  0
    4.7986    3.7436   -1.4855 F   0  0  0  0  0  0  0  0  0  0  0  0
    6.5476    2.5438   -1.9612 F   0  0  0  0  0  0  0  0  0  0  0  0
    6.4923    3.7047   -0.1239 F   0  0  0  0  0  0  0  0  0  0  0  0
    3.8868    1.8761    0.4435 C   0  0  0  0  0  0  0  0  0  0  0  0
   -3.2224   -0.8824   -0.3153 N   0  0  0  0  0  0  0  0  0  0  0  0
   -4.5573   -1.1027    0.0074 C   0  0  0  0  0  0  0  0  0  0  0  0
   -5.4782   -1.7025   -0.8429 C   0  0  0  0  0  0  0  0  0  0  0  0
   -6.7942   -1.8722   -0.4057 C   0  0  0  0  0  0  0  0  0  0  0  0
   -7.1489   -1.4361    0.8615 C   0  0  0  0  0  0  0  0  0  0  0  0
   -8.7522   -1.6235    1.4387 Cl  0  0  0  0  0  0  0  0  0  0  0  0
   -6.1711   -0.8458    1.6438 C   0  0  0  0  0  0  0  0  0  0  0  0
   -4.8858   -0.6711    1.2454 N   0  0  0  0  0  0  0  0  0  0  0  0
   -0.4744   -1.6927   -1.6255 H   0  0  0  0  0  0  0  0  0  0  0  0
   -0.9170   -0.0464   -2.2166 H   0  0  0  0  0  0  0  0  0  0  0  0
   -0.0471    0.7755    1.8845 H   0  0  0  0  0  0  0  0  0  0  0  0
    2.0854    1.3320    2.8216 H   0  0  0  0  0  0  0  0  0  0  0  0
    3.6146   -1.2546    1.7646 H   0  0  0  0  0  0  0  0  0  0  0  0
    5.8124   -1.4853    0.6628 H   0  0  0  0  0  0  0  0  0  0  0  0
    6.7914    0.4116   -0.5844 H   0  0  0  0  0  0  0  0  0  0  0  0
    3.3431    2.8181    0.3783 H   0  0  0  0  0  0  0  0  0  0  0  0
   -2.6998   -0.4288    0.4253 H   0  0  0  0  0  0  0  0  0  0  0  0
   -5.2089   -2.0481   -1.8343 H   0  0  0  0  0  0  0  0  0  0  0  0
   -7.5250   -2.3404   -1.0591 H   0  0  0  0  0  0  0  0  0  0  0  0
   -6.3931   -0.4841    2.6441 H   0  0  0  0  0  0  0  0  0  0  0  0
  1  2  2  0
  2  3  1  0
  3  4  1  0
  4  5  1  0
  5  6  2  0
  5  7  1  0
  7  8  2  3
  8  9  1  0
  9 10  2  0
 10 11  1  0
 11 12  2  0
 12 13  1  0
 13 14  1  0
 14 15  1  0
 14 16  1  0
 14 17  1  0
 13 18  2  0
  2 19  1  0
 19 20  1  0
 20 21  2  0
 21 22  1  0
 22 23  2  0
 23 24  1  0
 23 25  1  0
 25 26  2  0
 18  9  1  0
 26 20  1  0
  3 27  1  0
  3 28  1  0
  7 29  1  0
  8 30  1  0
 10 31  1  0
 11 32  1  0
 12 33  1  0
 18 34  1  0
 19 35  1  0
 21 36  1  0
 22 37  1  0
 25 38  1  0
M  END
$$$$
