
     RDKit          3D

 46 49  0  0  0  0  0  0  0  0999 V2000
   -1.9278    0.2864   -2.9318 C   0  0  0  0  0  0  0  0  0  0  0  0
   -1.8341   -1.0056   -2.2591 N   0  0  0  0  0  0  0  0  0  0  0  0
   -3.0829   -1.7604   -2.2962 C   0  0  0  0  0  0  0  0  0  0  0  0
   -1.3106   -0.8912   -0.9384 N   0  0  0  0  0  0  0  0  0  0  0  0
   -2.0690   -0.2406    0.0585 C   0  0  0  0  0  0  0  0  0  0  0  0
   -3.1351    0.4774   -0.1553 N   0  0  0  0  0  0  0  0  0  0  0  0
   -1.5968   -0.4224    1.5058 C   0  0  0  0  0  0  0  0  0  0  0  0
   -2.2133   -1.6575    2.0248 C   0  0  0  0  0  0  0  0  0  0  0  0
   -2.6888   -2.6274    2.4492 N   0  0  0  0  0  0  0  0  0  0  0  0
   -0.0604   -0.5006    1.6134 C   0  0  0  0  0  0  0  0  0  0  0  0
    0.5837    0.8865    1.7135 C   0  0  0  0  0  0  0  0  0  0  0  0
    1.4184    1.1762    2.8227 C   0  0  0  0  0  0  0  0  0  0  0  0
    2.0355    2.4236    2.9659 C   0  0  0  0  0  0  0  0  0  0  0  0
    1.8116    3.3643    1.9877 C   0  0  0  0  0  0  0  0  0  0  0  0
    1.0160    3.0966    0.9009 C   0  0  0  0  0  0  0  0  0  0  0  0
    0.3938    1.8759    0.7310 C   0  0  0  0  0  0  0  0  0  0  0  0
    0.9314    4.1524    0.0473 O   0  0  0  0  0  0  0  0  0  0  0  0
    1.7678    5.1148    0.7232 C   0  0  0  0  0  0  0  0  0  0  0  0
    2.3269    4.6217    1.9581 O   0  0  0  0  0  0  0  0  0  0  0  0
    0.5580   -1.3192    0.5013 C   0  0  0  0  0  0  0  0  0  0  0  0
   -0.0522   -1.4769   -0.6937 C   0  0  0  0  0  0  0  0  0  0  0  0
    0.6153   -2.2619   -1.8136 C   0  0  0  0  0  0  0  0  0  0  0  0
    2.1218   -2.4105   -1.6283 C   0  0  0  0  0  0  0  0  0  0  0  0
    2.4499   -2.9160   -0.2396 C   0  0  0  0  0  0  0  0  0  0  0  0
    1.8413   -2.0205    0.8103 C   0  0  0  0  0  0  0  0  0  0  0  0
    2.3455   -1.9247    1.9281 O   0  0  0  0  0  0  0  0  0  0  0  0
   -2.7318    0.9249   -2.5551 H   0  0  0  0  0  0  0  0  0  0  0  0
   -2.1076    0.1317   -4.0018 H   0  0  0  0  0  0  0  0  0  0  0  0
   -0.9833    0.8366   -2.8516 H   0  0  0  0  0  0  0  0  0  0  0  0
   -3.3420   -1.9974   -3.3344 H   0  0  0  0  0  0  0  0  0  0  0  0
   -3.9322   -1.2275   -1.8583 H   0  0  0  0  0  0  0  0  0  0  0  0
   -2.9720   -2.7187   -1.7760 H   0  0  0  0  0  0  0  0  0  0  0  0
   -3.5413    0.8470    0.7097 H   0  0  0  0  0  0  0  0  0  0  0  0
   -1.9675    0.4181    2.1075 H   0  0  0  0  0  0  0  0  0  0  0  0
    0.1464   -1.0144    2.5643 H   0  0  0  0  0  0  0  0  0  0  0  0
    1.6073    0.4147    3.5799 H   0  0  0  0  0  0  0  0  0  0  0  0
    2.6763    2.6389    3.8136 H   0  0  0  0  0  0  0  0  0  0  0  0
   -0.2095    1.7162   -0.1557 H   0  0  0  0  0  0  0  0  0  0  0  0
    2.5891    5.3964    0.0540 H   0  0  0  0  0  0  0  0  0  0  0  0
    1.1697    6.0072    0.9406 H   0  0  0  0  0  0  0  0  0  0  0  0
    0.4698   -1.7693   -2.7817 H   0  0  0  0  0  0  0  0  0  0  0  0
    0.1471   -3.2522   -1.8759 H   0  0  0  0  0  0  0  0  0  0  0  0
    2.6048   -1.4377   -1.7895 H   0  0  0  0  0  0  0  0  0  0  0  0
    2.5239   -3.0959   -2.3829 H   0  0  0  0  0  0  0  0  0  0  0  0
    2.0703   -3.9323   -0.0884 H   0  0  0  0  0  0  0  0  0  0  0  0
    3.5367   -2.9266   -0.1040 H   0  0  0  0  0  0  0  0  0  0  0  0
  1  2  1  0
  2  3  1  0
  2  4  1  0
  4  5  1  0
  5  6  2  3
  5  7  1  0
  7  8  1  0
  8  9  3  0
  7 10  1  0
 10 11  1  0
 11 12  2  0
 12 13  1  0
 13 14  2  0
 14 15  1  0
 15 16  2  0
 15 17  1  0
 17 18  1  0
 18 19  1  0
 10 20  1  0
 20 21  2  0
 21 22  1  0
 22 23  1  0
 23 24  1  0
 24 25  1  0
 25 26  2  0
 21  4  1  0
 16 11  1  0
 25 20  1  0
 19 14  1  0
  1 27  1  0
  1 28  1  0
  1 29  1  0
  3 30  1  0
  3 31  1  0
  3 32  1  0
  6 33  1  0
  7 34  1  0
 10 35  1  0
 12 36  1  0
 13 37  1  0
 16 38  1  0
 18 39  1  0
 18 40  1  0
 22 41  1  0
 22 42  1  0
 23 43  1  0
 23 44  1  0
 24 45  1  0
 24 46  1  0
M  END
$$$$
