
     RDKit          3D

 50 53  0  0  0  0  0  0  0  0999 V2000
    2.1585    3.7276    0.4794 C   0  0  0  0  0  0  0  0  0  0  0  0
    0.7465    3.2252    0.7575 C   0  0  0  0  0  0  0  0  0  0  0  0
    0.4999    1.7366    0.6150 C   0  0  0  0  0  0  0  0  0  0  0  0
    1.5013    0.8321    0.2282 C   0  0  0  0  0  0  0  0  0  0  0  0
    1.2406   -0.5408    0.1107 C   0  0  0  0  0  0  0  0  0  0  0  0
    2.2851   -1.5005   -0.2857 C   0  0  0  0  0  0  0  0  0  0  0  0
    3.6832   -1.1662   -0.6190 C   0  0  0  0  0  0  0  0  0  0  0  0
    4.0362   -0.8426   -1.9352 C   0  0  0  0  0  0  0  0  0  0  0  0
    5.3586   -0.5240   -2.2486 C   0  0  0  0  0  0  0  0  0  0  0  0
    6.3328   -0.5274   -1.2509 C   0  0  0  0  0  0  0  0  0  0  0  0
    5.9878   -0.8487    0.0615 C   0  0  0  0  0  0  0  0  0  0  0  0
    4.6664   -1.1679    0.3784 C   0  0  0  0  0  0  0  0  0  0  0  0
    1.9596   -2.8004   -0.3584 C   0  0  0  0  0  0  0  0  0  0  0  0
    0.6166   -3.3104   -0.0613 C   0  0  0  0  0  0  0  0  0  0  0  0
    0.3663   -4.5075   -0.1369 O   0  0  0  0  0  0  0  0  0  0  0  0
   -0.3395   -2.3795    0.3032 O   0  0  0  0  0  0  0  0  0  0  0  0
   -0.0491   -0.9998    0.3878 C   0  0  0  0  0  0  0  0  0  0  0  0
   -1.0923   -0.1382    0.7618 C   0  0  0  0  0  0  0  0  0  0  0  0
   -2.4590   -0.6891    1.1217 C   0  0  0  0  0  0  0  0  0  0  0  0
   -3.5784    0.1663    0.6594 N   0  0  0  0  0  0  0  0  0  0  0  0
   -3.6890    0.1204   -0.8258 C   0  0  0  0  0  0  0  0  0  0  0  0
   -5.1132    0.4348   -1.3070 C   0  0  0  0  0  0  0  0  0  0  0  0
   -6.0703   -0.5384   -0.8676 O   0  0  0  0  0  0  0  0  0  0  0  0
   -5.7121   -1.1640    0.3711 C   0  0  0  0  0  0  0  0  0  0  0  0
   -4.8611   -0.2582    1.2744 C   0  0  0  0  0  0  0  0  0  0  0  0
   -0.7857    1.2292    0.8746 C   0  0  0  0  0  0  0  0  0  0  0  0
   -1.7565    2.1291    1.2398 O   0  0  0  0  0  0  0  0  0  0  0  0
    2.8856    3.2718    1.1596 H   0  0  0  0  0  0  0  0  0  0  0  0
    2.2042    4.8125    0.6205 H   0  0  0  0  0  0  0  0  0  0  0  0
    2.4632    3.5126   -0.5502 H   0  0  0  0  0  0  0  0  0  0  0  0
    0.0645    3.7510    0.0773 H   0  0  0  0  0  0  0  0  0  0  0  0
    0.4842    3.5185    1.7818 H   0  0  0  0  0  0  0  0  0  0  0  0
    2.5033    1.1980    0.0183 H   0  0  0  0  0  0  0  0  0  0  0  0
    3.2848   -0.8334   -2.7215 H   0  0  0  0  0  0  0  0  0  0  0  0
    5.6290   -0.2724   -3.2711 H   0  0  0  0  0  0  0  0  0  0  0  0
    7.3624   -0.2789   -1.4964 H   0  0  0  0  0  0  0  0  0  0  0  0
    6.7482   -0.8499    0.8384 H   0  0  0  0  0  0  0  0  0  0  0  0
    4.4090   -1.4132    1.4064 H   0  0  0  0  0  0  0  0  0  0  0  0
    2.6772   -3.5629   -0.6436 H   0  0  0  0  0  0  0  0  0  0  0  0
   -2.5991   -1.7114    0.7513 H   0  0  0  0  0  0  0  0  0  0  0  0
   -2.4735   -0.7463    2.2184 H   0  0  0  0  0  0  0  0  0  0  0  0
   -2.9927    0.8447   -1.2618 H   0  0  0  0  0  0  0  0  0  0  0  0
   -3.4194   -0.8754   -1.2020 H   0  0  0  0  0  0  0  0  0  0  0  0
   -5.4372    1.4211   -0.9543 H   0  0  0  0  0  0  0  0  0  0  0  0
   -5.1455    0.4545   -2.4011 H   0  0  0  0  0  0  0  0  0  0  0  0
   -6.6424   -1.4346    0.8806 H   0  0  0  0  0  0  0  0  0  0  0  0
   -5.1826   -2.0965    0.1443 H   0  0  0  0  0  0  0  0  0  0  0  0
   -5.4305    0.6586    1.4735 H   0  0  0  0  0  0  0  0  0  0  0  0
   -4.7049   -0.7355    2.2488 H   0  0  0  0  0  0  0  0  0  0  0  0
   -2.6207    1.6692    1.1547 H   0  0  0  0  0  0  0  0  0  0  0  0
  1  2  1  0
  2  3  1  0
  3  4  2  0
  4  5  1  0
  5  6  1  0
  6  7  1  0
  7  8  2  0
  8  9  1  0
  9 10  2  0
 10 11  1  0
 11 12  2  0
  6 13  2  0
 13 14  1  0
 14 15  2  0
 14 16  1  0
 16 17  1  0
 17 18  1  0
 18 19  1  0
 19 20  1  0
 20 21  1  0
 21 22  1  0
 22 23  1  0
 23 24  1  0
 24 25  1  0
 18 26  2  0
 26 27  1  0
 26  3  1  0
 17  5  2  0
 25 20  1  0
 12  7  1  0
  1 28  1  0
  1 29  1  0
  1 30  1  0
  2 31  1  0
  2 32  1  0
  4 33  1  0
  8 34  1  0
  9 35  1  0
 10 36  1  0
 11 37  1  0
 12 38  1  0
 13 39  1  0
 19 40  1  0
 19 41  1  0
 21 42  1  0
 21 43  1  0
 22 44  1  0
 22 45  1  0
 24 46  1  0
 24 47  1  0
 25 48  1  0
 25 49  1  0
 27 50  1  0
M  END
$$$$
