
     RDKit          3D

 55 57  0  0  0  0  0  0  0  0999 V2000
   -7.3725   -2.5262    1.1503 C   0  0  0  0  0  0  0  0  0  0  0  0
   -6.7225   -1.2180    0.8079 C   0  0  0  0  0  0  0  0  0  0  0  0
   -7.4827   -0.1626    0.2970 C   0  0  0  0  0  0  0  0  0  0  0  0
   -6.8774    1.0500   -0.0421 C   0  0  0  0  0  0  0  0  0  0  0  0
   -5.4937    1.2301    0.1022 C   0  0  0  0  0  0  0  0  0  0  0  0
   -4.8840    2.5520   -0.2760 C   0  0  0  0  0  0  0  0  0  0  0  0
   -4.7264    0.1643    0.6069 C   0  0  0  0  0  0  0  0  0  0  0  0
   -3.2568    0.3015    0.7924 C   0  0  0  0  0  0  0  0  0  0  0  0
   -2.7960    1.3030    1.3355 O   0  0  0  0  0  0  0  0  0  0  0  0
   -2.3839   -0.8438    0.2859 C   0  0  0  0  0  0  0  0  0  0  0  0
   -1.0310   -0.4399    0.0664 O   0  0  0  0  0  0  0  0  0  0  0  0
   -0.8613    0.3528   -1.0205 C   0  0  0  0  0  0  0  0  0  0  0  0
   -1.7241    0.6335   -1.8378 O   0  0  0  0  0  0  0  0  0  0  0  0
    0.5448    0.8325   -1.1089 C   0  0  0  0  0  0  0  0  0  0  0  0
    0.8884    1.6734   -2.1721 C   0  0  0  0  0  0  0  0  0  0  0  0
    2.1938    2.1551   -2.3016 C   0  0  0  0  0  0  0  0  0  0  0  0
    3.1918    1.7999   -1.3794 C   0  0  0  0  0  0  0  0  0  0  0  0
    4.5688    2.3780   -1.5576 C   0  0  0  0  0  0  0  0  0  0  0  0
    2.8400    0.9483   -0.3133 C   0  0  0  0  0  0  0  0  0  0  0  0
    4.0347    0.4408    0.9165 S   0  0  0  0  0  6  0  0  0  0  0  0
    3.3717   -0.4306    1.8632 O   0  0  0  0  0  0  0  0  0  0  0  0
    4.7323    1.6244    1.3682 O   0  0  0  0  0  0  0  0  0  0  0  0
    5.1175   -0.5189    0.0204 N   0  0  0  0  0  0  0  0  0  0  0  0
    4.5875   -1.7951   -0.5540 C   0  0  0  0  0  0  0  0  0  0  0  0
    4.6333   -2.9475    0.4580 C   0  0  0  0  0  0  0  0  0  0  0  0
    5.9501   -3.1195    0.9996 O   0  0  0  0  0  0  0  0  0  0  0  0
    6.3805   -1.9203    1.6608 C   0  0  0  0  0  0  0  0  0  0  0  0
    6.4442   -0.7535    0.6726 C   0  0  0  0  0  0  0  0  0  0  0  0
    1.5233    0.4753   -0.1747 C   0  0  0  0  0  0  0  0  0  0  0  0
   -5.3395   -1.0516    0.9510 C   0  0  0  0  0  0  0  0  0  0  0  0
   -7.3609   -3.1886    0.2794 H   0  0  0  0  0  0  0  0  0  0  0  0
   -6.8486   -3.0177    1.9768 H   0  0  0  0  0  0  0  0  0  0  0  0
   -8.4100   -2.3766    1.4674 H   0  0  0  0  0  0  0  0  0  0  0  0
   -8.5573   -0.2725    0.1643 H   0  0  0  0  0  0  0  0  0  0  0  0
   -7.4980    1.8574   -0.4270 H   0  0  0  0  0  0  0  0  0  0  0  0
   -5.5841    3.1594   -0.8599 H   0  0  0  0  0  0  0  0  0  0  0  0
   -4.6181    3.1178    0.6221 H   0  0  0  0  0  0  0  0  0  0  0  0
   -3.9955    2.4074   -0.8989 H   0  0  0  0  0  0  0  0  0  0  0  0
   -2.8003   -1.2845   -0.6273 H   0  0  0  0  0  0  0  0  0  0  0  0
   -2.3605   -1.6186    1.0590 H   0  0  0  0  0  0  0  0  0  0  0  0
    0.1367    1.9689   -2.9029 H   0  0  0  0  0  0  0  0  0  0  0  0
    2.4234    2.8209   -3.1327 H   0  0  0  0  0  0  0  0  0  0  0  0
    4.6603    2.8936   -2.5203 H   0  0  0  0  0  0  0  0  0  0  0  0
    5.3327    1.5968   -1.5518 H   0  0  0  0  0  0  0  0  0  0  0  0
    4.7783    3.1130   -0.7751 H   0  0  0  0  0  0  0  0  0  0  0  0
    5.2226   -2.0419   -1.4142 H   0  0  0  0  0  0  0  0  0  0  0  0
    3.5738   -1.6635   -0.9420 H   0  0  0  0  0  0  0  0  0  0  0  0
    3.9248   -2.8068    1.2800 H   0  0  0  0  0  0  0  0  0  0  0  0
    4.3618   -3.8821   -0.0436 H   0  0  0  0  0  0  0  0  0  0  0  0
    5.7121   -1.7099    2.5028 H   0  0  0  0  0  0  0  0  0  0  0  0
    7.3777   -2.1118    2.0694 H   0  0  0  0  0  0  0  0  0  0  0  0
    6.8075    0.1546    1.1628 H   0  0  0  0  0  0  0  0  0  0  0  0
    7.1580   -0.9860   -0.1277 H   0  0  0  0  0  0  0  0  0  0  0  0
    1.2635   -0.1652    0.6659 H   0  0  0  0  0  0  0  0  0  0  0  0
   -4.7509   -1.8710    1.3565 H   0  0  0  0  0  0  0  0  0  0  0  0
  1  2  1  0
  2  3  2  0
  3  4  1  0
  4  5  2  0
  5  6  1  0
  5  7  1  0
  7  8  1  0
  8  9  2  0
  8 10  1  0
 10 11  1  0
 11 12  1  0
 12 13  2  0
 12 14  1  0
 14 15  2  0
 15 16  1  0
 16 17  2  0
 17 18  1  0
 17 19  1  0
 19 20  1  0
 20 21  2  0
 20 22  2  0
 20 23  1  0
 23 24  1  0
 24 25  1  0
 25 26  1  0
 26 27  1  0
 27 28  1  0
 19 29  2  0
  7 30  2  0
 30  2  1  0
 29 14  1  0
 28 23  1  0
  1 31  1  0
  1 32  1  0
  1 33  1  0
  3 34  1  0
  4 35  1  0
  6 36  1  0
  6 37  1  0
  6 38  1  0
 10 39  1  0
 10 40  1  0
 15 41  1  0
 16 42  1  0
 18 43  1  0
 18 44  1  0
 18 45  1  0
 24 46  1  0
 24 47  1  0
 25 48  1  0
 25 49  1  0
 27 50  1  0
 27 51  1  0
 28 52  1  0
 28 53  1  0
 29 54  1  0
 30 55  1  0
M  END
$$$$
