
     RDKit          3D

 63 67  0  0  0  0  0  0  0  0999 V2000
   -5.0891    6.1923    0.7196 C   0  0  0  0  0  0  0  0  0  0  0  0
   -3.7299    5.8262    0.9228 O   0  0  0  0  0  0  0  0  0  0  0  0
   -3.4136    4.5037    0.7629 C   0  0  0  0  0  0  0  0  0  0  0  0
   -2.0798    4.1966    1.0049 C   0  0  0  0  0  0  0  0  0  0  0  0
   -1.6103    2.8848    0.8815 C   0  0  0  0  0  0  0  0  0  0  0  0
   -2.4879    1.8387    0.5021 C   0  0  0  0  0  0  0  0  0  0  0  0
   -2.2492    0.4253    0.3098 C   0  0  0  0  0  0  0  0  0  0  0  0
   -0.9670   -0.2539    0.4556 C   0  0  0  0  0  0  0  0  0  0  0  0
   -0.7376   -1.1142    1.5315 C   0  0  0  0  0  0  0  0  0  0  0  0
    0.4969   -1.7545    1.6611 C   0  0  0  0  0  0  0  0  0  0  0  0
    1.5151   -1.5430    0.7268 C   0  0  0  0  0  0  0  0  0  0  0  0
    2.6668   -2.2321    0.9836 O   0  0  0  0  0  0  0  0  0  0  0  0
    3.7643   -2.1068    0.0745 C   0  0  0  0  0  0  0  0  0  0  0  0
    4.6317   -0.8872    0.4325 C   0  0  0  0  0  0  0  0  0  0  0  0
    5.8278   -0.7591   -0.4151 N   0  0  0  0  0  0  0  0  0  0  0  0
    5.5277   -0.2708   -1.7792 C   0  0  0  0  0  0  0  0  0  0  0  0
    5.8657    1.2142   -1.9935 C   0  0  0  0  0  0  0  0  0  0  0  0
    7.2447    1.5202   -1.7513 O   0  0  0  0  0  0  0  0  0  0  0  0
    7.8483    0.6601   -0.7748 C   0  0  0  0  0  0  0  0  0  0  0  0
    6.8333    0.1098    0.2371 C   0  0  0  0  0  0  0  0  0  0  0  0
    1.2869   -0.6780   -0.3434 C   0  0  0  0  0  0  0  0  0  0  0  0
    0.0506   -0.0351   -0.4784 C   0  0  0  0  0  0  0  0  0  0  0  0
   -3.3968   -0.2589   -0.0544 C   0  0  0  0  0  0  0  0  0  0  0  0
   -3.5887   -1.6827   -0.3611 C   0  0  0  0  0  0  0  0  0  0  0  0
   -3.2772   -2.1400   -1.6521 C   0  0  0  0  0  0  0  0  0  0  0  0
   -3.4336   -3.4842   -1.9845 C   0  0  0  0  0  0  0  0  0  0  0  0
   -3.8995   -4.3824   -1.0291 C   0  0  0  0  0  0  0  0  0  0  0  0
   -4.2090   -3.9418    0.2611 C   0  0  0  0  0  0  0  0  0  0  0  0
   -4.0573   -2.5940    0.6081 C   0  0  0  0  0  0  0  0  0  0  0  0
   -4.3217   -2.0799    1.8532 O   0  0  0  0  0  0  0  0  0  0  0  0
   -4.8645   -2.9602    2.8267 C   0  0  0  0  0  0  0  0  0  0  0  0
   -4.7441    0.7851   -0.1772 S   0  0  0  0  0  0  0  0  0  0  0  0
   -3.8234    2.1684    0.2660 C   0  0  0  0  0  0  0  0  0  0  0  0
   -4.3016    3.4925    0.3901 C   0  0  0  0  0  0  0  0  0  0  0  0
   -5.1752    7.2685    0.8978 H   0  0  0  0  0  0  0  0  0  0  0  0
   -5.3992    5.9998   -0.3127 H   0  0  0  0  0  0  0  0  0  0  0  0
   -5.7463    5.6833    1.4325 H   0  0  0  0  0  0  0  0  0  0  0  0
   -1.3903    4.9848    1.2984 H   0  0  0  0  0  0  0  0  0  0  0  0
   -0.5638    2.6713    1.0854 H   0  0  0  0  0  0  0  0  0  0  0  0
   -1.5151   -1.2935    2.2706 H   0  0  0  0  0  0  0  0  0  0  0  0
    0.6653   -2.4266    2.4992 H   0  0  0  0  0  0  0  0  0  0  0  0
    3.4304   -2.1230   -0.9684 H   0  0  0  0  0  0  0  0  0  0  0  0
    4.3693   -3.0130    0.2029 H   0  0  0  0  0  0  0  0  0  0  0  0
    4.0385    0.0357    0.4145 H   0  0  0  0  0  0  0  0  0  0  0  0
    4.9356   -1.0169    1.4806 H   0  0  0  0  0  0  0  0  0  0  0  0
    4.4860   -0.4522   -2.0635 H   0  0  0  0  0  0  0  0  0  0  0  0
    6.1428   -0.8638   -2.4677 H   0  0  0  0  0  0  0  0  0  0  0  0
    5.2542    1.8482   -1.3407 H   0  0  0  0  0  0  0  0  0  0  0  0
    5.6437    1.5038   -3.0258 H   0  0  0  0  0  0  0  0  0  0  0  0
    8.6187    1.2415   -0.2583 H   0  0  0  0  0  0  0  0  0  0  0  0
    8.3558   -0.1553   -1.3034 H   0  0  0  0  0  0  0  0  0  0  0  0
    6.3413    0.9602    0.7280 H   0  0  0  0  0  0  0  0  0  0  0  0
    7.3577   -0.4672    1.0066 H   0  0  0  0  0  0  0  0  0  0  0  0
    2.0429   -0.4757   -1.0929 H   0  0  0  0  0  0  0  0  0  0  0  0
   -0.1141    0.6339   -1.3201 H   0  0  0  0  0  0  0  0  0  0  0  0
   -2.9094   -1.4442   -2.4029 H   0  0  0  0  0  0  0  0  0  0  0  0
   -3.1901   -3.8288   -2.9862 H   0  0  0  0  0  0  0  0  0  0  0  0
   -4.0197   -5.4321   -1.2859 H   0  0  0  0  0  0  0  0  0  0  0  0
   -4.5617   -4.6794    0.9739 H   0  0  0  0  0  0  0  0  0  0  0  0
   -5.0502   -2.3796    3.7358 H   0  0  0  0  0  0  0  0  0  0  0  0
   -5.8226   -3.3748    2.4961 H   0  0  0  0  0  0  0  0  0  0  0  0
   -4.1536   -3.7536    3.0790 H   0  0  0  0  0  0  0  0  0  0  0  0
   -5.3488    3.6895    0.1930 H   0  0  0  0  0  0  0  0  0  0  0  0
  1  2  1  0
  2  3  1  0
  3  4  2  0
  4  5  1  0
  5  6  2  0
  6  7  1  0
  7  8  1  0
  8  9  2  0
  9 10  1  0
 10 11  2  0
 11 12  1  0
 12 13  1  0
 13 14  1  0
 14 15  1  0
 15 16  1  0
 16 17  1  0
 17 18  1  0
 18 19  1  0
 19 20  1  0
 11 21  1  0
 21 22  2  0
  7 23  2  0
 23 24  1  0
 24 25  2  0
 25 26  1  0
 26 27  2  0
 27 28  1  0
 28 29  2  0
 29 30  1  0
 30 31  1  0
 23 32  1  0
 32 33  1  0
 33 34  2  0
 34  3  1  0
 33  6  1  0
 22  8  1  0
 29 24  1  0
 20 15  1  0
  1 35  1  0
  1 36  1  0
  1 37  1  0
  4 38  1  0
  5 39  1  0
  9 40  1  0
 10 41  1  0
 13 42  1  0
 13 43  1  0
 14 44  1  0
 14 45  1  0
 16 46  1  0
 16 47  1  0
 17 48  1  0
 17 49  1  0
 19 50  1  0
 19 51  1  0
 20 52  1  0
 20 53  1  0
 21 54  1  0
 22 55  1  0
 25 56  1  0
 26 57  1  0
 27 58  1  0
 28 59  1  0
 31 60  1  0
 31 61  1  0
 31 62  1  0
 34 63  1  0
M  END
$$$$
