
     RDKit          3D

 49 52  0  0  0  0  0  0  0  0999 V2000
   -0.1611    0.3154    3.7731 C   0  0  0  0  0  0  0  0  0  0  0  0
    0.0889    0.5124    2.2791 C   0  0  0  0  0  0  0  0  0  0  0  0
    1.4919    0.2776    1.9738 N   0  0  0  0  0  0  0  0  0  0  0  0
    2.1104    0.9300    0.9391 C   0  0  0  0  0  0  0  0  0  0  0  0
    1.6287    1.8865    0.3438 O   0  0  0  0  0  0  0  0  0  0  0  0
    3.4240    0.3399    0.5864 C   0  0  0  0  0  0  0  0  0  0  0  0
    4.2004    0.9606   -0.3135 C   0  0  0  0  0  0  0  0  0  0  0  0
    5.4672    0.4542   -0.7168 C   0  0  0  0  0  0  0  0  0  0  0  0
    6.1519   -0.7095   -0.3744 C   0  0  0  0  0  0  0  0  0  0  0  0
    7.3823   -0.7195   -1.0757 C   0  0  0  0  0  0  0  0  0  0  0  0
    7.3994    0.4347   -1.8145 C   0  0  0  0  0  0  0  0  0  0  0  0
    6.2631    1.1418   -1.6101 O   0  0  0  0  0  0  0  0  0  0  0  0
   -0.6911   -0.4838    1.4607 C   0  0  0  0  0  0  0  0  0  0  0  0
   -0.7856   -1.7670    1.7646 N   0  0  0  0  0  0  0  0  0  0  0  0
   -1.4711   -2.3514    0.7374 C   0  0  0  0  0  0  0  0  0  0  0  0
   -1.8270   -3.6982    0.5691 C   0  0  0  0  0  0  0  0  0  0  0  0
   -2.5001   -4.0799   -0.5952 C   0  0  0  0  0  0  0  0  0  0  0  0
   -2.8075   -3.1377   -1.5745 C   0  0  0  0  0  0  0  0  0  0  0  0
   -2.4633   -1.7890   -1.4189 C   0  0  0  0  0  0  0  0  0  0  0  0
   -1.8015   -1.4180   -0.2401 C   0  0  0  0  0  0  0  0  0  0  0  0
   -1.3298   -0.2158    0.2582 N   0  0  0  0  0  0  0  0  0  0  0  0
   -1.3846    1.0756   -0.4311 C   0  0  0  0  0  0  0  0  0  0  0  0
   -2.7844    1.5243   -0.8011 C   0  0  0  0  0  0  0  0  0  0  0  0
   -3.1507    1.7551   -2.1437 C   0  0  0  0  0  0  0  0  0  0  0  0
   -2.0400    1.5694   -3.4594 Cl  0  0  0  0  0  0  0  0  0  0  0  0
   -4.4474    2.1595   -2.4858 C   0  0  0  0  0  0  0  0  0  0  0  0
   -5.4044    2.3625   -1.4981 C   0  0  0  0  0  0  0  0  0  0  0  0
   -5.0585    2.1792   -0.1640 C   0  0  0  0  0  0  0  0  0  0  0  0
   -3.7629    1.7767    0.1832 C   0  0  0  0  0  0  0  0  0  0  0  0
   -3.4290    1.6589    1.8780 Cl  0  0  0  0  0  0  0  0  0  0  0  0
   -1.2211    0.4457    4.0161 H   0  0  0  0  0  0  0  0  0  0  0  0
    0.1398   -0.6834    4.1096 H   0  0  0  0  0  0  0  0  0  0  0  0
    0.4145    1.0414    4.3583 H   0  0  0  0  0  0  0  0  0  0  0  0
   -0.1690    1.5446    2.0341 H   0  0  0  0  0  0  0  0  0  0  0  0
    1.8414   -0.6283    2.2583 H   0  0  0  0  0  0  0  0  0  0  0  0
    3.7098   -0.5865    1.0680 H   0  0  0  0  0  0  0  0  0  0  0  0
    3.8804    1.8951   -0.7719 H   0  0  0  0  0  0  0  0  0  0  0  0
    5.8023   -1.4734    0.3060 H   0  0  0  0  0  0  0  0  0  0  0  0
    8.1560   -1.4735   -1.0450 H   0  0  0  0  0  0  0  0  0  0  0  0
    8.1080    0.8771   -2.5020 H   0  0  0  0  0  0  0  0  0  0  0  0
   -1.5722   -4.4247    1.3324 H   0  0  0  0  0  0  0  0  0  0  0  0
   -2.7775   -5.1212   -0.7379 H   0  0  0  0  0  0  0  0  0  0  0  0
   -3.3235   -3.4544   -2.4784 H   0  0  0  0  0  0  0  0  0  0  0  0
   -2.7066   -1.0780   -2.1971 H   0  0  0  0  0  0  0  0  0  0  0  0
   -0.7180    0.9635   -1.2911 H   0  0  0  0  0  0  0  0  0  0  0  0
   -0.9441    1.8531    0.1942 H   0  0  0  0  0  0  0  0  0  0  0  0
   -4.7153    2.3226   -3.5282 H   0  0  0  0  0  0  0  0  0  0  0  0
   -6.4102    2.6756   -1.7648 H   0  0  0  0  0  0  0  0  0  0  0  0
   -5.8028    2.3605    0.6097 H   0  0  0  0  0  0  0  0  0  0  0  0
  1  2  1  0
  2  3  1  0
  3  4  1  0
  4  5  2  0
  4  6  1  0
  6  7  2  3
  7  8  1  0
  8  9  2  0
  9 10  1  0
 10 11  2  0
 11 12  1  0
  2 13  1  0
 13 14  2  0
 14 15  1  0
 15 16  2  0
 16 17  1  0
 17 18  2  0
 18 19  1  0
 19 20  2  0
 20 21  1  0
 21 22  1  0
 22 23  1  0
 23 24  2  0
 24 25  1  0
 24 26  1  0
 26 27  2  0
 27 28  1  0
 28 29  2  0
 29 30  1  0
 12  8  1  0
 21 13  1  0
 29 23  1  0
 20 15  1  0
  1 31  1  0
  1 32  1  0
  1 33  1  0
  2 34  1  0
  3 35  1  0
  6 36  1  0
  7 37  1  0
  9 38  1  0
 10 39  1  0
 11 40  1  0
 16 41  1  0
 17 42  1  0
 18 43  1  0
 19 44  1  0
 22 45  1  0
 22 46  1  0
 26 47  1  0
 27 48  1  0
 28 49  1  0
M  END
$$$$
