
     RDKit          3D

 55 58  0  0  0  0  0  0  0  0999 V2000
    1.2350   -5.4976   -1.8783 C   0  0  0  0  0  0  0  0  0  0  0  0
    1.7257   -4.1989   -1.5627 O   0  0  0  0  0  0  0  0  0  0  0  0
    1.2272   -3.1737   -2.3231 C   0  0  0  0  0  0  0  0  0  0  0  0
    0.9460   -3.3391   -3.6850 C   0  0  0  0  0  0  0  0  0  0  0  0
    0.4104   -2.2931   -4.4301 C   0  0  0  0  0  0  0  0  0  0  0  0
    0.1551   -1.0689   -3.8214 C   0  0  0  0  0  0  0  0  0  0  0  0
    0.4534   -0.8612   -2.4622 C   0  0  0  0  0  0  0  0  0  0  0  0
    0.1591    0.5029   -1.8684 C   0  0  0  0  0  0  0  0  0  0  0  0
    1.4301    1.2780   -1.4984 C   0  0  0  0  0  0  0  0  0  0  0  0
    0.9859    2.0459   -0.2795 C   0  0  0  0  0  0  0  0  0  0  0  0
    1.7967    3.1549    0.2764 C   0  0  0  0  0  0  0  0  0  0  0  0
    3.1054    3.3908   -0.1626 C   0  0  0  0  0  0  0  0  0  0  0  0
    3.8441    4.4470    0.3795 C   0  0  0  0  0  0  0  0  0  0  0  0
    3.2788    5.2712    1.3550 C   0  0  0  0  0  0  0  0  0  0  0  0
    1.9770    5.0383    1.7971 C   0  0  0  0  0  0  0  0  0  0  0  0
    1.2374    3.9806    1.2623 C   0  0  0  0  0  0  0  0  0  0  0  0
   -0.1370    1.6605    0.2438 N   0  0  0  0  0  0  0  0  0  0  0  0
   -0.6197    0.5126   -0.6070 N   0  0  0  0  0  0  0  0  0  0  0  0
   -2.3106    0.3233   -0.7926 S   0  0  0  0  0  6  0  0  0  0  0  0
   -2.5835   -0.9399   -1.4526 O   0  0  0  0  0  0  0  0  0  0  0  0
   -2.8507    1.5566   -1.3349 O   0  0  0  0  0  0  0  0  0  0  0  0
   -2.8484    0.1659    0.8945 C   0  0  0  0  0  0  0  0  0  0  0  0
   -3.3343    1.2818    1.5799 C   0  0  0  0  0  0  0  0  0  0  0  0
   -3.7853    1.1374    2.8930 C   0  0  0  0  0  0  0  0  0  0  0  0
   -3.7718   -0.1195    3.5154 C   0  0  0  0  0  0  0  0  0  0  0  0
   -4.2317   -0.2615    4.9356 C   0  0  0  0  0  0  0  0  0  0  0  0
   -3.2776   -1.2290    2.8157 C   0  0  0  0  0  0  0  0  0  0  0  0
   -2.8233   -1.0912    1.5036 C   0  0  0  0  0  0  0  0  0  0  0  0
    1.0218   -1.9185   -1.7164 C   0  0  0  0  0  0  0  0  0  0  0  0
    1.2746   -1.6335   -0.3966 O   0  0  0  0  0  0  0  0  0  0  0  0
    2.4048   -2.2578    0.1965 C   0  0  0  0  0  0  0  0  0  0  0  0
    1.4053   -6.1374   -1.0044 H   0  0  0  0  0  0  0  0  0  0  0  0
    1.7947   -5.9222   -2.7191 H   0  0  0  0  0  0  0  0  0  0  0  0
    0.1588   -5.4977   -2.0844 H   0  0  0  0  0  0  0  0  0  0  0  0
    1.1376   -4.2807   -4.1891 H   0  0  0  0  0  0  0  0  0  0  0  0
    0.1785   -2.4373   -5.4818 H   0  0  0  0  0  0  0  0  0  0  0  0
   -0.2879   -0.2745   -4.4185 H   0  0  0  0  0  0  0  0  0  0  0  0
   -0.3876    1.1126   -2.6018 H   0  0  0  0  0  0  0  0  0  0  0  0
    1.7336    1.9469   -2.3113 H   0  0  0  0  0  0  0  0  0  0  0  0
    2.2768    0.6375   -1.2263 H   0  0  0  0  0  0  0  0  0  0  0  0
    3.5745    2.7623   -0.9164 H   0  0  0  0  0  0  0  0  0  0  0  0
    4.8625    4.6279    0.0413 H   0  0  0  0  0  0  0  0  0  0  0  0
    3.8538    6.0958    1.7721 H   0  0  0  0  0  0  0  0  0  0  0  0
    1.5344    5.6796    2.5557 H   0  0  0  0  0  0  0  0  0  0  0  0
    0.2220    3.8098    1.6165 H   0  0  0  0  0  0  0  0  0  0  0  0
   -3.3533    2.2593    1.1033 H   0  0  0  0  0  0  0  0  0  0  0  0
   -4.1500    2.0119    3.4295 H   0  0  0  0  0  0  0  0  0  0  0  0
   -4.5915   -1.2754    5.1297 H   0  0  0  0  0  0  0  0  0  0  0  0
   -5.0639    0.4214    5.1411 H   0  0  0  0  0  0  0  0  0  0  0  0
   -3.4078   -0.0402    5.6210 H   0  0  0  0  0  0  0  0  0  0  0  0
   -3.2440   -2.2092    3.2888 H   0  0  0  0  0  0  0  0  0  0  0  0
   -2.4479   -1.9566    0.9643 H   0  0  0  0  0  0  0  0  0  0  0  0
    2.1332   -3.2345    0.6096 H   0  0  0  0  0  0  0  0  0  0  0  0
    2.7225   -1.6304    1.0365 H   0  0  0  0  0  0  0  0  0  0  0  0
    3.2510   -2.3330   -0.4964 H   0  0  0  0  0  0  0  0  0  0  0  0
  1  2  1  0
  2  3  1  0
  3  4  2  0
  4  5  1  0
  5  6  2  0
  6  7  1  0
  7  8  1  0
  8  9  1  0
  9 10  1  0
 10 11  1  0
 11 12  2  0
 12 13  1  0
 13 14  2  0
 14 15  1  0
 15 16  2  0
 10 17  2  0
 17 18  1  0
 18 19  1  0
 19 20  2  0
 19 21  2  0
 19 22  1  0
 22 23  2  0
 23 24  1  0
 24 25  2  0
 25 26  1  0
 25 27  1  0
 27 28  2  0
  7 29  2  0
 29 30  1  0
 30 31  1  0
 29  3  1  0
 18  8  1  0
 28 22  1  0
 16 11  1  0
  1 32  1  0
  1 33  1  0
  1 34  1  0
  4 35  1  0
  5 36  1  0
  6 37  1  0
  8 38  1  0
  9 39  1  0
  9 40  1  0
 12 41  1  0
 13 42  1  0
 14 43  1  0
 15 44  1  0
 16 45  1  0
 23 46  1  0
 24 47  1  0
 26 48  1  0
 26 49  1  0
 26 50  1  0
 27 51  1  0
 28 52  1  0
 31 53  1  0
 31 54  1  0
 31 55  1  0
M  END
$$$$
