
     RDKit          3D

 53 57  0  0  0  0  0  0  0  0999 V2000
    3.4995    1.8977    1.9957 C   0  0  0  0  0  0  0  0  0  0  0  0
    3.6346    0.7077    2.9030 C   0  0  0  0  0  0  0  0  0  0  0  0
    4.4543    0.8297    4.0396 C   0  0  0  0  0  0  0  0  0  0  0  0
    4.6128   -0.2297    4.9351 C   0  0  0  0  0  0  0  0  0  0  0  0
    3.9501   -1.4321    4.7161 C   0  0  0  0  0  0  0  0  0  0  0  0
    3.1228   -1.5740    3.6035 C   0  0  0  0  0  0  0  0  0  0  0  0
    2.9564   -0.5099    2.7007 C   0  0  0  0  0  0  0  0  0  0  0  0
    1.8731   -0.7775    1.3026 S   0  0  0  0  0  6  0  0  0  0  0  0
    1.2505   -2.0762    1.4821 O   0  0  0  0  0  0  0  0  0  0  0  0
    2.6136   -0.4849    0.0970 O   0  0  0  0  0  0  0  0  0  0  0  0
    0.6376    0.3364    1.5921 N   0  0  0  0  0  0  0  0  0  0  0  0
    0.1494    0.9570    0.4015 C   0  0  0  0  0  0  0  0  0  0  0  0
    0.8738    2.0059   -0.0281 N   0  0  0  0  0  0  0  0  0  0  0  0
    0.4085    2.6186   -1.1286 C   0  0  0  0  0  0  0  0  0  0  0  0
    1.1092    3.6967   -1.6543 C   0  0  0  0  0  0  0  0  0  0  0  0
    0.6612    4.3691   -2.7921 C   0  0  0  0  0  0  0  0  0  0  0  0
   -0.5094    3.9569   -3.4156 C   0  0  0  0  0  0  0  0  0  0  0  0
   -1.2221    2.8748   -2.8968 C   0  0  0  0  0  0  0  0  0  0  0  0
   -0.7865    2.1961   -1.7658 C   0  0  0  0  0  0  0  0  0  0  0  0
   -1.5097    1.1574   -1.3015 N   0  0  0  0  0  0  0  0  0  0  0  0
   -1.0365    0.5057   -0.2216 C   0  0  0  0  0  0  0  0  0  0  0  0
   -1.7334   -0.5946    0.3246 N   0  0  0  0  0  0  0  0  0  0  0  0
   -3.1907   -0.4148    0.4075 C   0  0  0  0  0  0  0  0  0  0  0  0
   -3.9324   -0.5993   -0.9175 C   0  0  0  0  0  0  0  0  0  0  0  0
   -3.4506   -1.7943   -1.6931 C   0  0  0  0  0  0  0  0  0  0  0  0
   -4.2342   -2.3051   -2.7386 C   0  0  0  0  0  0  0  0  0  0  0  0
   -3.7891   -3.3897   -3.4924 C   0  0  0  0  0  0  0  0  0  0  0  0
   -2.5550   -3.9686   -3.2135 C   0  0  0  0  0  0  0  0  0  0  0  0
   -1.7649   -3.4601   -2.1825 C   0  0  0  0  0  0  0  0  0  0  0  0
   -2.1969   -2.3626   -1.4182 C   0  0  0  0  0  0  0  0  0  0  0  0
   -1.3108   -1.8679   -0.2936 C   0  0  0  0  0  0  0  0  0  0  0  0
    3.6581    1.6267    0.9498 H   0  0  0  0  0  0  0  0  0  0  0  0
    2.5192    2.3624    2.1263 H   0  0  0  0  0  0  0  0  0  0  0  0
    4.2514    2.6600    2.2310 H   0  0  0  0  0  0  0  0  0  0  0  0
    4.9821    1.7617    4.2368 H   0  0  0  0  0  0  0  0  0  0  0  0
    5.2560   -0.1129    5.8039 H   0  0  0  0  0  0  0  0  0  0  0  0
    4.0750   -2.2577    5.4117 H   0  0  0  0  0  0  0  0  0  0  0  0
    2.6121   -2.5224    3.4503 H   0  0  0  0  0  0  0  0  0  0  0  0
   -0.1392   -0.2043    1.9855 H   0  0  0  0  0  0  0  0  0  0  0  0
    2.0271    4.0166   -1.1665 H   0  0  0  0  0  0  0  0  0  0  0  0
    1.2279    5.2086   -3.1871 H   0  0  0  0  0  0  0  0  0  0  0  0
   -0.8690    4.4704   -4.3039 H   0  0  0  0  0  0  0  0  0  0  0  0
   -2.1369    2.5489   -3.3868 H   0  0  0  0  0  0  0  0  0  0  0  0
   -3.4362    0.5622    0.8438 H   0  0  0  0  0  0  0  0  0  0  0  0
   -3.5663   -1.1587    1.1234 H   0  0  0  0  0  0  0  0  0  0  0  0
   -5.0018   -0.7102   -0.6990 H   0  0  0  0  0  0  0  0  0  0  0  0
   -3.8311    0.2895   -1.5489 H   0  0  0  0  0  0  0  0  0  0  0  0
   -5.1958   -1.8540   -2.9727 H   0  0  0  0  0  0  0  0  0  0  0  0
   -4.4032   -3.7793   -4.2993 H   0  0  0  0  0  0  0  0  0  0  0  0
   -2.2047   -4.8134   -3.8000 H   0  0  0  0  0  0  0  0  0  0  0  0
   -0.8012   -3.9229   -1.9774 H   0  0  0  0  0  0  0  0  0  0  0  0
   -1.3294   -2.6318    0.4937 H   0  0  0  0  0  0  0  0  0  0  0  0
   -0.2791   -1.8077   -0.6622 H   0  0  0  0  0  0  0  0  0  0  0  0
  1  2  1  0
  2  3  2  0
  3  4  1  0
  4  5  2  0
  5  6  1  0
  6  7  2  0
  7  8  1  0
  8  9  2  0
  8 10  2  0
  8 11  1  0
 11 12  1  0
 12 13  2  0
 13 14  1  0
 14 15  2  0
 15 16  1  0
 16 17  2  0
 17 18  1  0
 18 19  2  0
 19 20  1  0
 20 21  2  0
 21 22  1  0
 22 23  1  0
 23 24  1  0
 24 25  1  0
 25 26  2  0
 26 27  1  0
 27 28  2  0
 28 29  1  0
 29 30  2  0
 30 31  1  0
  7  2  1  0
 21 12  1  0
 31 22  1  0
 19 14  1  0
 30 25  1  0
  1 32  1  0
  1 33  1  0
  1 34  1  0
  3 35  1  0
  4 36  1  0
  5 37  1  0
  6 38  1  0
 11 39  1  0
 15 40  1  0
 16 41  1  0
 17 42  1  0
 18 43  1  0
 23 44  1  0
 23 45  1  0
 24 46  1  0
 24 47  1  0
 26 48  1  0
 27 49  1  0
 28 50  1  0
 29 51  1  0
 31 52  1  0
 31 53  1  0
M  END
$$$$
