
     RDKit          3D

 41 42  0  0  0  0  0  0  0  0999 V2000
   -7.0156    0.6438    0.5636 C   0  0  0  0  0  0  0  0  0  0  0  0
   -6.1372   -0.4695    0.5279 O   0  0  0  0  0  0  0  0  0  0  0  0
   -4.8778   -0.2702    0.0190 C   0  0  0  0  0  0  0  0  0  0  0  0
   -4.4244    0.9351   -0.5253 C   0  0  0  0  0  0  0  0  0  0  0  0
   -3.1210    1.0459   -1.0199 C   0  0  0  0  0  0  0  0  0  0  0  0
   -2.2512   -0.0496   -0.9885 C   0  0  0  0  0  0  0  0  0  0  0  0
   -0.8544    0.0634   -1.5548 C   0  0  0  0  0  0  0  0  0  0  0  0
    0.2629   -0.0664   -0.5385 C   0  0  0  0  0  0  0  0  0  0  0  0
    0.1653   -0.5881    0.5654 O   0  0  0  0  0  0  0  0  0  0  0  0
    1.4094    0.4486   -1.1084 O   0  0  0  0  0  0  0  0  0  0  0  0
    2.4867    0.3376   -0.2098 N   0  0  0  0  0  0  0  0  0  0  0  0
    3.5771    0.8472   -0.7028 C   0  0  0  0  0  0  0  0  0  0  0  0
    3.6517    1.3977   -1.9641 N   0  0  0  0  0  0  0  0  0  0  0  0
    4.8141    0.8083    0.1441 C   0  0  0  0  0  0  0  0  0  0  0  0
    4.8999   -0.0937    1.2120 C   0  0  0  0  0  0  0  0  0  0  0  0
    6.0529   -0.1455    1.9971 C   0  0  0  0  0  0  0  0  0  0  0  0
    7.1226    0.7055    1.7228 C   0  0  0  0  0  0  0  0  0  0  0  0
    7.0387    1.6158    0.6692 C   0  0  0  0  0  0  0  0  0  0  0  0
    5.8860    1.6724   -0.1175 C   0  0  0  0  0  0  0  0  0  0  0  0
   -2.7083   -1.2605   -0.4458 C   0  0  0  0  0  0  0  0  0  0  0  0
   -4.0060   -1.3736    0.0702 C   0  0  0  0  0  0  0  0  0  0  0  0
   -4.5124   -2.5316    0.6095 O   0  0  0  0  0  0  0  0  0  0  0  0
   -3.5625   -3.4529    1.1307 C   0  0  0  0  0  0  0  0  0  0  0  0
   -6.6053    1.4552    1.1744 H   0  0  0  0  0  0  0  0  0  0  0  0
   -7.9495    0.3174    1.0314 H   0  0  0  0  0  0  0  0  0  0  0  0
   -7.2525    0.9896   -0.4480 H   0  0  0  0  0  0  0  0  0  0  0  0
   -5.0612    1.8115   -0.5807 H   0  0  0  0  0  0  0  0  0  0  0  0
   -2.7983    1.9981   -1.4360 H   0  0  0  0  0  0  0  0  0  0  0  0
   -0.7159   -0.7139   -2.3156 H   0  0  0  0  0  0  0  0  0  0  0  0
   -0.7492    1.0335   -2.0567 H   0  0  0  0  0  0  0  0  0  0  0  0
    2.8500    1.1516   -2.5332 H   0  0  0  0  0  0  0  0  0  0  0  0
    4.5260    1.2349   -2.4518 H   0  0  0  0  0  0  0  0  0  0  0  0
    4.0705   -0.7615    1.4374 H   0  0  0  0  0  0  0  0  0  0  0  0
    6.1122   -0.8479    2.8246 H   0  0  0  0  0  0  0  0  0  0  0  0
    8.0182    0.6652    2.3375 H   0  0  0  0  0  0  0  0  0  0  0  0
    7.8683    2.2881    0.4669 H   0  0  0  0  0  0  0  0  0  0  0  0
    5.8258    2.4111   -0.9124 H   0  0  0  0  0  0  0  0  0  0  0  0
   -2.0329   -2.1110   -0.4326 H   0  0  0  0  0  0  0  0  0  0  0  0
   -2.8380   -2.9602    1.7890 H   0  0  0  0  0  0  0  0  0  0  0  0
   -4.1071   -4.1908    1.7284 H   0  0  0  0  0  0  0  0  0  0  0  0
   -3.0579   -3.9905    0.3212 H   0  0  0  0  0  0  0  0  0  0  0  0
  1  2  1  0
  2  3  1  0
  3  4  2  0
  4  5  1  0
  5  6  2  0
  6  7  1  0
  7  8  1  0
  8  9  2  0
  8 10  1  0
 10 11  1  0
 11 12  2  3
 12 13  1  0
 12 14  1  0
 14 15  2  0
 15 16  1  0
 16 17  2  0
 17 18  1  0
 18 19  2  0
  6 20  1  0
 20 21  2  0
 21 22  1  0
 22 23  1  0
 21  3  1  0
 19 14  1  0
  1 24  1  0
  1 25  1  0
  1 26  1  0
  4 27  1  0
  5 28  1  0
  7 29  1  0
  7 30  1  0
 13 31  1  0
 13 32  1  0
 15 33  1  0
 16 34  1  0
 17 35  1  0
 18 36  1  0
 19 37  1  0
 20 38  1  0
 23 39  1  0
 23 40  1  0
 23 41  1  0
M  END
$$$$
