
     RDKit          3D

 39 41  0  0  0  0  0  0  0  0999 V2000
   -1.3057   -2.6368   -1.8148 O   0  0  0  0  0  0  0  0  0  0  0  0
   -0.3658   -1.8633   -1.8356 C   0  0  0  0  0  0  0  0  0  0  0  0
    0.5497   -1.6902   -2.8629 N   0  0  0  0  0  0  0  0  0  0  0  0
    1.6339   -0.9717   -2.3573 N   0  0  0  0  0  0  0  0  0  0  0  0
    1.2252   -0.4818   -1.1300 C   0  0  0  0  0  0  0  0  0  0  0  0
    2.0520    0.4823   -0.4111 C   0  0  0  0  0  0  0  0  0  0  0  0
    1.7964    1.8506   -0.5929 C   0  0  0  0  0  0  0  0  0  0  0  0
    2.5538    2.8104    0.0820 C   0  0  0  0  0  0  0  0  0  0  0  0
    3.5731    2.4119    0.9444 C   0  0  0  0  0  0  0  0  0  0  0  0
    3.8342    1.0553    1.1337 C   0  0  0  0  0  0  0  0  0  0  0  0
    3.0767    0.0967    0.4624 C   0  0  0  0  0  0  0  0  0  0  0  0
    3.4004   -1.2065    0.7189 O   0  0  0  0  0  0  0  0  0  0  0  0
    0.0388   -0.9650   -0.7247 C   0  0  0  0  0  0  0  0  0  0  0  0
   -0.7313   -0.7672    0.5458 C   0  0  0  0  0  0  0  0  0  0  0  0
   -1.0734   -2.0745    1.2765 C   0  0  0  0  0  0  0  0  0  0  0  0
    0.1835   -2.6061    1.9000 N   0  0  0  0  0  4  0  0  0  0  0  0
    1.0250   -3.1138    1.1453 O   0  0  0  0  0  0  0  0  0  0  0  0
    0.2969   -2.4840    3.1253 O   0  0  0  0  0  1  0  0  0  0  0  0
   -1.9688    0.0964    0.3138 C   0  0  0  0  0  0  0  0  0  0  0  0
   -1.9318    1.4610    0.6491 C   0  0  0  0  0  0  0  0  0  0  0  0
   -3.0441    2.2784    0.4405 C   0  0  0  0  0  0  0  0  0  0  0  0
   -4.2066    1.7467   -0.1108 C   0  0  0  0  0  0  0  0  0  0  0  0
   -4.2570    0.3985   -0.4561 C   0  0  0  0  0  0  0  0  0  0  0  0
   -3.1465   -0.4221   -0.2472 C   0  0  0  0  0  0  0  0  0  0  0  0
    0.7092   -2.4618   -3.5026 H   0  0  0  0  0  0  0  0  0  0  0  0
    1.9954   -0.2373   -2.9714 H   0  0  0  0  0  0  0  0  0  0  0  0
    1.0026    2.1784   -1.2618 H   0  0  0  0  0  0  0  0  0  0  0  0
    2.3502    3.8681   -0.0658 H   0  0  0  0  0  0  0  0  0  0  0  0
    4.1661    3.1555    1.4709 H   0  0  0  0  0  0  0  0  0  0  0  0
    4.6273    0.7410    1.8074 H   0  0  0  0  0  0  0  0  0  0  0  0
    2.7742   -1.8086    0.2756 H   0  0  0  0  0  0  0  0  0  0  0  0
   -0.0929   -0.1951    1.2356 H   0  0  0  0  0  0  0  0  0  0  0  0
   -1.4718   -2.8701    0.6416 H   0  0  0  0  0  0  0  0  0  0  0  0
   -1.7807   -1.9072    2.0977 H   0  0  0  0  0  0  0  0  0  0  0  0
   -1.0347    1.9020    1.0804 H   0  0  0  0  0  0  0  0  0  0  0  0
   -3.0029    3.3311    0.7086 H   0  0  0  0  0  0  0  0  0  0  0  0
   -5.0725    2.3828   -0.2748 H   0  0  0  0  0  0  0  0  0  0  0  0
   -5.1616   -0.0163   -0.8943 H   0  0  0  0  0  0  0  0  0  0  0  0
   -3.2166   -1.4678   -0.5415 H   0  0  0  0  0  0  0  0  0  0  0  0
  1  2  2  0
  2  3  1  0
  3  4  1  0
  4  5  1  0
  5  6  1  0
  6  7  2  0
  7  8  1  0
  8  9  2  0
  9 10  1  0
 10 11  2  0
 11 12  1  0
  5 13  2  0
 13 14  1  0
 14 15  1  0
 15 16  1  0
 16 17  2  0
 16 18  1  0
 14 19  1  0
 19 20  2  0
 20 21  1  0
 21 22  2  0
 22 23  1  0
 23 24  2  0
 13  2  1  0
 24 19  1  0
 11  6  1  0
  3 25  1  0
  4 26  1  0
  7 27  1  0
  8 28  1  0
  9 29  1  0
 10 30  1  0
 12 31  1  0
 14 32  1  0
 15 33  1  0
 15 34  1  0
 20 35  1  0
 21 36  1  0
 22 37  1  0
 23 38  1  0
 24 39  1  0
M  CHG  2  16   1  18  -1
M  END
$$$$
