
     RDKit          3D

 59 62  0  0  0  0  0  0  0  0999 V2000
    5.6758    4.2802   -1.3888 C   0  0  0  0  0  0  0  0  0  0  0  0
    4.4786    3.8583   -0.5631 C   0  0  0  0  0  0  0  0  0  0  0  0
    3.8261    2.7438   -1.1770 O   0  0  0  0  0  0  0  0  0  0  0  0
    3.9821    1.5285   -0.5691 C   0  0  0  0  0  0  0  0  0  0  0  0
    2.9230    0.6348   -0.7333 C   0  0  0  0  0  0  0  0  0  0  0  0
    2.9607   -0.6281   -0.1359 C   0  0  0  0  0  0  0  0  0  0  0  0
    4.0724   -1.0196    0.6211 C   0  0  0  0  0  0  0  0  0  0  0  0
    4.0844   -2.3554    1.3321 C   0  0  0  0  0  0  0  0  0  0  0  0
    3.8949   -2.2047    2.8466 C   0  0  0  0  0  0  0  0  0  0  0  0
    2.6281   -1.5812    3.1871 N   0  0  0  0  0  0  0  0  0  0  0  0
    1.4695   -2.3214    3.2985 C   0  0  0  0  0  0  0  0  0  0  0  0
    1.4434   -3.5491    3.2729 O   0  0  0  0  0  0  0  0  0  0  0  0
    0.2112   -1.4804    3.4318 C   0  0  0  0  0  0  0  0  0  0  0  0
   -0.3923   -1.1522    2.0880 C   0  0  0  0  0  0  0  0  0  0  0  0
   -1.0003   -2.1626    1.3277 C   0  0  0  0  0  0  0  0  0  0  0  0
   -1.5163   -1.8822    0.0609 C   0  0  0  0  0  0  0  0  0  0  0  0
   -1.4427   -0.5901   -0.4630 C   0  0  0  0  0  0  0  0  0  0  0  0
   -1.9283   -0.3013   -1.7432 N   0  0  0  0  0  0  0  0  0  0  0  0
   -3.1944   -0.1574   -1.8994 C   0  0  0  0  0  0  0  0  0  0  0  0
   -4.2356   -0.2063   -0.9923 N   0  0  0  0  0  0  0  0  0  0  0  0
   -5.4214    0.4476   -1.5054 C   0  0  0  0  0  0  0  0  0  0  0  0
   -6.7545    0.0658   -0.9137 C   0  0  0  0  0  0  0  0  0  0  0  0
   -7.8858    0.6168   -2.2051 S   0  0  0  0  0  6  0  0  0  0  0  0
   -8.3508    1.9447   -1.8642 O   0  0  0  0  0  0  0  0  0  0  0  0
   -8.7939   -0.4676   -2.5105 O   0  0  0  0  0  0  0  0  0  0  0  0
   -6.6751    0.7600   -3.5405 C   0  0  0  0  0  0  0  0  0  0  0  0
   -5.5100   -0.0068   -2.9664 C   0  0  0  0  0  0  0  0  0  0  0  0
   -3.8106    0.2334   -3.5316 S   0  0  0  0  0  0  0  0  0  0  0  0
   -0.8313    0.4153    0.2886 C   0  0  0  0  0  0  0  0  0  0  0  0
   -0.3126    0.1423    1.5577 C   0  0  0  0  0  0  0  0  0  0  0  0
    5.1545   -0.1374    0.7417 C   0  0  0  0  0  0  0  0  0  0  0  0
    5.1114    1.1278    0.1458 C   0  0  0  0  0  0  0  0  0  0  0  0
    6.4148    3.4773   -1.4584 H   0  0  0  0  0  0  0  0  0  0  0  0
    6.1591    5.1593   -0.9489 H   0  0  0  0  0  0  0  0  0  0  0  0
    5.3699    4.5221   -2.4128 H   0  0  0  0  0  0  0  0  0  0  0  0
    4.7507    3.6821    0.4836 H   0  0  0  0  0  0  0  0  0  0  0  0
    3.7542    4.6797   -0.5519 H   0  0  0  0  0  0  0  0  0  0  0  0
    2.0526    0.9249   -1.3183 H   0  0  0  0  0  0  0  0  0  0  0  0
    2.1086   -1.2968   -0.2589 H   0  0  0  0  0  0  0  0  0  0  0  0
    3.3023   -3.0027    0.9184 H   0  0  0  0  0  0  0  0  0  0  0  0
    5.0390   -2.8579    1.1301 H   0  0  0  0  0  0  0  0  0  0  0  0
    3.9505   -3.1901    3.3242 H   0  0  0  0  0  0  0  0  0  0  0  0
    4.6819   -1.5771    3.2795 H   0  0  0  0  0  0  0  0  0  0  0  0
    2.5374   -0.5955    2.9653 H   0  0  0  0  0  0  0  0  0  0  0  0
   -0.5136   -2.0305    4.0425 H   0  0  0  0  0  0  0  0  0  0  0  0
    0.4394   -0.5655    3.9906 H   0  0  0  0  0  0  0  0  0  0  0  0
   -1.0513   -3.1825    1.7100 H   0  0  0  0  0  0  0  0  0  0  0  0
   -1.9663   -2.6800   -0.5270 H   0  0  0  0  0  0  0  0  0  0  0  0
   -3.9570   -0.0195   -0.0330 H   0  0  0  0  0  0  0  0  0  0  0  0
   -5.2896    1.5383   -1.4307 H   0  0  0  0  0  0  0  0  0  0  0  0
   -6.9772    0.5843    0.0220 H   0  0  0  0  0  0  0  0  0  0  0  0
   -6.8678   -1.0150   -0.7865 H   0  0  0  0  0  0  0  0  0  0  0  0
   -6.4575    1.8230   -3.6860 H   0  0  0  0  0  0  0  0  0  0  0  0
   -7.0788    0.3162   -4.4530 H   0  0  0  0  0  0  0  0  0  0  0  0
   -5.7123   -1.0859   -3.0247 H   0  0  0  0  0  0  0  0  0  0  0  0
   -0.7407    1.4144   -0.1308 H   0  0  0  0  0  0  0  0  0  0  0  0
    0.1743    0.9455    2.1098 H   0  0  0  0  0  0  0  0  0  0  0  0
    6.0400   -0.4284    1.3035 H   0  0  0  0  0  0  0  0  0  0  0  0
    5.9770    1.7754    0.2440 H   0  0  0  0  0  0  0  0  0  0  0  0
  1  2  1  0
  2  3  1  0
  3  4  1  0
  4  5  2  0
  5  6  1  0
  6  7  2  0
  7  8  1  0
  8  9  1  0
  9 10  1  0
 10 11  1  0
 11 12  2  0
 11 13  1  0
 13 14  1  0
 14 15  2  0
 15 16  1  0
 16 17  2  0
 17 18  1  0
 18 19  2  3
 19 20  1  0
 20 21  1  0
 21 22  1  0
 22 23  1  0
 23 24  2  0
 23 25  2  0
 23 26  1  0
 26 27  1  0
 27 28  1  0
 17 29  1  0
 29 30  2  0
  7 31  1  0
 31 32  2  0
 32  4  1  0
 30 14  1  0
 28 19  1  0
 27 21  1  0
  1 33  1  0
  1 34  1  0
  1 35  1  0
  2 36  1  0
  2 37  1  0
  5 38  1  0
  6 39  1  0
  8 40  1  0
  8 41  1  0
  9 42  1  0
  9 43  1  0
 10 44  1  0
 13 45  1  0
 13 46  1  0
 15 47  1  0
 16 48  1  0
 20 49  1  0
 21 50  1  0
 22 51  1  0
 22 52  1  0
 26 53  1  0
 26 54  1  0
 27 55  1  0
 29 56  1  0
 30 57  1  0
 31 58  1  0
 32 59  1  0
M  END
$$$$
