
     RDKit          3D

 39 40  0  0  0  0  0  0  0  0999 V2000
   -3.4887   -1.4267   -2.0992 C   0  0  0  0  0  0  0  0  0  0  0  0
   -2.5371   -0.2770   -1.8047 C   0  0  0  0  0  0  0  0  0  0  0  0
   -2.6090    0.1411   -0.4021 N   0  0  0  0  0  0  0  0  0  0  0  0
   -3.5511    1.2196   -0.0815 C   0  0  0  0  0  0  0  0  0  0  0  0
   -3.0361    2.5910   -0.4951 C   0  0  0  0  0  0  0  0  0  0  0  0
   -1.8106   -0.5326    0.5143 C   0  0  0  0  0  0  0  0  0  0  0  0
   -1.0411   -1.4388    0.1651 O   0  0  0  0  0  0  0  0  0  0  0  0
   -1.8731   -0.1733    1.9894 C   0  0  0  0  0  0  0  0  0  0  0  0
   -0.9201    1.2978    2.4250 S   0  0  0  0  0  0  0  0  0  0  0  0
    0.4615    1.2396    1.3838 C   0  0  0  0  0  0  0  0  0  0  0  0
    0.8186    2.2125    0.5771 N   0  0  0  0  0  0  0  0  0  0  0  0
    1.9753    1.8256   -0.0586 N   0  0  0  0  0  0  0  0  0  0  0  0
    2.3308    0.6380    0.4019 C   0  0  0  0  0  0  0  0  0  0  0  0
    3.5182   -0.1037   -0.0083 C   0  0  0  0  0  0  0  0  0  0  0  0
    3.7883   -0.2748   -1.3671 C   0  0  0  0  0  0  0  0  0  0  0  0
    4.9237   -0.9774   -1.7311 C   0  0  0  0  0  0  0  0  0  0  0  0
    5.7949   -1.5034   -0.8443 N   0  0  0  0  0  0  0  0  0  0  0  0
    5.5315   -1.3009    0.4631 C   0  0  0  0  0  0  0  0  0  0  0  0
    4.4210   -0.6152    0.9266 C   0  0  0  0  0  0  0  0  0  0  0  0
    1.3670    0.2075    1.2978 N   0  0  0  0  0  0  0  0  0  0  0  0
    1.2671   -1.0997    1.9118 N   0  0  0  0  0  0  0  0  0  0  0  0
   -4.5261   -1.1408   -1.8977 H   0  0  0  0  0  0  0  0  0  0  0  0
   -3.2579   -2.3004   -1.4811 H   0  0  0  0  0  0  0  0  0  0  0  0
   -3.4136   -1.7222   -3.1501 H   0  0  0  0  0  0  0  0  0  0  0  0
   -2.7667    0.5745   -2.4527 H   0  0  0  0  0  0  0  0  0  0  0  0
   -1.5127   -0.5879   -2.0396 H   0  0  0  0  0  0  0  0  0  0  0  0
   -3.7749    1.2360    0.9860 H   0  0  0  0  0  0  0  0  0  0  0  0
   -4.4960    1.0059   -0.5938 H   0  0  0  0  0  0  0  0  0  0  0  0
   -3.7482    3.3665   -0.1962 H   0  0  0  0  0  0  0  0  0  0  0  0
   -2.0724    2.8150   -0.0305 H   0  0  0  0  0  0  0  0  0  0  0  0
   -2.9030    2.6605   -1.5788 H   0  0  0  0  0  0  0  0  0  0  0  0
   -2.9096   -0.0668    2.3189 H   0  0  0  0  0  0  0  0  0  0  0  0
   -1.4812   -1.0225    2.5605 H   0  0  0  0  0  0  0  0  0  0  0  0
    3.1291    0.1316   -2.1281 H   0  0  0  0  0  0  0  0  0  0  0  0
    5.1712   -1.1384   -2.7766 H   0  0  0  0  0  0  0  0  0  0  0  0
    6.2640   -1.7133    1.1516 H   0  0  0  0  0  0  0  0  0  0  0  0
    4.2845   -0.4693    1.9932 H   0  0  0  0  0  0  0  0  0  0  0  0
    0.5629   -1.6376    1.3889 H   0  0  0  0  0  0  0  0  0  0  0  0
    2.1197   -1.6400    1.7829 H   0  0  0  0  0  0  0  0  0  0  0  0
  1  2  1  0
  2  3  1  0
  3  4  1  0
  4  5  1  0
  3  6  1  0
  6  7  2  0
  6  8  1  0
  8  9  1  0
  9 10  1  0
 10 11  2  0
 11 12  1  0
 12 13  2  0
 13 14  1  0
 14 15  2  0
 15 16  1  0
 16 17  2  0
 17 18  1  0
 18 19  2  0
 13 20  1  0
 20 21  1  0
 20 10  1  0
 19 14  1  0
  1 22  1  0
  1 23  1  0
  1 24  1  0
  2 25  1  0
  2 26  1  0
  4 27  1  0
  4 28  1  0
  5 29  1  0
  5 30  1  0
  5 31  1  0
  8 32  1  0
  8 33  1  0
 15 34  1  0
 16 35  1  0
 18 36  1  0
 19 37  1  0
 21 38  1  0
 21 39  1  0
M  END
$$$$
