
     RDKit          3D

 53 56  0  0  0  0  0  0  0  0999 V2000
    6.0865    2.3441    1.3931 C   0  0  0  0  0  0  0  0  0  0  0  0
    5.4044    1.1338    0.8302 C   0  0  0  0  0  0  0  0  0  0  0  0
    4.0296    1.0185    0.8867 C   0  0  0  0  0  0  0  0  0  0  0  0
    3.4450   -0.1247    0.3425 C   0  0  0  0  0  0  0  0  0  0  0  0
    1.9643   -0.1745    0.3638 C   0  0  0  0  0  0  0  0  0  0  0  0
    1.3935   -0.0350    1.4367 O   0  0  0  0  0  0  0  0  0  0  0  0
    1.3871   -0.2923   -0.8864 N   0  0  0  0  0  0  0  0  0  0  0  0
    0.0133   -0.3947   -1.1832 C   0  0  0  0  0  0  0  0  0  0  0  0
   -0.3548   -0.3342   -2.5297 C   0  0  0  0  0  0  0  0  0  0  0  0
   -1.6978   -0.4169   -2.9082 C   0  0  0  0  0  0  0  0  0  0  0  0
   -2.7111   -0.5635   -1.9495 C   0  0  0  0  0  0  0  0  0  0  0  0
   -4.1345   -0.6617   -2.4232 C   0  0  0  0  0  0  0  0  0  0  0  0
   -2.3325   -0.6502   -0.5964 C   0  0  0  0  0  0  0  0  0  0  0  0
   -3.5386   -0.9040    0.6981 S   0  0  0  0  0  6  0  0  0  0  0  0
   -2.8519   -1.0847    1.9599 O   0  0  0  0  0  0  0  0  0  0  0  0
   -4.4934   -1.8880    0.2341 O   0  0  0  0  0  0  0  0  0  0  0  0
   -4.3265    0.6081    0.7779 N   0  0  0  0  0  0  0  0  0  0  0  0
   -3.4842    1.7557    1.2565 C   0  0  0  0  0  0  0  0  0  0  0  0
   -3.8585    2.1570    2.6863 C   0  0  0  0  0  0  0  0  0  0  0  0
   -5.2187    2.6005    2.8025 O   0  0  0  0  0  0  0  0  0  0  0  0
   -6.1082    1.9446    1.8872 C   0  0  0  0  0  0  0  0  0  0  0  0
   -5.6427    0.5398    1.4943 C   0  0  0  0  0  0  0  0  0  0  0  0
   -0.9792   -0.5694   -0.2202 C   0  0  0  0  0  0  0  0  0  0  0  0
    4.2336   -1.1604   -0.2074 C   0  0  0  0  0  0  0  0  0  0  0  0
    3.7335   -2.3898   -0.7108 C   0  0  0  0  0  0  0  0  0  0  0  0
    4.5900   -3.3497   -1.2465 C   0  0  0  0  0  0  0  0  0  0  0  0
    5.9545   -3.1033   -1.2801 C   0  0  0  0  0  0  0  0  0  0  0  0
    6.4534   -1.9041   -0.7665 C   0  0  0  0  0  0  0  0  0  0  0  0
    5.6228   -0.9328   -0.2237 C   0  0  0  0  0  0  0  0  0  0  0  0
    6.1864    0.1852    0.2668 N   0  0  0  0  0  0  0  0  0  0  0  0
    5.7548    3.2438    0.8660 H   0  0  0  0  0  0  0  0  0  0  0  0
    5.8583    2.4464    2.4586 H   0  0  0  0  0  0  0  0  0  0  0  0
    7.1730    2.2655    1.2838 H   0  0  0  0  0  0  0  0  0  0  0  0
    3.4194    1.7965    1.3355 H   0  0  0  0  0  0  0  0  0  0  0  0
    2.0142   -0.2447   -1.6814 H   0  0  0  0  0  0  0  0  0  0  0  0
    0.3950   -0.2129   -3.3082 H   0  0  0  0  0  0  0  0  0  0  0  0
   -1.9474   -0.3645   -3.9670 H   0  0  0  0  0  0  0  0  0  0  0  0
   -4.7957   -0.0178   -1.8376 H   0  0  0  0  0  0  0  0  0  0  0  0
   -4.2272   -0.3315   -3.4642 H   0  0  0  0  0  0  0  0  0  0  0  0
   -4.4812   -1.6982   -2.3746 H   0  0  0  0  0  0  0  0  0  0  0  0
   -2.4172    1.5235    1.2063 H   0  0  0  0  0  0  0  0  0  0  0  0
   -3.6644    2.5916    0.5700 H   0  0  0  0  0  0  0  0  0  0  0  0
   -3.7143    1.3207    3.3798 H   0  0  0  0  0  0  0  0  0  0  0  0
   -3.2192    2.9777    3.0267 H   0  0  0  0  0  0  0  0  0  0  0  0
   -7.0924    1.8974    2.3643 H   0  0  0  0  0  0  0  0  0  0  0  0
   -6.2038    2.5815    0.9999 H   0  0  0  0  0  0  0  0  0  0  0  0
   -6.3816    0.0822    0.8281 H   0  0  0  0  0  0  0  0  0  0  0  0
   -5.5430   -0.0756    2.3963 H   0  0  0  0  0  0  0  0  0  0  0  0
   -0.7195   -0.6573    0.8313 H   0  0  0  0  0  0  0  0  0  0  0  0
    2.6706   -2.6211   -0.6688 H   0  0  0  0  0  0  0  0  0  0  0  0
    4.1930   -4.2886   -1.6246 H   0  0  0  0  0  0  0  0  0  0  0  0
    6.6369   -3.8433   -1.6903 H   0  0  0  0  0  0  0  0  0  0  0  0
    7.5266   -1.7247   -0.7821 H   0  0  0  0  0  0  0  0  0  0  0  0
  1  2  1  0
  2  3  2  0
  3  4  1  0
  4  5  1  0
  5  6  2  0
  5  7  1  0
  7  8  1  0
  8  9  2  0
  9 10  1  0
 10 11  2  0
 11 12  1  0
 11 13  1  0
 13 14  1  0
 14 15  2  0
 14 16  2  0
 14 17  1  0
 17 18  1  0
 18 19  1  0
 19 20  1  0
 20 21  1  0
 21 22  1  0
 13 23  2  0
  4 24  2  0
 24 25  1  0
 25 26  2  0
 26 27  1  0
 27 28  2  0
 28 29  1  0
 29 30  2  0
 30  2  1  0
 23  8  1  0
 29 24  1  0
 22 17  1  0
  1 31  1  0
  1 32  1  0
  1 33  1  0
  3 34  1  0
  7 35  1  0
  9 36  1  0
 10 37  1  0
 12 38  1  0
 12 39  1  0
 12 40  1  0
 18 41  1  0
 18 42  1  0
 19 43  1  0
 19 44  1  0
 21 45  1  0
 21 46  1  0
 22 47  1  0
 22 48  1  0
 23 49  1  0
 25 50  1  0
 26 51  1  0
 27 52  1  0
 28 53  1  0
M  END
$$$$
