
     RDKit          3D

 53 56  0  0  0  0  0  0  0  0999 V2000
    4.7405   -1.5407    2.9264 C   0  0  0  0  0  0  0  0  0  0  0  0
    4.3790   -0.8094    1.7017 N   0  0  0  0  0  0  0  0  0  0  0  0
    5.3305    0.1033    1.1764 C   0  0  0  0  0  0  0  0  0  0  0  0
    6.6442    0.2131    1.6633 C   0  0  0  0  0  0  0  0  0  0  0  0
    7.5605    1.1164    1.1091 C   0  0  0  0  0  0  0  0  0  0  0  0
    7.1884    1.9270    0.0428 C   0  0  0  0  0  0  0  0  0  0  0  0
    5.9028    1.8285   -0.4742 C   0  0  0  0  0  0  0  0  0  0  0  0
    4.9913    0.9248    0.0829 C   0  0  0  0  0  0  0  0  0  0  0  0
    2.9749   -0.6289    1.6112 C   0  0  0  0  0  0  0  0  0  0  0  0
    2.3719    0.4960    2.1988 C   0  0  0  0  0  0  0  0  0  0  0  0
    0.9915    0.7109    2.1020 C   0  0  0  0  0  0  0  0  0  0  0  0
    0.1788   -0.1907    1.4062 C   0  0  0  0  0  0  0  0  0  0  0  0
   -1.2616    0.0653    1.3042 C   0  0  0  0  0  0  0  0  0  0  0  0
   -1.9020    0.4774    0.1901 C   0  0  0  0  0  0  0  0  0  0  0  0
   -1.1970    0.7548   -1.0210 C   0  0  0  0  0  0  0  0  0  0  0  0
   -0.6627    0.9480   -2.0329 N   0  0  0  0  0  0  0  0  0  0  0  0
   -3.3036    0.7188    0.2960 C   0  0  0  0  0  0  0  0  0  0  0  0
   -3.9632    1.2612    1.3025 N   0  0  0  0  0  0  0  0  0  0  0  0
   -5.2813    1.3584    0.9625 N   0  0  0  0  0  0  0  0  0  0  0  0
   -5.4377    0.8528   -0.2419 C   0  0  0  0  0  0  0  0  0  0  0  0
   -4.2219    0.3773   -0.6852 N   0  0  0  0  0  0  0  0  0  0  0  0
   -3.9694   -0.3621   -1.9098 C   0  0  0  0  0  0  0  0  0  0  0  0
   -5.1385   -1.1935   -2.4317 C   0  0  0  0  0  0  0  0  0  0  0  0
   -6.1963   -0.3720   -3.1671 C   0  0  0  0  0  0  0  0  0  0  0  0
   -6.6010    0.9328   -2.4822 C   0  0  0  0  0  0  0  0  0  0  0  0
   -6.7385    0.8023   -0.9708 C   0  0  0  0  0  0  0  0  0  0  0  0
    0.7514   -1.3207    0.8188 C   0  0  0  0  0  0  0  0  0  0  0  0
    2.1350   -1.5261    0.9332 C   0  0  0  0  0  0  0  0  0  0  0  0
    2.6866   -2.7028    0.2920 N   0  0  0  0  0  4  0  0  0  0  0  0
    2.5488   -2.7874   -0.9366 O   0  0  0  0  0  0  0  0  0  0  0  0
    3.1804   -3.5737    1.0228 O   0  0  0  0  0  1  0  0  0  0  0  0
    5.6269   -2.1629    2.7583 H   0  0  0  0  0  0  0  0  0  0  0  0
    3.9477   -2.2265    3.2511 H   0  0  0  0  0  0  0  0  0  0  0  0
    4.9318   -0.8507    3.7571 H   0  0  0  0  0  0  0  0  0  0  0  0
    6.9956   -0.3997    2.4875 H   0  0  0  0  0  0  0  0  0  0  0  0
    8.5684    1.1787    1.5116 H   0  0  0  0  0  0  0  0  0  0  0  0
    7.9002    2.6245   -0.3899 H   0  0  0  0  0  0  0  0  0  0  0  0
    5.6044    2.4461   -1.3174 H   0  0  0  0  0  0  0  0  0  0  0  0
    4.0032    0.8637   -0.3671 H   0  0  0  0  0  0  0  0  0  0  0  0
    2.9856    1.2212    2.7310 H   0  0  0  0  0  0  0  0  0  0  0  0
    0.5627    1.5983    2.5658 H   0  0  0  0  0  0  0  0  0  0  0  0
   -1.8116   -0.0808    2.2346 H   0  0  0  0  0  0  0  0  0  0  0  0
   -3.1514   -1.0594   -1.6984 H   0  0  0  0  0  0  0  0  0  0  0  0
   -3.6291    0.3584   -2.6614 H   0  0  0  0  0  0  0  0  0  0  0  0
   -4.7541   -1.9460   -3.1317 H   0  0  0  0  0  0  0  0  0  0  0  0
   -5.6024   -1.7522   -1.6090 H   0  0  0  0  0  0  0  0  0  0  0  0
   -5.8389   -0.1359   -4.1771 H   0  0  0  0  0  0  0  0  0  0  0  0
   -7.0857   -1.0006   -3.2997 H   0  0  0  0  0  0  0  0  0  0  0  0
   -5.8818    1.7227   -2.7333 H   0  0  0  0  0  0  0  0  0  0  0  0
   -7.5622    1.2506   -2.9051 H   0  0  0  0  0  0  0  0  0  0  0  0
   -7.2784   -0.1136   -0.7036 H   0  0  0  0  0  0  0  0  0  0  0  0
   -7.3512    1.6394   -0.6120 H   0  0  0  0  0  0  0  0  0  0  0  0
    0.1384   -2.0363    0.2748 H   0  0  0  0  0  0  0  0  0  0  0  0
  1  2  1  0
  2  3  1  0
  3  4  2  0
  4  5  1  0
  5  6  2  0
  6  7  1  0
  7  8  2  0
  2  9  1  0
  9 10  2  0
 10 11  1  0
 11 12  2  0
 12 13  1  0
 13 14  2  3
 14 15  1  0
 15 16  3  0
 14 17  1  0
 17 18  2  0
 18 19  1  0
 19 20  2  0
 20 21  1  0
 21 22  1  0
 22 23  1  0
 23 24  1  0
 24 25  1  0
 25 26  1  0
 12 27  1  0
 27 28  2  0
 28 29  1  0
 29 30  2  0
 29 31  1  0
  8  3  1  0
 28  9  1  0
 21 17  1  0
 26 20  1  0
  1 32  1  0
  1 33  1  0
  1 34  1  0
  4 35  1  0
  5 36  1  0
  6 37  1  0
  7 38  1  0
  8 39  1  0
 10 40  1  0
 11 41  1  0
 13 42  1  0
 22 43  1  0
 22 44  1  0
 23 45  1  0
 23 46  1  0
 24 47  1  0
 24 48  1  0
 25 49  1  0
 25 50  1  0
 26 51  1  0
 26 52  1  0
 27 53  1  0
M  CHG  2  29   1  31  -1
M  END
$$$$
