
     RDKit          3D

 42 44  0  0  0  0  0  0  0  0999 V2000
   -2.1844    1.3602   -3.7454 C   0  0  0  0  0  0  0  0  0  0  0  0
   -2.7785    0.7580   -2.5347 C   0  0  0  0  0  0  0  0  0  0  0  0
   -4.1338    0.6669   -2.5411 O   0  0  0  0  0  0  0  0  0  0  0  0
   -4.5718    0.1425   -1.3470 N   0  0  0  0  0  0  0  0  0  0  0  0
   -3.4744   -0.0750   -0.6084 C   0  0  0  0  0  0  0  0  0  0  0  0
   -3.5772   -0.6438    0.7258 C   0  0  0  0  0  0  0  0  0  0  0  0
   -3.0962   -1.9388    0.9483 C   0  0  0  0  0  0  0  0  0  0  0  0
   -2.5364   -2.6338   -0.0552 F   0  0  0  0  0  0  0  0  0  0  0  0
   -3.1766   -2.5407    2.2025 C   0  0  0  0  0  0  0  0  0  0  0  0
   -3.7437   -1.8445    3.2661 C   0  0  0  0  0  0  0  0  0  0  0  0
   -4.2204   -0.5476    3.0676 C   0  0  0  0  0  0  0  0  0  0  0  0
   -4.1369    0.0540    1.8044 C   0  0  0  0  0  0  0  0  0  0  0  0
   -4.7105    1.6800    1.6605 Cl  0  0  0  0  0  0  0  0  0  0  0  0
   -2.2945    0.2700   -1.3362 C   0  0  0  0  0  0  0  0  0  0  0  0
   -0.9236    0.1737   -0.8789 C   0  0  0  0  0  0  0  0  0  0  0  0
   -0.6271    0.2752    0.3098 O   0  0  0  0  0  0  0  0  0  0  0  0
    0.0170   -0.0697   -1.8698 N   0  0  0  0  0  0  0  0  0  0  0  0
    1.3839   -0.1775   -1.7557 C   0  0  0  0  0  0  0  0  0  0  0  0
    2.2575   -0.4679   -3.1469 S   0  0  0  0  0  0  0  0  0  0  0  0
    1.8966   -0.0388   -0.4966 N   0  0  0  0  0  0  0  0  0  0  0  0
    3.3038   -0.0258   -0.1036 C   0  0  0  0  0  0  0  0  0  0  0  0
    3.4650   -0.3348    1.3895 C   0  0  0  0  0  0  0  0  0  0  0  0
    4.9362   -0.1066    1.7025 C   0  0  0  0  0  0  0  0  0  0  0  0
    5.4041    1.3111    0.7236 S   0  0  0  0  0  6  0  0  0  0  0  0
    6.5574    0.9555   -0.0760 O   0  0  0  0  0  0  0  0  0  0  0  0
    5.3817    2.4862    1.5694 O   0  0  0  0  0  0  0  0  0  0  0  0
    3.9608    1.3360   -0.3227 C   0  0  0  0  0  0  0  0  0  0  0  0
   -1.3254    1.9877   -3.4887 H   0  0  0  0  0  0  0  0  0  0  0  0
   -1.8516    0.5791   -4.4355 H   0  0  0  0  0  0  0  0  0  0  0  0
   -2.9101    1.9903   -4.2697 H   0  0  0  0  0  0  0  0  0  0  0  0
   -2.7959   -3.5486    2.3393 H   0  0  0  0  0  0  0  0  0  0  0  0
   -3.8111   -2.3059    4.2486 H   0  0  0  0  0  0  0  0  0  0  0  0
   -4.6543   -0.0043    3.9047 H   0  0  0  0  0  0  0  0  0  0  0  0
   -0.3160   -0.2350   -2.8086 H   0  0  0  0  0  0  0  0  0  0  0  0
    1.2098    0.1753    0.2301 H   0  0  0  0  0  0  0  0  0  0  0  0
    3.8388   -0.7903   -0.6804 H   0  0  0  0  0  0  0  0  0  0  0  0
    3.1566   -1.3566    1.6334 H   0  0  0  0  0  0  0  0  0  0  0  0
    2.8448    0.3454    1.9875 H   0  0  0  0  0  0  0  0  0  0  0  0
    5.5441   -0.9555    1.3763 H   0  0  0  0  0  0  0  0  0  0  0  0
    5.1138    0.0970    2.7603 H   0  0  0  0  0  0  0  0  0  0  0  0
    3.3158    2.1557    0.0092 H   0  0  0  0  0  0  0  0  0  0  0  0
    4.2628    1.5040   -1.3586 H   0  0  0  0  0  0  0  0  0  0  0  0
  1  2  1  0
  2  3  1  0
  3  4  1  0
  4  5  2  0
  5  6  1  0
  6  7  2  0
  7  8  1  0
  7  9  1  0
  9 10  2  0
 10 11  1  0
 11 12  2  0
 12 13  1  0
  5 14  1  0
 14 15  1  0
 15 16  2  0
 15 17  1  0
 17 18  1  0
 18 19  2  0
 18 20  1  0
 20 21  1  0
 21 22  1  0
 22 23  1  0
 23 24  1  0
 24 25  2  0
 24 26  2  0
 24 27  1  0
 14  2  2  0
 27 21  1  0
 12  6  1  0
  1 28  1  0
  1 29  1  0
  1 30  1  0
  9 31  1  0
 10 32  1  0
 11 33  1  0
 17 34  1  0
 20 35  1  0
 21 36  1  0
 22 37  1  0
 22 38  1  0
 23 39  1  0
 23 40  1  0
 27 41  1  0
 27 42  1  0
M  END
$$$$
