
     RDKit          3D

 39 41  0  0  0  0  0  0  0  0999 V2000
   -1.6231    0.3805    0.1207 O   0  0  0  0  0  0  0  0  0  0  0  0
   -1.7073   -0.6389    0.8004 C   0  0  0  0  0  0  0  0  0  0  0  0
   -2.9218   -1.0049    1.6592 C   0  0  0  0  0  0  0  0  0  0  0  0
   -3.9637   -0.0461    1.6936 O   0  0  0  0  0  0  0  0  0  0  0  0
   -4.9150   -0.0736    0.7088 C   0  0  0  0  0  0  0  0  0  0  0  0
   -4.7560   -0.7027   -0.5305 C   0  0  0  0  0  0  0  0  0  0  0  0
   -5.7821   -0.6613   -1.4811 C   0  0  0  0  0  0  0  0  0  0  0  0
   -6.9681    0.0127   -1.2002 C   0  0  0  0  0  0  0  0  0  0  0  0
   -8.2241    0.0559   -2.3745 Cl  0  0  0  0  0  0  0  0  0  0  0  0
   -7.1409    0.6531    0.0216 C   0  0  0  0  0  0  0  0  0  0  0  0
   -6.1152    0.6124    0.9691 C   0  0  0  0  0  0  0  0  0  0  0  0
   -6.3794    1.4173    2.4782 Cl  0  0  0  0  0  0  0  0  0  0  0  0
   -0.7112   -1.6088    0.8347 N   0  0  0  0  0  0  0  0  0  0  0  0
    0.5126   -1.2510    0.2314 N   0  0  0  0  0  0  0  0  0  0  0  0
    1.4716   -0.6224    1.0044 C   0  0  0  0  0  0  0  0  0  0  0  0
    1.4120   -0.4410    2.2135 O   0  0  0  0  0  0  0  0  0  0  0  0
    2.6206   -0.2449    0.1377 C   0  0  0  0  0  0  0  0  0  0  0  0
    3.6884    0.3971    0.6303 C   0  0  0  0  0  0  0  0  0  0  0  0
    4.8738    0.8047   -0.1298 C   0  0  0  0  0  0  0  0  0  0  0  0
    6.1144    0.2314    0.1747 C   0  0  0  0  0  0  0  0  0  0  0  0
    7.2597    0.6153   -0.5281 C   0  0  0  0  0  0  0  0  0  0  0  0
    7.1668    1.5781   -1.5312 C   0  0  0  0  0  0  0  0  0  0  0  0
    8.5770    2.0503   -2.3957 Cl  0  0  0  0  0  0  0  0  0  0  0  0
    5.9394    2.1630   -1.8354 C   0  0  0  0  0  0  0  0  0  0  0  0
    4.7940    1.7794   -1.1325 C   0  0  0  0  0  0  0  0  0  0  0  0
    2.3524   -0.7780   -1.4824 S   0  0  0  0  0  0  0  0  0  0  0  0
    0.7696   -1.4565   -1.1087 C   0  0  0  0  0  0  0  0  0  0  0  0
   -0.1858   -2.2426   -2.2280 S   0  0  0  0  0  0  0  0  0  0  0  0
   -3.2973   -1.9954    1.3725 H   0  0  0  0  0  0  0  0  0  0  0  0
   -2.5582   -1.0976    2.6897 H   0  0  0  0  0  0  0  0  0  0  0  0
   -3.8390   -1.2130   -0.8066 H   0  0  0  0  0  0  0  0  0  0  0  0
   -5.6419   -1.1487   -2.4434 H   0  0  0  0  0  0  0  0  0  0  0  0
   -8.0648    1.1824    0.2368 H   0  0  0  0  0  0  0  0  0  0  0  0
   -0.6105   -2.1599    1.6830 H   0  0  0  0  0  0  0  0  0  0  0  0
    3.7260    0.6457    1.6905 H   0  0  0  0  0  0  0  0  0  0  0  0
    6.2002   -0.5205    0.9562 H   0  0  0  0  0  0  0  0  0  0  0  0
    8.2176    0.1614   -0.2882 H   0  0  0  0  0  0  0  0  0  0  0  0
    5.8662    2.9171   -2.6146 H   0  0  0  0  0  0  0  0  0  0  0  0
    3.8435    2.2501   -1.3749 H   0  0  0  0  0  0  0  0  0  0  0  0
  1  2  2  0
  2  3  1  0
  3  4  1  0
  4  5  1  0
  5  6  2  0
  6  7  1  0
  7  8  2  0
  8  9  1  0
  8 10  1  0
 10 11  2  0
 11 12  1  0
  2 13  1  0
 13 14  1  0
 14 15  1  0
 15 16  2  0
 15 17  1  0
 17 18  2  3
 18 19  1  0
 19 20  2  0
 20 21  1  0
 21 22  2  0
 22 23  1  0
 22 24  1  0
 24 25  2  0
 17 26  1  0
 26 27  1  0
 27 28  2  0
 11  5  1  0
 27 14  1  0
 25 19  1  0
  3 29  1  0
  3 30  1  0
  6 31  1  0
  7 32  1  0
 10 33  1  0
 13 34  1  0
 18 35  1  0
 20 36  1  0
 21 37  1  0
 24 38  1  0
 25 39  1  0
M  END
$$$$
