
     RDKit          3D

 61 64  0  0  0  0  0  0  0  0999 V2000
    9.3093   -1.9408    0.2426 C   0  0  0  0  0  0  0  0  0  0  0  0
    8.1055   -1.0715    0.5044 C   0  0  0  0  0  0  0  0  0  0  0  0
    7.9520   -0.5141    1.5840 O   0  0  0  0  0  0  0  0  0  0  0  0
    7.2643   -1.0133   -0.5930 N   0  0  0  0  0  0  0  0  0  0  0  0
    6.0565   -0.2960   -0.7114 C   0  0  0  0  0  0  0  0  0  0  0  0
    5.3692   -0.4018   -1.9297 C   0  0  0  0  0  0  0  0  0  0  0  0
    4.1618    0.2727   -2.1293 C   0  0  0  0  0  0  0  0  0  0  0  0
    3.6359    1.0570   -1.1014 C   0  0  0  0  0  0  0  0  0  0  0  0
    2.0944    1.8982   -1.3617 S   0  0  0  0  0  6  0  0  0  0  0  0
    2.1994    2.5887   -2.6293 O   0  0  0  0  0  0  0  0  0  0  0  0
    1.7456    2.6055   -0.1506 O   0  0  0  0  0  0  0  0  0  0  0  0
    0.9988    0.6088   -1.5540 N   0  0  0  0  0  0  0  0  0  0  0  0
    0.7863   -0.2834   -0.3632 C   0  0  0  0  0  0  0  0  0  0  0  0
   -0.2556    0.2650    0.6302 C   0  0  0  0  0  0  0  0  0  0  0  0
   -1.5328    0.5568   -0.0695 N   0  0  0  0  0  0  0  0  0  0  0  0
   -2.5512    0.8759    0.7777 C   0  0  0  0  0  0  0  0  0  0  0  0
   -2.4717    1.5446    1.9032 N   0  0  0  0  0  0  0  0  0  0  0  0
   -3.7490    1.5987    2.3959 C   0  0  0  0  0  0  0  0  0  0  0  0
   -4.2254    2.2111    3.5649 C   0  0  0  0  0  0  0  0  0  0  0  0
   -5.5891    2.1221    3.8664 C   0  0  0  0  0  0  0  0  0  0  0  0
   -6.4616    1.4349    3.0219 C   0  0  0  0  0  0  0  0  0  0  0  0
   -6.0047    0.8179    1.8514 C   0  0  0  0  0  0  0  0  0  0  0  0
   -4.6372    0.9223    1.5652 C   0  0  0  0  0  0  0  0  0  0  0  0
   -3.8408    0.4484    0.5460 N   0  0  0  0  0  0  0  0  0  0  0  0
   -4.2769   -0.3837   -0.5591 C   0  0  0  0  0  0  0  0  0  0  0  0
   -3.8997   -1.8691   -0.4158 C   0  0  0  0  0  0  0  0  0  0  0  0
   -4.2431   -2.6163   -1.7059 C   0  0  0  0  0  0  0  0  0  0  0  0
   -4.6039   -2.5315    0.7698 C   0  0  0  0  0  0  0  0  0  0  0  0
   -1.3079    1.5568   -1.1430 C   0  0  0  0  0  0  0  0  0  0  0  0
   -0.3132    0.9930   -2.1732 C   0  0  0  0  0  0  0  0  0  0  0  0
    4.3120    1.1832    0.1118 C   0  0  0  0  0  0  0  0  0  0  0  0
    5.5195    0.5027    0.3031 C   0  0  0  0  0  0  0  0  0  0  0  0
    8.9894   -2.9590    0.0043 H   0  0  0  0  0  0  0  0  0  0  0  0
    9.9414   -1.9719    1.1347 H   0  0  0  0  0  0  0  0  0  0  0  0
    9.8915   -1.5291   -0.5867 H   0  0  0  0  0  0  0  0  0  0  0  0
    7.5474   -1.5455   -1.4059 H   0  0  0  0  0  0  0  0  0  0  0  0
    5.7630   -1.0092   -2.7412 H   0  0  0  0  0  0  0  0  0  0  0  0
    3.6384    0.1858   -3.0792 H   0  0  0  0  0  0  0  0  0  0  0  0
    1.7320   -0.4755    0.1519 H   0  0  0  0  0  0  0  0  0  0  0  0
    0.4474   -1.2543   -0.7479 H   0  0  0  0  0  0  0  0  0  0  0  0
    0.1234    1.1616    1.1342 H   0  0  0  0  0  0  0  0  0  0  0  0
   -0.4242   -0.4983    1.4010 H   0  0  0  0  0  0  0  0  0  0  0  0
   -3.5393    2.7402    4.2161 H   0  0  0  0  0  0  0  0  0  0  0  0
   -5.9684    2.5921    4.7702 H   0  0  0  0  0  0  0  0  0  0  0  0
   -7.5172    1.3754    3.2787 H   0  0  0  0  0  0  0  0  0  0  0  0
   -6.6896    0.2811    1.2053 H   0  0  0  0  0  0  0  0  0  0  0  0
   -3.8354    0.0362   -1.4700 H   0  0  0  0  0  0  0  0  0  0  0  0
   -5.3616   -0.2700   -0.6677 H   0  0  0  0  0  0  0  0  0  0  0  0
   -2.8180   -1.9584   -0.2566 H   0  0  0  0  0  0  0  0  0  0  0  0
   -3.7237   -2.1749   -2.5623 H   0  0  0  0  0  0  0  0  0  0  0  0
   -5.3188   -2.5865   -1.9084 H   0  0  0  0  0  0  0  0  0  0  0  0
   -3.9402   -3.6667   -1.6389 H   0  0  0  0  0  0  0  0  0  0  0  0
   -5.6923   -2.4422    0.6868 H   0  0  0  0  0  0  0  0  0  0  0  0
   -4.3556   -3.5971    0.8218 H   0  0  0  0  0  0  0  0  0  0  0  0
   -4.2951   -2.0798    1.7177 H   0  0  0  0  0  0  0  0  0  0  0  0
   -2.2492    1.7815   -1.6588 H   0  0  0  0  0  0  0  0  0  0  0  0
   -0.9341    2.4966   -0.7177 H   0  0  0  0  0  0  0  0  0  0  0  0
   -0.7324    0.0900   -2.6354 H   0  0  0  0  0  0  0  0  0  0  0  0
   -0.1614    1.7088   -2.9871 H   0  0  0  0  0  0  0  0  0  0  0  0
    3.9160    1.8039    0.9134 H   0  0  0  0  0  0  0  0  0  0  0  0
    6.0195    0.6225    1.2597 H   0  0  0  0  0  0  0  0  0  0  0  0
  1  2  1  0
  2  3  2  0
  2  4  1  0
  4  5  1  0
  5  6  2  0
  6  7  1  0
  7  8  2  0
  8  9  1  0
  9 10  2  0
  9 11  2  0
  9 12  1  0
 12 13  1  0
 13 14  1  0
 14 15  1  0
 15 16  1  0
 16 17  2  0
 17 18  1  0
 18 19  2  0
 19 20  1  0
 20 21  2  0
 21 22  1  0
 22 23  2  0
 23 24  1  0
 24 25  1  0
 25 26  1  0
 26 27  1  0
 26 28  1  0
 15 29  1  0
 29 30  1  0
  8 31  1  0
 31 32  2  0
 32  5  1  0
 30 12  1  0
 24 16  1  0
 23 18  1  0
  1 33  1  0
  1 34  1  0
  1 35  1  0
  4 36  1  0
  6 37  1  0
  7 38  1  0
 13 39  1  0
 13 40  1  0
 14 41  1  0
 14 42  1  0
 19 43  1  0
 20 44  1  0
 21 45  1  0
 22 46  1  0
 25 47  1  0
 25 48  1  0
 26 49  1  0
 27 50  1  0
 27 51  1  0
 27 52  1  0
 28 53  1  0
 28 54  1  0
 28 55  1  0
 29 56  1  0
 29 57  1  0
 30 58  1  0
 30 59  1  0
 31 60  1  0
 32 61  1  0
M  END
$$$$
