
     RDKit          3D

 77 83  0  0  0  0  0  0  0  0999 V2000
   -6.3390   -2.5121   -1.8995 C   0  0  0  0  0  0  0  0  0  0  0  0
   -5.9634   -2.5169   -0.4136 C   0  0  0  0  0  0  0  0  0  0  0  0
   -6.9209   -1.6621    0.4236 C   0  0  0  0  0  0  0  0  0  0  0  0
   -6.0201   -3.9636    0.1010 C   0  0  0  0  0  0  0  0  0  0  0  0
   -4.5846   -2.1126   -0.2152 O   0  0  0  0  0  0  0  0  0  0  0  0
   -4.1597   -0.8730   -0.5677 C   0  0  0  0  0  0  0  0  0  0  0  0
   -4.8684   -0.0073   -1.0637 O   0  0  0  0  0  0  0  0  0  0  0  0
   -2.8202   -0.6927   -0.2950 N   0  0  0  0  0  0  0  0  0  0  0  0
   -1.9829   -1.7326    0.3141 C   0  0  0  0  0  0  0  0  0  0  0  0
   -0.4785   -1.4491    0.1379 C   0  0  0  0  0  0  0  0  0  0  0  0
   -0.0974   -0.1445    0.6724 N   0  0  0  0  0  0  0  0  0  0  0  0
   -1.1245    0.9343    0.5110 C   0  0  2  0  0  0  0  0  0  0  0  0
   -2.1918    0.6059   -0.5473 C   0  0  0  0  0  0  0  0  0  0  0  0
   -0.3008    2.1240    0.2078 C   0  0  0  0  0  0  0  0  0  0  0  0
    1.0569    1.8110    0.1499 C   0  0  0  0  0  0  0  0  0  0  0  0
    1.7594    2.9565   -0.1295 C   0  0  0  0  0  0  0  0  0  0  0  0
    3.0612    3.1161   -0.3591 O   0  0  0  0  0  0  0  0  0  0  0  0
    0.8281    4.0170   -0.2197 N   0  0  0  0  0  0  0  0  0  0  0  0
    1.1318    5.3970   -0.4914 C   0  0  0  0  0  0  0  0  0  0  0  0
    2.4007    5.9233   -0.2072 C   0  0  0  0  0  0  0  0  0  0  0  0
    2.6959    7.2650   -0.4726 C   0  0  0  0  0  0  0  0  0  0  0  0
    1.7295    8.0986   -1.0266 C   0  0  0  0  0  0  0  0  0  0  0  0
    0.4663    7.5914   -1.3141 C   0  0  0  0  0  0  0  0  0  0  0  0
    0.1676    6.2506   -1.0476 C   0  0  0  0  0  0  0  0  0  0  0  0
   -0.4565    3.4687   -0.0002 C   0  0  0  0  0  0  0  0  0  0  0  0
   -1.5624    4.2077    0.0424 O   0  0  0  0  0  0  0  0  0  0  0  0
    1.2740    0.3627    0.3696 C   0  0  1  0  0  0  0  0  0  0  0  0
    2.2414    0.0311    1.5378 C   0  0  0  0  0  0  0  0  0  0  0  0
    2.0965    0.2871    2.7263 O   0  0  0  0  0  0  0  0  0  0  0  0
    3.3350   -0.6460    0.9707 N   0  0  0  0  0  0  0  0  0  0  0  0
    4.3967   -1.2285    1.7601 C   0  0  0  0  0  0  0  0  0  0  0  0
    4.1534   -2.6896    2.0642 C   0  0  0  0  0  0  0  0  0  0  0  0
    3.1352   -3.0684    2.9529 C   0  0  0  0  0  0  0  0  0  0  0  0
    2.8955   -4.4155    3.2272 C   0  0  0  0  0  0  0  0  0  0  0  0
    3.6707   -5.3998    2.6180 C   0  0  0  0  0  0  0  0  0  0  0  0
    4.6876   -5.0377    1.7368 C   0  0  0  0  0  0  0  0  0  0  0  0
    4.9300   -3.6903    1.4624 C   0  0  0  0  0  0  0  0  0  0  0  0
    3.1992   -0.7641   -0.4202 C   0  0  0  0  0  0  0  0  0  0  0  0
    4.0718   -1.3420   -1.3249 C   0  0  0  0  0  0  0  0  0  0  0  0
    3.7366   -1.3033   -2.6809 C   0  0  0  0  0  0  0  0  0  0  0  0
    2.5504   -0.6893   -3.1099 C   0  0  0  0  0  0  0  0  0  0  0  0
    1.6765   -0.1107   -2.1883 C   0  0  0  0  0  0  0  0  0  0  0  0
    2.0061   -0.1618   -0.8384 C   0  0  0  0  0  0  0  0  0  0  0  0
   -7.3170   -2.9771   -2.0644 H   0  0  0  0  0  0  0  0  0  0  0  0
   -5.5916   -3.0521   -2.4915 H   0  0  0  0  0  0  0  0  0  0  0  0
   -6.3876   -1.4976   -2.3059 H   0  0  0  0  0  0  0  0  0  0  0  0
   -6.9749   -0.6318    0.0591 H   0  0  0  0  0  0  0  0  0  0  0  0
   -7.9377   -2.0693    0.4059 H   0  0  0  0  0  0  0  0  0  0  0  0
   -6.5850   -1.6092    1.4653 H   0  0  0  0  0  0  0  0  0  0  0  0
   -5.7177   -4.0142    1.1535 H   0  0  0  0  0  0  0  0  0  0  0  0
   -5.3210   -4.6017   -0.4522 H   0  0  0  0  0  0  0  0  0  0  0  0
   -7.0244   -4.3899    0.0079 H   0  0  0  0  0  0  0  0  0  0  0  0
   -2.2421   -1.7757    1.3789 H   0  0  0  0  0  0  0  0  0  0  0  0
   -2.2301   -2.7037   -0.1286 H   0  0  0  0  0  0  0  0  0  0  0  0
    0.0978   -2.2358    0.6376 H   0  0  0  0  0  0  0  0  0  0  0  0
   -0.2720   -1.5177   -0.9349 H   0  0  0  0  0  0  0  0  0  0  0  0
   -1.6139    1.0660    1.4845 H   0  0  0  0  0  0  0  0  0  0  0  0
   -1.7474    0.5536   -1.5495 H   0  0  0  0  0  0  0  0  0  0  0  0
   -2.9504    1.3962   -0.5788 H   0  0  0  0  0  0  0  0  0  0  0  0
    3.4853    2.2406   -0.3464 H   0  0  0  0  0  0  0  0  0  0  0  0
    3.1759    5.3229    0.2590 H   0  0  0  0  0  0  0  0  0  0  0  0
    3.6820    7.6570   -0.2369 H   0  0  0  0  0  0  0  0  0  0  0  0
    1.9593    9.1404   -1.2314 H   0  0  0  0  0  0  0  0  0  0  0  0
   -0.2919    8.2355   -1.7522 H   0  0  0  0  0  0  0  0  0  0  0  0
   -0.8211    5.8954   -1.3207 H   0  0  0  0  0  0  0  0  0  0  0  0
   -2.3014    3.6443    0.3304 H   0  0  0  0  0  0  0  0  0  0  0  0
    5.3523   -1.0836    1.2433 H   0  0  0  0  0  0  0  0  0  0  0  0
    4.4781   -0.6855    2.7098 H   0  0  0  0  0  0  0  0  0  0  0  0
    2.5226   -2.3112    3.4409 H   0  0  0  0  0  0  0  0  0  0  0  0
    2.1044   -4.6951    3.9188 H   0  0  0  0  0  0  0  0  0  0  0  0
    3.4840   -6.4487    2.8324 H   0  0  0  0  0  0  0  0  0  0  0  0
    5.2931   -5.8065    1.2639 H   0  0  0  0  0  0  0  0  0  0  0  0
    5.7315   -3.4310    0.7755 H   0  0  0  0  0  0  0  0  0  0  0  0
    4.9987   -1.8088   -1.0148 H   0  0  0  0  0  0  0  0  0  0  0  0
    4.4050   -1.7483   -3.4151 H   0  0  0  0  0  0  0  0  0  0  0  0
    2.3117   -0.6617   -4.1712 H   0  0  0  0  0  0  0  0  0  0  0  0
    0.7625    0.3700   -2.5253 H   0  0  0  0  0  0  0  0  0  0  0  0
  1  2  1  0
  2  3  1  0
  2  4  1  0
  2  5  1  0
  5  6  1  0
  6  7  2  0
  6  8  1  0
  8  9  1  0
  9 10  1  0
 10 11  1  0
 11 12  1  0
 12 13  1  0
 12 14  1  0
 14 15  1  0
 15 16  2  0
 16 17  1  0
 16 18  1  0
 18 19  1  0
 19 20  2  0
 20 21  1  0
 21 22  2  0
 22 23  1  0
 23 24  2  0
 18 25  1  0
 25 26  1  0
 15 27  1  0
 27 28  1  0
 28 29  2  0
 28 30  1  0
 30 31  1  0
 31 32  1  0
 32 33  2  0
 33 34  1  0
 34 35  2  0
 35 36  1  0
 36 37  2  0
 30 38  1  0
 38 39  2  0
 39 40  1  0
 40 41  2  0
 41 42  1  0
 42 43  2  0
 13  8  1  0
 25 14  2  0
 43 27  1  0
 27 11  1  1
 37 32  1  0
 43 38  1  0
 24 19  1  0
  1 44  1  0
  1 45  1  0
  1 46  1  0
  3 47  1  0
  3 48  1  0
  3 49  1  0
  4 50  1  0
  4 51  1  0
  4 52  1  0
  9 53  1  0
  9 54  1  0
 10 55  1  0
 10 56  1  0
 12 57  1  1
 13 58  1  0
 13 59  1  0
 17 60  1  0
 20 61  1  0
 21 62  1  0
 22 63  1  0
 23 64  1  0
 24 65  1  0
 26 66  1  0
 31 67  1  0
 31 68  1  0
 33 69  1  0
 34 70  1  0
 35 71  1  0
 36 72  1  0
 37 73  1  0
 39 74  1  0
 40 75  1  0
 41 76  1  0
 42 77  1  0
M  END
$$$$
