
     RDKit          3D

 49 52  0  0  0  0  0  0  0  0999 V2000
    5.8378   -1.5768    1.9184 C   0  0  0  0  0  0  0  0  0  0  0  0
    6.2916   -0.7429    0.7550 C   0  0  0  0  0  0  0  0  0  0  0  0
    7.5620   -0.1471    0.7664 C   0  0  0  0  0  0  0  0  0  0  0  0
    7.9876    0.6242   -0.3162 C   0  0  0  0  0  0  0  0  0  0  0  0
    9.5496    1.3466   -0.2873 Cl  0  0  0  0  0  0  0  0  0  0  0  0
    7.1623    0.8083   -1.4227 C   0  0  0  0  0  0  0  0  0  0  0  0
    5.8970    0.2206   -1.4459 C   0  0  0  0  0  0  0  0  0  0  0  0
    5.4552   -0.5361   -0.3545 C   0  0  0  0  0  0  0  0  0  0  0  0
    4.2341   -1.1696   -0.3681 O   0  0  0  0  0  0  0  0  0  0  0  0
    3.1085   -0.5036   -0.6419 C   0  0  0  0  0  0  0  0  0  0  0  0
    3.0299    0.8022   -0.7811 N   0  0  0  0  0  0  0  0  0  0  0  0
    1.7217    1.1632   -1.0365 C   0  0  0  0  0  0  0  0  0  0  0  0
    0.8098    0.1273   -1.0857 C   0  0  0  0  0  0  0  0  0  0  0  0
   -0.6628    0.1688   -1.3530 C   0  0  0  0  0  0  0  0  0  0  0  0
   -1.3451    1.1952   -0.5497 N   0  0  0  0  0  0  0  0  0  0  0  0
   -1.4339    0.8333    0.8869 C   0  0  0  0  0  0  0  0  0  0  0  0
   -2.6981    0.0418    1.2999 C   0  0  0  0  0  0  0  0  0  0  0  0
   -3.9456    0.7358    0.8956 N   0  0  0  0  0  0  0  0  0  0  0  0
   -5.0694   -0.0936    0.8176 C   0  0  0  0  0  0  0  0  0  0  0  0
   -5.9066   -0.1625   -0.3054 C   0  0  0  0  0  0  0  0  0  0  0  0
   -7.0230   -1.0086   -0.3406 C   0  0  0  0  0  0  0  0  0  0  0  0
   -7.3329   -1.8057    0.7552 C   0  0  0  0  0  0  0  0  0  0  0  0
   -6.5274   -1.7543    1.8857 C   0  0  0  0  0  0  0  0  0  0  0  0
   -5.4134   -0.9080    1.9119 C   0  0  0  0  0  0  0  0  0  0  0  0
   -3.7503    1.8465   -0.0548 C   0  0  0  0  0  0  0  0  0  0  0  0
   -2.6939    1.4649   -1.1124 C   0  0  0  0  0  0  0  0  0  0  0  0
    1.6269   -1.3546   -0.8038 S   0  0  0  0  0  0  0  0  0  0  0  0
    5.6123   -2.5962    1.5893 H   0  0  0  0  0  0  0  0  0  0  0  0
    6.6098   -1.6409    2.6924 H   0  0  0  0  0  0  0  0  0  0  0  0
    4.9450   -1.1364    2.3741 H   0  0  0  0  0  0  0  0  0  0  0  0
    8.2224   -0.2846    1.6193 H   0  0  0  0  0  0  0  0  0  0  0  0
    7.4949    1.4048   -2.2675 H   0  0  0  0  0  0  0  0  0  0  0  0
    5.2583    0.3611   -2.3139 H   0  0  0  0  0  0  0  0  0  0  0  0
    1.4773    2.2100   -1.1761 H   0  0  0  0  0  0  0  0  0  0  0  0
   -0.7750    0.4088   -2.4195 H   0  0  0  0  0  0  0  0  0  0  0  0
   -1.1272   -0.8141   -1.2015 H   0  0  0  0  0  0  0  0  0  0  0  0
   -1.4215    1.7742    1.4533 H   0  0  0  0  0  0  0  0  0  0  0  0
   -0.5430    0.2912    1.2240 H   0  0  0  0  0  0  0  0  0  0  0  0
   -2.6479   -0.9540    0.8396 H   0  0  0  0  0  0  0  0  0  0  0  0
   -2.6854   -0.0850    2.3885 H   0  0  0  0  0  0  0  0  0  0  0  0
   -5.7013    0.4211   -1.1965 H   0  0  0  0  0  0  0  0  0  0  0  0
   -7.6472   -1.0418   -1.2297 H   0  0  0  0  0  0  0  0  0  0  0  0
   -8.2002   -2.4593    0.7298 H   0  0  0  0  0  0  0  0  0  0  0  0
   -6.7648   -2.3629    2.7538 H   0  0  0  0  0  0  0  0  0  0  0  0
   -4.8222   -0.8697    2.8232 H   0  0  0  0  0  0  0  0  0  0  0  0
   -3.4041    2.7240    0.5069 H   0  0  0  0  0  0  0  0  0  0  0  0
   -4.6813    2.1688   -0.5326 H   0  0  0  0  0  0  0  0  0  0  0  0
   -2.6017    2.2789   -1.8403 H   0  0  0  0  0  0  0  0  0  0  0  0
   -3.0686    0.5867   -1.6556 H   0  0  0  0  0  0  0  0  0  0  0  0
  1  2  1  0
  2  3  2  0
  3  4  1  0
  4  5  1  0
  4  6  2  0
  6  7  1  0
  7  8  2  0
  8  9  1  0
  9 10  1  0
 10 11  2  0
 11 12  1  0
 12 13  2  0
 13 14  1  0
 14 15  1  0
 15 16  1  0
 16 17  1  0
 17 18  1  0
 18 19  1  0
 19 20  2  0
 20 21  1  0
 21 22  2  0
 22 23  1  0
 23 24  2  0
 18 25  1  0
 25 26  1  0
 13 27  1  0
  8  2  1  0
 27 10  1  0
 26 15  1  0
 24 19  1  0
  1 28  1  0
  1 29  1  0
  1 30  1  0
  3 31  1  0
  6 32  1  0
  7 33  1  0
 12 34  1  0
 14 35  1  0
 14 36  1  0
 16 37  1  0
 16 38  1  0
 17 39  1  0
 17 40  1  0
 20 41  1  0
 21 42  1  0
 22 43  1  0
 23 44  1  0
 24 45  1  0
 25 46  1  0
 25 47  1  0
 26 48  1  0
 26 49  1  0
M  END
$$$$
