
     RDKit          3D

 57 59  0  0  0  0  0  0  0  0999 V2000
    5.8522   -1.7816    0.0328 C   0  0  0  0  0  0  0  0  0  0  0  0
    6.3076   -0.4819    0.6379 C   0  0  0  0  0  0  0  0  0  0  0  0
    7.6793   -0.2055    0.7409 C   0  0  0  0  0  0  0  0  0  0  0  0
    8.1198    0.9995    1.2851 C   0  0  0  0  0  0  0  0  0  0  0  0
    7.1938    1.9387    1.7288 C   0  0  0  0  0  0  0  0  0  0  0  0
    5.8249    1.6772    1.6281 C   0  0  0  0  0  0  0  0  0  0  0  0
    5.3733    0.4723    1.0807 C   0  0  0  0  0  0  0  0  0  0  0  0
    4.0567    0.1196    0.9438 O   0  0  0  0  0  0  0  0  0  0  0  0
    3.0733    1.1246    1.2022 C   0  0  0  0  0  0  0  0  0  0  0  0
    1.6921    0.5405    0.8719 C   0  0  0  0  0  0  0  0  0  0  0  0
    1.5856    0.2806   -0.5697 N   0  0  0  0  0  0  0  0  0  0  0  0
    0.4778   -0.4291   -1.0739 C   0  0  0  0  0  0  0  0  0  0  0  0
   -0.7752   -0.3905   -0.4224 C   0  0  0  0  0  0  0  0  0  0  0  0
   -1.9412   -0.9989   -0.9347 C   0  0  0  0  0  0  0  0  0  0  0  0
   -3.1751   -0.9876   -0.2660 N   0  0  0  0  0  0  0  0  0  0  0  0
   -4.3041   -0.4286   -1.0540 C   0  0  0  0  0  0  0  0  0  0  0  0
   -5.6543   -0.7155   -0.3562 C   0  0  0  0  0  0  0  0  0  0  0  0
   -5.7436   -0.2710    1.0536 N   0  0  0  0  0  0  0  0  0  0  0  0
   -5.7808    1.1958    1.2127 C   0  0  0  0  0  0  0  0  0  0  0  0
   -6.9632    1.8902    0.5112 C   0  0  0  0  0  0  0  0  0  0  0  0
   -6.6634    2.1775   -0.8543 O   0  0  0  0  0  0  0  0  0  0  0  0
   -4.5981   -0.8625    1.7855 C   0  0  0  0  0  0  0  0  0  0  0  0
   -3.2055   -0.5995    1.1593 C   0  0  0  0  0  0  0  0  0  0  0  0
   -1.8270   -1.6687   -2.1609 C   0  0  0  0  0  0  0  0  0  0  0  0
   -0.6245   -1.6994   -2.8650 C   0  0  0  0  0  0  0  0  0  0  0  0
    0.5076   -1.0712   -2.3290 C   0  0  0  0  0  0  0  0  0  0  0  0
    1.7372   -1.1305   -3.1183 N   0  0  0  0  0  4  0  0  0  0  0  0
    2.8127   -1.2458   -2.5098 O   0  0  0  0  0  0  0  0  0  0  0  0
    1.6271   -1.0883   -4.3532 O   0  0  0  0  0  1  0  0  0  0  0  0
    5.1955   -2.3167    0.7265 H   0  0  0  0  0  0  0  0  0  0  0  0
    6.6991   -2.4393   -0.1901 H   0  0  0  0  0  0  0  0  0  0  0  0
    5.3178   -1.5942   -0.9038 H   0  0  0  0  0  0  0  0  0  0  0  0
    8.4128   -0.9298    0.3939 H   0  0  0  0  0  0  0  0  0  0  0  0
    9.1843    1.2047    1.3607 H   0  0  0  0  0  0  0  0  0  0  0  0
    7.5367    2.8785    2.1539 H   0  0  0  0  0  0  0  0  0  0  0  0
    5.1387    2.4351    1.9892 H   0  0  0  0  0  0  0  0  0  0  0  0
    3.2578    2.0090    0.5801 H   0  0  0  0  0  0  0  0  0  0  0  0
    3.0936    1.3965    2.2638 H   0  0  0  0  0  0  0  0  0  0  0  0
    1.5536   -0.3954    1.4263 H   0  0  0  0  0  0  0  0  0  0  0  0
    0.9306    1.2642    1.1810 H   0  0  0  0  0  0  0  0  0  0  0  0
    2.4692   -0.1214   -0.9175 H   0  0  0  0  0  0  0  0  0  0  0  0
   -0.8503    0.1573    0.5094 H   0  0  0  0  0  0  0  0  0  0  0  0
   -4.1630    0.6518   -1.1813 H   0  0  0  0  0  0  0  0  0  0  0  0
   -4.3571   -0.8708   -2.0547 H   0  0  0  0  0  0  0  0  0  0  0  0
   -6.4780   -0.3088   -0.9511 H   0  0  0  0  0  0  0  0  0  0  0  0
   -5.8176   -1.8022   -0.3672 H   0  0  0  0  0  0  0  0  0  0  0  0
   -4.8461    1.6599    0.8792 H   0  0  0  0  0  0  0  0  0  0  0  0
   -5.8854    1.4015    2.2853 H   0  0  0  0  0  0  0  0  0  0  0  0
   -7.8701    1.2783    0.5516 H   0  0  0  0  0  0  0  0  0  0  0  0
   -7.1843    2.8421    1.0060 H   0  0  0  0  0  0  0  0  0  0  0  0
   -5.9591    2.8478   -0.8623 H   0  0  0  0  0  0  0  0  0  0  0  0
   -4.6013   -0.5192    2.8273 H   0  0  0  0  0  0  0  0  0  0  0  0
   -4.7569   -1.9482    1.8336 H   0  0  0  0  0  0  0  0  0  0  0  0
   -2.9520    0.4616    1.2709 H   0  0  0  0  0  0  0  0  0  0  0  0
   -2.4697   -1.1865    1.7229 H   0  0  0  0  0  0  0  0  0  0  0  0
   -2.6820   -2.1974   -2.5762 H   0  0  0  0  0  0  0  0  0  0  0  0
   -0.5820   -2.2188   -3.8200 H   0  0  0  0  0  0  0  0  0  0  0  0
  1  2  1  0
  2  3  2  0
  3  4  1  0
  4  5  2  0
  5  6  1  0
  6  7  2  0
  7  8  1  0
  8  9  1  0
  9 10  1  0
 10 11  1  0
 11 12  1  0
 12 13  2  0
 13 14  1  0
 14 15  1  0
 15 16  1  0
 16 17  1  0
 17 18  1  0
 18 19  1  0
 19 20  1  0
 20 21  1  0
 18 22  1  0
 22 23  1  0
 14 24  2  0
 24 25  1  0
 25 26  2  0
 26 27  1  0
 27 28  2  0
 27 29  1  0
  7  2  1  0
 26 12  1  0
 23 15  1  0
  1 30  1  0
  1 31  1  0
  1 32  1  0
  3 33  1  0
  4 34  1  0
  5 35  1  0
  6 36  1  0
  9 37  1  0
  9 38  1  0
 10 39  1  0
 10 40  1  0
 11 41  1  0
 13 42  1  0
 16 43  1  0
 16 44  1  0
 17 45  1  0
 17 46  1  0
 19 47  1  0
 19 48  1  0
 20 49  1  0
 20 50  1  0
 21 51  1  0
 22 52  1  0
 22 53  1  0
 23 54  1  0
 23 55  1  0
 24 56  1  0
 25 57  1  0
M  CHG  2  27   1  29  -1
M  END
$$$$
