
     RDKit          3D

 39 41  0  0  0  0  0  0  0  0999 V2000
   -4.3918   -2.1995   -0.3704 C   0  0  0  0  0  0  0  0  0  0  0  0
   -3.3067   -2.7753    0.5245 C   0  0  0  0  0  0  0  0  0  0  0  0
   -1.8422   -3.2783   -0.4397 S   0  0  0  0  0  0  0  0  0  0  0  0
   -0.8584   -1.7858   -0.3607 C   0  0  0  0  0  0  0  0  0  0  0  0
    0.5110   -1.8900   -0.4973 C   0  0  0  0  0  0  0  0  0  0  0  0
    1.2502   -0.7300   -0.4046 C   0  0  0  0  0  0  0  0  0  0  0  0
    2.6160   -0.7269   -0.5060 N   0  0  0  0  0  0  0  0  0  0  0  0
    3.4675   -1.8959   -0.6622 C   0  0  0  0  0  0  0  0  0  0  0  0
    4.8604   -1.2957   -0.8420 C   0  0  0  0  0  0  0  0  0  0  0  0
    4.8013   -0.0429    0.0179 C   0  0  0  0  0  0  0  0  0  0  0  0
    3.3867    0.4811   -0.2313 C   0  0  0  0  0  0  0  0  0  0  0  0
    0.6321    0.4495   -0.2156 N   0  0  0  0  0  0  0  0  0  0  0  0
   -0.7106    0.4700   -0.1215 C   0  0  0  0  0  0  0  0  0  0  0  0
   -1.3695    1.7817    0.0601 C   0  0  0  0  0  0  0  0  0  0  0  0
   -0.6184    2.9671    0.2079 C   0  0  0  0  0  0  0  0  0  0  0  0
   -1.2393    4.2107    0.3654 C   0  0  0  0  0  0  0  0  0  0  0  0
   -2.6256    4.2873    0.3794 C   0  0  0  0  0  0  0  0  0  0  0  0
   -3.2227    5.4783    0.5262 F   0  0  0  0  0  0  0  0  0  0  0  0
   -3.4010    3.1454    0.2399 C   0  0  0  0  0  0  0  0  0  0  0  0
   -2.7758    1.9034    0.0825 C   0  0  0  0  0  0  0  0  0  0  0  0
   -1.4900   -0.6186   -0.1816 N   0  0  0  0  0  0  0  0  0  0  0  0
   -5.2392   -1.8673    0.2394 H   0  0  0  0  0  0  0  0  0  0  0  0
   -4.7696   -2.9526   -1.0718 H   0  0  0  0  0  0  0  0  0  0  0  0
   -4.0421   -1.3391   -0.9480 H   0  0  0  0  0  0  0  0  0  0  0  0
   -3.6944   -3.6701    1.0233 H   0  0  0  0  0  0  0  0  0  0  0  0
   -3.0301   -2.0717    1.3164 H   0  0  0  0  0  0  0  0  0  0  0  0
    0.9770   -2.8521   -0.6579 H   0  0  0  0  0  0  0  0  0  0  0  0
    3.1947   -2.5026   -1.5319 H   0  0  0  0  0  0  0  0  0  0  0  0
    3.4283   -2.5153    0.2424 H   0  0  0  0  0  0  0  0  0  0  0  0
    5.6569   -1.9830   -0.5463 H   0  0  0  0  0  0  0  0  0  0  0  0
    5.0166   -1.0177   -1.8907 H   0  0  0  0  0  0  0  0  0  0  0  0
    5.5707    0.6890   -0.2407 H   0  0  0  0  0  0  0  0  0  0  0  0
    4.9242   -0.3126    1.0737 H   0  0  0  0  0  0  0  0  0  0  0  0
    3.0292    1.0337    0.6453 H   0  0  0  0  0  0  0  0  0  0  0  0
    3.3686    1.1424   -1.1071 H   0  0  0  0  0  0  0  0  0  0  0  0
    0.4694    2.9265    0.1969 H   0  0  0  0  0  0  0  0  0  0  0  0
   -0.6483    5.1145    0.4741 H   0  0  0  0  0  0  0  0  0  0  0  0
   -4.4844    3.2234    0.2498 H   0  0  0  0  0  0  0  0  0  0  0  0
   -3.4008    1.0190   -0.0311 H   0  0  0  0  0  0  0  0  0  0  0  0
  1  2  1  0
  2  3  1  0
  3  4  1  0
  4  5  2  0
  5  6  1  0
  6  7  1  0
  7  8  1  0
  8  9  1  0
  9 10  1  0
 10 11  1  0
  6 12  2  0
 12 13  1  0
 13 14  1  0
 14 15  2  0
 15 16  1  0
 16 17  2  0
 17 18  1  0
 17 19  1  0
 19 20  2  0
 13 21  2  0
 21  4  1  0
 11  7  1  0
 20 14  1  0
  1 22  1  0
  1 23  1  0
  1 24  1  0
  2 25  1  0
  2 26  1  0
  5 27  1  0
  8 28  1  0
  8 29  1  0
  9 30  1  0
  9 31  1  0
 10 32  1  0
 10 33  1  0
 11 34  1  0
 11 35  1  0
 15 36  1  0
 16 37  1  0
 19 38  1  0
 20 39  1  0
M  END
$$$$
