
     RDKit          3D

 57 59  0  0  0  0  0  0  0  0999 V2000
   -7.7048   -3.1585    3.1930 C   0  0  0  0  0  0  0  0  0  0  0  0
   -6.8215   -2.4264    2.2251 C   0  0  0  0  0  0  0  0  0  0  0  0
   -6.9010   -1.0312    2.1130 C   0  0  0  0  0  0  0  0  0  0  0  0
   -6.1062   -0.3502    1.1903 C   0  0  0  0  0  0  0  0  0  0  0  0
   -5.2317   -1.0702    0.3726 C   0  0  0  0  0  0  0  0  0  0  0  0
   -4.2292   -0.1903   -0.7987 S   0  0  0  0  0  6  0  0  0  0  0  0
   -5.1008    0.7385   -1.4875 O   0  0  0  0  0  0  0  0  0  0  0  0
   -3.4338   -1.1487   -1.5352 O   0  0  0  0  0  0  0  0  0  0  0  0
   -3.1794    0.7071    0.2010 N   0  0  0  0  0  0  0  0  0  0  0  0
   -2.2710   -0.0345    1.1094 C   0  0  0  0  0  0  0  0  0  0  0  0
   -0.9755   -0.4404    0.4209 C   0  0  0  0  0  0  0  0  0  0  0  0
   -0.2846    0.7551   -0.2462 C   0  0  0  0  0  0  0  0  0  0  0  0
    0.9718    0.3091   -0.9888 C   0  0  0  0  0  0  0  0  0  0  0  0
    1.3639   -0.8532   -1.0185 O   0  0  0  0  0  0  0  0  0  0  0  0
    1.6591    1.3403   -1.5975 N   0  0  0  0  0  0  0  0  0  0  0  0
    2.9986    1.1023   -2.1248 C   0  0  0  0  0  0  0  0  0  0  0  0
    3.2595    1.9816   -3.3400 C   0  0  0  0  0  0  0  0  0  0  0  0
    4.0208    1.4357   -1.0154 C   0  0  0  0  0  0  0  0  0  0  0  0
    3.7412    2.2391   -0.1262 O   0  0  0  0  0  0  0  0  0  0  0  0
    5.2373    0.7962   -1.1943 N   0  0  0  0  0  0  0  0  0  0  0  0
    6.4004    0.9250   -0.4081 C   0  0  0  0  0  0  0  0  0  0  0  0
    7.4957    0.1183   -0.7535 C   0  0  0  0  0  0  0  0  0  0  0  0
    8.6880    0.1879   -0.0282 C   0  0  0  0  0  0  0  0  0  0  0  0
    8.7864    1.0655    1.0424 C   0  0  0  0  0  0  0  0  0  0  0  0
    9.9284    1.1343    1.7382 F   0  0  0  0  0  0  0  0  0  0  0  0
    7.7151    1.8730    1.3988 C   0  0  0  0  0  0  0  0  0  0  0  0
    6.5212    1.8034    0.6730 C   0  0  0  0  0  0  0  0  0  0  0  0
   -1.2643    1.4759   -1.1792 C   0  0  0  0  0  0  0  0  0  0  0  0
   -2.5295    1.8772   -0.4332 C   0  0  0  0  0  0  0  0  0  0  0  0
   -5.1577   -2.4621    0.4554 C   0  0  0  0  0  0  0  0  0  0  0  0
   -5.9556   -3.1365    1.3811 C   0  0  0  0  0  0  0  0  0  0  0  0
   -8.6610   -3.3991    2.7182 H   0  0  0  0  0  0  0  0  0  0  0  0
   -7.8937   -2.5511    4.0844 H   0  0  0  0  0  0  0  0  0  0  0  0
   -7.2320   -4.0878    3.5279 H   0  0  0  0  0  0  0  0  0  0  0  0
   -7.5869   -0.4679    2.7426 H   0  0  0  0  0  0  0  0  0  0  0  0
   -6.1734    0.7323    1.1071 H   0  0  0  0  0  0  0  0  0  0  0  0
   -2.7659   -0.9153    1.5283 H   0  0  0  0  0  0  0  0  0  0  0  0
   -2.0493    0.6164    1.9647 H   0  0  0  0  0  0  0  0  0  0  0  0
   -1.1754   -1.2203   -0.3232 H   0  0  0  0  0  0  0  0  0  0  0  0
   -0.3027   -0.8933    1.1600 H   0  0  0  0  0  0  0  0  0  0  0  0
    0.0408    1.4491    0.5411 H   0  0  0  0  0  0  0  0  0  0  0  0
    1.5277    2.2583   -1.1860 H   0  0  0  0  0  0  0  0  0  0  0  0
    3.1000    0.0482   -2.4059 H   0  0  0  0  0  0  0  0  0  0  0  0
    3.1920    3.0450   -3.0830 H   0  0  0  0  0  0  0  0  0  0  0  0
    4.2591    1.8029   -3.7497 H   0  0  0  0  0  0  0  0  0  0  0  0
    2.5256    1.7824   -4.1282 H   0  0  0  0  0  0  0  0  0  0  0  0
    5.2828    0.1109   -1.9391 H   0  0  0  0  0  0  0  0  0  0  0  0
    7.4374   -0.5764   -1.5876 H   0  0  0  0  0  0  0  0  0  0  0  0
    9.5363   -0.4359   -0.2910 H   0  0  0  0  0  0  0  0  0  0  0  0
    7.8097    2.5538    2.2389 H   0  0  0  0  0  0  0  0  0  0  0  0
    5.7061    2.4509    0.9798 H   0  0  0  0  0  0  0  0  0  0  0  0
   -0.8036    2.3771   -1.6001 H   0  0  0  0  0  0  0  0  0  0  0  0
   -1.5124    0.8303   -2.0309 H   0  0  0  0  0  0  0  0  0  0  0  0
   -3.2217    2.3919   -1.1073 H   0  0  0  0  0  0  0  0  0  0  0  0
   -2.2885    2.6019    0.3547 H   0  0  0  0  0  0  0  0  0  0  0  0
   -4.4908   -3.0256   -0.1933 H   0  0  0  0  0  0  0  0  0  0  0  0
   -5.9011   -4.2219    1.4385 H   0  0  0  0  0  0  0  0  0  0  0  0
  1  2  1  0
  2  3  2  0
  3  4  1  0
  4  5  2  0
  5  6  1  0
  6  7  2  0
  6  8  2  0
  6  9  1  0
  9 10  1  0
 10 11  1  0
 11 12  1  0
 12 13  1  0
 13 14  2  0
 13 15  1  0
 15 16  1  0
 16 17  1  0
 16 18  1  0
 18 19  2  0
 18 20  1  0
 20 21  1  0
 21 22  2  0
 22 23  1  0
 23 24  2  0
 24 25  1  0
 24 26  1  0
 26 27  2  0
 12 28  1  0
 28 29  1  0
  5 30  1  0
 30 31  2  0
 31  2  1  0
 29  9  1  0
 27 21  1  0
  1 32  1  0
  1 33  1  0
  1 34  1  0
  3 35  1  0
  4 36  1  0
 10 37  1  0
 10 38  1  0
 11 39  1  0
 11 40  1  0
 12 41  1  0
 15 42  1  0
 16 43  1  0
 17 44  1  0
 17 45  1  0
 17 46  1  0
 20 47  1  0
 22 48  1  0
 23 49  1  0
 26 50  1  0
 27 51  1  0
 28 52  1  0
 28 53  1  0
 29 54  1  0
 29 55  1  0
 30 56  1  0
 31 57  1  0
M  END
$$$$
