
     RDKit          3D

 43 45  0  0  0  0  0  0  0  0999 V2000
    7.2679   -0.2296   -1.7662 C   0  0  0  0  0  0  0  0  0  0  0  0
    6.7060   -1.3134   -1.0369 O   0  0  0  0  0  0  0  0  0  0  0  0
    5.3623   -1.2624   -0.7918 C   0  0  0  0  0  0  0  0  0  0  0  0
    4.4921   -0.2488   -1.1859 C   0  0  0  0  0  0  0  0  0  0  0  0
    3.1295   -0.3242   -0.8645 C   0  0  0  0  0  0  0  0  0  0  0  0
    2.6093   -1.4126   -0.1558 C   0  0  0  0  0  0  0  0  0  0  0  0
    1.2504   -1.5078    0.2165 N   0  0  0  0  0  0  0  0  0  0  0  0
    0.3205   -0.5407    0.4081 C   0  0  0  0  0  0  0  0  0  0  0  0
    0.5308    0.8084    0.7549 C   0  0  0  0  0  0  0  0  0  0  0  0
   -0.7049    1.3942    0.9353 C   0  0  0  0  0  0  0  0  0  0  0  0
   -1.0007    2.6157    1.3750 O   0  0  0  0  0  0  0  0  0  0  0  0
   -1.6869    0.4444    0.6566 N   0  0  0  0  0  0  0  0  0  0  0  0
   -3.1029    0.6308    0.7317 C   0  0  0  0  0  0  0  0  0  0  0  0
   -3.8516   -0.3540    1.4035 C   0  0  0  0  0  0  0  0  0  0  0  0
   -5.2344   -0.2012    1.5540 C   0  0  0  0  0  0  0  0  0  0  0  0
   -6.0075   -1.2224    2.2709 N   0  0  0  0  0  4  0  0  0  0  0  0
   -7.2401   -1.0927    2.3061 O   0  0  0  0  0  0  0  0  0  0  0  0
   -5.3865   -2.1543    2.8021 O   0  0  0  0  0  1  0  0  0  0  0  0
   -5.8851    0.9225    1.0395 C   0  0  0  0  0  0  0  0  0  0  0  0
   -5.1456    1.8864    0.3528 C   0  0  0  0  0  0  0  0  0  0  0  0
   -3.7555    1.7485    0.1663 C   0  0  0  0  0  0  0  0  0  0  0  0
   -3.0760    2.7942   -0.6779 C   0  0  0  0  0  0  0  0  0  0  0  0
   -1.0417   -0.7581    0.3623 C   0  0  0  0  0  0  0  0  0  0  0  0
   -1.7190   -1.8572    0.0227 O   0  0  0  0  0  0  0  0  0  0  0  0
    3.4960   -2.4221    0.2398 C   0  0  0  0  0  0  0  0  0  0  0  0
    4.8563   -2.3478   -0.0772 C   0  0  0  0  0  0  0  0  0  0  0  0
    7.1525    0.7140   -1.2226 H   0  0  0  0  0  0  0  0  0  0  0  0
    6.8361   -0.1635   -2.7703 H   0  0  0  0  0  0  0  0  0  0  0  0
    8.3396   -0.4211   -1.8767 H   0  0  0  0  0  0  0  0  0  0  0  0
    4.8341    0.6135   -1.7480 H   0  0  0  0  0  0  0  0  0  0  0  0
    2.4736    0.4703   -1.2099 H   0  0  0  0  0  0  0  0  0  0  0  0
    0.9894   -2.4696    0.4133 H   0  0  0  0  0  0  0  0  0  0  0  0
    1.4825    1.2914    0.9269 H   0  0  0  0  0  0  0  0  0  0  0  0
   -0.1622    3.0666    1.5794 H   0  0  0  0  0  0  0  0  0  0  0  0
   -3.3516   -1.2184    1.8376 H   0  0  0  0  0  0  0  0  0  0  0  0
   -6.9581    1.0599    1.1547 H   0  0  0  0  0  0  0  0  0  0  0  0
   -5.6668    2.7488   -0.0616 H   0  0  0  0  0  0  0  0  0  0  0  0
   -2.1909    2.4008   -1.1857 H   0  0  0  0  0  0  0  0  0  0  0  0
   -2.8045    3.6617   -0.0701 H   0  0  0  0  0  0  0  0  0  0  0  0
   -3.7486    3.1367   -1.4732 H   0  0  0  0  0  0  0  0  0  0  0  0
   -1.0768   -2.4689   -0.3777 H   0  0  0  0  0  0  0  0  0  0  0  0
    3.1421   -3.2754    0.8125 H   0  0  0  0  0  0  0  0  0  0  0  0
    5.5270   -3.1423    0.2411 H   0  0  0  0  0  0  0  0  0  0  0  0
  1  2  1  0
  2  3  1  0
  3  4  2  0
  4  5  1  0
  5  6  2  0
  6  7  1  0
  7  8  1  0
  8  9  1  0
  9 10  2  0
 10 11  1  0
 10 12  1  0
 12 13  1  0
 13 14  2  0
 14 15  1  0
 15 16  1  0
 16 17  2  0
 16 18  1  0
 15 19  2  0
 19 20  1  0
 20 21  2  0
 21 22  1  0
 12 23  1  0
 23 24  1  0
  6 25  1  0
 25 26  2  0
 26  3  1  0
 23  8  2  0
 21 13  1  0
  1 27  1  0
  1 28  1  0
  1 29  1  0
  4 30  1  0
  5 31  1  0
  7 32  1  0
  9 33  1  0
 11 34  1  0
 14 35  1  0
 19 36  1  0
 20 37  1  0
 22 38  1  0
 22 39  1  0
 22 40  1  0
 24 41  1  0
 25 42  1  0
 26 43  1  0
M  CHG  2  16   1  18  -1
M  END
$$$$
