
     RDKit          3D

 37 38  0  0  0  0  0  0  0  0999 V2000
    3.9893    1.5838   -2.0787 C   0  0  0  0  0  0  0  0  0  0  0  0
    2.7600    1.0379   -1.6201 O   0  0  0  0  0  0  0  0  0  0  0  0
    2.8162    0.0918   -0.6280 C   0  0  0  0  0  0  0  0  0  0  0  0
    3.9987   -0.4588   -0.1255 C   0  0  0  0  0  0  0  0  0  0  0  0
    3.9553   -1.4113    0.8930 C   0  0  0  0  0  0  0  0  0  0  0  0
    2.7302   -1.8109    1.4249 C   0  0  0  0  0  0  0  0  0  0  0  0
    1.5284   -1.2674    0.9429 C   0  0  0  0  0  0  0  0  0  0  0  0
    0.2790   -1.7497    1.5909 C   0  0  0  0  0  0  0  0  0  0  0  0
    0.2352   -2.8222    2.1817 O   0  0  0  0  0  0  0  0  0  0  0  0
   -0.7198   -0.8317    1.4633 O   0  0  0  0  0  0  0  0  0  0  0  0
   -1.8378   -1.2158    2.2258 N   0  0  0  0  0  0  0  0  0  0  0  0
   -2.9192   -0.5664    1.8981 C   0  0  0  0  0  0  0  0  0  0  0  0
   -4.0712   -0.8814    2.5700 N   0  0  0  0  0  0  0  0  0  0  0  0
   -2.9949    0.4758    0.8417 C   0  0  0  0  0  0  0  0  0  0  0  0
   -3.8780    0.3067   -0.2223 C   0  0  0  0  0  0  0  0  0  0  0  0
   -3.9298    1.3078   -1.1740 C   0  0  0  0  0  0  0  0  0  0  0  0
   -3.1794    2.4295   -1.1244 N   0  0  0  0  0  0  0  0  0  0  0  0
   -2.3333    2.5586   -0.0769 C   0  0  0  0  0  0  0  0  0  0  0  0
   -2.2108    1.6217    0.9311 C   0  0  0  0  0  0  0  0  0  0  0  0
    1.5769   -0.3378   -0.1083 C   0  0  0  0  0  0  0  0  0  0  0  0
    0.4238    0.2172   -0.6091 O   0  0  0  0  0  0  0  0  0  0  0  0
    0.0068   -0.4701   -1.7897 C   0  0  0  0  0  0  0  0  0  0  0  0
    4.5949    0.8214   -2.5792 H   0  0  0  0  0  0  0  0  0  0  0  0
    3.7565    2.3589   -2.8152 H   0  0  0  0  0  0  0  0  0  0  0  0
    4.5433    2.0572   -1.2613 H   0  0  0  0  0  0  0  0  0  0  0  0
    4.9728   -0.1696   -0.5066 H   0  0  0  0  0  0  0  0  0  0  0  0
    4.8781   -1.8388    1.2790 H   0  0  0  0  0  0  0  0  0  0  0  0
    2.7145   -2.5475    2.2276 H   0  0  0  0  0  0  0  0  0  0  0  0
   -4.9627   -0.7107    2.1253 H   0  0  0  0  0  0  0  0  0  0  0  0
   -4.0089   -1.7552    3.0834 H   0  0  0  0  0  0  0  0  0  0  0  0
   -4.4909   -0.5807   -0.3202 H   0  0  0  0  0  0  0  0  0  0  0  0
   -4.5925    1.2340   -2.0316 H   0  0  0  0  0  0  0  0  0  0  0  0
   -1.7363    3.4662   -0.0717 H   0  0  0  0  0  0  0  0  0  0  0  0
   -1.5194    1.7727    1.7519 H   0  0  0  0  0  0  0  0  0  0  0  0
    0.7430   -0.3766   -2.5946 H   0  0  0  0  0  0  0  0  0  0  0  0
   -0.1923   -1.5267   -1.5794 H   0  0  0  0  0  0  0  0  0  0  0  0
   -0.9257   -0.0119   -2.1317 H   0  0  0  0  0  0  0  0  0  0  0  0
  1  2  1  0
  2  3  1  0
  3  4  2  0
  4  5  1  0
  5  6  2  0
  6  7  1  0
  7  8  1  0
  8  9  2  0
  8 10  1  0
 10 11  1  0
 11 12  2  3
 12 13  1  0
 12 14  1  0
 14 15  2  0
 15 16  1  0
 16 17  2  0
 17 18  1  0
 18 19  2  0
  7 20  2  0
 20 21  1  0
 21 22  1  0
 20  3  1  0
 19 14  1  0
  1 23  1  0
  1 24  1  0
  1 25  1  0
  4 26  1  0
  5 27  1  0
  6 28  1  0
 13 29  1  0
 13 30  1  0
 15 31  1  0
 16 32  1  0
 18 33  1  0
 19 34  1  0
 22 35  1  0
 22 36  1  0
 22 37  1  0
M  END
$$$$
