
     RDKit          3D

 30 31  0  0  0  0  0  0  0  0999 V2000
   -2.6332    1.7500   -2.2946 C   0  0  0  0  0  0  0  0  0  0  0  0
   -2.1904    1.1399   -1.0147 C   0  0  0  0  0  0  0  0  0  0  0  0
   -3.0170    0.3305   -0.3386 N   0  0  0  0  0  0  0  0  0  0  0  0
   -2.3249    0.0002    0.7724 N   0  0  0  0  0  0  0  0  0  0  0  0
   -2.9740   -0.8249    1.7686 C   0  0  0  0  0  0  0  0  0  0  0  0
   -1.0434    0.4961    0.7819 C   0  0  0  0  0  0  0  0  0  0  0  0
    0.0631    0.0684    2.0566 S   0  0  0  0  0  0  0  0  0  0  0  0
    1.5005   -0.3983    1.0866 C   0  0  0  0  0  0  0  0  0  0  0  0
    2.6282    0.4336    1.1698 C   0  0  0  0  0  0  0  0  0  0  0  0
    3.7921    0.1284    0.4656 C   0  0  0  0  0  0  0  0  0  0  0  0
    3.8498   -1.0270   -0.3052 C   0  0  0  0  0  0  0  0  0  0  0  0
    2.7401   -1.8708   -0.3801 C   0  0  0  0  0  0  0  0  0  0  0  0
    1.5416   -1.5528    0.2750 C   0  0  0  0  0  0  0  0  0  0  0  0
    0.5084   -2.5089    0.2699 N   0  0  0  0  0  0  0  0  0  0  0  0
   -0.9555    1.2981   -0.3392 C   0  0  0  0  0  0  0  0  0  0  0  0
    0.1364    2.1203   -0.7459 N   0  0  0  0  0  4  0  0  0  0  0  0
    0.4143    2.1183   -1.9517 O   0  0  0  0  0  0  0  0  0  0  0  0
    0.6873    2.8035    0.1258 O   0  0  0  0  0  1  0  0  0  0  0  0
   -2.1014    1.2957   -3.1365 H   0  0  0  0  0  0  0  0  0  0  0  0
   -2.4376    2.8271   -2.2979 H   0  0  0  0  0  0  0  0  0  0  0  0
   -3.7068    1.6065   -2.4560 H   0  0  0  0  0  0  0  0  0  0  0  0
   -2.4665   -1.7917    1.8037 H   0  0  0  0  0  0  0  0  0  0  0  0
   -4.0223   -0.9696    1.4931 H   0  0  0  0  0  0  0  0  0  0  0  0
   -2.9204   -0.3156    2.7339 H   0  0  0  0  0  0  0  0  0  0  0  0
    2.6064    1.3330    1.7826 H   0  0  0  0  0  0  0  0  0  0  0  0
    4.6555    0.7856    0.5320 H   0  0  0  0  0  0  0  0  0  0  0  0
    4.7633   -1.2827   -0.8359 H   0  0  0  0  0  0  0  0  0  0  0  0
    2.8202   -2.7896   -0.9559 H   0  0  0  0  0  0  0  0  0  0  0  0
    0.4842   -3.0821   -0.5679 H   0  0  0  0  0  0  0  0  0  0  0  0
   -0.3977   -2.1213    0.5029 H   0  0  0  0  0  0  0  0  0  0  0  0
  1  2  1  0
  2  3  2  0
  3  4  1  0
  4  5  1  0
  4  6  1  0
  6  7  1  0
  7  8  1  0
  8  9  2  0
  9 10  1  0
 10 11  2  0
 11 12  1  0
 12 13  2  0
 13 14  1  0
  6 15  2  0
 15 16  1  0
 16 17  2  0
 16 18  1  0
 15  2  1  0
 13  8  1  0
  1 19  1  0
  1 20  1  0
  1 21  1  0
  5 22  1  0
  5 23  1  0
  5 24  1  0
  9 25  1  0
 10 26  1  0
 11 27  1  0
 12 28  1  0
 14 29  1  0
 14 30  1  0
M  CHG  2  16   1  18  -1
M  END
$$$$
