
     RDKit          3D

 43 45  0  0  0  0  0  0  0  0999 V2000
    3.2128   -0.1663    3.8398 C   0  0  0  0  0  0  0  0  0  0  0  0
    3.9350    0.2257    2.6810 O   0  0  0  0  0  0  0  0  0  0  0  0
    3.3041    0.1414    1.4652 C   0  0  0  0  0  0  0  0  0  0  0  0
    1.9747   -0.2709    1.2919 C   0  0  0  0  0  0  0  0  0  0  0  0
    1.3902   -0.3314    0.0126 C   0  0  0  0  0  0  0  0  0  0  0  0
   -0.0035   -0.8191   -0.0865 C   0  0  0  0  0  0  0  0  0  0  0  0
   -0.2280   -2.1544   -0.5487 C   0  0  0  0  0  0  0  0  0  0  0  0
   -0.3619   -3.2494   -0.9073 N   0  0  0  0  0  0  0  0  0  0  0  0
   -1.0011    0.0033    0.2938 C   0  0  0  0  0  0  0  0  0  0  0  0
   -2.4327   -0.3496    0.2924 C   0  0  0  0  0  0  0  0  0  0  0  0
   -2.8960   -1.2021    1.3069 C   0  0  0  0  0  0  0  0  0  0  0  0
   -4.2376   -1.5640    1.3659 C   0  0  0  0  0  0  0  0  0  0  0  0
   -5.1303   -1.0741    0.4160 C   0  0  0  0  0  0  0  0  0  0  0  0
   -4.6977   -0.2166   -0.6068 C   0  0  0  0  0  0  0  0  0  0  0  0
   -5.6131    0.2675   -1.5562 C   0  0  0  0  0  0  0  0  0  0  0  0
   -5.2022    1.1169   -2.5822 C   0  0  0  0  0  0  0  0  0  0  0  0
   -3.8690    1.4934   -2.6727 C   0  0  0  0  0  0  0  0  0  0  0  0
   -2.9468    1.0221   -1.7357 C   0  0  0  0  0  0  0  0  0  0  0  0
   -3.3328    0.1597   -0.6828 C   0  0  0  0  0  0  0  0  0  0  0  0
    2.1835    0.0413   -1.0844 C   0  0  0  0  0  0  0  0  0  0  0  0
    1.6425    0.0505   -2.4356 N   0  0  0  0  0  4  0  0  0  0  0  0
    2.3096   -0.5126   -3.3126 O   0  0  0  0  0  0  0  0  0  0  0  0
    0.5772    0.6530   -2.6163 O   0  0  0  0  0  1  0  0  0  0  0  0
    3.5178    0.4496   -0.9315 C   0  0  0  0  0  0  0  0  0  0  0  0
    4.0819    0.4986    0.3437 C   0  0  0  0  0  0  0  0  0  0  0  0
    5.3705    0.8898    0.6048 O   0  0  0  0  0  0  0  0  0  0  0  0
    6.2299    1.1345   -0.5006 C   0  0  0  0  0  0  0  0  0  0  0  0
    2.3426    0.4790    3.9986 H   0  0  0  0  0  0  0  0  0  0  0  0
    2.9205   -1.2200    3.7854 H   0  0  0  0  0  0  0  0  0  0  0  0
    3.8753   -0.0491    4.7028 H   0  0  0  0  0  0  0  0  0  0  0  0
    1.3733   -0.5612    2.1498 H   0  0  0  0  0  0  0  0  0  0  0  0
   -0.7984    1.0200    0.6264 H   0  0  0  0  0  0  0  0  0  0  0  0
   -2.2150   -1.5931    2.0595 H   0  0  0  0  0  0  0  0  0  0  0  0
   -4.5896   -2.2298    2.1496 H   0  0  0  0  0  0  0  0  0  0  0  0
   -6.1754   -1.3713    0.4786 H   0  0  0  0  0  0  0  0  0  0  0  0
   -6.6615   -0.0190   -1.5052 H   0  0  0  0  0  0  0  0  0  0  0  0
   -5.9223    1.4788   -3.3111 H   0  0  0  0  0  0  0  0  0  0  0  0
   -3.5392    2.1495   -3.4742 H   0  0  0  0  0  0  0  0  0  0  0  0
   -1.9110    1.3347   -1.8462 H   0  0  0  0  0  0  0  0  0  0  0  0
    4.0879    0.7304   -1.8124 H   0  0  0  0  0  0  0  0  0  0  0  0
    6.3227    0.2467   -1.1350 H   0  0  0  0  0  0  0  0  0  0  0  0
    7.2237    1.3677   -0.1066 H   0  0  0  0  0  0  0  0  0  0  0  0
    5.8892    2.0001   -1.0778 H   0  0  0  0  0  0  0  0  0  0  0  0
  1  2  1  0
  2  3  1  0
  3  4  2  0
  4  5  1  0
  5  6  1  0
  6  7  1  0
  7  8  3  0
  6  9  2  3
  9 10  1  0
 10 11  2  0
 11 12  1  0
 12 13  2  0
 13 14  1  0
 14 15  2  0
 15 16  1  0
 16 17  2  0
 17 18  1  0
 18 19  2  0
  5 20  2  0
 20 21  1  0
 21 22  2  0
 21 23  1  0
 20 24  1  0
 24 25  2  0
 25 26  1  0
 26 27  1  0
 25  3  1  0
 19 10  1  0
 19 14  1  0
  1 28  1  0
  1 29  1  0
  1 30  1  0
  4 31  1  0
  9 32  1  0
 11 33  1  0
 12 34  1  0
 13 35  1  0
 15 36  1  0
 16 37  1  0
 17 38  1  0
 18 39  1  0
 24 40  1  0
 27 41  1  0
 27 42  1  0
 27 43  1  0
M  CHG  2  21   1  23  -1
M  END
$$$$
