
     RDKit          3D

 52 55  0  0  0  0  0  0  0  0999 V2000
   -2.5379    3.5812    1.4896 C   0  0  0  0  0  0  0  0  0  0  0  0
   -1.5785    2.6158    2.1436 C   0  0  0  0  0  0  0  0  0  0  0  0
   -1.3916    2.6546    3.3531 O   0  0  0  0  0  0  0  0  0  0  0  0
   -1.0031    1.7737    1.2072 N   0  0  0  0  0  0  0  0  0  0  0  0
   -0.0330    0.8025    1.4151 C   0  0  0  0  0  0  0  0  0  0  0  0
    0.6126    0.5613    2.9671 S   0  0  0  0  0  0  0  0  0  0  0  0
    1.7071   -0.6017    2.4202 C   0  0  0  0  0  0  0  0  0  0  0  0
    1.5983   -0.8365    1.0643 C   0  0  0  0  0  0  0  0  0  0  0  0
    0.5293   -0.0480    0.4570 C   0  0  0  0  0  0  0  0  0  0  0  0
    0.1632   -0.1728   -1.0245 C   0  0  0  0  0  0  0  0  0  0  0  0
    0.1083    1.2281   -1.6539 C   0  0  0  0  0  0  0  0  0  0  0  0
   -0.9142    1.6004   -2.5474 C   0  0  0  0  0  0  0  0  0  0  0  0
   -0.9396    2.8702   -3.1334 C   0  0  0  0  0  0  0  0  0  0  0  0
    0.0726    3.7828   -2.8556 C   0  0  0  0  0  0  0  0  0  0  0  0
    0.0376    5.3451   -3.5727 Cl  0  0  0  0  0  0  0  0  0  0  0  0
    1.1178    3.4314   -2.0087 C   0  0  0  0  0  0  0  0  0  0  0  0
    1.1427    2.1608   -1.4257 C   0  0  0  0  0  0  0  0  0  0  0  0
   -1.0137   -1.0326   -1.2813 N   0  0  0  0  0  0  0  0  0  0  0  0
   -2.2178   -0.7858   -0.4659 C   0  0  0  0  0  0  0  0  0  0  0  0
   -3.3851   -1.6762   -0.9295 C   0  0  0  0  0  0  0  0  0  0  0  0
   -3.0416   -3.0649   -0.8567 O   0  0  0  0  0  0  0  0  0  0  0  0
   -1.8847   -3.3299   -1.6580 C   0  0  0  0  0  0  0  0  0  0  0  0
   -0.6893   -2.4718   -1.2121 C   0  0  0  0  0  0  0  0  0  0  0  0
    2.5002   -1.8313    0.3804 C   0  0  0  0  0  0  0  0  0  0  0  0
    3.7241   -2.1930    1.2361 C   0  0  0  0  0  0  0  0  0  0  0  0
    3.3301   -2.4749    2.6904 C   0  0  0  0  0  0  0  0  0  0  0  0
    2.6943   -1.2423    3.3467 C   0  0  0  0  0  0  0  0  0  0  0  0
   -3.1413    4.0751    2.2566 H   0  0  0  0  0  0  0  0  0  0  0  0
   -1.9747    4.3367    0.9350 H   0  0  0  0  0  0  0  0  0  0  0  0
   -3.2126    3.0497    0.8121 H   0  0  0  0  0  0  0  0  0  0  0  0
   -1.2800    1.9169    0.2459 H   0  0  0  0  0  0  0  0  0  0  0  0
    1.0071   -0.6297   -1.5582 H   0  0  0  0  0  0  0  0  0  0  0  0
   -1.7018    0.8973   -2.8124 H   0  0  0  0  0  0  0  0  0  0  0  0
   -1.7450    3.1326   -3.8147 H   0  0  0  0  0  0  0  0  0  0  0  0
    1.9200    4.1348   -1.8005 H   0  0  0  0  0  0  0  0  0  0  0  0
    1.9821    1.9072   -0.7784 H   0  0  0  0  0  0  0  0  0  0  0  0
   -2.0241   -1.0106    0.5894 H   0  0  0  0  0  0  0  0  0  0  0  0
   -2.5422    0.2552   -0.5484 H   0  0  0  0  0  0  0  0  0  0  0  0
   -4.2522   -1.5159   -0.2808 H   0  0  0  0  0  0  0  0  0  0  0  0
   -3.6875   -1.4315   -1.9550 H   0  0  0  0  0  0  0  0  0  0  0  0
   -1.6408   -4.3912   -1.5460 H   0  0  0  0  0  0  0  0  0  0  0  0
   -2.1279   -3.1541   -2.7130 H   0  0  0  0  0  0  0  0  0  0  0  0
    0.1603   -2.7053   -1.8635 H   0  0  0  0  0  0  0  0  0  0  0  0
   -0.4243   -2.7497   -0.1852 H   0  0  0  0  0  0  0  0  0  0  0  0
    2.8494   -1.4363   -0.5794 H   0  0  0  0  0  0  0  0  0  0  0  0
    1.9282   -2.7433    0.1766 H   0  0  0  0  0  0  0  0  0  0  0  0
    4.2237   -3.0687    0.8065 H   0  0  0  0  0  0  0  0  0  0  0  0
    4.4471   -1.3675    1.2121 H   0  0  0  0  0  0  0  0  0  0  0  0
    4.2101   -2.7831    3.2659 H   0  0  0  0  0  0  0  0  0  0  0  0
    2.6213   -3.3126    2.7149 H   0  0  0  0  0  0  0  0  0  0  0  0
    3.4795   -0.5145    3.5864 H   0  0  0  0  0  0  0  0  0  0  0  0
    2.2178   -1.5376    4.2885 H   0  0  0  0  0  0  0  0  0  0  0  0
  1  2  1  0
  2  3  2  0
  2  4  1  0
  4  5  1  0
  5  6  1  0
  6  7  1  0
  7  8  2  0
  8  9  1  0
  9 10  1  0
 10 11  1  0
 11 12  2  0
 12 13  1  0
 13 14  2  0
 14 15  1  0
 14 16  1  0
 16 17  2  0
 10 18  1  0
 18 19  1  0
 19 20  1  0
 20 21  1  0
 21 22  1  0
 22 23  1  0
  8 24  1  0
 24 25  1  0
 25 26  1  0
 26 27  1  0
  9  5  2  0
 17 11  1  0
 23 18  1  0
 27  7  1  0
  1 28  1  0
  1 29  1  0
  1 30  1  0
  4 31  1  0
 10 32  1  0
 12 33  1  0
 13 34  1  0
 16 35  1  0
 17 36  1  0
 19 37  1  0
 19 38  1  0
 20 39  1  0
 20 40  1  0
 22 41  1  0
 22 42  1  0
 23 43  1  0
 23 44  1  0
 24 45  1  0
 24 46  1  0
 25 47  1  0
 25 48  1  0
 26 49  1  0
 26 50  1  0
 27 51  1  0
 27 52  1  0
M  END
$$$$
