
     RDKit          3D

 68 69  0  0  0  0  0  0  0  0999 V2000
   10.2101    1.2675    1.3351 C   0  0  0  0  0  0  0  0  0  0  0  0
    9.3295    0.7052    0.2307 C   0  0  0  0  0  0  0  0  0  0  0  0
    7.9902    0.2105    0.7787 C   0  0  0  0  0  0  0  0  0  0  0  0
    7.1064   -0.3463   -0.3394 C   0  0  0  0  0  0  0  0  0  0  0  0
    5.7970   -0.9526    0.1666 C   0  0  0  0  0  0  0  0  0  0  0  0
    4.8589    0.0663    0.8072 C   0  0  0  0  0  0  0  0  0  0  0  0
    3.6273   -0.5781    1.1894 O   0  0  0  0  0  0  0  0  0  0  0  0
    2.6574   -0.6367    0.2370 C   0  0  0  0  0  0  0  0  0  0  0  0
    2.7508   -0.2023   -0.9022 O   0  0  0  0  0  0  0  0  0  0  0  0
    1.4278   -1.3425    0.8060 C   0  0  0  0  0  0  0  0  0  0  0  0
    0.1581   -1.4482   -0.1274 N   0  0  0  0  0  4  0  0  0  0  0  0
    0.5069   -2.2303   -1.3866 C   0  0  0  0  0  0  0  0  0  0  0  0
   -0.9062   -2.2137    0.6584 C   0  0  0  0  0  0  0  0  0  0  0  0
   -0.3245   -0.0106   -0.4759 C   0  0  0  0  0  0  0  0  0  0  0  0
   -1.6659    0.0592   -1.2260 C   0  0  0  0  0  0  0  0  0  0  0  0
   -2.7274   -0.3097   -0.3471 O   0  0  0  0  0  0  0  0  0  0  0  0
   -4.0245   -0.0774   -0.8969 C   0  0  0  0  0  0  0  0  0  0  0  0
   -4.9685   -1.2271   -0.4820 C   0  0  0  0  0  0  0  0  0  0  0  0
   -6.1068   -0.4930    0.2629 C   0  0  0  0  0  0  0  0  0  0  0  0
   -5.5290   -0.0723    1.6325 C   0  0  0  0  0  0  0  0  0  0  0  0
   -4.5908    1.0894    1.2666 C   0  0  0  0  0  0  0  0  0  0  0  0
   -4.7330    1.1733   -0.2802 C   0  0  0  0  0  0  0  0  0  0  0  0
   -4.2367    2.4960   -0.8341 C   0  0  0  0  0  0  0  0  0  0  0  0
   -6.2424    0.8487   -0.5028 C   0  0  0  0  0  0  0  0  0  0  0  0
   -7.2390    1.8358    0.1394 C   0  0  0  0  0  0  0  0  0  0  0  0
   -6.6817    0.6962   -1.9728 C   0  0  0  0  0  0  0  0  0  0  0  0
    9.7254    2.1151    1.8300 H   0  0  0  0  0  0  0  0  0  0  0  0
   11.1618    1.6148    0.9210 H   0  0  0  0  0  0  0  0  0  0  0  0
   10.4263    0.5056    2.0908 H   0  0  0  0  0  0  0  0  0  0  0  0
    9.8567   -0.1185   -0.2647 H   0  0  0  0  0  0  0  0  0  0  0  0
    9.1588    1.4820   -0.5237 H   0  0  0  0  0  0  0  0  0  0  0  0
    7.4811    1.0402    1.2819 H   0  0  0  0  0  0  0  0  0  0  0  0
    8.1664   -0.5679    1.5308 H   0  0  0  0  0  0  0  0  0  0  0  0
    6.8869    0.4447   -1.0668 H   0  0  0  0  0  0  0  0  0  0  0  0
    7.6588   -1.1260   -0.8783 H   0  0  0  0  0  0  0  0  0  0  0  0
    6.0042   -1.7575    0.8827 H   0  0  0  0  0  0  0  0  0  0  0  0
    5.2857   -1.4358   -0.6751 H   0  0  0  0  0  0  0  0  0  0  0  0
    5.2942    0.4666    1.7279 H   0  0  0  0  0  0  0  0  0  0  0  0
    4.6649    0.9169    0.1433 H   0  0  0  0  0  0  0  0  0  0  0  0
    1.7069   -2.3715    1.0582 H   0  0  0  0  0  0  0  0  0  0  0  0
    1.0961   -0.8103    1.7042 H   0  0  0  0  0  0  0  0  0  0  0  0
   -0.4181   -2.4723   -1.9171 H   0  0  0  0  0  0  0  0  0  0  0  0
    1.0139   -3.1530   -1.0900 H   0  0  0  0  0  0  0  0  0  0  0  0
    1.1490   -1.6243   -2.0278 H   0  0  0  0  0  0  0  0  0  0  0  0
   -0.4550   -3.1380    1.0328 H   0  0  0  0  0  0  0  0  0  0  0  0
   -1.7314   -2.4720   -0.0092 H   0  0  0  0  0  0  0  0  0  0  0  0
   -1.2386   -1.5911    1.4937 H   0  0  0  0  0  0  0  0  0  0  0  0
   -0.4024    0.5227    0.4785 H   0  0  0  0  0  0  0  0  0  0  0  0
    0.4516    0.4535   -1.0887 H   0  0  0  0  0  0  0  0  0  0  0  0
   -1.6703   -0.5941   -2.1038 H   0  0  0  0  0  0  0  0  0  0  0  0
   -1.8159    1.0893   -1.5655 H   0  0  0  0  0  0  0  0  0  0  0  0
   -3.9685   -0.0233   -1.9910 H   0  0  0  0  0  0  0  0  0  0  0  0
   -4.4774   -1.9825    0.1407 H   0  0  0  0  0  0  0  0  0  0  0  0
   -5.3599   -1.7381   -1.3685 H   0  0  0  0  0  0  0  0  0  0  0  0
   -7.0206   -1.0862    0.3447 H   0  0  0  0  0  0  0  0  0  0  0  0
   -4.9914   -0.8870    2.1290 H   0  0  0  0  0  0  0  0  0  0  0  0
   -6.3170    0.2636    2.3146 H   0  0  0  0  0  0  0  0  0  0  0  0
   -3.5646    0.9000    1.5974 H   0  0  0  0  0  0  0  0  0  0  0  0
   -4.9118    2.0142    1.7588 H   0  0  0  0  0  0  0  0  0  0  0  0
   -4.2998    2.5186   -1.9267 H   0  0  0  0  0  0  0  0  0  0  0  0
   -3.1941    2.6748   -0.5529 H   0  0  0  0  0  0  0  0  0  0  0  0
   -4.8244    3.3352   -0.4483 H   0  0  0  0  0  0  0  0  0  0  0  0
   -7.2442    2.7882   -0.4028 H   0  0  0  0  0  0  0  0  0  0  0  0
   -8.2556    1.4273    0.1017 H   0  0  0  0  0  0  0  0  0  0  0  0
   -7.0353    2.0728    1.1855 H   0  0  0  0  0  0  0  0  0  0  0  0
   -6.0657    0.0177   -2.5660 H   0  0  0  0  0  0  0  0  0  0  0  0
   -7.7073    0.3125   -2.0249 H   0  0  0  0  0  0  0  0  0  0  0  0
   -6.6632    1.6657   -2.4834 H   0  0  0  0  0  0  0  0  0  0  0  0
  1  2  1  0
  2  3  1  0
  3  4  1  0
  4  5  1  0
  5  6  1  0
  6  7  1  0
  7  8  1  0
  8  9  2  0
  8 10  1  0
 10 11  1  0
 11 12  1  0
 11 13  1  0
 11 14  1  0
 14 15  1  0
 15 16  1  0
 16 17  1  0
 17 18  1  0
 18 19  1  0
 19 20  1  0
 20 21  1  0
 21 22  1  0
 22 23  1  0
 22 24  1  0
 24 25  1  0
 24 26  1  0
 22 17  1  0
 24 19  1  0
  1 27  1  0
  1 28  1  0
  1 29  1  0
  2 30  1  0
  2 31  1  0
  3 32  1  0
  3 33  1  0
  4 34  1  0
  4 35  1  0
  5 36  1  0
  5 37  1  0
  6 38  1  0
  6 39  1  0
 10 40  1  0
 10 41  1  0
 12 42  1  0
 12 43  1  0
 12 44  1  0
 13 45  1  0
 13 46  1  0
 13 47  1  0
 14 48  1  0
 14 49  1  0
 15 50  1  0
 15 51  1  0
 17 52  1  0
 18 53  1  0
 18 54  1  0
 19 55  1  0
 20 56  1  0
 20 57  1  0
 21 58  1  0
 21 59  1  0
 23 60  1  0
 23 61  1  0
 23 62  1  0
 25 63  1  0
 25 64  1  0
 25 65  1  0
 26 66  1  0
 26 67  1  0
 26 68  1  0
M  CHG  1  11   1
M  END
$$$$
