
     RDKit          3D

 42 43  0  0  0  0  0  0  0  0999 V2000
    2.6725    1.5955    2.5888 C   0  0  0  0  0  0  0  0  0  0  0  0
    2.8138    0.7710    1.3258 C   0  0  0  0  0  0  0  0  0  0  0  0
    2.0159   -0.2052    1.0049 N   0  0  0  0  0  0  0  0  0  0  0  0
    0.9584   -0.5021    1.8075 N   0  0  0  0  0  0  0  0  0  0  0  0
    0.0873   -1.5194    1.4398 C   0  0  0  0  0  0  0  0  0  0  0  0
    0.2161   -2.2424    0.4539 O   0  0  0  0  0  0  0  0  0  0  0  0
   -1.0483   -1.6870    2.4393 C   0  0  0  0  0  0  0  0  0  0  0  0
   -2.1949   -2.5466    1.9013 C   0  0  0  0  0  0  0  0  0  0  0  0
   -3.1603   -1.7732    0.9965 C   0  0  0  0  0  0  0  0  0  0  0  0
   -2.4468   -1.1173   -0.0857 N   0  0  0  0  0  0  0  0  0  0  0  0
   -3.1416   -0.4642   -1.1048 C   0  0  0  0  0  0  0  0  0  0  0  0
   -2.4347   -0.0937   -2.2584 C   0  0  0  0  0  0  0  0  0  0  0  0
   -3.0473    0.6209   -3.2919 C   0  0  0  0  0  0  0  0  0  0  0  0
   -4.3797    1.0025   -3.1765 C   0  0  0  0  0  0  0  0  0  0  0  0
   -5.0891    0.6794   -2.0236 C   0  0  0  0  0  0  0  0  0  0  0  0
   -4.4689   -0.0356   -0.9924 C   0  0  0  0  0  0  0  0  0  0  0  0
    3.9351    1.0906    0.3888 C   0  0  0  0  0  0  0  0  0  0  0  0
    4.4145    0.0854   -0.4534 C   0  0  0  0  0  0  0  0  0  0  0  0
    5.4474    0.3943   -1.3189 C   0  0  0  0  0  0  0  0  0  0  0  0
    6.0168    1.6160   -1.3979 N   0  0  0  0  0  0  0  0  0  0  0  0
    5.5213    2.5746   -0.5879 C   0  0  0  0  0  0  0  0  0  0  0  0
    4.4900    2.3674    0.3128 C   0  0  0  0  0  0  0  0  0  0  0  0
    3.5755    2.1669    2.8142 H   0  0  0  0  0  0  0  0  0  0  0  0
    1.8287    2.2825    2.4795 H   0  0  0  0  0  0  0  0  0  0  0  0
    2.4975    0.9380    3.4457 H   0  0  0  0  0  0  0  0  0  0  0  0
    0.7133    0.1165    2.5694 H   0  0  0  0  0  0  0  0  0  0  0  0
   -1.4205   -0.7052    2.7530 H   0  0  0  0  0  0  0  0  0  0  0  0
   -0.6187   -2.1804    3.3196 H   0  0  0  0  0  0  0  0  0  0  0  0
   -1.8041   -3.4186    1.3633 H   0  0  0  0  0  0  0  0  0  0  0  0
   -2.7699   -2.9362    2.7504 H   0  0  0  0  0  0  0  0  0  0  0  0
   -3.6864   -1.0271    1.6038 H   0  0  0  0  0  0  0  0  0  0  0  0
   -3.9033   -2.4744    0.5978 H   0  0  0  0  0  0  0  0  0  0  0  0
   -1.6628   -1.6685   -0.4530 H   0  0  0  0  0  0  0  0  0  0  0  0
   -1.3853   -0.3642   -2.3582 H   0  0  0  0  0  0  0  0  0  0  0  0
   -2.4775    0.8828   -4.1790 H   0  0  0  0  0  0  0  0  0  0  0  0
   -4.8594    1.5598   -3.9761 H   0  0  0  0  0  0  0  0  0  0  0  0
   -6.1252    0.9893   -1.9187 H   0  0  0  0  0  0  0  0  0  0  0  0
   -5.0498   -0.2498   -0.1013 H   0  0  0  0  0  0  0  0  0  0  0  0
    3.9942   -0.9157   -0.4404 H   0  0  0  0  0  0  0  0  0  0  0  0
    5.8551   -0.3540   -1.9927 H   0  0  0  0  0  0  0  0  0  0  0  0
    5.9885    3.5504   -0.6902 H   0  0  0  0  0  0  0  0  0  0  0  0
    4.1325    3.1971    0.9094 H   0  0  0  0  0  0  0  0  0  0  0  0
  1  2  1  0
  2  3  2  3
  3  4  1  0
  4  5  1  0
  5  6  2  0
  5  7  1  0
  7  8  1  0
  8  9  1  0
  9 10  1  0
 10 11  1  0
 11 12  2  0
 12 13  1  0
 13 14  2  0
 14 15  1  0
 15 16  2  0
  2 17  1  0
 17 18  2  0
 18 19  1  0
 19 20  2  0
 20 21  1  0
 21 22  2  0
 16 11  1  0
 22 17  1  0
  1 23  1  0
  1 24  1  0
  1 25  1  0
  4 26  1  0
  7 27  1  0
  7 28  1  0
  8 29  1  0
  8 30  1  0
  9 31  1  0
  9 32  1  0
 10 33  1  0
 12 34  1  0
 13 35  1  0
 14 36  1  0
 15 37  1  0
 16 38  1  0
 18 39  1  0
 19 40  1  0
 21 41  1  0
 22 42  1  0
M  END
$$$$
