
     RDKit          3D

 61 65  0  0  0  0  0  0  0  0999 V2000
   -4.8347    2.6047   -2.5816 C   0  0  0  0  0  0  0  0  0  0  0  0
   -4.6276    1.7461   -1.4692 O   0  0  0  0  0  0  0  0  0  0  0  0
   -4.6895    0.3928   -1.6899 C   0  0  0  0  0  0  0  0  0  0  0  0
   -4.8989   -0.1953   -2.9430 C   0  0  0  0  0  0  0  0  0  0  0  0
   -4.9343   -1.5865   -3.0782 C   0  0  0  0  0  0  0  0  0  0  0  0
   -4.7593   -2.4044   -1.9660 C   0  0  0  0  0  0  0  0  0  0  0  0
   -4.5499   -1.8320   -0.7128 C   0  0  0  0  0  0  0  0  0  0  0  0
   -4.5167   -0.4359   -0.5619 C   0  0  0  0  0  0  0  0  0  0  0  0
   -4.2831    0.1208    0.7770 C   0  0  0  0  0  0  0  0  0  0  0  0
   -5.6398    0.5261    1.7343 S   0  0  0  0  0  0  0  0  0  0  0  0
   -4.6647    1.0431    3.0519 C   0  0  0  0  0  0  0  0  0  0  0  0
   -5.1153    1.5501    4.2875 C   0  0  0  0  0  0  0  0  0  0  0  0
   -4.1766    1.9258    5.2504 C   0  0  0  0  0  0  0  0  0  0  0  0
   -2.8191    1.8034    4.9946 C   0  0  0  0  0  0  0  0  0  0  0  0
   -2.3770    1.2997    3.7678 C   0  0  0  0  0  0  0  0  0  0  0  0
   -3.3042    0.9049    2.7678 C   0  0  0  0  0  0  0  0  0  0  0  0
   -3.0939    0.3646    1.4432 C   0  0  0  0  0  0  0  0  0  0  0  0
   -1.8019    0.0774    0.8322 C   0  0  0  0  0  0  0  0  0  0  0  0
   -1.2975    0.8998   -0.1778 C   0  0  0  0  0  0  0  0  0  0  0  0
   -0.0543    0.6193   -0.7490 C   0  0  0  0  0  0  0  0  0  0  0  0
    0.6989   -0.4757   -0.3171 C   0  0  0  0  0  0  0  0  0  0  0  0
    1.8938   -0.6335   -0.9619 O   0  0  0  0  0  0  0  0  0  0  0  0
    2.7527   -1.6773   -0.5006 C   0  0  0  0  0  0  0  0  0  0  0  0
    4.0654   -1.6628   -1.3105 C   0  0  0  0  0  0  0  0  0  0  0  0
    4.8956   -0.4504   -1.1690 N   0  0  0  0  0  0  0  0  0  0  0  0
    5.2445   -0.1585    0.2279 C   0  0  0  0  0  0  0  0  0  0  0  0
    6.4409    0.7843    0.3436 C   0  0  0  0  0  0  0  0  0  0  0  0
    7.6952    0.1706   -0.2762 C   0  0  0  0  0  0  0  0  0  0  0  0
    7.3656   -0.8188   -1.3928 C   0  0  0  0  0  0  0  0  0  0  0  0
    6.0491   -0.4659   -2.0807 C   0  0  0  0  0  0  0  0  0  0  0  0
    0.1952   -1.2961    0.6932 C   0  0  0  0  0  0  0  0  0  0  0  0
   -1.0506   -1.0190    1.2679 C   0  0  0  0  0  0  0  0  0  0  0  0
   -4.0540    2.4670   -3.3369 H   0  0  0  0  0  0  0  0  0  0  0  0
   -4.7707    3.6366   -2.2232 H   0  0  0  0  0  0  0  0  0  0  0  0
   -5.8321    2.4635   -3.0107 H   0  0  0  0  0  0  0  0  0  0  0  0
   -5.0344    0.4010   -3.8389 H   0  0  0  0  0  0  0  0  0  0  0  0
   -5.0958   -2.0308   -4.0572 H   0  0  0  0  0  0  0  0  0  0  0  0
   -4.7837   -3.4855   -2.0730 H   0  0  0  0  0  0  0  0  0  0  0  0
   -4.4108   -2.4768    0.1520 H   0  0  0  0  0  0  0  0  0  0  0  0
   -6.1784    1.6498    4.4879 H   0  0  0  0  0  0  0  0  0  0  0  0
   -4.5153    2.3200    6.2055 H   0  0  0  0  0  0  0  0  0  0  0  0
   -2.0936    2.1025    5.7470 H   0  0  0  0  0  0  0  0  0  0  0  0
   -1.3094    1.2156    3.5775 H   0  0  0  0  0  0  0  0  0  0  0  0
   -1.8668    1.7583   -0.5261 H   0  0  0  0  0  0  0  0  0  0  0  0
    0.3330    1.2612   -1.5365 H   0  0  0  0  0  0  0  0  0  0  0  0
    2.9618   -1.5661    0.5695 H   0  0  0  0  0  0  0  0  0  0  0  0
    2.2654   -2.6458   -0.6687 H   0  0  0  0  0  0  0  0  0  0  0  0
    3.7874   -1.7627   -2.3677 H   0  0  0  0  0  0  0  0  0  0  0  0
    4.6538   -2.5484   -1.0387 H   0  0  0  0  0  0  0  0  0  0  0  0
    5.4784   -1.0824    0.7736 H   0  0  0  0  0  0  0  0  0  0  0  0
    4.3856    0.3071    0.7245 H   0  0  0  0  0  0  0  0  0  0  0  0
    6.2089    1.7319   -0.1599 H   0  0  0  0  0  0  0  0  0  0  0  0
    6.6310    1.0305    1.3946 H   0  0  0  0  0  0  0  0  0  0  0  0
    8.3319    0.9758   -0.6617 H   0  0  0  0  0  0  0  0  0  0  0  0
    8.2823   -0.3447    0.4933 H   0  0  0  0  0  0  0  0  0  0  0  0
    8.1832   -0.8350   -2.1225 H   0  0  0  0  0  0  0  0  0  0  0  0
    7.2996   -1.8325   -0.9773 H   0  0  0  0  0  0  0  0  0  0  0  0
    6.1405    0.5360   -2.5199 H   0  0  0  0  0  0  0  0  0  0  0  0
    5.8856   -1.1411   -2.9298 H   0  0  0  0  0  0  0  0  0  0  0  0
    0.7412   -2.1600    1.0551 H   0  0  0  0  0  0  0  0  0  0  0  0
   -1.4326   -1.6665    2.0538 H   0  0  0  0  0  0  0  0  0  0  0  0
  1  2  1  0
  2  3  1  0
  3  4  2  0
  4  5  1  0
  5  6  2  0
  6  7  1  0
  7  8  2  0
  8  9  1  0
  9 10  1  0
 10 11  1  0
 11 12  2  0
 12 13  1  0
 13 14  2  0
 14 15  1  0
 15 16  2  0
 16 17  1  0
 17 18  1  0
 18 19  2  0
 19 20  1  0
 20 21  2  0
 21 22  1  0
 22 23  1  0
 23 24  1  0
 24 25  1  0
 25 26  1  0
 26 27  1  0
 27 28  1  0
 28 29  1  0
 29 30  1  0
 21 31  1  0
 31 32  2  0
  8  3  1  0
 17  9  2  0
 32 18  1  0
 16 11  1  0
 30 25  1  0
  1 33  1  0
  1 34  1  0
  1 35  1  0
  4 36  1  0
  5 37  1  0
  6 38  1  0
  7 39  1  0
 12 40  1  0
 13 41  1  0
 14 42  1  0
 15 43  1  0
 19 44  1  0
 20 45  1  0
 23 46  1  0
 23 47  1  0
 24 48  1  0
 24 49  1  0
 26 50  1  0
 26 51  1  0
 27 52  1  0
 27 53  1  0
 28 54  1  0
 28 55  1  0
 29 56  1  0
 29 57  1  0
 30 58  1  0
 30 59  1  0
 31 60  1  0
 32 61  1  0
M  END
$$$$
