
     RDKit          3D

 48 48  0  0  0  0  0  0  0  0999 V2000
   -6.0101    1.5978    1.9014 C   0  0  0  0  0  0  0  0  0  0  0  0
   -4.9342    2.4418    1.2356 C   0  0  0  0  0  0  0  0  0  0  0  0
   -3.8810    1.6139    0.4946 C   0  0  0  0  0  0  0  0  0  0  0  0
   -4.4504    0.8452   -0.7008 C   0  0  0  0  0  0  0  0  0  0  0  0
   -3.3712    0.1943   -1.5724 C   0  0  0  0  0  0  0  0  0  0  0  0
   -2.5945   -0.9119   -0.8528 C   0  0  0  0  0  0  0  0  0  0  0  0
   -1.6023   -1.5941   -1.7988 C   0  0  0  0  0  0  0  0  0  0  0  0
   -0.8867   -2.7979   -1.1733 C   0  0  0  0  0  0  0  0  0  0  0  0
    0.0011   -2.4705    0.0275 C   0  0  0  0  0  0  0  0  0  0  0  0
    1.2387   -1.6614   -0.3277 C   0  0  0  0  0  0  0  0  0  0  0  0
    1.6072   -1.4682   -1.4820 O   0  0  0  0  0  0  0  0  0  0  0  0
    1.9109   -1.2230    0.8191 N   0  0  0  0  0  0  0  0  0  0  0  0
    2.8928   -0.2719    0.7241 N   0  0  0  0  0  0  0  0  0  0  0  0
    4.0031   -0.5700    0.1066 C   0  0  0  0  0  0  0  0  0  0  0  0
    4.3698   -1.9595   -0.3825 C   0  0  0  0  0  0  0  0  0  0  0  0
    5.0037    0.5184   -0.1029 C   0  0  0  0  0  0  0  0  0  0  0  0
    4.9527    1.6842    0.6663 C   0  0  0  0  0  0  0  0  0  0  0  0
    5.8935    2.6909    0.4579 C   0  0  0  0  0  0  0  0  0  0  0  0
    6.8563    2.4988   -0.5193 C   0  0  0  0  0  0  0  0  0  0  0  0
    6.9331    1.3909   -1.2878 N   0  0  0  0  0  0  0  0  0  0  0  0
    5.9996    0.4305   -1.0683 C   0  0  0  0  0  0  0  0  0  0  0  0
   -5.5679    0.8572    2.5752 H   0  0  0  0  0  0  0  0  0  0  0  0
   -6.6770    2.2359    2.4902 H   0  0  0  0  0  0  0  0  0  0  0  0
   -6.6222    1.0725    1.1625 H   0  0  0  0  0  0  0  0  0  0  0  0
   -5.4033    3.1531    0.5459 H   0  0  0  0  0  0  0  0  0  0  0  0
   -4.4294    3.0353    2.0073 H   0  0  0  0  0  0  0  0  0  0  0  0
   -3.0951    2.2940    0.1440 H   0  0  0  0  0  0  0  0  0  0  0  0
   -3.4104    0.9203    1.2006 H   0  0  0  0  0  0  0  0  0  0  0  0
   -5.0265    1.5352   -1.3296 H   0  0  0  0  0  0  0  0  0  0  0  0
   -5.1468    0.0724   -0.3560 H   0  0  0  0  0  0  0  0  0  0  0  0
   -2.6753    0.9624   -1.9313 H   0  0  0  0  0  0  0  0  0  0  0  0
   -3.8591   -0.2285   -2.4595 H   0  0  0  0  0  0  0  0  0  0  0  0
   -2.0541   -0.4831   -0.0033 H   0  0  0  0  0  0  0  0  0  0  0  0
   -3.2961   -1.6553   -0.4563 H   0  0  0  0  0  0  0  0  0  0  0  0
   -2.1418   -1.9484   -2.6863 H   0  0  0  0  0  0  0  0  0  0  0  0
   -0.8705   -0.8599   -2.1540 H   0  0  0  0  0  0  0  0  0  0  0  0
   -1.6402   -3.5313   -0.8602 H   0  0  0  0  0  0  0  0  0  0  0  0
   -0.2841   -3.2851   -1.9500 H   0  0  0  0  0  0  0  0  0  0  0  0
   -0.5704   -1.9489    0.8016 H   0  0  0  0  0  0  0  0  0  0  0  0
    0.3545   -3.4127    0.4649 H   0  0  0  0  0  0  0  0  0  0  0  0
    1.3134   -1.0772    1.6281 H   0  0  0  0  0  0  0  0  0  0  0  0
    3.8382   -2.7329    0.1776 H   0  0  0  0  0  0  0  0  0  0  0  0
    5.4379   -2.1468   -0.2352 H   0  0  0  0  0  0  0  0  0  0  0  0
    4.1355   -2.0534   -1.4459 H   0  0  0  0  0  0  0  0  0  0  0  0
    4.1865    1.8137    1.4263 H   0  0  0  0  0  0  0  0  0  0  0  0
    5.8731    3.6033    1.0434 H   0  0  0  0  0  0  0  0  0  0  0  0
    7.6111    3.2545   -0.7184 H   0  0  0  0  0  0  0  0  0  0  0  0
    6.0878   -0.4245   -1.7314 H   0  0  0  0  0  0  0  0  0  0  0  0
  1  2  1  0
  2  3  1  0
  3  4  1  0
  4  5  1  0
  5  6  1  0
  6  7  1  0
  7  8  1  0
  8  9  1  0
  9 10  1  0
 10 11  2  0
 10 12  1  0
 12 13  1  0
 13 14  2  3
 14 15  1  0
 14 16  1  0
 16 17  2  0
 17 18  1  0
 18 19  2  0
 19 20  1  0
 20 21  2  0
 21 16  1  0
  1 22  1  0
  1 23  1  0
  1 24  1  0
  2 25  1  0
  2 26  1  0
  3 27  1  0
  3 28  1  0
  4 29  1  0
  4 30  1  0
  5 31  1  0
  5 32  1  0
  6 33  1  0
  6 34  1  0
  7 35  1  0
  7 36  1  0
  8 37  1  0
  8 38  1  0
  9 39  1  0
  9 40  1  0
 12 41  1  0
 15 42  1  0
 15 43  1  0
 15 44  1  0
 17 45  1  0
 18 46  1  0
 19 47  1  0
 21 48  1  0
M  END
$$$$
