
     RDKit          3D

 50 51  0  0  0  0  0  0  0  0999 V2000
    6.5925    1.8926   -1.4605 C   0  0  0  0  0  0  0  0  0  0  0  0
    5.5422    1.0114   -0.8504 C   0  0  0  0  0  0  0  0  0  0  0  0
    4.4757    1.5708   -0.1368 C   0  0  0  0  0  0  0  0  0  0  0  0
    3.4800    0.7540    0.4035 C   0  0  0  0  0  0  0  0  0  0  0  0
    3.5289   -0.6324    0.2212 C   0  0  0  0  0  0  0  0  0  0  0  0
    2.4837   -1.4869    0.7819 C   0  0  0  0  0  0  0  0  0  0  0  0
    2.5710   -2.0027    2.0146 C   0  0  0  0  0  0  0  0  0  0  0  0
    1.1790   -2.9507    2.4148 S   0  0  0  0  0  0  0  0  0  0  0  0
    0.4346   -2.6138    0.8394 C   0  0  0  0  0  0  0  0  0  0  0  0
   -1.0765   -3.1636    0.4087 S   0  0  0  0  0  0  0  0  0  0  0  0
    1.3187   -1.8250    0.0994 N   0  0  0  0  0  0  0  0  0  0  0  0
    1.0247   -1.3185   -1.2495 C   0  0  0  0  0  0  0  0  0  0  0  0
    0.3130    0.0303   -1.2918 C   0  0  0  0  0  0  0  0  0  0  0  0
    0.0614    0.6153   -2.3384 O   0  0  0  0  0  0  0  0  0  0  0  0
   -0.0209    0.4915   -0.0537 O   0  0  0  0  0  0  0  0  0  0  0  0
   -0.6270    1.7853   -0.0433 C   0  0  0  0  0  0  0  0  0  0  0  0
   -2.1104    1.7898   -0.4124 C   0  0  0  0  0  0  0  0  0  0  0  0
   -2.6309    2.7264   -1.0113 O   0  0  0  0  0  0  0  0  0  0  0  0
   -2.8113    0.6987    0.0646 N   0  0  0  0  0  0  0  0  0  0  0  0
   -4.2145    0.4790   -0.2669 C   0  0  0  0  0  0  0  0  0  0  0  0
   -4.3165   -0.4518   -1.4760 C   0  0  0  0  0  0  0  0  0  0  0  0
   -5.0334   -0.0228    0.9484 C   0  0  0  0  0  0  0  0  0  0  0  0
   -5.0568    1.0274    2.0650 C   0  0  0  0  0  0  0  0  0  0  0  0
   -4.5607   -1.3639    1.5132 C   0  0  0  0  0  0  0  0  0  0  0  0
    4.5913   -1.1939   -0.4956 C   0  0  0  0  0  0  0  0  0  0  0  0
    5.5870   -0.3756   -1.0344 C   0  0  0  0  0  0  0  0  0  0  0  0
    6.2918    2.1883   -2.4703 H   0  0  0  0  0  0  0  0  0  0  0  0
    6.7443    2.7941   -0.8576 H   0  0  0  0  0  0  0  0  0  0  0  0
    7.5548    1.3730   -1.5151 H   0  0  0  0  0  0  0  0  0  0  0  0
    4.4156    2.6481    0.0040 H   0  0  0  0  0  0  0  0  0  0  0  0
    2.6662    1.2092    0.9637 H   0  0  0  0  0  0  0  0  0  0  0  0
    3.3927   -1.8568    2.7036 H   0  0  0  0  0  0  0  0  0  0  0  0
    1.9551   -1.2363   -1.8197 H   0  0  0  0  0  0  0  0  0  0  0  0
    0.3862   -2.0376   -1.7717 H   0  0  0  0  0  0  0  0  0  0  0  0
   -0.0822    2.4718   -0.7023 H   0  0  0  0  0  0  0  0  0  0  0  0
   -0.5413    2.1775    0.9758 H   0  0  0  0  0  0  0  0  0  0  0  0
   -2.2748   -0.0848    0.4193 H   0  0  0  0  0  0  0  0  0  0  0  0
   -4.6454    1.4409   -0.5733 H   0  0  0  0  0  0  0  0  0  0  0  0
   -5.3623   -0.6463   -1.7345 H   0  0  0  0  0  0  0  0  0  0  0  0
   -3.8324   -0.0003   -2.3495 H   0  0  0  0  0  0  0  0  0  0  0  0
   -3.8198   -1.4103   -1.2954 H   0  0  0  0  0  0  0  0  0  0  0  0
   -6.0706   -0.1583    0.6131 H   0  0  0  0  0  0  0  0  0  0  0  0
   -5.4250    1.9878    1.6889 H   0  0  0  0  0  0  0  0  0  0  0  0
   -5.7211    0.7127    2.8771 H   0  0  0  0  0  0  0  0  0  0  0  0
   -4.0607    1.1871    2.4909 H   0  0  0  0  0  0  0  0  0  0  0  0
   -5.2132   -1.6839    2.3333 H   0  0  0  0  0  0  0  0  0  0  0  0
   -4.5876   -2.1507    0.7541 H   0  0  0  0  0  0  0  0  0  0  0  0
   -3.5434   -1.2984    1.9108 H   0  0  0  0  0  0  0  0  0  0  0  0
    4.6482   -2.2698   -0.6463 H   0  0  0  0  0  0  0  0  0  0  0  0
    6.3997   -0.8279   -1.5992 H   0  0  0  0  0  0  0  0  0  0  0  0
  1  2  1  0
  2  3  2  0
  3  4  1  0
  4  5  2  0
  5  6  1  0
  6  7  2  0
  7  8  1  0
  8  9  1  0
  9 10  2  0
  9 11  1  0
 11 12  1  0
 12 13  1  0
 13 14  2  0
 13 15  1  0
 15 16  1  0
 16 17  1  0
 17 18  2  0
 17 19  1  0
 19 20  1  0
 20 21  1  0
 20 22  1  0
 22 23  1  0
 22 24  1  0
  5 25  1  0
 25 26  2  0
 26  2  1  0
 11  6  1  0
  1 27  1  0
  1 28  1  0
  1 29  1  0
  3 30  1  0
  4 31  1  0
  7 32  1  0
 12 33  1  0
 12 34  1  0
 16 35  1  0
 16 36  1  0
 19 37  1  0
 20 38  1  0
 21 39  1  0
 21 40  1  0
 21 41  1  0
 22 42  1  0
 23 43  1  0
 23 44  1  0
 23 45  1  0
 24 46  1  0
 24 47  1  0
 24 48  1  0
 25 49  1  0
 26 50  1  0
M  END
$$$$
