
     RDKit          3D

 43 44  0  0  0  0  0  0  0  0999 V2000
    2.9389   -4.2603   -3.8429 C   0  0  0  0  0  0  0  0  0  0  0  0
    2.3948   -3.4962   -2.7751 O   0  0  0  0  0  0  0  0  0  0  0  0
    2.8845   -2.2288   -2.6022 C   0  0  0  0  0  0  0  0  0  0  0  0
    3.8296   -1.6044   -3.4151 C   0  0  0  0  0  0  0  0  0  0  0  0
    4.2438   -0.3040   -3.1274 C   0  0  0  0  0  0  0  0  0  0  0  0
    3.7127    0.3738   -2.0293 C   0  0  0  0  0  0  0  0  0  0  0  0
    2.7602   -0.2388   -1.2055 C   0  0  0  0  0  0  0  0  0  0  0  0
    2.2702    0.5207   -0.1210 N   0  0  0  0  0  0  0  0  0  0  0  0
    1.3608    0.1219    0.8474 C   0  0  0  0  0  0  0  0  0  0  0  0
    0.8214   -0.9743    0.9384 O   0  0  0  0  0  0  0  0  0  0  0  0
    1.0497    1.2383    1.8148 C   0  0  0  0  0  0  0  0  0  0  0  0
    0.3481    0.7841    3.0762 C   0  0  0  0  0  0  0  0  0  0  0  0
    1.2255    0.3397    4.2219 C   0  0  0  0  0  0  0  0  0  0  0  0
   -0.9374    0.7836    3.2679 N   0  0  0  0  0  0  0  0  0  0  0  0
   -1.7476    1.0310    2.1984 N   0  0  0  0  0  0  0  0  0  0  0  0
   -3.0946    1.2830    2.4127 C   0  0  0  0  0  0  0  0  0  0  0  0
   -3.5894    1.5251    3.5125 O   0  0  0  0  0  0  0  0  0  0  0  0
   -3.9727    1.3451    1.2050 C   0  0  0  0  0  0  0  0  0  0  0  0
   -5.0856    2.2044    1.2985 C   0  0  0  0  0  0  0  0  0  0  0  0
   -5.9763    2.3521    0.2327 C   0  0  0  0  0  0  0  0  0  0  0  0
   -5.7748    1.6357   -0.9417 C   0  0  0  0  0  0  0  0  0  0  0  0
   -4.6860    0.7694   -1.0461 C   0  0  0  0  0  0  0  0  0  0  0  0
   -3.7858    0.6185    0.0200 C   0  0  0  0  0  0  0  0  0  0  0  0
   -2.5029   -0.5123   -0.2237 Cl  0  0  0  0  0  0  0  0  0  0  0  0
    2.3525   -1.5407   -1.5024 C   0  0  0  0  0  0  0  0  0  0  0  0
    2.6813   -3.8185   -4.8109 H   0  0  0  0  0  0  0  0  0  0  0  0
    4.0223   -4.3792   -3.7386 H   0  0  0  0  0  0  0  0  0  0  0  0
    2.4895   -5.2568   -3.8009 H   0  0  0  0  0  0  0  0  0  0  0  0
    4.2615   -2.1008   -4.2775 H   0  0  0  0  0  0  0  0  0  0  0  0
    4.9866    0.1807   -3.7575 H   0  0  0  0  0  0  0  0  0  0  0  0
    4.0580    1.3852   -1.8274 H   0  0  0  0  0  0  0  0  0  0  0  0
    2.6430    1.4585   -0.0445 H   0  0  0  0  0  0  0  0  0  0  0  0
    0.4447    1.9899    1.2961 H   0  0  0  0  0  0  0  0  0  0  0  0
    1.9853    1.7270    2.1130 H   0  0  0  0  0  0  0  0  0  0  0  0
    0.6220   -0.0628    5.0410 H   0  0  0  0  0  0  0  0  0  0  0  0
    1.8010    1.1955    4.5879 H   0  0  0  0  0  0  0  0  0  0  0  0
    1.9148   -0.4341    3.8729 H   0  0  0  0  0  0  0  0  0  0  0  0
   -1.4444    0.6836    1.2923 H   0  0  0  0  0  0  0  0  0  0  0  0
   -5.2619    2.7685    2.2151 H   0  0  0  0  0  0  0  0  0  0  0  0
   -6.8305    3.0182    0.3284 H   0  0  0  0  0  0  0  0  0  0  0  0
   -6.4707    1.7390   -1.7714 H   0  0  0  0  0  0  0  0  0  0  0  0
   -4.5531    0.1966   -1.9632 H   0  0  0  0  0  0  0  0  0  0  0  0
    1.6112   -2.0568   -0.8991 H   0  0  0  0  0  0  0  0  0  0  0  0
  1  2  1  0
  2  3  1  0
  3  4  2  0
  4  5  1  0
  5  6  2  0
  6  7  1  0
  7  8  1  0
  8  9  1  0
  9 10  2  0
  9 11  1  0
 11 12  1  0
 12 13  1  0
 12 14  2  3
 14 15  1  0
 15 16  1  0
 16 17  2  0
 16 18  1  0
 18 19  2  0
 19 20  1  0
 20 21  2  0
 21 22  1  0
 22 23  2  0
 23 24  1  0
  7 25  2  0
 25  3  1  0
 23 18  1  0
  1 26  1  0
  1 27  1  0
  1 28  1  0
  4 29  1  0
  5 30  1  0
  6 31  1  0
  8 32  1  0
 11 33  1  0
 11 34  1  0
 13 35  1  0
 13 36  1  0
 13 37  1  0
 15 38  1  0
 19 39  1  0
 20 40  1  0
 21 41  1  0
 22 42  1  0
 25 43  1  0
M  END
$$$$
