
     RDKit          3D

 68 73  0  0  0  0  0  0  0  0999 V2000
   -3.0413    5.1618   -2.0757 C   0  0  0  0  0  0  0  0  0  0  0  0
   -2.4800    3.8905   -1.7743 O   0  0  0  0  0  0  0  0  0  0  0  0
   -2.6023    3.4505   -0.4837 C   0  0  0  0  0  0  0  0  0  0  0  0
   -3.3044    4.1063    0.5451 C   0  0  0  0  0  0  0  0  0  0  0  0
   -3.3619    3.5625    1.8344 C   0  0  0  0  0  0  0  0  0  0  0  0
   -2.7018    2.3727    2.0580 C   0  0  0  0  0  0  0  0  0  0  0  0
   -1.9882    1.7082    1.0577 C   0  0  0  0  0  0  0  0  0  0  0  0
   -1.9513    2.2365   -0.2266 C   0  0  0  0  0  0  0  0  0  0  0  0
   -1.3843    0.4556    1.6418 C   0  0  1  0  0  0  0  0  0  0  0  0
   -1.9298    0.4764    3.1052 C   0  0  0  0  0  0  0  0  0  0  0  0
   -1.7735   -0.3437    3.9988 O   0  0  0  0  0  0  0  0  0  0  0  0
   -2.6550    1.6623    3.2482 N   0  0  0  0  0  0  0  0  0  0  0  0
   -1.8544   -0.7023    0.8564 C   0  0  0  0  0  0  0  0  0  0  0  0
   -0.7844   -1.4916    0.4406 C   0  0  0  0  0  0  0  0  0  0  0  0
   -1.2633   -2.5559   -0.2718 C   0  0  0  0  0  0  0  0  0  0  0  0
   -0.5805   -3.5917   -0.7540 O   0  0  0  0  0  0  0  0  0  0  0  0
   -2.6604   -2.4090   -0.3356 N   0  0  0  0  0  0  0  0  0  0  0  0
   -3.5614   -3.2825   -1.0099 C   0  0  0  0  0  0  0  0  0  0  0  0
   -3.2206   -3.8096   -2.2628 C   0  0  0  0  0  0  0  0  0  0  0  0
   -4.1135   -4.6514   -2.9282 C   0  0  0  0  0  0  0  0  0  0  0  0
   -5.3400   -4.9731   -2.3470 C   0  0  0  0  0  0  0  0  0  0  0  0
   -5.6775   -4.4556   -1.0954 C   0  0  0  0  0  0  0  0  0  0  0  0
   -4.7932   -3.6065   -0.4270 C   0  0  0  0  0  0  0  0  0  0  0  0
   -3.0159   -1.2473    0.3745 C   0  0  0  0  0  0  0  0  0  0  0  0
   -4.2537   -0.7633    0.4676 O   0  0  0  0  0  0  0  0  0  0  0  0
    0.5075   -0.9808    0.9413 C   0  0  1  0  0  0  0  0  0  0  0  0
    1.5707   -0.7930   -0.1589 C   0  0  0  0  0  0  0  0  0  0  0  0
    2.7093    0.0017    0.3082 N   0  0  0  0  0  0  0  0  0  0  0  0
    3.9911   -0.3261   -0.0808 C   0  0  0  0  0  0  0  0  0  0  0  0
    4.2574   -1.2559   -0.8308 O   0  0  0  0  0  0  0  0  0  0  0  0
    4.9126    0.5062    0.4709 O   0  0  0  0  0  0  0  0  0  0  0  0
    6.3295    0.3231    0.2223 C   0  0  0  0  0  0  0  0  0  0  0  0
    7.0104    1.4530    1.0100 C   0  0  0  0  0  0  0  0  0  0  0  0
    6.8179   -1.0211    0.7734 C   0  0  0  0  0  0  0  0  0  0  0  0
    6.6683    0.4921   -1.2635 C   0  0  0  0  0  0  0  0  0  0  0  0
    2.4186    1.1080    1.2231 C   0  0  0  0  0  0  0  0  0  0  0  0
    0.9178    1.4483    1.2832 C   0  0  0  0  0  0  0  0  0  0  0  0
    0.1088    0.2894    1.6559 N   0  0  0  0  0  0  0  0  0  0  0  0
   -2.5893    5.9486   -1.4627 H   0  0  0  0  0  0  0  0  0  0  0  0
   -2.8152    5.3864   -3.1214 H   0  0  0  0  0  0  0  0  0  0  0  0
   -4.1301    5.1478   -1.9666 H   0  0  0  0  0  0  0  0  0  0  0  0
   -3.8249    5.0414    0.3672 H   0  0  0  0  0  0  0  0  0  0  0  0
   -3.9120    4.0642    2.6229 H   0  0  0  0  0  0  0  0  0  0  0  0
   -1.4241    1.7206   -1.0244 H   0  0  0  0  0  0  0  0  0  0  0  0
   -3.1202    1.9081    4.1078 H   0  0  0  0  0  0  0  0  0  0  0  0
   -1.1925   -4.3393   -0.8926 H   0  0  0  0  0  0  0  0  0  0  0  0
   -2.2906   -3.5393   -2.7600 H   0  0  0  0  0  0  0  0  0  0  0  0
   -3.8587   -5.0464   -3.9104 H   0  0  0  0  0  0  0  0  0  0  0  0
   -6.0332   -5.6284   -2.8691 H   0  0  0  0  0  0  0  0  0  0  0  0
   -6.6296   -4.7179   -0.6406 H   0  0  0  0  0  0  0  0  0  0  0  0
   -5.0597   -3.2476    0.5666 H   0  0  0  0  0  0  0  0  0  0  0  0
   -4.7786   -1.0944   -0.2817 H   0  0  0  0  0  0  0  0  0  0  0  0
    0.9027   -1.6616    1.7057 H   0  0  0  0  0  0  0  0  0  0  0  0
    1.9074   -1.7671   -0.5308 H   0  0  0  0  0  0  0  0  0  0  0  0
    1.1493   -0.2571   -1.0193 H   0  0  0  0  0  0  0  0  0  0  0  0
    6.6662    2.4336    0.6576 H   0  0  0  0  0  0  0  0  0  0  0  0
    6.7512    1.3964    2.0746 H   0  0  0  0  0  0  0  0  0  0  0  0
    8.1014    1.4173    0.9144 H   0  0  0  0  0  0  0  0  0  0  0  0
    6.4622   -1.1701    1.7997 H   0  0  0  0  0  0  0  0  0  0  0  0
    6.4443   -1.8655    0.1850 H   0  0  0  0  0  0  0  0  0  0  0  0
    7.9130   -1.0823    0.7753 H   0  0  0  0  0  0  0  0  0  0  0  0
    6.2706   -0.3260   -1.8709 H   0  0  0  0  0  0  0  0  0  0  0  0
    7.7505    0.5205   -1.4229 H   0  0  0  0  0  0  0  0  0  0  0  0
    6.2354    1.4169   -1.6592 H   0  0  0  0  0  0  0  0  0  0  0  0
    2.7874    0.8220    2.2160 H   0  0  0  0  0  0  0  0  0  0  0  0
    2.9829    1.9914    0.9003 H   0  0  0  0  0  0  0  0  0  0  0  0
    0.6371    1.8271    0.2950 H   0  0  0  0  0  0  0  0  0  0  0  0
    0.7697    2.2560    2.0082 H   0  0  0  0  0  0  0  0  0  0  0  0
  1  2  1  0
  2  3  1  0
  3  4  2  0
  4  5  1  0
  5  6  2  0
  6  7  1  0
  7  8  2  0
  7  9  1  0
  9 10  1  0
 10 11  2  0
 10 12  1  0
  9 13  1  0
 13 14  1  0
 14 15  2  0
 15 16  1  0
 15 17  1  0
 17 18  1  0
 18 19  2  0
 19 20  1  0
 20 21  2  0
 21 22  1  0
 22 23  2  0
 17 24  1  0
 24 25  1  0
 14 26  1  0
 26 27  1  0
 27 28  1  0
 28 29  1  0
 29 30  2  0
 29 31  1  0
 31 32  1  0
 32 33  1  0
 32 34  1  0
 32 35  1  0
 28 36  1  0
 36 37  1  0
 37 38  1  0
  8  3  1  0
  9 38  1  1
 12  6  1  0
 24 13  2  0
 38 26  1  0
 23 18  1  0
  1 39  1  0
  1 40  1  0
  1 41  1  0
  4 42  1  0
  5 43  1  0
  8 44  1  0
 12 45  1  0
 16 46  1  0
 19 47  1  0
 20 48  1  0
 21 49  1  0
 22 50  1  0
 23 51  1  0
 25 52  1  0
 26 53  1  1
 27 54  1  0
 27 55  1  0
 33 56  1  0
 33 57  1  0
 33 58  1  0
 34 59  1  0
 34 60  1  0
 34 61  1  0
 35 62  1  0
 35 63  1  0
 35 64  1  0
 36 65  1  0
 36 66  1  0
 37 67  1  0
 37 68  1  0
M  END
$$$$
