
     RDKit          3D

 40 42  0  0  0  0  0  0  0  0999 V2000
    6.1930    1.5246   -0.1538 C   0  0  0  0  0  0  0  0  0  0  0  0
    4.8075    2.0691    0.1343 C   0  0  0  0  0  0  0  0  0  0  0  0
    3.8616    1.0150   -0.0726 O   0  0  0  0  0  0  0  0  0  0  0  0
    2.5648    1.3714    0.1541 C   0  0  0  0  0  0  0  0  0  0  0  0
    2.1989    2.4848    0.5048 O   0  0  0  0  0  0  0  0  0  0  0  0
    1.6534    0.1977   -0.0875 C   0  0  0  0  0  0  0  0  0  0  0  0
    0.3381    0.4237    0.0611 N   0  0  0  0  0  0  0  0  0  0  0  0
   -0.4907   -0.6128   -0.1362 C   0  0  0  0  0  0  0  0  0  0  0  0
   -1.8960   -0.4213   -0.0242 N   0  0  0  0  0  0  0  0  0  0  0  0
   -2.6134    0.6770    0.5153 C   0  0  0  0  0  0  0  0  0  0  0  0
   -2.0592    1.5031    1.5058 C   0  0  0  0  0  0  0  0  0  0  0  0
   -2.7884    2.5468    2.0811 C   0  0  0  0  0  0  0  0  0  0  0  0
   -4.1038    2.7688    1.6973 C   0  0  0  0  0  0  0  0  0  0  0  0
   -4.6937    1.9373    0.7491 C   0  0  0  0  0  0  0  0  0  0  0  0
   -3.9702    0.8808    0.1648 C   0  0  0  0  0  0  0  0  0  0  0  0
   -4.6745    0.0058   -0.8378 C   0  0  0  0  0  0  0  0  0  0  0  0
   -0.0104   -1.8970   -0.4681 C   0  0  0  0  0  0  0  0  0  0  0  0
   -0.8180   -3.0498   -0.6544 C   0  0  0  0  0  0  0  0  0  0  0  0
   -0.2502   -4.2770   -0.9901 C   0  0  0  0  0  0  0  0  0  0  0  0
    1.1258   -4.3718   -1.1395 C   0  0  0  0  0  0  0  0  0  0  0  0
    1.9231   -3.2413   -0.9444 C   0  0  0  0  0  0  0  0  0  0  0  0
    1.3801   -2.0077   -0.6068 C   0  0  0  0  0  0  0  0  0  0  0  0
    2.2094   -0.9808   -0.4261 N   0  0  0  0  0  0  0  0  0  0  0  0
    6.2557    1.1548   -1.1826 H   0  0  0  0  0  0  0  0  0  0  0  0
    6.4186    0.6779    0.5030 H   0  0  0  0  0  0  0  0  0  0  0  0
    6.9537    2.2967   -0.0088 H   0  0  0  0  0  0  0  0  0  0  0  0
    4.5890    2.9012   -0.5444 H   0  0  0  0  0  0  0  0  0  0  0  0
    4.7550    2.4153    1.1726 H   0  0  0  0  0  0  0  0  0  0  0  0
   -2.3303   -0.7580   -0.8756 H   0  0  0  0  0  0  0  0  0  0  0  0
   -1.0406    1.3487    1.8509 H   0  0  0  0  0  0  0  0  0  0  0  0
   -2.3217    3.1799    2.8310 H   0  0  0  0  0  0  0  0  0  0  0  0
   -4.6722    3.5807    2.1424 H   0  0  0  0  0  0  0  0  0  0  0  0
   -5.7302    2.1150    0.4706 H   0  0  0  0  0  0  0  0  0  0  0  0
   -5.7357    0.2627   -0.9243 H   0  0  0  0  0  0  0  0  0  0  0  0
   -4.2225    0.1259   -1.8276 H   0  0  0  0  0  0  0  0  0  0  0  0
   -4.6196   -1.0444   -0.5333 H   0  0  0  0  0  0  0  0  0  0  0  0
   -1.8963   -2.9980   -0.5192 H   0  0  0  0  0  0  0  0  0  0  0  0
   -0.8785   -5.1537   -1.1266 H   0  0  0  0  0  0  0  0  0  0  0  0
    1.5858   -5.3221   -1.3991 H   0  0  0  0  0  0  0  0  0  0  0  0
    3.0024   -3.3287   -1.0554 H   0  0  0  0  0  0  0  0  0  0  0  0
  1  2  1  0
  2  3  1  0
  3  4  1  0
  4  5  2  0
  4  6  1  0
  6  7  2  0
  7  8  1  0
  8  9  1  0
  9 10  1  0
 10 11  2  0
 11 12  1  0
 12 13  2  0
 13 14  1  0
 14 15  2  0
 15 16  1  0
  8 17  2  0
 17 18  1  0
 18 19  2  0
 19 20  1  0
 20 21  2  0
 21 22  1  0
 22 23  2  0
 23  6  1  0
 15 10  1  0
 22 17  1  0
  1 24  1  0
  1 25  1  0
  1 26  1  0
  2 27  1  0
  2 28  1  0
  9 29  1  0
 11 30  1  0
 12 31  1  0
 13 32  1  0
 14 33  1  0
 16 34  1  0
 16 35  1  0
 16 36  1  0
 18 37  1  0
 19 38  1  0
 20 39  1  0
 21 40  1  0
M  END
$$$$
