
     RDKit          3D

 57 59  0  0  0  0  0  0  0  0999 V2000
   -0.2264   -0.9058    4.4369 C   0  0  0  0  0  0  0  0  0  0  0  0
   -0.2594   -1.4877    3.0307 C   0  0  0  0  0  0  0  0  0  0  0  0
    0.4234   -0.5810    2.0093 C   0  0  0  0  0  0  0  0  0  0  0  0
   -0.2330    0.6922    1.9613 O   0  0  0  0  0  0  0  0  0  0  0  0
   -0.7885    1.0068    0.7479 C   0  0  0  0  0  0  0  0  0  0  0  0
   -1.7124    0.1556    0.1212 C   0  0  0  0  0  0  0  0  0  0  0  0
   -2.3391    0.4819   -1.0957 C   0  0  0  0  0  0  0  0  0  0  0  0
   -3.2381   -0.3774   -1.7217 N   0  0  0  0  0  0  0  0  0  0  0  0
   -3.8114   -1.5450   -1.0329 C   0  0  0  0  0  0  0  0  0  0  0  0
   -4.8437   -1.1388    0.0105 C   0  0  0  0  0  0  0  0  0  0  0  0
   -3.6697   -0.1658   -3.1113 C   0  0  0  0  0  0  0  0  0  0  0  0
   -4.9532    0.6474   -3.1809 C   0  0  0  0  0  0  0  0  0  0  0  0
   -2.0033    1.7361   -1.6348 C   0  0  0  0  0  0  0  0  0  0  0  0
   -1.1024    2.6103   -1.0099 C   0  0  0  0  0  0  0  0  0  0  0  0
   -0.4813    2.2480    0.1840 C   0  0  0  0  0  0  0  0  0  0  0  0
    0.4835    3.1800    0.7861 C   0  0  0  0  0  0  0  0  0  0  0  0
    1.8190    3.0230    0.9199 C   0  0  0  0  0  0  0  0  0  0  0  0
    2.5460    4.0457    1.6106 C   0  0  0  0  0  0  0  0  0  0  0  0
    3.0877    4.9211    2.1489 N   0  0  0  0  0  0  0  0  0  0  0  0
    2.5449    1.8898    0.4480 C   0  0  0  0  0  0  0  0  0  0  0  0
    3.5825    1.2754    0.9882 N   0  0  0  0  0  0  0  0  0  0  0  0
    3.9105    0.2500    0.1370 C   0  0  0  0  0  0  0  0  0  0  0  0
    4.9135   -0.7237    0.2464 C   0  0  0  0  0  0  0  0  0  0  0  0
    5.0490   -1.6823   -0.7736 C   0  0  0  0  0  0  0  0  0  0  0  0
    6.0951   -2.7529   -0.6587 C   0  0  0  0  0  0  0  0  0  0  0  0
    4.1699   -1.6675   -1.8675 C   0  0  0  0  0  0  0  0  0  0  0  0
    3.1648   -0.6997   -1.9936 C   0  0  0  0  0  0  0  0  0  0  0  0
    3.0736    0.2415   -0.9685 C   0  0  0  0  0  0  0  0  0  0  0  0
    2.2375    1.3082   -0.7641 N   0  0  0  0  0  0  0  0  0  0  0  0
    0.8035   -0.7320    4.7646 H   0  0  0  0  0  0  0  0  0  0  0  0
   -0.7688    0.0435    4.4877 H   0  0  0  0  0  0  0  0  0  0  0  0
   -0.6950   -1.5987    5.1429 H   0  0  0  0  0  0  0  0  0  0  0  0
    0.2357   -2.4650    3.0334 H   0  0  0  0  0  0  0  0  0  0  0  0
   -1.3058   -1.6470    2.7486 H   0  0  0  0  0  0  0  0  0  0  0  0
    1.4581   -0.3991    2.3207 H   0  0  0  0  0  0  0  0  0  0  0  0
    0.4721   -1.0743    1.0303 H   0  0  0  0  0  0  0  0  0  0  0  0
   -1.9438   -0.7793    0.6175 H   0  0  0  0  0  0  0  0  0  0  0  0
   -3.0263   -2.1653   -0.5865 H   0  0  0  0  0  0  0  0  0  0  0  0
   -4.3100   -2.2016   -1.7569 H   0  0  0  0  0  0  0  0  0  0  0  0
   -4.4074   -0.5268    0.8051 H   0  0  0  0  0  0  0  0  0  0  0  0
   -5.6584   -0.5638   -0.4399 H   0  0  0  0  0  0  0  0  0  0  0  0
   -5.2774   -2.0300    0.4754 H   0  0  0  0  0  0  0  0  0  0  0  0
   -3.8410   -1.1343   -3.5981 H   0  0  0  0  0  0  0  0  0  0  0  0
   -2.8826    0.3054   -3.7113 H   0  0  0  0  0  0  0  0  0  0  0  0
   -4.8520    1.6127   -2.6758 H   0  0  0  0  0  0  0  0  0  0  0  0
   -5.2233    0.8356   -4.2248 H   0  0  0  0  0  0  0  0  0  0  0  0
   -5.7848    0.1113   -2.7136 H   0  0  0  0  0  0  0  0  0  0  0  0
   -2.4626    2.0878   -2.5542 H   0  0  0  0  0  0  0  0  0  0  0  0
   -0.9012    3.5748   -1.4717 H   0  0  0  0  0  0  0  0  0  0  0  0
    0.0102    4.0777    1.1863 H   0  0  0  0  0  0  0  0  0  0  0  0
    5.5664   -0.7203    1.1129 H   0  0  0  0  0  0  0  0  0  0  0  0
    6.9694   -2.3876   -0.1098 H   0  0  0  0  0  0  0  0  0  0  0  0
    5.6849   -3.6212   -0.1340 H   0  0  0  0  0  0  0  0  0  0  0  0
    6.4419   -3.0677   -1.6485 H   0  0  0  0  0  0  0  0  0  0  0  0
    4.2660   -2.4229   -2.6464 H   0  0  0  0  0  0  0  0  0  0  0  0
    2.4939   -0.6921   -2.8456 H   0  0  0  0  0  0  0  0  0  0  0  0
    1.4994    1.5949   -1.3893 H   0  0  0  0  0  0  0  0  0  0  0  0
  1  2  1  0
  2  3  1  0
  3  4  1  0
  4  5  1  0
  5  6  2  0
  6  7  1  0
  7  8  1  0
  8  9  1  0
  9 10  1  0
  8 11  1  0
 11 12  1  0
  7 13  2  0
 13 14  1  0
 14 15  2  0
 15 16  1  0
 16 17  2  3
 17 18  1  0
 18 19  3  0
 17 20  1  0
 20 21  2  0
 21 22  1  0
 22 23  2  0
 23 24  1  0
 24 25  1  0
 24 26  2  0
 26 27  1  0
 27 28  2  0
 28 29  1  0
 15  5  1  0
 29 20  1  0
 28 22  1  0
  1 30  1  0
  1 31  1  0
  1 32  1  0
  2 33  1  0
  2 34  1  0
  3 35  1  0
  3 36  1  0
  6 37  1  0
  9 38  1  0
  9 39  1  0
 10 40  1  0
 10 41  1  0
 10 42  1  0
 11 43  1  0
 11 44  1  0
 12 45  1  0
 12 46  1  0
 12 47  1  0
 13 48  1  0
 14 49  1  0
 16 50  1  0
 23 51  1  0
 25 52  1  0
 25 53  1  0
 25 54  1  0
 26 55  1  0
 27 56  1  0
 29 57  1  0
M  END
$$$$
