
     RDKit          3D

 65 69  0  0  0  0  0  0  0  0999 V2000
   -4.3163    5.6810    1.3800 C   0  0  0  0  0  0  0  0  0  0  0  0
   -3.4943    4.4255    1.6068 C   0  0  0  0  0  0  0  0  0  0  0  0
   -3.2614    3.8226    0.3360 O   0  0  0  0  0  0  0  0  0  0  0  0
   -2.5717    2.6430    0.3229 C   0  0  0  0  0  0  0  0  0  0  0  0
   -2.5070    2.0206   -0.9254 C   0  0  0  0  0  0  0  0  0  0  0  0
   -1.8258    0.8123   -1.0864 C   0  0  0  0  0  0  0  0  0  0  0  0
   -1.1933    0.2023    0.0068 C   0  0  0  0  0  0  0  0  0  0  0  0
   -0.4152   -1.0905   -0.1417 C   0  0  0  0  0  0  0  0  0  0  0  0
    0.9564   -0.8419   -0.8033 C   0  0  0  0  0  0  0  0  0  0  0  0
    2.0219   -0.5188    0.2133 C   0  0  0  0  0  0  0  0  0  0  0  0
    1.8917   -0.8263    1.3989 O   0  0  0  0  0  0  0  0  0  0  0  0
    3.2552    0.2150   -0.2115 C   0  0  0  0  0  0  0  0  0  0  0  0
    3.6121    0.3803   -1.5663 C   0  0  0  0  0  0  0  0  0  0  0  0
    4.7649    1.0920   -1.9194 C   0  0  0  0  0  0  0  0  0  0  0  0
    5.5441    1.6114   -0.9085 C   0  0  0  0  0  0  0  0  0  0  0  0
    5.2102    1.4547    0.4251 C   0  0  0  0  0  0  0  0  0  0  0  0
    4.0690    0.7634    0.7954 C   0  0  0  0  0  0  0  0  0  0  0  0
    6.1982    2.1691    1.2657 C   0  0  0  0  0  0  0  0  0  0  0  0
    7.2936    2.3962    0.2116 C   0  0  0  0  0  0  0  0  0  0  0  0
    7.9886    3.7391    0.3683 C   0  0  0  0  0  0  0  0  0  0  0  0
    6.6919    2.3301   -1.1083 O   0  0  0  0  0  0  0  0  0  0  0  0
    1.1661   -2.1437   -1.5043 C   0  0  0  0  0  0  0  0  0  0  0  0
    2.2162   -2.5731   -1.9446 O   0  0  0  0  0  0  0  0  0  0  0  0
   -0.1725   -2.8539   -1.6511 C   0  0  0  0  0  0  0  0  0  0  0  0
   -0.3414   -3.8932   -2.2488 O   0  0  0  0  0  0  0  0  0  0  0  0
   -1.0939   -2.0894   -0.9620 N   0  0  0  0  0  0  0  0  0  0  0  0
   -2.4126   -2.6193   -0.6327 C   0  0  0  0  0  0  0  0  0  0  0  0
   -2.3665   -3.6880    0.4619 C   0  0  0  0  0  0  0  0  0  0  0  0
   -3.7574   -4.0896    0.9548 C   0  0  0  0  0  0  0  0  0  0  0  0
   -4.6163   -4.6340   -0.0733 N   0  0  0  0  0  0  0  0  0  0  0  0
   -4.4950   -5.8586   -0.6659 C   0  0  0  0  0  0  0  0  0  0  0  0
   -5.5388   -5.9232   -1.5600 C   0  0  0  0  0  0  0  0  0  0  0  0
   -6.2904   -4.7777   -1.5113 N   0  0  0  0  0  0  0  0  0  0  0  0
   -5.7138   -4.0215   -0.6058 C   0  0  0  0  0  0  0  0  0  0  0  0
   -1.2515    0.8397    1.2551 C   0  0  0  0  0  0  0  0  0  0  0  0
   -1.9373    2.0497    1.4126 C   0  0  0  0  0  0  0  0  0  0  0  0
   -5.2594    5.4407    0.8769 H   0  0  0  0  0  0  0  0  0  0  0  0
   -3.7784    6.3774    0.7283 H   0  0  0  0  0  0  0  0  0  0  0  0
   -4.5364    6.1816    2.3271 H   0  0  0  0  0  0  0  0  0  0  0  0
   -4.0538    3.7396    2.2544 H   0  0  0  0  0  0  0  0  0  0  0  0
   -2.5449    4.7008    2.0818 H   0  0  0  0  0  0  0  0  0  0  0  0
   -2.9937    2.4830   -1.7822 H   0  0  0  0  0  0  0  0  0  0  0  0
   -1.8014    0.3530   -2.0727 H   0  0  0  0  0  0  0  0  0  0  0  0
   -0.3034   -1.5583    0.8451 H   0  0  0  0  0  0  0  0  0  0  0  0
    0.8810   -0.0495   -1.5570 H   0  0  0  0  0  0  0  0  0  0  0  0
    3.0242   -0.0506   -2.3716 H   0  0  0  0  0  0  0  0  0  0  0  0
    5.0492    1.2208   -2.9586 H   0  0  0  0  0  0  0  0  0  0  0  0
    3.8111    0.6546    1.8454 H   0  0  0  0  0  0  0  0  0  0  0  0
    6.5647    1.5714    2.1039 H   0  0  0  0  0  0  0  0  0  0  0  0
    5.7714    3.1076    1.6335 H   0  0  0  0  0  0  0  0  0  0  0  0
    8.0421    1.5942    0.2639 H   0  0  0  0  0  0  0  0  0  0  0  0
    8.7565    3.8604   -0.4042 H   0  0  0  0  0  0  0  0  0  0  0  0
    7.2810    4.5646    0.2380 H   0  0  0  0  0  0  0  0  0  0  0  0
    8.4615    3.8300    1.3509 H   0  0  0  0  0  0  0  0  0  0  0  0
   -3.0636   -1.7905   -0.3415 H   0  0  0  0  0  0  0  0  0  0  0  0
   -2.8229   -3.0540   -1.5507 H   0  0  0  0  0  0  0  0  0  0  0  0
   -1.8297   -4.5703    0.0933 H   0  0  0  0  0  0  0  0  0  0  0  0
   -1.7955   -3.3176    1.3221 H   0  0  0  0  0  0  0  0  0  0  0  0
   -3.6699   -4.8546    1.7340 H   0  0  0  0  0  0  0  0  0  0  0  0
   -4.2665   -3.2297    1.4023 H   0  0  0  0  0  0  0  0  0  0  0  0
   -3.7062   -6.5568   -0.4218 H   0  0  0  0  0  0  0  0  0  0  0  0
   -5.7890   -6.7348   -2.2321 H   0  0  0  0  0  0  0  0  0  0  0  0
   -6.0480   -3.0354   -0.3069 H   0  0  0  0  0  0  0  0  0  0  0  0
   -0.7463    0.4092    2.1183 H   0  0  0  0  0  0  0  0  0  0  0  0
   -1.9413    2.5081    2.3957 H   0  0  0  0  0  0  0  0  0  0  0  0
  1  2  1  0
  2  3  1  0
  3  4  1  0
  4  5  2  0
  5  6  1  0
  6  7  2  0
  7  8  1  0
  8  9  1  0
  9 10  1  0
 10 11  2  0
 10 12  1  0
 12 13  2  0
 13 14  1  0
 14 15  2  0
 15 16  1  0
 16 17  2  0
 16 18  1  0
 18 19  1  0
 19 20  1  0
 19 21  1  0
  9 22  1  0
 22 23  2  0
 22 24  1  0
 24 25  2  0
 24 26  1  0
 26 27  1  0
 27 28  1  0
 28 29  1  0
 29 30  1  0
 30 31  1  0
 31 32  2  0
 32 33  1  0
 33 34  2  0
  7 35  1  0
 35 36  2  0
 36  4  1  0
 26  8  1  0
 34 30  1  0
 17 12  1  0
 21 15  1  0
  1 37  1  0
  1 38  1  0
  1 39  1  0
  2 40  1  0
  2 41  1  0
  5 42  1  0
  6 43  1  0
  8 44  1  0
  9 45  1  0
 13 46  1  0
 14 47  1  0
 17 48  1  0
 18 49  1  0
 18 50  1  0
 19 51  1  0
 20 52  1  0
 20 53  1  0
 20 54  1  0
 27 55  1  0
 27 56  1  0
 28 57  1  0
 28 58  1  0
 29 59  1  0
 29 60  1  0
 31 61  1  0
 32 62  1  0
 34 63  1  0
 35 64  1  0
 36 65  1  0
M  END
$$$$
