
     RDKit          3D

 36 38  0  0  0  0  0  0  0  0999 V2000
    3.0970    2.5611    1.4641 N   0  0  0  0  0  0  0  0  0  0  0  0
    2.3145    1.8207    1.0308 C   0  0  0  0  0  0  0  0  0  0  0  0
    1.3425    0.9267    0.4586 C   0  0  0  0  0  0  0  0  0  0  0  0
   -0.0155    1.2921    0.3817 C   0  0  0  0  0  0  0  0  0  0  0  0
   -0.5220    2.5794    0.8896 C   0  0  0  0  0  0  0  0  0  0  0  0
   -0.5727    2.8513    2.2650 C   0  0  0  0  0  0  0  0  0  0  0  0
   -1.0520    4.0802    2.7345 C   0  0  0  0  0  0  0  0  0  0  0  0
   -1.4916    5.0481    1.8340 C   0  0  0  0  0  0  0  0  0  0  0  0
   -1.4550    4.7912    0.4650 C   0  0  0  0  0  0  0  0  0  0  0  0
   -0.9736    3.5653   -0.0042 C   0  0  0  0  0  0  0  0  0  0  0  0
   -0.9177    0.4046   -0.2409 C   0  0  0  0  0  0  0  0  0  0  0  0
   -0.4556   -0.7938   -0.7653 C   0  0  0  0  0  0  0  0  0  0  0  0
   -1.3069   -1.7673   -1.4671 C   0  0  0  0  0  0  0  0  0  0  0  0
   -1.0992   -3.1308   -1.6290 C   0  0  0  0  0  0  0  0  0  0  0  0
   -2.1241   -3.7649   -2.3789 C   0  0  0  0  0  0  0  0  0  0  0  0
   -3.0924   -2.8714   -2.7760 C   0  0  0  0  0  0  0  0  0  0  0  0
   -2.7528   -1.2820   -2.2605 S   0  0  0  0  0  0  0  0  0  0  0  0
    0.8462   -1.1551   -0.6855 N   0  0  0  0  0  0  0  0  0  0  0  0
    1.7255   -0.3052   -0.0826 C   0  0  0  0  0  0  0  0  0  0  0  0
    3.4406   -0.8316   -0.0931 S   0  0  0  0  0  0  0  0  0  0  0  0
    3.2719   -2.5963   -0.5302 C   0  0  0  0  0  0  0  0  0  0  0  0
    2.5668   -3.3882    0.5497 C   0  0  0  0  0  0  0  0  0  0  0  0
    2.2412   -3.0409    1.6765 O   0  0  0  0  0  0  0  0  0  0  0  0
    2.3300   -4.6580    0.1474 O   0  0  0  0  0  0  0  0  0  0  0  0
   -0.2320    2.1101    2.9869 H   0  0  0  0  0  0  0  0  0  0  0  0
   -1.0703    4.2771    3.8067 H   0  0  0  0  0  0  0  0  0  0  0  0
   -1.8568    6.0049    2.1970 H   0  0  0  0  0  0  0  0  0  0  0  0
   -1.7954    5.5476   -0.2399 H   0  0  0  0  0  0  0  0  0  0  0  0
   -0.9412    3.3867   -1.0753 H   0  0  0  0  0  0  0  0  0  0  0  0
   -1.9708    0.6692   -0.3043 H   0  0  0  0  0  0  0  0  0  0  0  0
   -0.2458   -3.6505   -1.2116 H   0  0  0  0  0  0  0  0  0  0  0  0
   -2.1549   -4.8221   -2.6035 H   0  0  0  0  0  0  0  0  0  0  0  0
   -3.9954   -3.0767   -3.3342 H   0  0  0  0  0  0  0  0  0  0  0  0
    4.2857   -3.0036   -0.6386 H   0  0  0  0  0  0  0  0  0  0  0  0
    2.7483   -2.7035   -1.4860 H   0  0  0  0  0  0  0  0  0  0  0  0
    1.8834   -5.0740    0.9192 H   0  0  0  0  0  0  0  0  0  0  0  0
  1  2  3  0
  2  3  1  0
  3  4  2  0
  4  5  1  0
  5  6  2  0
  6  7  1  0
  7  8  2  0
  8  9  1  0
  9 10  2  0
  4 11  1  0
 11 12  2  0
 12 13  1  0
 13 14  2  0
 14 15  1  0
 15 16  2  0
 16 17  1  0
 12 18  1  0
 18 19  2  0
 19 20  1  0
 20 21  1  0
 21 22  1  0
 22 23  2  0
 22 24  1  0
 19  3  1  0
 10  5  1  0
 17 13  1  0
  6 25  1  0
  7 26  1  0
  8 27  1  0
  9 28  1  0
 10 29  1  0
 11 30  1  0
 14 31  1  0
 15 32  1  0
 16 33  1  0
 21 34  1  0
 21 35  1  0
 24 36  1  0
M  END
$$$$
