
     RDKit          3D

 46 49  0  0  0  0  0  0  0  0999 V2000
    6.5955   -1.2068    0.3101 N   0  0  0  0  0  0  0  0  0  0  0  0
    5.9785    0.1909    1.0225 S   0  0  0  0  0  6  0  0  0  0  0  0
    6.1670    0.0175    2.4445 O   0  0  0  0  0  0  0  0  0  0  0  0
    6.5065    1.3239    0.3006 O   0  0  0  0  0  0  0  0  0  0  0  0
    4.2532    0.0364    0.6553 C   0  0  0  0  0  0  0  0  0  0  0  0
    3.7456    0.5877   -0.5195 C   0  0  0  0  0  0  0  0  0  0  0  0
    2.3814    0.4605   -0.8099 C   0  0  0  0  0  0  0  0  0  0  0  0
    1.4998   -0.2069    0.0573 C   0  0  0  0  0  0  0  0  0  0  0  0
    0.1407   -0.3452   -0.2175 N   0  0  0  0  0  0  0  0  0  0  0  0
   -0.6761   -1.0416    0.6275 N   0  0  0  0  0  0  0  0  0  0  0  0
   -1.8352   -1.1389    0.0496 C   0  0  0  0  0  0  0  0  0  0  0  0
   -2.9980   -1.8116    0.6750 C   0  0  0  0  0  0  0  0  0  0  0  0
   -2.8821   -2.2844    1.9883 C   0  0  0  0  0  0  0  0  0  0  0  0
   -3.9603   -2.9217    2.6050 C   0  0  0  0  0  0  0  0  0  0  0  0
   -5.1582   -3.0905    1.9130 C   0  0  0  0  0  0  0  0  0  0  0  0
   -5.2795   -2.6236    0.6048 C   0  0  0  0  0  0  0  0  0  0  0  0
   -4.2025   -1.9850   -0.0161 C   0  0  0  0  0  0  0  0  0  0  0  0
   -1.9107   -0.5462   -1.3303 C   0  0  0  0  0  0  0  0  0  0  0  0
   -0.5582    0.1654   -1.3999 C   0  0  0  0  0  0  0  0  0  0  0  0
   -0.7391    1.6762   -1.3973 C   0  0  0  0  0  0  0  0  0  0  0  0
   -0.7470    2.3726   -2.6180 C   0  0  0  0  0  0  0  0  0  0  0  0
   -0.9350    3.7558   -2.6483 C   0  0  0  0  0  0  0  0  0  0  0  0
   -1.1235    4.4609   -1.4619 C   0  0  0  0  0  0  0  0  0  0  0  0
   -1.1265    3.7846   -0.2444 C   0  0  0  0  0  0  0  0  0  0  0  0
   -0.9399    2.4017   -0.2117 C   0  0  0  0  0  0  0  0  0  0  0  0
    2.0497   -0.7370    1.2406 C   0  0  0  0  0  0  0  0  0  0  0  0
    3.4091   -0.6177    1.5481 C   0  0  0  0  0  0  0  0  0  0  0  0
    5.9090   -1.6968   -0.2627 H   0  0  0  0  0  0  0  0  0  0  0  0
    6.9746   -1.8066    1.0449 H   0  0  0  0  0  0  0  0  0  0  0  0
    4.3946    1.1218   -1.2107 H   0  0  0  0  0  0  0  0  0  0  0  0
    2.0212    0.9094   -1.7311 H   0  0  0  0  0  0  0  0  0  0  0  0
   -1.9525   -2.1578    2.5396 H   0  0  0  0  0  0  0  0  0  0  0  0
   -3.8636   -3.2850    3.6251 H   0  0  0  0  0  0  0  0  0  0  0  0
   -5.9976   -3.5866    2.3941 H   0  0  0  0  0  0  0  0  0  0  0  0
   -6.2154   -2.7576    0.0674 H   0  0  0  0  0  0  0  0  0  0  0  0
   -4.3282   -1.6361   -1.0364 H   0  0  0  0  0  0  0  0  0  0  0  0
   -1.9630   -1.3611   -2.0602 H   0  0  0  0  0  0  0  0  0  0  0  0
   -2.7728    0.1160   -1.4472 H   0  0  0  0  0  0  0  0  0  0  0  0
   -0.0334   -0.1446   -2.3126 H   0  0  0  0  0  0  0  0  0  0  0  0
   -0.6038    1.8427   -3.5572 H   0  0  0  0  0  0  0  0  0  0  0  0
   -0.9331    4.2849   -3.5979 H   0  0  0  0  0  0  0  0  0  0  0  0
   -1.2661    5.5381   -1.4847 H   0  0  0  0  0  0  0  0  0  0  0  0
   -1.2702    4.3325    0.6834 H   0  0  0  0  0  0  0  0  0  0  0  0
   -0.9409    1.8919    0.7510 H   0  0  0  0  0  0  0  0  0  0  0  0
    1.4004   -1.2503    1.9480 H   0  0  0  0  0  0  0  0  0  0  0  0
    3.7857   -1.0320    2.4801 H   0  0  0  0  0  0  0  0  0  0  0  0
  1  2  1  0
  2  3  2  0
  2  4  2  0
  2  5  1  0
  5  6  2  0
  6  7  1  0
  7  8  2  0
  8  9  1  0
  9 10  1  0
 10 11  2  0
 11 12  1  0
 12 13  2  0
 13 14  1  0
 14 15  2  0
 15 16  1  0
 16 17  2  0
 11 18  1  0
 18 19  1  0
 19 20  1  0
 20 21  2  0
 21 22  1  0
 22 23  2  0
 23 24  1  0
 24 25  2  0
  8 26  1  0
 26 27  2  0
 27  5  1  0
 19  9  1  0
 25 20  1  0
 17 12  1  0
  1 28  1  0
  1 29  1  0
  6 30  1  0
  7 31  1  0
 13 32  1  0
 14 33  1  0
 15 34  1  0
 16 35  1  0
 17 36  1  0
 18 37  1  0
 18 38  1  0
 19 39  1  0
 21 40  1  0
 22 41  1  0
 23 42  1  0
 24 43  1  0
 25 44  1  0
 26 45  1  0
 27 46  1  0
M  END
$$$$
