
     RDKit          3D

 38 40  0  0  0  0  0  0  0  0999 V2000
    1.8867    3.9501    3.0295 N   0  0  0  0  0  0  0  0  0  0  0  0
    1.7345    3.1250    2.2273 C   0  0  0  0  0  0  0  0  0  0  0  0
    1.6163    2.0779    1.2669 C   0  0  0  0  0  0  0  0  0  0  0  0
    2.7314    1.5526    0.7173 C   0  0  0  0  0  0  0  0  0  0  0  0
    2.8219    0.5243   -0.3281 C   0  0  0  0  0  0  0  0  0  0  0  0
    3.6459   -0.5910   -0.1110 C   0  0  0  0  0  0  0  0  0  0  0  0
    3.7649   -1.5937   -1.0800 C   0  0  0  0  0  0  0  0  0  0  0  0
    3.0665   -1.4685   -2.2724 C   0  0  0  0  0  0  0  0  0  0  0  0
    3.1385   -2.4127   -3.2574 O   0  0  0  0  0  0  0  0  0  0  0  0
    2.2634   -0.3554   -2.4996 C   0  0  0  0  0  0  0  0  0  0  0  0
    1.5873   -0.2340   -3.6791 O   0  0  0  0  0  0  0  0  0  0  0  0
    2.1370    0.6444   -1.5430 C   0  0  0  0  0  0  0  0  0  0  0  0
    0.2202    1.6752    0.9140 C   0  0  0  0  0  0  0  0  0  0  0  0
   -0.5850    2.5393    0.5862 O   0  0  0  0  0  0  0  0  0  0  0  0
   -0.0116    0.3146    0.9956 N   0  0  0  0  0  0  0  0  0  0  0  0
   -1.2167   -0.3466    0.6425 C   0  0  0  0  0  0  0  0  0  0  0  0
   -1.0393   -1.5565   -0.0453 C   0  0  0  0  0  0  0  0  0  0  0  0
   -2.1362   -2.2822   -0.4902 C   0  0  0  0  0  0  0  0  0  0  0  0
   -3.4201   -1.8111   -0.2297 C   0  0  0  0  0  0  0  0  0  0  0  0
   -3.6433   -0.6472    0.4909 C   0  0  0  0  0  0  0  0  0  0  0  0
   -4.9249   -0.3151    0.7293 N   0  0  0  0  0  0  0  0  0  0  0  0
   -5.1738    0.7788    1.4774 C   0  0  0  0  0  0  0  0  0  0  0  0
   -4.1853    1.5568    2.0372 C   0  0  0  0  0  0  0  0  0  0  0  0
   -2.8616    1.2048    1.7853 C   0  0  0  0  0  0  0  0  0  0  0  0
   -2.5355    0.1000    0.9631 C   0  0  0  0  0  0  0  0  0  0  0  0
    3.7040    1.9190    1.0512 H   0  0  0  0  0  0  0  0  0  0  0  0
    4.2051   -0.6902    0.8163 H   0  0  0  0  0  0  0  0  0  0  0  0
    4.4088   -2.4459   -0.8909 H   0  0  0  0  0  0  0  0  0  0  0  0
    3.6979   -3.1456   -2.9449 H   0  0  0  0  0  0  0  0  0  0  0  0
    1.8430   -1.0205   -4.2012 H   0  0  0  0  0  0  0  0  0  0  0  0
    1.5086    1.5044   -1.7615 H   0  0  0  0  0  0  0  0  0  0  0  0
    0.8134   -0.2731    0.9894 H   0  0  0  0  0  0  0  0  0  0  0  0
   -0.0444   -1.9235   -0.2880 H   0  0  0  0  0  0  0  0  0  0  0  0
   -1.9983   -3.2033   -1.0466 H   0  0  0  0  0  0  0  0  0  0  0  0
   -4.2786   -2.3786   -0.5844 H   0  0  0  0  0  0  0  0  0  0  0  0
   -6.2253    1.0082    1.6318 H   0  0  0  0  0  0  0  0  0  0  0  0
   -4.4298    2.4177    2.6492 H   0  0  0  0  0  0  0  0  0  0  0  0
   -2.0854    1.8019    2.2529 H   0  0  0  0  0  0  0  0  0  0  0  0
  1  2  3  0
  2  3  1  0
  3  4  2  3
  4  5  1  0
  5  6  2  0
  6  7  1  0
  7  8  2  0
  8  9  1  0
  8 10  1  0
 10 11  1  0
 10 12  2  0
  3 13  1  0
 13 14  2  0
 13 15  1  0
 15 16  1  0
 16 17  2  0
 17 18  1  0
 18 19  2  0
 19 20  1  0
 20 21  2  0
 21 22  1  0
 22 23  2  0
 23 24  1  0
 24 25  2  0
 12  5  1  0
 25 16  1  0
 25 20  1  0
  4 26  1  0
  6 27  1  0
  7 28  1  0
  9 29  1  0
 11 30  1  0
 12 31  1  0
 15 32  1  0
 17 33  1  0
 18 34  1  0
 19 35  1  0
 22 36  1  0
 23 37  1  0
 24 38  1  0
M  END
$$$$
