
     RDKit          3D

 42 44  0  0  0  0  0  0  0  0999 V2000
    4.7941    0.6182    2.5256 C   0  0  0  0  0  0  0  0  0  0  0  0
    3.6703    0.4810    1.4994 C   0  0  0  0  0  0  0  0  0  0  0  0
    4.2433    0.1159    0.1322 C   0  0  0  0  0  0  0  0  0  0  0  0
    2.5173   -0.8226    2.0864 S   0  0  0  0  0  0  0  0  0  0  0  0
    1.0844   -0.5290    1.0571 C   0  0  0  0  0  0  0  0  0  0  0  0
    0.1401   -1.5276    0.9445 C   0  0  0  0  0  0  0  0  0  0  0  0
   -0.9680   -1.2736    0.1639 C   0  0  0  0  0  0  0  0  0  0  0  0
   -1.9538   -2.2112   -0.0227 N   0  0  0  0  0  0  0  0  0  0  0  0
   -3.1172   -1.8926   -0.8424 C   0  0  0  0  0  0  0  0  0  0  0  0
   -3.9470   -3.1712   -0.7734 C   0  0  0  0  0  0  0  0  0  0  0  0
   -3.6834   -3.6647    0.6406 C   0  0  0  0  0  0  0  0  0  0  0  0
   -2.2067   -3.3373    0.8657 C   0  0  0  0  0  0  0  0  0  0  0  0
   -1.0946   -0.0924   -0.4636 N   0  0  0  0  0  0  0  0  0  0  0  0
   -0.1228    0.8210   -0.3124 C   0  0  0  0  0  0  0  0  0  0  0  0
   -0.2932    2.1250   -0.9633 C   0  0  0  0  0  0  0  0  0  0  0  0
   -0.0869    3.3007   -0.2075 C   0  0  0  0  0  0  0  0  0  0  0  0
   -0.2488    4.5717   -0.7652 C   0  0  0  0  0  0  0  0  0  0  0  0
   -0.6173    4.6998   -2.0989 C   0  0  0  0  0  0  0  0  0  0  0  0
   -0.8148    3.5578   -2.8728 C   0  0  0  0  0  0  0  0  0  0  0  0
   -0.6518    2.2807   -2.3149 C   0  0  0  0  0  0  0  0  0  0  0  0
   -0.8574    0.9393   -3.3928 Cl  0  0  0  0  0  0  0  0  0  0  0  0
    0.9652    0.6603    0.4542 N   0  0  0  0  0  0  0  0  0  0  0  0
    5.4952    1.4026    2.2192 H   0  0  0  0  0  0  0  0  0  0  0  0
    4.4031    0.8993    3.5100 H   0  0  0  0  0  0  0  0  0  0  0  0
    5.3666   -0.3102    2.6338 H   0  0  0  0  0  0  0  0  0  0  0  0
    3.1478    1.4417    1.4440 H   0  0  0  0  0  0  0  0  0  0  0  0
    3.4630    0.0375   -0.6315 H   0  0  0  0  0  0  0  0  0  0  0  0
    4.9452    0.8878   -0.2031 H   0  0  0  0  0  0  0  0  0  0  0  0
    4.7895   -0.8338    0.1610 H   0  0  0  0  0  0  0  0  0  0  0  0
    0.2782   -2.4776    1.4416 H   0  0  0  0  0  0  0  0  0  0  0  0
   -2.8487   -1.6568   -1.8777 H   0  0  0  0  0  0  0  0  0  0  0  0
   -3.6778   -1.0541   -0.4115 H   0  0  0  0  0  0  0  0  0  0  0  0
   -3.5753   -3.9034   -1.5004 H   0  0  0  0  0  0  0  0  0  0  0  0
   -5.0075   -2.9947   -0.9724 H   0  0  0  0  0  0  0  0  0  0  0  0
   -3.8998   -4.7290    0.7681 H   0  0  0  0  0  0  0  0  0  0  0  0
   -4.3024   -3.1034    1.3512 H   0  0  0  0  0  0  0  0  0  0  0  0
   -1.5743   -4.1849    0.5793 H   0  0  0  0  0  0  0  0  0  0  0  0
   -2.0325   -3.1001    1.9209 H   0  0  0  0  0  0  0  0  0  0  0  0
    0.1998    3.2216    0.8412 H   0  0  0  0  0  0  0  0  0  0  0  0
   -0.0872    5.4570   -0.1549 H   0  0  0  0  0  0  0  0  0  0  0  0
   -0.7444    5.6855   -2.5392 H   0  0  0  0  0  0  0  0  0  0  0  0
   -1.0895    3.6657   -3.9196 H   0  0  0  0  0  0  0  0  0  0  0  0
  1  2  1  0
  2  3  1  0
  2  4  1  0
  4  5  1  0
  5  6  2  0
  6  7  1  0
  7  8  1  0
  8  9  1  0
  9 10  1  0
 10 11  1  0
 11 12  1  0
  7 13  2  0
 13 14  1  0
 14 15  1  0
 15 16  2  0
 16 17  1  0
 17 18  2  0
 18 19  1  0
 19 20  2  0
 20 21  1  0
 14 22  2  0
 22  5  1  0
 12  8  1  0
 20 15  1  0
  1 23  1  0
  1 24  1  0
  1 25  1  0
  2 26  1  0
  3 27  1  0
  3 28  1  0
  3 29  1  0
  6 30  1  0
  9 31  1  0
  9 32  1  0
 10 33  1  0
 10 34  1  0
 11 35  1  0
 11 36  1  0
 12 37  1  0
 12 38  1  0
 16 39  1  0
 17 40  1  0
 18 41  1  0
 19 42  1  0
M  END
$$$$
