
     RDKit          3D

 30 31  0  0  0  0  0  0  0  0999 V2000
    4.9851   -2.3425    0.2012 C   0  0  0  0  0  0  0  0  0  0  0  0
    4.4117   -1.0198    0.1231 N   0  0  0  0  0  0  0  0  0  0  0  0
    5.0346    0.1581    0.3984 C   0  0  0  0  0  0  0  0  0  0  0  0
    4.0892    1.1278    0.1853 C   0  0  0  0  0  0  0  0  0  0  0  0
    4.3404    2.9696    0.3985 Br  0  0  0  0  0  0  0  0  0  0  0  0
    2.9115    0.4582   -0.2216 C   0  0  0  0  0  0  0  0  0  0  0  0
    1.5976    1.0146   -0.5692 C   0  0  0  0  0  0  0  0  0  0  0  0
    1.3031    2.2082   -0.5080 O   0  0  0  0  0  0  0  0  0  0  0  0
    0.6822    0.0538   -0.9665 N   0  0  0  0  0  0  0  0  0  0  0  0
   -0.6771    0.4091   -1.0190 N   0  0  0  0  0  0  0  0  0  0  0  0
   -1.5844   -0.4976   -0.5032 C   0  0  0  0  0  0  0  0  0  0  0  0
   -1.2733   -1.6369   -0.1661 O   0  0  0  0  0  0  0  0  0  0  0  0
   -2.9837   -0.0139   -0.3362 C   0  0  0  0  0  0  0  0  0  0  0  0
   -3.8062   -0.6706    0.5905 C   0  0  0  0  0  0  0  0  0  0  0  0
   -5.1269   -0.2552    0.7813 C   0  0  0  0  0  0  0  0  0  0  0  0
   -5.6297    0.8118    0.0398 C   0  0  0  0  0  0  0  0  0  0  0  0
   -7.2551    1.3238    0.2717 Cl  0  0  0  0  0  0  0  0  0  0  0  0
   -4.8253    1.4634   -0.8948 C   0  0  0  0  0  0  0  0  0  0  0  0
   -3.5026    1.0502   -1.0876 C   0  0  0  0  0  0  0  0  0  0  0  0
    3.1273   -0.8784   -0.2558 N   0  0  0  0  0  0  0  0  0  0  0  0
    4.9310   -2.7998   -0.7899 H   0  0  0  0  0  0  0  0  0  0  0  0
    4.4104   -2.9242    0.9262 H   0  0  0  0  0  0  0  0  0  0  0  0
    6.0269   -2.2690    0.5225 H   0  0  0  0  0  0  0  0  0  0  0  0
    6.0669    0.2085    0.7145 H   0  0  0  0  0  0  0  0  0  0  0  0
    0.9066   -0.9253   -0.7712 H   0  0  0  0  0  0  0  0  0  0  0  0
   -0.8563    1.4117   -0.9866 H   0  0  0  0  0  0  0  0  0  0  0  0
   -3.4191   -1.5081    1.1689 H   0  0  0  0  0  0  0  0  0  0  0  0
   -5.7541   -0.7694    1.5051 H   0  0  0  0  0  0  0  0  0  0  0  0
   -5.2241    2.2875   -1.4815 H   0  0  0  0  0  0  0  0  0  0  0  0
   -2.9068    1.5544   -1.8436 H   0  0  0  0  0  0  0  0  0  0  0  0
  1  2  1  0
  2  3  1  0
  3  4  2  0
  4  5  1  0
  4  6  1  0
  6  7  1  0
  7  8  2  0
  7  9  1  0
  9 10  1  0
 10 11  1  0
 11 12  2  0
 11 13  1  0
 13 14  2  0
 14 15  1  0
 15 16  2  0
 16 17  1  0
 16 18  1  0
 18 19  2  0
  6 20  2  0
 20  2  1  0
 19 13  1  0
  1 21  1  0
  1 22  1  0
  1 23  1  0
  3 24  1  0
  9 25  1  0
 10 26  1  0
 14 27  1  0
 15 28  1  0
 18 29  1  0
 19 30  1  0
M  END
$$$$
