
     RDKit          3D

 50 53  0  0  0  0  0  0  0  0999 V2000
  -10.0104    0.7613   -0.7895 C   0  0  0  0  0  0  0  0  0  0  0  0
   -8.6153    0.4101   -0.3580 C   0  0  0  0  0  0  0  0  0  0  0  0
   -8.3611    0.0418    0.9653 C   0  0  0  0  0  0  0  0  0  0  0  0
   -7.0615   -0.2588    1.3899 C   0  0  0  0  0  0  0  0  0  0  0  0
   -5.9903   -0.1804    0.4789 C   0  0  0  0  0  0  0  0  0  0  0  0
   -4.6622   -0.4482    0.7614 N   0  0  0  0  0  0  0  0  0  0  0  0
   -3.9119   -0.2759   -0.3110 C   0  0  0  0  0  0  0  0  0  0  0  0
   -2.4475   -0.4840   -0.3231 C   0  0  0  0  0  0  0  0  0  0  0  0
   -1.8053   -0.8422    0.8730 C   0  0  0  0  0  0  0  0  0  0  0  0
   -0.4215   -1.0527    0.9240 C   0  0  0  0  0  0  0  0  0  0  0  0
    0.3634   -0.9140   -0.2239 C   0  0  0  0  0  0  0  0  0  0  0  0
    1.7488   -1.1422   -0.0904 N   0  0  0  0  0  0  0  0  0  0  0  0
    2.7075   -1.0923   -1.0874 C   0  0  0  0  0  0  0  0  0  0  0  0
    2.5133   -0.9065   -2.2829 O   0  0  0  0  0  0  0  0  0  0  0  0
    4.0997   -1.3967   -0.5580 C   0  0  0  0  0  0  0  0  0  0  0  0
    5.1826   -0.8156   -1.4529 C   0  0  0  0  0  0  0  0  0  0  0  0
    5.4265    0.9341   -1.1858 S   0  0  0  0  0  6  0  0  0  0  0  0
    4.1439    1.5676   -0.9510 O   0  0  0  0  0  0  0  0  0  0  0  0
    6.3300    1.4292   -2.2068 O   0  0  0  0  0  0  0  0  0  0  0  0
    6.3265    0.9951    0.3520 C   0  0  0  0  0  0  0  0  0  0  0  0
    5.6779    1.3906    1.5252 C   0  0  0  0  0  0  0  0  0  0  0  0
    6.3944    1.4348    2.7208 C   0  0  0  0  0  0  0  0  0  0  0  0
    7.7491    1.0970    2.7374 C   0  0  0  0  0  0  0  0  0  0  0  0
    8.3961    0.7229    1.5581 C   0  0  0  0  0  0  0  0  0  0  0  0
    7.6877    0.6761    0.3579 C   0  0  0  0  0  0  0  0  0  0  0  0
   -0.2606   -0.5568   -1.4173 C   0  0  0  0  0  0  0  0  0  0  0  0
   -1.6478   -0.3450   -1.4667 C   0  0  0  0  0  0  0  0  0  0  0  0
   -4.7796    0.2212   -1.7141 S   0  0  0  0  0  0  0  0  0  0  0  0
   -6.2546    0.2022   -0.8337 C   0  0  0  0  0  0  0  0  0  0  0  0
   -7.5548    0.5071   -1.2730 C   0  0  0  0  0  0  0  0  0  0  0  0
  -10.1657    0.5153   -1.8452 H   0  0  0  0  0  0  0  0  0  0  0  0
  -10.7516    0.1981   -0.2129 H   0  0  0  0  0  0  0  0  0  0  0  0
  -10.1879    1.8314   -0.6449 H   0  0  0  0  0  0  0  0  0  0  0  0
   -9.1753   -0.0170    1.6852 H   0  0  0  0  0  0  0  0  0  0  0  0
   -6.8689   -0.5497    2.4176 H   0  0  0  0  0  0  0  0  0  0  0  0
   -2.3874   -0.9601    1.7865 H   0  0  0  0  0  0  0  0  0  0  0  0
    0.0222   -1.3269    1.8773 H   0  0  0  0  0  0  0  0  0  0  0  0
    2.0653   -1.3610    0.8452 H   0  0  0  0  0  0  0  0  0  0  0  0
    4.1930   -2.4892   -0.5446 H   0  0  0  0  0  0  0  0  0  0  0  0
    4.2024   -1.0412    0.4719 H   0  0  0  0  0  0  0  0  0  0  0  0
    6.1436   -1.3065   -1.2682 H   0  0  0  0  0  0  0  0  0  0  0  0
    4.9549   -0.9416   -2.5163 H   0  0  0  0  0  0  0  0  0  0  0  0
    4.6280    1.6754    1.5174 H   0  0  0  0  0  0  0  0  0  0  0  0
    5.9018    1.7455    3.6393 H   0  0  0  0  0  0  0  0  0  0  0  0
    8.3069    1.1414    3.6703 H   0  0  0  0  0  0  0  0  0  0  0  0
    9.4563    0.4811    1.5744 H   0  0  0  0  0  0  0  0  0  0  0  0
    8.2028    0.4070   -0.5617 H   0  0  0  0  0  0  0  0  0  0  0  0
    0.3008   -0.4239   -2.3374 H   0  0  0  0  0  0  0  0  0  0  0  0
   -2.0746   -0.0676   -2.4275 H   0  0  0  0  0  0  0  0  0  0  0  0
   -7.7293    0.8098   -2.3018 H   0  0  0  0  0  0  0  0  0  0  0  0
  1  2  1  0
  2  3  2  0
  3  4  1  0
  4  5  2  0
  5  6  1  0
  6  7  2  0
  7  8  1  0
  8  9  2  0
  9 10  1  0
 10 11  2  0
 11 12  1  0
 12 13  1  0
 13 14  2  0
 13 15  1  0
 15 16  1  0
 16 17  1  0
 17 18  2  0
 17 19  2  0
 17 20  1  0
 20 21  2  0
 21 22  1  0
 22 23  2  0
 23 24  1  0
 24 25  2  0
 11 26  1  0
 26 27  2  0
  7 28  1  0
 28 29  1  0
 29 30  2  0
 30  2  1  0
 29  5  1  0
 27  8  1  0
 25 20  1  0
  1 31  1  0
  1 32  1  0
  1 33  1  0
  3 34  1  0
  4 35  1  0
  9 36  1  0
 10 37  1  0
 12 38  1  0
 15 39  1  0
 15 40  1  0
 16 41  1  0
 16 42  1  0
 21 43  1  0
 22 44  1  0
 23 45  1  0
 24 46  1  0
 25 47  1  0
 26 48  1  0
 27 49  1  0
 30 50  1  0
M  END
$$$$
