
     RDKit          3D

 50 53  0  0  0  0  0  0  0  0999 V2000
   -5.3482   -0.1719    1.6574 C   0  0  0  0  0  0  0  0  0  0  0  0
   -5.0289    0.6260    0.3903 C   0  0  0  0  0  0  0  0  0  0  0  0
   -5.0442   -0.3034   -0.8381 C   0  0  0  0  0  0  0  0  0  0  0  0
   -4.0150    0.1304   -1.8839 C   0  0  0  0  0  0  0  0  0  0  0  0
   -4.0911   -0.7481   -3.1308 C   0  0  0  0  0  0  0  0  0  0  0  0
   -2.5995    0.0970   -1.2781 C   0  0  0  0  0  0  0  0  0  0  0  0
   -2.5888    0.5915    0.0993 N   0  0  0  0  0  0  0  0  0  0  0  0
   -1.3330    0.9027    0.6021 C   0  0  0  0  0  0  0  0  0  0  0  0
   -1.2286    1.7424    1.6469 N   0  0  0  0  0  0  0  0  0  0  0  0
    0.0039    2.0046    2.1324 C   0  0  0  0  0  0  0  0  0  0  0  0
    1.1471    1.4527    1.6138 C   0  0  0  0  0  0  0  0  0  0  0  0
    0.9709    0.5971    0.5508 C   0  0  0  0  0  0  0  0  0  0  0  0
   -0.2513    0.3264    0.0390 N   0  0  0  0  0  0  0  0  0  0  0  0
    2.1476   -0.0559   -0.1216 C   0  0  0  0  0  0  0  0  0  0  0  0
    3.3060   -0.2432    0.8695 C   0  0  0  0  0  0  0  0  0  0  0  0
    4.5049   -0.9105    0.2179 C   0  0  0  0  0  0  0  0  0  0  0  0
    4.9317   -2.1683    0.6735 C   0  0  0  0  0  0  0  0  0  0  0  0
    6.0305   -2.8039    0.0893 C   0  0  0  0  0  0  0  0  0  0  0  0
    6.7121   -2.1874   -0.9559 C   0  0  0  0  0  0  0  0  0  0  0  0
    8.0645   -2.9696   -1.6757 Cl  0  0  0  0  0  0  0  0  0  0  0  0
    6.3039   -0.9408   -1.4219 C   0  0  0  0  0  0  0  0  0  0  0  0
    5.2050   -0.3048   -0.8380 C   0  0  0  0  0  0  0  0  0  0  0  0
    3.6774    1.0992    1.5121 C   0  0  0  0  0  0  0  0  0  0  0  0
    2.4781    1.7543    2.1615 C   0  0  0  0  0  0  0  0  0  0  0  0
    2.5926    2.5556    3.0836 O   0  0  0  0  0  0  0  0  0  0  0  0
   -3.7093    1.4108    0.5396 C   0  0  0  0  0  0  0  0  0  0  0  0
   -6.2996   -0.7040    1.5512 H   0  0  0  0  0  0  0  0  0  0  0  0
   -5.4333    0.4920    2.5242 H   0  0  0  0  0  0  0  0  0  0  0  0
   -4.5669   -0.9090    1.8716 H   0  0  0  0  0  0  0  0  0  0  0  0
   -5.8307    1.3670    0.2705 H   0  0  0  0  0  0  0  0  0  0  0  0
   -6.0520   -0.3088   -1.2718 H   0  0  0  0  0  0  0  0  0  0  0  0
   -4.8346   -1.3389   -0.5380 H   0  0  0  0  0  0  0  0  0  0  0  0
   -4.2444    1.1608   -2.1882 H   0  0  0  0  0  0  0  0  0  0  0  0
   -3.8910   -1.7983   -2.8927 H   0  0  0  0  0  0  0  0  0  0  0  0
   -3.3593   -0.4240   -3.8782 H   0  0  0  0  0  0  0  0  0  0  0  0
   -5.0851   -0.6889   -3.5864 H   0  0  0  0  0  0  0  0  0  0  0  0
   -2.2200   -0.9332   -1.2852 H   0  0  0  0  0  0  0  0  0  0  0  0
   -1.9433    0.6987   -1.9218 H   0  0  0  0  0  0  0  0  0  0  0  0
    0.0321    2.6908    2.9745 H   0  0  0  0  0  0  0  0  0  0  0  0
    1.8439   -1.0285   -0.5288 H   0  0  0  0  0  0  0  0  0  0  0  0
    2.4455    0.5726   -0.9699 H   0  0  0  0  0  0  0  0  0  0  0  0
    2.9449   -0.8997    1.6758 H   0  0  0  0  0  0  0  0  0  0  0  0
    4.4127   -2.6684    1.4892 H   0  0  0  0  0  0  0  0  0  0  0  0
    6.3473   -3.7773    0.4545 H   0  0  0  0  0  0  0  0  0  0  0  0
    6.8355   -0.4586   -2.2381 H   0  0  0  0  0  0  0  0  0  0  0  0
    4.9063    0.6686   -1.2211 H   0  0  0  0  0  0  0  0  0  0  0  0
    4.4372    0.9368    2.2862 H   0  0  0  0  0  0  0  0  0  0  0  0
    4.0851    1.8069    0.7810 H   0  0  0  0  0  0  0  0  0  0  0  0
   -3.6178    1.7385    1.5823 H   0  0  0  0  0  0  0  0  0  0  0  0
   -3.7505    2.3221   -0.0719 H   0  0  0  0  0  0  0  0  0  0  0  0
  1  2  1  0
  2  3  1  0
  3  4  1  0
  4  5  1  0
  4  6  1  0
  6  7  1  0
  7  8  1  0
  8  9  2  0
  9 10  1  0
 10 11  2  0
 11 12  1  0
 12 13  2  0
 12 14  1  0
 14 15  1  0
 15 16  1  0
 16 17  2  0
 17 18  1  0
 18 19  2  0
 19 20  1  0
 19 21  1  0
 21 22  2  0
 15 23  1  0
 23 24  1  0
 24 25  2  0
  7 26  1  0
 26  2  1  0
 13  8  1  0
 22 16  1  0
 24 11  1  0
  1 27  1  0
  1 28  1  0
  1 29  1  0
  2 30  1  0
  3 31  1  0
  3 32  1  0
  4 33  1  0
  5 34  1  0
  5 35  1  0
  5 36  1  0
  6 37  1  0
  6 38  1  0
 10 39  1  0
 14 40  1  0
 14 41  1  0
 15 42  1  0
 17 43  1  0
 18 44  1  0
 21 45  1  0
 22 46  1  0
 23 47  1  0
 23 48  1  0
 26 49  1  0
 26 50  1  0
M  END
$$$$
