
     RDKit          3D

 51 56  0  0  0  0  0  0  0  0999 V2000
   -2.2711   -1.4823   -1.8990 O   0  0  0  0  0  0  0  0  0  0  0  0
   -2.3437   -1.2619   -0.6867 C   0  0  0  0  0  0  0  0  0  0  0  0
   -3.1507   -2.1970    0.1480 C   0  0  0  0  0  0  0  0  0  0  0  0
   -2.8721   -2.4238    1.5015 C   0  0  0  0  0  0  0  0  0  0  0  0
   -3.6572   -3.3175    2.2379 C   0  0  0  0  0  0  0  0  0  0  0  0
   -4.7138   -3.9878    1.6228 C   0  0  0  0  0  0  0  0  0  0  0  0
   -5.6742   -5.0862    2.5337 Cl  0  0  0  0  0  0  0  0  0  0  0  0
   -4.9915   -3.7783    0.2740 C   0  0  0  0  0  0  0  0  0  0  0  0
   -4.2079   -2.8870   -0.4637 C   0  0  0  0  0  0  0  0  0  0  0  0
   -1.6480   -0.0889    0.0077 C   0  0  0  0  0  0  0  0  0  0  0  0
   -0.1742   -0.2237   -0.0389 C   0  0  0  0  0  0  0  0  0  0  0  0
    0.4278    0.7097   -0.8985 C   0  0  0  0  0  0  0  0  0  0  0  0
    1.7449    0.3392   -1.0490 C   0  0  0  0  0  0  0  0  0  0  0  0
    2.6717    0.7926   -1.8892 O   0  0  0  0  0  0  0  0  0  0  0  0
    2.0153   -0.6457   -0.0773 N   0  0  0  0  0  0  0  0  0  0  0  0
    3.3016   -1.1465    0.3083 C   0  0  0  0  0  0  0  0  0  0  0  0
    4.3680   -1.1863   -0.5991 C   0  0  0  0  0  0  0  0  0  0  0  0
    5.6178   -1.6744   -0.2012 C   0  0  0  0  0  0  0  0  0  0  0  0
    5.8104   -2.1134    1.1057 C   0  0  0  0  0  0  0  0  0  0  0  0
    7.3484   -2.7100    1.5916 Cl  0  0  0  0  0  0  0  0  0  0  0  0
    4.7642   -2.0665    2.0227 C   0  0  0  0  0  0  0  0  0  0  0  0
    3.5131   -1.5821    1.6277 C   0  0  0  0  0  0  0  0  0  0  0  0
    0.7801   -1.0707    0.4498 C   0  0  0  0  0  0  0  0  0  0  0  0
    0.6038   -2.1512    1.2091 O   0  0  0  0  0  0  0  0  0  0  0  0
   -0.5798    1.6373   -1.4781 C   0  0  0  0  0  0  0  0  0  0  0  0
   -0.2975    3.0706   -1.1126 C   0  0  0  0  0  0  0  0  0  0  0  0
    0.9454    3.7081   -1.2335 C   0  0  0  0  0  0  0  0  0  0  0  0
    1.0795    5.0768   -0.9715 C   0  0  0  0  0  0  0  0  0  0  0  0
   -0.0281    5.8378   -0.6038 C   0  0  0  0  0  0  0  0  0  0  0  0
   -1.2753    5.2312   -0.4905 C   0  0  0  0  0  0  0  0  0  0  0  0
   -1.3969    3.8616   -0.7439 C   0  0  0  0  0  0  0  0  0  0  0  0
   -2.7119    3.2217   -0.5857 C   0  0  0  0  0  0  0  0  0  0  0  0
   -2.9112    1.9390   -0.5595 N   0  0  0  0  0  0  0  0  0  0  0  0
   -1.8161    1.1470   -0.8051 N   0  0  0  0  0  0  0  0  0  0  0  0
   -2.0368   -1.9391    2.0004 H   0  0  0  0  0  0  0  0  0  0  0  0
   -3.4336   -3.4912    3.2876 H   0  0  0  0  0  0  0  0  0  0  0  0
   -5.8105   -4.3033   -0.2106 H   0  0  0  0  0  0  0  0  0  0  0  0
   -4.4262   -2.7279   -1.5188 H   0  0  0  0  0  0  0  0  0  0  0  0
   -2.0226    0.1148    1.0137 H   0  0  0  0  0  0  0  0  0  0  0  0
    2.2144    1.2732   -2.6019 H   0  0  0  0  0  0  0  0  0  0  0  0
    4.2512   -0.8779   -1.6340 H   0  0  0  0  0  0  0  0  0  0  0  0
    6.4330   -1.7094   -0.9196 H   0  0  0  0  0  0  0  0  0  0  0  0
    4.9181   -2.3895    3.0492 H   0  0  0  0  0  0  0  0  0  0  0  0
    2.7340   -1.5044    2.3840 H   0  0  0  0  0  0  0  0  0  0  0  0
    1.3511   -2.7597    1.0574 H   0  0  0  0  0  0  0  0  0  0  0  0
   -0.6997    1.5056   -2.5581 H   0  0  0  0  0  0  0  0  0  0  0  0
    1.8356    3.1638   -1.5272 H   0  0  0  0  0  0  0  0  0  0  0  0
    2.0554    5.5499   -1.0599 H   0  0  0  0  0  0  0  0  0  0  0  0
    0.0837    6.9005   -0.4033 H   0  0  0  0  0  0  0  0  0  0  0  0
   -2.1370    5.8243   -0.1966 H   0  0  0  0  0  0  0  0  0  0  0  0
   -3.5809    3.8790   -0.4158 H   0  0  0  0  0  0  0  0  0  0  0  0
  1  2  2  0
  2  3  1  0
  3  4  2  0
  4  5  1  0
  5  6  2  0
  6  7  1  0
  6  8  1  0
  8  9  2  0
  2 10  1  0
 10 11  1  0
 11 12  1  0
 12 13  2  0
 13 14  1  0
 13 15  1  0
 15 16  1  0
 16 17  2  0
 17 18  1  0
 18 19  2  0
 19 20  1  0
 19 21  1  0
 21 22  2  0
 15 23  1  0
 23 24  1  0
 12 25  1  0
 25 26  1  0
 26 27  2  0
 27 28  1  0
 28 29  2  0
 29 30  1  0
 30 31  2  0
 31 32  1  0
 32 33  2  0
 33 34  1  0
  9  3  1  0
 34 10  1  0
 23 11  2  0
 34 25  1  0
 22 16  1  0
 31 26  1  0
  4 35  1  0
  5 36  1  0
  8 37  1  0
  9 38  1  0
 10 39  1  0
 14 40  1  0
 17 41  1  0
 18 42  1  0
 21 43  1  0
 22 44  1  0
 24 45  1  0
 25 46  1  0
 27 47  1  0
 28 48  1  0
 29 49  1  0
 30 50  1  0
 32 51  1  0
M  END
$$$$
