
     RDKit          3D

 37 38  0  0  0  0  0  0  0  0999 V2000
    3.3339    0.9913    2.3997 C   0  0  0  0  0  0  0  0  0  0  0  0
    4.1371    0.0443    1.5040 C   0  0  0  0  0  0  0  0  0  0  0  0
    5.5497   -0.1246    2.0686 C   0  0  0  0  0  0  0  0  0  0  0  0
    4.2114    0.5478    0.0507 C   0  0  0  0  0  0  0  0  0  0  0  0
    2.8841    0.5088   -0.6389 C   0  0  0  0  0  0  0  0  0  0  0  0
    2.2102   -0.5919   -0.9079 N   0  0  0  0  0  0  0  0  0  0  0  0
    1.0128   -0.3254   -1.5412 N   0  0  0  0  0  0  0  0  0  0  0  0
    0.8289    0.9616   -1.7098 C   0  0  0  0  0  0  0  0  0  0  0  0
   -0.3438    1.4903   -2.3741 N   0  0  0  0  0  0  0  0  0  0  0  0
   -1.7614    1.1935   -1.5122 S   0  0  0  0  0  6  0  0  0  0  0  0
   -1.4528    1.2656   -0.0991 O   0  0  0  0  0  0  0  0  0  0  0  0
   -2.7205    2.1102   -2.0989 O   0  0  0  0  0  0  0  0  0  0  0  0
   -2.1687   -0.4938   -2.0009 C   0  0  0  0  0  0  0  0  0  0  0  0
   -3.4937   -0.8730   -1.3910 C   0  0  0  0  0  0  0  0  0  0  0  0
   -4.6916   -0.6404   -2.0817 C   0  0  0  0  0  0  0  0  0  0  0  0
   -5.9165   -0.9884   -1.5104 C   0  0  0  0  0  0  0  0  0  0  0  0
   -5.9571   -1.5697   -0.2447 C   0  0  0  0  0  0  0  0  0  0  0  0
   -4.7736   -1.8010    0.4530 C   0  0  0  0  0  0  0  0  0  0  0  0
   -3.5473   -1.4540   -0.1155 C   0  0  0  0  0  0  0  0  0  0  0  0
    2.1131    1.9502   -1.1802 S   0  0  0  0  0  0  0  0  0  0  0  0
    3.7588    2.0008    2.3926 H   0  0  0  0  0  0  0  0  0  0  0  0
    3.3300    0.6344    3.4353 H   0  0  0  0  0  0  0  0  0  0  0  0
    2.2909    1.0583    2.0746 H   0  0  0  0  0  0  0  0  0  0  0  0
    3.6487   -0.9387    1.5235 H   0  0  0  0  0  0  0  0  0  0  0  0
    5.5159   -0.5088    3.0937 H   0  0  0  0  0  0  0  0  0  0  0  0
    6.0897    0.8283    2.0812 H   0  0  0  0  0  0  0  0  0  0  0  0
    6.1271   -0.8342    1.4666 H   0  0  0  0  0  0  0  0  0  0  0  0
    4.6396    1.5578    0.0257 H   0  0  0  0  0  0  0  0  0  0  0  0
    4.8967   -0.0913   -0.5211 H   0  0  0  0  0  0  0  0  0  0  0  0
   -0.2809    2.4813   -2.5991 H   0  0  0  0  0  0  0  0  0  0  0  0
   -2.2145   -0.5287   -3.0937 H   0  0  0  0  0  0  0  0  0  0  0  0
   -1.3831   -1.1676   -1.6524 H   0  0  0  0  0  0  0  0  0  0  0  0
   -4.6822   -0.1764   -3.0662 H   0  0  0  0  0  0  0  0  0  0  0  0
   -6.8405   -0.7999   -2.0510 H   0  0  0  0  0  0  0  0  0  0  0  0
   -6.9118   -1.8365    0.2008 H   0  0  0  0  0  0  0  0  0  0  0  0
   -4.8050   -2.2470    1.4437 H   0  0  0  0  0  0  0  0  0  0  0  0
   -2.6338   -1.6332    0.4495 H   0  0  0  0  0  0  0  0  0  0  0  0
  1  2  1  0
  2  3  1  0
  2  4  1  0
  4  5  1  0
  5  6  2  0
  6  7  1  0
  7  8  2  0
  8  9  1  0
  9 10  1  0
 10 11  2  0
 10 12  2  0
 10 13  1  0
 13 14  1  0
 14 15  2  0
 15 16  1  0
 16 17  2  0
 17 18  1  0
 18 19  2  0
  8 20  1  0
 20  5  1  0
 19 14  1  0
  1 21  1  0
  1 22  1  0
  1 23  1  0
  2 24  1  0
  3 25  1  0
  3 26  1  0
  3 27  1  0
  4 28  1  0
  4 29  1  0
  9 30  1  0
 13 31  1  0
 13 32  1  0
 15 33  1  0
 16 34  1  0
 17 35  1  0
 18 36  1  0
 19 37  1  0
M  END
$$$$
