
     RDKit          3D

 47 49  0  0  0  0  0  0  0  0999 V2000
    5.4926   -3.1496    2.2330 C   0  0  0  0  0  0  0  0  0  0  0  0
    5.3082   -1.8331    1.5297 C   0  0  0  0  0  0  0  0  0  0  0  0
    4.0254   -1.4694    1.0868 C   0  0  0  0  0  0  0  0  0  0  0  0
    3.7973   -0.2580    0.4310 C   0  0  0  0  0  0  0  0  0  0  0  0
    2.4953   -0.0461    0.0671 O   0  0  0  0  0  0  0  0  0  0  0  0
    2.2108    1.1358   -0.6819 C   0  0  0  0  0  0  0  0  0  0  0  0
    0.7709    1.1048   -1.0252 C   0  0  0  0  0  0  0  0  0  0  0  0
   -0.2002    0.1351   -1.0709 C   0  0  0  0  0  0  0  0  0  0  0  0
   -1.3787    0.8099   -1.4959 C   0  0  0  0  0  0  0  0  0  0  0  0
   -2.6895    0.1742   -1.7261 C   0  0  0  0  0  0  0  0  0  0  0  0
   -2.7376   -1.0492   -1.8889 O   0  0  0  0  0  0  0  0  0  0  0  0
   -3.8560    0.9536   -1.7744 N   0  0  0  0  0  0  0  0  0  0  0  0
   -3.9171    2.3387   -1.3251 C   0  0  0  0  0  0  0  0  0  0  0  0
   -5.1277    0.2375   -1.8548 C   0  0  0  0  0  0  0  0  0  0  0  0
   -5.7170   -0.1724   -0.5114 C   0  0  0  0  0  0  0  0  0  0  0  0
   -6.9286   -0.8672   -0.4925 C   0  0  0  0  0  0  0  0  0  0  0  0
   -7.4740   -1.2358    0.7346 C   0  0  0  0  0  0  0  0  0  0  0  0
   -6.8023   -0.9130    1.9065 C   0  0  0  0  0  0  0  0  0  0  0  0
   -5.6108   -0.2184    1.8055 C   0  0  0  0  0  0  0  0  0  0  0  0
   -5.0595    0.1644    0.6327 N   0  0  0  0  0  0  0  0  0  0  0  0
   -1.1044    2.1074   -1.7250 N   0  0  0  0  0  0  0  0  0  0  0  0
    0.2285    2.2861   -1.4186 O   0  0  0  0  0  0  0  0  0  0  0  0
    4.8655    0.6078    0.2094 C   0  0  0  0  0  0  0  0  0  0  0  0
    6.1663    0.2697    0.6315 C   0  0  0  0  0  0  0  0  0  0  0  0
    7.2919    1.2357    0.3645 C   0  0  0  0  0  0  0  0  0  0  0  0
    6.3774   -0.9507    1.3023 C   0  0  0  0  0  0  0  0  0  0  0  0
    7.9697   -1.3649    1.8559 Cl  0  0  0  0  0  0  0  0  0  0  0  0
    6.2241   -3.7671    1.7006 H   0  0  0  0  0  0  0  0  0  0  0  0
    5.8233   -2.9919    3.2659 H   0  0  0  0  0  0  0  0  0  0  0  0
    4.5574   -3.7211    2.2726 H   0  0  0  0  0  0  0  0  0  0  0  0
    3.1835   -2.1368    1.2520 H   0  0  0  0  0  0  0  0  0  0  0  0
    2.4243    2.0261   -0.0768 H   0  0  0  0  0  0  0  0  0  0  0  0
    2.7959    1.1547   -1.6096 H   0  0  0  0  0  0  0  0  0  0  0  0
   -0.0960   -0.9124   -0.8274 H   0  0  0  0  0  0  0  0  0  0  0  0
   -3.4327    2.9760   -2.0677 H   0  0  0  0  0  0  0  0  0  0  0  0
   -3.4242    2.4412   -0.3541 H   0  0  0  0  0  0  0  0  0  0  0  0
   -4.9573    2.6715   -1.2321 H   0  0  0  0  0  0  0  0  0  0  0  0
   -5.8423    0.8828   -2.3820 H   0  0  0  0  0  0  0  0  0  0  0  0
   -5.0000   -0.6651   -2.4651 H   0  0  0  0  0  0  0  0  0  0  0  0
   -7.4425   -1.1164   -1.4192 H   0  0  0  0  0  0  0  0  0  0  0  0
   -8.4170   -1.7754    0.7722 H   0  0  0  0  0  0  0  0  0  0  0  0
   -7.1995   -1.1901    2.8766 H   0  0  0  0  0  0  0  0  0  0  0  0
   -5.0510    0.0654    2.6906 H   0  0  0  0  0  0  0  0  0  0  0  0
    4.7184    1.5633   -0.2885 H   0  0  0  0  0  0  0  0  0  0  0  0
    7.6712    1.6498    1.3053 H   0  0  0  0  0  0  0  0  0  0  0  0
    6.9623    2.0732   -0.2595 H   0  0  0  0  0  0  0  0  0  0  0  0
    8.1058    0.7391   -0.1746 H   0  0  0  0  0  0  0  0  0  0  0  0
  1  2  1  0
  2  3  2  0
  3  4  1  0
  4  5  1  0
  5  6  1  0
  6  7  1  0
  7  8  2  0
  8  9  1  0
  9 10  1  0
 10 11  2  0
 10 12  1  0
 12 13  1  0
 12 14  1  0
 14 15  1  0
 15 16  2  0
 16 17  1  0
 17 18  2  0
 18 19  1  0
 19 20  2  0
  9 21  2  0
 21 22  1  0
  4 23  2  0
 23 24  1  0
 24 25  1  0
 24 26  2  0
 26 27  1  0
 26  2  1  0
 22  7  1  0
 20 15  1  0
  1 28  1  0
  1 29  1  0
  1 30  1  0
  3 31  1  0
  6 32  1  0
  6 33  1  0
  8 34  1  0
 13 35  1  0
 13 36  1  0
 13 37  1  0
 14 38  1  0
 14 39  1  0
 16 40  1  0
 17 41  1  0
 18 42  1  0
 19 43  1  0
 23 44  1  0
 25 45  1  0
 25 46  1  0
 25 47  1  0
M  END
$$$$
