
     RDKit          3D

 40 42  0  0  0  0  0  0  0  0999 V2000
   -1.6543   -1.8117   -3.2859 C   0  0  0  0  0  0  0  0  0  0  0  0
   -1.7978   -1.4928   -1.7963 C   0  0  0  0  0  0  0  0  0  0  0  0
   -3.1335   -0.7894   -1.5467 C   0  0  0  0  0  0  0  0  0  0  0  0
   -0.5938   -0.6561   -1.3241 C   0  0  0  0  0  0  0  0  0  0  0  0
   -0.5086   -0.5063    0.1155 N   0  0  0  0  0  0  0  0  0  0  0  0
    0.0379   -1.3988    1.0015 C   0  0  0  0  0  0  0  0  0  0  0  0
    0.7845   -2.8935    0.5673 S   0  0  0  0  0  0  0  0  0  0  0  0
    2.3181   -2.7674    1.5410 C   0  0  0  0  0  0  0  0  0  0  0  0
    3.2600   -1.7582    0.9008 C   0  0  0  0  0  0  0  0  0  0  0  0
    3.7878   -2.0436   -0.1803 O   0  0  0  0  0  0  0  0  0  0  0  0
    3.4865   -0.4835    1.5824 C   0  0  0  0  0  0  0  0  0  0  0  0
    2.9851    0.0134    2.7759 C   0  0  0  0  0  0  0  0  0  0  0  0
    3.4380    1.3398    3.0567 C   0  0  0  0  0  0  0  0  0  0  0  0
    4.2741    1.7949    2.0732 C   0  0  0  0  0  0  0  0  0  0  0  0
    5.0210    3.3353    1.9913 Cl  0  0  0  0  0  0  0  0  0  0  0  0
    4.5255    0.6729    0.8353 S   0  0  0  0  0  0  0  0  0  0  0  0
   -0.0566   -0.9406    2.2258 N   0  0  0  0  0  0  0  0  0  0  0  0
   -0.6557    0.2896    2.1584 N   0  0  0  0  0  0  0  0  0  0  0  0
   -0.9126    0.5600    0.8902 C   0  0  0  0  0  0  0  0  0  0  0  0
   -1.5191    1.7846    0.4632 C   0  0  0  0  0  0  0  0  0  0  0  0
   -2.0996    2.7607    1.2621 C   0  0  0  0  0  0  0  0  0  0  0  0
   -2.5571    3.7925    0.4089 C   0  0  0  0  0  0  0  0  0  0  0  0
   -2.2287    3.3995   -0.8652 C   0  0  0  0  0  0  0  0  0  0  0  0
   -1.6143    2.1899   -0.8451 O   0  0  0  0  0  0  0  0  0  0  0  0
   -2.4644   -2.4702   -3.6169 H   0  0  0  0  0  0  0  0  0  0  0  0
   -1.6865   -0.9007   -3.8934 H   0  0  0  0  0  0  0  0  0  0  0  0
   -0.7071   -2.3215   -3.4863 H   0  0  0  0  0  0  0  0  0  0  0  0
   -1.8172   -2.4442   -1.2508 H   0  0  0  0  0  0  0  0  0  0  0  0
   -3.2993   -0.6163   -0.4787 H   0  0  0  0  0  0  0  0  0  0  0  0
   -3.9663   -1.4029   -1.9079 H   0  0  0  0  0  0  0  0  0  0  0  0
   -3.1786    0.1752   -2.0643 H   0  0  0  0  0  0  0  0  0  0  0  0
   -0.5896    0.3306   -1.7925 H   0  0  0  0  0  0  0  0  0  0  0  0
    0.3409   -1.1281   -1.6546 H   0  0  0  0  0  0  0  0  0  0  0  0
    2.8180   -3.7430    1.5199 H   0  0  0  0  0  0  0  0  0  0  0  0
    2.1052   -2.5547    2.5914 H   0  0  0  0  0  0  0  0  0  0  0  0
    2.2924   -0.5172    3.4206 H   0  0  0  0  0  0  0  0  0  0  0  0
    3.1469    1.9236    3.9212 H   0  0  0  0  0  0  0  0  0  0  0  0
   -2.1750    2.7207    2.3419 H   0  0  0  0  0  0  0  0  0  0  0  0
   -3.0531    4.7106    0.6901 H   0  0  0  0  0  0  0  0  0  0  0  0
   -2.3533    3.8467   -1.8433 H   0  0  0  0  0  0  0  0  0  0  0  0
  1  2  1  0
  2  3  1  0
  2  4  1  0
  4  5  1  0
  5  6  1  0
  6  7  1  0
  7  8  1  0
  8  9  1  0
  9 10  2  0
  9 11  1  0
 11 12  2  0
 12 13  1  0
 13 14  2  0
 14 15  1  0
 14 16  1  0
  6 17  2  0
 17 18  1  0
 18 19  2  0
 19 20  1  0
 20 21  2  0
 21 22  1  0
 22 23  2  0
 23 24  1  0
 19  5  1  0
 24 20  1  0
 16 11  1  0
  1 25  1  0
  1 26  1  0
  1 27  1  0
  2 28  1  0
  3 29  1  0
  3 30  1  0
  3 31  1  0
  4 32  1  0
  4 33  1  0
  8 34  1  0
  8 35  1  0
 12 36  1  0
 13 37  1  0
 21 38  1  0
 22 39  1  0
 23 40  1  0
M  END
$$$$
