
     RDKit          3D

 48 51  0  0  0  0  0  0  0  0999 V2000
    4.2676   -3.3323    0.4041 O   0  0  0  0  0  0  0  0  0  0  0  0
    5.1086   -2.3687    1.0789 S   0  0  0  0  0  6  0  0  0  0  0  0
    6.3151   -2.7839    1.7629 O   0  0  0  0  0  0  0  0  0  0  0  0
    4.1985   -1.5117    2.2152 N   0  0  0  0  0  0  0  0  0  0  0  0
    2.8585   -1.1797    1.8835 C   0  0  0  0  0  0  0  0  0  0  0  0
    2.5764    0.0809    1.3707 C   0  0  0  0  0  0  0  0  0  0  0  0
    1.2642    0.4077    1.0131 C   0  0  0  0  0  0  0  0  0  0  0  0
    0.2063   -0.5124    1.1580 C   0  0  0  0  0  0  0  0  0  0  0  0
   -1.1706   -0.1440    0.7700 C   0  0  0  0  0  0  0  0  0  0  0  0
   -2.3142   -0.7121    1.3108 C   0  0  0  0  0  0  0  0  0  0  0  0
   -3.5704   -0.2868    0.8692 C   0  0  0  0  0  0  0  0  0  0  0  0
   -3.6780    0.6955   -0.1079 C   0  0  0  0  0  0  0  0  0  0  0  0
   -4.9498    1.1331   -0.5344 N   0  0  0  0  0  0  0  0  0  0  0  0
   -4.8730    2.3162   -1.4239 C   0  0  0  0  0  0  0  0  0  0  0  0
   -6.2912    2.7785   -1.7929 C   0  0  0  0  0  0  0  0  0  0  0  0
   -7.0402    1.7226   -2.4180 O   0  0  0  0  0  0  0  0  0  0  0  0
   -7.1438    0.5981   -1.5314 C   0  0  0  0  0  0  0  0  0  0  0  0
   -5.7594    0.0525   -1.1410 C   0  0  0  0  0  0  0  0  0  0  0  0
   -2.5453    1.2447   -0.5894 N   0  0  0  0  0  0  0  0  0  0  0  0
   -1.2948    0.8236   -0.1613 N   0  0  0  0  0  0  0  0  0  0  0  0
    0.5287   -1.7834    1.6715 C   0  0  0  0  0  0  0  0  0  0  0  0
    1.8402   -2.1149    2.0340 C   0  0  0  0  0  0  0  0  0  0  0  0
    5.5680   -1.1028   -0.0783 C   0  0  0  0  0  0  0  0  0  0  0  0
    6.6764   -0.2944    0.1879 C   0  0  0  0  0  0  0  0  0  0  0  0
    7.0456    0.6880   -0.7328 C   0  0  0  0  0  0  0  0  0  0  0  0
    6.3158    0.8551   -1.9158 C   0  0  0  0  0  0  0  0  0  0  0  0
    6.8294    2.0939   -3.0049 Cl  0  0  0  0  0  0  0  0  0  0  0  0
    5.2134    0.0310   -2.1807 C   0  0  0  0  0  0  0  0  0  0  0  0
    4.2721    0.1821   -3.6211 Cl  0  0  0  0  0  0  0  0  0  0  0  0
    4.8410   -0.9547   -1.2634 C   0  0  0  0  0  0  0  0  0  0  0  0
    4.3765   -1.8555    3.1587 H   0  0  0  0  0  0  0  0  0  0  0  0
    3.3622    0.8213    1.2500 H   0  0  0  0  0  0  0  0  0  0  0  0
    1.0679    1.4037    0.6153 H   0  0  0  0  0  0  0  0  0  0  0  0
   -2.2586   -1.4642    2.0896 H   0  0  0  0  0  0  0  0  0  0  0  0
   -4.4609   -0.7105    1.3210 H   0  0  0  0  0  0  0  0  0  0  0  0
   -4.3348    2.0592   -2.3460 H   0  0  0  0  0  0  0  0  0  0  0  0
   -4.3538    3.1434   -0.9250 H   0  0  0  0  0  0  0  0  0  0  0  0
   -6.8367    3.1253   -0.9071 H   0  0  0  0  0  0  0  0  0  0  0  0
   -6.2386    3.6113   -2.5012 H   0  0  0  0  0  0  0  0  0  0  0  0
   -7.7162   -0.1790   -2.0476 H   0  0  0  0  0  0  0  0  0  0  0  0
   -7.7125    0.8975   -0.6428 H   0  0  0  0  0  0  0  0  0  0  0  0
   -5.9046   -0.7830   -0.4478 H   0  0  0  0  0  0  0  0  0  0  0  0
   -5.2528   -0.3249   -2.0391 H   0  0  0  0  0  0  0  0  0  0  0  0
   -0.2342   -2.5521    1.7744 H   0  0  0  0  0  0  0  0  0  0  0  0
    2.0553   -3.1135    2.4055 H   0  0  0  0  0  0  0  0  0  0  0  0
    7.2532   -0.4233    1.1020 H   0  0  0  0  0  0  0  0  0  0  0  0
    7.9069    1.3197   -0.5253 H   0  0  0  0  0  0  0  0  0  0  0  0
    3.9866   -1.5972   -1.4693 H   0  0  0  0  0  0  0  0  0  0  0  0
  1  2  2  0
  2  3  2  0
  2  4  1  0
  4  5  1  0
  5  6  2  0
  6  7  1  0
  7  8  2  0
  8  9  1  0
  9 10  2  0
 10 11  1  0
 11 12  2  0
 12 13  1  0
 13 14  1  0
 14 15  1  0
 15 16  1  0
 16 17  1  0
 17 18  1  0
 12 19  1  0
 19 20  2  0
  8 21  1  0
 21 22  2  0
  2 23  1  0
 23 24  2  0
 24 25  1  0
 25 26  2  0
 26 27  1  0
 26 28  1  0
 28 29  1  0
 28 30  2  0
 22  5  1  0
 30 23  1  0
 20  9  1  0
 18 13  1  0
  4 31  1  0
  6 32  1  0
  7 33  1  0
 10 34  1  0
 11 35  1  0
 14 36  1  0
 14 37  1  0
 15 38  1  0
 15 39  1  0
 17 40  1  0
 17 41  1  0
 18 42  1  0
 18 43  1  0
 21 44  1  0
 22 45  1  0
 24 46  1  0
 25 47  1  0
 30 48  1  0
M  END
$$$$
