
     RDKit          3D

 36 37  0  0  0  0  0  0  0  0999 V2000
    5.6123   -3.0819   -0.5688 C   0  0  0  0  0  0  0  0  0  0  0  0
    4.6987   -2.6039    0.4114 O   0  0  0  0  0  0  0  0  0  0  0  0
    3.8703   -1.5794    0.0410 C   0  0  0  0  0  0  0  0  0  0  0  0
    3.0469   -1.0961    1.0657 C   0  0  0  0  0  0  0  0  0  0  0  0
    2.1502   -0.0526    0.8286 C   0  0  0  0  0  0  0  0  0  0  0  0
    2.0678    0.4993   -0.4508 C   0  0  0  0  0  0  0  0  0  0  0  0
    0.9429    1.8399   -0.7600 S   0  0  0  0  0  6  0  0  0  0  0  0
    1.4239    2.5601   -1.9208 O   0  0  0  0  0  0  0  0  0  0  0  0
    0.6798    2.4992    0.4998 O   0  0  0  0  0  0  0  0  0  0  0  0
   -0.4551    0.9626   -1.2703 N   0  0  0  0  0  0  0  0  0  0  0  0
   -1.7620    1.4255   -0.6982 N   0  0  0  0  0  0  0  0  0  0  0  0
   -2.3735    0.5733    0.0693 C   0  0  0  0  0  0  0  0  0  0  0  0
   -1.8414   -0.8092    0.3624 C   0  0  0  0  0  0  0  0  0  0  0  0
   -3.6585    0.9815    0.6964 C   0  0  0  0  0  0  0  0  0  0  0  0
   -3.8097    2.3016    1.1196 C   0  0  0  0  0  0  0  0  0  0  0  0
   -5.0118    2.6606    1.7003 C   0  0  0  0  0  0  0  0  0  0  0  0
   -6.0457    1.8083    1.8712 N   0  0  0  0  0  0  0  0  0  0  0  0
   -5.8759    0.5425    1.4344 C   0  0  0  0  0  0  0  0  0  0  0  0
   -4.7108    0.0805    0.8460 C   0  0  0  0  0  0  0  0  0  0  0  0
    2.8947    0.0359   -1.4792 C   0  0  0  0  0  0  0  0  0  0  0  0
    3.7919   -1.0084   -1.2313 C   0  0  0  0  0  0  0  0  0  0  0  0
    6.2854   -2.2853   -0.9036 H   0  0  0  0  0  0  0  0  0  0  0  0
    6.2237   -3.8609   -0.1024 H   0  0  0  0  0  0  0  0  0  0  0  0
    5.0838   -3.5360   -1.4126 H   0  0  0  0  0  0  0  0  0  0  0  0
    3.1119   -1.5348    2.0589 H   0  0  0  0  0  0  0  0  0  0  0  0
    1.5261    0.3203    1.6386 H   0  0  0  0  0  0  0  0  0  0  0  0
   -0.4583    1.0435   -2.2934 H   0  0  0  0  0  0  0  0  0  0  0  0
   -2.4289   -1.3236    1.1254 H   0  0  0  0  0  0  0  0  0  0  0  0
   -1.8477   -1.4053   -0.5523 H   0  0  0  0  0  0  0  0  0  0  0  0
   -0.8193   -0.7344    0.7384 H   0  0  0  0  0  0  0  0  0  0  0  0
   -3.0132    3.0311    1.0080 H   0  0  0  0  0  0  0  0  0  0  0  0
   -5.1833    3.6736    2.0535 H   0  0  0  0  0  0  0  0  0  0  0  0
   -6.7333   -0.1108    1.5729 H   0  0  0  0  0  0  0  0  0  0  0  0
   -4.6503   -0.9431    0.5011 H   0  0  0  0  0  0  0  0  0  0  0  0
    2.8520    0.4783   -2.4717 H   0  0  0  0  0  0  0  0  0  0  0  0
    4.4164   -1.3519   -2.0501 H   0  0  0  0  0  0  0  0  0  0  0  0
  1  2  1  0
  2  3  1  0
  3  4  2  0
  4  5  1  0
  5  6  2  0
  6  7  1  0
  7  8  2  0
  7  9  2  0
  7 10  1  0
 10 11  1  0
 11 12  2  3
 12 13  1  0
 12 14  1  0
 14 15  2  0
 15 16  1  0
 16 17  2  0
 17 18  1  0
 18 19  2  0
  6 20  1  0
 20 21  2  0
 21  3  1  0
 19 14  1  0
  1 22  1  0
  1 23  1  0
  1 24  1  0
  4 25  1  0
  5 26  1  0
 10 27  1  0
 13 28  1  0
 13 29  1  0
 13 30  1  0
 15 31  1  0
 16 32  1  0
 18 33  1  0
 19 34  1  0
 20 35  1  0
 21 36  1  0
M  END
$$$$
