
     RDKit          3D

 65 68  0  0  0  0  0  0  0  0999 V2000
   -9.7785   -2.0463    2.5410 C   0  0  0  0  0  0  0  0  0  0  0  0
   -8.4139   -1.5987    2.1090 C   0  0  0  0  0  0  0  0  0  0  0  0
   -8.0994   -0.2367    2.0436 C   0  0  0  0  0  0  0  0  0  0  0  0
   -6.8377    0.1785    1.6122 C   0  0  0  0  0  0  0  0  0  0  0  0
   -5.8719   -0.7613    1.2291 C   0  0  0  0  0  0  0  0  0  0  0  0
   -4.5199   -0.3031    0.7427 C   0  0  0  0  0  0  0  0  0  0  0  0
   -4.5682    0.1594   -0.7149 C   0  0  0  0  0  0  0  0  0  0  0  0
   -3.2731    0.6028   -1.1940 N   0  0  0  0  0  0  0  0  0  0  0  0
   -2.7749    1.8511   -0.8865 C   0  0  0  0  0  0  0  0  0  0  0  0
   -3.3785    2.6680   -0.2005 O   0  0  0  0  0  0  0  0  0  0  0  0
   -1.4006    2.0952   -1.4757 C   0  0  0  0  0  0  0  0  0  0  0  0
   -0.8947    3.5085   -1.1904 C   0  0  0  0  0  0  0  0  0  0  0  0
    0.4398    3.8107   -1.8725 C   0  0  0  0  0  0  0  0  0  0  0  0
    1.5455    3.0274   -1.3296 N   0  0  0  0  0  0  0  0  0  0  0  0
    2.0902    3.5081   -0.1333 N   0  0  0  0  0  0  0  0  0  0  0  0
    3.0661    2.8828    0.4635 C   0  0  0  0  0  0  0  0  0  0  0  0
    3.5977    3.4496    1.7490 C   0  0  0  0  0  0  0  0  0  0  0  0
    3.5976    1.6776   -0.1234 C   0  0  0  0  0  0  0  0  0  0  0  0
    4.6441    0.8286    0.1961 C   0  0  0  0  0  0  0  0  0  0  0  0
    5.7021    0.9681    1.2305 C   0  0  0  0  0  0  0  0  0  0  0  0
    4.5662   -0.2206   -0.7282 N   0  0  0  0  0  0  0  0  0  0  0  0
    5.2503   -1.4747   -0.7706 C   0  0  0  0  0  0  0  0  0  0  0  0
    5.8487   -2.0404    0.3604 C   0  0  0  0  0  0  0  0  0  0  0  0
    6.5009   -3.2769    0.2717 C   0  0  0  0  0  0  0  0  0  0  0  0
    6.5644   -3.9679   -0.9429 C   0  0  0  0  0  0  0  0  0  0  0  0
    7.2364   -5.3060   -1.0320 C   0  0  0  0  0  0  0  0  0  0  0  0
    5.9368   -3.4204   -2.0655 C   0  0  0  0  0  0  0  0  0  0  0  0
    5.2812   -2.1889   -1.9803 C   0  0  0  0  0  0  0  0  0  0  0  0
    3.6697    0.0639   -1.7124 N   0  0  0  0  0  0  0  0  0  0  0  0
    3.0500    1.1743   -1.3076 C   0  0  0  0  0  0  0  0  0  0  0  0
    1.9481    1.8445   -1.9850 C   0  0  0  0  0  0  0  0  0  0  0  0
    1.4143    1.4169   -3.0072 O   0  0  0  0  0  0  0  0  0  0  0  0
   -6.1920   -2.1232    1.2797 C   0  0  0  0  0  0  0  0  0  0  0  0
   -7.4540   -2.5378    1.7133 C   0  0  0  0  0  0  0  0  0  0  0  0
  -10.4172   -2.1973    1.6650 H   0  0  0  0  0  0  0  0  0  0  0  0
  -10.2477   -1.3030    3.1946 H   0  0  0  0  0  0  0  0  0  0  0  0
   -9.7192   -2.9834    3.1051 H   0  0  0  0  0  0  0  0  0  0  0  0
   -8.8347    0.5131    2.3280 H   0  0  0  0  0  0  0  0  0  0  0  0
   -6.6123    1.2435    1.5721 H   0  0  0  0  0  0  0  0  0  0  0  0
   -4.1586    0.5021    1.3937 H   0  0  0  0  0  0  0  0  0  0  0  0
   -3.7894   -1.1147    0.8494 H   0  0  0  0  0  0  0  0  0  0  0  0
   -4.8906   -0.6570   -1.3695 H   0  0  0  0  0  0  0  0  0  0  0  0
   -5.2809    0.9829   -0.8363 H   0  0  0  0  0  0  0  0  0  0  0  0
   -2.7009   -0.0415   -1.7254 H   0  0  0  0  0  0  0  0  0  0  0  0
   -1.4583    1.9307   -2.5582 H   0  0  0  0  0  0  0  0  0  0  0  0
   -0.7200    1.3523   -1.0452 H   0  0  0  0  0  0  0  0  0  0  0  0
   -1.6365    4.2353   -1.5460 H   0  0  0  0  0  0  0  0  0  0  0  0
   -0.8058    3.6569   -0.1068 H   0  0  0  0  0  0  0  0  0  0  0  0
    0.6892    4.8700   -1.7362 H   0  0  0  0  0  0  0  0  0  0  0  0
    0.3594    3.6389   -2.9519 H   0  0  0  0  0  0  0  0  0  0  0  0
    3.6738    2.6647    2.5061 H   0  0  0  0  0  0  0  0  0  0  0  0
    4.5822    3.8913    1.5744 H   0  0  0  0  0  0  0  0  0  0  0  0
    2.9296    4.2303    2.1240 H   0  0  0  0  0  0  0  0  0  0  0  0
    6.6471    0.5144    0.9165 H   0  0  0  0  0  0  0  0  0  0  0  0
    5.9323    2.0216    1.4135 H   0  0  0  0  0  0  0  0  0  0  0  0
    5.3797    0.5248    2.1778 H   0  0  0  0  0  0  0  0  0  0  0  0
    5.7909   -1.5804    1.3395 H   0  0  0  0  0  0  0  0  0  0  0  0
    6.9500   -3.7036    1.1665 H   0  0  0  0  0  0  0  0  0  0  0  0
    6.4901   -6.1047   -0.9713 H   0  0  0  0  0  0  0  0  0  0  0  0
    7.7848   -5.4002   -1.9756 H   0  0  0  0  0  0  0  0  0  0  0  0
    7.9591   -5.4394   -0.2207 H   0  0  0  0  0  0  0  0  0  0  0  0
    5.9513   -3.9479   -3.0178 H   0  0  0  0  0  0  0  0  0  0  0  0
    4.8064   -1.7919   -2.8770 H   0  0  0  0  0  0  0  0  0  0  0  0
   -5.4626   -2.8726    0.9812 H   0  0  0  0  0  0  0  0  0  0  0  0
   -7.6838   -3.6008    1.7412 H   0  0  0  0  0  0  0  0  0  0  0  0
  1  2  1  0
  2  3  2  0
  3  4  1  0
  4  5  2  0
  5  6  1  0
  6  7  1  0
  7  8  1  0
  8  9  1  0
  9 10  2  0
  9 11  1  0
 11 12  1  0
 12 13  1  0
 13 14  1  0
 14 15  1  0
 15 16  2  0
 16 17  1  0
 16 18  1  0
 18 19  2  0
 19 20  1  0
 19 21  1  0
 21 22  1  0
 22 23  2  0
 23 24  1  0
 24 25  2  0
 25 26  1  0
 25 27  1  0
 27 28  2  0
 21 29  1  0
 29 30  2  0
 30 31  1  0
 31 32  2  0
  5 33  1  0
 33 34  2  0
 34  2  1  0
 31 14  1  0
 30 18  1  0
 28 22  1  0
  1 35  1  0
  1 36  1  0
  1 37  1  0
  3 38  1  0
  4 39  1  0
  6 40  1  0
  6 41  1  0
  7 42  1  0
  7 43  1  0
  8 44  1  0
 11 45  1  0
 11 46  1  0
 12 47  1  0
 12 48  1  0
 13 49  1  0
 13 50  1  0
 17 51  1  0
 17 52  1  0
 17 53  1  0
 20 54  1  0
 20 55  1  0
 20 56  1  0
 23 57  1  0
 24 58  1  0
 26 59  1  0
 26 60  1  0
 26 61  1  0
 27 62  1  0
 28 63  1  0
 33 64  1  0
 34 65  1  0
M  END
$$$$
