
     RDKit          3D

 50 52  0  0  0  0  0  0  0  0999 V2000
   -1.2067   -1.0811    2.4714 C   0  0  0  0  0  0  0  0  0  0  0  0
   -1.0797   -0.0373    1.3697 C   0  0  0  0  0  0  0  0  0  0  0  0
   -1.5011   -0.5353   -0.0266 C   0  0  0  0  0  0  0  0  0  0  0  0
   -2.9793   -0.9116   -0.1196 C   0  0  0  0  0  0  0  0  0  0  0  0
   -3.9726    0.0821   -0.0485 C   0  0  0  0  0  0  0  0  0  0  0  0
   -5.3282   -0.2411   -0.1289 C   0  0  0  0  0  0  0  0  0  0  0  0
   -5.7243   -1.5670   -0.2625 C   0  0  0  0  0  0  0  0  0  0  0  0
   -4.7636   -2.5701   -0.3139 C   0  0  0  0  0  0  0  0  0  0  0  0
   -3.4059   -2.2474   -0.2410 C   0  0  0  0  0  0  0  0  0  0  0  0
   -0.6242   -1.5907   -0.4880 N   0  0  0  0  0  0  0  0  0  0  0  0
    0.1083   -1.2481   -1.5921 C   0  0  0  0  0  0  0  0  0  0  0  0
    0.8602   -2.0169   -2.1620 O   0  0  0  0  0  0  0  0  0  0  0  0
   -0.1494    0.0458   -1.9046 N   0  0  0  0  0  0  0  0  0  0  0  0
    0.4627    0.7456   -3.0191 C   0  0  0  0  0  0  0  0  0  0  0  0
    1.9402    1.0254   -2.7279 C   0  0  0  0  0  0  0  0  0  0  0  0
    2.8072    0.4710   -3.4110 O   0  0  0  0  0  0  0  0  0  0  0  0
    2.2815    1.8848   -1.6927 N   0  0  0  0  0  0  0  0  0  0  0  0
    1.3524    2.7801   -1.0164 C   0  0  0  0  0  0  0  0  0  0  0  0
    3.6123    1.7517   -1.1055 C   0  0  0  0  0  0  0  0  0  0  0  0
    3.5705    0.9265    0.1600 C   0  0  0  0  0  0  0  0  0  0  0  0
    3.7784    1.5227    1.4121 C   0  0  0  0  0  0  0  0  0  0  0  0
    3.6931    0.7597    2.5819 C   0  0  0  0  0  0  0  0  0  0  0  0
    3.3966   -0.5991    2.5103 C   0  0  0  0  0  0  0  0  0  0  0  0
    3.1977   -1.2034    1.2699 C   0  0  0  0  0  0  0  0  0  0  0  0
    3.2872   -0.4500    0.1033 C   0  0  0  0  0  0  0  0  0  0  0  0
   -1.1056    0.5507   -1.0709 C   0  0  0  0  0  0  0  0  0  0  0  0
   -1.5587    1.6919   -1.1206 O   0  0  0  0  0  0  0  0  0  0  0  0
   -2.2429   -1.4077    2.5971 H   0  0  0  0  0  0  0  0  0  0  0  0
   -0.5868   -1.9603    2.2620 H   0  0  0  0  0  0  0  0  0  0  0  0
   -0.8748   -0.6582    3.4273 H   0  0  0  0  0  0  0  0  0  0  0  0
   -1.6716    0.8414    1.6491 H   0  0  0  0  0  0  0  0  0  0  0  0
   -0.0354    0.3024    1.3438 H   0  0  0  0  0  0  0  0  0  0  0  0
   -3.7039    1.1316    0.0622 H   0  0  0  0  0  0  0  0  0  0  0  0
   -6.0756    0.5461   -0.0890 H   0  0  0  0  0  0  0  0  0  0  0  0
   -6.7784   -1.8180   -0.3276 H   0  0  0  0  0  0  0  0  0  0  0  0
   -5.0719   -3.6081   -0.4085 H   0  0  0  0  0  0  0  0  0  0  0  0
   -2.6928   -3.0656   -0.2835 H   0  0  0  0  0  0  0  0  0  0  0  0
   -0.5478   -2.5085   -0.0840 H   0  0  0  0  0  0  0  0  0  0  0  0
    0.4119    0.0911   -3.8978 H   0  0  0  0  0  0  0  0  0  0  0  0
   -0.0675    1.6789   -3.2502 H   0  0  0  0  0  0  0  0  0  0  0  0
    0.9568    2.2788   -0.1303 H   0  0  0  0  0  0  0  0  0  0  0  0
    0.5420    3.0727   -1.6798 H   0  0  0  0  0  0  0  0  0  0  0  0
    1.8795    3.6914   -0.7098 H   0  0  0  0  0  0  0  0  0  0  0  0
    4.0028    2.7589   -0.9076 H   0  0  0  0  0  0  0  0  0  0  0  0
    4.3111    1.2823   -1.8080 H   0  0  0  0  0  0  0  0  0  0  0  0
    4.0049    2.5823    1.4876 H   0  0  0  0  0  0  0  0  0  0  0  0
    3.8589    1.2269    3.5504 H   0  0  0  0  0  0  0  0  0  0  0  0
    3.3274   -1.1904    3.4204 H   0  0  0  0  0  0  0  0  0  0  0  0
    2.9706   -2.2656    1.2094 H   0  0  0  0  0  0  0  0  0  0  0  0
    3.1345   -0.9414   -0.8583 H   0  0  0  0  0  0  0  0  0  0  0  0
  1  2  1  0
  2  3  1  0
  3  4  1  0
  4  5  2  0
  5  6  1  0
  6  7  2  0
  7  8  1  0
  8  9  2  0
  3 10  1  0
 10 11  1  0
 11 12  2  0
 11 13  1  0
 13 14  1  0
 14 15  1  0
 15 16  2  0
 15 17  1  0
 17 18  1  0
 17 19  1  0
 19 20  1  0
 20 21  2  0
 21 22  1  0
 22 23  2  0
 23 24  1  0
 24 25  2  0
 13 26  1  0
 26 27  2  0
 26  3  1  0
  9  4  1  0
 25 20  1  0
  1 28  1  0
  1 29  1  0
  1 30  1  0
  2 31  1  0
  2 32  1  0
  5 33  1  0
  6 34  1  0
  7 35  1  0
  8 36  1  0
  9 37  1  0
 10 38  1  0
 14 39  1  0
 14 40  1  0
 18 41  1  0
 18 42  1  0
 18 43  1  0
 19 44  1  0
 19 45  1  0
 21 46  1  0
 22 47  1  0
 23 48  1  0
 24 49  1  0
 25 50  1  0
M  END
$$$$
