
     RDKit          3D

 39 41  0  0  0  0  0  0  0  0999 V2000
    0.3923    2.7692   -1.4011 S   0  0  0  0  0  0  0  0  0  0  0  0
    0.2139    1.3021   -0.5914 C   0  0  0  0  0  0  0  0  0  0  0  0
    1.2251    0.7628    0.1748 N   0  0  0  0  0  0  0  0  0  0  0  0
    2.6091    1.2301    0.2695 C   0  0  0  0  0  0  0  0  0  0  0  0
    3.3253    0.5684    1.4564 C   0  0  0  0  0  0  0  0  0  0  0  0
    4.7996    0.9339    1.5328 C   0  0  0  0  0  0  0  0  0  0  0  0
    5.4572   -0.1716    0.7451 C   0  0  0  0  0  0  0  0  0  0  0  0
    4.5967   -1.3634    1.0989 C   0  0  0  0  0  0  0  0  0  0  0  0
    3.2647   -0.8680    1.2950 O   0  0  0  0  0  0  0  0  0  0  0  0
   -0.9652    0.5384   -0.6125 N   0  0  0  0  0  0  0  0  0  0  0  0
   -1.0143   -0.8716   -0.1879 C   0  0  0  0  0  0  0  0  0  0  0  0
   -2.1302   -1.6881   -0.8397 C   0  0  0  0  0  0  0  0  0  0  0  0
   -3.4511   -1.0147   -0.6154 C   0  0  0  0  0  0  0  0  0  0  0  0
   -4.6219   -1.7440   -0.3840 C   0  0  0  0  0  0  0  0  0  0  0  0
   -5.8323   -1.0779   -0.1962 C   0  0  0  0  0  0  0  0  0  0  0  0
   -5.8791    0.3139   -0.2522 C   0  0  0  0  0  0  0  0  0  0  0  0
   -4.7155    1.0433   -0.4996 C   0  0  0  0  0  0  0  0  0  0  0  0
   -3.4910    0.3854   -0.6767 C   0  0  0  0  0  0  0  0  0  0  0  0
   -2.2420    1.1650   -1.0157 C   0  0  0  0  0  0  0  0  0  0  0  0
    1.0892   -0.1438    0.5960 H   0  0  0  0  0  0  0  0  0  0  0  0
    3.0888    0.9621   -0.6784 H   0  0  0  0  0  0  0  0  0  0  0  0
    2.6281    2.3185    0.3804 H   0  0  0  0  0  0  0  0  0  0  0  0
    2.8066    0.8261    2.3868 H   0  0  0  0  0  0  0  0  0  0  0  0
    5.1354    0.8821    2.5759 H   0  0  0  0  0  0  0  0  0  0  0  0
    5.0286    1.9350    1.1569 H   0  0  0  0  0  0  0  0  0  0  0  0
    6.5116   -0.3191    0.9931 H   0  0  0  0  0  0  0  0  0  0  0  0
    5.3844    0.0396   -0.3280 H   0  0  0  0  0  0  0  0  0  0  0  0
    4.5939   -2.1281    0.3173 H   0  0  0  0  0  0  0  0  0  0  0  0
    4.9236   -1.8234    2.0376 H   0  0  0  0  0  0  0  0  0  0  0  0
   -1.1308   -0.8683    0.9033 H   0  0  0  0  0  0  0  0  0  0  0  0
   -0.0627   -1.3592   -0.4253 H   0  0  0  0  0  0  0  0  0  0  0  0
   -1.9585   -1.7772   -1.9191 H   0  0  0  0  0  0  0  0  0  0  0  0
   -2.1317   -2.6981   -0.4141 H   0  0  0  0  0  0  0  0  0  0  0  0
   -4.5982   -2.8302   -0.3471 H   0  0  0  0  0  0  0  0  0  0  0  0
   -6.7412   -1.6445   -0.0114 H   0  0  0  0  0  0  0  0  0  0  0  0
   -6.8245    0.8316   -0.1122 H   0  0  0  0  0  0  0  0  0  0  0  0
   -4.7700    2.1281   -0.5588 H   0  0  0  0  0  0  0  0  0  0  0  0
   -2.2120    1.3063   -2.1031 H   0  0  0  0  0  0  0  0  0  0  0  0
   -2.3017    2.1494   -0.5367 H   0  0  0  0  0  0  0  0  0  0  0  0
  1  2  2  0
  2  3  1  0
  3  4  1  0
  4  5  1  0
  5  6  1  0
  6  7  1  0
  7  8  1  0
  8  9  1  0
  2 10  1  0
 10 11  1  0
 11 12  1  0
 12 13  1  0
 13 14  2  0
 14 15  1  0
 15 16  2  0
 16 17  1  0
 17 18  2  0
 18 19  1  0
  9  5  1  0
 19 10  1  0
 18 13  1  0
  3 20  1  0
  4 21  1  0
  4 22  1  0
  5 23  1  0
  6 24  1  0
  6 25  1  0
  7 26  1  0
  7 27  1  0
  8 28  1  0
  8 29  1  0
 11 30  1  0
 11 31  1  0
 12 32  1  0
 12 33  1  0
 14 34  1  0
 15 35  1  0
 16 36  1  0
 17 37  1  0
 19 38  1  0
 19 39  1  0
M  END
$$$$
