
     RDKit          3D

 51 54  0  0  0  0  0  0  0  0999 V2000
   -6.1105   -0.2098    1.0419 C   0  0  0  0  0  0  0  0  0  0  0  0
   -4.7566   -0.1154    0.6204 O   0  0  0  0  0  0  0  0  0  0  0  0
   -4.3609   -0.8938   -0.4365 C   0  0  0  0  0  0  0  0  0  0  0  0
   -5.2099   -1.7670   -1.1287 C   0  0  0  0  0  0  0  0  0  0  0  0
   -4.7325   -2.5274   -2.1979 C   0  0  0  0  0  0  0  0  0  0  0  0
   -3.4028   -2.4230   -2.5865 C   0  0  0  0  0  0  0  0  0  0  0  0
   -2.5483   -1.5577   -1.9056 C   0  0  0  0  0  0  0  0  0  0  0  0
   -3.0086   -0.7815   -0.8238 C   0  0  0  0  0  0  0  0  0  0  0  0
   -2.0481    0.1560   -0.0996 C   0  0  0  0  0  0  0  0  0  0  0  0
   -0.8898   -0.6047    0.5656 C   0  0  0  0  0  0  0  0  0  0  0  0
    0.0909    0.3659    1.2295 C   0  0  0  0  0  0  0  0  0  0  0  0
    0.6022    1.4118    0.3313 N   0  0  0  0  0  0  0  0  0  0  0  0
    1.5545    0.9176   -0.6754 C   0  0  0  0  0  0  0  0  0  0  0  0
    2.8401    0.4781   -0.0326 C   0  0  0  0  0  0  0  0  0  0  0  0
    3.3486   -0.8139    0.0252 C   0  0  0  0  0  0  0  0  0  0  0  0
    2.7993   -2.0990   -0.4772 C   0  0  0  0  0  0  0  0  0  0  0  0
    4.5507   -0.7605    0.6864 N   0  0  0  0  0  0  0  0  0  0  0  0
    4.8514    0.5299    1.0481 C   0  0  0  0  0  0  0  0  0  0  0  0
    5.9670    1.0420    1.7221 C   0  0  0  0  0  0  0  0  0  0  0  0
    6.0027    2.4186    1.9637 C   0  0  0  0  0  0  0  0  0  0  0  0
    4.9622    3.2460    1.5493 C   0  0  0  0  0  0  0  0  0  0  0  0
    3.8556    2.7154    0.8767 C   0  0  0  0  0  0  0  0  0  0  0  0
    3.7960    1.3304    0.6164 C   0  0  0  0  0  0  0  0  0  0  0  0
   -0.5081    2.1486   -0.2873 C   0  0  0  0  0  0  0  0  0  0  0  0
   -1.5103    1.2584   -1.0261 C   0  0  0  0  0  0  0  0  0  0  0  0
   -6.2443    0.4698    1.8891 H   0  0  0  0  0  0  0  0  0  0  0  0
   -6.3473   -1.2214    1.3877 H   0  0  0  0  0  0  0  0  0  0  0  0
   -6.7944    0.1100    0.2490 H   0  0  0  0  0  0  0  0  0  0  0  0
   -6.2550   -1.8801   -0.8608 H   0  0  0  0  0  0  0  0  0  0  0  0
   -5.4020   -3.2008   -2.7265 H   0  0  0  0  0  0  0  0  0  0  0  0
   -3.0294   -3.0134   -3.4190 H   0  0  0  0  0  0  0  0  0  0  0  0
   -1.5116   -1.4926   -2.2281 H   0  0  0  0  0  0  0  0  0  0  0  0
   -2.5840    0.6683    0.7096 H   0  0  0  0  0  0  0  0  0  0  0  0
   -1.2863   -1.2919    1.3238 H   0  0  0  0  0  0  0  0  0  0  0  0
   -0.3556   -1.2278   -0.1606 H   0  0  0  0  0  0  0  0  0  0  0  0
    0.9089   -0.1971    1.6926 H   0  0  0  0  0  0  0  0  0  0  0  0
   -0.4176    0.8587    2.0691 H   0  0  0  0  0  0  0  0  0  0  0  0
    1.8092    1.7273   -1.3725 H   0  0  0  0  0  0  0  0  0  0  0  0
    1.1310    0.1117   -1.2846 H   0  0  0  0  0  0  0  0  0  0  0  0
    2.4557   -1.9939   -1.5111 H   0  0  0  0  0  0  0  0  0  0  0  0
    3.5511   -2.8946   -0.4548 H   0  0  0  0  0  0  0  0  0  0  0  0
    1.9519   -2.4149    0.1389 H   0  0  0  0  0  0  0  0  0  0  0  0
    5.1430   -1.5550    0.8810 H   0  0  0  0  0  0  0  0  0  0  0  0
    6.7768    0.3991    2.0498 H   0  0  0  0  0  0  0  0  0  0  0  0
    6.8539    2.8479    2.4866 H   0  0  0  0  0  0  0  0  0  0  0  0
    5.0039    4.3129    1.7520 H   0  0  0  0  0  0  0  0  0  0  0  0
    3.0411    3.3632    0.5661 H   0  0  0  0  0  0  0  0  0  0  0  0
   -0.1223    2.9162   -0.9697 H   0  0  0  0  0  0  0  0  0  0  0  0
   -1.0363    2.7033    0.4994 H   0  0  0  0  0  0  0  0  0  0  0  0
   -2.3419    1.8750   -1.3900 H   0  0  0  0  0  0  0  0  0  0  0  0
   -1.0336    0.8314   -1.9165 H   0  0  0  0  0  0  0  0  0  0  0  0
  1  2  1  0
  2  3  1  0
  3  4  2  0
  4  5  1  0
  5  6  2  0
  6  7  1  0
  7  8  2  0
  8  9  1  0
  9 10  1  0
 10 11  1  0
 11 12  1  0
 12 13  1  0
 13 14  1  0
 14 15  2  0
 15 16  1  0
 15 17  1  0
 17 18  1  0
 18 19  2  0
 19 20  1  0
 20 21  2  0
 21 22  1  0
 22 23  2  0
 12 24  1  0
 24 25  1  0
  8  3  1  0
 25  9  1  0
 23 14  1  0
 23 18  1  0
  1 26  1  0
  1 27  1  0
  1 28  1  0
  4 29  1  0
  5 30  1  0
  6 31  1  0
  7 32  1  0
  9 33  1  0
 10 34  1  0
 10 35  1  0
 11 36  1  0
 11 37  1  0
 13 38  1  0
 13 39  1  0
 16 40  1  0
 16 41  1  0
 16 42  1  0
 17 43  1  0
 19 44  1  0
 20 45  1  0
 21 46  1  0
 22 47  1  0
 24 48  1  0
 24 49  1  0
 25 50  1  0
 25 51  1  0
M  END
$$$$
