
     RDKit          3D

 40 42  0  0  0  0  0  0  0  0999 V2000
   -2.2896    1.4875   -0.2018 O   0  0  0  0  0  0  0  0  0  0  0  0
   -1.7178    0.4621    0.1701 C   0  0  0  0  0  0  0  0  0  0  0  0
   -2.4824   -0.7878    0.6000 C   0  0  0  0  0  0  0  0  0  0  0  0
   -3.9471   -0.7818    0.2234 C   0  0  0  0  0  0  0  0  0  0  0  0
   -4.3652   -1.3002   -1.0111 C   0  0  0  0  0  0  0  0  0  0  0  0
   -5.7167   -1.2877   -1.3630 C   0  0  0  0  0  0  0  0  0  0  0  0
   -6.6548   -0.7503   -0.4844 C   0  0  0  0  0  0  0  0  0  0  0  0
   -8.4843   -0.7324   -0.9612 Br  0  0  0  0  0  0  0  0  0  0  0  0
   -6.2543   -0.2221    0.7407 C   0  0  0  0  0  0  0  0  0  0  0  0
   -4.9028   -0.2353    1.0923 C   0  0  0  0  0  0  0  0  0  0  0  0
   -0.3310    0.3906    0.2365 N   0  0  0  0  0  0  0  0  0  0  0  0
    0.4195   -0.7579    0.7613 C   0  0  0  0  0  0  0  0  0  0  0  0
    1.9041   -0.4480    1.0256 C   0  0  0  0  0  0  0  0  0  0  0  0
    2.5304    0.1040   -0.1841 N   0  0  0  0  0  0  0  0  0  0  0  0
    3.9173    0.2446   -0.1292 C   0  0  0  0  0  0  0  0  0  0  0  0
    4.6424    0.6253   -1.2610 C   0  0  0  0  0  0  0  0  0  0  0  0
    6.0305    0.7473   -1.1980 C   0  0  0  0  0  0  0  0  0  0  0  0
    6.6786    0.4777   -0.0043 C   0  0  0  0  0  0  0  0  0  0  0  0
    5.9043    0.0898    1.0712 C   0  0  0  0  0  0  0  0  0  0  0  0
    4.5581   -0.0347    1.0281 N   0  0  0  0  0  0  0  0  0  0  0  0
    1.7692    1.1400   -0.9098 C   0  0  0  0  0  0  0  0  0  0  0  0
    0.4694    1.5426   -0.1863 C   0  0  0  0  0  0  0  0  0  0  0  0
   -2.3919   -0.8886    1.6882 H   0  0  0  0  0  0  0  0  0  0  0  0
   -2.0176   -1.6737    0.1523 H   0  0  0  0  0  0  0  0  0  0  0  0
   -3.6403   -1.7115   -1.7101 H   0  0  0  0  0  0  0  0  0  0  0  0
   -6.0244   -1.6920   -2.3234 H   0  0  0  0  0  0  0  0  0  0  0  0
   -6.9813    0.2083    1.4239 H   0  0  0  0  0  0  0  0  0  0  0  0
   -4.5987    0.1947    2.0442 H   0  0  0  0  0  0  0  0  0  0  0  0
    0.3366   -1.5566    0.0146 H   0  0  0  0  0  0  0  0  0  0  0  0
   -0.0558   -1.1076    1.6833 H   0  0  0  0  0  0  0  0  0  0  0  0
    1.9872    0.2667    1.8549 H   0  0  0  0  0  0  0  0  0  0  0  0
    2.3933   -1.3826    1.3274 H   0  0  0  0  0  0  0  0  0  0  0  0
    4.1390    0.8074   -2.2042 H   0  0  0  0  0  0  0  0  0  0  0  0
    6.5941    1.0416   -2.0781 H   0  0  0  0  0  0  0  0  0  0  0  0
    7.7555    0.5587    0.0844 H   0  0  0  0  0  0  0  0  0  0  0  0
    6.3564   -0.1423    2.0309 H   0  0  0  0  0  0  0  0  0  0  0  0
    2.3581    2.0532   -1.0614 H   0  0  0  0  0  0  0  0  0  0  0  0
    1.5173    0.7383   -1.8987 H   0  0  0  0  0  0  0  0  0  0  0  0
    0.7096    2.1064    0.7237 H   0  0  0  0  0  0  0  0  0  0  0  0
   -0.1149    2.2063   -0.8322 H   0  0  0  0  0  0  0  0  0  0  0  0
  1  2  2  0
  2  3  1  0
  3  4  1  0
  4  5  2  0
  5  6  1  0
  6  7  2  0
  7  8  1  0
  7  9  1  0
  9 10  2  0
  2 11  1  0
 11 12  1  0
 12 13  1  0
 13 14  1  0
 14 15  1  0
 15 16  2  0
 16 17  1  0
 17 18  2  0
 18 19  1  0
 19 20  2  0
 14 21  1  0
 21 22  1  0
 10  4  1  0
 22 11  1  0
 20 15  1  0
  3 23  1  0
  3 24  1  0
  5 25  1  0
  6 26  1  0
  9 27  1  0
 10 28  1  0
 12 29  1  0
 12 30  1  0
 13 31  1  0
 13 32  1  0
 16 33  1  0
 17 34  1  0
 18 35  1  0
 19 36  1  0
 21 37  1  0
 21 38  1  0
 22 39  1  0
 22 40  1  0
M  END
$$$$
