
     RDKit          3D

 50 52  0  0  0  0  0  0  0  0999 V2000
   -3.8547   -2.8323    2.6388 C   0  0  0  0  0  0  0  0  0  0  0  0
   -4.2126   -2.4214    1.3255 O   0  0  0  0  0  0  0  0  0  0  0  0
   -3.6335   -1.2729    0.8519 C   0  0  0  0  0  0  0  0  0  0  0  0
   -2.5296   -0.6466    1.4275 C   0  0  0  0  0  0  0  0  0  0  0  0
   -2.0138    0.5153    0.8437 C   0  0  0  0  0  0  0  0  0  0  0  0
   -0.8464    1.1624    1.4750 C   0  0  0  0  0  0  0  0  0  0  0  0
   -0.9981    1.6293    2.5997 O   0  0  0  0  0  0  0  0  0  0  0  0
    0.3514    1.1922    0.7710 N   0  0  0  0  0  0  0  0  0  0  0  0
    1.5296    1.7972    1.4031 C   0  0  0  0  0  0  0  0  0  0  0  0
    2.7162    0.8174    1.4768 C   0  0  0  0  0  0  0  0  0  0  0  0
    2.9978    0.1640    0.1749 N   0  0  0  0  0  0  0  0  0  0  0  0
    4.3488    0.0960   -0.1990 C   0  0  0  0  0  0  0  0  0  0  0  0
    4.9053   -1.1925   -0.2887 C   0  0  0  0  0  0  0  0  0  0  0  0
    6.2379   -1.3802   -0.6559 C   0  0  0  0  0  0  0  0  0  0  0  0
    6.8826   -2.9723   -0.7530 Cl  0  0  0  0  0  0  0  0  0  0  0  0
    7.0496   -0.2887   -0.9451 C   0  0  0  0  0  0  0  0  0  0  0  0
    6.5213    0.9995   -0.8668 C   0  0  0  0  0  0  0  0  0  0  0  0
    5.1831    1.1951   -0.4987 C   0  0  0  0  0  0  0  0  0  0  0  0
    4.6253    2.8327   -0.4424 Cl  0  0  0  0  0  0  0  0  0  0  0  0
    2.0714    0.4835   -0.9278 C   0  0  0  0  0  0  0  0  0  0  0  0
    0.6128    0.3925   -0.4381 C   0  0  0  0  0  0  0  0  0  0  0  0
   -2.6063    1.0933   -0.2847 C   0  0  0  0  0  0  0  0  0  0  0  0
   -3.7097    0.4770   -0.8718 C   0  0  0  0  0  0  0  0  0  0  0  0
   -4.3564    0.9388   -1.9886 O   0  0  0  0  0  0  0  0  0  0  0  0
   -4.0948    2.2802   -2.3804 C   0  0  0  0  0  0  0  0  0  0  0  0
   -4.1976   -0.7200   -0.3137 C   0  0  0  0  0  0  0  0  0  0  0  0
   -5.3115   -1.3120   -0.8691 O   0  0  0  0  0  0  0  0  0  0  0  0
   -4.9130   -2.2807   -1.8370 C   0  0  0  0  0  0  0  0  0  0  0  0
   -4.0204   -2.0319    3.3678 H   0  0  0  0  0  0  0  0  0  0  0  0
   -2.8191   -3.1861    2.6679 H   0  0  0  0  0  0  0  0  0  0  0  0
   -4.5004   -3.6720    2.9137 H   0  0  0  0  0  0  0  0  0  0  0  0
   -2.0475   -1.0338    2.3192 H   0  0  0  0  0  0  0  0  0  0  0  0
    1.7954    2.6688    0.7941 H   0  0  0  0  0  0  0  0  0  0  0  0
    1.2961    2.1674    2.4063 H   0  0  0  0  0  0  0  0  0  0  0  0
    2.4670    0.0186    2.1863 H   0  0  0  0  0  0  0  0  0  0  0  0
    3.5914    1.3355    1.8859 H   0  0  0  0  0  0  0  0  0  0  0  0
    4.2815   -2.0545   -0.0625 H   0  0  0  0  0  0  0  0  0  0  0  0
    8.0883   -0.4320   -1.2311 H   0  0  0  0  0  0  0  0  0  0  0  0
    7.1579    1.8511   -1.0952 H   0  0  0  0  0  0  0  0  0  0  0  0
    2.2101   -0.2234   -1.7549 H   0  0  0  0  0  0  0  0  0  0  0  0
    2.2563    1.4904   -1.3189 H   0  0  0  0  0  0  0  0  0  0  0  0
    0.3681   -0.6497   -0.1997 H   0  0  0  0  0  0  0  0  0  0  0  0
   -0.0594    0.7241   -1.2348 H   0  0  0  0  0  0  0  0  0  0  0  0
   -2.1878    2.0141   -0.6761 H   0  0  0  0  0  0  0  0  0  0  0  0
   -3.0786    2.3793   -2.7754 H   0  0  0  0  0  0  0  0  0  0  0  0
   -4.2681    2.9795   -1.5555 H   0  0  0  0  0  0  0  0  0  0  0  0
   -4.7906    2.5352   -3.1854 H   0  0  0  0  0  0  0  0  0  0  0  0
   -4.3255   -3.0847   -1.3806 H   0  0  0  0  0  0  0  0  0  0  0  0
   -5.8196   -2.7240   -2.2595 H   0  0  0  0  0  0  0  0  0  0  0  0
   -4.3504   -1.8187   -2.6557 H   0  0  0  0  0  0  0  0  0  0  0  0
  1  2  1  0
  2  3  1  0
  3  4  2  0
  4  5  1  0
  5  6  1  0
  6  7  2  0
  6  8  1  0
  8  9  1  0
  9 10  1  0
 10 11  1  0
 11 12  1  0
 12 13  2  0
 13 14  1  0
 14 15  1  0
 14 16  2  0
 16 17  1  0
 17 18  2  0
 18 19  1  0
 11 20  1  0
 20 21  1  0
  5 22  2  0
 22 23  1  0
 23 24  1  0
 24 25  1  0
 23 26  2  0
 26 27  1  0
 27 28  1  0
 26  3  1  0
 21  8  1  0
 18 12  1  0
  1 29  1  0
  1 30  1  0
  1 31  1  0
  4 32  1  0
  9 33  1  0
  9 34  1  0
 10 35  1  0
 10 36  1  0
 13 37  1  0
 16 38  1  0
 17 39  1  0
 20 40  1  0
 20 41  1  0
 21 42  1  0
 21 43  1  0
 22 44  1  0
 25 45  1  0
 25 46  1  0
 25 47  1  0
 28 48  1  0
 28 49  1  0
 28 50  1  0
M  END
$$$$
