
     RDKit          3D

 38 40  0  0  0  0  0  0  0  0999 V2000
   -2.9804    2.1002    1.7521 C   0  0  0  0  0  0  0  0  0  0  0  0
   -3.5396    1.2384    0.6698 C   0  0  0  0  0  0  0  0  0  0  0  0
   -4.8642    1.1573    0.2849 C   0  0  0  0  0  0  0  0  0  0  0  0
   -4.9721    0.1437   -0.6800 C   0  0  0  0  0  0  0  0  0  0  0  0
   -3.7088   -0.3723   -0.8970 C   0  0  0  0  0  0  0  0  0  0  0  0
   -3.3296   -1.3977   -1.9117 C   0  0  0  0  0  0  0  0  0  0  0  0
   -2.8122    0.2996   -0.0641 N   0  0  0  0  0  0  0  0  0  0  0  0
   -1.4128    0.0677    0.0211 C   0  0  0  0  0  0  0  0  0  0  0  0
   -0.8872   -1.2186    0.0280 C   0  0  0  0  0  0  0  0  0  0  0  0
    0.4967   -1.3891    0.1179 C   0  0  0  0  0  0  0  0  0  0  0  0
    1.3435   -0.2815    0.1869 C   0  0  0  0  0  0  0  0  0  0  0  0
    2.7202   -0.4425    0.3004 N   0  0  0  0  0  0  0  0  0  0  0  0
    3.4939    0.7904    0.5248 C   0  0  0  0  0  0  0  0  0  0  0  0
    4.9823    0.4358    0.6662 C   0  0  0  0  0  0  0  0  0  0  0  0
    5.5426   -0.2088   -0.4902 O   0  0  0  0  0  0  0  0  0  0  0  0
    4.5560   -0.8315   -1.3241 C   0  0  0  0  0  0  0  0  0  0  0  0
    3.3875   -1.4530   -0.5394 C   0  0  0  0  0  0  0  0  0  0  0  0
    0.8276    0.9670    0.1952 N   0  0  0  0  0  0  0  0  0  0  0  0
   -0.5175    1.1200    0.1061 C   0  0  0  0  0  0  0  0  0  0  0  0
   -3.7757    2.4147    2.4373 H   0  0  0  0  0  0  0  0  0  0  0  0
   -2.5333    3.0067    1.3339 H   0  0  0  0  0  0  0  0  0  0  0  0
   -2.2355    1.5689    2.3519 H   0  0  0  0  0  0  0  0  0  0  0  0
   -5.6730    1.7563    0.6851 H   0  0  0  0  0  0  0  0  0  0  0  0
   -5.8754   -0.1701   -1.1884 H   0  0  0  0  0  0  0  0  0  0  0  0
   -4.0976   -1.4651   -2.6905 H   0  0  0  0  0  0  0  0  0  0  0  0
   -2.3900   -1.1467   -2.4128 H   0  0  0  0  0  0  0  0  0  0  0  0
   -3.2452   -2.3864   -1.4514 H   0  0  0  0  0  0  0  0  0  0  0  0
   -1.5237   -2.0973    0.0229 H   0  0  0  0  0  0  0  0  0  0  0  0
    0.9008   -2.3946    0.1711 H   0  0  0  0  0  0  0  0  0  0  0  0
    3.3657    1.4797   -0.3198 H   0  0  0  0  0  0  0  0  0  0  0  0
    3.1607    1.2894    1.4426 H   0  0  0  0  0  0  0  0  0  0  0  0
    5.1322   -0.2374    1.5184 H   0  0  0  0  0  0  0  0  0  0  0  0
    5.5704    1.3395    0.8550 H   0  0  0  0  0  0  0  0  0  0  0  0
    5.0640   -1.6034   -1.9111 H   0  0  0  0  0  0  0  0  0  0  0  0
    4.1867   -0.0783   -2.0303 H   0  0  0  0  0  0  0  0  0  0  0  0
    3.7718   -2.2365    0.1238 H   0  0  0  0  0  0  0  0  0  0  0  0
    2.7065   -1.9217   -1.2588 H   0  0  0  0  0  0  0  0  0  0  0  0
   -0.8354    2.1567    0.0650 H   0  0  0  0  0  0  0  0  0  0  0  0
  1  2  1  0
  2  3  2  0
  3  4  1  0
  4  5  2  0
  5  6  1  0
  5  7  1  0
  7  8  1  0
  8  9  2  0
  9 10  1  0
 10 11  2  0
 11 12  1  0
 12 13  1  0
 13 14  1  0
 14 15  1  0
 15 16  1  0
 16 17  1  0
 11 18  1  0
 18 19  2  0
  7  2  1  0
 19  8  1  0
 17 12  1  0
  1 20  1  0
  1 21  1  0
  1 22  1  0
  3 23  1  0
  4 24  1  0
  6 25  1  0
  6 26  1  0
  6 27  1  0
  9 28  1  0
 10 29  1  0
 13 30  1  0
 13 31  1  0
 14 32  1  0
 14 33  1  0
 16 34  1  0
 16 35  1  0
 17 36  1  0
 17 37  1  0
 19 38  1  0
M  END
$$$$
