
     RDKit          3D

 65 68  0  0  0  0  0  0  0  0999 V2000
    8.2685    1.0832    0.7416 C   0  0  0  0  0  0  0  0  0  0  0  0
    6.8753    1.0454    0.1840 C   0  0  0  0  0  0  0  0  0  0  0  0
    6.1316   -0.1419    0.2236 C   0  0  0  0  0  0  0  0  0  0  0  0
    4.8461   -0.1916   -0.3178 C   0  0  0  0  0  0  0  0  0  0  0  0
    4.3010    0.9566   -0.8966 C   0  0  0  0  0  0  0  0  0  0  0  0
    2.6704    0.9006   -1.5951 S   0  0  0  0  0  6  0  0  0  0  0  0
    2.6138    1.9166   -2.6327 O   0  0  0  0  0  0  0  0  0  0  0  0
    2.3788   -0.4818   -1.9304 O   0  0  0  0  0  0  0  0  0  0  0  0
    1.5920    1.4094   -0.2921 C   0  0  0  0  0  0  0  0  0  0  0  0
    1.5832    0.5422    0.8510 N   0  0  0  0  0  0  0  0  0  0  0  0
    2.3754    0.8191    1.9011 N   0  0  0  0  0  0  0  0  0  0  0  0
    2.1061   -0.1153    2.7980 N   0  0  0  0  0  0  0  0  0  0  0  0
    1.1339   -0.9652    2.3413 N   0  0  0  0  0  0  0  0  0  0  0  0
    0.8107   -0.5556    1.1281 C   0  0  0  0  0  0  0  0  0  0  0  0
   -0.2394   -1.1271    0.2090 C   0  0  0  0  0  0  0  0  0  0  0  0
   -0.6711   -2.5520    0.6491 C   0  0  0  0  0  0  0  0  0  0  0  0
    0.4232   -3.6383    0.5151 C   0  0  0  0  0  0  0  0  0  0  0  0
   -0.0653   -4.9398    1.1594 C   0  0  0  0  0  0  0  0  0  0  0  0
    0.8044   -3.9042   -0.9424 C   0  0  0  0  0  0  0  0  0  0  0  0
   -1.3401   -0.1422    0.0756 N   0  0  0  0  0  0  0  0  0  0  0  0
   -2.2351   -0.0741    1.2561 C   0  0  0  0  0  0  0  0  0  0  0  0
   -3.3032    1.0355    1.1088 C   0  0  0  0  0  0  0  0  0  0  0  0
   -4.0986    0.8290   -0.1191 N   0  0  0  0  0  0  0  0  0  0  0  0
   -5.2405    1.6275   -0.3046 C   0  0  0  0  0  0  0  0  0  0  0  0
   -5.5111    2.7823    0.4449 C   0  0  0  0  0  0  0  0  0  0  0  0
   -6.6682    3.5420    0.2297 C   0  0  0  0  0  0  0  0  0  0  0  0
   -7.5903    3.1554   -0.7366 C   0  0  0  0  0  0  0  0  0  0  0  0
   -7.3574    2.0065   -1.4829 C   0  0  0  0  0  0  0  0  0  0  0  0
   -6.1987    1.2539   -1.2637 C   0  0  0  0  0  0  0  0  0  0  0  0
   -3.2538    0.7082   -1.3301 C   0  0  0  0  0  0  0  0  0  0  0  0
   -2.1650   -0.3756   -1.1323 C   0  0  0  0  0  0  0  0  0  0  0  0
    5.0426    2.1377   -0.9757 C   0  0  0  0  0  0  0  0  0  0  0  0
    6.3286    2.1778   -0.4345 C   0  0  0  0  0  0  0  0  0  0  0  0
    8.3579    0.4232    1.6113 H   0  0  0  0  0  0  0  0  0  0  0  0
    8.5302    2.0937    1.0735 H   0  0  0  0  0  0  0  0  0  0  0  0
    8.9856    0.7649   -0.0214 H   0  0  0  0  0  0  0  0  0  0  0  0
    6.5511   -1.0369    0.6797 H   0  0  0  0  0  0  0  0  0  0  0  0
    4.2869   -1.1238   -0.2758 H   0  0  0  0  0  0  0  0  0  0  0  0
    0.5846    1.4756   -0.7075 H   0  0  0  0  0  0  0  0  0  0  0  0
    1.8859    2.4153    0.0244 H   0  0  0  0  0  0  0  0  0  0  0  0
    0.2269   -1.2101   -0.7771 H   0  0  0  0  0  0  0  0  0  0  0  0
   -1.0035   -2.5270    1.6957 H   0  0  0  0  0  0  0  0  0  0  0  0
   -1.5373   -2.8769    0.0601 H   0  0  0  0  0  0  0  0  0  0  0  0
    1.3252   -3.3245    1.0525 H   0  0  0  0  0  0  0  0  0  0  0  0
    0.7045   -5.7165    1.1003 H   0  0  0  0  0  0  0  0  0  0  0  0
   -0.3002   -4.7859    2.2178 H   0  0  0  0  0  0  0  0  0  0  0  0
   -0.9661   -5.3166    0.6629 H   0  0  0  0  0  0  0  0  0  0  0  0
    1.2912   -3.0363   -1.3943 H   0  0  0  0  0  0  0  0  0  0  0  0
   -0.0759   -4.1536   -1.5445 H   0  0  0  0  0  0  0  0  0  0  0  0
    1.5093   -4.7396   -1.0133 H   0  0  0  0  0  0  0  0  0  0  0  0
   -1.6544    0.1387    2.1608 H   0  0  0  0  0  0  0  0  0  0  0  0
   -2.7513   -1.0304    1.4086 H   0  0  0  0  0  0  0  0  0  0  0  0
   -2.8022    2.0122    1.0822 H   0  0  0  0  0  0  0  0  0  0  0  0
   -3.9519    0.9998    1.9927 H   0  0  0  0  0  0  0  0  0  0  0  0
   -4.8214    3.1314    1.2067 H   0  0  0  0  0  0  0  0  0  0  0  0
   -6.8447    4.4354    0.8228 H   0  0  0  0  0  0  0  0  0  0  0  0
   -8.4899    3.7414   -0.9010 H   0  0  0  0  0  0  0  0  0  0  0  0
   -8.0782    1.6846   -2.2297 H   0  0  0  0  0  0  0  0  0  0  0  0
   -6.0626    0.3405   -1.8372 H   0  0  0  0  0  0  0  0  0  0  0  0
   -3.8410    0.4277   -2.2116 H   0  0  0  0  0  0  0  0  0  0  0  0
   -2.7752    1.6734   -1.5435 H   0  0  0  0  0  0  0  0  0  0  0  0
   -2.6548   -1.3557   -1.0852 H   0  0  0  0  0  0  0  0  0  0  0  0
   -1.5231   -0.3707   -2.0215 H   0  0  0  0  0  0  0  0  0  0  0  0
    4.6403    3.0247   -1.4600 H   0  0  0  0  0  0  0  0  0  0  0  0
    6.9061    3.0982   -0.4997 H   0  0  0  0  0  0  0  0  0  0  0  0
  1  2  1  0
  2  3  2  0
  3  4  1  0
  4  5  2  0
  5  6  1  0
  6  7  2  0
  6  8  2  0
  6  9  1  0
  9 10  1  0
 10 11  1  0
 11 12  2  0
 12 13  1  0
 13 14  2  0
 14 15  1  0
 15 16  1  0
 16 17  1  0
 17 18  1  0
 17 19  1  0
 15 20  1  0
 20 21  1  0
 21 22  1  0
 22 23  1  0
 23 24  1  0
 24 25  2  0
 25 26  1  0
 26 27  2  0
 27 28  1  0
 28 29  2  0
 23 30  1  0
 30 31  1  0
  5 32  1  0
 32 33  2  0
 33  2  1  0
 14 10  1  0
 31 20  1  0
 29 24  1  0
  1 34  1  0
  1 35  1  0
  1 36  1  0
  3 37  1  0
  4 38  1  0
  9 39  1  0
  9 40  1  0
 15 41  1  0
 16 42  1  0
 16 43  1  0
 17 44  1  0
 18 45  1  0
 18 46  1  0
 18 47  1  0
 19 48  1  0
 19 49  1  0
 19 50  1  0
 21 51  1  0
 21 52  1  0
 22 53  1  0
 22 54  1  0
 25 55  1  0
 26 56  1  0
 27 57  1  0
 28 58  1  0
 29 59  1  0
 30 60  1  0
 30 61  1  0
 31 62  1  0
 31 63  1  0
 32 64  1  0
 33 65  1  0
M  END
$$$$
