
     RDKit          3D

 46 49  0  0  0  0  0  0  0  0999 V2000
    6.3618   -0.9727    0.4202 N   0  0  0  0  0  0  0  0  0  0  0  0
    5.7473   -0.5252    1.9243 S   0  0  0  0  0  6  0  0  0  0  0  0
    5.9070   -1.6456    2.8203 O   0  0  0  0  0  0  0  0  0  0  0  0
    6.3069    0.7779    2.2010 O   0  0  0  0  0  0  0  0  0  0  0  0
    4.0254   -0.3378    1.5566 C   0  0  0  0  0  0  0  0  0  0  0  0
    3.5205    0.9094    1.2012 C   0  0  0  0  0  0  0  0  0  0  0  0
    2.1595    1.0358    0.9039 C   0  0  0  0  0  0  0  0  0  0  0  0
    1.2753   -0.0589    0.9613 C   0  0  0  0  0  0  0  0  0  0  0  0
   -0.0734    0.1012    0.6498 N   0  0  0  0  0  0  0  0  0  0  0  0
   -0.5705    1.3242    0.2997 N   0  0  0  0  0  0  0  0  0  0  0  0
   -1.8627    1.2104    0.2334 C   0  0  0  0  0  0  0  0  0  0  0  0
   -2.7569    2.3306   -0.1421 C   0  0  0  0  0  0  0  0  0  0  0  0
   -4.1497    2.1987   -0.1079 C   0  0  0  0  0  0  0  0  0  0  0  0
   -4.9632    3.2759   -0.4702 C   0  0  0  0  0  0  0  0  0  0  0  0
   -4.3913    4.4845   -0.8654 C   0  0  0  0  0  0  0  0  0  0  0  0
   -3.0048    4.6215   -0.8990 C   0  0  0  0  0  0  0  0  0  0  0  0
   -2.1887    3.5480   -0.5379 C   0  0  0  0  0  0  0  0  0  0  0  0
   -2.4011   -0.1453    0.6001 C   0  0  0  0  0  0  0  0  0  0  0  0
   -1.0990   -0.9433    0.6896 C   0  0  0  0  0  0  0  0  0  0  0  0
   -0.9877   -1.9389   -0.4569 C   0  0  0  0  0  0  0  0  0  0  0  0
   -1.3483   -3.2808   -0.2449 C   0  0  0  0  0  0  0  0  0  0  0  0
   -1.2750   -4.2126   -1.2828 C   0  0  0  0  0  0  0  0  0  0  0  0
   -0.8461   -3.8166   -2.5486 C   0  0  0  0  0  0  0  0  0  0  0  0
   -0.4938   -2.4879   -2.7721 C   0  0  0  0  0  0  0  0  0  0  0  0
    0.0861   -1.9484   -4.4887 Br  0  0  0  0  0  0  0  0  0  0  0  0
   -0.5660   -1.5518   -1.7409 C   0  0  0  0  0  0  0  0  0  0  0  0
    1.8199   -1.2969    1.3429 C   0  0  0  0  0  0  0  0  0  0  0  0
    3.1803   -1.4427    1.6411 C   0  0  0  0  0  0  0  0  0  0  0  0
    6.9929   -0.2389    0.0938 H   0  0  0  0  0  0  0  0  0  0  0  0
    5.6327   -1.1754   -0.2635 H   0  0  0  0  0  0  0  0  0  0  0  0
    4.1630    1.7853    1.1517 H   0  0  0  0  0  0  0  0  0  0  0  0
    1.7785    2.0164    0.6231 H   0  0  0  0  0  0  0  0  0  0  0  0
   -4.6264    1.2732    0.1995 H   0  0  0  0  0  0  0  0  0  0  0  0
   -6.0455    3.1732   -0.4432 H   0  0  0  0  0  0  0  0  0  0  0  0
   -5.0263    5.3212   -1.1465 H   0  0  0  0  0  0  0  0  0  0  0  0
   -2.5570    5.5635   -1.2056 H   0  0  0  0  0  0  0  0  0  0  0  0
   -1.1075    3.6680   -0.5681 H   0  0  0  0  0  0  0  0  0  0  0  0
   -2.8869   -0.0760    1.5794 H   0  0  0  0  0  0  0  0  0  0  0  0
   -3.1086   -0.5238   -0.1426 H   0  0  0  0  0  0  0  0  0  0  0  0
   -1.0653   -1.4741    1.6496 H   0  0  0  0  0  0  0  0  0  0  0  0
   -1.6878   -3.6131    0.7346 H   0  0  0  0  0  0  0  0  0  0  0  0
   -1.5522   -5.2489   -1.1046 H   0  0  0  0  0  0  0  0  0  0  0  0
   -0.7904   -4.5477   -3.3507 H   0  0  0  0  0  0  0  0  0  0  0  0
   -0.2844   -0.5170   -1.9304 H   0  0  0  0  0  0  0  0  0  0  0  0
    1.1944   -2.1818    1.4142 H   0  0  0  0  0  0  0  0  0  0  0  0
    3.5652   -2.4169    1.9361 H   0  0  0  0  0  0  0  0  0  0  0  0
  1  2  1  0
  2  3  2  0
  2  4  2  0
  2  5  1  0
  5  6  2  0
  6  7  1  0
  7  8  2  0
  8  9  1  0
  9 10  1  0
 10 11  2  0
 11 12  1  0
 12 13  2  0
 13 14  1  0
 14 15  2  0
 15 16  1  0
 16 17  2  0
 11 18  1  0
 18 19  1  0
 19 20  1  0
 20 21  2  0
 21 22  1  0
 22 23  2  0
 23 24  1  0
 24 25  1  0
 24 26  2  0
  8 27  1  0
 27 28  2  0
 28  5  1  0
 19  9  1  0
 26 20  1  0
 17 12  1  0
  1 29  1  0
  1 30  1  0
  6 31  1  0
  7 32  1  0
 13 33  1  0
 14 34  1  0
 15 35  1  0
 16 36  1  0
 17 37  1  0
 18 38  1  0
 18 39  1  0
 19 40  1  0
 21 41  1  0
 22 42  1  0
 23 43  1  0
 26 44  1  0
 27 45  1  0
 28 46  1  0
M  END
$$$$
