
     RDKit          3D

 39 41  0  0  0  0  0  0  0  0999 V2000
    4.2801   -1.3889    1.1584 C   0  0  0  0  0  0  0  0  0  0  0  0
    3.8554   -2.2086   -0.0483 C   0  0  0  0  0  0  0  0  0  0  0  0
    2.2716   -3.0675    0.2394 S   0  0  0  0  0  0  0  0  0  0  0  0
    1.0925   -1.7369    0.0373 C   0  0  0  0  0  0  0  0  0  0  0  0
   -0.2236   -1.9731    0.3737 C   0  0  0  0  0  0  0  0  0  0  0  0
   -1.1208   -0.9392    0.2083 C   0  0  0  0  0  0  0  0  0  0  0  0
   -2.4547   -1.0824    0.5064 N   0  0  0  0  0  0  0  0  0  0  0  0
   -2.9914   -2.0903    1.4129 C   0  0  0  0  0  0  0  0  0  0  0  0
   -4.2929   -1.4749    1.9286 C   0  0  0  0  0  0  0  0  0  0  0  0
   -4.7000   -0.5179    0.8196 C   0  0  0  0  0  0  0  0  0  0  0  0
   -3.3607    0.0508    0.3610 C   0  0  0  0  0  0  0  0  0  0  0  0
   -0.7071    0.2402   -0.2857 N   0  0  0  0  0  0  0  0  0  0  0  0
    0.5934    0.3891   -0.5956 C   0  0  0  0  0  0  0  0  0  0  0  0
    1.0283    1.6975   -1.1294 C   0  0  0  0  0  0  0  0  0  0  0  0
    2.3757    1.9474   -1.4608 C   0  0  0  0  0  0  0  0  0  0  0  0
    2.7897    3.1861   -1.9652 C   0  0  0  0  0  0  0  0  0  0  0  0
    1.8591    4.2032   -2.1488 C   0  0  0  0  0  0  0  0  0  0  0  0
    2.3642    5.7262   -2.7679 Cl  0  0  0  0  0  0  0  0  0  0  0  0
    0.5212    3.9921   -1.8331 C   0  0  0  0  0  0  0  0  0  0  0  0
    0.1134    2.7514   -1.3290 C   0  0  0  0  0  0  0  0  0  0  0  0
    1.5224   -0.5659   -0.4488 N   0  0  0  0  0  0  0  0  0  0  0  0
    5.2539   -0.9259    0.9668 H   0  0  0  0  0  0  0  0  0  0  0  0
    3.5730   -0.5842    1.3815 H   0  0  0  0  0  0  0  0  0  0  0  0
    4.3835   -2.0158    2.0506 H   0  0  0  0  0  0  0  0  0  0  0  0
    4.6100   -2.9807   -0.2328 H   0  0  0  0  0  0  0  0  0  0  0  0
    3.8087   -1.5925   -0.9515 H   0  0  0  0  0  0  0  0  0  0  0  0
   -0.5343   -2.9412    0.7410 H   0  0  0  0  0  0  0  0  0  0  0  0
   -3.1924   -3.0150    0.8609 H   0  0  0  0  0  0  0  0  0  0  0  0
   -2.3248   -2.3120    2.2537 H   0  0  0  0  0  0  0  0  0  0  0  0
   -5.0557   -2.2288    2.1426 H   0  0  0  0  0  0  0  0  0  0  0  0
   -4.1001   -0.9139    2.8512 H   0  0  0  0  0  0  0  0  0  0  0  0
   -5.1759   -1.0730    0.0022 H   0  0  0  0  0  0  0  0  0  0  0  0
   -5.3915    0.2581    1.1590 H   0  0  0  0  0  0  0  0  0  0  0  0
   -3.4209    0.4086   -0.6724 H   0  0  0  0  0  0  0  0  0  0  0  0
   -3.0571    0.8774    1.0150 H   0  0  0  0  0  0  0  0  0  0  0  0
    3.1226    1.1662   -1.3262 H   0  0  0  0  0  0  0  0  0  0  0  0
    3.8364    3.3443   -2.2104 H   0  0  0  0  0  0  0  0  0  0  0  0
   -0.2114    4.7820   -1.9747 H   0  0  0  0  0  0  0  0  0  0  0  0
   -0.9398    2.6081   -1.0895 H   0  0  0  0  0  0  0  0  0  0  0  0
  1  2  1  0
  2  3  1  0
  3  4  1  0
  4  5  2  0
  5  6  1  0
  6  7  1  0
  7  8  1  0
  8  9  1  0
  9 10  1  0
 10 11  1  0
  6 12  2  0
 12 13  1  0
 13 14  1  0
 14 15  2  0
 15 16  1  0
 16 17  2  0
 17 18  1  0
 17 19  1  0
 19 20  2  0
 13 21  2  0
 21  4  1  0
 11  7  1  0
 20 14  1  0
  1 22  1  0
  1 23  1  0
  1 24  1  0
  2 25  1  0
  2 26  1  0
  5 27  1  0
  8 28  1  0
  8 29  1  0
  9 30  1  0
  9 31  1  0
 10 32  1  0
 10 33  1  0
 11 34  1  0
 11 35  1  0
 15 36  1  0
 16 37  1  0
 19 38  1  0
 20 39  1  0
M  END
$$$$
