
     RDKit          3D

 37 40  0  0  0  0  0  0  0  0999 V2000
    6.2915    1.8029    2.1755 C   0  0  0  0  0  0  0  0  0  0  0  0
    5.3108    1.4060    1.1091 C   0  0  0  0  0  0  0  0  0  0  0  0
    5.5389    1.7849   -0.2164 C   0  0  0  0  0  0  0  0  0  0  0  0
    4.6360    1.4424   -1.2285 C   0  0  0  0  0  0  0  0  0  0  0  0
    3.4788    0.7057   -0.9125 C   0  0  0  0  0  0  0  0  0  0  0  0
    2.5006    0.3016   -1.8070 N   0  0  0  0  0  0  0  0  0  0  0  0
    1.5816   -0.3869   -1.1699 C   0  0  0  0  0  0  0  0  0  0  0  0
    0.5180   -0.9175   -1.8545 N   0  0  0  0  0  0  0  0  0  0  0  0
   -0.4759   -1.7442   -1.3540 C   0  0  0  0  0  0  0  0  0  0  0  0
   -0.5710   -2.1426   -0.1968 O   0  0  0  0  0  0  0  0  0  0  0  0
   -1.4434   -2.1516   -2.4637 C   0  0  0  0  0  0  0  0  0  0  0  0
   -2.8104   -3.1867   -1.8822 S   0  0  0  0  0  0  0  0  0  0  0  0
   -3.6461   -2.0442   -0.8665 C   0  0  0  0  0  0  0  0  0  0  0  0
   -3.5855   -0.7334   -1.0353 N   0  0  0  0  0  0  0  0  0  0  0  0
   -4.3939   -0.2422   -0.0376 C   0  0  0  0  0  0  0  0  0  0  0  0
   -4.7331    1.0711    0.3166 C   0  0  0  0  0  0  0  0  0  0  0  0
   -5.6027    1.2603    1.4066 C   0  0  0  0  0  0  0  0  0  0  0  0
   -6.1192    0.1681    2.1221 C   0  0  0  0  0  0  0  0  0  0  0  0
   -5.7909   -1.1494    1.7785 C   0  0  0  0  0  0  0  0  0  0  0  0
   -4.9287   -1.2919    0.6952 C   0  0  0  0  0  0  0  0  0  0  0  0
   -4.4604   -2.4533    0.1607 O   0  0  0  0  0  0  0  0  0  0  0  0
    1.7918   -0.5570    0.5071 S   0  0  0  0  0  0  0  0  0  0  0  0
    3.2628    0.3322    0.4154 C   0  0  0  0  0  0  0  0  0  0  0  0
    4.1604    0.6734    1.4414 C   0  0  0  0  0  0  0  0  0  0  0  0
    6.2804    2.8902    2.3085 H   0  0  0  0  0  0  0  0  0  0  0  0
    6.0502    1.3394    3.1378 H   0  0  0  0  0  0  0  0  0  0  0  0
    7.3026    1.4846    1.8983 H   0  0  0  0  0  0  0  0  0  0  0  0
    6.4245    2.3659   -0.4755 H   0  0  0  0  0  0  0  0  0  0  0  0
    4.8183    1.7432   -2.2566 H   0  0  0  0  0  0  0  0  0  0  0  0
    0.5381   -0.6873   -2.8388 H   0  0  0  0  0  0  0  0  0  0  0  0
   -1.8324   -1.2541   -2.9614 H   0  0  0  0  0  0  0  0  0  0  0  0
   -0.8787   -2.7340   -3.2041 H   0  0  0  0  0  0  0  0  0  0  0  0
   -4.3307    1.9145   -0.2378 H   0  0  0  0  0  0  0  0  0  0  0  0
   -5.8775    2.2716    1.7021 H   0  0  0  0  0  0  0  0  0  0  0  0
   -6.7876    0.3474    2.9651 H   0  0  0  0  0  0  0  0  0  0  0  0
   -6.1757   -2.0036    2.3225 H   0  0  0  0  0  0  0  0  0  0  0  0
    3.9583    0.3744    2.4675 H   0  0  0  0  0  0  0  0  0  0  0  0
  1  2  1  0
  2  3  2  0
  3  4  1  0
  4  5  2  0
  5  6  1  0
  6  7  2  0
  7  8  1  0
  8  9  1  0
  9 10  2  0
  9 11  1  0
 11 12  1  0
 12 13  1  0
 13 14  2  0
 14 15  1  0
 15 16  2  0
 16 17  1  0
 17 18  2  0
 18 19  1  0
 19 20  2  0
 20 21  1  0
  7 22  1  0
 22 23  1  0
 23 24  2  0
 24  2  1  0
 23  5  1  0
 21 13  1  0
 20 15  1  0
  1 25  1  0
  1 26  1  0
  1 27  1  0
  3 28  1  0
  4 29  1  0
  8 30  1  0
 11 31  1  0
 11 32  1  0
 16 33  1  0
 17 34  1  0
 18 35  1  0
 19 36  1  0
 24 37  1  0
M  END
$$$$
