
     RDKit          3D

 41 43  0  0  0  0  0  0  0  0999 V2000
   -2.9612    0.3497    1.5328 C   0  0  0  0  0  0  0  0  0  0  0  0
   -2.5317   -0.0827    0.1537 C   0  0  0  0  0  0  0  0  0  0  0  0
   -3.4126   -0.2435   -0.8587 C   0  0  0  0  0  0  0  0  0  0  0  0
   -4.8605   -0.0336   -0.7724 C   0  0  0  0  0  0  0  0  0  0  0  0
   -5.4059    1.2233   -1.0537 C   0  0  0  0  0  0  0  0  0  0  0  0
   -6.7849    1.4237   -0.9684 C   0  0  0  0  0  0  0  0  0  0  0  0
   -7.6220    0.3701   -0.6022 C   0  0  0  0  0  0  0  0  0  0  0  0
   -7.0824   -0.8847   -0.3207 C   0  0  0  0  0  0  0  0  0  0  0  0
   -5.7038   -1.0874   -0.4053 C   0  0  0  0  0  0  0  0  0  0  0  0
   -1.1143   -0.3395   -0.1306 C   0  0  0  0  0  0  0  0  0  0  0  0
   -0.0098   -0.2876    0.6315 C   0  0  0  0  0  0  0  0  0  0  0  0
    0.1771    0.1079    2.2981 S   0  0  0  0  0  0  0  0  0  0  0  0
    1.9237   -0.1060    2.2778 C   0  0  0  0  0  0  0  0  0  0  0  0
    2.8863    0.0603    3.6297 S   0  0  0  0  0  0  0  0  0  0  0  0
    2.3018   -0.4627    1.0021 N   0  0  0  0  0  0  0  0  0  0  0  0
    3.6426   -0.6355    0.6295 N   0  0  0  0  0  0  0  0  0  0  0  0
    4.3086    0.4741    0.1452 C   0  0  0  0  0  0  0  0  0  0  0  0
    3.8901    1.6218    0.2568 O   0  0  0  0  0  0  0  0  0  0  0  0
    5.6109    0.2193   -0.5150 C   0  0  0  0  0  0  0  0  0  0  0  0
    5.8303   -0.9110   -1.3026 C   0  0  0  0  0  0  0  0  0  0  0  0
    7.0777   -1.0560   -1.8832 C   0  0  0  0  0  0  0  0  0  0  0  0
    8.0842   -0.1698   -1.7292 N   0  0  0  0  0  0  0  0  0  0  0  0
    7.8338    0.9256   -0.9800 C   0  0  0  0  0  0  0  0  0  0  0  0
    6.6226    1.1669   -0.3612 C   0  0  0  0  0  0  0  0  0  0  0  0
    1.3227   -0.6166    0.0375 C   0  0  0  0  0  0  0  0  0  0  0  0
    1.5016   -1.0051   -1.1106 O   0  0  0  0  0  0  0  0  0  0  0  0
   -2.7208   -0.4214    2.2717 H   0  0  0  0  0  0  0  0  0  0  0  0
   -4.0378    0.5250    1.6172 H   0  0  0  0  0  0  0  0  0  0  0  0
   -2.4791    1.2927    1.8099 H   0  0  0  0  0  0  0  0  0  0  0  0
   -3.0869   -0.5529   -1.8504 H   0  0  0  0  0  0  0  0  0  0  0  0
   -4.7612    2.0518   -1.3374 H   0  0  0  0  0  0  0  0  0  0  0  0
   -7.2054    2.4019   -1.1867 H   0  0  0  0  0  0  0  0  0  0  0  0
   -8.6955    0.5273   -0.5356 H   0  0  0  0  0  0  0  0  0  0  0  0
   -7.7351   -1.7053   -0.0345 H   0  0  0  0  0  0  0  0  0  0  0  0
   -5.2924   -2.0686   -0.1815 H   0  0  0  0  0  0  0  0  0  0  0  0
   -0.9411   -0.6261   -1.1728 H   0  0  0  0  0  0  0  0  0  0  0  0
    3.9332   -1.5834    0.4264 H   0  0  0  0  0  0  0  0  0  0  0  0
    5.0582   -1.6445   -1.5007 H   0  0  0  0  0  0  0  0  0  0  0  0
    7.3085   -1.9101   -2.5145 H   0  0  0  0  0  0  0  0  0  0  0  0
    8.6597    1.6260   -0.8902 H   0  0  0  0  0  0  0  0  0  0  0  0
    6.4709    2.0665    0.2267 H   0  0  0  0  0  0  0  0  0  0  0  0
  1  2  1  0
  2  3  2  3
  3  4  1  0
  4  5  2  0
  5  6  1  0
  6  7  2  0
  7  8  1  0
  8  9  2  0
  2 10  1  0
 10 11  2  3
 11 12  1  0
 12 13  1  0
 13 14  2  0
 13 15  1  0
 15 16  1  0
 16 17  1  0
 17 18  2  0
 17 19  1  0
 19 20  2  0
 20 21  1  0
 21 22  2  0
 22 23  1  0
 23 24  2  0
 15 25  1  0
 25 26  2  0
  9  4  1  0
 25 11  1  0
 24 19  1  0
  1 27  1  0
  1 28  1  0
  1 29  1  0
  3 30  1  0
  5 31  1  0
  6 32  1  0
  7 33  1  0
  8 34  1  0
  9 35  1  0
 10 36  1  0
 16 37  1  0
 20 38  1  0
 21 39  1  0
 23 40  1  0
 24 41  1  0
M  END
$$$$
