
     RDKit          3D

 59 62  0  0  0  0  0  0  0  0999 V2000
    0.2785   -1.0275    2.6957 O   0  0  0  0  0  0  0  0  0  0  0  0
    0.4696   -0.1894    1.8128 C   0  0  0  0  0  0  0  0  0  0  0  0
   -0.5546    0.9379    1.6048 C   0  0  0  0  0  0  0  0  0  0  0  0
   -1.4473    0.6748    0.4516 N   0  0  0  0  0  0  0  0  0  0  0  0
   -2.4252    1.7788    0.2916 C   0  0  0  0  0  0  0  0  0  0  0  0
   -3.4944    1.9032    1.4095 C   0  0  0  0  0  0  0  0  0  0  0  0
   -4.1681    0.6246    1.7062 N   0  0  0  0  0  0  0  0  0  0  0  0
   -5.3614    0.4246    1.0023 C   0  0  0  0  0  0  0  0  0  0  0  0
   -5.3845   -0.5235    0.0365 N   0  0  0  0  0  0  0  0  0  0  0  0
   -6.5452   -0.7693   -0.6174 C   0  0  0  0  0  0  0  0  0  0  0  0
   -7.7327   -0.1090   -0.3657 C   0  0  0  0  0  0  0  0  0  0  0  0
   -8.9850   -0.4760   -1.1005 C   0  0  0  0  0  0  0  0  0  0  0  0
   -9.7353    0.6122   -1.4297 F   0  0  0  0  0  0  0  0  0  0  0  0
   -8.7548   -1.1376   -2.2730 F   0  0  0  0  0  0  0  0  0  0  0  0
   -9.7991   -1.2877   -0.3634 F   0  0  0  0  0  0  0  0  0  0  0  0
   -7.7160    0.8678    0.6295 C   0  0  0  0  0  0  0  0  0  0  0  0
   -6.5322    1.1390    1.3212 C   0  0  0  0  0  0  0  0  0  0  0  0
   -6.6071    2.3014    2.6035 Cl  0  0  0  0  0  0  0  0  0  0  0  0
   -3.2687   -0.5468    1.7704 C   0  0  0  0  0  0  0  0  0  0  0  0
   -2.2347   -0.5749    0.6209 C   0  0  0  0  0  0  0  0  0  0  0  0
    1.5863   -0.2245    0.9974 N   0  0  0  0  0  0  0  0  0  0  0  0
    1.9171    0.8089    0.0089 C   0  0  0  0  0  0  0  0  0  0  0  0
    3.2291    0.5234   -0.7528 C   0  0  0  0  0  0  0  0  0  0  0  0
    4.3481    0.2782    0.1905 N   0  0  0  0  0  0  0  0  0  0  0  0
    5.4837   -0.1753   -0.5129 C   0  0  0  0  0  0  0  0  0  0  0  0
    5.6801   -1.5134   -0.6312 N   0  0  0  0  0  0  0  0  0  0  0  0
    6.7897   -1.9480   -1.2750 C   0  0  0  0  0  0  0  0  0  0  0  0
    7.7414   -1.1142   -1.8357 C   0  0  0  0  0  0  0  0  0  0  0  0
    8.9600   -1.6971   -2.4830 C   0  0  0  0  0  0  0  0  0  0  0  0
    9.8161   -2.2389   -1.5731 F   0  0  0  0  0  0  0  0  0  0  0  0
    9.6894   -0.7848   -3.1867 F   0  0  0  0  0  0  0  0  0  0  0  0
    8.6627   -2.6966   -3.3620 F   0  0  0  0  0  0  0  0  0  0  0  0
    7.5266    0.2596   -1.7326 C   0  0  0  0  0  0  0  0  0  0  0  0
    6.3924    0.7375   -1.0741 C   0  0  0  0  0  0  0  0  0  0  0  0
    6.1975    2.4499   -0.9450 Cl  0  0  0  0  0  0  0  0  0  0  0  0
    4.0032   -0.5752    1.3623 C   0  0  0  0  0  0  0  0  0  0  0  0
    2.6226   -1.2363    1.2281 C   0  0  0  0  0  0  0  0  0  0  0  0
   -1.1049    1.0513    2.5477 H   0  0  0  0  0  0  0  0  0  0  0  0
   -0.0171    1.8817    1.4614 H   0  0  0  0  0  0  0  0  0  0  0  0
   -1.8897    2.7349    0.1980 H   0  0  0  0  0  0  0  0  0  0  0  0
   -2.9389    1.6358   -0.6674 H   0  0  0  0  0  0  0  0  0  0  0  0
   -3.0164    2.2502    2.3313 H   0  0  0  0  0  0  0  0  0  0  0  0
   -4.2010    2.6912    1.1244 H   0  0  0  0  0  0  0  0  0  0  0  0
   -6.4807   -1.5519   -1.3739 H   0  0  0  0  0  0  0  0  0  0  0  0
   -8.6287    1.3976    0.8841 H   0  0  0  0  0  0  0  0  0  0  0  0
   -3.8314   -1.4903    1.7910 H   0  0  0  0  0  0  0  0  0  0  0  0
   -2.7428   -0.5076    2.7311 H   0  0  0  0  0  0  0  0  0  0  0  0
   -1.5691   -1.4357    0.7433 H   0  0  0  0  0  0  0  0  0  0  0  0
   -2.7533   -0.7603   -0.3270 H   0  0  0  0  0  0  0  0  0  0  0  0
    2.0104    1.7584    0.5473 H   0  0  0  0  0  0  0  0  0  0  0  0
    1.0883    0.8991   -0.6972 H   0  0  0  0  0  0  0  0  0  0  0  0
    3.4541    1.3830   -1.3955 H   0  0  0  0  0  0  0  0  0  0  0  0
    3.0797   -0.3492   -1.4074 H   0  0  0  0  0  0  0  0  0  0  0  0
    6.8927   -3.0277   -1.3199 H   0  0  0  0  0  0  0  0  0  0  0  0
    8.2477    0.9595   -2.1517 H   0  0  0  0  0  0  0  0  0  0  0  0
    3.9855    0.0935    2.2369 H   0  0  0  0  0  0  0  0  0  0  0  0
    4.7585   -1.3371    1.5902 H   0  0  0  0  0  0  0  0  0  0  0  0
    2.6038   -1.9230    0.3708 H   0  0  0  0  0  0  0  0  0  0  0  0
    2.4053   -1.8290    2.1245 H   0  0  0  0  0  0  0  0  0  0  0  0
  1  2  2  0
  2  3  1  0
  3  4  1  0
  4  5  1  0
  5  6  1  0
  6  7  1  0
  7  8  1  0
  8  9  2  0
  9 10  1  0
 10 11  2  0
 11 12  1  0
 12 13  1  0
 12 14  1  0
 12 15  1  0
 11 16  1  0
 16 17  2  0
 17 18  1  0
  7 19  1  0
 19 20  1  0
  2 21  1  0
 21 22  1  0
 22 23  1  0
 23 24  1  0
 24 25  1  0
 25 26  2  0
 26 27  1  0
 27 28  2  0
 28 29  1  0
 29 30  1  0
 29 31  1  0
 29 32  1  0
 28 33  1  0
 33 34  2  0
 34 35  1  0
 24 36  1  0
 36 37  1  0
 20  4  1  0
 37 21  1  0
 17  8  1  0
 34 25  1  0
  3 38  1  0
  3 39  1  0
  5 40  1  0
  5 41  1  0
  6 42  1  0
  6 43  1  0
 10 44  1  0
 16 45  1  0
 19 46  1  0
 19 47  1  0
 20 48  1  0
 20 49  1  0
 22 50  1  0
 22 51  1  0
 23 52  1  0
 23 53  1  0
 27 54  1  0
 33 55  1  0
 36 56  1  0
 36 57  1  0
 37 58  1  0
 37 59  1  0
M  END
$$$$
