
     RDKit          3D

 39 41  0  0  0  0  0  0  0  0999 V2000
    0.2901   -1.8701   -0.7387 O   0  0  0  0  0  0  0  0  0  0  0  0
    0.0698   -0.7938   -0.1905 C   0  0  0  0  0  0  0  0  0  0  0  0
    1.0707   -0.0082    0.3350 N   0  0  0  0  0  0  0  0  0  0  0  0
    2.4801   -0.3064    0.1462 C   0  0  0  0  0  0  0  0  0  0  0  0
    2.9663    0.1707   -1.2247 C   0  0  0  0  0  0  0  0  0  0  0  0
    4.4233   -0.2217   -1.4813 C   0  0  0  0  0  0  0  0  0  0  0  0
    5.2578   -0.3483   -0.2059 C   0  0  0  0  0  0  0  0  0  0  0  0
    4.7688    0.5938    0.8848 C   0  0  0  0  0  0  0  0  0  0  0  0
    3.3158    0.3139    1.2774 C   0  0  0  0  0  0  0  0  0  0  0  0
   -1.3340   -0.2824   -0.0699 C   0  0  0  0  0  0  0  0  0  0  0  0
   -2.3613   -1.1487   -0.4818 C   0  0  0  0  0  0  0  0  0  0  0  0
   -3.7124   -0.7717   -0.4110 C   0  0  0  0  0  0  0  0  0  0  0  0
   -4.7357   -1.6409   -0.8217 C   0  0  0  0  0  0  0  0  0  0  0  0
   -6.0741   -1.2536   -0.7455 C   0  0  0  0  0  0  0  0  0  0  0  0
   -6.4062    0.0067   -0.2582 C   0  0  0  0  0  0  0  0  0  0  0  0
   -5.4004    0.8824    0.1538 C   0  0  0  0  0  0  0  0  0  0  0  0
   -4.0483    0.5075    0.0835 C   0  0  0  0  0  0  0  0  0  0  0  0
   -3.0242    1.3766    0.4925 C   0  0  0  0  0  0  0  0  0  0  0  0
   -1.6820    0.9862    0.4153 C   0  0  0  0  0  0  0  0  0  0  0  0
   -0.7188    1.8773    0.8183 O   0  0  0  0  0  0  0  0  0  0  0  0
    0.8008    0.9242    0.6383 H   0  0  0  0  0  0  0  0  0  0  0  0
    2.5929   -1.3980    0.1874 H   0  0  0  0  0  0  0  0  0  0  0  0
    2.8689    1.2632   -1.2835 H   0  0  0  0  0  0  0  0  0  0  0  0
    2.3370   -0.2295   -2.0288 H   0  0  0  0  0  0  0  0  0  0  0  0
    4.4608   -1.1760   -2.0207 H   0  0  0  0  0  0  0  0  0  0  0  0
    4.8747    0.5230   -2.1481 H   0  0  0  0  0  0  0  0  0  0  0  0
    5.2069   -1.3811    0.1616 H   0  0  0  0  0  0  0  0  0  0  0  0
    6.3112   -0.1512   -0.4350 H   0  0  0  0  0  0  0  0  0  0  0  0
    5.4100    0.5160    1.7701 H   0  0  0  0  0  0  0  0  0  0  0  0
    4.8540    1.6282    0.5285 H   0  0  0  0  0  0  0  0  0  0  0  0
    2.8681    1.2519    1.6305 H   0  0  0  0  0  0  0  0  0  0  0  0
    3.2923   -0.3661    2.1388 H   0  0  0  0  0  0  0  0  0  0  0  0
   -2.1009   -2.1361   -0.8627 H   0  0  0  0  0  0  0  0  0  0  0  0
   -4.4954   -2.6305   -1.2057 H   0  0  0  0  0  0  0  0  0  0  0  0
   -6.8557   -1.9373   -1.0671 H   0  0  0  0  0  0  0  0  0  0  0  0
   -7.4487    0.3089   -0.1986 H   0  0  0  0  0  0  0  0  0  0  0  0
   -5.6833    1.8626    0.5311 H   0  0  0  0  0  0  0  0  0  0  0  0
   -3.2871    2.3613    0.8702 H   0  0  0  0  0  0  0  0  0  0  0  0
   -1.1518    2.6974    1.1142 H   0  0  0  0  0  0  0  0  0  0  0  0
  1  2  2  0
  2  3  1  0
  3  4  1  0
  4  5  1  0
  5  6  1  0
  6  7  1  0
  7  8  1  0
  8  9  1  0
  2 10  1  0
 10 11  2  0
 11 12  1  0
 12 13  2  0
 13 14  1  0
 14 15  2  0
 15 16  1  0
 16 17  2  0
 17 18  1  0
 18 19  2  0
 19 20  1  0
  9  4  1  0
 19 10  1  0
 17 12  1  0
  3 21  1  0
  4 22  1  0
  5 23  1  0
  5 24  1  0
  6 25  1  0
  6 26  1  0
  7 27  1  0
  7 28  1  0
  8 29  1  0
  8 30  1  0
  9 31  1  0
  9 32  1  0
 11 33  1  0
 13 34  1  0
 14 35  1  0
 15 36  1  0
 16 37  1  0
 18 38  1  0
 20 39  1  0
M  END
$$$$
