
     RDKit          3D

 45 47  0  0  0  0  0  0  0  0999 V2000
   -0.7841    0.0110    3.2304 C   0  0  0  0  0  0  0  0  0  0  0  0
   -1.1205   -0.1979    1.8639 O   0  0  0  0  0  0  0  0  0  0  0  0
   -2.3904   -0.6642    1.6013 C   0  0  0  0  0  0  0  0  0  0  0  0
   -3.3413   -0.9913    2.5719 C   0  0  0  0  0  0  0  0  0  0  0  0
   -4.6023   -1.4514    2.1875 C   0  0  0  0  0  0  0  0  0  0  0  0
   -4.9166   -1.5862    0.8374 C   0  0  0  0  0  0  0  0  0  0  0  0
   -3.9725   -1.2644   -0.1397 C   0  0  0  0  0  0  0  0  0  0  0  0
   -2.7082   -0.8058    0.2320 C   0  0  0  0  0  0  0  0  0  0  0  0
   -1.6939   -0.4613   -0.6886 N   0  0  0  0  0  0  0  0  0  0  0  0
   -1.7302   -0.5054   -2.0645 C   0  0  0  0  0  0  0  0  0  0  0  0
   -2.6809   -0.8717   -2.7498 O   0  0  0  0  0  0  0  0  0  0  0  0
   -0.4391   -0.0433   -2.7413 C   0  0  0  0  0  0  0  0  0  0  0  0
   -0.1186    1.4272   -2.4323 C   0  0  0  0  0  0  0  0  0  0  0  0
    1.0485    1.5889   -1.4639 C   0  0  0  0  0  0  0  0  0  0  0  0
    2.2533    0.9167   -1.9859 N   0  0  0  0  0  0  0  0  0  0  0  0
    3.6879    1.1172   -1.1027 S   0  0  0  0  0  6  0  0  0  0  0  0
    3.7792    2.5134   -0.7272 O   0  0  0  0  0  0  0  0  0  0  0  0
    4.7696    0.4492   -1.7918 O   0  0  0  0  0  0  0  0  0  0  0  0
    3.5080    0.2768    0.4640 C   0  0  0  0  0  0  0  0  0  0  0  0
    3.4406    0.7596    1.7588 C   0  0  0  0  0  0  0  0  0  0  0  0
    3.2965   -0.2798    2.7222 C   0  0  0  0  0  0  0  0  0  0  0  0
    3.2521   -1.5226    2.1316 C   0  0  0  0  0  0  0  0  0  0  0  0
    3.3944   -1.4291    0.4297 S   0  0  0  0  0  0  0  0  0  0  0  0
    2.0616   -0.3327   -2.7517 C   0  0  0  0  0  0  0  0  0  0  0  0
    0.7267   -0.9843   -2.4228 C   0  0  0  0  0  0  0  0  0  0  0  0
   -0.7850   -0.9334    3.7843 H   0  0  0  0  0  0  0  0  0  0  0  0
    0.2312    0.4166    3.2652 H   0  0  0  0  0  0  0  0  0  0  0  0
   -1.4494    0.7463    3.6948 H   0  0  0  0  0  0  0  0  0  0  0  0
   -3.1369   -0.9018    3.6331 H   0  0  0  0  0  0  0  0  0  0  0  0
   -5.3423   -1.7054    2.9427 H   0  0  0  0  0  0  0  0  0  0  0  0
   -5.8992   -1.9441    0.5391 H   0  0  0  0  0  0  0  0  0  0  0  0
   -4.2540   -1.3834   -1.1810 H   0  0  0  0  0  0  0  0  0  0  0  0
   -0.8400   -0.1701   -0.2285 H   0  0  0  0  0  0  0  0  0  0  0  0
   -0.6343   -0.1045   -3.8219 H   0  0  0  0  0  0  0  0  0  0  0  0
    0.1471    1.9263   -3.3742 H   0  0  0  0  0  0  0  0  0  0  0  0
   -0.9980    1.9550   -2.0449 H   0  0  0  0  0  0  0  0  0  0  0  0
    1.2490    2.6594   -1.3464 H   0  0  0  0  0  0  0  0  0  0  0  0
    0.7934    1.1851   -0.4795 H   0  0  0  0  0  0  0  0  0  0  0  0
    3.5051    1.8167    1.9919 H   0  0  0  0  0  0  0  0  0  0  0  0
    3.2349   -0.1245    3.7928 H   0  0  0  0  0  0  0  0  0  0  0  0
    3.1528   -2.4848    2.6164 H   0  0  0  0  0  0  0  0  0  0  0  0
    2.8645   -1.0511   -2.5644 H   0  0  0  0  0  0  0  0  0  0  0  0
    2.1086   -0.0847   -3.8188 H   0  0  0  0  0  0  0  0  0  0  0  0
    0.7193   -1.2855   -1.3691 H   0  0  0  0  0  0  0  0  0  0  0  0
    0.6134   -1.9102   -3.0000 H   0  0  0  0  0  0  0  0  0  0  0  0
  1  2  1  0
  2  3  1  0
  3  4  2  0
  4  5  1  0
  5  6  2  0
  6  7  1  0
  7  8  2  0
  8  9  1  0
  9 10  1  0
 10 11  2  0
 10 12  1  0
 12 13  1  0
 13 14  1  0
 14 15  1  0
 15 16  1  0
 16 17  2  0
 16 18  2  0
 16 19  1  0
 19 20  2  0
 20 21  1  0
 21 22  2  0
 22 23  1  0
 15 24  1  0
 24 25  1  0
  8  3  1  0
 25 12  1  0
 23 19  1  0
  1 26  1  0
  1 27  1  0
  1 28  1  0
  4 29  1  0
  5 30  1  0
  6 31  1  0
  7 32  1  0
  9 33  1  0
 12 34  1  0
 13 35  1  0
 13 36  1  0
 14 37  1  0
 14 38  1  0
 20 39  1  0
 21 40  1  0
 22 41  1  0
 24 42  1  0
 24 43  1  0
 25 44  1  0
 25 45  1  0
M  END
$$$$
