
     RDKit          3D

 31 31  0  0  0  0  0  0  0  0999 V2000
    4.8382   -1.8732   -0.2836 N   0  0  0  0  0  0  0  0  0  0  0  0
    4.0361   -0.8248    0.0444 C   0  0  0  0  0  0  0  0  0  0  0  0
    4.3791    0.1043    1.3830 S   0  0  0  0  0  0  0  0  0  0  0  0
    2.9919   -0.6443   -0.8298 N   0  0  0  0  0  0  0  0  0  0  0  0
    1.9534    0.2495   -0.5032 N   0  0  0  0  0  0  0  0  0  0  0  0
    0.6574   -0.1939   -0.7057 C   0  0  0  0  0  0  0  0  0  0  0  0
    0.4104   -1.2351   -1.3113 O   0  0  0  0  0  0  0  0  0  0  0  0
   -0.4042    0.7009   -0.0646 C   0  0  0  0  0  0  0  0  0  0  0  0
   -0.4358    0.4354    1.4534 C   0  0  0  0  0  0  0  0  0  0  0  0
   -1.3310   -0.7490    1.8011 C   0  0  0  0  0  0  0  0  0  0  0  0
   -2.7744   -0.5398    1.3484 C   0  0  0  0  0  0  0  0  0  0  0  0
   -2.9262    0.5320    0.2721 C   0  0  0  0  0  0  0  0  0  0  0  0
   -1.7789    0.4953   -0.7455 C   0  0  0  0  0  0  0  0  0  0  0  0
   -1.9947    1.5621   -1.8000 C   0  0  0  0  0  0  0  0  0  0  0  0
   -2.9670    2.2865   -1.9279 O   0  0  0  0  0  0  0  0  0  0  0  0
   -0.9756    1.6414   -2.6777 O   0  0  0  0  0  0  0  0  0  0  0  0
    4.8734   -2.1951   -1.2416 H   0  0  0  0  0  0  0  0  0  0  0  0
    5.6927   -1.9792    0.2516 H   0  0  0  0  0  0  0  0  0  0  0  0
    2.6729   -1.4556   -1.3615 H   0  0  0  0  0  0  0  0  0  0  0  0
    2.1691    0.9343    0.2189 H   0  0  0  0  0  0  0  0  0  0  0  0
   -0.0679    1.7379   -0.2061 H   0  0  0  0  0  0  0  0  0  0  0  0
    0.5702    0.2524    1.8479 H   0  0  0  0  0  0  0  0  0  0  0  0
   -0.8101    1.3296    1.9682 H   0  0  0  0  0  0  0  0  0  0  0  0
   -0.9320   -1.6554    1.3289 H   0  0  0  0  0  0  0  0  0  0  0  0
   -1.3087   -0.9321    2.8816 H   0  0  0  0  0  0  0  0  0  0  0  0
   -3.3960   -0.2639    2.2089 H   0  0  0  0  0  0  0  0  0  0  0  0
   -3.1714   -1.4939    0.9807 H   0  0  0  0  0  0  0  0  0  0  0  0
   -3.8929    0.4027   -0.2306 H   0  0  0  0  0  0  0  0  0  0  0  0
   -2.9670    1.5213    0.7479 H   0  0  0  0  0  0  0  0  0  0  0  0
   -1.8417   -0.4655   -1.2710 H   0  0  0  0  0  0  0  0  0  0  0  0
   -1.2693    2.3152   -3.3269 H   0  0  0  0  0  0  0  0  0  0  0  0
  1  2  1  0
  2  3  2  0
  2  4  1  0
  4  5  1  0
  5  6  1  0
  6  7  2  0
  6  8  1  0
  8  9  1  0
  9 10  1  0
 10 11  1  0
 11 12  1  0
 12 13  1  0
 13 14  1  0
 14 15  2  0
 14 16  1  0
 13  8  1  0
  1 17  1  0
  1 18  1  0
  4 19  1  0
  5 20  1  0
  8 21  1  0
  9 22  1  0
  9 23  1  0
 10 24  1  0
 10 25  1  0
 11 26  1  0
 11 27  1  0
 12 28  1  0
 12 29  1  0
 13 30  1  0
 16 31  1  0
M  END
$$$$
