
     RDKit          3D

 48 50  0  0  0  0  0  0  0  0999 V2000
    4.2442    0.7233   -2.5253 C   0  0  0  0  0  0  0  0  0  0  0  0
    4.0499   -0.4929   -1.6930 C   0  0  0  0  0  0  0  0  0  0  0  0
    4.5712   -1.7643   -1.9253 C   0  0  0  0  0  0  0  0  0  0  0  0
    5.4093   -2.3225   -2.9572 C   0  0  0  0  0  0  0  0  0  0  0  0
    5.8123   -3.4717   -3.0680 O   0  0  0  0  0  0  0  0  0  0  0  0
    5.7557   -1.4052   -3.8897 O   0  0  0  0  0  0  0  0  0  0  0  0
    4.1662   -2.6135   -0.9291 O   0  0  0  0  0  0  0  0  0  0  0  0
    3.3978   -1.9065   -0.0648 C   0  0  0  0  0  0  0  0  0  0  0  0
    2.8032   -2.4222    1.0858 C   0  0  0  0  0  0  0  0  0  0  0  0
    2.0435   -1.5321    1.8502 C   0  0  0  0  0  0  0  0  0  0  0  0
    1.8986   -0.1979    1.4508 C   0  0  0  0  0  0  0  0  0  0  0  0
    0.9241    0.8978    2.4550 S   0  0  0  0  0  6  0  0  0  0  0  0
    1.0766    2.2464    1.9572 O   0  0  0  0  0  0  0  0  0  0  0  0
    1.1751    0.5607    3.8383 O   0  0  0  0  0  0  0  0  0  0  0  0
   -0.6284    0.3816    2.1159 N   0  0  0  0  0  0  0  0  0  0  0  0
   -1.2954    0.7516    0.8595 C   0  0  0  0  0  0  0  0  0  0  0  0
   -1.9315   -0.5137    0.2604 C   0  0  0  0  0  0  0  0  0  0  0  0
   -3.1877   -1.0488    0.9516 C   0  0  0  0  0  0  0  0  0  0  0  0
   -4.5141   -0.5406    0.3713 C   0  0  0  0  0  0  0  0  0  0  0  0
   -5.0410    0.7457    1.0036 C   0  0  0  0  0  0  0  0  0  0  0  0
   -4.6547    2.0435    0.2931 C   0  0  0  0  0  0  0  0  0  0  0  0
   -3.1755    2.2567   -0.0213 C   0  0  0  0  0  0  0  0  0  0  0  0
   -2.2377    1.9279    1.1388 C   0  0  0  0  0  0  0  0  0  0  0  0
    2.5191    0.2992    0.2920 C   0  0  0  0  0  0  0  0  0  0  0  0
    3.2866   -0.5887   -0.4860 C   0  0  0  0  0  0  0  0  0  0  0  0
    5.3063    0.9809   -2.5876 H   0  0  0  0  0  0  0  0  0  0  0  0
    3.8606    0.5616   -3.5378 H   0  0  0  0  0  0  0  0  0  0  0  0
    3.7184    1.5867   -2.1064 H   0  0  0  0  0  0  0  0  0  0  0  0
    6.3130   -1.9272   -4.5033 H   0  0  0  0  0  0  0  0  0  0  0  0
    2.9321   -3.4605    1.3684 H   0  0  0  0  0  0  0  0  0  0  0  0
    1.5649   -1.8869    2.7616 H   0  0  0  0  0  0  0  0  0  0  0  0
   -1.1781    0.1018    2.9261 H   0  0  0  0  0  0  0  0  0  0  0  0
   -0.5400    1.0839    0.1360 H   0  0  0  0  0  0  0  0  0  0  0  0
   -2.1355   -0.3602   -0.8059 H   0  0  0  0  0  0  0  0  0  0  0  0
   -1.1738   -1.3099    0.2907 H   0  0  0  0  0  0  0  0  0  0  0  0
   -3.1462   -0.9014    2.0362 H   0  0  0  0  0  0  0  0  0  0  0  0
   -3.1837   -2.1371    0.8003 H   0  0  0  0  0  0  0  0  0  0  0  0
   -5.2605   -1.3193    0.5802 H   0  0  0  0  0  0  0  0  0  0  0  0
   -4.4685   -0.4567   -0.7205 H   0  0  0  0  0  0  0  0  0  0  0  0
   -6.1385    0.6997    0.9937 H   0  0  0  0  0  0  0  0  0  0  0  0
   -4.7678    0.7906    2.0639 H   0  0  0  0  0  0  0  0  0  0  0  0
   -5.0043    2.8797    0.9125 H   0  0  0  0  0  0  0  0  0  0  0  0
   -5.2162    2.1149   -0.6473 H   0  0  0  0  0  0  0  0  0  0  0  0
   -2.9075    1.7060   -0.9287 H   0  0  0  0  0  0  0  0  0  0  0  0
   -3.0463    3.3147   -0.2852 H   0  0  0  0  0  0  0  0  0  0  0  0
   -2.7897    1.7716    2.0723 H   0  0  0  0  0  0  0  0  0  0  0  0
   -1.6169    2.8128    1.3355 H   0  0  0  0  0  0  0  0  0  0  0  0
    2.4107    1.3405    0.0018 H   0  0  0  0  0  0  0  0  0  0  0  0
  1  2  1  0
  2  3  2  0
  3  4  1  0
  4  5  2  0
  4  6  1  0
  3  7  1  0
  7  8  1  0
  8  9  2  0
  9 10  1  0
 10 11  2  0
 11 12  1  0
 12 13  2  0
 12 14  2  0
 12 15  1  0
 15 16  1  0
 16 17  1  0
 17 18  1  0
 18 19  1  0
 19 20  1  0
 20 21  1  0
 21 22  1  0
 22 23  1  0
 11 24  1  0
 24 25  2  0
 25  2  1  0
 25  8  1  0
 23 16  1  0
  1 26  1  0
  1 27  1  0
  1 28  1  0
  6 29  1  0
  9 30  1  0
 10 31  1  0
 15 32  1  0
 16 33  1  0
 17 34  1  0
 17 35  1  0
 18 36  1  0
 18 37  1  0
 19 38  1  0
 19 39  1  0
 20 40  1  0
 20 41  1  0
 21 42  1  0
 21 43  1  0
 22 44  1  0
 22 45  1  0
 23 46  1  0
 23 47  1  0
 24 48  1  0
M  END
$$$$
