
     RDKit          3D

 35 37  0  0  0  0  0  0  0  0999 V2000
   -2.6079   -2.4812   -0.4546 C   0  0  0  0  0  0  0  0  0  0  0  0
   -2.2004   -1.6711    0.7684 C   0  0  0  0  0  0  0  0  0  0  0  0
   -1.7872   -0.3210    0.3939 N   0  0  0  0  0  0  0  0  0  0  0  0
   -0.4792    0.1897    0.1723 C   0  0  0  0  0  0  0  0  0  0  0  0
    0.7109   -0.4538    0.0506 C   0  0  0  0  0  0  0  0  0  0  0  0
    0.9337   -2.1869    0.0891 S   0  0  0  0  0  0  0  0  0  0  0  0
    2.6689   -2.1277   -0.1285 C   0  0  0  0  0  0  0  0  0  0  0  0
    3.6255   -3.4875   -0.2539 S   0  0  0  0  0  0  0  0  0  0  0  0
    3.0417   -0.8101   -0.2097 N   0  0  0  0  0  0  0  0  0  0  0  0
    4.3906   -0.4066   -0.3246 N   0  0  0  0  0  0  0  0  0  0  0  0
    5.0536   -0.1956    0.8724 C   0  0  0  0  0  0  0  0  0  0  0  0
    6.3601    0.5345    0.7207 C   0  0  0  0  0  0  0  0  0  0  0  0
    4.6254   -0.5562    1.9653 O   0  0  0  0  0  0  0  0  0  0  0  0
    2.0655    0.1734   -0.1759 C   0  0  0  0  0  0  0  0  0  0  0  0
    2.3186    1.3576   -0.3572 O   0  0  0  0  0  0  0  0  0  0  0  0
   -0.5012    1.9927    0.0056 S   0  0  0  0  0  0  0  0  0  0  0  0
   -2.2691    1.9876    0.1513 C   0  0  0  0  0  0  0  0  0  0  0  0
   -3.0860    3.1097    0.0820 C   0  0  0  0  0  0  0  0  0  0  0  0
   -4.4620    2.9420    0.2126 C   0  0  0  0  0  0  0  0  0  0  0  0
   -4.9952    1.6644    0.4066 C   0  0  0  0  0  0  0  0  0  0  0  0
   -4.1583    0.5421    0.4754 C   0  0  0  0  0  0  0  0  0  0  0  0
   -2.7779    0.6928    0.3525 C   0  0  0  0  0  0  0  0  0  0  0  0
   -2.8606   -3.5050   -0.1618 H   0  0  0  0  0  0  0  0  0  0  0  0
   -3.4843   -2.0469   -0.9461 H   0  0  0  0  0  0  0  0  0  0  0  0
   -1.8075   -2.5263   -1.1987 H   0  0  0  0  0  0  0  0  0  0  0  0
   -1.4150   -2.1867    1.3259 H   0  0  0  0  0  0  0  0  0  0  0  0
   -3.0313   -1.6504    1.4844 H   0  0  0  0  0  0  0  0  0  0  0  0
    4.5479    0.2745   -1.0630 H   0  0  0  0  0  0  0  0  0  0  0  0
    6.2445    1.5558    1.0927 H   0  0  0  0  0  0  0  0  0  0  0  0
    7.1294    0.0147    1.2982 H   0  0  0  0  0  0  0  0  0  0  0  0
    6.6814    0.5696   -0.3241 H   0  0  0  0  0  0  0  0  0  0  0  0
   -2.6622    4.0971   -0.0712 H   0  0  0  0  0  0  0  0  0  0  0  0
   -5.1219    3.8045    0.1614 H   0  0  0  0  0  0  0  0  0  0  0  0
   -6.0716    1.5398    0.5031 H   0  0  0  0  0  0  0  0  0  0  0  0
   -4.6188   -0.4295    0.6153 H   0  0  0  0  0  0  0  0  0  0  0  0
  1  2  1  0
  2  3  1  0
  3  4  1  0
  4  5  2  3
  5  6  1  0
  6  7  1  0
  7  8  2  0
  7  9  1  0
  9 10  1  0
 10 11  1  0
 11 12  1  0
 11 13  2  0
  9 14  1  0
 14 15  2  0
  4 16  1  0
 16 17  1  0
 17 18  2  0
 18 19  1  0
 19 20  2  0
 20 21  1  0
 21 22  2  0
 22  3  1  0
 14  5  1  0
 22 17  1  0
  1 23  1  0
  1 24  1  0
  1 25  1  0
  2 26  1  0
  2 27  1  0
 10 28  1  0
 12 29  1  0
 12 30  1  0
 12 31  1  0
 18 32  1  0
 19 33  1  0
 20 34  1  0
 21 35  1  0
M  END
$$$$
