
     RDKit          3D

 44 45  0  0  0  0  0  0  0  0999 V2000
    7.7146   -1.2044   -0.2382 C   0  0  0  0  0  0  0  0  0  0  0  0
    6.2918   -0.7807   -0.0114 C   0  0  0  0  0  0  0  0  0  0  0  0
    5.9931    0.4474    0.5898 C   0  0  0  0  0  0  0  0  0  0  0  0
    4.6656    0.8502    0.7869 C   0  0  0  0  0  0  0  0  0  0  0  0
    3.6071    0.0352    0.3773 C   0  0  0  0  0  0  0  0  0  0  0  0
    2.2931    0.3651    0.5363 O   0  0  0  0  0  0  0  0  0  0  0  0
    1.9577    1.2829    1.5729 C   0  0  0  0  0  0  0  0  0  0  0  0
    0.4440    1.2944    1.8002 C   0  0  0  0  0  0  0  0  0  0  0  0
   -0.0547    1.9955    2.6772 O   0  0  0  0  0  0  0  0  0  0  0  0
   -0.2455    0.4516    0.9491 N   0  0  0  0  0  0  0  0  0  0  0  0
   -1.6098    0.2583    0.9768 C   0  0  0  0  0  0  0  0  0  0  0  0
   -2.6190    0.8090    1.7940 C   0  0  0  0  0  0  0  0  0  0  0  0
   -3.8342    0.3398    1.4888 N   0  0  0  0  0  0  0  0  0  0  0  0
   -3.5978   -0.5039    0.4684 N   0  0  0  0  0  0  0  0  0  0  0  0
   -4.7044   -1.2052   -0.1501 C   0  0  0  0  0  0  0  0  0  0  0  0
   -5.3271   -0.4447   -1.3202 C   0  0  0  0  0  0  0  0  0  0  0  0
   -6.0224    0.8496   -0.8910 C   0  0  0  0  0  0  0  0  0  0  0  0
   -6.7269    1.5111   -2.0447 C   0  0  0  0  0  0  0  0  0  0  0  0
   -6.7810    1.1260   -3.1999 O   0  0  0  0  0  0  0  0  0  0  0  0
   -7.3422    2.6500   -1.6700 O   0  0  0  0  0  0  0  0  0  0  0  0
   -2.2776   -0.5942    0.1307 C   0  0  0  0  0  0  0  0  0  0  0  0
    3.9128   -1.1810   -0.2510 C   0  0  0  0  0  0  0  0  0  0  0  0
    2.8476   -2.0804   -0.6851 N   0  0  0  0  0  4  0  0  0  0  0  0
    3.0156   -3.2913   -0.4771 O   0  0  0  0  0  0  0  0  0  0  0  0
    1.8514   -1.5907   -1.2382 O   0  0  0  0  0  1  0  0  0  0  0  0
    5.2400   -1.5962   -0.4423 C   0  0  0  0  0  0  0  0  0  0  0  0
    7.8486   -2.2576    0.0287 H   0  0  0  0  0  0  0  0  0  0  0  0
    8.4059   -0.6204    0.3774 H   0  0  0  0  0  0  0  0  0  0  0  0
    7.9838   -1.0653   -1.2888 H   0  0  0  0  0  0  0  0  0  0  0  0
    6.7980    1.1062    0.9151 H   0  0  0  0  0  0  0  0  0  0  0  0
    4.4955    1.8159    1.2547 H   0  0  0  0  0  0  0  0  0  0  0  0
    2.4224    0.9762    2.5161 H   0  0  0  0  0  0  0  0  0  0  0  0
    2.2567    2.2982    1.2921 H   0  0  0  0  0  0  0  0  0  0  0  0
    0.2916   -0.0688    0.2577 H   0  0  0  0  0  0  0  0  0  0  0  0
   -2.5239    1.5279    2.5968 H   0  0  0  0  0  0  0  0  0  0  0  0
   -5.4476   -1.4126    0.6282 H   0  0  0  0  0  0  0  0  0  0  0  0
   -4.3170   -2.1701   -0.4964 H   0  0  0  0  0  0  0  0  0  0  0  0
   -6.0578   -1.1031   -1.8082 H   0  0  0  0  0  0  0  0  0  0  0  0
   -4.5612   -0.2175   -2.0725 H   0  0  0  0  0  0  0  0  0  0  0  0
   -5.2898    1.5632   -0.4994 H   0  0  0  0  0  0  0  0  0  0  0  0
   -6.7661    0.6341   -0.1155 H   0  0  0  0  0  0  0  0  0  0  0  0
   -7.7499    2.9919   -2.4930 H   0  0  0  0  0  0  0  0  0  0  0  0
   -1.9380   -1.2390   -0.6674 H   0  0  0  0  0  0  0  0  0  0  0  0
    5.4567   -2.5526   -0.9174 H   0  0  0  0  0  0  0  0  0  0  0  0
  1  2  1  0
  2  3  2  0
  3  4  1  0
  4  5  2  0
  5  6  1  0
  6  7  1  0
  7  8  1  0
  8  9  2  0
  8 10  1  0
 10 11  1  0
 11 12  1  0
 12 13  2  0
 13 14  1  0
 14 15  1  0
 15 16  1  0
 16 17  1  0
 17 18  1  0
 18 19  2  0
 18 20  1  0
 14 21  1  0
  5 22  1  0
 22 23  1  0
 23 24  2  0
 23 25  1  0
 22 26  2  0
 26  2  1  0
 21 11  2  0
  1 27  1  0
  1 28  1  0
  1 29  1  0
  3 30  1  0
  4 31  1  0
  7 32  1  0
  7 33  1  0
 10 34  1  0
 12 35  1  0
 15 36  1  0
 15 37  1  0
 16 38  1  0
 16 39  1  0
 17 40  1  0
 17 41  1  0
 20 42  1  0
 21 43  1  0
 26 44  1  0
M  CHG  2  23   1  25  -1
M  END
$$$$
