
     RDKit          3D

 50 51  0  0  0  0  0  0  0  0999 V2000
    8.6136   -1.3659    2.2076 C   0  0  0  0  0  0  0  0  0  0  0  0
    7.5116   -1.0599    1.3522 O   0  0  0  0  0  0  0  0  0  0  0  0
    6.8863    0.1053    1.6538 C   0  0  0  0  0  0  0  0  0  0  0  0
    7.1898    0.8647    2.5610 O   0  0  0  0  0  0  0  0  0  0  0  0
    5.7496    0.3499    0.7239 C   0  0  0  0  0  0  0  0  0  0  0  0
    5.4398   -0.5178   -0.3303 C   0  0  0  0  0  0  0  0  0  0  0  0
    4.3579   -0.2419   -1.1715 C   0  0  0  0  0  0  0  0  0  0  0  0
    3.5730    0.9042   -0.9767 C   0  0  0  0  0  0  0  0  0  0  0  0
    2.3883    1.1722   -1.8705 C   0  0  0  0  0  0  0  0  0  0  0  0
    1.2317    0.4383   -1.4140 N   0  0  0  0  0  0  0  0  0  0  0  0
    0.8783   -0.7801   -1.9536 C   0  0  0  0  0  0  0  0  0  0  0  0
    1.4656   -1.2989   -2.8992 O   0  0  0  0  0  0  0  0  0  0  0  0
   -0.2695   -1.4813   -1.2243 C   0  0  0  0  0  0  0  0  0  0  0  0
   -1.0706   -0.6070   -0.4237 O   0  0  0  0  0  0  0  0  0  0  0  0
   -2.0588    0.0382   -1.1037 C   0  0  0  0  0  0  0  0  0  0  0  0
   -2.2592   -0.0516   -2.3046 O   0  0  0  0  0  0  0  0  0  0  0  0
   -2.8472    0.9160   -0.1601 C   0  0  0  0  0  0  0  0  0  0  0  0
   -4.3368    0.9624   -0.5100 C   0  0  0  0  0  0  0  0  0  0  0  0
   -5.0637   -0.3890   -0.3508 C   0  0  0  0  0  0  0  0  0  0  0  0
   -5.2074   -0.8547    1.0996 C   0  0  0  0  0  0  0  0  0  0  0  0
   -6.4110   -0.0887    1.6408 C   0  0  0  0  0  0  0  0  0  0  0  0
   -7.2801    0.2432    0.4274 C   0  0  0  0  0  0  0  0  0  0  0  0
   -6.5295   -0.2923   -0.7886 C   0  0  0  0  0  0  0  0  0  0  0  0
    3.8825    1.7674    0.0825 C   0  0  0  0  0  0  0  0  0  0  0  0
    4.9651    1.4940    0.9239 C   0  0  0  0  0  0  0  0  0  0  0  0
    8.2847   -1.4417    3.2492 H   0  0  0  0  0  0  0  0  0  0  0  0
    9.0201   -2.3345    1.9025 H   0  0  0  0  0  0  0  0  0  0  0  0
    9.3997   -0.6110    2.1020 H   0  0  0  0  0  0  0  0  0  0  0  0
    6.0281   -1.4143   -0.5106 H   0  0  0  0  0  0  0  0  0  0  0  0
    4.1233   -0.9310   -1.9828 H   0  0  0  0  0  0  0  0  0  0  0  0
    2.6273    0.9139   -2.9084 H   0  0  0  0  0  0  0  0  0  0  0  0
    2.1281    2.2364   -1.8519 H   0  0  0  0  0  0  0  0  0  0  0  0
    0.8165    0.6993   -0.5290 H   0  0  0  0  0  0  0  0  0  0  0  0
   -0.8834   -2.0279   -1.9493 H   0  0  0  0  0  0  0  0  0  0  0  0
    0.1774   -2.2182   -0.5484 H   0  0  0  0  0  0  0  0  0  0  0  0
   -2.4197    1.9243   -0.2252 H   0  0  0  0  0  0  0  0  0  0  0  0
   -2.7077    0.5709    0.8701 H   0  0  0  0  0  0  0  0  0  0  0  0
   -4.8138    1.7267    0.1154 H   0  0  0  0  0  0  0  0  0  0  0  0
   -4.4479    1.3030   -1.5478 H   0  0  0  0  0  0  0  0  0  0  0  0
   -4.5476   -1.1497   -0.9474 H   0  0  0  0  0  0  0  0  0  0  0  0
   -4.3143   -0.7021    1.7113 H   0  0  0  0  0  0  0  0  0  0  0  0
   -5.4299   -1.9300    1.1158 H   0  0  0  0  0  0  0  0  0  0  0  0
   -6.9576   -0.6778    2.3851 H   0  0  0  0  0  0  0  0  0  0  0  0
   -6.0861    0.8372    2.1298 H   0  0  0  0  0  0  0  0  0  0  0  0
   -8.2765   -0.2063    0.5069 H   0  0  0  0  0  0  0  0  0  0  0  0
   -7.4170    1.3288    0.3489 H   0  0  0  0  0  0  0  0  0  0  0  0
   -6.6783    0.3347   -1.6733 H   0  0  0  0  0  0  0  0  0  0  0  0
   -6.9046   -1.2951   -1.0294 H   0  0  0  0  0  0  0  0  0  0  0  0
    3.2858    2.6597    0.2608 H   0  0  0  0  0  0  0  0  0  0  0  0
    5.1937    2.1778    1.7396 H   0  0  0  0  0  0  0  0  0  0  0  0
  1  2  1  0
  2  3  1  0
  3  4  2  0
  3  5  1  0
  5  6  2  0
  6  7  1  0
  7  8  2  0
  8  9  1  0
  9 10  1  0
 10 11  1  0
 11 12  2  0
 11 13  1  0
 13 14  1  0
 14 15  1  0
 15 16  2  0
 15 17  1  0
 17 18  1  0
 18 19  1  0
 19 20  1  0
 20 21  1  0
 21 22  1  0
 22 23  1  0
  8 24  1  0
 24 25  2  0
 25  5  1  0
 23 19  1  0
  1 26  1  0
  1 27  1  0
  1 28  1  0
  6 29  1  0
  7 30  1  0
  9 31  1  0
  9 32  1  0
 10 33  1  0
 13 34  1  0
 13 35  1  0
 17 36  1  0
 17 37  1  0
 18 38  1  0
 18 39  1  0
 19 40  1  0
 20 41  1  0
 20 42  1  0
 21 43  1  0
 21 44  1  0
 22 45  1  0
 22 46  1  0
 23 47  1  0
 23 48  1  0
 24 49  1  0
 25 50  1  0
M  END
$$$$
