
     RDKit          3D

 45 48  0  0  0  0  0  0  0  0999 V2000
   -5.1296   -0.2106    1.9346 C   0  0  0  0  0  0  0  0  0  0  0  0
   -3.9530   -0.8861    2.6137 C   0  0  0  0  0  0  0  0  0  0  0  0
   -2.7286   -0.5146    1.9633 O   0  0  0  0  0  0  0  0  0  0  0  0
   -2.3865   -1.2636    0.8830 C   0  0  0  0  0  0  0  0  0  0  0  0
   -2.9962   -2.2225    0.4373 O   0  0  0  0  0  0  0  0  0  0  0  0
   -1.1508   -0.7169    0.2766 C   0  0  0  0  0  0  0  0  0  0  0  0
   -1.3614   -0.1795   -1.0844 C   0  0  0  0  0  0  0  0  0  0  0  0
   -0.6045   -0.3471   -2.0319 O   0  0  0  0  0  0  0  0  0  0  0  0
   -2.5177    0.5330   -1.1149 O   0  0  0  0  0  0  0  0  0  0  0  0
   -2.8763    1.1079   -2.3801 C   0  0  0  0  0  0  0  0  0  0  0  0
   -3.6529    0.1007   -3.2068 C   0  0  0  0  0  0  0  0  0  0  0  0
    0.0496   -0.8449    0.9094 C   0  0  0  0  0  0  0  0  0  0  0  0
    0.1228   -1.7348    2.1369 C   0  0  0  0  0  0  0  0  0  0  0  0
    1.2834   -2.1837    2.6739 C   0  0  0  0  0  0  0  0  0  0  0  0
    1.2971   -3.3246    4.1534 Br  0  0  0  0  0  0  0  0  0  0  0  0
    2.5296   -1.7642    2.1133 C   0  0  0  0  0  0  0  0  0  0  0  0
    3.7941   -2.0556    2.4363 N   0  0  0  0  0  0  0  0  0  0  0  0
    4.5776   -1.2540    1.5993 O   0  0  0  0  0  0  0  0  0  0  0  0
    3.7671   -0.4913    0.8054 C   0  0  0  0  0  0  0  0  0  0  0  0
    4.1263    0.4985   -0.1152 C   0  0  0  0  0  0  0  0  0  0  0  0
    5.4729    0.8193   -0.3706 C   0  0  0  0  0  0  0  0  0  0  0  0
    5.7709    1.8414   -1.2668 C   0  0  0  0  0  0  0  0  0  0  0  0
    4.7394    2.5400   -1.8926 C   0  0  0  0  0  0  0  0  0  0  0  0
    3.4015    2.2175   -1.6312 C   0  0  0  0  0  0  0  0  0  0  0  0
    3.0540    1.1813   -0.7402 C   0  0  0  0  0  0  0  0  0  0  0  0
    1.7061    0.8087   -0.4451 C   0  0  0  0  0  0  0  0  0  0  0  0
    0.7215    1.5601   -1.0356 O   0  0  0  0  0  0  0  0  0  0  0  0
    1.3588   -0.2467    0.4233 C   0  0  0  0  0  0  0  0  0  0  0  0
    2.4627   -0.8288    1.0657 C   0  0  0  0  0  0  0  0  0  0  0  0
   -5.2230   -0.5365    0.8938 H   0  0  0  0  0  0  0  0  0  0  0  0
   -6.0627   -0.4390    2.4573 H   0  0  0  0  0  0  0  0  0  0  0  0
   -4.9910    0.8754    1.9162 H   0  0  0  0  0  0  0  0  0  0  0  0
   -4.0746   -1.9750    2.6393 H   0  0  0  0  0  0  0  0  0  0  0  0
   -3.8803   -0.5451    3.6516 H   0  0  0  0  0  0  0  0  0  0  0  0
   -3.5072    1.9775   -2.1694 H   0  0  0  0  0  0  0  0  0  0  0  0
   -1.9927    1.4719   -2.9165 H   0  0  0  0  0  0  0  0  0  0  0  0
   -4.5306   -0.2532   -2.6561 H   0  0  0  0  0  0  0  0  0  0  0  0
   -3.0411   -0.7791   -3.4298 H   0  0  0  0  0  0  0  0  0  0  0  0
   -3.9830    0.5451   -4.1499 H   0  0  0  0  0  0  0  0  0  0  0  0
   -0.8015   -2.0826    2.5900 H   0  0  0  0  0  0  0  0  0  0  0  0
    6.2788    0.2843    0.1260 H   0  0  0  0  0  0  0  0  0  0  0  0
    6.8065    2.1002   -1.4728 H   0  0  0  0  0  0  0  0  0  0  0  0
    4.9737    3.3444   -2.5861 H   0  0  0  0  0  0  0  0  0  0  0  0
    2.6232    2.7916   -2.1309 H   0  0  0  0  0  0  0  0  0  0  0  0
    0.5277    1.0810   -1.8723 H   0  0  0  0  0  0  0  0  0  0  0  0
  1  2  1  0
  2  3  1  0
  3  4  1  0
  4  5  2  0
  4  6  1  0
  6  7  1  0
  7  8  2  0
  7  9  1  0
  9 10  1  0
 10 11  1  0
  6 12  2  3
 12 13  1  0
 13 14  2  0
 14 15  1  0
 14 16  1  0
 16 17  2  0
 17 18  1  0
 18 19  1  0
 19 20  1  0
 20 21  2  0
 21 22  1  0
 22 23  2  0
 23 24  1  0
 24 25  2  0
 25 26  1  0
 26 27  1  0
 26 28  2  0
 28 29  1  0
 28 12  1  0
 29 16  1  0
 29 19  2  0
 25 20  1  0
  1 30  1  0
  1 31  1  0
  1 32  1  0
  2 33  1  0
  2 34  1  0
 10 35  1  0
 10 36  1  0
 11 37  1  0
 11 38  1  0
 11 39  1  0
 13 40  1  0
 21 41  1  0
 22 42  1  0
 23 43  1  0
 24 44  1  0
 27 45  1  0
M  END
$$$$
