
     RDKit          3D

 34 36  0  0  0  0  0  0  0  0999 V2000
    1.6894   -0.9855    2.4757 S   0  0  0  0  0  0  0  0  0  0  0  0
    1.8428   -0.7478    0.8181 C   0  0  0  0  0  0  0  0  0  0  0  0
    0.7907   -0.4747   -0.0106 N   0  0  0  0  0  0  0  0  0  0  0  0
    0.4850    0.7560   -0.2717 C   0  0  0  0  0  0  0  0  0  0  0  0
    1.3880    2.2040    0.2931 S   0  0  0  0  0  0  0  0  0  0  0  0
    0.2744    3.2687   -0.5244 C   0  0  0  0  0  0  0  0  0  0  0  0
   -0.6726    2.5732   -1.1645 C   0  0  0  0  0  0  0  0  0  0  0  0
   -0.5771    1.1932   -1.0563 N   0  0  0  0  0  0  0  0  0  0  0  0
   -1.5658    0.2655   -1.5883 C   0  0  0  0  0  0  0  0  0  0  0  0
   -2.8054    0.2235   -0.7225 C   0  0  0  0  0  0  0  0  0  0  0  0
   -2.7918   -0.4572    0.5045 C   0  0  0  0  0  0  0  0  0  0  0  0
   -3.9301   -0.4882    1.3112 C   0  0  0  0  0  0  0  0  0  0  0  0
   -5.0934    0.1602    0.9019 C   0  0  0  0  0  0  0  0  0  0  0  0
   -5.1197    0.8419   -0.3133 C   0  0  0  0  0  0  0  0  0  0  0  0
   -3.9818    0.8758   -1.1216 C   0  0  0  0  0  0  0  0  0  0  0  0
    3.0170   -0.8960    0.1149 N   0  0  0  0  0  0  0  0  0  0  0  0
    4.3088   -1.1760    0.6536 C   0  0  0  0  0  0  0  0  0  0  0  0
    5.3801   -1.7736   -0.2191 C   0  0  0  0  0  0  0  0  0  0  0  0
    4.7631   -2.5921    0.8753 C   0  0  0  0  0  0  0  0  0  0  0  0
    0.3556    4.3457   -0.4878 H   0  0  0  0  0  0  0  0  0  0  0  0
   -1.4922    2.9958   -1.7313 H   0  0  0  0  0  0  0  0  0  0  0  0
   -1.1591   -0.7491   -1.6859 H   0  0  0  0  0  0  0  0  0  0  0  0
   -1.8346    0.5643   -2.6100 H   0  0  0  0  0  0  0  0  0  0  0  0
   -1.8898   -0.9650    0.8429 H   0  0  0  0  0  0  0  0  0  0  0  0
   -3.9054   -1.0162    2.2612 H   0  0  0  0  0  0  0  0  0  0  0  0
   -5.9783    0.1360    1.5324 H   0  0  0  0  0  0  0  0  0  0  0  0
   -6.0274    1.3494   -0.6296 H   0  0  0  0  0  0  0  0  0  0  0  0
   -4.0213    1.4163   -2.0643 H   0  0  0  0  0  0  0  0  0  0  0  0
    2.9295   -0.7663   -0.8845 H   0  0  0  0  0  0  0  0  0  0  0  0
    4.6430   -0.4283    1.3705 H   0  0  0  0  0  0  0  0  0  0  0  0
    5.1372   -2.0368   -1.2414 H   0  0  0  0  0  0  0  0  0  0  0  0
    6.3972   -1.4257   -0.0795 H   0  0  0  0  0  0  0  0  0  0  0  0
    5.3535   -2.7955    1.7612 H   0  0  0  0  0  0  0  0  0  0  0  0
    4.0906   -3.3955    0.5980 H   0  0  0  0  0  0  0  0  0  0  0  0
  1  2  2  0
  2  3  1  0
  3  4  2  3
  4  5  1  0
  5  6  1  0
  6  7  2  0
  7  8  1  0
  8  9  1  0
  9 10  1  0
 10 11  2  0
 11 12  1  0
 12 13  2  0
 13 14  1  0
 14 15  2  0
  2 16  1  0
 16 17  1  0
 17 18  1  0
 18 19  1  0
  8  4  1  0
 15 10  1  0
 19 17  1  0
  6 20  1  0
  7 21  1  0
  9 22  1  0
  9 23  1  0
 11 24  1  0
 12 25  1  0
 13 26  1  0
 14 27  1  0
 15 28  1  0
 16 29  1  0
 17 30  1  0
 18 31  1  0
 18 32  1  0
 19 33  1  0
 19 34  1  0
M  END
$$$$
