
     RDKit          3D

 68 70  0  0  0  0  0  0  0  0999 V2000
    5.2107    0.4677    2.1718 C   0  0  0  0  0  0  0  0  0  0  0  0
    5.8765    1.3540    1.1349 C   0  0  0  0  0  0  0  0  0  0  0  0
    4.9248    2.0265    0.2201 N   0  0  0  0  0  0  0  0  0  0  0  0
    3.8975    2.9022    0.8258 C   0  0  0  0  0  0  0  0  0  0  0  0
    4.5207    4.2225    1.2490 C   0  0  0  0  0  0  0  0  0  0  0  0
    4.6107    1.3280   -1.2930 S   0  0  0  0  0  6  0  0  0  0  0  0
    5.8383    0.7257   -1.7743 O   0  0  0  0  0  0  0  0  0  0  0  0
    3.8923    2.2787   -2.1141 O   0  0  0  0  0  0  0  0  0  0  0  0
    3.4863   -0.0019   -0.9224 C   0  0  0  0  0  0  0  0  0  0  0  0
    3.9304   -1.3249   -0.9773 C   0  0  0  0  0  0  0  0  0  0  0  0
    3.0312   -2.3671   -0.7432 C   0  0  0  0  0  0  0  0  0  0  0  0
    1.6863   -2.0981   -0.4511 C   0  0  0  0  0  0  0  0  0  0  0  0
    0.7245   -3.1218   -0.2581 N   0  0  0  0  0  0  0  0  0  0  0  0
    1.1007   -4.1809    0.7150 C   0  0  0  0  0  0  0  0  0  0  0  0
    1.3603   -5.5266    0.0213 C   0  0  0  0  0  0  0  0  0  0  0  0
    0.2358   -6.0049   -0.7324 O   0  0  0  0  0  0  0  0  0  0  0  0
   -0.5450   -4.9533   -1.3236 C   0  0  0  0  0  0  0  0  0  0  0  0
    0.2494   -3.6600   -1.5602 C   0  0  0  0  0  0  0  0  0  0  0  0
    1.2575   -0.7473   -0.3851 C   0  0  0  0  0  0  0  0  0  0  0  0
   -0.1012   -0.5460   -0.0654 N   0  0  0  0  0  0  0  0  0  0  0  0
   -0.7419    0.6406    0.2133 C   0  0  0  0  0  0  0  0  0  0  0  0
   -0.2060    1.7357    0.3452 O   0  0  0  0  0  0  0  0  0  0  0  0
   -2.2406    0.4662    0.3980 C   0  0  0  0  0  0  0  0  0  0  0  0
   -3.0039    1.5296   -0.3926 C   0  0  0  0  0  0  0  0  0  0  0  0
   -4.5208    1.2731   -0.4519 C   0  0  0  0  0  0  0  0  0  0  0  0
   -5.1751    2.2470   -1.4458 C   0  0  0  0  0  0  0  0  0  0  0  0
   -6.6846    2.0464   -1.5241 C   0  0  0  0  0  0  0  0  0  0  0  0
   -7.3357    2.1641   -0.1509 C   0  0  0  0  0  0  0  0  0  0  0  0
   -6.6980    1.2099    0.8525 C   0  0  0  0  0  0  0  0  0  0  0  0
   -5.1845    1.3942    0.9298 C   0  0  0  0  0  0  0  0  0  0  0  0
    2.1497    0.2912   -0.6445 C   0  0  0  0  0  0  0  0  0  0  0  0
    5.9715   -0.1254    2.6915 H   0  0  0  0  0  0  0  0  0  0  0  0
    4.6835    1.0554    2.9293 H   0  0  0  0  0  0  0  0  0  0  0  0
    4.4990   -0.2273    1.7239 H   0  0  0  0  0  0  0  0  0  0  0  0
    6.4812    2.1154    1.6382 H   0  0  0  0  0  0  0  0  0  0  0  0
    6.5940    0.7559    0.5625 H   0  0  0  0  0  0  0  0  0  0  0  0
    3.4199    2.4117    1.6789 H   0  0  0  0  0  0  0  0  0  0  0  0
    3.0965    3.1256    0.1137 H   0  0  0  0  0  0  0  0  0  0  0  0
    5.2944    4.0819    2.0106 H   0  0  0  0  0  0  0  0  0  0  0  0
    3.7561    4.8848    1.6655 H   0  0  0  0  0  0  0  0  0  0  0  0
    4.9790    4.7293    0.3930 H   0  0  0  0  0  0  0  0  0  0  0  0
    4.9652   -1.5549   -1.2209 H   0  0  0  0  0  0  0  0  0  0  0  0
    3.3910   -3.3882   -0.8169 H   0  0  0  0  0  0  0  0  0  0  0  0
    1.9582   -3.8912    1.3360 H   0  0  0  0  0  0  0  0  0  0  0  0
    0.2437   -4.2974    1.3918 H   0  0  0  0  0  0  0  0  0  0  0  0
    2.2104   -5.4546   -0.6640 H   0  0  0  0  0  0  0  0  0  0  0  0
    1.6061   -6.2914    0.7632 H   0  0  0  0  0  0  0  0  0  0  0  0
   -0.9434   -5.3305   -2.2702 H   0  0  0  0  0  0  0  0  0  0  0  0
   -1.3980   -4.7651   -0.6602 H   0  0  0  0  0  0  0  0  0  0  0  0
    1.0955   -3.8768   -2.2256 H   0  0  0  0  0  0  0  0  0  0  0  0
   -0.3941   -2.9210   -2.0477 H   0  0  0  0  0  0  0  0  0  0  0  0
   -0.6001   -1.4236    0.0641 H   0  0  0  0  0  0  0  0  0  0  0  0
   -2.5509   -0.5340    0.0720 H   0  0  0  0  0  0  0  0  0  0  0  0
   -2.4486    0.5463    1.4709 H   0  0  0  0  0  0  0  0  0  0  0  0
   -2.8074    2.5201    0.0389 H   0  0  0  0  0  0  0  0  0  0  0  0
   -2.6068    1.5578   -1.4157 H   0  0  0  0  0  0  0  0  0  0  0  0
   -4.6841    0.2513   -0.8227 H   0  0  0  0  0  0  0  0  0  0  0  0
   -4.9626    3.2819   -1.1486 H   0  0  0  0  0  0  0  0  0  0  0  0
   -4.7430    2.1096   -2.4436 H   0  0  0  0  0  0  0  0  0  0  0  0
   -7.1215    2.7895   -2.2025 H   0  0  0  0  0  0  0  0  0  0  0  0
   -6.9004    1.0582   -1.9494 H   0  0  0  0  0  0  0  0  0  0  0  0
   -7.2386    3.1947    0.2115 H   0  0  0  0  0  0  0  0  0  0  0  0
   -8.4070    1.9534   -0.2328 H   0  0  0  0  0  0  0  0  0  0  0  0
   -6.9241    0.1753    0.5657 H   0  0  0  0  0  0  0  0  0  0  0  0
   -7.1387    1.3691    1.8429 H   0  0  0  0  0  0  0  0  0  0  0  0
   -4.9638    2.3765    1.3652 H   0  0  0  0  0  0  0  0  0  0  0  0
   -4.7762    0.6432    1.6146 H   0  0  0  0  0  0  0  0  0  0  0  0
    1.8178    1.3241   -0.6524 H   0  0  0  0  0  0  0  0  0  0  0  0
  1  2  1  0
  2  3  1  0
  3  4  1  0
  4  5  1  0
  3  6  1  0
  6  7  2  0
  6  8  2  0
  6  9  1  0
  9 10  2  0
 10 11  1  0
 11 12  2  0
 12 13  1  0
 13 14  1  0
 14 15  1  0
 15 16  1  0
 16 17  1  0
 17 18  1  0
 12 19  1  0
 19 20  1  0
 20 21  1  0
 21 22  2  0
 21 23  1  0
 23 24  1  0
 24 25  1  0
 25 26  1  0
 26 27  1  0
 27 28  1  0
 28 29  1  0
 29 30  1  0
 19 31  2  0
 31  9  1  0
 18 13  1  0
 30 25  1  0
  1 32  1  0
  1 33  1  0
  1 34  1  0
  2 35  1  0
  2 36  1  0
  4 37  1  0
  4 38  1  0
  5 39  1  0
  5 40  1  0
  5 41  1  0
 10 42  1  0
 11 43  1  0
 14 44  1  0
 14 45  1  0
 15 46  1  0
 15 47  1  0
 17 48  1  0
 17 49  1  0
 18 50  1  0
 18 51  1  0
 20 52  1  0
 23 53  1  0
 23 54  1  0
 24 55  1  0
 24 56  1  0
 25 57  1  0
 26 58  1  0
 26 59  1  0
 27 60  1  0
 27 61  1  0
 28 62  1  0
 28 63  1  0
 29 64  1  0
 29 65  1  0
 30 66  1  0
 30 67  1  0
 31 68  1  0
M  END
$$$$
