
     RDKit          3D

 57 60  0  0  0  0  0  0  0  0999 V2000
   -4.1560   -1.6603    2.0869 C   0  0  0  0  0  0  0  0  0  0  0  0
   -5.1794   -1.0178    1.2263 C   0  0  0  0  0  0  0  0  0  0  0  0
   -6.4259   -1.5064    1.1807 N   0  0  0  0  0  0  0  0  0  0  0  0
   -7.1155   -0.6987    0.2956 O   0  0  0  0  0  0  0  0  0  0  0  0
   -6.2840    0.2649   -0.1846 C   0  0  0  0  0  0  0  0  0  0  0  0
   -6.8708    1.2126   -1.1549 C   0  0  0  0  0  0  0  0  0  0  0  0
   -5.0293    0.1108    0.3714 C   0  0  0  0  0  0  0  0  0  0  0  0
   -3.8049    0.9227    0.1336 C   0  0  0  0  0  0  0  0  0  0  0  0
   -2.6712    0.0931   -0.1754 O   0  0  0  0  0  0  0  0  0  0  0  0
   -2.3230    0.1845   -1.4961 C   0  0  0  0  0  0  0  0  0  0  0  0
   -3.0837   -0.4866   -2.4562 C   0  0  0  0  0  0  0  0  0  0  0  0
   -2.7273   -0.4082   -3.8043 C   0  0  0  0  0  0  0  0  0  0  0  0
   -1.6108    0.3340   -4.1947 C   0  0  0  0  0  0  0  0  0  0  0  0
   -0.8344    0.9844   -3.2345 C   0  0  0  0  0  0  0  0  0  0  0  0
   -1.1743    0.8860   -1.8796 C   0  0  0  0  0  0  0  0  0  0  0  0
   -0.3273    1.5942   -0.8977 C   0  0  0  0  0  0  0  0  0  0  0  0
   -0.1843    2.8062   -1.0483 O   0  0  0  0  0  0  0  0  0  0  0  0
    0.2704    0.8739    0.1299 N   0  0  0  0  0  0  0  0  0  0  0  0
    0.5031   -0.5779    0.1037 C   0  0  0  0  0  0  0  0  0  0  0  0
    1.9805   -0.8879   -0.2199 C   0  0  0  0  0  0  0  0  0  0  0  0
    2.8785   -0.1758    0.7204 N   0  0  0  0  0  0  0  0  0  0  0  0
    4.2352   -0.5302    0.7324 C   0  0  0  0  0  0  0  0  0  0  0  0
    4.8579   -1.2549   -0.2933 C   0  0  0  0  0  0  0  0  0  0  0  0
    6.2103   -1.6079   -0.2232 C   0  0  0  0  0  0  0  0  0  0  0  0
    6.9719   -1.2495    0.8858 C   0  0  0  0  0  0  0  0  0  0  0  0
    6.3868   -0.5297    1.9321 C   0  0  0  0  0  0  0  0  0  0  0  0
    7.1775   -0.1639    3.1609 C   0  0  0  0  0  0  0  0  0  0  0  0
    8.5225   -0.1265    2.9451 F   0  0  0  0  0  0  0  0  0  0  0  0
    6.8509    1.0624    3.6609 F   0  0  0  0  0  0  0  0  0  0  0  0
    6.9886   -1.0452    4.1810 F   0  0  0  0  0  0  0  0  0  0  0  0
    5.0247   -0.1871    1.8433 C   0  0  0  0  0  0  0  0  0  0  0  0
    2.6340    1.2950    0.7565 C   0  0  0  0  0  0  0  0  0  0  0  0
    1.1498    1.5799    1.0648 C   0  0  0  0  0  0  0  0  0  0  0  0
   -3.6720   -0.9166    2.7299 H   0  0  0  0  0  0  0  0  0  0  0  0
   -4.5941   -2.4298    2.7327 H   0  0  0  0  0  0  0  0  0  0  0  0
   -3.3874   -2.1377    1.4705 H   0  0  0  0  0  0  0  0  0  0  0  0
   -7.9639    1.1301   -1.1843 H   0  0  0  0  0  0  0  0  0  0  0  0
   -6.6168    2.2443   -0.8868 H   0  0  0  0  0  0  0  0  0  0  0  0
   -6.4872    1.0134   -2.1598 H   0  0  0  0  0  0  0  0  0  0  0  0
   -3.9769    1.6914   -0.6336 H   0  0  0  0  0  0  0  0  0  0  0  0
   -3.5574    1.4628    1.0554 H   0  0  0  0  0  0  0  0  0  0  0  0
   -3.9483   -1.0763   -2.1613 H   0  0  0  0  0  0  0  0  0  0  0  0
   -3.3237   -0.9252   -4.5527 H   0  0  0  0  0  0  0  0  0  0  0  0
   -1.3437    0.4033   -5.2473 H   0  0  0  0  0  0  0  0  0  0  0  0
    0.0326    1.5669   -3.5391 H   0  0  0  0  0  0  0  0  0  0  0  0
   -0.1307   -1.0835   -0.6265 H   0  0  0  0  0  0  0  0  0  0  0  0
    0.2456   -0.9635    1.0972 H   0  0  0  0  0  0  0  0  0  0  0  0
    2.1263   -1.9722   -0.1424 H   0  0  0  0  0  0  0  0  0  0  0  0
    2.1943   -0.5763   -1.2503 H   0  0  0  0  0  0  0  0  0  0  0  0
    4.3085   -1.5517   -1.1819 H   0  0  0  0  0  0  0  0  0  0  0  0
    6.6650   -2.1675   -1.0380 H   0  0  0  0  0  0  0  0  0  0  0  0
    8.0210   -1.5375    0.9325 H   0  0  0  0  0  0  0  0  0  0  0  0
    4.5629    0.3361    2.6801 H   0  0  0  0  0  0  0  0  0  0  0  0
    3.2393    1.7913    1.5227 H   0  0  0  0  0  0  0  0  0  0  0  0
    2.9007    1.7285   -0.2159 H   0  0  0  0  0  0  0  0  0  0  0  0
    0.9030    1.2210    2.0710 H   0  0  0  0  0  0  0  0  0  0  0  0
    0.9627    2.6581    1.0433 H   0  0  0  0  0  0  0  0  0  0  0  0
  1  2  1  0
  2  3  2  0
  3  4  1  0
  4  5  1  0
  5  6  1  0
  5  7  2  0
  7  8  1  0
  8  9  1  0
  9 10  1  0
 10 11  2  0
 11 12  1  0
 12 13  2  0
 13 14  1  0
 14 15  2  0
 15 16  1  0
 16 17  2  0
 16 18  1  0
 18 19  1  0
 19 20  1  0
 20 21  1  0
 21 22  1  0
 22 23  2  0
 23 24  1  0
 24 25  2  0
 25 26  1  0
 26 27  1  0
 27 28  1  0
 27 29  1  0
 27 30  1  0
 26 31  2  0
 21 32  1  0
 32 33  1  0
  7  2  1  0
 15 10  1  0
 33 18  1  0
 31 22  1  0
  1 34  1  0
  1 35  1  0
  1 36  1  0
  6 37  1  0
  6 38  1  0
  6 39  1  0
  8 40  1  0
  8 41  1  0
 11 42  1  0
 12 43  1  0
 13 44  1  0
 14 45  1  0
 19 46  1  0
 19 47  1  0
 20 48  1  0
 20 49  1  0
 23 50  1  0
 24 51  1  0
 25 52  1  0
 31 53  1  0
 32 54  1  0
 32 55  1  0
 33 56  1  0
 33 57  1  0
M  END
$$$$
