
     RDKit          3D

 40 42  0  0  0  0  0  0  0  0999 V2000
    5.5060   -3.7383    0.4383 C   0  0  0  0  0  0  0  0  0  0  0  0
    4.6386   -2.5230    0.5926 C   0  0  0  0  0  0  0  0  0  0  0  0
    4.7627   -1.7073    1.7265 C   0  0  0  0  0  0  0  0  0  0  0  0
    3.9404   -0.5907    1.8899 C   0  0  0  0  0  0  0  0  0  0  0  0
    2.9780   -0.3011    0.9210 C   0  0  0  0  0  0  0  0  0  0  0  0
    1.9330    1.1182    1.0978 S   0  0  0  0  0  6  0  0  0  0  0  0
    2.3554    1.8664    2.2642 O   0  0  0  0  0  0  0  0  0  0  0  0
    1.8111    1.7484   -0.1978 O   0  0  0  0  0  0  0  0  0  0  0  0
    0.4597    0.3830    1.5492 N   0  0  0  0  0  0  0  0  0  0  0  0
   -0.7214    0.9128    0.8483 C   0  0  0  0  0  0  0  0  0  0  0  0
   -1.5595    0.1479    0.0785 C   0  0  0  0  0  0  0  0  0  0  0  0
   -2.5770    1.0330   -0.3787 C   0  0  0  0  0  0  0  0  0  0  0  0
   -3.7272    0.7281   -1.2407 C   0  0  0  0  0  0  0  0  0  0  0  0
   -4.0409   -0.5919   -1.5996 C   0  0  0  0  0  0  0  0  0  0  0  0
   -5.1383   -0.8682   -2.4222 C   0  0  0  0  0  0  0  0  0  0  0  0
   -5.9363    0.1701   -2.8969 C   0  0  0  0  0  0  0  0  0  0  0  0
   -5.6401    1.4855   -2.5497 C   0  0  0  0  0  0  0  0  0  0  0  0
   -4.5441    1.7614   -1.7274 C   0  0  0  0  0  0  0  0  0  0  0  0
   -2.3675    2.2724    0.1022 N   0  0  0  0  0  0  0  0  0  0  0  0
   -1.2368    2.1784    0.8259 N   0  0  0  0  0  0  0  0  0  0  0  0
   -0.7269    3.3553    1.4856 C   0  0  0  0  0  0  0  0  0  0  0  0
    2.8389   -1.1065   -0.2123 C   0  0  0  0  0  0  0  0  0  0  0  0
    3.6646   -2.2205   -0.3692 C   0  0  0  0  0  0  0  0  0  0  0  0
    6.5032   -3.5589    0.8539 H   0  0  0  0  0  0  0  0  0  0  0  0
    5.0525   -4.5892    0.9557 H   0  0  0  0  0  0  0  0  0  0  0  0
    5.6363   -3.9962   -0.6178 H   0  0  0  0  0  0  0  0  0  0  0  0
    5.5074   -1.9361    2.4866 H   0  0  0  0  0  0  0  0  0  0  0  0
    4.0599    0.0396    2.7679 H   0  0  0  0  0  0  0  0  0  0  0  0
    0.3787    0.4895    2.5641 H   0  0  0  0  0  0  0  0  0  0  0  0
   -1.4505   -0.9059   -0.1279 H   0  0  0  0  0  0  0  0  0  0  0  0
   -3.4442   -1.4269   -1.2440 H   0  0  0  0  0  0  0  0  0  0  0  0
   -5.3693   -1.8960   -2.6909 H   0  0  0  0  0  0  0  0  0  0  0  0
   -6.7886   -0.0449   -3.5361 H   0  0  0  0  0  0  0  0  0  0  0  0
   -6.2586    2.3004   -2.9167 H   0  0  0  0  0  0  0  0  0  0  0  0
   -4.3277    2.7964   -1.4681 H   0  0  0  0  0  0  0  0  0  0  0  0
   -1.5551    4.0388    1.6915 H   0  0  0  0  0  0  0  0  0  0  0  0
   -0.0010    3.8317    0.8232 H   0  0  0  0  0  0  0  0  0  0  0  0
   -0.2589    3.0643    2.4285 H   0  0  0  0  0  0  0  0  0  0  0  0
    2.0952   -0.8712   -0.9708 H   0  0  0  0  0  0  0  0  0  0  0  0
    3.5483   -2.8488   -1.2502 H   0  0  0  0  0  0  0  0  0  0  0  0
  1  2  1  0
  2  3  2  0
  3  4  1  0
  4  5  2  0
  5  6  1  0
  6  7  2  0
  6  8  2  0
  6  9  1  0
  9 10  1  0
 10 11  2  0
 11 12  1  0
 12 13  1  0
 13 14  2  0
 14 15  1  0
 15 16  2  0
 16 17  1  0
 17 18  2  0
 12 19  2  0
 19 20  1  0
 20 21  1  0
  5 22  1  0
 22 23  2  0
 23  2  1  0
 20 10  1  0
 18 13  1  0
  1 24  1  0
  1 25  1  0
  1 26  1  0
  3 27  1  0
  4 28  1  0
  9 29  1  0
 11 30  1  0
 14 31  1  0
 15 32  1  0
 16 33  1  0
 17 34  1  0
 18 35  1  0
 21 36  1  0
 21 37  1  0
 21 38  1  0
 22 39  1  0
 23 40  1  0
M  END
$$$$
