
     RDKit          3D

 30 31  0  0  0  0  0  0  0  0999 V2000
    2.9008   -3.5993    0.1022 N   0  0  0  0  0  0  0  0  0  0  0  0
    3.2916   -2.5462    0.3925 C   0  0  0  0  0  0  0  0  0  0  0  0
    3.8486   -1.2359    0.7527 C   0  0  0  0  0  0  0  0  0  0  0  0
    2.9375   -0.4558    1.6878 C   0  0  0  0  0  0  0  0  0  0  0  0
    1.7714    0.0752    1.0078 N   0  0  0  0  0  0  0  0  0  0  0  0
    1.6640    1.2812    0.3920 C   0  0  0  0  0  0  0  0  0  0  0  0
    0.3945    1.3246   -0.1533 C   0  0  0  0  0  0  0  0  0  0  0  0
   -0.1566    2.3932   -0.9519 C   0  0  0  0  0  0  0  0  0  0  0  0
    0.5312    3.4765   -1.1258 N   0  0  0  0  0  0  0  0  0  0  0  0
   -0.2041    4.3588   -1.9287 O   0  0  0  0  0  0  0  0  0  0  0  0
   -0.2042    0.0856    0.2303 C   0  0  0  0  0  0  0  0  0  0  0  0
   -1.5487   -0.4135   -0.0500 C   0  0  0  0  0  0  0  0  0  0  0  0
   -2.6770    0.3906    0.1628 C   0  0  0  0  0  0  0  0  0  0  0  0
   -3.9568   -0.1022   -0.1113 C   0  0  0  0  0  0  0  0  0  0  0  0
   -4.1125   -1.4021   -0.5903 C   0  0  0  0  0  0  0  0  0  0  0  0
   -5.6884   -2.0048   -0.9261 Cl  0  0  0  0  0  0  0  0  0  0  0  0
   -3.0012   -2.2172   -0.7920 C   0  0  0  0  0  0  0  0  0  0  0  0
   -1.7223   -1.7247   -0.5181 C   0  0  0  0  0  0  0  0  0  0  0  0
    0.6620   -0.6670    0.9283 N   0  0  0  0  0  0  0  0  0  0  0  0
    4.8112   -1.3946    1.2534 H   0  0  0  0  0  0  0  0  0  0  0  0
    4.0553   -0.6594   -0.1567 H   0  0  0  0  0  0  0  0  0  0  0  0
    2.5879   -1.0658    2.5294 H   0  0  0  0  0  0  0  0  0  0  0  0
    3.4771    0.4031    2.1040 H   0  0  0  0  0  0  0  0  0  0  0  0
    2.4757    1.9956    0.3639 H   0  0  0  0  0  0  0  0  0  0  0  0
   -1.1548    2.2601   -1.4022 H   0  0  0  0  0  0  0  0  0  0  0  0
    0.3959    5.1249   -2.0035 H   0  0  0  0  0  0  0  0  0  0  0  0
   -2.5763    1.3965    0.5635 H   0  0  0  0  0  0  0  0  0  0  0  0
   -4.8257    0.5280    0.0595 H   0  0  0  0  0  0  0  0  0  0  0  0
   -3.1188   -3.2349   -1.1544 H   0  0  0  0  0  0  0  0  0  0  0  0
   -0.8573   -2.3704   -0.6658 H   0  0  0  0  0  0  0  0  0  0  0  0
  1  2  3  0
  2  3  1  0
  3  4  1  0
  4  5  1  0
  5  6  1  0
  6  7  2  0
  7  8  1  0
  8  9  2  3
  9 10  1  0
  7 11  1  0
 11 12  1  0
 12 13  2  0
 13 14  1  0
 14 15  2  0
 15 16  1  0
 15 17  1  0
 17 18  2  0
 11 19  2  0
 19  5  1  0
 18 12  1  0
  3 20  1  0
  3 21  1  0
  4 22  1  0
  4 23  1  0
  6 24  1  0
  8 25  1  0
 10 26  1  0
 13 27  1  0
 14 28  1  0
 17 29  1  0
 18 30  1  0
M  END
$$$$
