
     RDKit          3D

 53 56  0  0  0  0  0  0  0  0999 V2000
   -4.2404    2.1335    0.3505 C   0  0  0  0  0  0  0  0  0  0  0  0
   -4.3099    1.0132    1.3810 C   0  0  0  0  0  0  0  0  0  0  0  0
   -3.4989   -0.2270    0.9644 C   0  0  0  0  0  0  0  0  0  0  0  0
   -3.6977   -1.3983    1.9528 C   0  0  0  0  0  0  0  0  0  0  0  0
   -5.0718   -2.0210    1.8961 C   0  0  0  0  0  0  0  0  0  0  0  0
   -5.9942   -1.8196    2.9312 C   0  0  0  0  0  0  0  0  0  0  0  0
   -7.2633   -2.3976    2.8676 C   0  0  0  0  0  0  0  0  0  0  0  0
   -7.6198   -3.1843    1.7737 C   0  0  0  0  0  0  0  0  0  0  0  0
   -6.7089   -3.3929    0.7399 C   0  0  0  0  0  0  0  0  0  0  0  0
   -5.4404   -2.8151    0.8006 C   0  0  0  0  0  0  0  0  0  0  0  0
   -2.0752    0.1076    0.8796 N   0  0  0  0  0  0  0  0  0  0  0  0
   -1.2128   -0.6090    0.0760 C   0  0  0  0  0  0  0  0  0  0  0  0
   -1.5711   -1.5178   -0.6642 O   0  0  0  0  0  0  0  0  0  0  0  0
    0.2193   -0.2069    0.1180 C   0  0  0  0  0  0  0  0  0  0  0  0
    0.8121    0.2782    1.2869 C   0  0  0  0  0  0  0  0  0  0  0  0
    2.1643    0.6434    1.2938 C   0  0  0  0  0  0  0  0  0  0  0  0
    2.9335    0.5172    0.1187 C   0  0  0  0  0  0  0  0  0  0  0  0
    4.2689    0.8435   -0.0124 N   0  0  0  0  0  0  0  0  0  0  0  0
    4.7042    0.6151   -1.2332 C   0  0  0  0  0  0  0  0  0  0  0  0
    5.9894    0.8540   -1.6221 N   0  0  0  0  0  0  0  0  0  0  0  0
    6.4155    0.7911   -3.0240 C   0  0  0  0  0  0  0  0  0  0  0  0
    7.9430    0.9303   -3.1224 C   0  0  0  0  0  0  0  0  0  0  0  0
    8.4514    2.1501   -2.5640 O   0  0  0  0  0  0  0  0  0  0  0  0
    7.6685    2.6466   -1.4678 C   0  0  0  0  0  0  0  0  0  0  0  0
    6.8988    1.5571   -0.7064 C   0  0  0  0  0  0  0  0  0  0  0  0
    3.4910   -0.0291   -2.2898 S   0  0  0  0  0  0  0  0  0  0  0  0
    2.3273    0.0184   -1.0304 C   0  0  0  0  0  0  0  0  0  0  0  0
    0.9744   -0.3589   -1.0553 C   0  0  0  0  0  0  0  0  0  0  0  0
   -4.6211    1.7970   -0.6190 H   0  0  0  0  0  0  0  0  0  0  0  0
   -3.2163    2.4936    0.2141 H   0  0  0  0  0  0  0  0  0  0  0  0
   -4.8493    2.9809    0.6779 H   0  0  0  0  0  0  0  0  0  0  0  0
   -3.9489    1.3951    2.3437 H   0  0  0  0  0  0  0  0  0  0  0  0
   -5.3640    0.7470    1.5142 H   0  0  0  0  0  0  0  0  0  0  0  0
   -3.8228   -0.5401   -0.0362 H   0  0  0  0  0  0  0  0  0  0  0  0
   -2.9669   -2.1926    1.7511 H   0  0  0  0  0  0  0  0  0  0  0  0
   -3.4761   -1.0619    2.9743 H   0  0  0  0  0  0  0  0  0  0  0  0
   -5.7321   -1.2105    3.7926 H   0  0  0  0  0  0  0  0  0  0  0  0
   -7.9731   -2.2374    3.6745 H   0  0  0  0  0  0  0  0  0  0  0  0
   -8.6064   -3.6367    1.7271 H   0  0  0  0  0  0  0  0  0  0  0  0
   -6.9837   -4.0090   -0.1129 H   0  0  0  0  0  0  0  0  0  0  0  0
   -4.7358   -2.9905   -0.0109 H   0  0  0  0  0  0  0  0  0  0  0  0
   -1.7292    0.8756    1.4379 H   0  0  0  0  0  0  0  0  0  0  0  0
    0.2508    0.3527    2.2143 H   0  0  0  0  0  0  0  0  0  0  0  0
    2.6342    1.0156    2.1994 H   0  0  0  0  0  0  0  0  0  0  0  0
    5.9412    1.6082   -3.5819 H   0  0  0  0  0  0  0  0  0  0  0  0
    6.1292   -0.1628   -3.4804 H   0  0  0  0  0  0  0  0  0  0  0  0
    8.2545    0.8955   -4.1708 H   0  0  0  0  0  0  0  0  0  0  0  0
    8.4369    0.0974   -2.6081 H   0  0  0  0  0  0  0  0  0  0  0  0
    8.3494    3.1720   -0.7906 H   0  0  0  0  0  0  0  0  0  0  0  0
    6.9717    3.3901   -1.8713 H   0  0  0  0  0  0  0  0  0  0  0  0
    6.3752    2.0277    0.1333 H   0  0  0  0  0  0  0  0  0  0  0  0
    7.6024    0.8251   -0.2935 H   0  0  0  0  0  0  0  0  0  0  0  0
    0.5226   -0.7537   -1.9622 H   0  0  0  0  0  0  0  0  0  0  0  0
  1  2  1  0
  2  3  1  0
  3  4  1  0
  4  5  1  0
  5  6  2  0
  6  7  1  0
  7  8  2  0
  8  9  1  0
  9 10  2  0
  3 11  1  0
 11 12  1  0
 12 13  2  0
 12 14  1  0
 14 15  2  0
 15 16  1  0
 16 17  2  0
 17 18  1  0
 18 19  2  0
 19 20  1  0
 20 21  1  0
 21 22  1  0
 22 23  1  0
 23 24  1  0
 24 25  1  0
 19 26  1  0
 26 27  1  0
 27 28  2  0
 10  5  1  0
 28 14  1  0
 27 17  1  0
 25 20  1  0
  1 29  1  0
  1 30  1  0
  1 31  1  0
  2 32  1  0
  2 33  1  0
  3 34  1  0
  4 35  1  0
  4 36  1  0
  6 37  1  0
  7 38  1  0
  8 39  1  0
  9 40  1  0
 10 41  1  0
 11 42  1  0
 15 43  1  0
 16 44  1  0
 21 45  1  0
 21 46  1  0
 22 47  1  0
 22 48  1  0
 24 49  1  0
 24 50  1  0
 25 51  1  0
 25 52  1  0
 28 53  1  0
M  END
$$$$
