
     RDKit          3D

 39 41  0  0  0  0  0  0  0  0999 V2000
   -6.8469   -0.7512   -0.0429 C   0  0  0  0  0  0  0  0  0  0  0  0
   -5.7568   -0.6489    0.8647 O   0  0  0  0  0  0  0  0  0  0  0  0
   -4.5721   -0.1922    0.3578 C   0  0  0  0  0  0  0  0  0  0  0  0
   -4.3245    0.1532   -0.9698 C   0  0  0  0  0  0  0  0  0  0  0  0
   -3.0578    0.6100   -1.3587 C   0  0  0  0  0  0  0  0  0  0  0  0
   -2.0214    0.7149   -0.4240 C   0  0  0  0  0  0  0  0  0  0  0  0
   -0.7229    1.1738   -0.8155 N   0  0  0  0  0  0  0  0  0  0  0  0
   -0.4385    2.1109   -1.8143 C   0  0  0  0  0  0  0  0  0  0  0  0
   -1.3823    2.6594   -2.5778 O   0  0  0  0  0  0  0  0  0  0  0  0
    0.9122    2.3887   -1.7784 C   0  0  0  0  0  0  0  0  0  0  0  0
    1.4893    1.5750   -0.7890 C   0  0  0  0  0  0  0  0  0  0  0  0
    2.8060    1.5588   -0.4797 N   0  0  0  0  0  0  0  0  0  0  0  0
    3.3661    0.5541    0.3205 N   0  0  0  0  0  0  0  0  0  0  0  0
    4.6094    0.0586   -0.0339 C   0  0  0  0  0  0  0  0  0  0  0  0
    5.3289    0.6259   -0.8581 O   0  0  0  0  0  0  0  0  0  0  0  0
    4.9711   -1.1706    0.6388 C   0  0  0  0  0  0  0  0  0  0  0  0
    6.1140   -1.9448    0.5612 C   0  0  0  0  0  0  0  0  0  0  0  0
    5.9263   -3.0409    1.4367 C   0  0  0  0  0  0  0  0  0  0  0  0
    4.6819   -2.8741    1.9959 C   0  0  0  0  0  0  0  0  0  0  0  0
    4.0922   -1.7473    1.5205 O   0  0  0  0  0  0  0  0  0  0  0  0
    0.4967    0.7818   -0.2464 C   0  0  0  0  0  0  0  0  0  0  0  0
    0.6317   -0.2309    0.6212 O   0  0  0  0  0  0  0  0  0  0  0  0
   -2.2772    0.3806    0.9127 C   0  0  0  0  0  0  0  0  0  0  0  0
   -3.5438   -0.0726    1.2939 C   0  0  0  0  0  0  0  0  0  0  0  0
   -6.6345   -1.4782   -0.8338 H   0  0  0  0  0  0  0  0  0  0  0  0
   -7.7149   -1.1128    0.5168 H   0  0  0  0  0  0  0  0  0  0  0  0
   -7.1051    0.2267   -0.4626 H   0  0  0  0  0  0  0  0  0  0  0  0
   -5.0919    0.0787   -1.7332 H   0  0  0  0  0  0  0  0  0  0  0  0
   -2.9009    0.8465   -2.4080 H   0  0  0  0  0  0  0  0  0  0  0  0
   -0.9533    3.3291   -3.1401 H   0  0  0  0  0  0  0  0  0  0  0  0
    1.4259    3.1052   -2.4043 H   0  0  0  0  0  0  0  0  0  0  0  0
    3.4995    2.0140   -1.0812 H   0  0  0  0  0  0  0  0  0  0  0  0
    2.7057   -0.0341    0.8300 H   0  0  0  0  0  0  0  0  0  0  0  0
    6.9744   -1.7299   -0.0585 H   0  0  0  0  0  0  0  0  0  0  0  0
    6.6128   -3.8518    1.6359 H   0  0  0  0  0  0  0  0  0  0  0  0
    4.1009   -3.4393    2.7117 H   0  0  0  0  0  0  0  0  0  0  0  0
   -0.1375   -0.8217    0.5237 H   0  0  0  0  0  0  0  0  0  0  0  0
   -1.5269    0.5146    1.6892 H   0  0  0  0  0  0  0  0  0  0  0  0
   -3.7358   -0.3190    2.3359 H   0  0  0  0  0  0  0  0  0  0  0  0
  1  2  1  0
  2  3  1  0
  3  4  2  0
  4  5  1  0
  5  6  2  0
  6  7  1  0
  7  8  1  0
  8  9  1  0
  8 10  2  0
 10 11  1  0
 11 12  1  0
 12 13  1  0
 13 14  1  0
 14 15  2  0
 14 16  1  0
 16 17  2  0
 17 18  1  0
 18 19  2  0
 19 20  1  0
 11 21  2  0
 21 22  1  0
  6 23  1  0
 23 24  2  0
 24  3  1  0
 21  7  1  0
 20 16  1  0
  1 25  1  0
  1 26  1  0
  1 27  1  0
  4 28  1  0
  5 29  1  0
  9 30  1  0
 10 31  1  0
 12 32  1  0
 13 33  1  0
 17 34  1  0
 18 35  1  0
 19 36  1  0
 22 37  1  0
 23 38  1  0
 24 39  1  0
M  END
$$$$
