
     RDKit          3D

 81 85  0  0  0  0  0  0  0  0999 V2000
   -5.7943    2.9778    0.7570 C   0  0  0  0  0  0  0  0  0  0  0  0
   -5.2437    1.7439    0.0147 C   0  0  0  0  0  0  0  0  0  0  0  0
   -5.6304    1.8834   -1.4716 C   0  0  0  0  0  0  0  0  0  0  0  0
   -5.8787    0.4736    0.6202 C   0  0  0  0  0  0  0  0  0  0  0  0
   -5.2557   -0.8324    0.1169 C   0  0  0  0  0  0  0  0  0  0  0  0
   -3.7195   -0.8862    0.2769 C   0  0  0  0  0  0  0  0  0  0  0  0
   -3.4193   -1.1473    1.7620 C   0  0  0  0  0  0  0  0  0  0  0  0
   -3.2867   -2.2442    2.2867 O   0  0  0  0  0  0  0  0  0  0  0  0
   -3.3788   -0.0575    2.5452 O   0  0  0  0  0  0  0  0  0  0  0  0
   -3.1711   -2.1105   -0.5123 C   0  0  0  0  0  0  0  0  0  0  0  0
   -1.6278   -2.1737   -0.5684 C   0  0  0  0  0  0  0  0  0  0  0  0
   -0.9195   -0.8698   -1.0741 C   0  0  0  0  0  0  0  0  0  0  0  0
   -1.2929   -0.6536   -2.5731 C   0  0  0  0  0  0  0  0  0  0  0  0
   -1.5415    0.2525   -0.2267 C   0  0  0  0  0  0  0  0  0  0  0  0
   -0.8261    0.9573    0.6581 C   0  0  0  0  0  0  0  0  0  0  0  0
    0.5975    0.7098    0.9971 C   0  0  0  0  0  0  0  0  0  0  0  0
    1.2095   -0.6350    0.5137 C   0  0  0  0  0  0  0  0  0  0  0  0
    2.8070   -0.6166    0.7152 C   0  0  0  0  0  0  0  0  0  0  0  0
    3.3384   -2.0724    0.6357 C   0  0  0  0  0  0  0  0  0  0  0  0
    3.1906   -0.0909    2.1350 C   0  0  0  0  0  0  0  0  0  0  0  0
    4.6919    0.1152    2.3386 C   0  0  0  0  0  0  0  0  0  0  0  0
    5.2940    1.0434    1.2858 C   0  0  0  0  0  0  0  0  0  0  0  0
    6.6941    1.1260    1.5502 O   0  0  0  0  0  0  0  0  0  0  0  0
    5.0056    0.6061   -0.1844 C   0  0  0  0  0  0  0  0  0  0  0  0
    5.8830   -0.5960   -0.5886 C   0  0  0  0  0  0  0  0  0  0  0  0
    5.4344    1.7749   -1.1159 C   0  0  0  0  0  0  0  0  0  0  0  0
    3.4527    0.3574   -0.3383 C   0  0  0  0  0  0  0  0  0  0  0  0
    2.9799    0.0455   -1.7702 C   0  0  0  0  0  0  0  0  0  0  0  0
    1.4474    0.0131   -1.9115 C   0  0  0  0  0  0  0  0  0  0  0  0
    0.7155   -0.9760   -0.9527 C   0  0  0  0  0  0  0  0  0  0  0  0
    1.1100   -2.4173   -1.3906 C   0  0  0  0  0  0  0  0  0  0  0  0
   -3.0659    0.3909   -0.3184 C   0  0  0  0  0  0  0  0  0  0  0  0
   -3.7043    1.7080    0.1820 C   0  0  0  0  0  0  0  0  0  0  0  0
   -6.8842    3.0434    0.6626 H   0  0  0  0  0  0  0  0  0  0  0  0
   -5.5565    2.9378    1.8260 H   0  0  0  0  0  0  0  0  0  0  0  0
   -5.3670    3.9038    0.3560 H   0  0  0  0  0  0  0  0  0  0  0  0
   -5.3024    1.0323   -2.0747 H   0  0  0  0  0  0  0  0  0  0  0  0
   -6.7177    1.9615   -1.5873 H   0  0  0  0  0  0  0  0  0  0  0  0
   -5.1871    2.7854   -1.9087 H   0  0  0  0  0  0  0  0  0  0  0  0
   -5.7967    0.5058    1.7138 H   0  0  0  0  0  0  0  0  0  0  0  0
   -6.9551    0.4552    0.4051 H   0  0  0  0  0  0  0  0  0  0  0  0
   -5.5246   -0.9654   -0.9384 H   0  0  0  0  0  0  0  0  0  0  0  0
   -5.7219   -1.6695    0.6532 H   0  0  0  0  0  0  0  0  0  0  0  0
   -3.1973   -0.4229    3.4360 H   0  0  0  0  0  0  0  0  0  0  0  0
   -3.5646   -2.0963   -1.5362 H   0  0  0  0  0  0  0  0  0  0  0  0
   -3.5409   -3.0486   -0.0777 H   0  0  0  0  0  0  0  0  0  0  0  0
   -1.2524   -2.4285    0.4308 H   0  0  0  0  0  0  0  0  0  0  0  0
   -1.3800   -3.0217   -1.2171 H   0  0  0  0  0  0  0  0  0  0  0  0
   -0.7744   -1.3580   -3.2302 H   0  0  0  0  0  0  0  0  0  0  0  0
   -1.0461    0.3623   -2.9022 H   0  0  0  0  0  0  0  0  0  0  0  0
   -2.3555   -0.7976   -2.7849 H   0  0  0  0  0  0  0  0  0  0  0  0
   -1.2973    1.7281    1.2624 H   0  0  0  0  0  0  0  0  0  0  0  0
    0.6485    0.7308    2.0929 H   0  0  0  0  0  0  0  0  0  0  0  0
    1.1600    1.5757    0.6393 H   0  0  0  0  0  0  0  0  0  0  0  0
    0.8057   -1.4101    1.1814 H   0  0  0  0  0  0  0  0  0  0  0  0
    3.6610   -2.3545   -0.3664 H   0  0  0  0  0  0  0  0  0  0  0  0
    4.1988   -2.2564    1.2824 H   0  0  0  0  0  0  0  0  0  0  0  0
    2.5848   -2.7906    0.9759 H   0  0  0  0  0  0  0  0  0  0  0  0
    2.7305    0.8840    2.3259 H   0  0  0  0  0  0  0  0  0  0  0  0
    2.8066   -0.7727    2.9042 H   0  0  0  0  0  0  0  0  0  0  0  0
    4.8584    0.5526    3.3322 H   0  0  0  0  0  0  0  0  0  0  0  0
    5.2365   -0.8339    2.3693 H   0  0  0  0  0  0  0  0  0  0  0  0
    4.8780    2.0463    1.4523 H   0  0  0  0  0  0  0  0  0  0  0  0
    7.0431    1.8993    1.0774 H   0  0  0  0  0  0  0  0  0  0  0  0
    5.8353   -1.4168    0.1275 H   0  0  0  0  0  0  0  0  0  0  0  0
    6.9399   -0.3089   -0.6493 H   0  0  0  0  0  0  0  0  0  0  0  0
    5.6079   -0.9856   -1.5734 H   0  0  0  0  0  0  0  0  0  0  0  0
    4.8193    2.6651   -0.9443 H   0  0  0  0  0  0  0  0  0  0  0  0
    6.4793    2.0616   -0.9553 H   0  0  0  0  0  0  0  0  0  0  0  0
    5.3514    1.5040   -2.1733 H   0  0  0  0  0  0  0  0  0  0  0  0
    3.0268    1.3487   -0.1289 H   0  0  0  0  0  0  0  0  0  0  0  0
    3.3355    0.8186   -2.4596 H   0  0  0  0  0  0  0  0  0  0  0  0
    3.4151   -0.8900   -2.1306 H   0  0  0  0  0  0  0  0  0  0  0  0
    1.0646    1.0303   -1.7627 H   0  0  0  0  0  0  0  0  0  0  0  0
    1.2361   -0.2421   -2.9568 H   0  0  0  0  0  0  0  0  0  0  0  0
    0.8956   -3.1485   -0.6046 H   0  0  0  0  0  0  0  0  0  0  0  0
    2.1565   -2.5253   -1.6666 H   0  0  0  0  0  0  0  0  0  0  0  0
    0.5705   -2.7317   -2.2894 H   0  0  0  0  0  0  0  0  0  0  0  0
   -3.2967    0.4051   -1.3889 H   0  0  0  0  0  0  0  0  0  0  0  0
   -3.2588    2.5501   -0.3658 H   0  0  0  0  0  0  0  0  0  0  0  0
   -3.4638    1.8882    1.2342 H   0  0  0  0  0  0  0  0  0  0  0  0
  1  2  1  0
  2  3  1  0
  2  4  1  0
  4  5  1  0
  5  6  1  0
  6  7  1  0
  7  8  2  0
  7  9  1  0
  6 10  1  0
 10 11  1  0
 11 12  1  0
 12 13  1  0
 12 14  1  0
 14 15  2  0
 15 16  1  0
 16 17  1  0
 17 18  1  0
 18 19  1  0
 18 20  1  0
 20 21  1  0
 21 22  1  0
 22 23  1  0
 22 24  1  0
 24 25  1  0
 24 26  1  0
 24 27  1  0
 27 28  1  0
 28 29  1  0
 29 30  1  0
 30 31  1  0
 14 32  1  0
 32 33  1  0
 33  2  1  0
 32  6  1  0
 30 12  1  0
 30 17  1  0
 27 18  1  0
  1 34  1  0
  1 35  1  0
  1 36  1  0
  3 37  1  0
  3 38  1  0
  3 39  1  0
  4 40  1  0
  4 41  1  0
  5 42  1  0
  5 43  1  0
  9 44  1  0
 10 45  1  0
 10 46  1  0
 11 47  1  0
 11 48  1  0
 13 49  1  0
 13 50  1  0
 13 51  1  0
 15 52  1  0
 16 53  1  0
 16 54  1  0
 17 55  1  0
 19 56  1  0
 19 57  1  0
 19 58  1  0
 20 59  1  0
 20 60  1  0
 21 61  1  0
 21 62  1  0
 22 63  1  0
 23 64  1  0
 25 65  1  0
 25 66  1  0
 25 67  1  0
 26 68  1  0
 26 69  1  0
 26 70  1  0
 27 71  1  0
 28 72  1  0
 28 73  1  0
 29 74  1  0
 29 75  1  0
 31 76  1  0
 31 77  1  0
 31 78  1  0
 32 79  1  0
 33 80  1  0
 33 81  1  0
M  END
$$$$
