
     RDKit          3D

 50 53  0  0  0  0  0  0  0  0999 V2000
    1.2379    3.9044    1.1804 C   0  0  0  0  0  0  0  0  0  0  0  0
    0.8994    3.2350   -0.1432 C   0  0  0  0  0  0  0  0  0  0  0  0
    0.5766    1.7703    0.0338 C   0  0  0  0  0  0  0  0  0  0  0  0
    1.5947    0.8151   -0.1158 C   0  0  0  0  0  0  0  0  0  0  0  0
    1.3384   -0.5489    0.0646 C   0  0  0  0  0  0  0  0  0  0  0  0
    2.3924   -1.5664   -0.0792 C   0  0  0  0  0  0  0  0  0  0  0  0
    3.7992   -1.3064   -0.4408 C   0  0  0  0  0  0  0  0  0  0  0  0
    4.7583   -1.0981    0.5584 C   0  0  0  0  0  0  0  0  0  0  0  0
    6.0882   -0.8510    0.2136 C   0  0  0  0  0  0  0  0  0  0  0  0
    6.4657   -0.8110   -1.1283 C   0  0  0  0  0  0  0  0  0  0  0  0
    5.5156   -1.0175   -2.1278 C   0  0  0  0  0  0  0  0  0  0  0  0
    4.1849   -1.2649   -1.7866 C   0  0  0  0  0  0  0  0  0  0  0  0
    2.0675   -2.8515    0.1298 C   0  0  0  0  0  0  0  0  0  0  0  0
    0.7159   -3.2899    0.4948 C   0  0  0  0  0  0  0  0  0  0  0  0
    0.4661   -4.4753    0.6784 O   0  0  0  0  0  0  0  0  0  0  0  0
   -0.2494   -2.3065    0.6171 O   0  0  0  0  0  0  0  0  0  0  0  0
    0.0395   -0.9399    0.4016 C   0  0  0  0  0  0  0  0  0  0  0  0
   -1.0163   -0.0227    0.5511 C   0  0  0  0  0  0  0  0  0  0  0  0
   -2.3878   -0.5024    0.9900 C   0  0  0  0  0  0  0  0  0  0  0  0
   -3.5038    0.2918    0.4242 N   0  0  0  0  0  0  0  0  0  0  0  0
   -3.7253   -0.0147   -1.0147 C   0  0  0  0  0  0  0  0  0  0  0  0
   -4.8715   -1.0065   -1.2687 C   0  0  0  0  0  0  0  0  0  0  0  0
   -6.1320   -0.5490   -0.7626 O   0  0  0  0  0  0  0  0  0  0  0  0
   -6.0060    0.3178    0.3724 C   0  0  0  0  0  0  0  0  0  0  0  0
   -4.7441    0.0272    1.1966 C   0  0  0  0  0  0  0  0  0  0  0  0
   -0.7136    1.3376    0.3725 C   0  0  0  0  0  0  0  0  0  0  0  0
   -1.6823    2.2959    0.5229 O   0  0  0  0  0  0  0  0  0  0  0  0
    2.1027    3.4286    1.6553 H   0  0  0  0  0  0  0  0  0  0  0  0
    0.3987    3.8508    1.8819 H   0  0  0  0  0  0  0  0  0  0  0  0
    1.4776    4.9602    1.0197 H   0  0  0  0  0  0  0  0  0  0  0  0
    1.7448    3.3451   -0.8338 H   0  0  0  0  0  0  0  0  0  0  0  0
    0.0593    3.7516   -0.6225 H   0  0  0  0  0  0  0  0  0  0  0  0
    2.5975    1.1549   -0.3692 H   0  0  0  0  0  0  0  0  0  0  0  0
    4.4756   -1.1235    1.6086 H   0  0  0  0  0  0  0  0  0  0  0  0
    6.8299   -0.6888    0.9917 H   0  0  0  0  0  0  0  0  0  0  0  0
    7.5019   -0.6184   -1.3954 H   0  0  0  0  0  0  0  0  0  0  0  0
    5.8114   -0.9855   -3.1733 H   0  0  0  0  0  0  0  0  0  0  0  0
    3.4525   -1.4216   -2.5753 H   0  0  0  0  0  0  0  0  0  0  0  0
    2.7920   -3.6546    0.0409 H   0  0  0  0  0  0  0  0  0  0  0  0
   -2.3980   -0.4160    2.0849 H   0  0  0  0  0  0  0  0  0  0  0  0
   -2.5388   -1.5613    0.7476 H   0  0  0  0  0  0  0  0  0  0  0  0
   -2.8109   -0.3688   -1.5041 H   0  0  0  0  0  0  0  0  0  0  0  0
   -3.9826    0.9358   -1.4991 H   0  0  0  0  0  0  0  0  0  0  0  0
   -4.6520   -1.9790   -0.8130 H   0  0  0  0  0  0  0  0  0  0  0  0
   -4.9928   -1.1723   -2.3441 H   0  0  0  0  0  0  0  0  0  0  0  0
   -6.0126    1.3549    0.0169 H   0  0  0  0  0  0  0  0  0  0  0  0
   -6.8996    0.1799    0.9898 H   0  0  0  0  0  0  0  0  0  0  0  0
   -4.7385    0.6520    2.0963 H   0  0  0  0  0  0  0  0  0  0  0  0
   -4.7809   -1.0231    1.5155 H   0  0  0  0  0  0  0  0  0  0  0  0
   -2.5452    1.8263    0.5464 H   0  0  0  0  0  0  0  0  0  0  0  0
  1  2  1  0
  2  3  1  0
  3  4  2  0
  4  5  1  0
  5  6  1  0
  6  7  1  0
  7  8  2  0
  8  9  1  0
  9 10  2  0
 10 11  1  0
 11 12  2  0
  6 13  2  0
 13 14  1  0
 14 15  2  0
 14 16  1  0
 16 17  1  0
 17 18  1  0
 18 19  1  0
 19 20  1  0
 20 21  1  0
 21 22  1  0
 22 23  1  0
 23 24  1  0
 24 25  1  0
 18 26  2  0
 26 27  1  0
 26  3  1  0
 17  5  2  0
 25 20  1  0
 12  7  1  0
  1 28  1  0
  1 29  1  0
  1 30  1  0
  2 31  1  0
  2 32  1  0
  4 33  1  0
  8 34  1  0
  9 35  1  0
 10 36  1  0
 11 37  1  0
 12 38  1  0
 13 39  1  0
 19 40  1  0
 19 41  1  0
 21 42  1  0
 21 43  1  0
 22 44  1  0
 22 45  1  0
 24 46  1  0
 24 47  1  0
 25 48  1  0
 25 49  1  0
 27 50  1  0
M  END
$$$$
