
     RDKit          3D

 53 56  0  0  0  0  0  0  0  0999 V2000
    5.9906    0.1424   -1.0188 C   0  0  0  0  0  0  0  0  0  0  0  0
    5.5850   -0.8360   -0.0718 O   0  0  0  0  0  0  0  0  0  0  0  0
    4.5850   -0.4796    0.7911 C   0  0  0  0  0  0  0  0  0  0  0  0
    4.1749   -1.4919    1.6610 C   0  0  0  0  0  0  0  0  0  0  0  0
    3.1516   -1.2685    2.5888 C   0  0  0  0  0  0  0  0  0  0  0  0
    2.5233   -0.0193    2.6625 C   0  0  0  0  0  0  0  0  0  0  0  0
    1.4055    0.2258    3.6424 C   0  0  0  0  0  0  0  0  0  0  0  0
    0.1704   -0.3892    3.2040 N   0  0  0  0  0  0  0  0  0  0  0  0
   -0.7528    0.2984    2.4326 C   0  0  0  0  0  0  0  0  0  0  0  0
   -0.5980    1.4970    2.1832 O   0  0  0  0  0  0  0  0  0  0  0  0
   -2.0267   -0.4566    2.0357 C   0  0  0  0  0  0  0  0  0  0  0  0
   -1.8489   -1.9157    2.0033 C   0  0  0  0  0  0  0  0  0  0  0  0
   -1.6749   -3.0650    2.0321 N   0  0  0  0  0  0  0  0  0  0  0  0
   -2.6324    0.0445    0.7455 C   0  0  0  0  0  0  0  0  0  0  0  0
   -3.9033    0.5382    0.8164 N   0  0  0  0  0  0  0  0  0  0  0  0
   -4.4584    0.9560   -0.3335 C   0  0  0  0  0  0  0  0  0  0  0  0
   -5.7423    1.4906   -0.3211 C   0  0  0  0  0  0  0  0  0  0  0  0
   -6.3555    1.9323   -1.4934 C   0  0  0  0  0  0  0  0  0  0  0  0
   -5.6734    1.8380   -2.6996 C   0  0  0  0  0  0  0  0  0  0  0  0
   -4.3844    1.3034   -2.7208 C   0  0  0  0  0  0  0  0  0  0  0  0
   -3.7630    0.8616   -1.5590 C   0  0  0  0  0  0  0  0  0  0  0  0
   -2.5174    0.3555   -1.6237 N   0  0  0  0  0  0  0  0  0  0  0  0
   -1.9385   -0.0466   -0.4701 C   0  0  0  0  0  0  0  0  0  0  0  0
   -0.6394   -0.5903   -0.4986 N   0  0  0  0  0  0  0  0  0  0  0  0
    0.3313    0.4120   -0.9935 C   0  0  0  0  0  0  0  0  0  0  0  0
    1.3038   -0.3895   -1.8488 C   0  0  0  0  0  0  0  0  0  0  0  0
    0.3805   -1.3882   -2.5170 C   0  0  0  0  0  0  0  0  0  0  0  0
   -0.5582   -1.7780   -1.3810 C   0  0  0  0  0  0  0  0  0  0  0  0
    2.9392    0.9937    1.7900 C   0  0  0  0  0  0  0  0  0  0  0  0
    3.9649    0.7676    0.8615 C   0  0  0  0  0  0  0  0  0  0  0  0
    6.7343   -0.3172   -1.6794 H   0  0  0  0  0  0  0  0  0  0  0  0
    6.4636    0.9931   -0.5205 H   0  0  0  0  0  0  0  0  0  0  0  0
    5.1494    0.4650   -1.6432 H   0  0  0  0  0  0  0  0  0  0  0  0
    4.6541   -2.4674    1.6110 H   0  0  0  0  0  0  0  0  0  0  0  0
    2.8516   -2.0768    3.2498 H   0  0  0  0  0  0  0  0  0  0  0  0
    1.2553    1.2989    3.8072 H   0  0  0  0  0  0  0  0  0  0  0  0
    1.6651   -0.2158    4.6121 H   0  0  0  0  0  0  0  0  0  0  0  0
    0.1538   -1.4028    3.2241 H   0  0  0  0  0  0  0  0  0  0  0  0
   -2.7385   -0.2357    2.8451 H   0  0  0  0  0  0  0  0  0  0  0  0
   -6.2711    1.5640    0.6250 H   0  0  0  0  0  0  0  0  0  0  0  0
   -7.3581    2.3504   -1.4583 H   0  0  0  0  0  0  0  0  0  0  0  0
   -6.1379    2.1813   -3.6204 H   0  0  0  0  0  0  0  0  0  0  0  0
   -3.8499    1.2296   -3.6634 H   0  0  0  0  0  0  0  0  0  0  0  0
   -0.1307    1.1960   -1.6110 H   0  0  0  0  0  0  0  0  0  0  0  0
    0.8408    0.9000   -0.1588 H   0  0  0  0  0  0  0  0  0  0  0  0
    1.8470    0.2351   -2.5638 H   0  0  0  0  0  0  0  0  0  0  0  0
    2.0317   -0.9117   -1.2167 H   0  0  0  0  0  0  0  0  0  0  0  0
    0.9150   -2.2489   -2.9326 H   0  0  0  0  0  0  0  0  0  0  0  0
   -0.1802   -0.9028   -3.3262 H   0  0  0  0  0  0  0  0  0  0  0  0
   -0.1111   -2.5935   -0.8002 H   0  0  0  0  0  0  0  0  0  0  0  0
   -1.5229   -2.1380   -1.7578 H   0  0  0  0  0  0  0  0  0  0  0  0
    2.4512    1.9679    1.8157 H   0  0  0  0  0  0  0  0  0  0  0  0
    4.2486    1.5864    0.2091 H   0  0  0  0  0  0  0  0  0  0  0  0
  1  2  1  0
  2  3  1  0
  3  4  2  0
  4  5  1  0
  5  6  2  0
  6  7  1  0
  7  8  1  0
  8  9  1  0
  9 10  2  0
  9 11  1  0
 11 12  1  0
 12 13  3  0
 11 14  1  0
 14 15  2  0
 15 16  1  0
 16 17  2  0
 17 18  1  0
 18 19  2  0
 19 20  1  0
 20 21  2  0
 21 22  1  0
 22 23  2  0
 23 24  1  0
 24 25  1  0
 25 26  1  0
 26 27  1  0
 27 28  1  0
  6 29  1  0
 29 30  2  0
 30  3  1  0
 23 14  1  0
 28 24  1  0
 21 16  1  0
  1 31  1  0
  1 32  1  0
  1 33  1  0
  4 34  1  0
  5 35  1  0
  7 36  1  0
  7 37  1  0
  8 38  1  0
 11 39  1  0
 17 40  1  0
 18 41  1  0
 19 42  1  0
 20 43  1  0
 25 44  1  0
 25 45  1  0
 26 46  1  0
 26 47  1  0
 27 48  1  0
 27 49  1  0
 28 50  1  0
 28 51  1  0
 29 52  1  0
 30 53  1  0
M  END
$$$$
