
     RDKit          3D

 57 60  0  0  0  0  0  0  0  0999 V2000
   -4.8286   -3.2305   -2.4558 C   0  0  0  0  0  0  0  0  0  0  0  0
   -4.6179   -2.1915   -1.5095 O   0  0  0  0  0  0  0  0  0  0  0  0
   -3.4339   -2.1557   -0.8323 C   0  0  0  0  0  0  0  0  0  0  0  0
   -2.3989   -3.0830   -1.0224 C   0  0  0  0  0  0  0  0  0  0  0  0
   -1.2242   -3.0097   -0.2667 C   0  0  0  0  0  0  0  0  0  0  0  0
   -1.0769   -2.0026    0.6878 C   0  0  0  0  0  0  0  0  0  0  0  0
    0.1441   -1.9351    1.5118 C   0  0  0  0  0  0  0  0  0  0  0  0
    0.0362   -2.2161    2.7015 O   0  0  0  0  0  0  0  0  0  0  0  0
    1.3342   -1.5512    0.9081 N   0  0  0  0  0  0  0  0  0  0  0  0
    2.5852   -1.7553    1.6471 C   0  0  0  0  0  0  0  0  0  0  0  0
    3.6025   -0.6269    1.4091 C   0  0  0  0  0  0  0  0  0  0  0  0
    3.8110   -0.4161   -0.0415 N   0  0  0  0  0  0  0  0  0  0  0  0
    4.8777    0.4121   -0.4333 C   0  0  0  0  0  0  0  0  0  0  0  0
    5.3418    0.3532   -1.7590 C   0  0  0  0  0  0  0  0  0  0  0  0
    6.4040    1.1465   -2.2040 C   0  0  0  0  0  0  0  0  0  0  0  0
    7.0343    2.0187   -1.3243 C   0  0  0  0  0  0  0  0  0  0  0  0
    6.6043    2.0894   -0.0036 C   0  0  0  0  0  0  0  0  0  0  0  0
    5.5409    1.2909    0.4358 C   0  0  0  0  0  0  0  0  0  0  0  0
    2.5457   -0.1124   -0.7515 C   0  0  0  0  0  0  0  0  0  0  0  0
    1.5038   -1.2246   -0.5151 C   0  0  0  0  0  0  0  0  0  0  0  0
   -2.0988   -1.0828    0.9090 C   0  0  0  0  0  0  0  0  0  0  0  0
   -3.2645   -1.1477    0.1301 C   0  0  0  0  0  0  0  0  0  0  0  0
   -4.5205    0.0796    0.4089 S   0  0  0  0  0  6  0  0  0  0  0  0
   -5.1983    0.4016   -0.8298 O   0  0  0  0  0  0  0  0  0  0  0  0
   -5.2456   -0.3156    1.5974 O   0  0  0  0  0  0  0  0  0  0  0  0
   -3.6156    1.4777    0.8053 N   0  0  0  0  0  0  0  0  0  0  0  0
   -4.4230    2.5673    1.4204 C   0  0  0  0  0  0  0  0  0  0  0  0
   -3.6968    3.8417    1.0206 C   0  0  0  0  0  0  0  0  0  0  0  0
   -3.2466    3.5229   -0.3900 C   0  0  0  0  0  0  0  0  0  0  0  0
   -2.7917    2.0742   -0.2846 C   0  0  0  0  0  0  0  0  0  0  0  0
   -4.1054   -3.1694   -3.2755 H   0  0  0  0  0  0  0  0  0  0  0  0
   -4.8008   -4.2138   -1.9751 H   0  0  0  0  0  0  0  0  0  0  0  0
   -5.8272   -3.0962   -2.8819 H   0  0  0  0  0  0  0  0  0  0  0  0
   -2.4811   -3.8899   -1.7447 H   0  0  0  0  0  0  0  0  0  0  0  0
   -0.4390   -3.7486   -0.4095 H   0  0  0  0  0  0  0  0  0  0  0  0
    2.9998   -2.7101    1.3007 H   0  0  0  0  0  0  0  0  0  0  0  0
    2.3931   -1.8533    2.7205 H   0  0  0  0  0  0  0  0  0  0  0  0
    4.5439   -0.9070    1.8970 H   0  0  0  0  0  0  0  0  0  0  0  0
    3.2273    0.2945    1.8727 H   0  0  0  0  0  0  0  0  0  0  0  0
    4.8889   -0.3448   -2.4586 H   0  0  0  0  0  0  0  0  0  0  0  0
    6.7414    1.0716   -3.2338 H   0  0  0  0  0  0  0  0  0  0  0  0
    7.8622    2.6346   -1.6638 H   0  0  0  0  0  0  0  0  0  0  0  0
    7.0953    2.7650    0.6919 H   0  0  0  0  0  0  0  0  0  0  0  0
    5.2387    1.3890    1.4733 H   0  0  0  0  0  0  0  0  0  0  0  0
    2.6919   -0.0155   -1.8329 H   0  0  0  0  0  0  0  0  0  0  0  0
    2.1461    0.8420   -0.3843 H   0  0  0  0  0  0  0  0  0  0  0  0
    0.5537   -0.9133   -0.9574 H   0  0  0  0  0  0  0  0  0  0  0  0
    1.8230   -2.1468   -1.0148 H   0  0  0  0  0  0  0  0  0  0  0  0
   -1.9879   -0.3318    1.6887 H   0  0  0  0  0  0  0  0  0  0  0  0
   -5.4427    2.5760    1.0191 H   0  0  0  0  0  0  0  0  0  0  0  0
   -4.4621    2.4515    2.5068 H   0  0  0  0  0  0  0  0  0  0  0  0
   -2.8275    4.0062    1.6685 H   0  0  0  0  0  0  0  0  0  0  0  0
   -4.3399    4.7244    1.0729 H   0  0  0  0  0  0  0  0  0  0  0  0
   -4.0928    3.6024   -1.0828 H   0  0  0  0  0  0  0  0  0  0  0  0
   -2.4515    4.1855   -0.7437 H   0  0  0  0  0  0  0  0  0  0  0  0
   -1.7408    2.0208    0.0209 H   0  0  0  0  0  0  0  0  0  0  0  0
   -2.8908    1.5575   -1.2429 H   0  0  0  0  0  0  0  0  0  0  0  0
  1  2  1  0
  2  3  1  0
  3  4  2  0
  4  5  1  0
  5  6  2  0
  6  7  1  0
  7  8  2  0
  7  9  1  0
  9 10  1  0
 10 11  1  0
 11 12  1  0
 12 13  1  0
 13 14  2  0
 14 15  1  0
 15 16  2  0
 16 17  1  0
 17 18  2  0
 12 19  1  0
 19 20  1  0
  6 21  1  0
 21 22  2  0
 22 23  1  0
 23 24  2  0
 23 25  2  0
 23 26  1  0
 26 27  1  0
 27 28  1  0
 28 29  1  0
 29 30  1  0
 22  3  1  0
 30 26  1  0
 20  9  1  0
 18 13  1  0
  1 31  1  0
  1 32  1  0
  1 33  1  0
  4 34  1  0
  5 35  1  0
 10 36  1  0
 10 37  1  0
 11 38  1  0
 11 39  1  0
 14 40  1  0
 15 41  1  0
 16 42  1  0
 17 43  1  0
 18 44  1  0
 19 45  1  0
 19 46  1  0
 20 47  1  0
 20 48  1  0
 21 49  1  0
 27 50  1  0
 27 51  1  0
 28 52  1  0
 28 53  1  0
 29 54  1  0
 29 55  1  0
 30 56  1  0
 30 57  1  0
M  END
$$$$
