
     RDKit          3D

 39 41  0  0  0  0  0  0  0  0999 V2000
   -1.3734   -1.2007   -2.2156 C   0  0  0  0  0  0  0  0  0  0  0  0
   -2.3351   -0.5704   -1.2413 C   0  0  0  0  0  0  0  0  0  0  0  0
   -3.6933   -0.5326   -1.6001 C   0  0  0  0  0  0  0  0  0  0  0  0
   -4.6328    0.0530   -0.7622 C   0  0  0  0  0  0  0  0  0  0  0  0
   -4.2303    0.5776    0.4601 C   0  0  0  0  0  0  0  0  0  0  0  0
   -2.8821    0.5347    0.8660 C   0  0  0  0  0  0  0  0  0  0  0  0
   -2.5937    1.0220    2.2612 C   0  0  0  0  0  0  0  0  0  0  0  0
   -1.9126    0.0094   -0.0169 C   0  0  0  0  0  0  0  0  0  0  0  0
   -0.5253   -0.0325    0.2791 N   0  0  0  0  0  0  0  0  0  0  0  0
    0.2086    0.9452    0.9195 C   0  0  0  0  0  0  0  0  0  0  0  0
   -0.2030    2.0671    1.2081 O   0  0  0  0  0  0  0  0  0  0  0  0
    1.6732    0.5994    1.1876 C   0  0  0  0  0  0  0  0  0  0  0  0
    2.0753   -0.8830    1.3342 C   0  0  0  0  0  0  0  0  0  0  0  0
    3.2684   -1.0084    0.3662 C   0  0  0  0  0  0  0  0  0  0  0  0
    2.7496   -0.9640   -1.0810 C   0  0  0  0  0  0  0  0  0  0  0  0
    2.3725    0.5128   -1.2664 C   0  0  0  0  0  0  0  0  0  0  0  0
    2.6591    1.1203    0.1166 C   0  0  0  0  0  0  0  0  0  0  0  0
    3.9332    0.3621    0.5028 C   0  0  0  0  0  0  0  0  0  0  0  0
   -0.8579   -2.0466   -1.7497 H   0  0  0  0  0  0  0  0  0  0  0  0
   -1.8885   -1.5853   -3.1026 H   0  0  0  0  0  0  0  0  0  0  0  0
   -0.6417   -0.4630   -2.5586 H   0  0  0  0  0  0  0  0  0  0  0  0
   -4.0269   -0.9526   -2.5466 H   0  0  0  0  0  0  0  0  0  0  0  0
   -5.6794    0.0877   -1.0522 H   0  0  0  0  0  0  0  0  0  0  0  0
   -4.9830    1.0072    1.1189 H   0  0  0  0  0  0  0  0  0  0  0  0
   -3.4412    0.8082    2.9236 H   0  0  0  0  0  0  0  0  0  0  0  0
   -1.7377    0.5058    2.7050 H   0  0  0  0  0  0  0  0  0  0  0  0
   -2.4318    2.1034    2.2660 H   0  0  0  0  0  0  0  0  0  0  0  0
    0.0195   -0.6628   -0.2885 H   0  0  0  0  0  0  0  0  0  0  0  0
    1.9082    1.0859    2.1465 H   0  0  0  0  0  0  0  0  0  0  0  0
    1.2865   -1.6078    1.1182 H   0  0  0  0  0  0  0  0  0  0  0  0
    2.4123   -1.0690    2.3616 H   0  0  0  0  0  0  0  0  0  0  0  0
    3.9104   -1.8663    0.5753 H   0  0  0  0  0  0  0  0  0  0  0  0
    1.8999   -1.6340   -1.2435 H   0  0  0  0  0  0  0  0  0  0  0  0
    3.5401   -1.2405   -1.7877 H   0  0  0  0  0  0  0  0  0  0  0  0
    3.0228    0.9676   -2.0234 H   0  0  0  0  0  0  0  0  0  0  0  0
    1.3423    0.6495   -1.6007 H   0  0  0  0  0  0  0  0  0  0  0  0
    2.7534    2.2085    0.1007 H   0  0  0  0  0  0  0  0  0  0  0  0
    4.2756    0.5778    1.5205 H   0  0  0  0  0  0  0  0  0  0  0  0
    4.7588    0.5144   -0.2007 H   0  0  0  0  0  0  0  0  0  0  0  0
  1  2  1  0
  2  3  2  0
  3  4  1  0
  4  5  2  0
  5  6  1  0
  6  7  1  0
  6  8  2  0
  8  9  1  0
  9 10  1  0
 10 11  2  0
 10 12  1  0
 12 13  1  0
 13 14  1  0
 14 15  1  0
 15 16  1  0
 16 17  1  0
 17 18  1  0
  8  2  1  0
 17 12  1  0
 18 14  1  0
  1 19  1  0
  1 20  1  0
  1 21  1  0
  3 22  1  0
  4 23  1  0
  5 24  1  0
  7 25  1  0
  7 26  1  0
  7 27  1  0
  9 28  1  0
 12 29  1  0
 13 30  1  0
 13 31  1  0
 14 32  1  0
 15 33  1  0
 15 34  1  0
 16 35  1  0
 16 36  1  0
 17 37  1  0
 18 38  1  0
 18 39  1  0
M  END
$$$$
