
     RDKit          3D

 47 48  0  0  0  0  0  0  0  0999 V2000
    4.7080   -2.5016    1.6672 C   0  0  0  0  0  0  0  0  0  0  0  0
    4.3231   -1.1339    2.1990 C   0  0  0  0  0  0  0  0  0  0  0  0
    4.2358   -0.1924    1.1218 O   0  0  0  0  0  0  0  0  0  0  0  0
    3.0267   -0.1266    0.4885 C   0  0  0  0  0  0  0  0  0  0  0  0
    2.0655   -0.8304    0.7716 O   0  0  0  0  0  0  0  0  0  0  0  0
    3.0132    0.8584   -0.5961 C   0  0  0  0  0  0  0  0  0  0  0  0
    4.1019    1.2687   -1.3592 C   0  0  0  0  0  0  0  0  0  0  0  0
    5.5382    0.8833   -1.3041 C   0  0  0  0  0  0  0  0  0  0  0  0
    3.6476    2.1578   -2.2983 N   0  0  0  0  0  0  0  0  0  0  0  0
    2.2949    2.3496   -2.1642 C   0  0  0  0  0  0  0  0  0  0  0  0
    1.5806    3.3096   -3.0475 C   0  0  0  0  0  0  0  0  0  0  0  0
    1.8614    1.5561   -1.1076 C   0  0  0  0  0  0  0  0  0  0  0  0
    0.4994    1.4792   -0.5681 C   0  0  0  0  0  0  0  0  0  0  0  0
    0.3050    1.4641    0.6482 O   0  0  0  0  0  0  0  0  0  0  0  0
   -0.6706    1.4695   -1.5519 C   0  0  0  0  0  0  0  0  0  0  0  0
   -1.8438    0.8738   -0.9941 O   0  0  0  0  0  0  0  0  0  0  0  0
   -1.8132   -0.4804   -0.9847 C   0  0  0  0  0  0  0  0  0  0  0  0
   -0.9657   -1.1785   -1.5211 O   0  0  0  0  0  0  0  0  0  0  0  0
   -2.9622   -1.0594   -0.2602 C   0  0  0  0  0  0  0  0  0  0  0  0
   -3.8966   -0.3381    0.3786 C   0  0  0  0  0  0  0  0  0  0  0  0
   -5.0321   -0.9319    1.0970 C   0  0  0  0  0  0  0  0  0  0  0  0
   -4.9038   -2.0966    1.8669 C   0  0  0  0  0  0  0  0  0  0  0  0
   -6.0023   -2.6159    2.5592 C   0  0  0  0  0  0  0  0  0  0  0  0
   -7.2324   -1.9664    2.4938 C   0  0  0  0  0  0  0  0  0  0  0  0
   -8.5839   -2.6043    3.3457 Cl  0  0  0  0  0  0  0  0  0  0  0  0
   -7.3722   -0.7991    1.7474 C   0  0  0  0  0  0  0  0  0  0  0  0
   -6.2729   -0.2810    1.0561 C   0  0  0  0  0  0  0  0  0  0  0  0
    5.6416   -2.4437    1.0981 H   0  0  0  0  0  0  0  0  0  0  0  0
    4.8376   -3.2140    2.4868 H   0  0  0  0  0  0  0  0  0  0  0  0
    3.9437   -2.8882    0.9857 H   0  0  0  0  0  0  0  0  0  0  0  0
    3.3915   -1.1732    2.7750 H   0  0  0  0  0  0  0  0  0  0  0  0
    5.1028   -0.7719    2.8770 H   0  0  0  0  0  0  0  0  0  0  0  0
    6.0856    1.2470   -2.1800 H   0  0  0  0  0  0  0  0  0  0  0  0
    6.0118    1.3053   -0.4121 H   0  0  0  0  0  0  0  0  0  0  0  0
    5.6445   -0.2058   -1.2756 H   0  0  0  0  0  0  0  0  0  0  0  0
    4.2320    2.6157   -2.9871 H   0  0  0  0  0  0  0  0  0  0  0  0
    0.9511    3.9817   -2.4561 H   0  0  0  0  0  0  0  0  0  0  0  0
    0.9481    2.7733   -3.7614 H   0  0  0  0  0  0  0  0  0  0  0  0
    2.2805    3.9294   -3.6178 H   0  0  0  0  0  0  0  0  0  0  0  0
   -0.9227    2.5092   -1.7828 H   0  0  0  0  0  0  0  0  0  0  0  0
   -0.3932    0.9765   -2.4907 H   0  0  0  0  0  0  0  0  0  0  0  0
   -2.9874   -2.1432   -0.2850 H   0  0  0  0  0  0  0  0  0  0  0  0
   -3.8564    0.7489    0.3805 H   0  0  0  0  0  0  0  0  0  0  0  0
   -3.9464   -2.6065    1.9496 H   0  0  0  0  0  0  0  0  0  0  0  0
   -5.8872   -3.5204    3.1503 H   0  0  0  0  0  0  0  0  0  0  0  0
   -8.3292   -0.2867    1.6999 H   0  0  0  0  0  0  0  0  0  0  0  0
   -6.3977    0.6330    0.4789 H   0  0  0  0  0  0  0  0  0  0  0  0
  1  2  1  0
  2  3  1  0
  3  4  1  0
  4  5  2  0
  4  6  1  0
  6  7  2  0
  7  8  1  0
  7  9  1  0
  9 10  1  0
 10 11  1  0
 10 12  2  0
 12 13  1  0
 13 14  2  0
 13 15  1  0
 15 16  1  0
 16 17  1  0
 17 18  2  0
 17 19  1  0
 19 20  2  3
 20 21  1  0
 21 22  2  0
 22 23  1  0
 23 24  2  0
 24 25  1  0
 24 26  1  0
 26 27  2  0
 12  6  1  0
 27 21  1  0
  1 28  1  0
  1 29  1  0
  1 30  1  0
  2 31  1  0
  2 32  1  0
  8 33  1  0
  8 34  1  0
  8 35  1  0
  9 36  1  0
 11 37  1  0
 11 38  1  0
 11 39  1  0
 15 40  1  0
 15 41  1  0
 19 42  1  0
 20 43  1  0
 22 44  1  0
 23 45  1  0
 26 46  1  0
 27 47  1  0
M  END
$$$$
