
     RDKit          3D

 77 83  0  0  0  0  0  0  0  0999 V2000
   -7.2578    0.2335    0.2948 C   0  0  0  0  0  0  0  0  0  0  0  0
   -6.7839   -1.1315   -0.2294 C   0  0  0  0  0  0  0  0  0  0  0  0
   -7.3502   -1.3360   -1.6389 C   0  0  0  0  0  0  0  0  0  0  0  0
   -7.2555   -2.2188    0.7432 C   0  0  0  0  0  0  0  0  0  0  0  0
   -5.3363   -1.0328   -0.2499 O   0  0  0  0  0  0  0  0  0  0  0  0
   -4.5690   -2.0759   -0.6580 C   0  0  0  0  0  0  0  0  0  0  0  0
   -5.0098   -3.1491   -1.0490 O   0  0  0  0  0  0  0  0  0  0  0  0
   -3.2165   -1.7915   -0.5730 N   0  0  0  0  0  0  0  0  0  0  0  0
   -2.2773   -2.7492   -1.1809 C   0  0  0  0  0  0  0  0  0  0  0  0
   -0.8228   -2.6297   -0.6601 C   0  0  0  0  0  0  0  0  0  0  0  0
   -0.4294   -1.2310   -0.6724 N   0  0  0  0  0  0  0  0  0  0  0  0
   -1.3194   -0.4305    0.2239 C   0  0  2  0  0  0  0  0  0  0  0  0
   -2.7222   -0.4133   -0.3752 C   0  0  0  0  0  0  0  0  0  0  0  0
   -0.5478    0.8286    0.3029 C   0  0  0  0  0  0  0  0  0  0  0  0
    0.7954    0.5850   -0.0251 C   0  0  0  0  0  0  0  0  0  0  0  0
    1.5002    1.7528    0.1198 C   0  0  0  0  0  0  0  0  0  0  0  0
    2.7880    2.0006   -0.1141 O   0  0  0  0  0  0  0  0  0  0  0  0
    0.5852    2.7535    0.5272 N   0  0  0  0  0  0  0  0  0  0  0  0
    0.8902    4.1396    0.7710 C   0  0  0  0  0  0  0  0  0  0  0  0
    2.1908    4.5459    1.1024 C   0  0  0  0  0  0  0  0  0  0  0  0
    2.4833    5.8947    1.3330 C   0  0  0  0  0  0  0  0  0  0  0  0
    1.4826    6.8560    1.2339 C   0  0  0  0  0  0  0  0  0  0  0  0
    0.1876    6.4691    0.9059 C   0  0  0  0  0  0  0  0  0  0  0  0
   -0.1080    5.1209    0.6766 C   0  0  0  0  0  0  0  0  0  0  0  0
   -0.6861    2.1426    0.6578 C   0  0  0  0  0  0  0  0  0  0  0  0
   -1.7541    2.7875    1.1207 O   0  0  0  0  0  0  0  0  0  0  0  0
    0.9724   -0.8451   -0.4052 C   0  0  1  0  0  0  0  0  0  0  0  0
    1.6939   -1.6676    0.6903 C   0  0  0  0  0  0  0  0  0  0  0  0
    1.3016   -1.8993    1.8263 O   0  0  0  0  0  0  0  0  0  0  0  0
    2.9057   -2.0989    0.1238 N   0  0  0  0  0  0  0  0  0  0  0  0
    3.9300   -2.7888    0.8740 C   0  0  0  0  0  0  0  0  0  0  0  0
    5.0108   -1.8498    1.3614 C   0  0  0  0  0  0  0  0  0  0  0  0
    4.7122   -0.8473    2.2977 C   0  0  0  0  0  0  0  0  0  0  0  0
    5.7006    0.0361    2.7323 C   0  0  0  0  0  0  0  0  0  0  0  0
    7.0002   -0.0756    2.2432 C   0  0  0  0  0  0  0  0  0  0  0  0
    7.3130   -1.0734    1.3222 C   0  0  0  0  0  0  0  0  0  0  0  0
    6.3249   -1.9574    0.8840 C   0  0  0  0  0  0  0  0  0  0  0  0
    3.0276   -1.6721   -1.2084 C   0  0  0  0  0  0  0  0  0  0  0  0
    4.0626   -1.8970   -2.0978 C   0  0  0  0  0  0  0  0  0  0  0  0
    3.9493   -1.3656   -3.3861 C   0  0  0  0  0  0  0  0  0  0  0  0
    2.8145   -0.6296   -3.7639 C   0  0  0  0  0  0  0  0  0  0  0  0
    1.7760   -0.4098   -2.8582 C   0  0  0  0  0  0  0  0  0  0  0  0
    1.8984   -0.9325   -1.5780 C   0  0  0  0  0  0  0  0  0  0  0  0
   -6.9214    1.0424   -0.3653 H   0  0  0  0  0  0  0  0  0  0  0  0
   -6.8292    0.4425    1.2827 H   0  0  0  0  0  0  0  0  0  0  0  0
   -8.3496    0.2829    0.3739 H   0  0  0  0  0  0  0  0  0  0  0  0
   -6.9313   -0.6010   -2.3367 H   0  0  0  0  0  0  0  0  0  0  0  0
   -8.4421   -1.2407   -1.6454 H   0  0  0  0  0  0  0  0  0  0  0  0
   -7.1061   -2.3241   -2.0398 H   0  0  0  0  0  0  0  0  0  0  0  0
   -8.3412   -2.1829    0.8840 H   0  0  0  0  0  0  0  0  0  0  0  0
   -6.7723   -2.1024    1.7197 H   0  0  0  0  0  0  0  0  0  0  0  0
   -7.0064   -3.2227    0.3874 H   0  0  0  0  0  0  0  0  0  0  0  0
   -2.2978   -2.5615   -2.2621 H   0  0  0  0  0  0  0  0  0  0  0  0
   -2.6374   -3.7716   -1.0208 H   0  0  0  0  0  0  0  0  0  0  0  0
   -0.7648   -3.0493    0.3512 H   0  0  0  0  0  0  0  0  0  0  0  0
   -0.1706   -3.2269   -1.3065 H   0  0  0  0  0  0  0  0  0  0  0  0
   -1.3506   -0.8823    1.2260 H   0  0  0  0  0  0  0  0  0  0  0  0
   -2.7397    0.0834   -1.3538 H   0  0  0  0  0  0  0  0  0  0  0  0
   -3.3989    0.1433    0.2814 H   0  0  0  0  0  0  0  0  0  0  0  0
    3.2025    1.1960   -0.4738 H   0  0  0  0  0  0  0  0  0  0  0  0
    2.9985    3.8316    1.2254 H   0  0  0  0  0  0  0  0  0  0  0  0
    3.4960    6.1892    1.5949 H   0  0  0  0  0  0  0  0  0  0  0  0
    1.7113    7.9030    1.4116 H   0  0  0  0  0  0  0  0  0  0  0  0
   -0.5980    7.2152    0.8194 H   0  0  0  0  0  0  0  0  0  0  0  0
   -1.1249    4.8743    0.3891 H   0  0  0  0  0  0  0  0  0  0  0  0
   -2.4776    2.1477    1.2291 H   0  0  0  0  0  0  0  0  0  0  0  0
    3.4747   -3.2756    1.7454 H   0  0  0  0  0  0  0  0  0  0  0  0
    4.3470   -3.5900    0.2524 H   0  0  0  0  0  0  0  0  0  0  0  0
    3.7029   -0.7467    2.6950 H   0  0  0  0  0  0  0  0  0  0  0  0
    5.4538    0.8115    3.4533 H   0  0  0  0  0  0  0  0  0  0  0  0
    7.7685    0.6139    2.5823 H   0  0  0  0  0  0  0  0  0  0  0  0
    8.3286   -1.1618    0.9435 H   0  0  0  0  0  0  0  0  0  0  0  0
    6.5913   -2.7281    0.1646 H   0  0  0  0  0  0  0  0  0  0  0  0
    4.9419   -2.4691   -1.8278 H   0  0  0  0  0  0  0  0  0  0  0  0
    4.7481   -1.5248   -4.1076 H   0  0  0  0  0  0  0  0  0  0  0  0
    2.7453   -0.2254   -4.7723 H   0  0  0  0  0  0  0  0  0  0  0  0
    0.8984    0.1629   -3.1451 H   0  0  0  0  0  0  0  0  0  0  0  0
  1  2  1  0
  2  3  1  0
  2  4  1  0
  2  5  1  0
  5  6  1  0
  6  7  2  0
  6  8  1  0
  8  9  1  0
  9 10  1  0
 10 11  1  0
 11 12  1  0
 12 13  1  0
 12 14  1  0
 14 15  1  0
 15 16  2  0
 16 17  1  0
 16 18  1  0
 18 19  1  0
 19 20  2  0
 20 21  1  0
 21 22  2  0
 22 23  1  0
 23 24  2  0
 18 25  1  0
 25 26  1  0
 15 27  1  0
 27 28  1  0
 28 29  2  0
 28 30  1  0
 30 31  1  0
 31 32  1  0
 32 33  2  0
 33 34  1  0
 34 35  2  0
 35 36  1  0
 36 37  2  0
 30 38  1  0
 38 39  2  0
 39 40  1  0
 40 41  2  0
 41 42  1  0
 42 43  2  0
 13  8  1  0
 25 14  2  0
 43 27  1  0
 27 11  1  6
 37 32  1  0
 43 38  1  0
 24 19  1  0
  1 44  1  0
  1 45  1  0
  1 46  1  0
  3 47  1  0
  3 48  1  0
  3 49  1  0
  4 50  1  0
  4 51  1  0
  4 52  1  0
  9 53  1  0
  9 54  1  0
 10 55  1  0
 10 56  1  0
 12 57  1  1
 13 58  1  0
 13 59  1  0
 17 60  1  0
 20 61  1  0
 21 62  1  0
 22 63  1  0
 23 64  1  0
 24 65  1  0
 26 66  1  0
 31 67  1  0
 31 68  1  0
 33 69  1  0
 34 70  1  0
 35 71  1  0
 36 72  1  0
 37 73  1  0
 39 74  1  0
 40 75  1  0
 41 76  1  0
 42 77  1  0
M  END
$$$$
