
     RDKit          3D

 36 38  0  0  0  0  0  0  0  0999 V2000
    2.4969    1.2542    3.0788 N   0  0  0  0  0  0  0  0  0  0  0  0
    1.7970    0.7285    2.3161 C   0  0  0  0  0  0  0  0  0  0  0  0
    0.9441    0.0785    1.3653 C   0  0  0  0  0  0  0  0  0  0  0  0
   -0.1721    0.7400    0.8208 C   0  0  0  0  0  0  0  0  0  0  0  0
   -0.5426    2.1124    1.1957 C   0  0  0  0  0  0  0  0  0  0  0  0
   -0.2880    3.1835    0.3247 C   0  0  0  0  0  0  0  0  0  0  0  0
   -0.6433    4.4877    0.6755 C   0  0  0  0  0  0  0  0  0  0  0  0
   -1.2594    4.7373    1.8997 C   0  0  0  0  0  0  0  0  0  0  0  0
   -1.5217    3.6846    2.7735 C   0  0  0  0  0  0  0  0  0  0  0  0
   -1.1674    2.3798    2.4237 C   0  0  0  0  0  0  0  0  0  0  0  0
   -0.9564    0.0637   -0.1275 C   0  0  0  0  0  0  0  0  0  0  0  0
   -0.6200   -1.2298   -0.4999 C   0  0  0  0  0  0  0  0  0  0  0  0
   -1.4068   -1.9862   -1.4853 C   0  0  0  0  0  0  0  0  0  0  0  0
   -2.7453   -1.8586   -1.8221 C   0  0  0  0  0  0  0  0  0  0  0  0
   -3.1525   -2.7677   -2.8426 C   0  0  0  0  0  0  0  0  0  0  0  0
   -2.1146   -3.5657   -3.2626 C   0  0  0  0  0  0  0  0  0  0  0  0
   -0.6638   -3.2194   -2.4314 S   0  0  0  0  0  0  0  0  0  0  0  0
    0.4432   -1.8710    0.0301 N   0  0  0  0  0  0  0  0  0  0  0  0
    1.2124   -1.2199    0.9347 C   0  0  0  0  0  0  0  0  0  0  0  0
    2.5933   -2.1902    1.5191 S   0  0  0  0  0  0  0  0  0  0  0  0
    3.7860   -1.8187    0.1976 C   0  0  0  0  0  0  0  0  0  0  0  0
    3.2386   -2.1227   -1.1715 C   0  0  0  0  0  0  0  0  0  0  0  0
    2.9269   -1.2894   -2.0099 O   0  0  0  0  0  0  0  0  0  0  0  0
    3.1107   -3.4396   -1.4241 O   0  0  0  0  0  0  0  0  0  0  0  0
    0.1975    3.0107   -0.6341 H   0  0  0  0  0  0  0  0  0  0  0  0
   -0.4347    5.3095   -0.0050 H   0  0  0  0  0  0  0  0  0  0  0  0
   -1.5314    5.7532    2.1749 H   0  0  0  0  0  0  0  0  0  0  0  0
   -1.9990    3.8796    3.7307 H   0  0  0  0  0  0  0  0  0  0  0  0
   -1.3827    1.5730    3.1218 H   0  0  0  0  0  0  0  0  0  0  0  0
   -1.8151    0.5604   -0.5714 H   0  0  0  0  0  0  0  0  0  0  0  0
   -3.4175   -1.1510   -1.3521 H   0  0  0  0  0  0  0  0  0  0  0  0
   -4.1562   -2.8337   -3.2447 H   0  0  0  0  0  0  0  0  0  0  0  0
   -2.1369   -4.3394   -4.0178 H   0  0  0  0  0  0  0  0  0  0  0  0
    4.0606   -0.7595    0.2389 H   0  0  0  0  0  0  0  0  0  0  0  0
    4.7028   -2.3966    0.3507 H   0  0  0  0  0  0  0  0  0  0  0  0
    2.6173   -3.4772   -2.2703 H   0  0  0  0  0  0  0  0  0  0  0  0
  1  2  3  0
  2  3  1  0
  3  4  2  0
  4  5  1  0
  5  6  2  0
  6  7  1  0
  7  8  2  0
  8  9  1  0
  9 10  2  0
  4 11  1  0
 11 12  2  0
 12 13  1  0
 13 14  2  0
 14 15  1  0
 15 16  2  0
 16 17  1  0
 12 18  1  0
 18 19  2  0
 19 20  1  0
 20 21  1  0
 21 22  1  0
 22 23  2  0
 22 24  1  0
 19  3  1  0
 10  5  1  0
 17 13  1  0
  6 25  1  0
  7 26  1  0
  8 27  1  0
  9 28  1  0
 10 29  1  0
 11 30  1  0
 14 31  1  0
 15 32  1  0
 16 33  1  0
 21 34  1  0
 21 35  1  0
 24 36  1  0
M  END
$$$$
