
     RDKit          3D

 57 59  0  0  0  0  0  0  0  0999 V2000
   -4.9826   -3.6221    2.5431 C   0  0  0  0  0  0  0  0  0  0  0  0
   -4.6863   -2.2665    1.9660 C   0  0  0  0  0  0  0  0  0  0  0  0
   -5.3722   -1.8269    0.8266 C   0  0  0  0  0  0  0  0  0  0  0  0
   -5.1289   -0.5577    0.3000 C   0  0  0  0  0  0  0  0  0  0  0  0
   -4.1986    0.2800    0.9157 C   0  0  0  0  0  0  0  0  0  0  0  0
   -3.9373    1.9254    0.2926 S   0  0  0  0  0  6  0  0  0  0  0  0
   -3.6349    2.7727    1.4250 O   0  0  0  0  0  0  0  0  0  0  0  0
   -5.0322    2.2339   -0.6027 O   0  0  0  0  0  0  0  0  0  0  0  0
   -2.5356    1.7634   -0.6429 N   0  0  0  0  0  0  0  0  0  0  0  0
   -2.6535    1.1064   -1.9610 C   0  0  0  0  0  0  0  0  0  0  0  0
   -1.4186    0.2735   -2.2929 C   0  0  0  0  0  0  0  0  0  0  0  0
   -0.1294    1.0915   -2.1665 C   0  0  0  0  0  0  0  0  0  0  0  0
    1.1195    0.2259   -2.1468 C   0  0  0  0  0  0  0  0  0  0  0  0
    2.0995    0.4924   -2.8369 O   0  0  0  0  0  0  0  0  0  0  0  0
    1.1230   -0.8123   -1.2471 N   0  0  0  0  0  0  0  0  0  0  0  0
    2.3619   -1.5436   -0.9806 C   0  0  0  0  0  0  0  0  0  0  0  0
    2.0563   -2.9318   -0.4349 C   0  0  0  0  0  0  0  0  0  0  0  0
    3.1580   -0.7001    0.0350 C   0  0  0  0  0  0  0  0  0  0  0  0
    2.9888   -0.8299    1.2473 O   0  0  0  0  0  0  0  0  0  0  0  0
    3.9419    0.2577   -0.5920 N   0  0  0  0  0  0  0  0  0  0  0  0
    4.8057    1.1967    0.0058 C   0  0  0  0  0  0  0  0  0  0  0  0
    4.9901    1.3177    1.3870 C   0  0  0  0  0  0  0  0  0  0  0  0
    5.8737    2.2744    1.8954 C   0  0  0  0  0  0  0  0  0  0  0  0
    6.5858    3.0928    1.0256 C   0  0  0  0  0  0  0  0  0  0  0  0
    7.4371    3.9946    1.5168 F   0  0  0  0  0  0  0  0  0  0  0  0
    6.4294    2.9783   -0.3473 C   0  0  0  0  0  0  0  0  0  0  0  0
    5.5303    2.0360   -0.8572 C   0  0  0  0  0  0  0  0  0  0  0  0
   -0.1414    2.0375   -0.9550 C   0  0  0  0  0  0  0  0  0  0  0  0
   -1.2361    1.6737    0.0433 C   0  0  0  0  0  0  0  0  0  0  0  0
   -3.5322   -0.1321    2.0700 C   0  0  0  0  0  0  0  0  0  0  0  0
   -3.7746   -1.4054    2.5908 C   0  0  0  0  0  0  0  0  0  0  0  0
   -5.0445   -4.3707    1.7478 H   0  0  0  0  0  0  0  0  0  0  0  0
   -4.1936   -3.9395    3.2302 H   0  0  0  0  0  0  0  0  0  0  0  0
   -5.9285   -3.6006    3.0919 H   0  0  0  0  0  0  0  0  0  0  0  0
   -6.1122   -2.4675    0.3529 H   0  0  0  0  0  0  0  0  0  0  0  0
   -5.6850   -0.2229   -0.5687 H   0  0  0  0  0  0  0  0  0  0  0  0
   -3.5365    0.4538   -2.0006 H   0  0  0  0  0  0  0  0  0  0  0  0
   -2.7919    1.8873   -2.7191 H   0  0  0  0  0  0  0  0  0  0  0  0
   -1.4092   -0.6041   -1.6362 H   0  0  0  0  0  0  0  0  0  0  0  0
   -1.4998   -0.1236   -3.3113 H   0  0  0  0  0  0  0  0  0  0  0  0
   -0.0393    1.7091   -3.0689 H   0  0  0  0  0  0  0  0  0  0  0  0
    0.4597   -0.7900   -0.4803 H   0  0  0  0  0  0  0  0  0  0  0  0
    2.9378   -1.6389   -1.9109 H   0  0  0  0  0  0  0  0  0  0  0  0
    2.9758   -3.4545   -0.1673 H   0  0  0  0  0  0  0  0  0  0  0  0
    1.4238   -2.8841    0.4599 H   0  0  0  0  0  0  0  0  0  0  0  0
    1.5275   -3.5375   -1.1809 H   0  0  0  0  0  0  0  0  0  0  0  0
    3.8257    0.3283   -1.6035 H   0  0  0  0  0  0  0  0  0  0  0  0
    4.4503    0.7010    2.0991 H   0  0  0  0  0  0  0  0  0  0  0  0
    6.0048    2.3914    2.9690 H   0  0  0  0  0  0  0  0  0  0  0  0
    6.9999    3.6218   -1.0107 H   0  0  0  0  0  0  0  0  0  0  0  0
    5.4166    1.9513   -1.9344 H   0  0  0  0  0  0  0  0  0  0  0  0
   -0.3420    3.0539   -1.3239 H   0  0  0  0  0  0  0  0  0  0  0  0
    0.8368    2.0819   -0.4587 H   0  0  0  0  0  0  0  0  0  0  0  0
   -1.0826    0.6702    0.4466 H   0  0  0  0  0  0  0  0  0  0  0  0
   -1.1941    2.3839    0.8746 H   0  0  0  0  0  0  0  0  0  0  0  0
   -2.8444    0.5346    2.5819 H   0  0  0  0  0  0  0  0  0  0  0  0
   -3.2616   -1.7107    3.4992 H   0  0  0  0  0  0  0  0  0  0  0  0
  1  2  1  0
  2  3  2  0
  3  4  1  0
  4  5  2  0
  5  6  1  0
  6  7  2  0
  6  8  2  0
  6  9  1  0
  9 10  1  0
 10 11  1  0
 11 12  1  0
 12 13  1  0
 13 14  2  0
 13 15  1  0
 15 16  1  0
 16 17  1  0
 16 18  1  0
 18 19  2  0
 18 20  1  0
 20 21  1  0
 21 22  2  0
 22 23  1  0
 23 24  2  0
 24 25  1  0
 24 26  1  0
 26 27  2  0
 12 28  1  0
 28 29  1  0
  5 30  1  0
 30 31  2  0
 31  2  1  0
 29  9  1  0
 27 21  1  0
  1 32  1  0
  1 33  1  0
  1 34  1  0
  3 35  1  0
  4 36  1  0
 10 37  1  0
 10 38  1  0
 11 39  1  0
 11 40  1  0
 12 41  1  0
 15 42  1  0
 16 43  1  0
 17 44  1  0
 17 45  1  0
 17 46  1  0
 20 47  1  0
 22 48  1  0
 23 49  1  0
 26 50  1  0
 27 51  1  0
 28 52  1  0
 28 53  1  0
 29 54  1  0
 29 55  1  0
 30 56  1  0
 31 57  1  0
M  END
$$$$
