
     RDKit          3D

 50 53  0  0  0  0  0  0  0  0999 V2000
    5.9304    2.1342    1.0403 C   0  0  0  0  0  0  0  0  0  0  0  0
    6.0872    0.8343    1.8183 C   0  0  0  0  0  0  0  0  0  0  0  0
    5.4685   -0.3003    1.1172 N   0  0  0  0  0  0  0  0  0  0  0  0
    6.3868   -1.2839    0.5274 C   0  0  0  0  0  0  0  0  0  0  0  0
    6.8244   -0.8698   -0.8693 C   0  0  0  0  0  0  0  0  0  0  0  0
    4.0879   -0.4475    1.0251 C   0  0  0  0  0  0  0  0  0  0  0  0
    3.2001    0.2846    1.8324 C   0  0  0  0  0  0  0  0  0  0  0  0
    1.8064    0.1426    1.7451 C   0  0  0  0  0  0  0  0  0  0  0  0
    1.2447   -0.7424    0.8291 C   0  0  0  0  0  0  0  0  0  0  0  0
   -0.2050   -0.9229    0.7222 C   0  0  0  0  0  0  0  0  0  0  0  0
   -1.0834   -0.0021    0.3010 C   0  0  0  0  0  0  0  0  0  0  0  0
   -0.7425    1.6247   -0.2355 S   0  0  0  0  0  0  0  0  0  0  0  0
   -2.4144    1.8639   -0.5325 C   0  0  0  0  0  0  0  0  0  0  0  0
   -3.1256    2.8507   -0.9934 N   0  0  0  0  0  0  0  0  0  0  0  0
   -4.4349    2.3958   -1.0063 N   0  0  0  0  0  0  0  0  0  0  0  0
   -4.4696    1.1491   -0.5426 C   0  0  0  0  0  0  0  0  0  0  0  0
   -5.6632    0.3133   -0.4143 C   0  0  0  0  0  0  0  0  0  0  0  0
   -5.9700   -0.2785    0.8227 C   0  0  0  0  0  0  0  0  0  0  0  0
   -7.1151   -1.0609    0.9805 C   0  0  0  0  0  0  0  0  0  0  0  0
   -7.9773   -1.2528   -0.0928 C   0  0  0  0  0  0  0  0  0  0  0  0
   -7.6961   -0.6632   -1.3243 C   0  0  0  0  0  0  0  0  0  0  0  0
   -6.5413    0.1183   -1.5028 C   0  0  0  0  0  0  0  0  0  0  0  0
   -6.2966    0.7478   -2.8494 C   0  0  0  0  0  0  0  0  0  0  0  0
   -3.1803    0.7881   -0.2406 N   0  0  0  0  0  0  0  0  0  0  0  0
   -2.5381   -0.3309    0.2306 C   0  0  0  0  0  0  0  0  0  0  0  0
   -3.1105   -1.3639    0.5206 O   0  0  0  0  0  0  0  0  0  0  0  0
    2.0946   -1.4914    0.0207 C   0  0  0  0  0  0  0  0  0  0  0  0
    3.4865   -1.3397    0.1203 C   0  0  0  0  0  0  0  0  0  0  0  0
    4.8808    2.4198    0.9252 H   0  0  0  0  0  0  0  0  0  0  0  0
    6.3629    2.0515    0.0386 H   0  0  0  0  0  0  0  0  0  0  0  0
    6.4424    2.9483    1.5632 H   0  0  0  0  0  0  0  0  0  0  0  0
    7.1614    0.6540    1.9513 H   0  0  0  0  0  0  0  0  0  0  0  0
    5.6910    0.9360    2.8347 H   0  0  0  0  0  0  0  0  0  0  0  0
    5.9493   -2.2888    0.5109 H   0  0  0  0  0  0  0  0  0  0  0  0
    7.2781   -1.3838    1.1597 H   0  0  0  0  0  0  0  0  0  0  0  0
    7.4678   -1.6399   -1.3063 H   0  0  0  0  0  0  0  0  0  0  0  0
    7.3936    0.0645   -0.8426 H   0  0  0  0  0  0  0  0  0  0  0  0
    5.9695   -0.7211   -1.5359 H   0  0  0  0  0  0  0  0  0  0  0  0
    3.5707    0.9872    2.5723 H   0  0  0  0  0  0  0  0  0  0  0  0
    1.1783    0.7326    2.4080 H   0  0  0  0  0  0  0  0  0  0  0  0
   -0.5540   -1.9168    1.0015 H   0  0  0  0  0  0  0  0  0  0  0  0
   -5.3222   -0.1338    1.6845 H   0  0  0  0  0  0  0  0  0  0  0  0
   -7.3342   -1.5155    1.9432 H   0  0  0  0  0  0  0  0  0  0  0  0
   -8.8726   -1.8571    0.0287 H   0  0  0  0  0  0  0  0  0  0  0  0
   -8.3883   -0.8162   -2.1501 H   0  0  0  0  0  0  0  0  0  0  0  0
   -6.4919    1.8236   -2.8054 H   0  0  0  0  0  0  0  0  0  0  0  0
   -6.9525    0.3183   -3.6146 H   0  0  0  0  0  0  0  0  0  0  0  0
   -5.2677    0.5723   -3.1799 H   0  0  0  0  0  0  0  0  0  0  0  0
    1.6944   -2.1961   -0.7043 H   0  0  0  0  0  0  0  0  0  0  0  0
    4.0896   -1.9362   -0.5573 H   0  0  0  0  0  0  0  0  0  0  0  0
  1  2  1  0
  2  3  1  0
  3  4  1  0
  4  5  1  0
  3  6  1  0
  6  7  2  0
  7  8  1  0
  8  9  2  0
  9 10  1  0
 10 11  2  3
 11 12  1  0
 12 13  1  0
 13 14  2  0
 14 15  1  0
 15 16  2  0
 16 17  1  0
 17 18  2  0
 18 19  1  0
 19 20  2  0
 20 21  1  0
 21 22  2  0
 22 23  1  0
 16 24  1  0
 24 25  1  0
 25 26  2  0
  9 27  1  0
 27 28  2  0
 28  6  1  0
 25 11  1  0
 24 13  1  0
 22 17  1  0
  1 29  1  0
  1 30  1  0
  1 31  1  0
  2 32  1  0
  2 33  1  0
  4 34  1  0
  4 35  1  0
  5 36  1  0
  5 37  1  0
  5 38  1  0
  7 39  1  0
  8 40  1  0
 10 41  1  0
 18 42  1  0
 19 43  1  0
 20 44  1  0
 21 45  1  0
 23 46  1  0
 23 47  1  0
 23 48  1  0
 27 49  1  0
 28 50  1  0
M  END
$$$$
