
     RDKit          3D

 42 43  0  0  0  0  0  0  0  0999 V2000
   -4.7943    0.4430    3.3212 C   0  0  0  0  0  0  0  0  0  0  0  0
   -3.4435   -0.1894    3.6651 C   0  0  0  0  0  0  0  0  0  0  0  0
   -3.6333   -1.5659    4.3072 C   0  0  0  0  0  0  0  0  0  0  0  0
   -2.5355   -0.2608    2.4503 C   0  0  0  0  0  0  0  0  0  0  0  0
   -2.8750   -1.0139    1.3172 C   0  0  0  0  0  0  0  0  0  0  0  0
   -2.0251   -1.0678    0.2057 C   0  0  0  0  0  0  0  0  0  0  0  0
   -0.8199   -0.3681    0.2101 C   0  0  0  0  0  0  0  0  0  0  0  0
    0.0973   -0.3356   -0.8034 O   0  0  0  0  0  0  0  0  0  0  0  0
   -0.2106   -1.0896   -1.9747 C   0  0  0  0  0  0  0  0  0  0  0  0
    0.9055   -0.9576   -3.0116 C   0  0  0  0  0  0  0  0  0  0  0  0
    0.7544   -1.3029   -4.1807 O   0  0  0  0  0  0  0  0  0  0  0  0
    2.0886   -0.4554   -2.5116 N   0  0  0  0  0  0  0  0  0  0  0  0
    3.2132   -0.1335   -3.3716 C   0  0  0  0  0  0  0  0  0  0  0  0
    4.4985    0.0340   -2.5675 C   0  0  0  0  0  0  0  0  0  0  0  0
    4.4520    1.4675   -2.0412 C   0  0  0  0  0  0  0  0  0  0  0  0
    3.4844    2.2267   -2.9493 C   0  0  0  0  0  0  0  0  0  0  0  0
    3.0528    1.2363   -4.0270 C   0  0  0  0  0  0  0  0  0  0  0  0
   -0.4751    0.3840    1.3339 C   0  0  0  0  0  0  0  0  0  0  0  0
   -1.3222    0.4389    2.4440 C   0  0  0  0  0  0  0  0  0  0  0  0
   -5.4036    0.5635    4.2236 H   0  0  0  0  0  0  0  0  0  0  0  0
   -4.6600    1.4337    2.8728 H   0  0  0  0  0  0  0  0  0  0  0  0
   -5.3653   -0.1686    2.6142 H   0  0  0  0  0  0  0  0  0  0  0  0
   -2.9691    0.4542    4.4179 H   0  0  0  0  0  0  0  0  0  0  0  0
   -4.2206   -1.4831    5.2282 H   0  0  0  0  0  0  0  0  0  0  0  0
   -2.6673   -2.0142    4.5649 H   0  0  0  0  0  0  0  0  0  0  0  0
   -4.1565   -2.2605    3.6411 H   0  0  0  0  0  0  0  0  0  0  0  0
   -3.8099   -1.5696    1.2868 H   0  0  0  0  0  0  0  0  0  0  0  0
   -2.3408   -1.6662   -0.6424 H   0  0  0  0  0  0  0  0  0  0  0  0
   -1.1272   -0.7058   -2.4370 H   0  0  0  0  0  0  0  0  0  0  0  0
   -0.3019   -2.1548   -1.7336 H   0  0  0  0  0  0  0  0  0  0  0  0
    2.0276   -0.0315   -1.5901 H   0  0  0  0  0  0  0  0  0  0  0  0
    3.3090   -0.9236   -4.1239 H   0  0  0  0  0  0  0  0  0  0  0  0
    5.3647   -0.0757   -3.2317 H   0  0  0  0  0  0  0  0  0  0  0  0
    4.6022   -0.6955   -1.7580 H   0  0  0  0  0  0  0  0  0  0  0  0
    5.4490    1.9200   -2.0437 H   0  0  0  0  0  0  0  0  0  0  0  0
    4.0870    1.4870   -1.0079 H   0  0  0  0  0  0  0  0  0  0  0  0
    3.9469    3.1178   -3.3855 H   0  0  0  0  0  0  0  0  0  0  0  0
    2.6157    2.5589   -2.3689 H   0  0  0  0  0  0  0  0  0  0  0  0
    2.0373    1.4376   -4.3819 H   0  0  0  0  0  0  0  0  0  0  0  0
    3.7323    1.3167   -4.8845 H   0  0  0  0  0  0  0  0  0  0  0  0
    0.4616    0.9353    1.3497 H   0  0  0  0  0  0  0  0  0  0  0  0
   -1.0235    1.0348    3.3036 H   0  0  0  0  0  0  0  0  0  0  0  0
  1  2  1  0
  2  3  1  0
  2  4  1  0
  4  5  2  0
  5  6  1  0
  6  7  2  0
  7  8  1  0
  8  9  1  0
  9 10  1  0
 10 11  2  0
 10 12  1  0
 12 13  1  0
 13 14  1  0
 14 15  1  0
 15 16  1  0
 16 17  1  0
  7 18  1  0
 18 19  2  0
 19  4  1  0
 17 13  1  0
  1 20  1  0
  1 21  1  0
  1 22  1  0
  2 23  1  0
  3 24  1  0
  3 25  1  0
  3 26  1  0
  5 27  1  0
  6 28  1  0
  9 29  1  0
  9 30  1  0
 12 31  1  0
 13 32  1  0
 14 33  1  0
 14 34  1  0
 15 35  1  0
 15 36  1  0
 16 37  1  0
 16 38  1  0
 17 39  1  0
 17 40  1  0
 18 41  1  0
 19 42  1  0
M  END
$$$$
