
     RDKit          3D

 44 46  0  0  0  0  0  0  0  0999 V2000
    5.8283    2.3737   -1.2227 C   0  0  0  0  0  0  0  0  0  0  0  0
    6.2907    1.0540   -0.9665 O   0  0  0  0  0  0  0  0  0  0  0  0
    5.6163    0.4210    0.1201 C   0  0  0  0  0  0  0  0  0  0  0  0
    4.2602   -0.1292   -0.3087 C   0  0  0  0  0  0  0  0  0  0  0  0
    3.5994   -0.9087    0.8292 C   0  0  0  0  0  0  0  0  0  0  0  0
    2.2659   -1.4006    0.4498 N   0  0  0  0  0  0  0  0  0  0  0  0
    2.0806   -2.6643   -0.1098 C   0  0  0  0  0  0  0  0  0  0  0  0
    3.2596   -3.8176   -0.4203 S   0  0  0  0  0  0  0  0  0  0  0  0
    0.7990   -3.0114   -0.4422 N   0  0  0  0  0  0  0  0  0  0  0  0
   -0.3040   -2.1821   -0.2657 C   0  0  0  0  0  0  0  0  0  0  0  0
   -1.5720   -2.6175   -0.6266 C   0  0  0  0  0  0  0  0  0  0  0  0
   -2.6724   -1.7683   -0.4459 C   0  0  0  0  0  0  0  0  0  0  0  0
   -2.5428   -0.4749    0.0912 C   0  0  0  0  0  0  0  0  0  0  0  0
   -3.6370    0.3514    0.2669 N   0  0  0  0  0  0  0  0  0  0  0  0
   -4.8919    0.1613   -0.4810 C   0  0  0  0  0  0  0  0  0  0  0  0
   -5.6086    1.5094   -0.6694 C   0  0  0  0  0  0  0  0  0  0  0  0
   -5.9361    2.1730    0.5585 O   0  0  0  0  0  0  0  0  0  0  0  0
   -5.0164    1.8860    1.6212 C   0  0  0  0  0  0  0  0  0  0  0  0
   -3.5962    1.5326    1.1471 C   0  0  0  0  0  0  0  0  0  0  0  0
   -1.2451   -0.0730    0.4452 C   0  0  0  0  0  0  0  0  0  0  0  0
   -0.1389   -0.9181    0.2682 C   0  0  0  0  0  0  0  0  0  0  0  0
    1.2196   -0.4811    0.6367 C   0  0  0  0  0  0  0  0  0  0  0  0
    1.3783    0.6561    1.0787 O   0  0  0  0  0  0  0  0  0  0  0  0
    6.4419    2.8005   -2.0208 H   0  0  0  0  0  0  0  0  0  0  0  0
    5.9354    2.9997   -0.3317 H   0  0  0  0  0  0  0  0  0  0  0  0
    4.7880    2.3673   -1.5578 H   0  0  0  0  0  0  0  0  0  0  0  0
    6.2564   -0.4063    0.4457 H   0  0  0  0  0  0  0  0  0  0  0  0
    5.5235    1.1117    0.9666 H   0  0  0  0  0  0  0  0  0  0  0  0
    3.6070    0.6898   -0.6300 H   0  0  0  0  0  0  0  0  0  0  0  0
    4.3855   -0.7651   -1.1933 H   0  0  0  0  0  0  0  0  0  0  0  0
    3.5015   -0.2600    1.7087 H   0  0  0  0  0  0  0  0  0  0  0  0
    4.2386   -1.7400    1.1419 H   0  0  0  0  0  0  0  0  0  0  0  0
    0.6728   -3.9345   -0.8429 H   0  0  0  0  0  0  0  0  0  0  0  0
   -1.7298   -3.6087   -1.0421 H   0  0  0  0  0  0  0  0  0  0  0  0
   -3.6519   -2.1551   -0.7163 H   0  0  0  0  0  0  0  0  0  0  0  0
   -4.7039   -0.2585   -1.4757 H   0  0  0  0  0  0  0  0  0  0  0  0
   -5.5349   -0.5284    0.0781 H   0  0  0  0  0  0  0  0  0  0  0  0
   -4.9837    2.1917   -1.2580 H   0  0  0  0  0  0  0  0  0  0  0  0
   -6.5417    1.3644   -1.2230 H   0  0  0  0  0  0  0  0  0  0  0  0
   -5.4366    1.0580    2.2044 H   0  0  0  0  0  0  0  0  0  0  0  0
   -4.9871    2.7629    2.2758 H   0  0  0  0  0  0  0  0  0  0  0  0
   -3.1663    2.3756    0.5937 H   0  0  0  0  0  0  0  0  0  0  0  0
   -2.9841    1.3422    2.0361 H   0  0  0  0  0  0  0  0  0  0  0  0
   -1.0671    0.9210    0.8476 H   0  0  0  0  0  0  0  0  0  0  0  0
  1  2  1  0
  2  3  1  0
  3  4  1  0
  4  5  1  0
  5  6  1  0
  6  7  1  0
  7  8  2  0
  7  9  1  0
  9 10  1  0
 10 11  2  0
 11 12  1  0
 12 13  2  0
 13 14  1  0
 14 15  1  0
 15 16  1  0
 16 17  1  0
 17 18  1  0
 18 19  1  0
 13 20  1  0
 20 21  2  0
 21 22  1  0
 22 23  2  0
 22  6  1  0
 21 10  1  0
 19 14  1  0
  1 24  1  0
  1 25  1  0
  1 26  1  0
  3 27  1  0
  3 28  1  0
  4 29  1  0
  4 30  1  0
  5 31  1  0
  5 32  1  0
  9 33  1  0
 11 34  1  0
 12 35  1  0
 15 36  1  0
 15 37  1  0
 16 38  1  0
 16 39  1  0
 18 40  1  0
 18 41  1  0
 19 42  1  0
 19 43  1  0
 20 44  1  0
M  END
$$$$
