
     RDKit          3D

 51 53  0  0  0  0  0  0  0  0999 V2000
   -2.0378    5.3913   -0.6528 C   0  0  0  0  0  0  0  0  0  0  0  0
   -0.6619    4.7392   -0.7214 C   0  0  0  0  0  0  0  0  0  0  0  0
   -0.3238    4.1355   -2.0912 C   0  0  0  0  0  0  0  0  0  0  0  0
   -1.4382    2.7826   -2.6246 S   0  0  0  0  0  0  0  0  0  0  0  0
   -0.8614    1.4184   -1.6197 C   0  0  0  0  0  0  0  0  0  0  0  0
   -1.5540    0.2292   -1.6779 C   0  0  0  0  0  0  0  0  0  0  0  0
   -1.0871   -0.8189   -0.9079 C   0  0  0  0  0  0  0  0  0  0  0  0
   -1.7691   -2.0532   -0.9290 N   0  0  0  0  0  0  0  0  0  0  0  0
   -1.3142   -2.9881    0.1248 C   0  0  0  0  0  0  0  0  0  0  0  0
   -2.1797   -4.2710    0.1131 C   0  0  0  0  0  0  0  0  0  0  0  0
   -2.1849   -4.9455   -1.2067 N   0  0  0  0  0  0  0  0  0  0  0  0
   -3.0661   -6.1121   -1.1846 C   0  0  0  0  0  0  0  0  0  0  0  0
   -2.6163   -3.9848   -2.2449 C   0  0  0  0  0  0  0  0  0  0  0  0
   -1.7584   -2.6963   -2.2626 C   0  0  0  0  0  0  0  0  0  0  0  0
   -0.0186   -0.6578   -0.1122 N   0  0  0  0  0  0  0  0  0  0  0  0
    0.6047    0.5356   -0.1167 C   0  0  0  0  0  0  0  0  0  0  0  0
    1.7835    0.6985    0.7595 C   0  0  0  0  0  0  0  0  0  0  0  0
    2.3638   -0.3969    1.4250 C   0  0  0  0  0  0  0  0  0  0  0  0
    3.4780   -0.2389    2.2583 C   0  0  0  0  0  0  0  0  0  0  0  0
    4.0441    1.0196    2.4584 C   0  0  0  0  0  0  0  0  0  0  0  0
    5.1239    1.0371    3.2961 O   0  0  0  0  0  0  0  0  0  0  0  0
    5.6509    2.3152    3.6345 C   0  0  0  0  0  0  0  0  0  0  0  0
    3.4913    2.1203    1.8076 C   0  0  0  0  0  0  0  0  0  0  0  0
    2.3777    1.9583    0.9701 C   0  0  0  0  0  0  0  0  0  0  0  0
    0.2252    1.5893   -0.8574 N   0  0  0  0  0  0  0  0  0  0  0  0
   -2.8407    4.6546   -0.7401 H   0  0  0  0  0  0  0  0  0  0  0  0
   -2.1629    5.9019    0.3088 H   0  0  0  0  0  0  0  0  0  0  0  0
   -2.1616    6.1341   -1.4473 H   0  0  0  0  0  0  0  0  0  0  0  0
    0.0925    5.5088   -0.5020 H   0  0  0  0  0  0  0  0  0  0  0  0
   -0.5770    3.9888    0.0727 H   0  0  0  0  0  0  0  0  0  0  0  0
    0.7174    3.7914   -2.1128 H   0  0  0  0  0  0  0  0  0  0  0  0
   -0.3978    4.9218   -2.8526 H   0  0  0  0  0  0  0  0  0  0  0  0
   -2.4418    0.1260   -2.2858 H   0  0  0  0  0  0  0  0  0  0  0  0
   -1.4096   -2.5226    1.1148 H   0  0  0  0  0  0  0  0  0  0  0  0
   -0.2609   -3.2642   -0.0282 H   0  0  0  0  0  0  0  0  0  0  0  0
   -1.7801   -4.9592    0.8694 H   0  0  0  0  0  0  0  0  0  0  0  0
   -3.2054   -4.0102    0.4124 H   0  0  0  0  0  0  0  0  0  0  0  0
   -2.7306   -6.8329   -0.4314 H   0  0  0  0  0  0  0  0  0  0  0  0
   -4.1055   -5.8447   -0.9568 H   0  0  0  0  0  0  0  0  0  0  0  0
   -3.0474   -6.6293   -2.1527 H   0  0  0  0  0  0  0  0  0  0  0  0
   -3.6681   -3.7066   -2.0883 H   0  0  0  0  0  0  0  0  0  0  0  0
   -2.5426   -4.4591   -3.2317 H   0  0  0  0  0  0  0  0  0  0  0  0
   -2.1683   -2.0323   -3.0315 H   0  0  0  0  0  0  0  0  0  0  0  0
   -0.7279   -2.9452   -2.5517 H   0  0  0  0  0  0  0  0  0  0  0  0
    1.9493   -1.3963    1.2953 H   0  0  0  0  0  0  0  0  0  0  0  0
    3.9028   -1.1078    2.7563 H   0  0  0  0  0  0  0  0  0  0  0  0
    4.8877    2.9465    4.1052 H   0  0  0  0  0  0  0  0  0  0  0  0
    6.4538    2.1639    4.3645 H   0  0  0  0  0  0  0  0  0  0  0  0
    6.0859    2.8064    2.7556 H   0  0  0  0  0  0  0  0  0  0  0  0
    3.8981    3.1192    1.9234 H   0  0  0  0  0  0  0  0  0  0  0  0
    1.9689    2.8401    0.4773 H   0  0  0  0  0  0  0  0  0  0  0  0
  1  2  1  0
  2  3  1  0
  3  4  1  0
  4  5  1  0
  5  6  2  0
  6  7  1  0
  7  8  1  0
  8  9  1  0
  9 10  1  0
 10 11  1  0
 11 12  1  0
 11 13  1  0
 13 14  1  0
  7 15  2  0
 15 16  1  0
 16 17  1  0
 17 18  2  0
 18 19  1  0
 19 20  2  0
 20 21  1  0
 21 22  1  0
 20 23  1  0
 23 24  2  0
 16 25  2  0
 25  5  1  0
 14  8  1  0
 24 17  1  0
  1 26  1  0
  1 27  1  0
  1 28  1  0
  2 29  1  0
  2 30  1  0
  3 31  1  0
  3 32  1  0
  6 33  1  0
  9 34  1  0
  9 35  1  0
 10 36  1  0
 10 37  1  0
 12 38  1  0
 12 39  1  0
 12 40  1  0
 13 41  1  0
 13 42  1  0
 14 43  1  0
 14 44  1  0
 18 45  1  0
 19 46  1  0
 22 47  1  0
 22 48  1  0
 22 49  1  0
 23 50  1  0
 24 51  1  0
M  END
$$$$
