
     RDKit          3D

 54 57  0  0  0  0  0  0  0  0999 V2000
   -3.6967    5.9415   -0.4013 C   0  0  0  0  0  0  0  0  0  0  0  0
   -3.1976    4.9599    0.4971 O   0  0  0  0  0  0  0  0  0  0  0  0
   -2.4159    3.9728   -0.0370 C   0  0  0  0  0  0  0  0  0  0  0  0
   -1.9804    3.0112    0.8757 C   0  0  0  0  0  0  0  0  0  0  0  0
   -1.1760    1.9461    0.4629 C   0  0  0  0  0  0  0  0  0  0  0  0
   -0.7964    1.8181   -0.8812 C   0  0  0  0  0  0  0  0  0  0  0  0
    0.0967    0.6860   -1.3645 C   0  0  0  0  0  0  0  0  0  0  0  0
    1.5730    1.0205   -1.1433 C   0  0  0  0  0  0  0  0  0  0  0  0
    1.9544   -0.0458   -0.1548 C   0  0  0  0  0  0  0  0  0  0  0  0
    3.3075   -0.1002    0.4477 C   0  0  0  0  0  0  0  0  0  0  0  0
    4.3082    0.8008    0.0743 C   0  0  0  0  0  0  0  0  0  0  0  0
    5.5768    0.7103    0.6502 C   0  0  0  0  0  0  0  0  0  0  0  0
    5.8509   -0.2754    1.6016 C   0  0  0  0  0  0  0  0  0  0  0  0
    4.8556   -1.1730    1.9879 C   0  0  0  0  0  0  0  0  0  0  0  0
    4.9900   -2.1721    2.9124 O   0  0  0  0  0  0  0  0  0  0  0  0
    6.2633   -2.3132    3.5280 C   0  0  0  0  0  0  0  0  0  0  0  0
    3.5875   -1.0826    1.4065 C   0  0  0  0  0  0  0  0  0  0  0  0
    1.0278   -0.9175    0.1001 N   0  0  0  0  0  0  0  0  0  0  0  0
   -0.0813   -0.5592   -0.6125 N   0  0  0  0  0  0  0  0  0  0  0  0
   -1.1343   -1.4602   -0.7784 C   0  0  0  0  0  0  0  0  0  0  0  0
   -1.1171   -2.7106   -0.1310 C   0  0  0  0  0  0  0  0  0  0  0  0
   -2.1599   -3.6319   -0.2683 C   0  0  0  0  0  0  0  0  0  0  0  0
   -3.2605   -3.3031   -1.0565 C   0  0  0  0  0  0  0  0  0  0  0  0
   -4.5911   -4.4605   -1.2054 S   0  0  0  0  0  6  0  0  0  0  0  0
   -5.2921   -4.3742    0.3251 N   0  0  0  0  0  0  0  0  0  0  0  0
   -5.5824   -3.9136   -2.1055 O   0  0  0  0  0  0  0  0  0  0  0  0
   -4.0319   -5.7792   -1.3745 O   0  0  0  0  0  0  0  0  0  0  0  0
   -3.3121   -2.0811   -1.7207 C   0  0  0  0  0  0  0  0  0  0  0  0
   -2.2552   -1.1734   -1.5773 C   0  0  0  0  0  0  0  0  0  0  0  0
   -1.2296    2.7950   -1.7909 C   0  0  0  0  0  0  0  0  0  0  0  0
   -2.0345    3.8618   -1.3735 C   0  0  0  0  0  0  0  0  0  0  0  0
   -4.3381    5.4888   -1.1650 H   0  0  0  0  0  0  0  0  0  0  0  0
   -4.3090    6.6427    0.1734 H   0  0  0  0  0  0  0  0  0  0  0  0
   -2.8792    6.5104   -0.8569 H   0  0  0  0  0  0  0  0  0  0  0  0
   -2.2713    3.0886    1.9205 H   0  0  0  0  0  0  0  0  0  0  0  0
   -0.8531    1.2112    1.1997 H   0  0  0  0  0  0  0  0  0  0  0  0
   -0.0724    0.5086   -2.4350 H   0  0  0  0  0  0  0  0  0  0  0  0
    1.7516    2.0221   -0.7419 H   0  0  0  0  0  0  0  0  0  0  0  0
    2.1497    0.8812   -2.0639 H   0  0  0  0  0  0  0  0  0  0  0  0
    4.1282    1.5793   -0.6610 H   0  0  0  0  0  0  0  0  0  0  0  0
    6.3563    1.4073    0.3567 H   0  0  0  0  0  0  0  0  0  0  0  0
    6.8498   -0.3136    2.0235 H   0  0  0  0  0  0  0  0  0  0  0  0
    6.1982   -3.1369    4.2464 H   0  0  0  0  0  0  0  0  0  0  0  0
    7.0309   -2.5702    2.7910 H   0  0  0  0  0  0  0  0  0  0  0  0
    6.5361   -1.4096    4.0822 H   0  0  0  0  0  0  0  0  0  0  0  0
    2.8159   -1.7863    1.7107 H   0  0  0  0  0  0  0  0  0  0  0  0
   -0.2657   -2.9785    0.4914 H   0  0  0  0  0  0  0  0  0  0  0  0
   -2.0990   -4.5931    0.2367 H   0  0  0  0  0  0  0  0  0  0  0  0
   -4.7476   -3.8131    0.9803 H   0  0  0  0  0  0  0  0  0  0  0  0
   -6.2423   -4.0123    0.2276 H   0  0  0  0  0  0  0  0  0  0  0  0
   -4.1611   -1.8193   -2.3484 H   0  0  0  0  0  0  0  0  0  0  0  0
   -2.3355   -0.2284   -2.1036 H   0  0  0  0  0  0  0  0  0  0  0  0
   -0.9451    2.7355   -2.8392 H   0  0  0  0  0  0  0  0  0  0  0  0
   -2.3441    4.5883   -2.1178 H   0  0  0  0  0  0  0  0  0  0  0  0
  1  2  1  0
  2  3  1  0
  3  4  2  0
  4  5  1  0
  5  6  2  0
  6  7  1  0
  7  8  1  0
  8  9  1  0
  9 10  1  0
 10 11  2  0
 11 12  1  0
 12 13  2  0
 13 14  1  0
 14 15  1  0
 15 16  1  0
 14 17  2  0
  9 18  2  0
 18 19  1  0
 19 20  1  0
 20 21  2  0
 21 22  1  0
 22 23  2  0
 23 24  1  0
 24 25  1  0
 24 26  2  0
 24 27  2  0
 23 28  1  0
 28 29  2  0
  6 30  1  0
 30 31  2  0
 31  3  1  0
 19  7  1  0
 29 20  1  0
 17 10  1  0
  1 32  1  0
  1 33  1  0
  1 34  1  0
  4 35  1  0
  5 36  1  0
  7 37  1  0
  8 38  1  0
  8 39  1  0
 11 40  1  0
 12 41  1  0
 13 42  1  0
 16 43  1  0
 16 44  1  0
 16 45  1  0
 17 46  1  0
 21 47  1  0
 22 48  1  0
 25 49  1  0
 25 50  1  0
 28 51  1  0
 29 52  1  0
 30 53  1  0
 31 54  1  0
M  END
$$$$
