
     RDKit          3D

 77 83  0  0  0  0  0  0  0  0999 V2000
   -6.7910   -1.8376   -1.5323 C   0  0  0  0  0  0  0  0  0  0  0  0
   -6.2528   -1.2386   -0.2274 C   0  0  0  0  0  0  0  0  0  0  0  0
   -6.5550   -2.1294    0.9828 C   0  0  0  0  0  0  0  0  0  0  0  0
   -6.9158    0.1296   -0.0077 C   0  0  0  0  0  0  0  0  0  0  0  0
   -4.8376   -0.9425   -0.3375 O   0  0  0  0  0  0  0  0  0  0  0  0
   -3.9217   -1.9289   -0.5044 C   0  0  0  0  0  0  0  0  0  0  0  0
   -4.1889   -3.1218   -0.5679 O   0  0  0  0  0  0  0  0  0  0  0  0
   -2.6362   -1.4375   -0.5929 N   0  0  0  0  0  0  0  0  0  0  0  0
   -1.5358   -2.3779   -0.7748 C   0  0  0  0  0  0  0  0  0  0  0  0
   -0.1592   -1.6957   -0.9091 C   0  0  0  0  0  0  0  0  0  0  0  0
    0.0726   -0.7347    0.1708 N   0  0  0  0  0  0  0  0  0  0  0  0
   -1.0447    0.2931    0.2489 C   0  0  2  0  0  0  0  0  0  0  0  0
   -2.2973   -0.0132   -0.6014 C   0  0  0  0  0  0  0  0  0  0  0  0
   -0.3559    1.5430   -0.1462 C   0  0  0  0  0  0  0  0  0  0  0  0
    1.0268    1.3806   -0.2066 C   0  0  0  0  0  0  0  0  0  0  0  0
    1.5875    2.5709   -0.6009 C   0  0  0  0  0  0  0  0  0  0  0  0
    2.8644    2.9030   -0.7705 O   0  0  0  0  0  0  0  0  0  0  0  0
    0.5351    3.4964   -0.7581 N   0  0  0  0  0  0  0  0  0  0  0  0
    0.6631    4.8839   -1.0844 C   0  0  0  0  0  0  0  0  0  0  0  0
   -0.2629    5.8136   -0.5869 C   0  0  0  0  0  0  0  0  0  0  0  0
   -0.1592    7.1648   -0.9284 C   0  0  0  0  0  0  0  0  0  0  0  0
    0.8717    7.5989   -1.7598 C   0  0  0  0  0  0  0  0  0  0  0  0
    1.8090    6.6864   -2.2375 C   0  0  0  0  0  0  0  0  0  0  0  0
    1.7087    5.3325   -1.9023 C   0  0  0  0  0  0  0  0  0  0  0  0
   -0.6773    2.8101   -0.5444 C   0  0  0  0  0  0  0  0  0  0  0  0
   -1.8920    3.3096   -0.7711 O   0  0  0  0  0  0  0  0  0  0  0  0
    1.3885   -0.0054    0.1606 C   0  0  1  0  0  0  0  0  0  0  0  0
    2.0127   -0.1057    1.5914 C   0  0  0  0  0  0  0  0  0  0  0  0
    1.5013    0.2232    2.6538 O   0  0  0  0  0  0  0  0  0  0  0  0
    3.2906   -0.6627    1.4335 N   0  0  0  0  0  0  0  0  0  0  0  0
    4.1377   -1.0226    2.5483 C   0  0  0  0  0  0  0  0  0  0  0  0
    4.0891   -2.5009    2.8634 C   0  0  0  0  0  0  0  0  0  0  0  0
    5.2496   -3.2863    2.8043 C   0  0  0  0  0  0  0  0  0  0  0  0
    5.1969   -4.6521    3.0930 C   0  0  0  0  0  0  0  0  0  0  0  0
    3.9879   -5.2463    3.4530 C   0  0  0  0  0  0  0  0  0  0  0  0
    2.8303   -4.4752    3.5252 C   0  0  0  0  0  0  0  0  0  0  0  0
    2.8807   -3.1103    3.2365 C   0  0  0  0  0  0  0  0  0  0  0  0
    3.5901   -0.8793    0.0817 C   0  0  0  0  0  0  0  0  0  0  0  0
    4.7635   -1.3706   -0.4655 C   0  0  0  0  0  0  0  0  0  0  0  0
    4.8656   -1.4317   -1.8573 C   0  0  0  0  0  0  0  0  0  0  0  0
    3.8091   -1.0016   -2.6727 C   0  0  0  0  0  0  0  0  0  0  0  0
    2.6253   -0.5186   -2.1081 C   0  0  0  0  0  0  0  0  0  0  0  0
    2.5159   -0.4744   -0.7216 C   0  0  0  0  0  0  0  0  0  0  0  0
   -6.3488   -2.8142   -1.7532 H   0  0  0  0  0  0  0  0  0  0  0  0
   -6.5515   -1.1874   -2.3840 H   0  0  0  0  0  0  0  0  0  0  0  0
   -7.8781   -1.9648   -1.4911 H   0  0  0  0  0  0  0  0  0  0  0  0
   -6.0700   -1.7404    1.8852 H   0  0  0  0  0  0  0  0  0  0  0  0
   -7.6328   -2.1931    1.1652 H   0  0  0  0  0  0  0  0  0  0  0  0
   -6.1884   -3.1503    0.8423 H   0  0  0  0  0  0  0  0  0  0  0  0
   -6.5322    0.6052    0.9025 H   0  0  0  0  0  0  0  0  0  0  0  0
   -6.6814    0.8101   -0.8341 H   0  0  0  0  0  0  0  0  0  0  0  0
   -8.0027    0.0474    0.0772 H   0  0  0  0  0  0  0  0  0  0  0  0
   -1.5385   -3.0660    0.0796 H   0  0  0  0  0  0  0  0  0  0  0  0
   -1.7428   -2.9727   -1.6724 H   0  0  0  0  0  0  0  0  0  0  0  0
   -0.1155   -1.2016   -1.8868 H   0  0  0  0  0  0  0  0  0  0  0  0
    0.6045   -2.4814   -0.8937 H   0  0  0  0  0  0  0  0  0  0  0  0
   -1.3386    0.3539    1.3043 H   0  0  0  0  0  0  0  0  0  0  0  0
   -2.1354    0.2539   -1.6539 H   0  0  0  0  0  0  0  0  0  0  0  0
   -3.1348    0.5990   -0.2499 H   0  0  0  0  0  0  0  0  0  0  0  0
    3.4121    2.1239   -0.5695 H   0  0  0  0  0  0  0  0  0  0  0  0
   -1.0413    5.5191    0.1155 H   0  0  0  0  0  0  0  0  0  0  0  0
   -0.8754    7.8819   -0.5333 H   0  0  0  0  0  0  0  0  0  0  0  0
    0.9540    8.6512   -2.0201 H   0  0  0  0  0  0  0  0  0  0  0  0
    2.6213    7.0241   -2.8759 H   0  0  0  0  0  0  0  0  0  0  0  0
    2.4443    4.6474   -2.3145 H   0  0  0  0  0  0  0  0  0  0  0  0
   -1.8108    4.0608   -1.3859 H   0  0  0  0  0  0  0  0  0  0  0  0
    5.1607   -0.6942    2.3284 H   0  0  0  0  0  0  0  0  0  0  0  0
    3.8208   -0.4722    3.4427 H   0  0  0  0  0  0  0  0  0  0  0  0
    6.2048   -2.8425    2.5335 H   0  0  0  0  0  0  0  0  0  0  0  0
    6.1019   -5.2532    3.0436 H   0  0  0  0  0  0  0  0  0  0  0  0
    3.9476   -6.3084    3.6790 H   0  0  0  0  0  0  0  0  0  0  0  0
    1.8863   -4.9341    3.8083 H   0  0  0  0  0  0  0  0  0  0  0  0
    1.9664   -2.5221    3.3078 H   0  0  0  0  0  0  0  0  0  0  0  0
    5.5946   -1.6927    0.1510 H   0  0  0  0  0  0  0  0  0  0  0  0
    5.7785   -1.8073   -2.3156 H   0  0  0  0  0  0  0  0  0  0  0  0
    3.9129   -1.0451   -3.7550 H   0  0  0  0  0  0  0  0  0  0  0  0
    1.8186   -0.1728   -2.7464 H   0  0  0  0  0  0  0  0  0  0  0  0
  1  2  1  0
  2  3  1  0
  2  4  1  0
  2  5  1  0
  5  6  1  0
  6  7  2  0
  6  8  1  0
  8  9  1  0
  9 10  1  0
 10 11  1  0
 11 12  1  0
 12 13  1  0
 12 14  1  0
 14 15  1  0
 15 16  2  0
 16 17  1  0
 16 18  1  0
 18 19  1  0
 19 20  2  0
 20 21  1  0
 21 22  2  0
 22 23  1  0
 23 24  2  0
 18 25  1  0
 25 26  1  0
 15 27  1  0
 27 28  1  0
 28 29  2  0
 28 30  1  0
 30 31  1  0
 31 32  1  0
 32 33  2  0
 33 34  1  0
 34 35  2  0
 35 36  1  0
 36 37  2  0
 30 38  1  0
 38 39  2  0
 39 40  1  0
 40 41  2  0
 41 42  1  0
 42 43  2  0
 13  8  1  0
 25 14  2  0
 43 27  1  0
 27 11  1  1
 37 32  1  0
 43 38  1  0
 24 19  1  0
  1 44  1  0
  1 45  1  0
  1 46  1  0
  3 47  1  0
  3 48  1  0
  3 49  1  0
  4 50  1  0
  4 51  1  0
  4 52  1  0
  9 53  1  0
  9 54  1  0
 10 55  1  0
 10 56  1  0
 12 57  1  1
 13 58  1  0
 13 59  1  0
 17 60  1  0
 20 61  1  0
 21 62  1  0
 22 63  1  0
 23 64  1  0
 24 65  1  0
 26 66  1  0
 31 67  1  0
 31 68  1  0
 33 69  1  0
 34 70  1  0
 35 71  1  0
 36 72  1  0
 37 73  1  0
 39 74  1  0
 40 75  1  0
 41 76  1  0
 42 77  1  0
M  END
$$$$
