
     RDKit          3D

 57 58  0  0  0  0  0  0  0  0999 V2000
    6.8412    3.5023    2.6574 C   0  0  0  0  0  0  0  0  0  0  0  0
    7.0696    2.6638    1.4299 C   0  0  0  0  0  0  0  0  0  0  0  0
    8.1027    3.0014    0.5422 C   0  0  0  0  0  0  0  0  0  0  0  0
    8.3275    2.2418   -0.6040 C   0  0  0  0  0  0  0  0  0  0  0  0
    7.5213    1.1407   -0.8728 C   0  0  0  0  0  0  0  0  0  0  0  0
    6.4873    0.7958    0.0022 C   0  0  0  0  0  0  0  0  0  0  0  0
    6.2517    1.5512    1.1550 C   0  0  0  0  0  0  0  0  0  0  0  0
    5.2633    1.3096    2.0719 O   0  0  0  0  0  0  0  0  0  0  0  0
    4.3894    0.1955    1.8852 C   0  0  0  0  0  0  0  0  0  0  0  0
    3.2140    0.5810    0.9988 C   0  0  0  0  0  0  0  0  0  0  0  0
    2.2599   -0.5695    0.8440 C   0  0  0  0  0  0  0  0  0  0  0  0
    2.3736   -1.6622    1.3800 O   0  0  0  0  0  0  0  0  0  0  0  0
    1.2423   -0.2128    0.0157 O   0  0  0  0  0  0  0  0  0  0  0  0
    0.2834   -1.2512   -0.2183 C   0  0  0  0  0  0  0  0  0  0  0  0
   -0.7246   -0.7699   -1.2572 C   0  0  0  0  0  0  0  0  0  0  0  0
   -0.4450    0.1074   -2.0821 O   0  0  0  0  0  0  0  0  0  0  0  0
   -2.1043   -1.3600   -1.2320 C   0  0  0  0  0  0  0  0  0  0  0  0
   -3.1764   -0.5960   -1.5429 C   0  0  0  0  0  0  0  0  0  0  0  0
   -3.0343    0.7411   -1.9080 N   0  0  0  0  0  0  0  0  0  0  0  0
   -4.4527   -1.1591   -1.4841 N   0  0  0  0  0  0  0  0  0  0  0  0
   -5.6444   -0.3311   -1.7480 C   0  0  0  0  0  0  0  0  0  0  0  0
   -6.0284    0.5982   -0.5765 C   0  0  0  0  0  0  0  0  0  0  0  0
   -7.1606    1.5324   -1.0086 C   0  0  0  0  0  0  0  0  0  0  0  0
   -6.4489   -0.1835    0.6689 C   0  0  0  0  0  0  0  0  0  0  0  0
   -4.6939   -2.4804   -1.1005 C   0  0  0  0  0  0  0  0  0  0  0  0
   -5.8268   -2.9670   -1.0731 O   0  0  0  0  0  0  0  0  0  0  0  0
   -3.5843   -3.2271   -0.7473 N   0  0  0  0  0  0  0  0  0  0  0  0
   -3.8053   -4.6101   -0.3625 C   0  0  0  0  0  0  0  0  0  0  0  0
   -2.2920   -2.7764   -0.8634 C   0  0  0  0  0  0  0  0  0  0  0  0
   -1.3075   -3.4935   -0.6908 O   0  0  0  0  0  0  0  0  0  0  0  0
    5.8652    3.9944    2.6024 H   0  0  0  0  0  0  0  0  0  0  0  0
    7.6042    4.2816    2.7591 H   0  0  0  0  0  0  0  0  0  0  0  0
    6.8855    2.8804    3.5573 H   0  0  0  0  0  0  0  0  0  0  0  0
    8.7390    3.8603    0.7410 H   0  0  0  0  0  0  0  0  0  0  0  0
    9.1302    2.5095   -1.2859 H   0  0  0  0  0  0  0  0  0  0  0  0
    7.6947    0.5468   -1.7670 H   0  0  0  0  0  0  0  0  0  0  0  0
    5.8863   -0.0698   -0.2548 H   0  0  0  0  0  0  0  0  0  0  0  0
    4.0127   -0.0646    2.8821 H   0  0  0  0  0  0  0  0  0  0  0  0
    4.9211   -0.6980    1.5384 H   0  0  0  0  0  0  0  0  0  0  0  0
    3.5638    0.8851    0.0069 H   0  0  0  0  0  0  0  0  0  0  0  0
    2.6816    1.4306    1.4411 H   0  0  0  0  0  0  0  0  0  0  0  0
   -0.2331   -1.4699    0.7220 H   0  0  0  0  0  0  0  0  0  0  0  0
    0.7924   -2.1351   -0.6164 H   0  0  0  0  0  0  0  0  0  0  0  0
   -2.0588    0.9800   -2.1374 H   0  0  0  0  0  0  0  0  0  0  0  0
   -3.6123    0.9874   -2.7057 H   0  0  0  0  0  0  0  0  0  0  0  0
   -5.4750    0.2463   -2.6641 H   0  0  0  0  0  0  0  0  0  0  0  0
   -6.5007   -0.9745   -1.9865 H   0  0  0  0  0  0  0  0  0  0  0  0
   -5.1691    1.2220   -0.3039 H   0  0  0  0  0  0  0  0  0  0  0  0
   -7.4278    2.2211   -0.2001 H   0  0  0  0  0  0  0  0  0  0  0  0
   -8.0580    0.9684   -1.2840 H   0  0  0  0  0  0  0  0  0  0  0  0
   -6.8594    2.1345   -1.8721 H   0  0  0  0  0  0  0  0  0  0  0  0
   -6.7571    0.4985    1.4687 H   0  0  0  0  0  0  0  0  0  0  0  0
   -7.2888   -0.8523    0.4546 H   0  0  0  0  0  0  0  0  0  0  0  0
   -5.6216   -0.7857    1.0569 H   0  0  0  0  0  0  0  0  0  0  0  0
   -2.9414   -5.0286    0.1609 H   0  0  0  0  0  0  0  0  0  0  0  0
   -4.6803   -4.6864    0.2902 H   0  0  0  0  0  0  0  0  0  0  0  0
   -3.9913   -5.1945   -1.2690 H   0  0  0  0  0  0  0  0  0  0  0  0
  1  2  1  0
  2  3  2  0
  3  4  1  0
  4  5  2  0
  5  6  1  0
  6  7  2  0
  7  8  1  0
  8  9  1  0
  9 10  1  0
 10 11  1  0
 11 12  2  0
 11 13  1  0
 13 14  1  0
 14 15  1  0
 15 16  2  0
 15 17  1  0
 17 18  2  0
 18 19  1  0
 18 20  1  0
 20 21  1  0
 21 22  1  0
 22 23  1  0
 22 24  1  0
 20 25  1  0
 25 26  2  0
 25 27  1  0
 27 28  1  0
 27 29  1  0
 29 30  2  0
  7  2  1  0
 29 17  1  0
  1 31  1  0
  1 32  1  0
  1 33  1  0
  3 34  1  0
  4 35  1  0
  5 36  1  0
  6 37  1  0
  9 38  1  0
  9 39  1  0
 10 40  1  0
 10 41  1  0
 14 42  1  0
 14 43  1  0
 19 44  1  0
 19 45  1  0
 21 46  1  0
 21 47  1  0
 22 48  1  0
 23 49  1  0
 23 50  1  0
 23 51  1  0
 24 52  1  0
 24 53  1  0
 24 54  1  0
 28 55  1  0
 28 56  1  0
 28 57  1  0
M  END
$$$$
