
     RDKit          3D

 54 59  0  0  0  0  0  0  0  0999 V2000
    4.9221   -2.6968    0.6578 C   0  0  0  0  0  0  0  0  0  0  0  0
    5.1157   -1.2651    1.0770 C   0  0  0  0  0  0  0  0  0  0  0  0
    5.7789   -0.9781    2.2800 C   0  0  0  0  0  0  0  0  0  0  0  0
    5.9636    0.3408    2.6883 C   0  0  0  0  0  0  0  0  0  0  0  0
    5.4870    1.3821    1.8986 C   0  0  0  0  0  0  0  0  0  0  0  0
    4.8254    1.1091    0.6980 C   0  0  0  0  0  0  0  0  0  0  0  0
    4.6339   -0.2102    0.2781 C   0  0  0  0  0  0  0  0  0  0  0  0
    4.0051   -0.5918   -0.8769 O   0  0  0  0  0  0  0  0  0  0  0  0
    3.4288    0.4095   -1.7257 C   0  0  0  0  0  0  0  0  0  0  0  0
    2.0938    0.8980   -1.2601 C   0  0  0  0  0  0  0  0  0  0  0  0
    0.9902    0.0748   -1.1958 N   0  0  0  0  0  0  0  0  0  0  0  0
    0.0423    0.8547   -0.7206 C   0  0  0  0  0  0  0  0  0  0  0  0
   -1.3408    0.6679   -0.3895 C   0  0  0  0  0  0  0  0  0  0  0  0
   -2.0022    1.7937    0.0216 C   0  0  0  0  0  0  0  0  0  0  0  0
   -1.4240    3.0536    0.1704 N   0  0  0  0  0  0  0  0  0  0  0  0
   -0.1647    3.1860   -0.1125 C   0  0  0  0  0  0  0  0  0  0  0  0
    0.5625    2.1049   -0.5546 N   0  0  0  0  0  0  0  0  0  0  0  0
    1.8631    2.1716   -0.8985 N   0  0  0  0  0  0  0  0  0  0  0  0
   -3.4615    1.7232    0.3154 C   0  0  0  0  0  0  0  0  0  0  0  0
   -4.2484    2.8849    0.3847 C   0  0  0  0  0  0  0  0  0  0  0  0
   -5.6136    2.8158    0.6728 C   0  0  0  0  0  0  0  0  0  0  0  0
   -6.2127    1.5822    0.9046 C   0  0  0  0  0  0  0  0  0  0  0  0
   -5.4481    0.4195    0.8459 C   0  0  0  0  0  0  0  0  0  0  0  0
   -4.0797    0.4857    0.5418 C   0  0  0  0  0  0  0  0  0  0  0  0
   -3.2452   -0.7626    0.5176 C   0  0  0  0  0  0  0  0  0  0  0  0
   -2.0815   -0.6830   -0.5112 C   0  0  0  0  0  0  0  0  0  0  0  0
   -1.2096   -1.9508   -0.3314 C   0  0  0  0  0  0  0  0  0  0  0  0
   -1.9976   -3.0724   -1.0061 C   0  0  0  0  0  0  0  0  0  0  0  0
   -2.8197   -2.3983   -2.1026 C   0  0  0  0  0  0  0  0  0  0  0  0
   -2.5846   -0.8939   -1.9568 C   0  0  0  0  0  0  0  0  0  0  0  0
    3.8548   -2.9263    0.5750 H   0  0  0  0  0  0  0  0  0  0  0  0
    5.4104   -2.8795   -0.3049 H   0  0  0  0  0  0  0  0  0  0  0  0
    5.3551   -3.3911    1.3857 H   0  0  0  0  0  0  0  0  0  0  0  0
    6.1542   -1.7839    2.9066 H   0  0  0  0  0  0  0  0  0  0  0  0
    6.4772    0.5549    3.6218 H   0  0  0  0  0  0  0  0  0  0  0  0
    5.6281    2.4121    2.2159 H   0  0  0  0  0  0  0  0  0  0  0  0
    4.4715    1.9571    0.1218 H   0  0  0  0  0  0  0  0  0  0  0  0
    3.2788   -0.0719   -2.6997 H   0  0  0  0  0  0  0  0  0  0  0  0
    4.1341    1.2275   -1.9136 H   0  0  0  0  0  0  0  0  0  0  0  0
    0.3432    4.1575   -0.0116 H   0  0  0  0  0  0  0  0  0  0  0  0
   -3.8004    3.8615    0.2137 H   0  0  0  0  0  0  0  0  0  0  0  0
   -6.2033    3.7273    0.7211 H   0  0  0  0  0  0  0  0  0  0  0  0
   -7.2730    1.5265    1.1364 H   0  0  0  0  0  0  0  0  0  0  0  0
   -5.9232   -0.5394    1.0399 H   0  0  0  0  0  0  0  0  0  0  0  0
   -2.8405   -0.9052    1.5292 H   0  0  0  0  0  0  0  0  0  0  0  0
   -3.8928   -1.6233    0.3138 H   0  0  0  0  0  0  0  0  0  0  0  0
   -0.2502   -1.8784   -0.8485 H   0  0  0  0  0  0  0  0  0  0  0  0
   -0.9947   -2.1788    0.7181 H   0  0  0  0  0  0  0  0  0  0  0  0
   -2.6603   -3.5660   -0.2862 H   0  0  0  0  0  0  0  0  0  0  0  0
   -1.3321   -3.8411   -1.4120 H   0  0  0  0  0  0  0  0  0  0  0  0
   -2.5220   -2.7441   -3.0981 H   0  0  0  0  0  0  0  0  0  0  0  0
   -3.8815   -2.6395   -1.9794 H   0  0  0  0  0  0  0  0  0  0  0  0
   -3.4921   -0.3259   -2.1875 H   0  0  0  0  0  0  0  0  0  0  0  0
   -1.8200   -0.5851   -2.6820 H   0  0  0  0  0  0  0  0  0  0  0  0
  1  2  1  0
  2  3  2  0
  3  4  1  0
  4  5  2  0
  5  6  1  0
  6  7  2  0
  7  8  1  0
  8  9  1  0
  9 10  1  0
 10 11  1  0
 11 12  2  0
 12 13  1  0
 13 14  2  0
 14 15  1  0
 15 16  2  0
 16 17  1  0
 17 18  1  0
 14 19  1  0
 19 20  2  0
 20 21  1  0
 21 22  2  0
 22 23  1  0
 23 24  2  0
 24 25  1  0
 25 26  1  0
 26 27  1  0
 27 28  1  0
 28 29  1  0
 29 30  1  0
  7  2  1  0
 18 10  2  0
 24 19  1  0
 30 26  1  0
 17 12  1  0
 26 13  1  0
  1 31  1  0
  1 32  1  0
  1 33  1  0
  3 34  1  0
  4 35  1  0
  5 36  1  0
  6 37  1  0
  9 38  1  0
  9 39  1  0
 16 40  1  0
 20 41  1  0
 21 42  1  0
 22 43  1  0
 23 44  1  0
 25 45  1  0
 25 46  1  0
 27 47  1  0
 27 48  1  0
 28 49  1  0
 28 50  1  0
 29 51  1  0
 29 52  1  0
 30 53  1  0
 30 54  1  0
M  END
$$$$
