
     RDKit          3D

 57 59  0  0  0  0  0  0  0  0999 V2000
    7.6690   -0.6194    1.1478 C   0  0  0  0  0  0  0  0  0  0  0  0
    6.7323    0.4978    0.9920 N   0  0  0  0  0  0  0  0  0  0  0  0
    7.3321    1.7214    1.5315 C   0  0  0  0  0  0  0  0  0  0  0  0
    5.4424    0.2279    1.6708 C   0  0  0  0  0  0  0  0  0  0  0  0
    4.5976   -0.8496    0.9580 C   0  0  0  0  0  0  0  0  0  0  0  0
    4.5479   -0.5343   -0.4776 N   0  0  0  0  0  0  0  0  0  0  0  0
    3.7210   -1.5491   -1.5098 S   0  0  0  0  0  6  0  0  0  0  0  0
    3.7543   -2.8868   -0.9622 O   0  0  0  0  0  0  0  0  0  0  0  0
    4.1691   -1.2544   -2.8511 O   0  0  0  0  0  0  0  0  0  0  0  0
    2.0667   -0.9223   -1.3709 C   0  0  0  0  0  0  0  0  0  0  0  0
    1.0545   -1.7225   -0.8335 C   0  0  0  0  0  0  0  0  0  0  0  0
   -0.2483   -1.2194   -0.7249 C   0  0  0  0  0  0  0  0  0  0  0  0
   -0.5648    0.0829   -1.1463 C   0  0  0  0  0  0  0  0  0  0  0  0
   -1.8629    0.5954   -1.0332 N   0  0  0  0  0  0  0  0  0  0  0  0
   -2.9210   -0.1466   -1.7622 C   0  0  0  0  0  0  0  0  0  0  0  0
   -3.9462   -0.8379   -0.8340 C   0  0  0  0  0  0  0  0  0  0  0  0
   -4.5316    0.0960    0.1492 N   0  0  0  0  0  0  0  0  0  0  0  0
   -5.8413   -0.0463    0.5767 C   0  0  0  0  0  0  0  0  0  0  0  0
   -6.5923    1.0424    1.0546 C   0  0  0  0  0  0  0  0  0  0  0  0
   -7.9133    0.8942    1.4954 C   0  0  0  0  0  0  0  0  0  0  0  0
   -8.5073   -0.3563    1.4658 C   0  0  0  0  0  0  0  0  0  0  0  0
   -9.7688   -0.5039    1.8894 F   0  0  0  0  0  0  0  0  0  0  0  0
   -7.8036   -1.4570    1.0062 C   0  0  0  0  0  0  0  0  0  0  0  0
   -6.4830   -1.2989    0.5709 C   0  0  0  0  0  0  0  0  0  0  0  0
   -3.7339    1.2941    0.4744 C   0  0  0  0  0  0  0  0  0  0  0  0
   -2.2223    1.0026    0.3464 C   0  0  0  0  0  0  0  0  0  0  0  0
    0.4864    0.8511   -1.6799 C   0  0  0  0  0  0  0  0  0  0  0  0
    0.2272    2.2037   -2.1200 N   0  0  0  0  0  4  0  0  0  0  0  0
   -0.0454    2.3657   -3.3183 O   0  0  0  0  0  0  0  0  0  0  0  0
    0.3643    3.1014   -1.2761 O   0  0  0  0  0  1  0  0  0  0  0  0
    1.7946    0.3730   -1.8075 C   0  0  0  0  0  0  0  0  0  0  0  0
    8.6161   -0.3962    0.6439 H   0  0  0  0  0  0  0  0  0  0  0  0
    7.2838   -1.5294    0.6777 H   0  0  0  0  0  0  0  0  0  0  0  0
    7.8816   -0.8344    2.2003 H   0  0  0  0  0  0  0  0  0  0  0  0
    8.2707    1.9506    1.0138 H   0  0  0  0  0  0  0  0  0  0  0  0
    7.5384    1.6412    2.6051 H   0  0  0  0  0  0  0  0  0  0  0  0
    6.6702    2.5786    1.3692 H   0  0  0  0  0  0  0  0  0  0  0  0
    5.5926   -0.0503    2.7212 H   0  0  0  0  0  0  0  0  0  0  0  0
    4.8457    1.1499    1.6661 H   0  0  0  0  0  0  0  0  0  0  0  0
    5.0512   -1.8342    1.1097 H   0  0  0  0  0  0  0  0  0  0  0  0
    3.5852   -0.8610    1.3764 H   0  0  0  0  0  0  0  0  0  0  0  0
    5.4166   -0.1475   -0.8603 H   0  0  0  0  0  0  0  0  0  0  0  0
    1.2671   -2.7359   -0.4976 H   0  0  0  0  0  0  0  0  0  0  0  0
   -1.0169   -1.8585   -0.2966 H   0  0  0  0  0  0  0  0  0  0  0  0
   -2.4971   -0.8816   -2.4584 H   0  0  0  0  0  0  0  0  0  0  0  0
   -3.4538    0.5873   -2.3807 H   0  0  0  0  0  0  0  0  0  0  0  0
   -3.4627   -1.6585   -0.2915 H   0  0  0  0  0  0  0  0  0  0  0  0
   -4.7212   -1.2702   -1.4781 H   0  0  0  0  0  0  0  0  0  0  0  0
   -6.1687    2.0429    1.0776 H   0  0  0  0  0  0  0  0  0  0  0  0
   -8.4749    1.7479    1.8627 H   0  0  0  0  0  0  0  0  0  0  0  0
   -8.2762   -2.4332    0.9975 H   0  0  0  0  0  0  0  0  0  0  0  0
   -5.9512   -2.1900    0.2507 H   0  0  0  0  0  0  0  0  0  0  0  0
   -4.0140    2.1138   -0.1984 H   0  0  0  0  0  0  0  0  0  0  0  0
   -3.9218    1.6122    1.5068 H   0  0  0  0  0  0  0  0  0  0  0  0
   -1.6594    1.9039    0.6155 H   0  0  0  0  0  0  0  0  0  0  0  0
   -1.9556    0.2146    1.0635 H   0  0  0  0  0  0  0  0  0  0  0  0
    2.5807    0.9933   -2.2334 H   0  0  0  0  0  0  0  0  0  0  0  0
  1  2  1  0
  2  3  1  0
  2  4  1  0
  4  5  1  0
  5  6  1  0
  6  7  1  0
  7  8  2  0
  7  9  2  0
  7 10  1  0
 10 11  2  0
 11 12  1  0
 12 13  2  0
 13 14  1  0
 14 15  1  0
 15 16  1  0
 16 17  1  0
 17 18  1  0
 18 19  2  0
 19 20  1  0
 20 21  2  0
 21 22  1  0
 21 23  1  0
 23 24  2  0
 17 25  1  0
 25 26  1  0
 13 27  1  0
 27 28  1  0
 28 29  2  0
 28 30  1  0
 27 31  2  0
 31 10  1  0
 26 14  1  0
 24 18  1  0
  1 32  1  0
  1 33  1  0
  1 34  1  0
  3 35  1  0
  3 36  1  0
  3 37  1  0
  4 38  1  0
  4 39  1  0
  5 40  1  0
  5 41  1  0
  6 42  1  0
 11 43  1  0
 12 44  1  0
 15 45  1  0
 15 46  1  0
 16 47  1  0
 16 48  1  0
 19 49  1  0
 20 50  1  0
 23 51  1  0
 24 52  1  0
 25 53  1  0
 25 54  1  0
 26 55  1  0
 26 56  1  0
 31 57  1  0
M  CHG  2  28   1  30  -1
M  END
$$$$
