
     RDKit          3D

 52 54  0  0  0  0  0  0  0  0999 V2000
   -6.6717    0.0208    1.0676 C   0  0  0  0  0  0  0  0  0  0  0  0
   -6.0109    0.0065   -0.3022 C   0  0  0  0  0  0  0  0  0  0  0  0
   -4.9466   -1.0831   -0.4589 C   0  0  0  0  0  0  0  0  0  0  0  0
   -3.7319   -0.8813    0.4567 C   0  0  0  0  0  0  0  0  0  0  0  0
   -2.6096   -1.9093    0.1908 C   0  0  0  0  0  0  0  0  0  0  0  0
   -1.6855   -2.0769    1.4169 C   0  0  0  0  0  0  0  0  0  0  0  0
   -2.3659   -2.7093    2.6264 C   0  0  0  0  0  0  0  0  0  0  0  0
   -1.7998   -1.6196   -1.1100 C   0  0  0  0  0  0  0  0  0  0  0  0
   -1.0023   -0.3826   -1.1086 N   0  0  0  0  0  0  0  0  0  0  0  0
    0.2817   -0.4158   -0.5849 C   0  0  0  0  0  0  0  0  0  0  0  0
    0.8566   -1.4009   -0.1406 O   0  0  0  0  0  0  0  0  0  0  0  0
    0.9221    0.9250   -0.6640 C   0  0  0  0  0  0  0  0  0  0  0  0
    2.1594    1.1276   -0.1865 C   0  0  0  0  0  0  0  0  0  0  0  0
    2.9436    2.3234   -0.1785 C   0  0  0  0  0  0  0  0  0  0  0  0
    2.4847    3.6128   -0.0369 C   0  0  0  0  0  0  0  0  0  0  0  0
    3.5833    4.4147   -0.1075 N   0  0  0  0  0  0  0  0  0  0  0  0
    4.7306    3.7438   -0.2677 N   0  0  0  0  0  0  0  0  0  0  0  0
    4.3660    2.4505   -0.2840 C   0  0  0  0  0  0  0  0  0  0  0  0
    5.3748    1.4045   -0.4304 C   0  0  0  0  0  0  0  0  0  0  0  0
    5.4918    0.3801    0.5176 C   0  0  0  0  0  0  0  0  0  0  0  0
    6.4562   -0.6184    0.3610 C   0  0  0  0  0  0  0  0  0  0  0  0
    7.3143   -0.5943   -0.7379 C   0  0  0  0  0  0  0  0  0  0  0  0
    7.2155    0.4306   -1.6778 C   0  0  0  0  0  0  0  0  0  0  0  0
    6.2517    1.4290   -1.5229 C   0  0  0  0  0  0  0  0  0  0  0  0
   -0.1228    2.0194   -1.4648 S   0  0  0  0  0  0  0  0  0  0  0  0
   -1.3579    0.7955   -1.7363 C   0  0  0  0  0  0  0  0  0  0  0  0
   -2.7066    1.1312   -2.6587 S   0  0  0  0  0  0  0  0  0  0  0  0
   -5.9639    0.3051    1.8517 H   0  0  0  0  0  0  0  0  0  0  0  0
   -7.4897    0.7483    1.0817 H   0  0  0  0  0  0  0  0  0  0  0  0
   -7.0874   -0.9611    1.3143 H   0  0  0  0  0  0  0  0  0  0  0  0
   -5.5725    0.9903   -0.5044 H   0  0  0  0  0  0  0  0  0  0  0  0
   -6.7866   -0.1562   -1.0601 H   0  0  0  0  0  0  0  0  0  0  0  0
   -4.6340   -1.1050   -1.5069 H   0  0  0  0  0  0  0  0  0  0  0  0
   -5.3973   -2.0619   -0.2525 H   0  0  0  0  0  0  0  0  0  0  0  0
   -3.3440    0.1386    0.3661 H   0  0  0  0  0  0  0  0  0  0  0  0
   -4.0827   -0.9764    1.4880 H   0  0  0  0  0  0  0  0  0  0  0  0
   -3.0908   -2.8849    0.0308 H   0  0  0  0  0  0  0  0  0  0  0  0
   -0.8509   -2.7334    1.1455 H   0  0  0  0  0  0  0  0  0  0  0  0
   -1.2641   -1.1100    1.7138 H   0  0  0  0  0  0  0  0  0  0  0  0
   -1.6214   -2.9277    3.3993 H   0  0  0  0  0  0  0  0  0  0  0  0
   -2.8557   -3.6498    2.3557 H   0  0  0  0  0  0  0  0  0  0  0  0
   -3.1105   -2.0451    3.0726 H   0  0  0  0  0  0  0  0  0  0  0  0
   -2.4748   -1.6214   -1.9702 H   0  0  0  0  0  0  0  0  0  0  0  0
   -1.1112   -2.4584   -1.2756 H   0  0  0  0  0  0  0  0  0  0  0  0
    2.6592    0.2533    0.2301 H   0  0  0  0  0  0  0  0  0  0  0  0
    1.5007    4.0359    0.1029 H   0  0  0  0  0  0  0  0  0  0  0  0
    3.6244    5.4270   -0.0521 H   0  0  0  0  0  0  0  0  0  0  0  0
    4.8466    0.3603    1.3922 H   0  0  0  0  0  0  0  0  0  0  0  0
    6.5425   -1.4104    1.1004 H   0  0  0  0  0  0  0  0  0  0  0  0
    8.0667   -1.3697   -0.8571 H   0  0  0  0  0  0  0  0  0  0  0  0
    7.8909    0.4572   -2.5288 H   0  0  0  0  0  0  0  0  0  0  0  0
    6.1856    2.2313   -2.2547 H   0  0  0  0  0  0  0  0  0  0  0  0
  1  2  1  0
  2  3  1  0
  3  4  1  0
  4  5  1  0
  5  6  1  0
  6  7  1  0
  5  8  1  0
  8  9  1  0
  9 10  1  0
 10 11  2  0
 10 12  1  0
 12 13  2  3
 13 14  1  0
 14 15  2  0
 15 16  1  0
 16 17  1  0
 17 18  2  0
 18 19  1  0
 19 20  2  0
 20 21  1  0
 21 22  2  0
 22 23  1  0
 23 24  2  0
 12 25  1  0
 25 26  1  0
 26 27  2  0
 26  9  1  0
 18 14  1  0
 24 19  1  0
  1 28  1  0
  1 29  1  0
  1 30  1  0
  2 31  1  0
  2 32  1  0
  3 33  1  0
  3 34  1  0
  4 35  1  0
  4 36  1  0
  5 37  1  0
  6 38  1  0
  6 39  1  0
  7 40  1  0
  7 41  1  0
  7 42  1  0
  8 43  1  0
  8 44  1  0
 13 45  1  0
 15 46  1  0
 16 47  1  0
 20 48  1  0
 21 49  1  0
 22 50  1  0
 23 51  1  0
 24 52  1  0
M  END
$$$$
