
     RDKit          3D

 43 45  0  0  0  0  0  0  0  0999 V2000
   -1.7205   -3.4233   -0.6984 N   0  0  0  0  0  0  0  0  0  0  0  0
   -0.5105   -2.8587   -0.5306 C   0  0  0  0  0  0  0  0  0  0  0  0
    0.5863   -3.5549   -0.4969 N   0  0  0  0  0  0  0  0  0  0  0  0
    1.6563   -2.5341   -0.3208 C   0  0  0  0  0  0  0  0  0  0  0  0
    0.9505   -1.1964   -0.0140 C   0  0  0  0  0  0  0  0  0  0  0  0
    1.4959   -0.0209   -0.8316 C   0  0  0  0  0  0  0  0  0  0  0  0
    2.8849    0.3946   -0.4091 C   0  0  0  0  0  0  0  0  0  0  0  0
    4.0009    0.0457   -1.1834 C   0  0  0  0  0  0  0  0  0  0  0  0
    5.2867    0.4178   -0.7838 C   0  0  0  0  0  0  0  0  0  0  0  0
    5.4553    1.1411    0.3917 C   0  0  0  0  0  0  0  0  0  0  0  0
    6.6916    1.5247    0.8194 O   0  0  0  0  0  0  0  0  0  0  0  0
    4.3619    1.4973    1.1708 C   0  0  0  0  0  0  0  0  0  0  0  0
    3.0774    1.1252    0.7725 C   0  0  0  0  0  0  0  0  0  0  0  0
   -0.4347   -1.5068   -0.3866 N   0  0  0  0  0  0  0  0  0  0  0  0
   -1.4934   -0.6963    0.2134 C   0  0  0  0  0  0  0  0  0  0  0  0
   -2.3599   -0.0599   -0.8779 C   0  0  0  0  0  0  0  0  0  0  0  0
   -3.4175    0.8480   -0.3001 C   0  0  0  0  0  0  0  0  0  0  0  0
   -3.2029    2.2323   -0.2187 C   0  0  0  0  0  0  0  0  0  0  0  0
   -4.1757    3.0713    0.3320 C   0  0  0  0  0  0  0  0  0  0  0  0
   -5.3696    2.5339    0.8090 C   0  0  0  0  0  0  0  0  0  0  0  0
   -5.5806    1.1627    0.7325 C   0  0  0  0  0  0  0  0  0  0  0  0
   -6.7267    0.6452    1.1941 F   0  0  0  0  0  0  0  0  0  0  0  0
   -4.6196    0.3173    0.1866 C   0  0  0  0  0  0  0  0  0  0  0  0
   -2.2641   -2.9691   -1.4188 H   0  0  0  0  0  0  0  0  0  0  0  0
   -1.6068   -4.4090   -0.9147 H   0  0  0  0  0  0  0  0  0  0  0  0
    2.3157   -2.8246    0.5038 H   0  0  0  0  0  0  0  0  0  0  0  0
    2.2514   -2.4965   -1.2396 H   0  0  0  0  0  0  0  0  0  0  0  0
    1.0117   -0.9993    1.0644 H   0  0  0  0  0  0  0  0  0  0  0  0
    1.4825   -0.2610   -1.9031 H   0  0  0  0  0  0  0  0  0  0  0  0
    0.8345    0.8494   -0.7270 H   0  0  0  0  0  0  0  0  0  0  0  0
    3.8771   -0.5204   -2.1046 H   0  0  0  0  0  0  0  0  0  0  0  0
    6.1357    0.1359   -1.3985 H   0  0  0  0  0  0  0  0  0  0  0  0
    7.3524    1.2013    0.1855 H   0  0  0  0  0  0  0  0  0  0  0  0
    4.5096    2.0634    2.0862 H   0  0  0  0  0  0  0  0  0  0  0  0
    2.2300    1.4123    1.3909 H   0  0  0  0  0  0  0  0  0  0  0  0
   -2.1034   -1.3004    0.8969 H   0  0  0  0  0  0  0  0  0  0  0  0
   -1.0559    0.0995    0.8305 H   0  0  0  0  0  0  0  0  0  0  0  0
   -1.7281    0.5080   -1.5734 H   0  0  0  0  0  0  0  0  0  0  0  0
   -2.8458   -0.8294   -1.4895 H   0  0  0  0  0  0  0  0  0  0  0  0
   -2.2759    2.6686   -0.5863 H   0  0  0  0  0  0  0  0  0  0  0  0
   -4.0016    4.1430    0.3879 H   0  0  0  0  0  0  0  0  0  0  0  0
   -6.1345    3.1723    1.2391 H   0  0  0  0  0  0  0  0  0  0  0  0
   -4.8206   -0.7495    0.1476 H   0  0  0  0  0  0  0  0  0  0  0  0
  1  2  1  0
  2  3  2  0
  3  4  1  0
  4  5  1  0
  5  6  1  0
  6  7  1  0
  7  8  2  0
  8  9  1  0
  9 10  2  0
 10 11  1  0
 10 12  1  0
 12 13  2  0
  5 14  1  0
 14 15  1  0
 15 16  1  0
 16 17  1  0
 17 18  2  0
 18 19  1  0
 19 20  2  0
 20 21  1  0
 21 22  1  0
 21 23  2  0
 14  2  1  0
 23 17  1  0
 13  7  1  0
  1 24  1  0
  1 25  1  0
  4 26  1  0
  4 27  1  0
  5 28  1  0
  6 29  1  0
  6 30  1  0
  8 31  1  0
  9 32  1  0
 11 33  1  0
 12 34  1  0
 13 35  1  0
 15 36  1  0
 15 37  1  0
 16 38  1  0
 16 39  1  0
 18 40  1  0
 19 41  1  0
 20 42  1  0
 23 43  1  0
M  END
$$$$
