
     RDKit          3D

 73 78  0  0  0  0  0  0  0  0999 V2000
   -7.8980   -3.5925    0.2949 C   0  0  0  0  0  0  0  0  0  0  0  0
   -7.5629   -2.3319   -0.4484 C   0  0  0  0  0  0  0  0  0  0  0  0
   -8.3255   -1.9545   -1.5549 C   0  0  0  0  0  0  0  0  0  0  0  0
   -8.0111   -0.7904   -2.2591 C   0  0  0  0  0  0  0  0  0  0  0  0
   -6.9352    0.0221   -1.8633 C   0  0  0  0  0  0  0  0  0  0  0  0
   -6.6372    1.2644   -2.6595 C   0  0  0  0  0  0  0  0  0  0  0  0
   -6.1446   -0.3518   -0.7565 C   0  0  0  0  0  0  0  0  0  0  0  0
   -5.0575    0.4632   -0.3874 N   0  0  0  0  0  0  0  0  0  0  0  0
   -3.7803    0.0054   -0.9616 C   0  0  0  0  0  0  0  0  0  0  0  0
   -2.7039    1.0986   -0.7732 C   0  0  0  0  0  0  0  0  0  0  0  0
   -2.5943    1.5733    0.6202 N   0  0  0  0  0  0  0  0  0  0  0  0
   -1.4846    2.2246    1.1466 C   0  0  0  0  0  0  0  0  0  0  0  0
   -1.5323    2.7616    2.2557 O   0  0  0  0  0  0  0  0  0  0  0  0
   -0.1744    2.2065    0.3559 C   0  0  0  0  0  0  0  0  0  0  0  0
    0.6900    3.4421    0.6887 C   0  0  0  0  0  0  0  0  0  0  0  0
    1.7814    3.1082    1.6965 C   0  0  0  0  0  0  0  0  0  0  0  0
    2.7143    2.0202    1.1546 C   0  0  0  0  0  0  0  0  0  0  0  0
    1.9771    1.0112    0.3850 N   0  0  0  0  0  0  0  0  0  0  0  0
    2.6719   -0.1509    0.0261 C   0  0  0  0  0  0  0  0  0  0  0  0
    1.9612   -1.2373   -0.4094 N   0  0  0  0  0  0  0  0  0  0  0  0
    2.6112   -2.3531   -0.7995 C   0  0  0  0  0  0  0  0  0  0  0  0
    3.9343   -2.5782   -0.8347 N   0  0  0  0  0  0  0  0  0  0  0  0
    4.6107   -1.5022   -0.3991 C   0  0  0  0  0  0  0  0  0  0  0  0
    4.0885   -0.2972    0.0388 C   0  0  0  0  0  0  0  0  0  0  0  0
    5.1187    0.5433    0.4276 N   0  0  0  0  0  0  0  0  0  0  0  0
    6.2370   -0.1363    0.2522 C   0  0  0  0  0  0  0  0  0  0  0  0
    5.9736   -1.3722   -0.2952 N   0  0  0  0  0  0  0  0  0  0  0  0
    6.9104   -2.4134   -0.6679 C   0  0  0  0  0  0  0  0  0  0  0  0
    8.2983   -1.9304   -1.0748 C   0  0  0  0  0  0  0  0  0  0  0  0
    9.1864   -1.5496    0.1092 C   0  0  0  0  0  0  0  0  0  0  0  0
    8.5149   -0.6960    1.1858 C   0  0  0  0  0  0  0  0  0  0  0  0
    7.5930    0.3776    0.6182 C   0  0  0  0  0  0  0  0  0  0  0  0
    0.5461    0.8826    0.6637 C   0  0  0  0  0  0  0  0  0  0  0  0
   -3.8852    1.8427    1.2807 C   0  0  0  0  0  0  0  0  0  0  0  0
   -4.9346    0.7420    1.0582 C   0  0  0  0  0  0  0  0  0  0  0  0
   -6.4673   -1.5361   -0.0708 C   0  0  0  0  0  0  0  0  0  0  0  0
   -7.6004   -4.4679   -0.2933 H   0  0  0  0  0  0  0  0  0  0  0  0
   -8.9746   -3.6372    0.4927 H   0  0  0  0  0  0  0  0  0  0  0  0
   -7.3828   -3.6313    1.2608 H   0  0  0  0  0  0  0  0  0  0  0  0
   -9.1755   -2.5566   -1.8759 H   0  0  0  0  0  0  0  0  0  0  0  0
   -8.6182   -0.5133   -3.1188 H   0  0  0  0  0  0  0  0  0  0  0  0
   -6.2954    2.0815   -2.0127 H   0  0  0  0  0  0  0  0  0  0  0  0
   -7.5358    1.6312   -3.1700 H   0  0  0  0  0  0  0  0  0  0  0  0
   -5.8705    1.0530   -3.4138 H   0  0  0  0  0  0  0  0  0  0  0  0
   -3.8831   -0.2050   -2.0346 H   0  0  0  0  0  0  0  0  0  0  0  0
   -3.4505   -0.9206   -0.4654 H   0  0  0  0  0  0  0  0  0  0  0  0
   -2.9448    1.9754   -1.3890 H   0  0  0  0  0  0  0  0  0  0  0  0
   -1.7448    0.7045   -1.1218 H   0  0  0  0  0  0  0  0  0  0  0  0
   -0.3966    2.2826   -0.7155 H   0  0  0  0  0  0  0  0  0  0  0  0
    0.0806    4.2787    1.0516 H   0  0  0  0  0  0  0  0  0  0  0  0
    1.1654    3.7964   -0.2355 H   0  0  0  0  0  0  0  0  0  0  0  0
    1.3222    2.7686    2.6317 H   0  0  0  0  0  0  0  0  0  0  0  0
    2.3643    4.0042    1.9384 H   0  0  0  0  0  0  0  0  0  0  0  0
    3.2379    1.5701    2.0074 H   0  0  0  0  0  0  0  0  0  0  0  0
    3.4530    2.5022    0.5020 H   0  0  0  0  0  0  0  0  0  0  0  0
    1.9808   -3.1713   -1.1299 H   0  0  0  0  0  0  0  0  0  0  0  0
    6.9606   -3.1180    0.1718 H   0  0  0  0  0  0  0  0  0  0  0  0
    6.4709   -2.9390   -1.5244 H   0  0  0  0  0  0  0  0  0  0  0  0
    8.8036   -2.7303   -1.6275 H   0  0  0  0  0  0  0  0  0  0  0  0
    8.2173   -1.0858   -1.7681 H   0  0  0  0  0  0  0  0  0  0  0  0
   10.0652   -1.0118   -0.2748 H   0  0  0  0  0  0  0  0  0  0  0  0
    9.5738   -2.4619    0.5834 H   0  0  0  0  0  0  0  0  0  0  0  0
    9.3034   -0.2151    1.7791 H   0  0  0  0  0  0  0  0  0  0  0  0
    7.9677   -1.3463    1.8825 H   0  0  0  0  0  0  0  0  0  0  0  0
    7.4537    1.1468    1.3877 H   0  0  0  0  0  0  0  0  0  0  0  0
    8.0504    0.8767   -0.2445 H   0  0  0  0  0  0  0  0  0  0  0  0
    0.4079    0.5850    1.7116 H   0  0  0  0  0  0  0  0  0  0  0  0
    0.0728    0.0987    0.0614 H   0  0  0  0  0  0  0  0  0  0  0  0
   -3.7419    1.9821    2.3557 H   0  0  0  0  0  0  0  0  0  0  0  0
   -4.2505    2.7916    0.8742 H   0  0  0  0  0  0  0  0  0  0  0  0
   -5.8963    1.0784    1.4664 H   0  0  0  0  0  0  0  0  0  0  0  0
   -4.6225   -0.1577    1.6050 H   0  0  0  0  0  0  0  0  0  0  0  0
   -5.8576   -1.8542    0.7706 H   0  0  0  0  0  0  0  0  0  0  0  0
  1  2  1  0
  2  3  2  0
  3  4  1  0
  4  5  2  0
  5  6  1  0
  5  7  1  0
  7  8  1  0
  8  9  1  0
  9 10  1  0
 10 11  1  0
 11 12  1  0
 12 13  2  0
 12 14  1  0
 14 15  1  0
 15 16  1  0
 16 17  1  0
 17 18  1  0
 18 19  1  0
 19 20  2  0
 20 21  1  0
 21 22  2  0
 22 23  1  0
 23 24  2  0
 24 25  1  0
 25 26  2  0
 26 27  1  0
 27 28  1  0
 28 29  1  0
 29 30  1  0
 30 31  1  0
 31 32  1  0
 18 33  1  0
 11 34  1  0
 34 35  1  0
  7 36  2  0
 36  2  1  0
 35  8  1  0
 33 14  1  0
 24 19  1  0
 32 26  1  0
 27 23  1  0
  1 37  1  0
  1 38  1  0
  1 39  1  0
  3 40  1  0
  4 41  1  0
  6 42  1  0
  6 43  1  0
  6 44  1  0
  9 45  1  0
  9 46  1  0
 10 47  1  0
 10 48  1  0
 14 49  1  0
 15 50  1  0
 15 51  1  0
 16 52  1  0
 16 53  1  0
 17 54  1  0
 17 55  1  0
 21 56  1  0
 28 57  1  0
 28 58  1  0
 29 59  1  0
 29 60  1  0
 30 61  1  0
 30 62  1  0
 31 63  1  0
 31 64  1  0
 32 65  1  0
 32 66  1  0
 33 67  1  0
 33 68  1  0
 34 69  1  0
 34 70  1  0
 35 71  1  0
 35 72  1  0
 36 73  1  0
M  END
$$$$
