
     RDKit          3D

 45 47  0  0  0  0  0  0  0  0999 V2000
    2.9698   -2.2635    0.3652 O   0  0  0  0  0  0  0  0  0  0  0  0
    2.4991   -1.2611    0.8974 C   0  0  0  0  0  0  0  0  0  0  0  0
    3.2786   -0.1780    1.2605 N   0  0  0  0  0  0  0  0  0  0  0  0
    4.6107   -0.1785    0.8034 N   0  0  0  0  0  0  0  0  0  0  0  0
    5.1121    0.9977    0.2684 C   0  0  0  0  0  0  0  0  0  0  0  0
    4.4972    2.0579    0.4096 O   0  0  0  0  0  0  0  0  0  0  0  0
    6.3682    0.8934   -0.4597 C   0  0  0  0  0  0  0  0  0  0  0  0
    7.0554    1.9270   -1.0719 C   0  0  0  0  0  0  0  0  0  0  0  0
    8.2557    1.4918   -1.7041 C   0  0  0  0  0  0  0  0  0  0  0  0
    8.4503    0.1375   -1.5568 C   0  0  0  0  0  0  0  0  0  0  0  0
    7.1924   -0.5969   -0.6624 S   0  0  0  0  0  0  0  0  0  0  0  0
    1.0347   -1.1435    1.1461 C   0  0  0  0  0  0  0  0  0  0  0  0
    0.5064   -0.2606    2.1007 C   0  0  0  0  0  0  0  0  0  0  0  0
   -0.8760   -0.1848    2.2978 C   0  0  0  0  0  0  0  0  0  0  0  0
   -1.7254   -0.9970    1.5416 C   0  0  0  0  0  0  0  0  0  0  0  0
   -3.4851   -0.9155    1.7769 S   0  0  0  0  0  6  0  0  0  0  0  0
   -3.9388   -2.2663    2.0263 O   0  0  0  0  0  0  0  0  0  0  0  0
   -3.7740    0.1607    2.7017 O   0  0  0  0  0  0  0  0  0  0  0  0
   -4.0484   -0.4259    0.2327 N   0  0  0  0  0  0  0  0  0  0  0  0
   -3.6392    0.9504   -0.1696 C   0  0  0  0  0  0  0  0  0  0  0  0
   -3.9760    1.1689   -1.6423 C   0  0  0  0  0  0  0  0  0  0  0  0
   -5.4613    0.9434   -1.9077 C   0  0  0  0  0  0  0  0  0  0  0  0
   -5.8979   -0.4258   -1.3962 C   0  0  0  0  0  0  0  0  0  0  0  0
   -5.5184   -0.6195    0.0698 C   0  0  0  0  0  0  0  0  0  0  0  0
   -1.2104   -1.8948    0.6027 C   0  0  0  0  0  0  0  0  0  0  0  0
    0.1703   -1.9670    0.4084 C   0  0  0  0  0  0  0  0  0  0  0  0
    2.8715    0.7495    1.3762 H   0  0  0  0  0  0  0  0  0  0  0  0
    4.9705   -1.0777    0.4826 H   0  0  0  0  0  0  0  0  0  0  0  0
    6.7045    2.9532   -1.0621 H   0  0  0  0  0  0  0  0  0  0  0  0
    8.9401    2.1394   -2.2389 H   0  0  0  0  0  0  0  0  0  0  0  0
    9.2716   -0.4584   -1.9316 H   0  0  0  0  0  0  0  0  0  0  0  0
    1.1519    0.3562    2.7206 H   0  0  0  0  0  0  0  0  0  0  0  0
   -1.2783    0.4966    3.0451 H   0  0  0  0  0  0  0  0  0  0  0  0
   -2.5607    1.0818   -0.0421 H   0  0  0  0  0  0  0  0  0  0  0  0
   -4.1525    1.6945    0.4506 H   0  0  0  0  0  0  0  0  0  0  0  0
   -3.3885    0.4777   -2.2596 H   0  0  0  0  0  0  0  0  0  0  0  0
   -3.6971    2.1858   -1.9400 H   0  0  0  0  0  0  0  0  0  0  0  0
   -5.6653    1.0236   -2.9811 H   0  0  0  0  0  0  0  0  0  0  0  0
   -6.0464    1.7255   -1.4086 H   0  0  0  0  0  0  0  0  0  0  0  0
   -5.4220   -1.2061   -2.0033 H   0  0  0  0  0  0  0  0  0  0  0  0
   -6.9811   -0.5382   -1.5171 H   0  0  0  0  0  0  0  0  0  0  0  0
   -5.8007   -1.6357    0.3638 H   0  0  0  0  0  0  0  0  0  0  0  0
   -6.0638    0.0887    0.7046 H   0  0  0  0  0  0  0  0  0  0  0  0
   -1.8762   -2.5369    0.0292 H   0  0  0  0  0  0  0  0  0  0  0  0
    0.5723   -2.6696   -0.3204 H   0  0  0  0  0  0  0  0  0  0  0  0
  1  2  2  0
  2  3  1  0
  3  4  1  0
  4  5  1  0
  5  6  2  0
  5  7  1  0
  7  8  2  0
  8  9  1  0
  9 10  2  0
 10 11  1  0
  2 12  1  0
 12 13  2  0
 13 14  1  0
 14 15  2  0
 15 16  1  0
 16 17  2  0
 16 18  2  0
 16 19  1  0
 19 20  1  0
 20 21  1  0
 21 22  1  0
 22 23  1  0
 23 24  1  0
 15 25  1  0
 25 26  2  0
 11  7  1  0
 26 12  1  0
 24 19  1  0
  3 27  1  0
  4 28  1  0
  8 29  1  0
  9 30  1  0
 10 31  1  0
 13 32  1  0
 14 33  1  0
 20 34  1  0
 20 35  1  0
 21 36  1  0
 21 37  1  0
 22 38  1  0
 22 39  1  0
 23 40  1  0
 23 41  1  0
 24 42  1  0
 24 43  1  0
 25 44  1  0
 26 45  1  0
M  END
$$$$
