
     RDKit          3D

 47 51  0  0  0  0  0  0  0  0999 V2000
   -4.9089   -2.8750    1.0372 C   0  0  0  0  0  0  0  0  0  0  0  0
   -5.0272   -1.4796    0.5395 C   0  0  0  0  0  0  0  0  0  0  0  0
   -3.9786   -0.6100    0.2622 C   0  0  0  0  0  0  0  0  0  0  0  0
   -2.5351   -0.7765    0.3563 C   0  0  0  0  0  0  0  0  0  0  0  0
   -2.0181   -1.8253    0.7255 O   0  0  0  0  0  0  0  0  0  0  0  0
   -1.8470    0.3646   -0.0179 N   0  0  0  0  0  0  0  0  0  0  0  0
   -0.4558    0.5742   -0.0728 C   0  0  0  0  0  0  0  0  0  0  0  0
   -0.0276    1.8344   -0.5001 C   0  0  0  0  0  0  0  0  0  0  0  0
    1.3355    2.1427   -0.5977 C   0  0  0  0  0  0  0  0  0  0  0  0
    2.2952    1.1704   -0.2620 C   0  0  0  0  0  0  0  0  0  0  0  0
    3.6663    1.3314   -0.3163 N   0  0  0  0  0  0  0  0  0  0  0  0
    4.2930    0.2344    0.0532 C   0  0  0  0  0  0  0  0  0  0  0  0
    5.6507    0.1345    0.0803 N   0  0  0  0  0  0  0  0  0  0  0  0
    6.4673    1.3232   -0.1867 C   0  0  0  0  0  0  0  0  0  0  0  0
    7.7807    1.2467    0.6094 C   0  0  0  0  0  0  0  0  0  0  0  0
    8.5725    0.0814    0.3368 O   0  0  0  0  0  0  0  0  0  0  0  0
    7.8029   -1.0355   -0.1293 C   0  0  0  0  0  0  0  0  0  0  0  0
    6.3723   -1.0866    0.4358 C   0  0  0  0  0  0  0  0  0  0  0  0
    3.2285   -1.0541    0.5053 S   0  0  0  0  0  0  0  0  0  0  0  0
    1.8574   -0.0785    0.1646 C   0  0  0  0  0  0  0  0  0  0  0  0
    0.4895   -0.3997    0.2687 C   0  0  0  0  0  0  0  0  0  0  0  0
   -4.4712    0.5920   -0.1780 O   0  0  0  0  0  0  0  0  0  0  0  0
   -5.8260    0.4948   -0.1900 C   0  0  0  0  0  0  0  0  0  0  0  0
   -6.7006    1.5066   -0.5811 C   0  0  0  0  0  0  0  0  0  0  0  0
   -8.0653    1.2071   -0.5280 C   0  0  0  0  0  0  0  0  0  0  0  0
   -8.5123   -0.0448   -0.1000 C   0  0  0  0  0  0  0  0  0  0  0  0
   -7.6053   -1.0417    0.2901 C   0  0  0  0  0  0  0  0  0  0  0  0
   -6.2261   -0.7629    0.2423 C   0  0  0  0  0  0  0  0  0  0  0  0
   -4.3875   -3.4982    0.3052 H   0  0  0  0  0  0  0  0  0  0  0  0
   -4.3507   -2.8990    1.9785 H   0  0  0  0  0  0  0  0  0  0  0  0
   -5.8910   -3.3219    1.2212 H   0  0  0  0  0  0  0  0  0  0  0  0
   -2.4436    1.1382   -0.2926 H   0  0  0  0  0  0  0  0  0  0  0  0
   -0.7469    2.6041   -0.7697 H   0  0  0  0  0  0  0  0  0  0  0  0
    1.6606    3.1222   -0.9333 H   0  0  0  0  0  0  0  0  0  0  0  0
    5.9503    2.2469    0.1002 H   0  0  0  0  0  0  0  0  0  0  0  0
    6.6829    1.3689   -1.2616 H   0  0  0  0  0  0  0  0  0  0  0  0
    8.4024    2.1223    0.3953 H   0  0  0  0  0  0  0  0  0  0  0  0
    7.5685    1.2526    1.6853 H   0  0  0  0  0  0  0  0  0  0  0  0
    8.3473   -1.9457    0.1433 H   0  0  0  0  0  0  0  0  0  0  0  0
    7.7763   -0.9867   -1.2248 H   0  0  0  0  0  0  0  0  0  0  0  0
    6.4108   -1.1733    1.5279 H   0  0  0  0  0  0  0  0  0  0  0  0
    5.8821   -1.9778    0.0293 H   0  0  0  0  0  0  0  0  0  0  0  0
    0.2079   -1.3897    0.6072 H   0  0  0  0  0  0  0  0  0  0  0  0
   -6.3379    2.4724   -0.9109 H   0  0  0  0  0  0  0  0  0  0  0  0
   -8.7903    1.9620   -0.8271 H   0  0  0  0  0  0  0  0  0  0  0  0
   -9.5798   -0.2534   -0.0691 H   0  0  0  0  0  0  0  0  0  0  0  0
   -7.9679   -2.0118    0.6182 H   0  0  0  0  0  0  0  0  0  0  0  0
  1  2  1  0
  2  3  2  0
  3  4  1  0
  4  5  2  0
  4  6  1  0
  6  7  1  0
  7  8  2  0
  8  9  1  0
  9 10  2  0
 10 11  1  0
 11 12  2  0
 12 13  1  0
 13 14  1  0
 14 15  1  0
 15 16  1  0
 16 17  1  0
 17 18  1  0
 12 19  1  0
 19 20  1  0
 20 21  2  0
  3 22  1  0
 22 23  1  0
 23 24  2  0
 24 25  1  0
 25 26  2  0
 26 27  1  0
 27 28  2  0
 28  2  1  0
 21  7  1  0
 28 23  1  0
 20 10  1  0
 18 13  1  0
  1 29  1  0
  1 30  1  0
  1 31  1  0
  6 32  1  0
  8 33  1  0
  9 34  1  0
 14 35  1  0
 14 36  1  0
 15 37  1  0
 15 38  1  0
 17 39  1  0
 17 40  1  0
 18 41  1  0
 18 42  1  0
 21 43  1  0
 24 44  1  0
 25 45  1  0
 26 46  1  0
 27 47  1  0
M  END
$$$$
