
     RDKit          3D

 59 60  0  0  0  0  0  0  0  0999 V2000
    5.5936   -3.6076   -2.4178 C   0  0  0  0  0  0  0  0  0  0  0  0
    5.5185   -2.7681   -1.1420 C   0  0  0  0  0  0  0  0  0  0  0  0
    5.4065   -3.6864    0.0795 C   0  0  0  0  0  0  0  0  0  0  0  0
    4.3395   -1.7824   -1.2343 C   0  0  0  0  0  0  0  0  0  0  0  0
    4.3725   -0.7089   -0.1451 C   0  0  0  0  0  0  0  0  0  0  0  0
    3.2234    0.1690   -0.2291 N   0  0  0  0  0  0  0  0  0  0  0  0
    3.1642    1.2320   -1.1067 C   0  0  0  0  0  0  0  0  0  0  0  0
    4.0982    1.4544   -1.8767 O   0  0  0  0  0  0  0  0  0  0  0  0
    1.9687    2.0544   -1.0740 C   0  0  0  0  0  0  0  0  0  0  0  0
    1.9967    3.1484   -1.8933 O   0  0  0  0  0  0  0  0  0  0  0  0
    0.8281    3.8637   -1.7861 N   0  0  0  0  0  0  0  0  0  0  0  0
    0.0732    3.2025   -0.9034 C   0  0  0  0  0  0  0  0  0  0  0  0
   -1.2514    3.7721   -0.5100 C   0  0  0  0  0  0  0  0  0  0  0  0
   -2.6023    2.9576   -1.4354 S   0  0  0  0  0  0  0  0  0  0  0  0
   -4.0104    3.7503   -0.6844 C   0  0  0  0  0  0  0  0  0  0  0  0
   -5.2720    3.5570   -1.2378 C   0  0  0  0  0  0  0  0  0  0  0  0
   -6.3706    4.1636   -0.6332 C   0  0  0  0  0  0  0  0  0  0  0  0
   -6.1759    4.9483    0.4989 C   0  0  0  0  0  0  0  0  0  0  0  0
   -4.8867    5.0849    0.9824 C   0  0  0  0  0  0  0  0  0  0  0  0
   -3.8048    4.4989    0.4236 N   0  0  0  0  0  0  0  0  0  0  0  0
    0.7384    2.0271   -0.4290 C   0  0  0  0  0  0  0  0  0  0  0  0
    0.2877    1.0391    0.5301 C   0  0  0  0  0  0  0  0  0  0  0  0
    1.0704    0.4268    1.2501 O   0  0  0  0  0  0  0  0  0  0  0  0
   -1.0680    0.8141    0.5576 N   0  0  0  0  0  0  0  0  0  0  0  0
   -1.6725   -0.1687    1.4342 C   0  0  0  0  0  0  0  0  0  0  0  0
   -1.6633   -1.5616    0.8029 C   0  0  0  0  0  0  0  0  0  0  0  0
   -2.2154   -2.6559    1.7331 C   0  0  0  0  0  0  0  0  0  0  0  0
   -3.6877   -2.4361    2.0858 C   0  0  0  0  0  0  0  0  0  0  0  0
   -2.0404   -4.0304    1.0821 C   0  0  0  0  0  0  0  0  0  0  0  0
    5.7617   -2.9672   -3.2912 H   0  0  0  0  0  0  0  0  0  0  0  0
    6.4233   -4.3235   -2.3685 H   0  0  0  0  0  0  0  0  0  0  0  0
    4.6678   -4.1686   -2.5837 H   0  0  0  0  0  0  0  0  0  0  0  0
    6.4537   -2.1990   -1.0587 H   0  0  0  0  0  0  0  0  0  0  0  0
    4.4645   -4.2460    0.0729 H   0  0  0  0  0  0  0  0  0  0  0  0
    5.4600   -3.1161    1.0130 H   0  0  0  0  0  0  0  0  0  0  0  0
    6.2291   -4.4115    0.0974 H   0  0  0  0  0  0  0  0  0  0  0  0
    4.3579   -1.2905   -2.2150 H   0  0  0  0  0  0  0  0  0  0  0  0
    3.3862   -2.3294   -1.1890 H   0  0  0  0  0  0  0  0  0  0  0  0
    4.3502   -1.1515    0.8542 H   0  0  0  0  0  0  0  0  0  0  0  0
    5.2858   -0.1097   -0.2328 H   0  0  0  0  0  0  0  0  0  0  0  0
    2.5073    0.0732    0.4890 H   0  0  0  0  0  0  0  0  0  0  0  0
   -1.2781    4.8485   -0.7147 H   0  0  0  0  0  0  0  0  0  0  0  0
   -1.3918    3.6332    0.5675 H   0  0  0  0  0  0  0  0  0  0  0  0
   -5.4066    2.9600   -2.1312 H   0  0  0  0  0  0  0  0  0  0  0  0
   -7.3682    4.0337   -1.0485 H   0  0  0  0  0  0  0  0  0  0  0  0
   -7.0093    5.4384    0.9890 H   0  0  0  0  0  0  0  0  0  0  0  0
   -4.6820    5.6839    1.8643 H   0  0  0  0  0  0  0  0  0  0  0  0
   -1.6499    1.1980   -0.1795 H   0  0  0  0  0  0  0  0  0  0  0  0
   -1.1334   -0.1750    2.3882 H   0  0  0  0  0  0  0  0  0  0  0  0
   -2.6954    0.1730    1.6186 H   0  0  0  0  0  0  0  0  0  0  0  0
   -2.2374   -1.5413   -0.1327 H   0  0  0  0  0  0  0  0  0  0  0  0
   -0.6335   -1.8187    0.5214 H   0  0  0  0  0  0  0  0  0  0  0  0
   -1.6355   -2.6496    2.6644 H   0  0  0  0  0  0  0  0  0  0  0  0
   -3.8281   -1.5168    2.6635 H   0  0  0  0  0  0  0  0  0  0  0  0
   -4.0691   -3.2616    2.6967 H   0  0  0  0  0  0  0  0  0  0  0  0
   -4.3060   -2.3706    1.1840 H   0  0  0  0  0  0  0  0  0  0  0  0
   -2.6067   -4.1025    0.1460 H   0  0  0  0  0  0  0  0  0  0  0  0
   -0.9857   -4.2255    0.8582 H   0  0  0  0  0  0  0  0  0  0  0  0
   -2.3891   -4.8254    1.7516 H   0  0  0  0  0  0  0  0  0  0  0  0
  1  2  1  0
  2  3  1  0
  2  4  1  0
  4  5  1  0
  5  6  1  0
  6  7  1  0
  7  8  2  0
  7  9  1  0
  9 10  1  0
 10 11  1  0
 11 12  2  0
 12 13  1  0
 13 14  1  0
 14 15  1  0
 15 16  2  0
 16 17  1  0
 17 18  2  0
 18 19  1  0
 19 20  2  0
 12 21  1  0
 21 22  1  0
 22 23  2  0
 22 24  1  0
 24 25  1  0
 25 26  1  0
 26 27  1  0
 27 28  1  0
 27 29  1  0
 21  9  2  0
 20 15  1  0
  1 30  1  0
  1 31  1  0
  1 32  1  0
  2 33  1  0
  3 34  1  0
  3 35  1  0
  3 36  1  0
  4 37  1  0
  4 38  1  0
  5 39  1  0
  5 40  1  0
  6 41  1  0
 13 42  1  0
 13 43  1  0
 16 44  1  0
 17 45  1  0
 18 46  1  0
 19 47  1  0
 24 48  1  0
 25 49  1  0
 25 50  1  0
 26 51  1  0
 26 52  1  0
 27 53  1  0
 28 54  1  0
 28 55  1  0
 28 56  1  0
 29 57  1  0
 29 58  1  0
 29 59  1  0
M  END
$$$$
