
     RDKit          3D

 51 54  0  0  0  0  0  0  0  0999 V2000
    1.7776   -2.3480    2.2710 O   0  0  0  0  0  0  0  0  0  0  0  0
    1.6893   -1.2690    1.6836 C   0  0  0  0  0  0  0  0  0  0  0  0
    2.7366   -0.7633    0.8075 C   0  0  0  0  0  0  0  0  0  0  0  0
    3.2094    0.5299    0.6618 C   0  0  0  0  0  0  0  0  0  0  0  0
    4.2592    0.6240   -0.3006 C   0  0  0  0  0  0  0  0  0  0  0  0
    4.5600   -0.6137   -0.8340 C   0  0  0  0  0  0  0  0  0  0  0  0
    3.5968   -1.8584   -0.1914 S   0  0  0  0  0  0  0  0  0  0  0  0
    5.5993   -0.8720   -1.8811 C   0  0  0  0  0  0  0  0  0  0  0  0
    6.5525    0.3282   -2.0007 C   0  0  0  0  0  0  0  0  0  0  0  0
    5.7933    1.6635   -1.9969 C   0  0  0  0  0  0  0  0  0  0  0  0
    5.0044    1.8638   -0.6931 C   0  0  0  0  0  0  0  0  0  0  0  0
    0.5593   -0.4520    1.8660 N   0  0  0  0  0  0  0  0  0  0  0  0
   -0.0614    0.2351    0.7262 C   0  0  0  0  0  0  0  0  0  0  0  0
   -1.1319   -0.6579    0.0614 C   0  0  0  0  0  0  0  0  0  0  0  0
   -2.1264   -1.2075    1.0478 N   0  0  0  0  0  0  0  0  0  0  0  0
   -3.4486   -0.2001    1.4341 S   0  0  0  0  0  6  0  0  0  0  0  0
   -2.9043    1.1225    1.6330 O   0  0  0  0  0  0  0  0  0  0  0  0
   -4.2539   -0.8603    2.4351 O   0  0  0  0  0  0  0  0  0  0  0  0
   -4.4171   -0.1953   -0.0655 C   0  0  0  0  0  0  0  0  0  0  0  0
   -4.4348   -1.3711   -0.8349 C   0  0  0  0  0  0  0  0  0  0  0  0
   -5.1370   -1.4131   -2.0374 C   0  0  0  0  0  0  0  0  0  0  0  0
   -5.8265   -0.2875   -2.4754 C   0  0  0  0  0  0  0  0  0  0  0  0
   -5.8285    0.8760   -1.7030 C   0  0  0  0  0  0  0  0  0  0  0  0
   -5.1370    0.9410   -0.4761 C   0  0  0  0  0  0  0  0  0  0  0  0
   -5.2133    2.2125    0.3361 C   0  0  0  0  0  0  0  0  0  0  0  0
   -5.4025    2.0012    1.6637 F   0  0  0  0  0  0  0  0  0  0  0  0
   -6.2594    3.0060   -0.0449 F   0  0  0  0  0  0  0  0  0  0  0  0
   -4.1105    2.9936    0.1947 F   0  0  0  0  0  0  0  0  0  0  0  0
   -1.4441   -1.8437    2.2279 C   0  0  0  0  0  0  0  0  0  0  0  0
   -0.4219   -0.8904    2.8620 C   0  0  0  0  0  0  0  0  0  0  0  0
    2.8226    1.3682    1.2299 H   0  0  0  0  0  0  0  0  0  0  0  0
    6.1772   -1.7742   -1.6508 H   0  0  0  0  0  0  0  0  0  0  0  0
    5.0991   -1.0343   -2.8438 H   0  0  0  0  0  0  0  0  0  0  0  0
    7.1426    0.2352   -2.9193 H   0  0  0  0  0  0  0  0  0  0  0  0
    7.2614    0.3181   -1.1626 H   0  0  0  0  0  0  0  0  0  0  0  0
    6.4954    2.4941   -2.1301 H   0  0  0  0  0  0  0  0  0  0  0  0
    5.1038    1.6858   -2.8507 H   0  0  0  0  0  0  0  0  0  0  0  0
    4.3103    2.7037   -0.8102 H   0  0  0  0  0  0  0  0  0  0  0  0
    5.6993    2.1226    0.1154 H   0  0  0  0  0  0  0  0  0  0  0  0
    0.6732    0.5086   -0.0335 H   0  0  0  0  0  0  0  0  0  0  0  0
   -0.4937    1.1653    1.1053 H   0  0  0  0  0  0  0  0  0  0  0  0
   -0.6482   -1.5172   -0.4203 H   0  0  0  0  0  0  0  0  0  0  0  0
   -1.6415   -0.1038   -0.7332 H   0  0  0  0  0  0  0  0  0  0  0  0
   -3.9073   -2.2627   -0.4999 H   0  0  0  0  0  0  0  0  0  0  0  0
   -5.1484   -2.3247   -2.6307 H   0  0  0  0  0  0  0  0  0  0  0  0
   -6.3758   -0.3174   -3.4141 H   0  0  0  0  0  0  0  0  0  0  0  0
   -6.3914    1.7389   -2.0607 H   0  0  0  0  0  0  0  0  0  0  0  0
   -2.1778   -2.1706    2.9709 H   0  0  0  0  0  0  0  0  0  0  0  0
   -0.9488   -2.7533    1.8665 H   0  0  0  0  0  0  0  0  0  0  0  0
    0.0840   -1.3814    3.7003 H   0  0  0  0  0  0  0  0  0  0  0  0
   -0.9149    0.0049    3.2569 H   0  0  0  0  0  0  0  0  0  0  0  0
  1  2  2  0
  2  3  1  0
  3  4  2  0
  4  5  1  0
  5  6  2  0
  6  7  1  0
  6  8  1  0
  8  9  1  0
  9 10  1  0
 10 11  1  0
  2 12  1  0
 12 13  1  0
 13 14  1  0
 14 15  1  0
 15 16  1  0
 16 17  2  0
 16 18  2  0
 16 19  1  0
 19 20  2  0
 20 21  1  0
 21 22  2  0
 22 23  1  0
 23 24  2  0
 24 25  1  0
 25 26  1  0
 25 27  1  0
 25 28  1  0
 15 29  1  0
 29 30  1  0
  7  3  1  0
 30 12  1  0
 11  5  1  0
 24 19  1  0
  4 31  1  0
  8 32  1  0
  8 33  1  0
  9 34  1  0
  9 35  1  0
 10 36  1  0
 10 37  1  0
 11 38  1  0
 11 39  1  0
 13 40  1  0
 13 41  1  0
 14 42  1  0
 14 43  1  0
 20 44  1  0
 21 45  1  0
 22 46  1  0
 23 47  1  0
 29 48  1  0
 29 49  1  0
 30 50  1  0
 30 51  1  0
M  END
$$$$
