
     RDKit          3D

 43 44  0  0  0  0  0  0  0  0999 V2000
   -5.5252    2.6530   -0.8444 C   0  0  0  0  0  0  0  0  0  0  0  0
   -4.5756    2.0956   -1.8881 C   0  0  0  0  0  0  0  0  0  0  0  0
   -3.4278    1.5175   -1.2541 O   0  0  0  0  0  0  0  0  0  0  0  0
   -3.5450    0.2127   -0.8632 C   0  0  0  0  0  0  0  0  0  0  0  0
   -4.5620   -0.4556   -1.0127 O   0  0  0  0  0  0  0  0  0  0  0  0
   -2.3203   -0.3173   -0.2406 C   0  0  0  0  0  0  0  0  0  0  0  0
   -1.1761    0.3847   -0.2451 N   0  0  0  0  0  0  0  0  0  0  0  0
   -0.2134   -0.4543    0.2100 N   0  0  0  0  0  0  0  0  0  0  0  0
    1.1536   -0.0508    0.0938 C   0  0  0  0  0  0  0  0  0  0  0  0
    1.4428    1.2977   -0.1706 C   0  0  0  0  0  0  0  0  0  0  0  0
    2.7666    1.7308   -0.2945 C   0  0  0  0  0  0  0  0  0  0  0  0
    3.8244    0.8308   -0.1740 C   0  0  0  0  0  0  0  0  0  0  0  0
    5.0661    1.3837   -0.3161 O   0  0  0  0  0  0  0  0  0  0  0  0
    6.1860    0.5080   -0.2015 C   0  0  0  0  0  0  0  0  0  0  0  0
    7.4469    1.3343   -0.3814 C   0  0  0  0  0  0  0  0  0  0  0  0
    3.5441   -0.5137    0.0623 C   0  0  0  0  0  0  0  0  0  0  0  0
    2.2173   -0.9542    0.1902 C   0  0  0  0  0  0  0  0  0  0  0  0
   -0.7792   -1.6083    0.7339 C   0  0  0  0  0  0  0  0  0  0  0  0
   -0.0615   -2.6347    1.5396 C   0  0  0  0  0  0  0  0  0  0  0  0
   -2.1334   -1.5684    0.4076 C   0  0  0  0  0  0  0  0  0  0  0  0
   -3.0914   -2.6270    0.7179 C   0  0  0  0  0  0  0  0  0  0  0  0
   -4.4686   -2.2732    1.2163 C   0  0  0  0  0  0  0  0  0  0  0  0
   -2.7658   -3.8115    0.6229 O   0  0  0  0  0  0  0  0  0  0  0  0
   -6.3765    3.1484   -1.3197 H   0  0  0  0  0  0  0  0  0  0  0  0
   -5.9025    1.8593   -0.1919 H   0  0  0  0  0  0  0  0  0  0  0  0
   -5.0097    3.3748   -0.2023 H   0  0  0  0  0  0  0  0  0  0  0  0
   -5.0768    1.3729   -2.5420 H   0  0  0  0  0  0  0  0  0  0  0  0
   -4.2135    2.9081   -2.5266 H   0  0  0  0  0  0  0  0  0  0  0  0
    0.6474    2.0344   -0.2720 H   0  0  0  0  0  0  0  0  0  0  0  0
    2.9710    2.7810   -0.4892 H   0  0  0  0  0  0  0  0  0  0  0  0
    6.1484   -0.2613   -0.9814 H   0  0  0  0  0  0  0  0  0  0  0  0
    6.2035    0.0398    0.7895 H   0  0  0  0  0  0  0  0  0  0  0  0
    7.4477    1.8287   -1.3585 H   0  0  0  0  0  0  0  0  0  0  0  0
    7.5015    2.1240    0.3754 H   0  0  0  0  0  0  0  0  0  0  0  0
    8.3390    0.7068   -0.3022 H   0  0  0  0  0  0  0  0  0  0  0  0
    4.3337   -1.2542    0.1401 H   0  0  0  0  0  0  0  0  0  0  0  0
    2.0643   -2.0192    0.3167 H   0  0  0  0  0  0  0  0  0  0  0  0
    0.3841   -3.3947    0.8910 H   0  0  0  0  0  0  0  0  0  0  0  0
   -0.7482   -3.1455    2.2232 H   0  0  0  0  0  0  0  0  0  0  0  0
    0.7114   -2.1874    2.1716 H   0  0  0  0  0  0  0  0  0  0  0  0
   -4.7071   -2.9121    2.0724 H   0  0  0  0  0  0  0  0  0  0  0  0
   -4.5171   -1.2361    1.5577 H   0  0  0  0  0  0  0  0  0  0  0  0
   -5.2035   -2.4477    0.4273 H   0  0  0  0  0  0  0  0  0  0  0  0
  1  2  1  0
  2  3  1  0
  3  4  1  0
  4  5  2  0
  4  6  1  0
  6  7  2  0
  7  8  1  0
  8  9  1  0
  9 10  2  0
 10 11  1  0
 11 12  2  0
 12 13  1  0
 13 14  1  0
 14 15  1  0
 12 16  1  0
 16 17  2  0
  8 18  1  0
 18 19  1  0
 18 20  2  0
 20 21  1  0
 21 22  1  0
 21 23  2  0
 20  6  1  0
 17  9  1  0
  1 24  1  0
  1 25  1  0
  1 26  1  0
  2 27  1  0
  2 28  1  0
 10 29  1  0
 11 30  1  0
 14 31  1  0
 14 32  1  0
 15 33  1  0
 15 34  1  0
 15 35  1  0
 16 36  1  0
 17 37  1  0
 19 38  1  0
 19 39  1  0
 19 40  1  0
 22 41  1  0
 22 42  1  0
 22 43  1  0
M  END
$$$$
