
     RDKit          3D

 66 68  0  0  0  0  0  0  0  0999 V2000
   -2.1161   -0.6452    4.9396 C   0  0  0  0  0  0  0  0  0  0  0  0
   -1.1467   -0.9374    3.8085 C   0  0  0  0  0  0  0  0  0  0  0  0
   -0.3769    0.3064    3.3817 C   0  0  0  0  0  0  0  0  0  0  0  0
    0.5185   -0.0609    2.3433 O   0  0  0  0  0  0  0  0  0  0  0  0
    1.1227    1.1137    1.3939 P   0  0  0  0  0  5  0  0  0  0  0  0
    1.4268    2.3566    2.2039 O   0  0  0  0  0  0  0  0  0  0  0  0
    2.4928    0.3903    0.5315 C   0  0  0  0  0  0  0  0  0  0  0  0
    3.1170    1.0937   -0.5019 C   0  0  0  0  0  0  0  0  0  0  0  0
    4.1823    0.5256   -1.2117 C   0  0  0  0  0  0  0  0  0  0  0  0
    4.6783   -0.7532   -0.9118 C   0  0  0  0  0  0  0  0  0  0  0  0
    5.7550   -1.2777   -1.6395 N   0  0  0  0  0  0  0  0  0  0  0  0
    6.4634   -2.4424   -1.1121 C   0  0  0  0  0  0  0  0  0  0  0  0
    5.5895   -1.2554   -3.0956 C   0  0  0  0  0  0  0  0  0  0  0  0
    4.0772   -1.4235    0.1661 C   0  0  0  0  0  0  0  0  0  0  0  0
    2.9968   -0.8692    0.8680 C   0  0  0  0  0  0  0  0  0  0  0  0
   -0.2498    1.4697    0.1613 C   0  0  0  0  0  0  0  0  0  0  0  0
   -1.0029    2.6247    0.7219 N   0  0  0  0  0  0  0  0  0  0  0  0
   -1.4634    3.6201   -0.1553 C   0  0  0  0  0  0  0  0  0  0  0  0
   -1.9081    3.3551   -1.4559 C   0  0  0  0  0  0  0  0  0  0  0  0
   -2.4320    4.3697   -2.2634 C   0  0  0  0  0  0  0  0  0  0  0  0
   -2.5496    5.6652   -1.7692 C   0  0  0  0  0  0  0  0  0  0  0  0
   -2.1511    5.9436   -0.4667 C   0  0  0  0  0  0  0  0  0  0  0  0
   -1.6252    4.9244    0.3339 C   0  0  0  0  0  0  0  0  0  0  0  0
   -1.1326    0.2825   -0.1839 C   0  0  0  0  0  0  0  0  0  0  0  0
   -0.6132   -0.7740   -0.9394 C   0  0  0  0  0  0  0  0  0  0  0  0
   -1.4158   -1.8711   -1.2929 C   0  0  0  0  0  0  0  0  0  0  0  0
   -2.7674   -1.9718   -0.9156 C   0  0  0  0  0  0  0  0  0  0  0  0
   -3.5691   -3.0454   -1.3168 N   0  0  0  0  0  0  0  0  0  0  0  0
   -4.9347   -3.1579   -0.8067 C   0  0  0  0  0  0  0  0  0  0  0  0
   -2.9256   -4.2999   -1.7040 C   0  0  0  0  0  0  0  0  0  0  0  0
   -3.2653   -0.9026   -0.1531 C   0  0  0  0  0  0  0  0  0  0  0  0
   -2.4696    0.1928    0.2163 C   0  0  0  0  0  0  0  0  0  0  0  0
   -2.8375    0.1242    4.6451 H   0  0  0  0  0  0  0  0  0  0  0  0
   -2.6714   -1.5502    5.2098 H   0  0  0  0  0  0  0  0  0  0  0  0
   -1.5837   -0.2961    5.8324 H   0  0  0  0  0  0  0  0  0  0  0  0
   -1.6917   -1.3495    2.9487 H   0  0  0  0  0  0  0  0  0  0  0  0
   -0.4381   -1.7186    4.1158 H   0  0  0  0  0  0  0  0  0  0  0  0
    0.2075    0.6968    4.2197 H   0  0  0  0  0  0  0  0  0  0  0  0
   -1.0624    1.0857    3.0388 H   0  0  0  0  0  0  0  0  0  0  0  0
    2.7874    2.0995   -0.7636 H   0  0  0  0  0  0  0  0  0  0  0  0
    4.6516    1.1222   -1.9909 H   0  0  0  0  0  0  0  0  0  0  0  0
    6.7486   -2.2975   -0.0638 H   0  0  0  0  0  0  0  0  0  0  0  0
    5.8597   -3.3549   -1.1987 H   0  0  0  0  0  0  0  0  0  0  0  0
    7.3974   -2.6010   -1.6645 H   0  0  0  0  0  0  0  0  0  0  0  0
    4.6811   -1.7895   -3.3961 H   0  0  0  0  0  0  0  0  0  0  0  0
    6.4392   -1.7383   -3.5898 H   0  0  0  0  0  0  0  0  0  0  0  0
    5.5532   -0.2350   -3.4853 H   0  0  0  0  0  0  0  0  0  0  0  0
    4.4289   -2.4035    0.4821 H   0  0  0  0  0  0  0  0  0  0  0  0
    2.5558   -1.4359    1.6858 H   0  0  0  0  0  0  0  0  0  0  0  0
    0.2745    1.8036   -0.7429 H   0  0  0  0  0  0  0  0  0  0  0  0
   -0.4583    3.0486    1.4865 H   0  0  0  0  0  0  0  0  0  0  0  0
   -1.8679    2.3509   -1.8680 H   0  0  0  0  0  0  0  0  0  0  0  0
   -2.7609    4.1410   -3.2738 H   0  0  0  0  0  0  0  0  0  0  0  0
   -2.9642    6.4504   -2.3953 H   0  0  0  0  0  0  0  0  0  0  0  0
   -2.2558    6.9491   -0.0651 H   0  0  0  0  0  0  0  0  0  0  0  0
   -1.3346    5.1635    1.3533 H   0  0  0  0  0  0  0  0  0  0  0  0
    0.4203   -0.7598   -1.2846 H   0  0  0  0  0  0  0  0  0  0  0  0
   -0.9513   -2.6436   -1.8998 H   0  0  0  0  0  0  0  0  0  0  0  0
   -4.9366   -3.3446    0.2717 H   0  0  0  0  0  0  0  0  0  0  0  0
   -5.5200   -2.2585   -1.0266 H   0  0  0  0  0  0  0  0  0  0  0  0
   -5.4654   -3.9874   -1.2882 H   0  0  0  0  0  0  0  0  0  0  0  0
   -2.3506   -4.1786   -2.6280 H   0  0  0  0  0  0  0  0  0  0  0  0
   -3.6648   -5.0853   -1.9070 H   0  0  0  0  0  0  0  0  0  0  0  0
   -2.2688   -4.6692   -0.9096 H   0  0  0  0  0  0  0  0  0  0  0  0
   -4.2989   -0.8805    0.1798 H   0  0  0  0  0  0  0  0  0  0  0  0
   -2.9273    0.9953    0.7980 H   0  0  0  0  0  0  0  0  0  0  0  0
  1  2  1  0
  2  3  1  0
  3  4  1  0
  4  5  1  0
  5  6  2  0
  5  7  1  0
  7  8  2  0
  8  9  1  0
  9 10  2  0
 10 11  1  0
 11 12  1  0
 11 13  1  0
 10 14  1  0
 14 15  2  0
  5 16  1  0
 16 17  1  0
 17 18  1  0
 18 19  2  0
 19 20  1  0
 20 21  2  0
 21 22  1  0
 22 23  2  0
 16 24  1  0
 24 25  2  0
 25 26  1  0
 26 27  2  0
 27 28  1  0
 28 29  1  0
 28 30  1  0
 27 31  1  0
 31 32  2  0
 15  7  1  0
 23 18  1  0
 32 24  1  0
  1 33  1  0
  1 34  1  0
  1 35  1  0
  2 36  1  0
  2 37  1  0
  3 38  1  0
  3 39  1  0
  8 40  1  0
  9 41  1  0
 12 42  1  0
 12 43  1  0
 12 44  1  0
 13 45  1  0
 13 46  1  0
 13 47  1  0
 14 48  1  0
 15 49  1  0
 16 50  1  0
 17 51  1  0
 19 52  1  0
 20 53  1  0
 21 54  1  0
 22 55  1  0
 23 56  1  0
 25 57  1  0
 26 58  1  0
 29 59  1  0
 29 60  1  0
 29 61  1  0
 30 62  1  0
 30 63  1  0
 30 64  1  0
 31 65  1  0
 32 66  1  0
M  END
$$$$
