
     RDKit          3D

 56 61  0  0  0  0  0  0  0  0999 V2000
    5.2282   -2.6691   -1.1995 C   0  0  0  0  0  0  0  0  0  0  0  0
    4.7398   -1.9170   -2.3021 O   0  0  0  0  0  0  0  0  0  0  0  0
    3.6183   -1.1620   -2.0978 C   0  0  0  0  0  0  0  0  0  0  0  0
    3.1552   -0.4904   -3.2296 C   0  0  0  0  0  0  0  0  0  0  0  0
    2.0180    0.3122   -3.1640 C   0  0  0  0  0  0  0  0  0  0  0  0
    1.3337    0.4521   -1.9581 C   0  0  0  0  0  0  0  0  0  0  0  0
    1.7805   -0.2084   -0.7993 C   0  0  0  0  0  0  0  0  0  0  0  0
    1.0490   -0.0729    0.5371 C   0  0  0  0  0  0  0  0  0  0  0  0
   -0.1799   -0.8971    0.3752 C   0  0  0  0  0  0  0  0  0  0  0  0
   -0.4372   -2.2714    0.2350 C   0  0  0  0  0  0  0  0  0  0  0  0
    0.5252   -3.3983    0.1758 C   0  0  0  0  0  0  0  0  0  0  0  0
   -1.7482   -2.5144    0.1455 N   0  0  0  0  0  0  0  0  0  0  0  0
   -2.3589   -1.2904    0.2235 N   0  0  0  0  0  0  0  0  0  0  0  0
   -3.7845   -1.2073    0.1384 C   0  0  0  0  0  0  0  0  0  0  0  0
   -4.4648    0.0173    0.2020 C   0  0  0  0  0  0  0  0  0  0  0  0
   -5.8625    0.0598    0.1142 C   0  0  0  0  0  0  0  0  0  0  0  0
   -6.5868   -1.1277   -0.0390 C   0  0  0  0  0  0  0  0  0  0  0  0
   -8.0512   -1.0831   -0.1305 N   0  0  0  0  0  4  0  0  0  0  0  0
   -8.6009    0.0261   -0.0702 O   0  0  0  0  0  0  0  0  0  0  0  0
   -8.6541   -2.1583   -0.2623 O   0  0  0  0  0  1  0  0  0  0  0  0
   -5.9238   -2.3573   -0.1060 C   0  0  0  0  0  0  0  0  0  0  0  0
   -4.5282   -2.3928   -0.0177 C   0  0  0  0  0  0  0  0  0  0  0  0
   -1.4115   -0.2846    0.3926 C   0  0  0  0  0  0  0  0  0  0  0  0
   -1.6405    1.0426    0.5524 N   0  0  0  0  0  0  0  0  0  0  0  0
   -0.5808    1.7774    0.7842 C   0  0  0  0  0  0  0  0  0  0  0  0
   -0.8850    3.2818    0.9850 C   0  0  0  0  0  0  0  0  0  0  0  0
   -2.0085    3.7431    0.8391 O   0  0  0  0  0  0  0  0  0  0  0  0
    0.1807    4.0644    1.3395 N   0  0  0  0  0  0  0  0  0  0  0  0
    1.4825    3.5828    1.4995 C   0  0  0  0  0  0  0  0  0  0  0  0
    2.4666    4.4987    1.8910 C   0  0  0  0  0  0  0  0  0  0  0  0
    3.7787    4.0756    2.0684 C   0  0  0  0  0  0  0  0  0  0  0  0
    4.1015    2.7414    1.8564 C   0  0  0  0  0  0  0  0  0  0  0  0
    3.1141    1.8287    1.4636 C   0  0  0  0  0  0  0  0  0  0  0  0
    1.7794    2.2221    1.2669 C   0  0  0  0  0  0  0  0  0  0  0  0
    0.7553    1.3399    0.8658 N   0  0  0  0  0  0  0  0  0  0  0  0
    2.9330   -1.0188   -0.8892 C   0  0  0  0  0  0  0  0  0  0  0  0
    6.1044   -3.2301   -1.5385 H   0  0  0  0  0  0  0  0  0  0  0  0
    4.4826   -3.3925   -0.8530 H   0  0  0  0  0  0  0  0  0  0  0  0
    5.5485   -2.0107   -0.3853 H   0  0  0  0  0  0  0  0  0  0  0  0
    3.6840   -0.5970   -4.1739 H   0  0  0  0  0  0  0  0  0  0  0  0
    1.6636    0.8257   -4.0542 H   0  0  0  0  0  0  0  0  0  0  0  0
    0.4432    1.0777   -1.9317 H   0  0  0  0  0  0  0  0  0  0  0  0
    1.6344   -0.5200    1.3510 H   0  0  0  0  0  0  0  0  0  0  0  0
    0.9204   -3.5074   -0.8389 H   0  0  0  0  0  0  0  0  0  0  0  0
    1.3631   -3.2308    0.8598 H   0  0  0  0  0  0  0  0  0  0  0  0
    0.0500   -4.3432    0.4598 H   0  0  0  0  0  0  0  0  0  0  0  0
   -3.9454    0.9647    0.3174 H   0  0  0  0  0  0  0  0  0  0  0  0
   -6.3618    1.0257    0.1670 H   0  0  0  0  0  0  0  0  0  0  0  0
   -6.4692   -3.2911   -0.2260 H   0  0  0  0  0  0  0  0  0  0  0  0
   -4.0307   -3.3607   -0.0729 H   0  0  0  0  0  0  0  0  0  0  0  0
   -0.0292    5.0422    1.4859 H   0  0  0  0  0  0  0  0  0  0  0  0
    2.2207    5.5437    2.0608 H   0  0  0  0  0  0  0  0  0  0  0  0
    4.5463    4.7834    2.3712 H   0  0  0  0  0  0  0  0  0  0  0  0
    5.1266    2.4040    1.9938 H   0  0  0  0  0  0  0  0  0  0  0  0
    3.4368    0.8037    1.3196 H   0  0  0  0  0  0  0  0  0  0  0  0
    3.2793   -1.5320    0.0023 H   0  0  0  0  0  0  0  0  0  0  0  0
  1  2  1  0
  2  3  1  0
  3  4  2  0
  4  5  1  0
  5  6  2  0
  6  7  1  0
  7  8  1  0
  8  9  1  0
  9 10  1  0
 10 11  1  0
 10 12  2  0
 12 13  1  0
 13 14  1  0
 14 15  2  0
 15 16  1  0
 16 17  2  0
 17 18  1  0
 18 19  2  0
 18 20  1  0
 17 21  1  0
 21 22  2  0
 13 23  1  0
 23 24  1  0
 24 25  2  0
 25 26  1  0
 26 27  2  0
 26 28  1  0
 28 29  1  0
 29 30  2  0
 30 31  1  0
 31 32  2  0
 32 33  1  0
 33 34  2  0
 34 35  1  0
  7 36  2  0
 36  3  1  0
 35  8  1  0
 23  9  2  0
 35 25  1  0
 22 14  1  0
 34 29  1  0
  1 37  1  0
  1 38  1  0
  1 39  1  0
  4 40  1  0
  5 41  1  0
  6 42  1  0
  8 43  1  0
 11 44  1  0
 11 45  1  0
 11 46  1  0
 15 47  1  0
 16 48  1  0
 21 49  1  0
 22 50  1  0
 28 51  1  0
 30 52  1  0
 31 53  1  0
 32 54  1  0
 33 55  1  0
 36 56  1  0
M  CHG  2  18   1  20  -1
M  END
$$$$
