
     RDKit          3D

 54 56  0  0  0  0  0  0  0  0999 V2000
   -0.5865   -1.1796    2.0653 O   0  0  0  0  0  0  0  0  0  0  0  0
   -0.1610   -0.6140    1.0652 C   0  0  0  0  0  0  0  0  0  0  0  0
   -0.8269   -0.5911   -0.1435 N   0  0  0  0  0  0  0  0  0  0  0  0
   -2.1406   -1.1881   -0.2881 C   0  0  0  0  0  0  0  0  0  0  0  0
   -3.2479   -0.2258    0.1390 C   0  0  0  0  0  0  0  0  0  0  0  0
   -4.6272   -0.8727   -0.0363 C   0  0  0  0  0  0  0  0  0  0  0  0
   -5.7283   -0.0096    0.4163 N   0  0  0  0  0  0  0  0  0  0  0  0
   -7.0239   -0.7252    0.4150 C   0  0  0  0  0  0  0  0  0  0  0  0
   -7.8891   -0.4212   -0.8181 C   0  0  0  0  0  0  0  0  0  0  0  0
   -8.2096    0.9697   -0.9576 O   0  0  0  0  0  0  0  0  0  0  0  0
   -7.2433    1.8327   -0.3421 C   0  0  0  0  0  0  0  0  0  0  0  0
   -5.8255    1.2414   -0.3684 C   0  0  0  0  0  0  0  0  0  0  0  0
    1.1295    0.1253    1.1234 C   0  0  0  0  0  0  0  0  0  0  0  0
    1.5378    0.6558    2.3562 C   0  0  0  0  0  0  0  0  0  0  0  0
    2.7411    1.3576    2.4636 C   0  0  0  0  0  0  0  0  0  0  0  0
    3.5512    1.5221    1.3419 C   0  0  0  0  0  0  0  0  0  0  0  0
    3.1544    0.9697    0.1200 C   0  0  0  0  0  0  0  0  0  0  0  0
    4.2066    1.1728   -1.2953 S   0  0  0  0  0  6  0  0  0  0  0  0
    4.5757    2.5703   -1.3524 O   0  0  0  0  0  0  0  0  0  0  0  0
    3.5813    0.5142   -2.4227 O   0  0  0  0  0  0  0  0  0  0  0  0
    5.5890    0.2693   -0.8690 N   0  0  0  0  0  0  0  0  0  0  0  0
    5.3689   -1.2091   -0.7417 C   0  0  0  0  0  0  0  0  0  0  0  0
    6.6592   -1.8786   -0.2537 C   0  0  0  0  0  0  0  0  0  0  0  0
    7.7473   -1.6251   -1.1538 O   0  0  0  0  0  0  0  0  0  0  0  0
    7.9888   -0.2142   -1.2615 C   0  0  0  0  0  0  0  0  0  0  0  0
    6.7512    0.5233   -1.7842 C   0  0  0  0  0  0  0  0  0  0  0  0
    1.9469    0.2741   -0.0018 C   0  0  0  0  0  0  0  0  0  0  0  0
   -0.5271    0.0545   -0.8616 H   0  0  0  0  0  0  0  0  0  0  0  0
   -2.1819   -2.1091    0.3040 H   0  0  0  0  0  0  0  0  0  0  0  0
   -2.2531   -1.4561   -1.3440 H   0  0  0  0  0  0  0  0  0  0  0  0
   -3.1048    0.0663    1.1870 H   0  0  0  0  0  0  0  0  0  0  0  0
   -3.1687    0.6903   -0.4585 H   0  0  0  0  0  0  0  0  0  0  0  0
   -4.6349   -1.7954    0.5581 H   0  0  0  0  0  0  0  0  0  0  0  0
   -4.7734   -1.1666   -1.0838 H   0  0  0  0  0  0  0  0  0  0  0  0
   -6.8901   -1.8080    0.5229 H   0  0  0  0  0  0  0  0  0  0  0  0
   -7.5698   -0.3959    1.3082 H   0  0  0  0  0  0  0  0  0  0  0  0
   -7.3840   -0.7467   -1.7348 H   0  0  0  0  0  0  0  0  0  0  0  0
   -8.8351   -0.9689   -0.7571 H   0  0  0  0  0  0  0  0  0  0  0  0
   -7.5660    2.0371    0.6857 H   0  0  0  0  0  0  0  0  0  0  0  0
   -7.2638    2.7840   -0.8836 H   0  0  0  0  0  0  0  0  0  0  0  0
   -5.5583    1.0543   -1.4169 H   0  0  0  0  0  0  0  0  0  0  0  0
   -5.1222    1.9768    0.0368 H   0  0  0  0  0  0  0  0  0  0  0  0
    0.9105    0.5271    3.2375 H   0  0  0  0  0  0  0  0  0  0  0  0
    3.0421    1.7747    3.4220 H   0  0  0  0  0  0  0  0  0  0  0  0
    4.4871    2.0720    1.4217 H   0  0  0  0  0  0  0  0  0  0  0  0
    4.5714   -1.4163   -0.0231 H   0  0  0  0  0  0  0  0  0  0  0  0
    5.0905   -1.6197   -1.7193 H   0  0  0  0  0  0  0  0  0  0  0  0
    6.5185   -2.9628   -0.2015 H   0  0  0  0  0  0  0  0  0  0  0  0
    6.9338   -1.5270    0.7480 H   0  0  0  0  0  0  0  0  0  0  0  0
    8.8255   -0.0734   -1.9529 H   0  0  0  0  0  0  0  0  0  0  0  0
    8.2948    0.1710   -0.2815 H   0  0  0  0  0  0  0  0  0  0  0  0
    6.9704    1.5947   -1.8270 H   0  0  0  0  0  0  0  0  0  0  0  0
    6.5017    0.1644   -2.7897 H   0  0  0  0  0  0  0  0  0  0  0  0
    1.6678   -0.1656   -0.9553 H   0  0  0  0  0  0  0  0  0  0  0  0
  1  2  2  0
  2  3  1  0
  3  4  1  0
  4  5  1  0
  5  6  1  0
  6  7  1  0
  7  8  1  0
  8  9  1  0
  9 10  1  0
 10 11  1  0
 11 12  1  0
  2 13  1  0
 13 14  2  0
 14 15  1  0
 15 16  2  0
 16 17  1  0
 17 18  1  0
 18 19  2  0
 18 20  2  0
 18 21  1  0
 21 22  1  0
 22 23  1  0
 23 24  1  0
 24 25  1  0
 25 26  1  0
 17 27  2  0
 12  7  1  0
 27 13  1  0
 26 21  1  0
  3 28  1  0
  4 29  1  0
  4 30  1  0
  5 31  1  0
  5 32  1  0
  6 33  1  0
  6 34  1  0
  8 35  1  0
  8 36  1  0
  9 37  1  0
  9 38  1  0
 11 39  1  0
 11 40  1  0
 12 41  1  0
 12 42  1  0
 14 43  1  0
 15 44  1  0
 16 45  1  0
 22 46  1  0
 22 47  1  0
 23 48  1  0
 23 49  1  0
 25 50  1  0
 25 51  1  0
 26 52  1  0
 26 53  1  0
 27 54  1  0
M  END
$$$$
