
     RDKit          3D

 55 57  0  0  0  0  0  0  0  0999 V2000
    3.1623    2.1185    2.3274 C   0  0  0  0  0  0  0  0  0  0  0  0
    2.3409    2.2215    1.0386 C   0  0  0  0  0  0  0  0  0  0  0  0
    3.2738    2.4536   -0.1540 C   0  0  0  0  0  0  0  0  0  0  0  0
    1.4043    1.0135    0.8045 C   0  0  0  0  0  0  0  0  0  0  0  0
    0.2877    1.0889    1.7802 N   0  0  0  0  0  0  0  0  0  0  0  0
   -1.0974    0.1914    1.4565 S   0  0  0  0  0  6  0  0  0  0  0  0
   -0.6775   -1.0256    0.7979 O   0  0  0  0  0  0  0  0  0  0  0  0
   -1.8699    0.1767    2.6782 O   0  0  0  0  0  0  0  0  0  0  0  0
   -1.9456    1.2197    0.2929 C   0  0  0  0  0  0  0  0  0  0  0  0
   -2.2550    0.7271   -0.9792 C   0  0  0  0  0  0  0  0  0  0  0  0
   -2.9007    1.5563   -1.8974 C   0  0  0  0  0  0  0  0  0  0  0  0
   -3.2332    2.8629   -1.5405 C   0  0  0  0  0  0  0  0  0  0  0  0
   -2.8986    3.3553   -0.2729 C   0  0  0  0  0  0  0  0  0  0  0  0
   -2.2703    2.5297    0.6556 C   0  0  0  0  0  0  0  0  0  0  0  0
   -3.1608    4.6398    0.1262 O   0  0  0  0  0  0  0  0  0  0  0  0
   -3.4918    5.4787   -0.9879 C   0  0  0  0  0  0  0  0  0  0  0  0
   -4.4748    4.7815   -1.9126 C   0  0  0  0  0  0  0  0  0  0  0  0
   -3.8811    3.6123   -2.4887 O   0  0  0  0  0  0  0  0  0  0  0  0
    2.1527   -0.3203    0.8329 C   0  0  0  0  0  0  0  0  0  0  0  0
    2.8242   -0.7518   -0.0988 O   0  0  0  0  0  0  0  0  0  0  0  0
    2.0055   -0.9626    2.0273 O   0  0  0  0  0  0  0  0  0  0  0  0
    2.7765   -2.1511    2.1838 C   0  0  0  0  0  0  0  0  0  0  0  0
    2.1868   -3.4915    1.7090 C   0  0  0  0  0  0  0  0  0  0  0  0
    2.4700   -4.5210    2.3171 O   0  0  0  0  0  0  0  0  0  0  0  0
    1.4194   -3.4221    0.5659 N   0  0  0  0  0  0  0  0  0  0  0  0
    0.7801   -4.4733   -0.1360 C   0  0  0  0  0  0  0  0  0  0  0  0
    0.7749   -5.7942    0.3273 C   0  0  0  0  0  0  0  0  0  0  0  0
    0.1172   -6.8008   -0.3834 C   0  0  0  0  0  0  0  0  0  0  0  0
   -0.5471   -6.5008   -1.5689 C   0  0  0  0  0  0  0  0  0  0  0  0
   -0.5444   -5.1915   -2.0568 C   0  0  0  0  0  0  0  0  0  0  0  0
   -1.3797   -4.8996   -3.5425 Cl  0  0  0  0  0  0  0  0  0  0  0  0
    0.1193   -4.1774   -1.3499 C   0  0  0  0  0  0  0  0  0  0  0  0
    0.1702   -2.5600   -1.9809 Cl  0  0  0  0  0  0  0  0  0  0  0  0
    3.7321    3.0386    2.4949 H   0  0  0  0  0  0  0  0  0  0  0  0
    2.5202    1.9693    3.1991 H   0  0  0  0  0  0  0  0  0  0  0  0
    3.8790    1.2928    2.2875 H   0  0  0  0  0  0  0  0  0  0  0  0
    1.7107    3.1172    1.1278 H   0  0  0  0  0  0  0  0  0  0  0  0
    3.8333    3.3849   -0.0283 H   0  0  0  0  0  0  0  0  0  0  0  0
    4.0023    1.6440   -0.2662 H   0  0  0  0  0  0  0  0  0  0  0  0
    2.7034    2.5320   -1.0833 H   0  0  0  0  0  0  0  0  0  0  0  0
    0.9641    1.1059   -0.1967 H   0  0  0  0  0  0  0  0  0  0  0  0
    0.5239    1.0500    2.7727 H   0  0  0  0  0  0  0  0  0  0  0  0
   -2.0062   -0.2930   -1.2631 H   0  0  0  0  0  0  0  0  0  0  0  0
   -3.1534    1.1824   -2.8868 H   0  0  0  0  0  0  0  0  0  0  0  0
   -2.0265    2.9106    1.6437 H   0  0  0  0  0  0  0  0  0  0  0  0
   -3.9314    6.3987   -0.5914 H   0  0  0  0  0  0  0  0  0  0  0  0
   -2.5650    5.7415   -1.5127 H   0  0  0  0  0  0  0  0  0  0  0  0
   -4.7602    5.4461   -2.7333 H   0  0  0  0  0  0  0  0  0  0  0  0
   -5.3859    4.4846   -1.3798 H   0  0  0  0  0  0  0  0  0  0  0  0
    2.9353   -2.2535    3.2631 H   0  0  0  0  0  0  0  0  0  0  0  0
    3.7716   -2.0384    1.7424 H   0  0  0  0  0  0  0  0  0  0  0  0
    1.2828   -2.5033    0.1505 H   0  0  0  0  0  0  0  0  0  0  0  0
    1.2691   -6.0810    1.2526 H   0  0  0  0  0  0  0  0  0  0  0  0
    0.1237   -7.8206   -0.0042 H   0  0  0  0  0  0  0  0  0  0  0  0
   -1.0608   -7.2928   -2.1105 H   0  0  0  0  0  0  0  0  0  0  0  0
  1  2  1  0
  2  3  1  0
  2  4  1  0
  4  5  1  0
  5  6  1  0
  6  7  2  0
  6  8  2  0
  6  9  1  0
  9 10  2  0
 10 11  1  0
 11 12  2  0
 12 13  1  0
 13 14  2  0
 13 15  1  0
 15 16  1  0
 16 17  1  0
 17 18  1  0
  4 19  1  0
 19 20  2  0
 19 21  1  0
 21 22  1  0
 22 23  1  0
 23 24  2  0
 23 25  1  0
 25 26  1  0
 26 27  2  0
 27 28  1  0
 28 29  2  0
 29 30  1  0
 30 31  1  0
 30 32  2  0
 32 33  1  0
 14  9  1  0
 32 26  1  0
 18 12  1  0
  1 34  1  0
  1 35  1  0
  1 36  1  0
  2 37  1  0
  3 38  1  0
  3 39  1  0
  3 40  1  0
  4 41  1  0
  5 42  1  0
 10 43  1  0
 11 44  1  0
 14 45  1  0
 16 46  1  0
 16 47  1  0
 17 48  1  0
 17 49  1  0
 22 50  1  0
 22 51  1  0
 25 52  1  0
 27 53  1  0
 28 54  1  0
 29 55  1  0
M  END
$$$$
