
     RDKit          3D

 47 49  0  0  0  0  0  0  0  0999 V2000
    4.6855    1.8599   -3.5196 C   0  0  0  0  0  0  0  0  0  0  0  0
    3.6403    1.7464   -2.4435 C   0  0  0  0  0  0  0  0  0  0  0  0
    3.9189    0.9967   -1.2925 C   0  0  0  0  0  0  0  0  0  0  0  0
    2.9753    0.8731   -0.2710 C   0  0  0  0  0  0  0  0  0  0  0  0
    1.7297    1.5029   -0.3714 C   0  0  0  0  0  0  0  0  0  0  0  0
    0.7046    1.3328    0.7363 C   0  0  0  0  0  0  0  0  0  0  0  0
    0.2010    2.6796    1.2649 C   0  0  0  0  0  0  0  0  0  0  0  0
   -0.3875    0.5028    0.2540 N   0  0  0  0  0  0  0  0  0  0  0  0
   -1.2534   -0.1336    1.1150 C   0  0  0  0  0  0  0  0  0  0  0  0
   -1.1884   -0.0051    2.3317 O   0  0  0  0  0  0  0  0  0  0  0  0
   -2.2234   -0.9950    0.4710 C   0  0  0  0  0  0  0  0  0  0  0  0
   -2.7964   -2.2193    0.9443 C   0  0  0  0  0  0  0  0  0  0  0  0
   -2.5227   -2.9717    2.1699 C   0  0  0  0  0  0  0  0  0  0  0  0
   -3.5770   -3.5859    2.8639 C   0  0  0  0  0  0  0  0  0  0  0  0
   -3.3337   -4.3192    4.0278 C   0  0  0  0  0  0  0  0  0  0  0  0
   -2.0330   -4.4515    4.5083 C   0  0  0  0  0  0  0  0  0  0  0  0
   -0.9756   -3.8553    3.8241 C   0  0  0  0  0  0  0  0  0  0  0  0
   -1.2179   -3.1223    2.6585 C   0  0  0  0  0  0  0  0  0  0  0  0
   -3.6936   -2.6862    0.0584 N   0  0  0  0  0  0  0  0  0  0  0  0
   -3.7248   -1.7891   -0.9808 O   0  0  0  0  0  0  0  0  0  0  0  0
   -2.8623   -0.7732   -0.7345 C   0  0  0  0  0  0  0  0  0  0  0  0
   -2.8391    0.2997   -1.7488 C   0  0  0  0  0  0  0  0  0  0  0  0
    1.4484    2.2496   -1.5280 C   0  0  0  0  0  0  0  0  0  0  0  0
    2.3898    2.3823   -2.5630 C   0  0  0  0  0  0  0  0  0  0  0  0
    2.0396    3.1989   -3.7771 C   0  0  0  0  0  0  0  0  0  0  0  0
    4.9968    2.9019   -3.6377 H   0  0  0  0  0  0  0  0  0  0  0  0
    5.5781    1.2738   -3.2771 H   0  0  0  0  0  0  0  0  0  0  0  0
    4.2964    1.4845   -4.4705 H   0  0  0  0  0  0  0  0  0  0  0  0
    4.8805    0.4999   -1.1810 H   0  0  0  0  0  0  0  0  0  0  0  0
    3.2252    0.2791    0.6056 H   0  0  0  0  0  0  0  0  0  0  0  0
    1.1697    0.8027    1.5779 H   0  0  0  0  0  0  0  0  0  0  0  0
   -0.3818    3.2231    0.5130 H   0  0  0  0  0  0  0  0  0  0  0  0
    1.0368    3.3177    1.5724 H   0  0  0  0  0  0  0  0  0  0  0  0
   -0.4509    2.5424    2.1341 H   0  0  0  0  0  0  0  0  0  0  0  0
   -0.3354    0.1808   -0.7024 H   0  0  0  0  0  0  0  0  0  0  0  0
   -4.5991   -3.4941    2.5007 H   0  0  0  0  0  0  0  0  0  0  0  0
   -4.1607   -4.7855    4.5569 H   0  0  0  0  0  0  0  0  0  0  0  0
   -1.8430   -5.0199    5.4150 H   0  0  0  0  0  0  0  0  0  0  0  0
    0.0400   -3.9589    4.1974 H   0  0  0  0  0  0  0  0  0  0  0  0
   -0.3725   -2.6766    2.1416 H   0  0  0  0  0  0  0  0  0  0  0  0
   -1.9980    0.1591   -2.4343 H   0  0  0  0  0  0  0  0  0  0  0  0
   -3.7607    0.3044   -2.3394 H   0  0  0  0  0  0  0  0  0  0  0  0
   -2.7431    1.2823   -1.2771 H   0  0  0  0  0  0  0  0  0  0  0  0
    0.4796    2.7364   -1.6275 H   0  0  0  0  0  0  0  0  0  0  0  0
    1.0362    3.6317   -3.6951 H   0  0  0  0  0  0  0  0  0  0  0  0
    2.0556    2.5712   -4.6740 H   0  0  0  0  0  0  0  0  0  0  0  0
    2.7461    4.0267   -3.8962 H   0  0  0  0  0  0  0  0  0  0  0  0
  1  2  1  0
  2  3  2  0
  3  4  1  0
  4  5  2  0
  5  6  1  0
  6  7  1  0
  6  8  1  0
  8  9  1  0
  9 10  2  0
  9 11  1  0
 11 12  1  0
 12 13  1  0
 13 14  2  0
 14 15  1  0
 15 16  2  0
 16 17  1  0
 17 18  2  0
 12 19  2  0
 19 20  1  0
 20 21  1  0
 21 22  1  0
  5 23  1  0
 23 24  2  0
 24 25  1  0
 24  2  1  0
 21 11  2  0
 18 13  1  0
  1 26  1  0
  1 27  1  0
  1 28  1  0
  3 29  1  0
  4 30  1  0
  6 31  1  0
  7 32  1  0
  7 33  1  0
  7 34  1  0
  8 35  1  0
 14 36  1  0
 15 37  1  0
 16 38  1  0
 17 39  1  0
 18 40  1  0
 22 41  1  0
 22 42  1  0
 22 43  1  0
 23 44  1  0
 25 45  1  0
 25 46  1  0
 25 47  1  0
M  END
$$$$
