
     RDKit          3D

 37 38  0  0  0  0  0  0  0  0999 V2000
   -5.0795    0.3398   -1.9638 C   0  0  0  0  0  0  0  0  0  0  0  0
   -4.6055    0.1016   -0.6037 N   0  0  0  0  0  0  0  0  0  0  0  0
   -4.2058    1.3695    0.0423 C   0  0  0  0  0  0  0  0  0  0  0  0
   -3.1562    1.1934    1.1530 C   0  0  0  0  0  0  0  0  0  0  0  0
   -1.9265    0.5869    0.6337 N   0  0  0  0  0  0  0  0  0  0  0  0
   -0.7289    0.8977    1.2504 C   0  0  0  0  0  0  0  0  0  0  0  0
   -0.6592    1.5922    2.2622 O   0  0  0  0  0  0  0  0  0  0  0  0
    0.5099    0.3650    0.6190 C   0  0  0  0  0  0  0  0  0  0  0  0
    1.6574    0.3592    1.3159 C   0  0  0  0  0  0  0  0  0  0  0  0
    2.9429   -0.1025    0.7780 C   0  0  0  0  0  0  0  0  0  0  0  0
    3.0458   -1.2317   -0.0475 C   0  0  0  0  0  0  0  0  0  0  0  0
    4.2914   -1.6588   -0.5199 C   0  0  0  0  0  0  0  0  0  0  0  0
    5.4464   -0.9563   -0.1551 C   0  0  0  0  0  0  0  0  0  0  0  0
    6.7557   -1.4004   -0.6492 N   0  0  0  0  0  4  0  0  0  0  0  0
    7.7551   -0.7617   -0.2902 O   0  0  0  0  0  0  0  0  0  0  0  0
    6.7840   -2.3877   -1.3981 O   0  0  0  0  0  1  0  0  0  0  0  0
    5.3618    0.1628    0.6810 C   0  0  0  0  0  0  0  0  0  0  0  0
    4.1111    0.5799    1.1477 C   0  0  0  0  0  0  0  0  0  0  0  0
   -2.1038   -0.3675   -0.4676 C   0  0  0  0  0  0  0  0  0  0  0  0
   -3.5412   -0.9170   -0.5545 C   0  0  0  0  0  0  0  0  0  0  0  0
   -4.2819    0.7052   -2.6205 H   0  0  0  0  0  0  0  0  0  0  0  0
   -5.8937    1.0732   -1.9656 H   0  0  0  0  0  0  0  0  0  0  0  0
   -5.4868   -0.5811   -2.3957 H   0  0  0  0  0  0  0  0  0  0  0  0
   -5.0992    1.8480    0.4592 H   0  0  0  0  0  0  0  0  0  0  0  0
   -3.7846    2.0593   -0.7021 H   0  0  0  0  0  0  0  0  0  0  0  0
   -2.9322    2.1660    1.6050 H   0  0  0  0  0  0  0  0  0  0  0  0
   -3.5370    0.5398    1.9471 H   0  0  0  0  0  0  0  0  0  0  0  0
    0.4691    0.0431   -0.4110 H   0  0  0  0  0  0  0  0  0  0  0  0
    1.6769    0.7380    2.3373 H   0  0  0  0  0  0  0  0  0  0  0  0
    2.1603   -1.8011   -0.3215 H   0  0  0  0  0  0  0  0  0  0  0  0
    4.3423   -2.5374   -1.1598 H   0  0  0  0  0  0  0  0  0  0  0  0
    6.2496    0.7170    0.9789 H   0  0  0  0  0  0  0  0  0  0  0  0
    4.0552    1.4514    1.7989 H   0  0  0  0  0  0  0  0  0  0  0  0
   -1.8426    0.1556   -1.3950 H   0  0  0  0  0  0  0  0  0  0  0  0
   -1.4086   -1.2038   -0.3401 H   0  0  0  0  0  0  0  0  0  0  0  0
   -3.6184   -1.6186   -1.3944 H   0  0  0  0  0  0  0  0  0  0  0  0
   -3.7233   -1.5189    0.3457 H   0  0  0  0  0  0  0  0  0  0  0  0
  1  2  1  0
  2  3  1  0
  3  4  1  0
  4  5  1  0
  5  6  1  0
  6  7  2  0
  6  8  1  0
  8  9  2  3
  9 10  1  0
 10 11  2  0
 11 12  1  0
 12 13  2  0
 13 14  1  0
 14 15  2  0
 14 16  1  0
 13 17  1  0
 17 18  2  0
  5 19  1  0
 19 20  1  0
 20  2  1  0
 18 10  1  0
  1 21  1  0
  1 22  1  0
  1 23  1  0
  3 24  1  0
  3 25  1  0
  4 26  1  0
  4 27  1  0
  8 28  1  0
  9 29  1  0
 11 30  1  0
 12 31  1  0
 17 32  1  0
 18 33  1  0
 19 34  1  0
 19 35  1  0
 20 36  1  0
 20 37  1  0
M  CHG  2  14   1  16  -1
M  END
$$$$
