
     RDKit          3D

 60 64  0  0  0  0  0  0  0  0999 V2000
   -6.4551   -2.6478   -1.1285 C   0  0  0  0  0  0  0  0  0  0  0  0
   -5.9403   -1.3020   -0.6339 C   0  0  0  0  0  0  0  0  0  0  0  0
   -4.4132   -1.1689   -0.7298 C   0  0  0  0  0  0  0  0  0  0  0  0
   -4.0037   -1.1339   -2.1300 N   0  0  0  0  0  0  0  0  0  0  0  0
   -2.6233   -0.9603   -2.2733 C   0  0  0  0  0  0  0  0  0  0  0  0
   -2.0989   -1.5634   -3.3494 N   0  0  0  0  0  0  0  0  0  0  0  0
   -0.8016   -1.3459   -3.5602 C   0  0  0  0  0  0  0  0  0  0  0  0
    0.0104   -0.6233   -2.7831 N   0  0  0  0  0  0  0  0  0  0  0  0
   -0.5279   -0.0503   -1.6819 C   0  0  0  0  0  0  0  0  0  0  0  0
    0.3784    0.5663   -0.7894 N   0  0  0  0  0  0  0  0  0  0  0  0
    0.9242   -0.4799    0.1234 C   0  0  0  0  0  0  0  0  0  0  0  0
    2.2626   -0.0542    0.7673 C   0  0  0  0  0  0  0  0  0  0  0  0
    3.2881    0.2075   -0.2612 N   0  0  0  0  0  0  0  0  0  0  0  0
    4.6378    0.0580    0.0042 C   0  0  0  0  0  0  0  0  0  0  0  0
    5.1425    0.0931    1.3150 C   0  0  0  0  0  0  0  0  0  0  0  0
    6.5079   -0.0532    1.5913 C   0  0  0  0  0  0  0  0  0  0  0  0
    7.4119   -0.2420    0.5539 C   0  0  0  0  0  0  0  0  0  0  0  0
    6.9471   -0.2830   -0.7545 C   0  0  0  0  0  0  0  0  0  0  0  0
    5.5798   -0.1337   -1.0198 C   0  0  0  0  0  0  0  0  0  0  0  0
    2.7888    0.5917   -1.5958 C   0  0  0  0  0  0  0  0  0  0  0  0
    1.4385    1.3366   -1.4915 C   0  0  0  0  0  0  0  0  0  0  0  0
   -1.8944   -0.1593   -1.3819 C   0  0  0  0  0  0  0  0  0  0  0  0
   -2.5944    0.4751   -0.2878 N   0  0  0  0  0  0  0  0  0  0  0  0
   -2.0864    1.7005    0.3292 C   0  0  0  0  0  0  0  0  0  0  0  0
   -1.4080    1.5431    1.6774 C   0  0  0  0  0  0  0  0  0  0  0  0
   -0.3539    2.4102    2.0129 C   0  0  0  0  0  0  0  0  0  0  0  0
    0.2754    2.3312    3.2572 C   0  0  0  0  0  0  0  0  0  0  0  0
   -0.1478    1.3914    4.1922 C   0  0  0  0  0  0  0  0  0  0  0  0
   -1.2069    0.5404    3.8870 C   0  0  0  0  0  0  0  0  0  0  0  0
   -1.8384    0.6216    2.6429 C   0  0  0  0  0  0  0  0  0  0  0  0
   -3.9228    0.1113   -0.0111 C   0  0  0  0  0  0  0  0  0  0  0  0
   -4.6270    0.7107    0.8036 O   0  0  0  0  0  0  0  0  0  0  0  0
   -5.9789   -3.4723   -0.5886 H   0  0  0  0  0  0  0  0  0  0  0  0
   -6.2705   -2.7820   -2.1982 H   0  0  0  0  0  0  0  0  0  0  0  0
   -7.5357   -2.7177   -0.9676 H   0  0  0  0  0  0  0  0  0  0  0  0
   -6.4276   -0.4988   -1.2010 H   0  0  0  0  0  0  0  0  0  0  0  0
   -6.2570   -1.1850    0.4099 H   0  0  0  0  0  0  0  0  0  0  0  0
   -3.9494   -2.0239   -0.2180 H   0  0  0  0  0  0  0  0  0  0  0  0
   -4.2866   -1.9065   -2.7245 H   0  0  0  0  0  0  0  0  0  0  0  0
   -0.3616   -1.8040   -4.4390 H   0  0  0  0  0  0  0  0  0  0  0  0
    0.1972   -0.6981    0.9120 H   0  0  0  0  0  0  0  0  0  0  0  0
    1.0994   -1.4208   -0.4185 H   0  0  0  0  0  0  0  0  0  0  0  0
    2.1252    0.8495    1.3696 H   0  0  0  0  0  0  0  0  0  0  0  0
    2.5774   -0.8666    1.4330 H   0  0  0  0  0  0  0  0  0  0  0  0
    4.4771    0.2624    2.1568 H   0  0  0  0  0  0  0  0  0  0  0  0
    6.8582   -0.0134    2.6191 H   0  0  0  0  0  0  0  0  0  0  0  0
    8.4714   -0.3561    0.7635 H   0  0  0  0  0  0  0  0  0  0  0  0
    7.6426   -0.4357   -1.5752 H   0  0  0  0  0  0  0  0  0  0  0  0
    5.2621   -0.1963   -2.0567 H   0  0  0  0  0  0  0  0  0  0  0  0
    2.6877   -0.3062   -2.2159 H   0  0  0  0  0  0  0  0  0  0  0  0
    3.4931    1.2704   -2.0915 H   0  0  0  0  0  0  0  0  0  0  0  0
    1.1127    1.6768   -2.4831 H   0  0  0  0  0  0  0  0  0  0  0  0
    1.5978    2.2520   -0.9062 H   0  0  0  0  0  0  0  0  0  0  0  0
   -2.9309    2.3852    0.4860 H   0  0  0  0  0  0  0  0  0  0  0  0
   -1.4408    2.2266   -0.3830 H   0  0  0  0  0  0  0  0  0  0  0  0
   -0.0091    3.1524    1.2955 H   0  0  0  0  0  0  0  0  0  0  0  0
    1.0934    3.0063    3.4949 H   0  0  0  0  0  0  0  0  0  0  0  0
    0.3366    1.3318    5.1630 H   0  0  0  0  0  0  0  0  0  0  0  0
   -1.5542   -0.1801    4.6230 H   0  0  0  0  0  0  0  0  0  0  0  0
   -2.6791   -0.0375    2.4465 H   0  0  0  0  0  0  0  0  0  0  0  0
  1  2  1  0
  2  3  1  0
  3  4  1  0
  4  5  1  0
  5  6  2  0
  6  7  1  0
  7  8  2  0
  8  9  1  0
  9 10  1  0
 10 11  1  0
 11 12  1  0
 12 13  1  0
 13 14  1  0
 14 15  2  0
 15 16  1  0
 16 17  2  0
 17 18  1  0
 18 19  2  0
 13 20  1  0
 20 21  1  0
  9 22  2  0
 22 23  1  0
 23 24  1  0
 24 25  1  0
 25 26  2  0
 26 27  1  0
 27 28  2  0
 28 29  1  0
 29 30  2  0
 23 31  1  0
 31 32  2  0
 31  3  1  0
 22  5  1  0
 30 25  1  0
 21 10  1  0
 19 14  1  0
  1 33  1  0
  1 34  1  0
  1 35  1  0
  2 36  1  0
  2 37  1  0
  3 38  1  0
  4 39  1  0
  7 40  1  0
 11 41  1  0
 11 42  1  0
 12 43  1  0
 12 44  1  0
 15 45  1  0
 16 46  1  0
 17 47  1  0
 18 48  1  0
 19 49  1  0
 20 50  1  0
 20 51  1  0
 21 52  1  0
 21 53  1  0
 24 54  1  0
 24 55  1  0
 26 56  1  0
 27 57  1  0
 28 58  1  0
 29 59  1  0
 30 60  1  0
M  END
$$$$
