
     RDKit          3D

 49 51  0  0  0  0  0  0  0  0999 V2000
   -3.8605   -0.1034   -1.6573 C   0  0  0  0  0  0  0  0  0  0  0  0
   -3.6126   -0.4827   -0.2188 C   0  0  0  0  0  0  0  0  0  0  0  0
   -4.7486   -1.0956    0.5301 C   0  0  0  0  0  0  0  0  0  0  0  0
   -4.4840   -1.4079    1.8075 C   0  0  0  0  0  0  0  0  0  0  0  0
   -5.5002   -2.0335    2.7134 C   0  0  0  0  0  0  0  0  0  0  0  0
   -3.2338   -1.1488    2.3156 N   0  0  0  0  0  0  0  0  0  0  0  0
   -2.2204   -0.5951    1.5820 C   0  0  0  0  0  0  0  0  0  0  0  0
   -1.0706   -0.3938    2.1505 N   0  0  0  0  0  0  0  0  0  0  0  0
   -0.0613    0.1395    1.3900 C   0  0  0  0  0  0  0  0  0  0  0  0
    0.5920   -0.7368    0.7088 N   0  0  0  0  0  0  0  0  0  0  0  0
    1.9614   -0.3519   -0.0560 S   0  0  0  0  0  6  0  0  0  0  0  0
    2.8418    0.3817    0.8355 O   0  0  0  0  0  0  0  0  0  0  0  0
    1.6482    0.1429   -1.3842 O   0  0  0  0  0  0  0  0  0  0  0  0
    2.6365   -2.0028   -0.2407 C   0  0  0  0  0  0  0  0  0  0  0  0
    3.9583   -1.9455   -0.9630 C   0  0  0  0  0  0  0  0  0  0  0  0
    5.1549   -1.7893   -0.2487 C   0  0  0  0  0  0  0  0  0  0  0  0
    6.3779   -1.7361   -0.9189 C   0  0  0  0  0  0  0  0  0  0  0  0
    6.4181   -1.8362   -2.3080 C   0  0  0  0  0  0  0  0  0  0  0  0
    5.2353   -1.9853   -3.0291 C   0  0  0  0  0  0  0  0  0  0  0  0
    4.0109   -2.0386   -2.3614 C   0  0  0  0  0  0  0  0  0  0  0  0
    0.1892    1.4736    1.5899 N   0  0  0  0  0  0  0  0  0  0  0  0
   -0.1508    2.5151    0.6823 C   0  0  0  0  0  0  0  0  0  0  0  0
   -0.5123    2.2755   -0.6489 C   0  0  0  0  0  0  0  0  0  0  0  0
   -0.7794    3.3283   -1.5310 C   0  0  0  0  0  0  0  0  0  0  0  0
   -0.6783    4.6475   -1.1010 C   0  0  0  0  0  0  0  0  0  0  0  0
   -0.3069    4.9168    0.2131 C   0  0  0  0  0  0  0  0  0  0  0  0
   -0.0396    3.8610    1.0914 C   0  0  0  0  0  0  0  0  0  0  0  0
    0.4542    4.3043    2.8759 Br  0  0  0  0  0  0  0  0  0  0  0  0
   -2.4337   -0.2494    0.2711 N   0  0  0  0  0  0  0  0  0  0  0  0
   -3.7213    0.9754   -1.7737 H   0  0  0  0  0  0  0  0  0  0  0  0
   -4.8728   -0.3658   -1.9747 H   0  0  0  0  0  0  0  0  0  0  0  0
   -3.1430   -0.6259   -2.2968 H   0  0  0  0  0  0  0  0  0  0  0  0
   -5.6985   -1.2606    0.0427 H   0  0  0  0  0  0  0  0  0  0  0  0
   -5.1424   -3.0033    3.0747 H   0  0  0  0  0  0  0  0  0  0  0  0
   -6.4564   -2.1972    2.2052 H   0  0  0  0  0  0  0  0  0  0  0  0
   -5.6866   -1.3888    3.5787 H   0  0  0  0  0  0  0  0  0  0  0  0
   -3.0175   -1.4034    3.2692 H   0  0  0  0  0  0  0  0  0  0  0  0
    1.9129   -2.6065   -0.7984 H   0  0  0  0  0  0  0  0  0  0  0  0
    2.7557   -2.4361    0.7577 H   0  0  0  0  0  0  0  0  0  0  0  0
    5.1422   -1.6937    0.8357 H   0  0  0  0  0  0  0  0  0  0  0  0
    7.2989   -1.6075   -0.3564 H   0  0  0  0  0  0  0  0  0  0  0  0
    7.3704   -1.7883   -2.8292 H   0  0  0  0  0  0  0  0  0  0  0  0
    5.2647   -2.0514   -4.1135 H   0  0  0  0  0  0  0  0  0  0  0  0
    3.0962   -2.1400   -2.9426 H   0  0  0  0  0  0  0  0  0  0  0  0
   -0.1352    1.7591    2.5093 H   0  0  0  0  0  0  0  0  0  0  0  0
   -0.5998    1.2614   -1.0304 H   0  0  0  0  0  0  0  0  0  0  0  0
   -1.0542    3.1078   -2.5596 H   0  0  0  0  0  0  0  0  0  0  0  0
   -0.8787    5.4627   -1.7910 H   0  0  0  0  0  0  0  0  0  0  0  0
   -0.2202    5.9486    0.5429 H   0  0  0  0  0  0  0  0  0  0  0  0
  1  2  1  0
  2  3  1  0
  3  4  2  0
  4  5  1  0
  4  6  1  0
  6  7  1  0
  7  8  2  3
  8  9  1  0
  9 10  2  3
 10 11  1  0
 11 12  2  0
 11 13  2  0
 11 14  1  0
 14 15  1  0
 15 16  2  0
 16 17  1  0
 17 18  2  0
 18 19  1  0
 19 20  2  0
  9 21  1  0
 21 22  1  0
 22 23  2  0
 23 24  1  0
 24 25  2  0
 25 26  1  0
 26 27  2  0
 27 28  1  0
  7 29  1  0
 29  2  2  0
 20 15  1  0
 27 22  1  0
  1 30  1  0
  1 31  1  0
  1 32  1  0
  3 33  1  0
  5 34  1  0
  5 35  1  0
  5 36  1  0
  6 37  1  0
 14 38  1  0
 14 39  1  0
 16 40  1  0
 17 41  1  0
 18 42  1  0
 19 43  1  0
 20 44  1  0
 21 45  1  0
 23 46  1  0
 24 47  1  0
 25 48  1  0
 26 49  1  0
M  END
$$$$
