
     RDKit          3D

 45 47  0  0  0  0  0  0  0  0999 V2000
   -5.9356   -0.8588   -0.7819 C   0  0  0  0  0  0  0  0  0  0  0  0
   -5.2664    0.3765   -1.3698 C   0  0  0  0  0  0  0  0  0  0  0  0
   -4.1711    0.8579   -0.5173 N   0  0  0  0  0  0  0  0  0  0  0  0
   -4.3957    2.1286    0.1845 C   0  0  0  0  0  0  0  0  0  0  0  0
   -5.0997    1.9084    1.5147 C   0  0  0  0  0  0  0  0  0  0  0  0
   -2.9563    0.1855   -0.4216 C   0  0  0  0  0  0  0  0  0  0  0  0
   -2.0233    0.4624    0.5920 C   0  0  0  0  0  0  0  0  0  0  0  0
   -0.7951   -0.2111    0.6961 C   0  0  0  0  0  0  0  0  0  0  0  0
   -0.4417   -1.1878   -0.2296 C   0  0  0  0  0  0  0  0  0  0  0  0
    0.8048   -1.9528   -0.1373 C   0  0  0  0  0  0  0  0  0  0  0  0
    2.0495   -1.4711   -0.0205 C   0  0  0  0  0  0  0  0  0  0  0  0
    3.2181   -2.3929    0.0435 C   0  0  0  0  0  0  0  0  0  0  0  0
    3.2239   -3.6056    0.0189 O   0  0  0  0  0  0  0  0  0  0  0  0
    4.3967   -1.5258    0.1433 C   0  0  0  0  0  0  0  0  0  0  0  0
    5.7249   -1.9013    0.2301 C   0  0  0  0  0  0  0  0  0  0  0  0
    6.6800   -0.8816    0.3160 C   0  0  0  0  0  0  0  0  0  0  0  0
    6.2959    0.4812    0.3135 C   0  0  0  0  0  0  0  0  0  0  0  0
    7.3664    1.5043    0.4074 C   0  0  0  0  0  0  0  0  0  0  0  0
    8.5589    1.2784    0.4855 O   0  0  0  0  0  0  0  0  0  0  0  0
    6.8849    2.7579    0.3991 O   0  0  0  0  0  0  0  0  0  0  0  0
    4.9418    0.8373    0.2242 C   0  0  0  0  0  0  0  0  0  0  0  0
    4.0141   -0.1874    0.1403 C   0  0  0  0  0  0  0  0  0  0  0  0
    2.5535   -0.0712    0.0396 C   0  0  0  0  0  0  0  0  0  0  0  0
    1.9427    0.9748    0.0182 O   0  0  0  0  0  0  0  0  0  0  0  0
   -1.3546   -1.4987   -1.2356 C   0  0  0  0  0  0  0  0  0  0  0  0
   -2.5810   -0.8208   -1.3267 C   0  0  0  0  0  0  0  0  0  0  0  0
   -6.3199   -0.6598    0.2234 H   0  0  0  0  0  0  0  0  0  0  0  0
   -6.7772   -1.1653   -1.4111 H   0  0  0  0  0  0  0  0  0  0  0  0
   -5.2458   -1.7048   -0.7114 H   0  0  0  0  0  0  0  0  0  0  0  0
   -4.9212    0.1869   -2.3920 H   0  0  0  0  0  0  0  0  0  0  0  0
   -6.0348    1.1533   -1.4706 H   0  0  0  0  0  0  0  0  0  0  0  0
   -3.4625    2.6848    0.3310 H   0  0  0  0  0  0  0  0  0  0  0  0
   -5.0142    2.7899   -0.4355 H   0  0  0  0  0  0  0  0  0  0  0  0
   -6.0954    1.4786    1.3665 H   0  0  0  0  0  0  0  0  0  0  0  0
   -5.2216    2.8613    2.0392 H   0  0  0  0  0  0  0  0  0  0  0  0
   -4.5371    1.2310    2.1642 H   0  0  0  0  0  0  0  0  0  0  0  0
   -2.2323    1.2067    1.3541 H   0  0  0  0  0  0  0  0  0  0  0  0
   -0.1283    0.0500    1.5139 H   0  0  0  0  0  0  0  0  0  0  0  0
    0.6657   -3.0327   -0.1958 H   0  0  0  0  0  0  0  0  0  0  0  0
    6.0143   -2.9484    0.2313 H   0  0  0  0  0  0  0  0  0  0  0  0
    7.7356   -1.1458    0.3856 H   0  0  0  0  0  0  0  0  0  0  0  0
    7.6822    3.3253    0.4642 H   0  0  0  0  0  0  0  0  0  0  0  0
    4.6170    1.8741    0.2192 H   0  0  0  0  0  0  0  0  0  0  0  0
   -1.1276   -2.2673   -1.9709 H   0  0  0  0  0  0  0  0  0  0  0  0
   -3.2325   -1.1040   -2.1471 H   0  0  0  0  0  0  0  0  0  0  0  0
  1  2  1  0
  2  3  1  0
  3  4  1  0
  4  5  1  0
  3  6  1  0
  6  7  2  0
  7  8  1  0
  8  9  2  0
  9 10  1  0
 10 11  2  3
 11 12  1  0
 12 13  2  0
 12 14  1  0
 14 15  2  0
 15 16  1  0
 16 17  2  0
 17 18  1  0
 18 19  2  0
 18 20  1  0
 17 21  1  0
 21 22  2  0
 22 23  1  0
 23 24  2  0
  9 25  1  0
 25 26  2  0
 26  6  1  0
 23 11  1  0
 22 14  1  0
  1 27  1  0
  1 28  1  0
  1 29  1  0
  2 30  1  0
  2 31  1  0
  4 32  1  0
  4 33  1  0
  5 34  1  0
  5 35  1  0
  5 36  1  0
  7 37  1  0
  8 38  1  0
 10 39  1  0
 15 40  1  0
 16 41  1  0
 20 42  1  0
 21 43  1  0
 25 44  1  0
 26 45  1  0
M  END
$$$$
