
     RDKit          3D

 48 50  0  0  0  0  0  0  0  0999 V2000
    7.7547   -0.6087    2.2940 C   0  0  0  0  0  0  0  0  0  0  0  0
    7.6982    0.1495    0.9769 C   0  0  0  0  0  0  0  0  0  0  0  0
    6.5558   -0.2970    0.0661 C   0  0  0  0  0  0  0  0  0  0  0  0
    5.1682   -0.0065    0.6351 C   0  0  0  0  0  0  0  0  0  0  0  0
    4.2069   -0.3820   -0.3526 O   0  0  0  0  0  0  0  0  0  0  0  0
    2.8904   -0.1723   -0.0520 C   0  0  0  0  0  0  0  0  0  0  0  0
    1.9958   -0.5223   -1.0621 C   0  0  0  0  0  0  0  0  0  0  0  0
    0.6162   -0.3595   -0.8874 C   0  0  0  0  0  0  0  0  0  0  0  0
    0.0972    0.1734    0.2951 C   0  0  0  0  0  0  0  0  0  0  0  0
   -1.2826    0.3138    0.5465 N   0  0  0  0  0  0  0  0  0  0  0  0
   -2.2993    0.4075   -0.3675 C   0  0  0  0  0  0  0  0  0  0  0  0
   -2.1858    0.4871   -1.6490 N   0  0  0  0  0  0  0  0  0  0  0  0
   -3.3147    0.6607   -2.3825 C   0  0  0  0  0  0  0  0  0  0  0  0
   -3.1366    1.0005   -3.6826 N   0  0  0  0  0  0  0  0  0  0  0  0
   -4.5161    0.4955   -1.9517 N   0  0  0  0  0  0  0  0  0  0  0  0
   -4.6423    0.1064   -0.5598 C   0  0  0  0  0  0  0  0  0  0  0  0
   -5.8965    0.7981    0.0206 C   0  0  0  0  0  0  0  0  0  0  0  0
   -6.7737   -0.3212    0.5706 C   0  0  0  0  0  0  0  0  0  0  0  0
   -6.4630   -1.4965   -0.3360 C   0  0  0  0  0  0  0  0  0  0  0  0
   -4.9523   -1.4078   -0.5006 C   0  0  0  0  0  0  0  0  0  0  0  0
   -3.5029    0.4177    0.2638 N   0  0  0  0  0  0  0  0  0  0  0  0
    1.0073    0.4958    1.3149 C   0  0  0  0  0  0  0  0  0  0  0  0
    2.3896    0.3348    1.1434 C   0  0  0  0  0  0  0  0  0  0  0  0
    8.6443   -0.3131    2.8595 H   0  0  0  0  0  0  0  0  0  0  0  0
    6.8811   -0.3959    2.9171 H   0  0  0  0  0  0  0  0  0  0  0  0
    7.8048   -1.6888    2.1240 H   0  0  0  0  0  0  0  0  0  0  0  0
    8.6457   -0.0024    0.4463 H   0  0  0  0  0  0  0  0  0  0  0  0
    7.6166    1.2239    1.1781 H   0  0  0  0  0  0  0  0  0  0  0  0
    6.6544    0.2095   -0.9026 H   0  0  0  0  0  0  0  0  0  0  0  0
    6.6436   -1.3686   -0.1535 H   0  0  0  0  0  0  0  0  0  0  0  0
    5.0816    1.0640    0.8563 H   0  0  0  0  0  0  0  0  0  0  0  0
    5.0078   -0.5946    1.5454 H   0  0  0  0  0  0  0  0  0  0  0  0
    2.3707   -0.9316   -1.9970 H   0  0  0  0  0  0  0  0  0  0  0  0
   -0.0414   -0.6681   -1.6947 H   0  0  0  0  0  0  0  0  0  0  0  0
   -1.4779    0.8103    1.4044 H   0  0  0  0  0  0  0  0  0  0  0  0
   -2.2339    0.7091   -4.0306 H   0  0  0  0  0  0  0  0  0  0  0  0
   -3.9228    0.7343   -4.2578 H   0  0  0  0  0  0  0  0  0  0  0  0
   -6.4499    1.3324   -0.7627 H   0  0  0  0  0  0  0  0  0  0  0  0
   -5.6654    1.5294    0.8035 H   0  0  0  0  0  0  0  0  0  0  0  0
   -7.8351   -0.0572    0.5634 H   0  0  0  0  0  0  0  0  0  0  0  0
   -6.4858   -0.5517    1.6032 H   0  0  0  0  0  0  0  0  0  0  0  0
   -6.9603   -1.3751   -1.3055 H   0  0  0  0  0  0  0  0  0  0  0  0
   -6.7779   -2.4508    0.0955 H   0  0  0  0  0  0  0  0  0  0  0  0
   -4.4728   -1.8809    0.3662 H   0  0  0  0  0  0  0  0  0  0  0  0
   -4.6177   -1.9514   -1.3910 H   0  0  0  0  0  0  0  0  0  0  0  0
   -3.5144   -0.0506    1.1596 H   0  0  0  0  0  0  0  0  0  0  0  0
    0.6496    0.8867    2.2644 H   0  0  0  0  0  0  0  0  0  0  0  0
    3.0405    0.6117    1.9654 H   0  0  0  0  0  0  0  0  0  0  0  0
  1  2  1  0
  2  3  1  0
  3  4  1  0
  4  5  1  0
  5  6  1  0
  6  7  2  0
  7  8  1  0
  8  9  2  0
  9 10  1  0
 10 11  1  0
 11 12  2  0
 12 13  1  0
 13 14  1  0
 13 15  2  0
 15 16  1  0
 16 17  1  0
 17 18  1  0
 18 19  1  0
 19 20  1  0
 16 21  1  0
  9 22  1  0
 22 23  2  0
 23  6  1  0
 21 11  1  0
 20 16  1  0
  1 24  1  0
  1 25  1  0
  1 26  1  0
  2 27  1  0
  2 28  1  0
  3 29  1  0
  3 30  1  0
  4 31  1  0
  4 32  1  0
  7 33  1  0
  8 34  1  0
 10 35  1  0
 14 36  1  0
 14 37  1  0
 17 38  1  0
 17 39  1  0
 18 40  1  0
 18 41  1  0
 19 42  1  0
 19 43  1  0
 20 44  1  0
 20 45  1  0
 21 46  1  0
 22 47  1  0
 23 48  1  0
M  END
$$$$
