
     RDKit          3D

 43 44  0  0  0  0  0  0  0  0999 V2000
   -1.8515    3.5690    1.2219 C   0  0  0  0  0  0  0  0  0  0  0  0
   -2.7350    2.5485    1.9148 C   0  0  0  0  0  0  0  0  0  0  0  0
   -2.8914    1.3864    1.0884 O   0  0  0  0  0  0  0  0  0  0  0  0
   -1.9191    0.4370    1.1996 C   0  0  0  0  0  0  0  0  0  0  0  0
   -0.9562    0.5333    1.9544 O   0  0  0  0  0  0  0  0  0  0  0  0
   -2.1221   -0.7185    0.3153 C   0  0  0  0  0  0  0  0  0  0  0  0
   -1.1194   -1.6616    0.1179 C   0  0  0  0  0  0  0  0  0  0  0  0
    0.1549   -1.6363    0.6703 N   0  0  0  0  0  0  0  0  0  0  0  0
    1.1808   -2.5458    0.4773 C   0  0  0  0  0  0  0  0  0  0  0  0
    1.1751   -3.5423   -0.2404 O   0  0  0  0  0  0  0  0  0  0  0  0
    2.4387   -2.1885    1.2762 C   0  0  0  0  0  0  0  0  0  0  0  0
    3.3784   -1.4360    0.5080 O   0  0  0  0  0  0  0  0  0  0  0  0
    3.0762   -0.1235    0.3730 C   0  0  0  0  0  0  0  0  0  0  0  0
    2.1107    0.4349    0.8696 O   0  0  0  0  0  0  0  0  0  0  0  0
    4.0866    0.5698   -0.4642 C   0  0  0  0  0  0  0  0  0  0  0  0
    3.9785    1.9535   -0.6136 C   0  0  0  0  0  0  0  0  0  0  0  0
    4.9191    2.5989   -1.3940 C   0  0  0  0  0  0  0  0  0  0  0  0
    5.9334    1.9647   -2.0191 N   0  0  0  0  0  0  0  0  0  0  0  0
    6.0123    0.6259   -1.8627 C   0  0  0  0  0  0  0  0  0  0  0  0
    5.1232   -0.1124   -1.1030 C   0  0  0  0  0  0  0  0  0  0  0  0
   -1.6024   -2.9143   -0.9104 S   0  0  0  0  0  0  0  0  0  0  0  0
   -3.1438   -2.2382   -1.1595 C   0  0  0  0  0  0  0  0  0  0  0  0
   -4.1099   -2.9367   -2.0616 C   0  0  0  0  0  0  0  0  0  0  0  0
   -3.3206   -1.0625   -0.4444 C   0  0  0  0  0  0  0  0  0  0  0  0
   -4.5909   -0.2663   -0.4539 C   0  0  0  0  0  0  0  0  0  0  0  0
   -1.7756    4.4836    1.8166 H   0  0  0  0  0  0  0  0  0  0  0  0
   -0.8440    3.1727    1.0605 H   0  0  0  0  0  0  0  0  0  0  0  0
   -2.2560    3.8208    0.2360 H   0  0  0  0  0  0  0  0  0  0  0  0
   -2.3463    2.2854    2.9051 H   0  0  0  0  0  0  0  0  0  0  0  0
   -3.7344    2.9699    2.0646 H   0  0  0  0  0  0  0  0  0  0  0  0
    0.3698   -0.8017    1.2249 H   0  0  0  0  0  0  0  0  0  0  0  0
    2.1850   -1.6739    2.2112 H   0  0  0  0  0  0  0  0  0  0  0  0
    2.9248   -3.1261    1.5683 H   0  0  0  0  0  0  0  0  0  0  0  0
    3.1834    2.5161   -0.1351 H   0  0  0  0  0  0  0  0  0  0  0  0
    4.8825    3.6745   -1.5432 H   0  0  0  0  0  0  0  0  0  0  0  0
    6.8373    0.1471   -2.3834 H   0  0  0  0  0  0  0  0  0  0  0  0
    5.2439   -1.1871   -1.0242 H   0  0  0  0  0  0  0  0  0  0  0  0
   -4.9845   -3.2686   -1.4925 H   0  0  0  0  0  0  0  0  0  0  0  0
   -4.4483   -2.2581   -2.8517 H   0  0  0  0  0  0  0  0  0  0  0  0
   -3.6725   -3.8160   -2.5460 H   0  0  0  0  0  0  0  0  0  0  0  0
   -4.4275    0.7055   -0.9306 H   0  0  0  0  0  0  0  0  0  0  0  0
   -5.3890   -0.7725   -1.0053 H   0  0  0  0  0  0  0  0  0  0  0  0
   -4.9543   -0.1107    0.5669 H   0  0  0  0  0  0  0  0  0  0  0  0
  1  2  1  0
  2  3  1  0
  3  4  1  0
  4  5  2  0
  4  6  1  0
  6  7  2  0
  7  8  1  0
  8  9  1  0
  9 10  2  0
  9 11  1  0
 11 12  1  0
 12 13  1  0
 13 14  2  0
 13 15  1  0
 15 16  2  0
 16 17  1  0
 17 18  2  0
 18 19  1  0
 19 20  2  0
  7 21  1  0
 21 22  1  0
 22 23  1  0
 22 24  2  0
 24 25  1  0
 24  6  1  0
 20 15  1  0
  1 26  1  0
  1 27  1  0
  1 28  1  0
  2 29  1  0
  2 30  1  0
  8 31  1  0
 11 32  1  0
 11 33  1  0
 16 34  1  0
 17 35  1  0
 19 36  1  0
 20 37  1  0
 23 38  1  0
 23 39  1  0
 23 40  1  0
 25 41  1  0
 25 42  1  0
 25 43  1  0
M  END
$$$$
