
     RDKit          3D

 37 39  0  0  0  0  0  0  0  0999 V2000
    0.1859    0.3057   -1.2286 O   0  0  0  0  0  0  0  0  0  0  0  0
    0.6500    0.2133   -0.0982 C   0  0  0  0  0  0  0  0  0  0  0  0
    2.1153    0.2729    0.1718 C   0  0  0  0  0  0  0  0  0  0  0  0
    3.0093    0.3332   -0.8254 C   0  0  0  0  0  0  0  0  0  0  0  0
    4.4668    0.3898   -0.6729 C   0  0  0  0  0  0  0  0  0  0  0  0
    5.2453   -0.6838   -1.1222 C   0  0  0  0  0  0  0  0  0  0  0  0
    6.6360   -0.6479   -0.9979 C   0  0  0  0  0  0  0  0  0  0  0  0
    7.2576    0.4635   -0.4297 C   0  0  0  0  0  0  0  0  0  0  0  0
    6.4841    1.5366    0.0088 C   0  0  0  0  0  0  0  0  0  0  0  0
    7.3262    3.0472    0.7731 Br  0  0  0  0  0  0  0  0  0  0  0  0
    5.0945    1.5085   -0.1127 C   0  0  0  0  0  0  0  0  0  0  0  0
    2.4244    0.2413    1.8616 S   0  0  0  0  0  0  0  0  0  0  0  0
    0.7168    0.1524    2.2703 C   0  0  0  0  0  0  0  0  0  0  0  0
    0.1705    0.1347    3.8498 S   0  0  0  0  0  0  0  0  0  0  0  0
   -0.0398    0.0841    1.1080 N   0  0  0  0  0  0  0  0  0  0  0  0
   -1.4250    0.0732    1.2152 N   0  0  0  0  0  0  0  0  0  0  0  0
   -2.1334   -0.3741    0.2277 C   0  0  0  0  0  0  0  0  0  0  0  0
   -3.6129   -0.3531    0.2821 C   0  0  0  0  0  0  0  0  0  0  0  0
   -4.3104   -0.8239   -0.8370 C   0  0  0  0  0  0  0  0  0  0  0  0
   -5.7138   -0.8175   -0.8256 C   0  0  0  0  0  0  0  0  0  0  0  0
   -6.4503   -1.3127   -1.9960 N   0  0  0  0  0  4  0  0  0  0  0  0
   -7.6866   -1.2457   -1.9712 O   0  0  0  0  0  0  0  0  0  0  0  0
   -5.7874   -1.7700   -2.9376 O   0  0  0  0  0  1  0  0  0  0  0  0
   -6.4201   -0.3460    0.2888 C   0  0  0  0  0  0  0  0  0  0  0  0
   -5.7155    0.1212    1.3994 C   0  0  0  0  0  0  0  0  0  0  0  0
   -4.3207    0.1171    1.3964 C   0  0  0  0  0  0  0  0  0  0  0  0
   -3.7198    0.5893    2.5290 O   0  0  0  0  0  0  0  0  0  0  0  0
    2.6672    0.3249   -1.8599 H   0  0  0  0  0  0  0  0  0  0  0  0
    4.7766   -1.5587   -1.5680 H   0  0  0  0  0  0  0  0  0  0  0  0
    7.2346   -1.4870   -1.3443 H   0  0  0  0  0  0  0  0  0  0  0  0
    8.3402    0.4843   -0.3354 H   0  0  0  0  0  0  0  0  0  0  0  0
    4.5046    2.3563    0.2268 H   0  0  0  0  0  0  0  0  0  0  0  0
   -1.6962   -0.8202   -0.6808 H   0  0  0  0  0  0  0  0  0  0  0  0
   -3.7665   -1.1863   -1.7073 H   0  0  0  0  0  0  0  0  0  0  0  0
   -7.5083   -0.3356    0.3103 H   0  0  0  0  0  0  0  0  0  0  0  0
   -6.2520    0.4893    2.2717 H   0  0  0  0  0  0  0  0  0  0  0  0
   -2.7471    0.5233    2.4208 H   0  0  0  0  0  0  0  0  0  0  0  0
  1  2  2  0
  2  3  1  0
  3  4  2  3
  4  5  1  0
  5  6  2  0
  6  7  1  0
  7  8  2  0
  8  9  1  0
  9 10  1  0
  9 11  2  0
  3 12  1  0
 12 13  1  0
 13 14  2  0
 13 15  1  0
 15 16  1  0
 16 17  2  3
 17 18  1  0
 18 19  2  0
 19 20  1  0
 20 21  1  0
 21 22  2  0
 21 23  1  0
 20 24  2  0
 24 25  1  0
 25 26  2  0
 26 27  1  0
 15  2  1  0
 26 18  1  0
 11  5  1  0
  4 28  1  0
  6 29  1  0
  7 30  1  0
  8 31  1  0
 11 32  1  0
 17 33  1  0
 19 34  1  0
 24 35  1  0
 25 36  1  0
 27 37  1  0
M  CHG  2  21   1  23  -1
M  END
$$$$
