
     RDKit          3D

 52 56  0  0  0  0  0  0  0  0999 V2000
   -0.0286    2.6261   -1.9831 O   0  0  0  0  0  0  0  0  0  0  0  0
    0.0590    1.7618   -1.1167 C   0  0  0  0  0  0  0  0  0  0  0  0
    1.3968    1.4656   -0.5679 C   0  0  0  0  0  0  0  0  0  0  0  0
    1.9836    0.2526   -0.9245 C   0  0  0  0  0  0  0  0  0  0  0  0
    3.2376   -0.0375   -0.4189 C   0  0  0  0  0  0  0  0  0  0  0  0
    3.9368   -1.3022   -0.6961 C   0  0  0  0  0  0  0  0  0  0  0  0
    4.3458   -2.1022    0.3915 C   0  0  0  0  0  0  0  0  0  0  0  0
    4.9995   -3.3221    0.1991 C   0  0  0  0  0  0  0  0  0  0  0  0
    5.2675   -3.7693   -1.0897 C   0  0  0  0  0  0  0  0  0  0  0  0
    4.8896   -2.9923   -2.1830 C   0  0  0  0  0  0  0  0  0  0  0  0
    4.2344   -1.7680   -1.9912 C   0  0  0  0  0  0  0  0  0  0  0  0
    3.8535   -0.8587   -3.4155 Cl  0  0  0  0  0  0  0  0  0  0  0  0
    3.8821    0.8085    0.4231 N   0  0  0  0  0  0  0  0  0  0  0  0
    3.3229    1.9883    0.7403 C   0  0  0  0  0  0  0  0  0  0  0  0
    4.0216    2.8459    1.5801 C   0  0  0  0  0  0  0  0  0  0  0  0
    3.5083    4.0883    1.9629 C   0  0  0  0  0  0  0  0  0  0  0  0
    2.2645    4.4848    1.4937 C   0  0  0  0  0  0  0  0  0  0  0  0
    1.5554    6.1601    2.0013 Br  0  0  0  0  0  0  0  0  0  0  0  0
    1.5388    3.6476    0.6513 C   0  0  0  0  0  0  0  0  0  0  0  0
    2.0606    2.3874    0.2654 C   0  0  0  0  0  0  0  0  0  0  0  0
   -1.0219    1.0427   -0.6264 N   0  0  0  0  0  0  0  0  0  0  0  0
   -2.3506    1.2952   -1.1862 C   0  0  0  0  0  0  0  0  0  0  0  0
   -3.2510    0.0451   -1.1939 C   0  0  0  0  0  0  0  0  0  0  0  0
   -3.2645   -0.6588    0.1034 N   0  0  0  0  0  0  0  0  0  0  0  0
   -4.4912   -1.1365    0.5650 C   0  0  0  0  0  0  0  0  0  0  0  0
   -5.3819   -1.7743   -0.3019 C   0  0  0  0  0  0  0  0  0  0  0  0
   -6.5989   -2.2616    0.1746 C   0  0  0  0  0  0  0  0  0  0  0  0
   -6.9070   -2.1131    1.5165 C   0  0  0  0  0  0  0  0  0  0  0  0
   -5.9752   -1.4887    2.3219 C   0  0  0  0  0  0  0  0  0  0  0  0
   -4.7904   -1.0114    1.8775 N   0  0  0  0  0  0  0  0  0  0  0  0
   -2.3555   -0.1484    1.1404 C   0  0  0  0  0  0  0  0  0  0  0  0
   -0.9697    0.1429    0.5367 C   0  0  0  0  0  0  0  0  0  0  0  0
    1.4642   -0.4407   -1.5782 H   0  0  0  0  0  0  0  0  0  0  0  0
    4.1528   -1.7648    1.4097 H   0  0  0  0  0  0  0  0  0  0  0  0
    5.3022   -3.9165    1.0578 H   0  0  0  0  0  0  0  0  0  0  0  0
    5.7797   -4.7157   -1.2441 H   0  0  0  0  0  0  0  0  0  0  0  0
    5.1173   -3.3408   -3.1877 H   0  0  0  0  0  0  0  0  0  0  0  0
    4.9993    2.5390    1.9465 H   0  0  0  0  0  0  0  0  0  0  0  0
    4.0898    4.7298    2.6197 H   0  0  0  0  0  0  0  0  0  0  0  0
    0.5684    3.9753    0.2822 H   0  0  0  0  0  0  0  0  0  0  0  0
   -2.2664    1.6927   -2.2035 H   0  0  0  0  0  0  0  0  0  0  0  0
   -2.8068    2.0795   -0.5693 H   0  0  0  0  0  0  0  0  0  0  0  0
   -2.8800   -0.6569   -1.9505 H   0  0  0  0  0  0  0  0  0  0  0  0
   -4.2549    0.3643   -1.5002 H   0  0  0  0  0  0  0  0  0  0  0  0
   -5.1287   -1.9180   -1.3466 H   0  0  0  0  0  0  0  0  0  0  0  0
   -7.2904   -2.7587   -0.4990 H   0  0  0  0  0  0  0  0  0  0  0  0
   -7.8410   -2.4798    1.9255 H   0  0  0  0  0  0  0  0  0  0  0  0
   -6.1570   -1.3501    3.3836 H   0  0  0  0  0  0  0  0  0  0  0  0
   -2.2243   -0.8863    1.9417 H   0  0  0  0  0  0  0  0  0  0  0  0
   -2.7628    0.7705    1.5822 H   0  0  0  0  0  0  0  0  0  0  0  0
   -0.3157    0.5739    1.3017 H   0  0  0  0  0  0  0  0  0  0  0  0
   -0.5175   -0.7942    0.1913 H   0  0  0  0  0  0  0  0  0  0  0  0
  1  2  2  0
  2  3  1  0
  3  4  2  0
  4  5  1  0
  5  6  1  0
  6  7  2  0
  7  8  1  0
  8  9  2  0
  9 10  1  0
 10 11  2  0
 11 12  1  0
  5 13  2  0
 13 14  1  0
 14 15  2  0
 15 16  1  0
 16 17  2  0
 17 18  1  0
 17 19  1  0
 19 20  2  0
  2 21  1  0
 21 22  1  0
 22 23  1  0
 23 24  1  0
 24 25  1  0
 25 26  2  0
 26 27  1  0
 27 28  2  0
 28 29  1  0
 29 30  2  0
 24 31  1  0
 31 32  1  0
 20  3  1  0
 32 21  1  0
 11  6  1  0
 20 14  1  0
 30 25  1  0
  4 33  1  0
  7 34  1  0
  8 35  1  0
  9 36  1  0
 10 37  1  0
 15 38  1  0
 16 39  1  0
 19 40  1  0
 22 41  1  0
 22 42  1  0
 23 43  1  0
 23 44  1  0
 26 45  1  0
 27 46  1  0
 28 47  1  0
 29 48  1  0
 31 49  1  0
 31 50  1  0
 32 51  1  0
 32 52  1  0
M  END
$$$$
