
     RDKit          3D

 47 48  0  0  0  0  0  0  0  0999 V2000
   -4.1356    3.0805   -1.5666 C   0  0  0  0  0  0  0  0  0  0  0  0
   -3.3740    1.6425   -2.3563 S   0  0  0  0  0  0  0  0  0  0  0  0
   -2.4279    1.0158   -0.9328 C   0  0  0  0  0  0  0  0  0  0  0  0
   -1.7108   -0.2793   -1.3095 C   0  0  0  0  0  0  0  0  0  0  0  0
   -0.8037   -0.7855   -0.1790 C   0  0  0  0  0  0  0  0  0  0  0  0
   -0.0803   -1.9826   -0.6754 N   0  0  0  0  0  0  0  0  0  0  0  0
    1.3826   -2.3627    0.0587 S   0  0  0  0  0  6  0  0  0  0  0  0
    1.3811   -1.8053    1.3932 O   0  0  0  0  0  0  0  0  0  0  0  0
    1.6278   -3.7645   -0.1905 O   0  0  0  0  0  0  0  0  0  0  0  0
    2.5229   -1.4400   -0.9396 C   0  0  0  0  0  0  0  0  0  0  0  0
    3.2412   -0.3794   -0.3839 C   0  0  0  0  0  0  0  0  0  0  0  0
    4.1328    0.3382   -1.1834 C   0  0  0  0  0  0  0  0  0  0  0  0
    4.3034    0.0048   -2.5346 C   0  0  0  0  0  0  0  0  0  0  0  0
    5.2897    0.7555   -3.3812 C   0  0  0  0  0  0  0  0  0  0  0  0
    3.5908   -1.0764   -3.0715 C   0  0  0  0  0  0  0  0  0  0  0  0
    2.6986   -1.7987   -2.2782 C   0  0  0  0  0  0  0  0  0  0  0  0
   -1.6517   -1.2424    1.0231 C   0  0  0  0  0  0  0  0  0  0  0  0
   -2.3050   -2.2888    0.9520 O   0  0  0  0  0  0  0  0  0  0  0  0
   -1.6949   -0.4372    2.1383 N   0  0  0  0  0  0  0  0  0  0  0  0
   -2.4946   -0.8148    3.2907 C   0  0  0  0  0  0  0  0  0  0  0  0
   -2.4230    0.3956    4.2074 C   0  0  0  0  0  0  0  0  0  0  0  0
   -1.0237    0.9326    3.9392 C   0  0  0  0  0  0  0  0  0  0  0  0
   -0.8438    0.7038    2.4435 C   0  0  0  0  0  0  0  0  0  0  0  0
   -4.7591    3.6041   -2.2961 H   0  0  0  0  0  0  0  0  0  0  0  0
   -3.3664    3.7694   -1.2082 H   0  0  0  0  0  0  0  0  0  0  0  0
   -4.7670    2.7662   -0.7315 H   0  0  0  0  0  0  0  0  0  0  0  0
   -3.1206    0.8457   -0.1032 H   0  0  0  0  0  0  0  0  0  0  0  0
   -1.7015    1.7789   -0.6359 H   0  0  0  0  0  0  0  0  0  0  0  0
   -2.4490   -1.0496   -1.5713 H   0  0  0  0  0  0  0  0  0  0  0  0
   -1.0944   -0.1171   -2.2043 H   0  0  0  0  0  0  0  0  0  0  0  0
   -0.0881   -0.0012    0.0765 H   0  0  0  0  0  0  0  0  0  0  0  0
   -0.6675   -2.8178   -0.7724 H   0  0  0  0  0  0  0  0  0  0  0  0
    3.1228   -0.1116    0.6631 H   0  0  0  0  0  0  0  0  0  0  0  0
    4.6995    1.1577   -0.7459 H   0  0  0  0  0  0  0  0  0  0  0  0
    4.9738    0.7685   -4.4297 H   0  0  0  0  0  0  0  0  0  0  0  0
    5.3716    1.7973   -3.0541 H   0  0  0  0  0  0  0  0  0  0  0  0
    6.2751    0.2844   -3.3137 H   0  0  0  0  0  0  0  0  0  0  0  0
    3.7296   -1.3636   -4.1120 H   0  0  0  0  0  0  0  0  0  0  0  0
    2.1492   -2.6361   -2.7027 H   0  0  0  0  0  0  0  0  0  0  0  0
   -2.0317   -1.6947    3.7519 H   0  0  0  0  0  0  0  0  0  0  0  0
   -3.5170   -1.0651    2.9921 H   0  0  0  0  0  0  0  0  0  0  0  0
   -3.1697    1.1409    3.9079 H   0  0  0  0  0  0  0  0  0  0  0  0
   -2.5908    0.1412    5.2573 H   0  0  0  0  0  0  0  0  0  0  0  0
   -0.2881    0.3416    4.4983 H   0  0  0  0  0  0  0  0  0  0  0  0
   -0.9047    1.9820    4.2220 H   0  0  0  0  0  0  0  0  0  0  0  0
   -1.2073    1.5579    1.8636 H   0  0  0  0  0  0  0  0  0  0  0  0
    0.1993    0.5092    2.1844 H   0  0  0  0  0  0  0  0  0  0  0  0
  1  2  1  0
  2  3  1  0
  3  4  1  0
  4  5  1  0
  5  6  1  0
  6  7  1  0
  7  8  2  0
  7  9  2  0
  7 10  1  0
 10 11  2  0
 11 12  1  0
 12 13  2  0
 13 14  1  0
 13 15  1  0
 15 16  2  0
  5 17  1  0
 17 18  2  0
 17 19  1  0
 19 20  1  0
 20 21  1  0
 21 22  1  0
 22 23  1  0
 16 10  1  0
 23 19  1  0
  1 24  1  0
  1 25  1  0
  1 26  1  0
  3 27  1  0
  3 28  1  0
  4 29  1  0
  4 30  1  0
  5 31  1  0
  6 32  1  0
 11 33  1  0
 12 34  1  0
 14 35  1  0
 14 36  1  0
 14 37  1  0
 15 38  1  0
 16 39  1  0
 20 40  1  0
 20 41  1  0
 21 42  1  0
 21 43  1  0
 22 44  1  0
 22 45  1  0
 23 46  1  0
 23 47  1  0
M  END
$$$$
