
     RDKit          3D

 42 44  0  0  0  0  0  0  0  0999 V2000
    5.8777    0.6024   -0.1876 C   0  0  0  0  0  0  0  0  0  0  0  0
    5.1091   -0.5634    0.4154 C   0  0  0  0  0  0  0  0  0  0  0  0
    3.6203   -0.3302    0.3822 C   0  0  0  0  0  0  0  0  0  0  0  0
    2.8640   -0.7292   -0.7255 C   0  0  0  0  0  0  0  0  0  0  0  0
    1.4871   -0.4988   -0.7649 C   0  0  0  0  0  0  0  0  0  0  0  0
    0.8372    0.1392    0.3035 C   0  0  0  0  0  0  0  0  0  0  0  0
   -0.6714    0.3882    0.2863 C   0  0  0  0  0  0  0  0  0  0  0  0
   -1.4429   -0.9531    0.2312 C   0  0  0  0  0  0  0  0  0  0  0  0
   -1.1116   -1.7806    1.4587 C   0  0  0  0  0  0  0  0  0  0  0  0
   -0.8280   -2.9694    1.4603 O   0  0  0  0  0  0  0  0  0  0  0  0
   -1.2315   -1.1216    2.6288 O   0  0  0  0  0  0  0  0  0  0  0  0
   -2.9325   -0.7342    0.0533 C   0  0  0  0  0  0  0  0  0  0  0  0
   -3.8712   -1.7182    0.4158 C   0  0  0  0  0  0  0  0  0  0  0  0
   -5.2379   -1.5106    0.2201 C   0  0  0  0  0  0  0  0  0  0  0  0
   -5.6878   -0.3289   -0.3586 C   0  0  0  0  0  0  0  0  0  0  0  0
   -4.7681    0.6403   -0.7548 C   0  0  0  0  0  0  0  0  0  0  0  0
   -3.3922    0.4403   -0.5602 C   0  0  0  0  0  0  0  0  0  0  0  0
   -2.4493    1.4832   -1.0549 C   0  0  0  0  0  0  0  0  0  0  0  0
   -2.8993    2.4413   -1.6787 O   0  0  0  0  0  0  0  0  0  0  0  0
   -1.0853    1.3144   -0.7897 N   0  0  0  0  0  0  0  0  0  0  0  0
   -0.2317    2.4597   -1.0939 C   0  0  0  0  0  0  0  0  0  0  0  0
    1.6015    0.5477    1.4069 C   0  0  0  0  0  0  0  0  0  0  0  0
    2.9785    0.3165    1.4445 C   0  0  0  0  0  0  0  0  0  0  0  0
    6.9538    0.4059   -0.1502 H   0  0  0  0  0  0  0  0  0  0  0  0
    5.6831    1.5316    0.3586 H   0  0  0  0  0  0  0  0  0  0  0  0
    5.5984    0.7635   -1.2344 H   0  0  0  0  0  0  0  0  0  0  0  0
    5.4340   -0.7260    1.4503 H   0  0  0  0  0  0  0  0  0  0  0  0
    5.3501   -1.4863   -0.1262 H   0  0  0  0  0  0  0  0  0  0  0  0
    3.3443   -1.2198   -1.5695 H   0  0  0  0  0  0  0  0  0  0  0  0
    0.9286   -0.8073   -1.6466 H   0  0  0  0  0  0  0  0  0  0  0  0
   -0.9446    0.9184    1.2107 H   0  0  0  0  0  0  0  0  0  0  0  0
   -1.1141   -1.5316   -0.6431 H   0  0  0  0  0  0  0  0  0  0  0  0
   -1.0243   -1.8014    3.3058 H   0  0  0  0  0  0  0  0  0  0  0  0
   -3.5538   -2.6654    0.8497 H   0  0  0  0  0  0  0  0  0  0  0  0
   -5.9512   -2.2777    0.5126 H   0  0  0  0  0  0  0  0  0  0  0  0
   -6.7509   -0.1664   -0.5169 H   0  0  0  0  0  0  0  0  0  0  0  0
   -5.1271    1.5524   -1.2287 H   0  0  0  0  0  0  0  0  0  0  0  0
   -0.6439    3.0583   -1.9117 H   0  0  0  0  0  0  0  0  0  0  0  0
   -0.1589    3.0909   -0.2030 H   0  0  0  0  0  0  0  0  0  0  0  0
    0.7617    2.1290   -1.4029 H   0  0  0  0  0  0  0  0  0  0  0  0
    1.1308    1.0507    2.2495 H   0  0  0  0  0  0  0  0  0  0  0  0
    3.5495    0.6462    2.3098 H   0  0  0  0  0  0  0  0  0  0  0  0
  1  2  1  0
  2  3  1  0
  3  4  2  0
  4  5  1  0
  5  6  2  0
  6  7  1  0
  7  8  1  0
  8  9  1  0
  9 10  2  0
  9 11  1  0
  8 12  1  0
 12 13  2  0
 13 14  1  0
 14 15  2  0
 15 16  1  0
 16 17  2  0
 17 18  1  0
 18 19  2  0
 18 20  1  0
 20 21  1  0
  6 22  1  0
 22 23  2  0
 23  3  1  0
 20  7  1  0
 17 12  1  0
  1 24  1  0
  1 25  1  0
  1 26  1  0
  2 27  1  0
  2 28  1  0
  4 29  1  0
  5 30  1  0
  7 31  1  0
  8 32  1  0
 11 33  1  0
 13 34  1  0
 14 35  1  0
 15 36  1  0
 16 37  1  0
 21 38  1  0
 21 39  1  0
 21 40  1  0
 22 41  1  0
 23 42  1  0
M  END
$$$$
