
     RDKit          3D

 45 47  0  0  0  0  0  0  0  0999 V2000
    5.5712   -2.3877   -1.8533 C   0  0  0  0  0  0  0  0  0  0  0  0
    5.5177   -0.9106   -1.5446 C   0  0  0  0  0  0  0  0  0  0  0  0
    6.4342   -0.3650   -0.8055 N   0  0  0  0  0  0  0  0  0  0  0  0
    4.4237   -0.0444   -2.1343 C   0  0  0  0  0  0  0  0  0  0  0  0
    4.5079   -0.0729   -3.5951 C   0  0  0  0  0  0  0  0  0  0  0  0
    4.5232   -0.0937   -4.7551 N   0  0  0  0  0  0  0  0  0  0  0  0
    3.0282   -0.4350   -1.7001 C   0  0  0  0  0  0  0  0  0  0  0  0
    2.8093   -1.4207   -0.9913 O   0  0  0  0  0  0  0  0  0  0  0  0
    1.8862    0.4626   -2.1903 C   0  0  0  0  0  0  0  0  0  0  0  0
    0.7017    0.3322   -1.4055 O   0  0  0  0  0  0  0  0  0  0  0  0
    0.8144    0.8751   -0.1645 C   0  0  0  0  0  0  0  0  0  0  0  0
    1.7835    1.4886    0.2485 O   0  0  0  0  0  0  0  0  0  0  0  0
   -0.4168    0.5913    0.6092 C   0  0  0  0  0  0  0  0  0  0  0  0
   -1.6464    0.7404   -0.0408 C   0  0  0  0  0  0  0  0  0  0  0  0
   -2.8106    0.5084    0.6703 C   0  0  0  0  0  0  0  0  0  0  0  0
   -4.1568    0.6374    0.0761 C   0  0  0  0  0  0  0  0  0  0  0  0
   -4.4130    0.3162   -1.2709 C   0  0  0  0  0  0  0  0  0  0  0  0
   -5.6921    0.4501   -1.8218 C   0  0  0  0  0  0  0  0  0  0  0  0
   -6.7459    0.9068   -1.0349 C   0  0  0  0  0  0  0  0  0  0  0  0
   -6.5169    1.2193    0.3014 C   0  0  0  0  0  0  0  0  0  0  0  0
   -7.9458    1.8332    1.3776 Br  0  0  0  0  0  0  0  0  0  0  0  0
   -5.2418    1.0839    0.8538 C   0  0  0  0  0  0  0  0  0  0  0  0
   -2.7774    0.1615    1.9778 N   0  0  0  0  0  0  0  0  0  0  0  0
   -1.5988    0.0141    2.6060 C   0  0  0  0  0  0  0  0  0  0  0  0
   -1.6177   -0.3550    3.9444 C   0  0  0  0  0  0  0  0  0  0  0  0
   -0.4450   -0.5418    4.6783 C   0  0  0  0  0  0  0  0  0  0  0  0
    0.7835   -0.3595    4.0628 C   0  0  0  0  0  0  0  0  0  0  0  0
    0.8291    0.0126    2.7200 C   0  0  0  0  0  0  0  0  0  0  0  0
   -0.3594    0.2138    1.9699 C   0  0  0  0  0  0  0  0  0  0  0  0
    4.6648   -2.7234   -2.3615 H   0  0  0  0  0  0  0  0  0  0  0  0
    5.6861   -2.9510   -0.9232 H   0  0  0  0  0  0  0  0  0  0  0  0
    6.4307   -2.5867   -2.4997 H   0  0  0  0  0  0  0  0  0  0  0  0
    7.1132   -1.0679   -0.4838 H   0  0  0  0  0  0  0  0  0  0  0  0
    4.5878    0.9811   -1.7786 H   0  0  0  0  0  0  0  0  0  0  0  0
    2.2075    1.5109   -2.2173 H   0  0  0  0  0  0  0  0  0  0  0  0
    1.6347    0.1612   -3.2121 H   0  0  0  0  0  0  0  0  0  0  0  0
   -1.6856    1.0581   -1.0771 H   0  0  0  0  0  0  0  0  0  0  0  0
   -3.6196   -0.0665   -1.9095 H   0  0  0  0  0  0  0  0  0  0  0  0
   -5.8653    0.1903   -2.8635 H   0  0  0  0  0  0  0  0  0  0  0  0
   -7.7375    1.0083   -1.4678 H   0  0  0  0  0  0  0  0  0  0  0  0
   -5.0836    1.3267    1.9028 H   0  0  0  0  0  0  0  0  0  0  0  0
   -2.5785   -0.5068    4.4320 H   0  0  0  0  0  0  0  0  0  0  0  0
   -0.4980   -0.8313    5.7243 H   0  0  0  0  0  0  0  0  0  0  0  0
    1.7055   -0.5055    4.6210 H   0  0  0  0  0  0  0  0  0  0  0  0
    1.8088    0.1415    2.2638 H   0  0  0  0  0  0  0  0  0  0  0  0
  1  2  1  0
  2  3  2  3
  2  4  1  0
  4  5  1  0
  5  6  3  0
  4  7  1  0
  7  8  2  0
  7  9  1  0
  9 10  1  0
 10 11  1  0
 11 12  2  0
 11 13  1  0
 13 14  2  0
 14 15  1  0
 15 16  1  0
 16 17  2  0
 17 18  1  0
 18 19  2  0
 19 20  1  0
 20 21  1  0
 20 22  2  0
 15 23  2  0
 23 24  1  0
 24 25  2  0
 25 26  1  0
 26 27  2  0
 27 28  1  0
 28 29  2  0
 29 13  1  0
 22 16  1  0
 29 24  1  0
  1 30  1  0
  1 31  1  0
  1 32  1  0
  3 33  1  0
  4 34  1  0
  9 35  1  0
  9 36  1  0
 14 37  1  0
 17 38  1  0
 18 39  1  0
 19 40  1  0
 22 41  1  0
 25 42  1  0
 26 43  1  0
 27 44  1  0
 28 45  1  0
M  END
$$$$
