
     RDKit          3D

 79 86  0  0  0  0  0  0  0  0999 V2000
    2.5869   -6.9655    2.5485 C   0  0  0  0  0  0  0  0  0  0  0  0
    1.5548   -6.0724    2.1547 O   0  0  0  0  0  0  0  0  0  0  0  0
    1.9136   -4.9941    1.3901 C   0  0  0  0  0  0  0  0  0  0  0  0
    3.2271   -4.6528    1.0466 C   0  0  0  0  0  0  0  0  0  0  0  0
    3.4941   -3.5154    0.2697 C   0  0  0  0  0  0  0  0  0  0  0  0
    2.4530   -2.7010   -0.1818 C   0  0  0  0  0  0  0  0  0  0  0  0
    1.1446   -3.0562    0.1401 C   0  0  0  0  0  0  0  0  0  0  0  0
    0.8690   -4.1747    0.9442 C   0  0  0  0  0  0  0  0  0  0  0  0
   -0.4321   -4.5052    1.3067 O   0  0  0  0  0  0  0  0  0  0  0  0
   -1.2614   -3.4194    1.4810 C   0  0  0  0  0  0  0  0  0  0  0  0
   -1.0544   -2.5572    2.5573 C   0  0  0  0  0  0  0  0  0  0  0  0
   -1.7165   -1.3359    2.5831 C   0  0  0  0  0  0  0  0  0  0  0  0
   -2.5895   -0.9834    1.5421 C   0  0  0  0  0  0  0  0  0  0  0  0
   -2.8586   -1.9028    0.5188 C   0  0  0  0  0  0  0  0  0  0  0  0
   -2.2060   -3.1333    0.4962 C   0  0  0  0  0  0  0  0  0  0  0  0
   -3.2174    0.3880    1.5293 C   0  0  0  0  0  0  0  0  0  0  0  0
   -2.2087    1.5325    1.1858 C   0  0  0  0  0  0  0  0  0  0  0  0
   -2.3728    2.0084   -0.2570 C   0  0  0  0  0  0  0  0  0  0  0  0
   -3.4867    2.8427   -0.5292 C   0  0  0  0  0  0  0  0  0  0  0  0
   -3.7295    3.3213   -1.8244 C   0  0  0  0  0  0  0  0  0  0  0  0
   -2.8196    3.0645   -2.8458 C   0  0  0  0  0  0  0  0  0  0  0  0
   -2.9352    3.5220   -4.1333 O   0  0  0  0  0  0  0  0  0  0  0  0
   -4.1310    4.2056   -4.4804 C   0  0  0  0  0  0  0  0  0  0  0  0
   -1.6650    2.3227   -2.5510 C   0  0  0  0  0  0  0  0  0  0  0  0
   -1.4478    1.7600   -1.2834 C   0  0  0  0  0  0  0  0  0  0  0  0
   -0.3117    1.0062   -1.0397 O   0  0  0  0  0  0  0  0  0  0  0  0
    0.7477    1.2473   -1.8942 C   0  0  0  0  0  0  0  0  0  0  0  0
    0.5387    1.9098   -3.1047 C   0  0  0  0  0  0  0  0  0  0  0  0
    1.6035    2.2839   -3.9221 C   0  0  0  0  0  0  0  0  0  0  0  0
    2.9078    2.0379   -3.5069 C   0  0  0  0  0  0  0  0  0  0  0  0
    3.1413    1.3512   -2.3093 C   0  0  0  0  0  0  0  0  0  0  0  0
    2.0543    0.8744   -1.5395 C   0  0  0  0  0  0  0  0  0  0  0  0
    2.3773   -0.0916   -0.4038 C   0  0  0  0  0  0  0  0  0  0  0  0
    2.6893   -1.4897   -1.0493 C   0  0  0  0  0  0  0  0  0  0  0  0
    3.4649    0.5134    0.3886 N   0  0  0  0  0  0  0  0  0  0  0  0
    3.6771   -0.1187    1.6814 C   0  0  0  0  0  0  0  0  0  0  0  0
    4.7120    0.6702   -0.3666 C   0  0  0  0  0  0  0  0  0  0  0  0
    4.5590    1.1108   -1.8439 C   0  0  0  0  0  0  0  0  0  0  0  0
   -0.7198    2.2197   -3.5451 O   0  0  0  0  0  0  0  0  0  0  0  0
   -4.4132    3.2269    0.6026 C   0  0  0  0  0  0  0  0  0  0  0  0
   -3.7169    3.3117    1.9807 C   0  0  0  0  0  0  0  0  0  0  0  0
   -2.3716    2.7295    2.0432 N   0  0  0  0  0  0  0  0  0  0  0  0
   -1.9018    2.5478    3.4083 C   0  0  0  0  0  0  0  0  0  0  0  0
    2.1252   -7.7851    3.1076 H   0  0  0  0  0  0  0  0  0  0  0  0
    3.3022   -6.4713    3.2140 H   0  0  0  0  0  0  0  0  0  0  0  0
    3.0899   -7.3995    1.6780 H   0  0  0  0  0  0  0  0  0  0  0  0
    4.0730   -5.2498    1.3712 H   0  0  0  0  0  0  0  0  0  0  0  0
    4.5255   -3.2764    0.0187 H   0  0  0  0  0  0  0  0  0  0  0  0
    0.3361   -2.4409   -0.2477 H   0  0  0  0  0  0  0  0  0  0  0  0
   -0.3293   -2.8060    3.3263 H   0  0  0  0  0  0  0  0  0  0  0  0
   -1.5162   -0.6424    3.3959 H   0  0  0  0  0  0  0  0  0  0  0  0
   -3.5456   -1.6504   -0.2858 H   0  0  0  0  0  0  0  0  0  0  0  0
   -2.3632   -3.8243   -0.3263 H   0  0  0  0  0  0  0  0  0  0  0  0
   -3.6524    0.5287    2.5269 H   0  0  0  0  0  0  0  0  0  0  0  0
   -4.0756    0.3857    0.8461 H   0  0  0  0  0  0  0  0  0  0  0  0
   -1.1760    1.1824    1.3080 H   0  0  0  0  0  0  0  0  0  0  0  0
   -4.6109    3.9305   -1.9941 H   0  0  0  0  0  0  0  0  0  0  0  0
   -4.0829    4.4421   -5.5478 H   0  0  0  0  0  0  0  0  0  0  0  0
   -5.0108    3.5737   -4.3191 H   0  0  0  0  0  0  0  0  0  0  0  0
   -4.2160    5.1508   -3.9346 H   0  0  0  0  0  0  0  0  0  0  0  0
    1.4134    2.8048   -4.8561 H   0  0  0  0  0  0  0  0  0  0  0  0
    3.7385    2.3798   -4.1193 H   0  0  0  0  0  0  0  0  0  0  0  0
    1.4892   -0.1680    0.2354 H   0  0  0  0  0  0  0  0  0  0  0  0
    3.7105   -1.5309   -1.4460 H   0  0  0  0  0  0  0  0  0  0  0  0
    2.0568   -1.6270   -1.9398 H   0  0  0  0  0  0  0  0  0  0  0  0
    2.7365   -0.2096    2.2355 H   0  0  0  0  0  0  0  0  0  0  0  0
    4.1301   -1.1098    1.5994 H   0  0  0  0  0  0  0  0  0  0  0  0
    4.3411    0.4984    2.2971 H   0  0  0  0  0  0  0  0  0  0  0  0
    5.2964   -0.2603   -0.3512 H   0  0  0  0  0  0  0  0  0  0  0  0
    5.3362    1.4143    0.1458 H   0  0  0  0  0  0  0  0  0  0  0  0
    5.0015    0.3441   -2.4928 H   0  0  0  0  0  0  0  0  0  0  0  0
    5.1358    2.0337   -1.9879 H   0  0  0  0  0  0  0  0  0  0  0  0
   -4.8807    4.1965    0.3907 H   0  0  0  0  0  0  0  0  0  0  0  0
   -5.2192    2.4838    0.6427 H   0  0  0  0  0  0  0  0  0  0  0  0
   -3.6363    4.3707    2.2581 H   0  0  0  0  0  0  0  0  0  0  0  0
   -4.3844    2.8564    2.7244 H   0  0  0  0  0  0  0  0  0  0  0  0
   -2.5116    1.8377    3.9761 H   0  0  0  0  0  0  0  0  0  0  0  0
   -1.9110    3.5036    3.9441 H   0  0  0  0  0  0  0  0  0  0  0  0
   -0.8643    2.1953    3.4187 H   0  0  0  0  0  0  0  0  0  0  0  0
  1  2  1  0
  2  3  1  0
  3  4  2  0
  4  5  1  0
  5  6  2  0
  6  7  1  0
  7  8  2  0
  8  9  1  0
  9 10  1  0
 10 11  2  0
 11 12  1  0
 12 13  2  0
 13 14  1  0
 14 15  2  0
 13 16  1  0
 16 17  1  0
 17 18  1  0
 18 19  2  0
 19 20  1  0
 20 21  2  0
 21 22  1  0
 22 23  1  0
 21 24  1  0
 24 25  2  0
 25 26  1  0
 26 27  1  0
 27 28  2  0
 28 29  1  0
 29 30  2  0
 30 31  1  0
 31 32  2  0
 32 33  1  0
 33 34  1  0
 33 35  1  0
 35 36  1  0
 35 37  1  0
 37 38  1  0
 28 39  1  0
 19 40  1  0
 40 41  1  0
 41 42  1  0
 42 43  1  0
  8  3  1  0
 15 10  1  0
 42 17  1  0
 34  6  1  0
 25 18  1  0
 32 27  1  0
 39 24  1  0
 38 31  1  0
  1 44  1  0
  1 45  1  0
  1 46  1  0
  4 47  1  0
  5 48  1  0
  7 49  1  0
 11 50  1  0
 12 51  1  0
 14 52  1  0
 15 53  1  0
 16 54  1  0
 16 55  1  0
 17 56  1  0
 20 57  1  0
 23 58  1  0
 23 59  1  0
 23 60  1  0
 29 61  1  0
 30 62  1  0
 33 63  1  0
 34 64  1  0
 34 65  1  0
 36 66  1  0
 36 67  1  0
 36 68  1  0
 37 69  1  0
 37 70  1  0
 38 71  1  0
 38 72  1  0
 40 73  1  0
 40 74  1  0
 41 75  1  0
 41 76  1  0
 43 77  1  0
 43 78  1  0
 43 79  1  0
M  END
$$$$
