
     RDKit          3D

 63 67  0  0  0  0  0  0  0  0999 V2000
    9.2259    3.2114   -0.6906 C   0  0  0  0  0  0  0  0  0  0  0  0
    8.8324    1.9864   -0.0902 O   0  0  0  0  0  0  0  0  0  0  0  0
    7.4915    1.6945   -0.0568 C   0  0  0  0  0  0  0  0  0  0  0  0
    6.4858    2.5465   -0.5196 C   0  0  0  0  0  0  0  0  0  0  0  0
    5.1432    2.1632   -0.4432 C   0  0  0  0  0  0  0  0  0  0  0  0
    4.7743    0.9228    0.0938 C   0  0  0  0  0  0  0  0  0  0  0  0
    3.3604    0.5216    0.1637 C   0  0  0  0  0  0  0  0  0  0  0  0
    2.4132    1.3203    0.8294 C   0  0  0  0  0  0  0  0  0  0  0  0
    1.0656    0.9460    0.8946 C   0  0  0  0  0  0  0  0  0  0  0  0
    0.6376   -0.2346    0.2839 C   0  0  0  0  0  0  0  0  0  0  0  0
    1.5710   -1.0375   -0.3555 C   0  0  0  0  0  0  0  0  0  0  0  0
    2.9198   -0.6710   -0.4300 C   0  0  0  0  0  0  0  0  0  0  0  0
    1.0401   -2.5425   -1.0780 S   0  0  0  0  0  6  0  0  0  0  0  0
    1.2005   -3.5764   -0.0776 O   0  0  0  0  0  0  0  0  0  0  0  0
    1.6775   -2.6275   -2.3775 O   0  0  0  0  0  0  0  0  0  0  0  0
   -0.6830   -2.3927   -1.3817 C   0  0  0  0  0  0  0  0  0  0  0  0
   -1.2789   -3.2340   -2.3301 C   0  0  0  0  0  0  0  0  0  0  0  0
   -2.6355   -3.0964   -2.6156 C   0  0  0  0  0  0  0  0  0  0  0  0
   -3.3795   -2.1048   -1.9766 C   0  0  0  0  0  0  0  0  0  0  0  0
   -2.7676   -1.2650   -1.0308 C   0  0  0  0  0  0  0  0  0  0  0  0
   -3.5547   -0.1282   -0.5164 C   0  0  0  0  0  0  0  0  0  0  0  0
   -3.2020    1.0098   -0.7966 O   0  0  0  0  0  0  0  0  0  0  0  0
   -4.6751   -0.4709    0.2043 N   0  0  0  0  0  0  0  0  0  0  0  0
   -5.5721    0.5391    0.7523 C   0  0  0  0  0  0  0  0  0  0  0  0
   -6.3577   -0.0247    1.9486 C   0  0  0  0  0  0  0  0  0  0  0  0
   -7.6901   -0.6269    1.5172 C   0  0  0  0  0  0  0  0  0  0  0  0
   -8.5979    0.4152    0.8605 C   0  0  0  0  0  0  0  0  0  0  0  0
   -7.8308    1.5551    0.1880 C   0  0  0  0  0  0  0  0  0  0  0  0
   -6.4893    1.0846   -0.3584 C   0  0  0  0  0  0  0  0  0  0  0  0
   -1.4125   -1.4153   -0.7095 C   0  0  0  0  0  0  0  0  0  0  0  0
   -0.7887   -0.6073    0.3620 C   0  0  0  0  0  0  0  0  0  0  0  0
   -1.4404   -0.2821    1.3463 O   0  0  0  0  0  0  0  0  0  0  0  0
    5.7920    0.0721    0.5599 C   0  0  0  0  0  0  0  0  0  0  0  0
    7.1415    0.4456    0.4916 C   0  0  0  0  0  0  0  0  0  0  0  0
    8.1850   -0.3333    0.9289 O   0  0  0  0  0  0  0  0  0  0  0  0
    7.8749   -1.5934    1.5061 C   0  0  0  0  0  0  0  0  0  0  0  0
   10.3184    3.2660   -0.6549 H   0  0  0  0  0  0  0  0  0  0  0  0
    8.9257    3.2512   -1.7428 H   0  0  0  0  0  0  0  0  0  0  0  0
    8.8327    4.0678   -0.1335 H   0  0  0  0  0  0  0  0  0  0  0  0
    6.7106    3.5176   -0.9475 H   0  0  0  0  0  0  0  0  0  0  0  0
    4.3829    2.8443   -0.8218 H   0  0  0  0  0  0  0  0  0  0  0  0
    2.7234    2.2439    1.3171 H   0  0  0  0  0  0  0  0  0  0  0  0
    0.3542    1.5824    1.4198 H   0  0  0  0  0  0  0  0  0  0  0  0
    3.6262   -1.3133   -0.9554 H   0  0  0  0  0  0  0  0  0  0  0  0
   -0.6894   -3.9889   -2.8490 H   0  0  0  0  0  0  0  0  0  0  0  0
   -3.1050   -3.7395   -3.3574 H   0  0  0  0  0  0  0  0  0  0  0  0
   -4.4245   -1.9594   -2.2454 H   0  0  0  0  0  0  0  0  0  0  0  0
   -4.8620   -1.4461    0.4003 H   0  0  0  0  0  0  0  0  0  0  0  0
   -4.9418    1.3583    1.1224 H   0  0  0  0  0  0  0  0  0  0  0  0
   -5.7642   -0.7709    2.4895 H   0  0  0  0  0  0  0  0  0  0  0  0
   -6.5584    0.7871    2.6596 H   0  0  0  0  0  0  0  0  0  0  0  0
   -8.2039   -1.0693    2.3782 H   0  0  0  0  0  0  0  0  0  0  0  0
   -7.5054   -1.4458    0.8103 H   0  0  0  0  0  0  0  0  0  0  0  0
   -9.2754    0.8426    1.6101 H   0  0  0  0  0  0  0  0  0  0  0  0
   -9.2364   -0.0884    0.1248 H   0  0  0  0  0  0  0  0  0  0  0  0
   -8.4400    1.9845   -0.6158 H   0  0  0  0  0  0  0  0  0  0  0  0
   -7.6616    2.3599    0.9149 H   0  0  0  0  0  0  0  0  0  0  0  0
   -5.9860    1.9104   -0.8755 H   0  0  0  0  0  0  0  0  0  0  0  0
   -6.6696    0.3140   -1.1203 H   0  0  0  0  0  0  0  0  0  0  0  0
    5.5048   -0.8839    0.9869 H   0  0  0  0  0  0  0  0  0  0  0  0
    7.2671   -1.4759    2.4093 H   0  0  0  0  0  0  0  0  0  0  0  0
    8.8167   -2.0674    1.7993 H   0  0  0  0  0  0  0  0  0  0  0  0
    7.3845   -2.2505    0.7804 H   0  0  0  0  0  0  0  0  0  0  0  0
  1  2  1  0
  2  3  1  0
  3  4  2  0
  4  5  1  0
  5  6  2  0
  6  7  1  0
  7  8  2  0
  8  9  1  0
  9 10  2  0
 10 11  1  0
 11 12  2  0
 11 13  1  0
 13 14  2  0
 13 15  2  0
 13 16  1  0
 16 17  2  0
 17 18  1  0
 18 19  2  0
 19 20  1  0
 20 21  1  0
 21 22  2  0
 21 23  1  0
 23 24  1  0
 24 25  1  0
 25 26  1  0
 26 27  1  0
 27 28  1  0
 28 29  1  0
 20 30  2  0
 30 31  1  0
 31 32  2  0
  6 33  1  0
 33 34  2  0
 34 35  1  0
 35 36  1  0
 34  3  1  0
 12  7  1  0
 30 16  1  0
 31 10  1  0
 29 24  1  0
  1 37  1  0
  1 38  1  0
  1 39  1  0
  4 40  1  0
  5 41  1  0
  8 42  1  0
  9 43  1  0
 12 44  1  0
 17 45  1  0
 18 46  1  0
 19 47  1  0
 23 48  1  0
 24 49  1  0
 25 50  1  0
 25 51  1  0
 26 52  1  0
 26 53  1  0
 27 54  1  0
 27 55  1  0
 28 56  1  0
 28 57  1  0
 29 58  1  0
 29 59  1  0
 33 60  1  0
 36 61  1  0
 36 62  1  0
 36 63  1  0
M  END
$$$$
