
     RDKit          3D

 22 23  0  0  0  0  0  0  0  0999 V2000
   -4.1774    0.2078    0.3184 C   0  0  0  0  0  0  0  0  0  0  0  0
   -2.6821    0.1861    0.2045 C   0  0  0  0  0  0  0  0  0  0  0  0
   -2.0346    0.9362   -0.7795 C   0  0  0  0  0  0  0  0  0  0  0  0
   -0.6418    0.8900   -0.9031 C   0  0  0  0  0  0  0  0  0  0  0  0
    0.1425    0.0869   -0.0574 C   0  0  0  0  0  0  0  0  0  0  0  0
    1.6068    0.0817   -0.2381 C   0  0  0  0  0  0  0  0  0  0  0  0
    2.2501    0.8104   -1.1332 N   0  0  0  0  0  0  0  0  0  0  0  0
    3.6168    0.6243   -1.0942 N   0  0  0  0  0  0  0  0  0  0  0  0
    3.9771   -0.2410   -0.1769 C   0  0  0  0  0  0  0  0  0  0  0  0
    5.2495   -0.6136    0.0636 N   0  0  0  0  0  0  0  0  0  0  0  0
    2.6643   -0.9002    0.7055 S   0  0  0  0  0  0  0  0  0  0  0  0
   -0.5224   -0.6728    0.9184 C   0  0  0  0  0  0  0  0  0  0  0  0
   -1.9169   -0.6279    1.0440 C   0  0  0  0  0  0  0  0  0  0  0  0
   -4.4928    0.0354    1.3528 H   0  0  0  0  0  0  0  0  0  0  0  0
   -4.6124   -0.5686   -0.3184 H   0  0  0  0  0  0  0  0  0  0  0  0
   -4.5782    1.1807    0.0150 H   0  0  0  0  0  0  0  0  0  0  0  0
   -2.6059    1.5654   -1.4588 H   0  0  0  0  0  0  0  0  0  0  0  0
   -0.1682    1.4931   -1.6775 H   0  0  0  0  0  0  0  0  0  0  0  0
    5.3966   -1.5232    0.4838 H   0  0  0  0  0  0  0  0  0  0  0  0
    5.9068   -0.3985   -0.6791 H   0  0  0  0  0  0  0  0  0  0  0  0
    0.0225   -1.3172    1.6033 H   0  0  0  0  0  0  0  0  0  0  0  0
   -2.4001   -1.2350    1.8070 H   0  0  0  0  0  0  0  0  0  0  0  0
  1  2  1  0
  2  3  2  0
  3  4  1  0
  4  5  2  0
  5  6  1  0
  6  7  2  0
  7  8  1  0
  8  9  2  0
  9 10  1  0
  9 11  1  0
  5 12  1  0
 12 13  2  0
 13  2  1  0
 11  6  1  0
  1 14  1  0
  1 15  1  0
  1 16  1  0
  3 17  1  0
  4 18  1  0
 10 19  1  0
 10 20  1  0
 12 21  1  0
 13 22  1  0
M  END
$$$$
