
     RDKit          3D

 41 44  0  0  0  0  0  0  0  0999 V2000
   -3.6536   -1.2646    2.0007 C   0  0  0  0  0  0  0  0  0  0  0  0
   -3.7485   -1.1210    0.5869 O   0  0  0  0  0  0  0  0  0  0  0  0
   -4.4349   -0.0140    0.1493 C   0  0  0  0  0  0  0  0  0  0  0  0
   -5.4749    0.5880    0.8651 C   0  0  0  0  0  0  0  0  0  0  0  0
   -6.1451    1.6949    0.3383 C   0  0  0  0  0  0  0  0  0  0  0  0
   -5.7893    2.2012   -0.9093 C   0  0  0  0  0  0  0  0  0  0  0  0
   -4.7625    1.6002   -1.6370 C   0  0  0  0  0  0  0  0  0  0  0  0
   -4.0782    0.4940   -1.1146 C   0  0  0  0  0  0  0  0  0  0  0  0
   -3.0151   -0.1119   -1.9267 C   0  0  0  0  0  0  0  0  0  0  0  0
   -1.7087   -0.1115   -1.6236 C   0  0  0  0  0  0  0  0  0  0  0  0
   -0.5300   -0.9376   -2.6455 S   0  0  0  0  0  0  0  0  0  0  0  0
    0.7101   -0.5143   -1.5441 C   0  0  0  0  0  0  0  0  0  0  0  0
    1.9932   -0.7118   -1.4759 N   0  0  0  0  0  0  0  0  0  0  0  0
    2.3257   -0.0614   -0.2905 C   0  0  0  0  0  0  0  0  0  0  0  0
    3.6934    0.0017    0.2240 C   0  0  0  0  0  0  0  0  0  0  0  0
    4.0749    1.0909    1.0291 C   0  0  0  0  0  0  0  0  0  0  0  0
    5.3721    1.1918    1.5404 C   0  0  0  0  0  0  0  0  0  0  0  0
    6.3079    0.1989    1.2650 C   0  0  0  0  0  0  0  0  0  0  0  0
    5.9478   -0.8929    0.4774 C   0  0  0  0  0  0  0  0  0  0  0  0
    4.6545   -0.9835   -0.0539 C   0  0  0  0  0  0  0  0  0  0  0  0
    4.3324   -2.1142   -0.7620 O   0  0  0  0  0  0  0  0  0  0  0  0
    4.8436   -2.0318   -2.0930 C   0  0  0  0  0  0  0  0  0  0  0  0
    1.2827    0.5552    0.3148 N   0  0  0  0  0  0  0  0  0  0  0  0
    0.2718    0.2191   -0.5056 N   0  0  0  0  0  0  0  0  0  0  0  0
   -1.0669    0.5418   -0.4322 C   0  0  0  0  0  0  0  0  0  0  0  0
   -1.5338    1.2438    0.4450 O   0  0  0  0  0  0  0  0  0  0  0  0
   -2.8761   -2.0062    2.2079 H   0  0  0  0  0  0  0  0  0  0  0  0
   -4.5932   -1.6438    2.4146 H   0  0  0  0  0  0  0  0  0  0  0  0
   -3.3581   -0.3276    2.4856 H   0  0  0  0  0  0  0  0  0  0  0  0
   -5.7931    0.2081    1.8303 H   0  0  0  0  0  0  0  0  0  0  0  0
   -6.9494    2.1598    0.9031 H   0  0  0  0  0  0  0  0  0  0  0  0
   -6.3127    3.0626   -1.3162 H   0  0  0  0  0  0  0  0  0  0  0  0
   -4.4979    2.0052   -2.6109 H   0  0  0  0  0  0  0  0  0  0  0  0
   -3.3747   -0.6108   -2.8240 H   0  0  0  0  0  0  0  0  0  0  0  0
    3.3554    1.8733    1.2666 H   0  0  0  0  0  0  0  0  0  0  0  0
    5.6445    2.0415    2.1616 H   0  0  0  0  0  0  0  0  0  0  0  0
    7.3123    0.2670    1.6747 H   0  0  0  0  0  0  0  0  0  0  0  0
    6.6691   -1.6835    0.2897 H   0  0  0  0  0  0  0  0  0  0  0  0
    4.5985   -1.0751   -2.5682 H   0  0  0  0  0  0  0  0  0  0  0  0
    4.3798   -2.8304   -2.6796 H   0  0  0  0  0  0  0  0  0  0  0  0
    5.9269   -2.1912   -2.1008 H   0  0  0  0  0  0  0  0  0  0  0  0
  1  2  1  0
  2  3  1  0
  3  4  2  0
  4  5  1  0
  5  6  2  0
  6  7  1  0
  7  8  2  0
  8  9  1  0
  9 10  2  3
 10 11  1  0
 11 12  1  0
 12 13  2  0
 13 14  1  0
 14 15  1  0
 15 16  2  0
 16 17  1  0
 17 18  2  0
 18 19  1  0
 19 20  2  0
 20 21  1  0
 21 22  1  0
 14 23  2  0
 23 24  1  0
 24 25  1  0
 25 26  2  0
  8  3  1  0
 25 10  1  0
 24 12  1  0
 20 15  1  0
  1 27  1  0
  1 28  1  0
  1 29  1  0
  4 30  1  0
  5 31  1  0
  6 32  1  0
  7 33  1  0
  9 34  1  0
 16 35  1  0
 17 36  1  0
 18 37  1  0
 19 38  1  0
 22 39  1  0
 22 40  1  0
 22 41  1  0
M  END
$$$$
