
     RDKit          3D

 56 59  0  0  0  0  0  0  0  0999 V2000
    7.7245   -1.3948   -0.3943 C   0  0  0  0  0  0  0  0  0  0  0  0
    7.7270   -0.0427    0.0514 O   0  0  0  0  0  0  0  0  0  0  0  0
    6.4602    0.4672    0.2492 C   0  0  0  0  0  0  0  0  0  0  0  0
    6.3892    1.7757    0.6902 C   0  0  0  0  0  0  0  0  0  0  0  0
    5.1305    2.3323    0.9009 C   0  0  0  0  0  0  0  0  0  0  0  0
    3.9768    1.5719    0.6655 C   0  0  0  0  0  0  0  0  0  0  0  0
    2.6576    2.2273    0.9048 C   0  0  0  0  0  0  0  0  0  0  0  0
    2.6167    3.3681    1.3570 O   0  0  0  0  0  0  0  0  0  0  0  0
    1.5199    1.5179    0.6045 N   0  0  0  0  0  0  0  0  0  0  0  0
    0.1962    2.0252    0.8972 C   0  0  0  0  0  0  0  0  0  0  0  0
   -0.1483    1.8171    2.3908 C   0  0  0  0  0  0  0  0  0  0  0  0
   -1.6535    1.9690    2.6640 C   0  0  0  0  0  0  0  0  0  0  0  0
   -2.4993    0.9461    1.8791 C   0  0  0  0  0  0  0  0  0  0  0  0
   -2.0281    0.8737    0.4643 C   0  0  0  0  0  0  0  0  0  0  0  0
   -0.7891    1.3130    0.0316 C   0  0  0  0  0  0  0  0  0  0  0  0
   -0.7289    0.9273   -1.3132 C   0  0  0  0  0  0  0  0  0  0  0  0
   -1.8048    0.2411   -1.6937 N   0  0  0  0  0  0  0  0  0  0  0  0
   -2.6340    0.2435   -0.6131 N   0  0  0  0  0  0  0  0  0  0  0  0
   -3.9453   -0.3070   -0.7183 C   0  0  0  0  0  0  0  0  0  0  0  0
   -5.0090    0.3955   -0.1304 C   0  0  0  0  0  0  0  0  0  0  0  0
   -6.3162   -0.0671   -0.2498 C   0  0  0  0  0  0  0  0  0  0  0  0
   -6.5789   -1.2213   -0.9784 C   0  0  0  0  0  0  0  0  0  0  0  0
   -5.5404   -1.9330   -1.6000 C   0  0  0  0  0  0  0  0  0  0  0  0
   -5.8988   -3.1652   -2.3898 C   0  0  0  0  0  0  0  0  0  0  0  0
   -4.1987   -1.4964   -1.4522 C   0  0  0  0  0  0  0  0  0  0  0  0
   -3.0786   -2.3034   -2.0673 C   0  0  0  0  0  0  0  0  0  0  0  0
    4.1594    0.2599    0.2225 C   0  0  0  0  0  0  0  0  0  0  0  0
    3.0449   -0.5268   -0.0061 O   0  0  0  0  0  0  0  0  0  0  0  0
    3.3477   -1.8242   -0.5131 C   0  0  0  0  0  0  0  0  0  0  0  0
    5.3776   -0.3015    0.0132 N   0  0  0  0  0  0  0  0  0  0  0  0
    8.7657   -1.7050   -0.5242 H   0  0  0  0  0  0  0  0  0  0  0  0
    7.2243   -1.4933   -1.3641 H   0  0  0  0  0  0  0  0  0  0  0  0
    7.2707   -2.0566    0.3516 H   0  0  0  0  0  0  0  0  0  0  0  0
    7.2916    2.3510    0.8652 H   0  0  0  0  0  0  0  0  0  0  0  0
    5.0534    3.3610    1.2474 H   0  0  0  0  0  0  0  0  0  0  0  0
    1.6110    0.5371    0.3585 H   0  0  0  0  0  0  0  0  0  0  0  0
    0.1647    3.0972    0.6652 H   0  0  0  0  0  0  0  0  0  0  0  0
    0.1676    0.8160    2.7150 H   0  0  0  0  0  0  0  0  0  0  0  0
    0.4141    2.5316    3.0037 H   0  0  0  0  0  0  0  0  0  0  0  0
   -1.9635    2.9858    2.3894 H   0  0  0  0  0  0  0  0  0  0  0  0
   -1.8497    1.8535    3.7361 H   0  0  0  0  0  0  0  0  0  0  0  0
   -3.5461    1.2352    1.9728 H   0  0  0  0  0  0  0  0  0  0  0  0
   -2.3881   -0.0434    2.3380 H   0  0  0  0  0  0  0  0  0  0  0  0
    0.0683    1.0905   -2.0273 H   0  0  0  0  0  0  0  0  0  0  0  0
   -4.8543    1.3501    0.3630 H   0  0  0  0  0  0  0  0  0  0  0  0
   -7.1346    0.4893    0.1991 H   0  0  0  0  0  0  0  0  0  0  0  0
   -7.6094   -1.5578   -1.0746 H   0  0  0  0  0  0  0  0  0  0  0  0
   -5.4296   -3.1392   -3.3787 H   0  0  0  0  0  0  0  0  0  0  0  0
   -5.5807   -4.0641   -1.8526 H   0  0  0  0  0  0  0  0  0  0  0  0
   -6.9795   -3.2373   -2.5531 H   0  0  0  0  0  0  0  0  0  0  0  0
   -2.1952   -2.3146   -1.4208 H   0  0  0  0  0  0  0  0  0  0  0  0
   -3.3494   -3.3565   -2.1877 H   0  0  0  0  0  0  0  0  0  0  0  0
   -2.8187   -1.9030   -3.0517 H   0  0  0  0  0  0  0  0  0  0  0  0
    2.3994   -2.3425   -0.6837 H   0  0  0  0  0  0  0  0  0  0  0  0
    3.9204   -2.4095    0.2140 H   0  0  0  0  0  0  0  0  0  0  0  0
    3.8712   -1.7637   -1.4736 H   0  0  0  0  0  0  0  0  0  0  0  0
  1  2  1  0
  2  3  1  0
  3  4  2  0
  4  5  1  0
  5  6  2  0
  6  7  1  0
  7  8  2  0
  7  9  1  0
  9 10  1  0
 10 11  1  0
 11 12  1  0
 12 13  1  0
 13 14  1  0
 14 15  2  0
 15 16  1  0
 16 17  2  0
 17 18  1  0
 18 19  1  0
 19 20  2  0
 20 21  1  0
 21 22  2  0
 22 23  1  0
 23 24  1  0
 23 25  2  0
 25 26  1  0
  6 27  1  0
 27 28  1  0
 28 29  1  0
 27 30  2  0
 30  3  1  0
 15 10  1  0
 25 19  1  0
 18 14  1  0
  1 31  1  0
  1 32  1  0
  1 33  1  0
  4 34  1  0
  5 35  1  0
  9 36  1  0
 10 37  1  0
 11 38  1  0
 11 39  1  0
 12 40  1  0
 12 41  1  0
 13 42  1  0
 13 43  1  0
 16 44  1  0
 20 45  1  0
 21 46  1  0
 22 47  1  0
 24 48  1  0
 24 49  1  0
 24 50  1  0
 26 51  1  0
 26 52  1  0
 26 53  1  0
 29 54  1  0
 29 55  1  0
 29 56  1  0
M  END
$$$$
