
     RDKit          3D

 46 48  0  0  0  0  0  0  0  0999 V2000
   -2.5609    1.5316    2.6050 O   0  0  0  0  0  0  0  0  0  0  0  0
   -1.7823    0.7914    2.0142 C   0  0  0  0  0  0  0  0  0  0  0  0
   -2.1844   -0.3363    1.3303 N   0  0  0  0  0  0  0  0  0  0  0  0
   -3.5980   -0.6325    1.1570 C   0  0  0  0  0  0  0  0  0  0  0  0
   -4.1952    0.1582   -0.0088 C   0  0  0  0  0  0  0  0  0  0  0  0
   -5.6849   -0.0768   -0.1894 C   0  0  0  0  0  0  0  0  0  0  0  0
   -5.8643    0.2419   -1.6523 C   0  0  0  0  0  0  0  0  0  0  0  0
   -4.5998   -0.3302   -2.2573 C   0  0  0  0  0  0  0  0  0  0  0  0
   -3.5780   -0.2542   -1.2509 O   0  0  0  0  0  0  0  0  0  0  0  0
   -0.3278    1.1182    1.9729 C   0  0  0  0  0  0  0  0  0  0  0  0
    0.0640    2.4346    2.2368 C   0  0  0  0  0  0  0  0  0  0  0  0
    1.4157    2.7889    2.2138 C   0  0  0  0  0  0  0  0  0  0  0  0
    2.3986    1.8329    1.9294 C   0  0  0  0  0  0  0  0  0  0  0  0
    4.1910    2.4569    1.9162 Br  0  0  0  0  0  0  0  0  0  0  0  0
    2.0113    0.5139    1.6718 C   0  0  0  0  0  0  0  0  0  0  0  0
    3.1876   -0.7650    1.3126 S   0  0  0  0  0  6  0  0  0  0  0  0
    4.1533   -0.7954    2.3877 O   0  0  0  0  0  0  0  0  0  0  0  0
    2.4532   -1.9630    0.9561 O   0  0  0  0  0  0  0  0  0  0  0  0
    3.9502   -0.2311   -0.1136 N   0  0  0  0  0  0  0  0  0  0  0  0
    3.0529   -0.0323   -1.2982 C   0  0  0  0  0  0  0  0  0  0  0  0
    3.8747    0.0053   -2.5905 C   0  0  0  0  0  0  0  0  0  0  0  0
    4.5593   -1.2270   -2.8520 O   0  0  0  0  0  0  0  0  0  0  0  0
    4.9349   -1.9315   -1.6589 C   0  0  0  0  0  0  0  0  0  0  0  0
    5.1887   -1.0037   -0.4678 C   0  0  0  0  0  0  0  0  0  0  0  0
    0.6505    0.1547    1.7047 C   0  0  0  0  0  0  0  0  0  0  0  0
   -1.5764   -0.7230    0.6206 H   0  0  0  0  0  0  0  0  0  0  0  0
   -3.6608   -1.7087    0.9638 H   0  0  0  0  0  0  0  0  0  0  0  0
   -4.1289   -0.4079    2.0882 H   0  0  0  0  0  0  0  0  0  0  0  0
   -3.9930    1.2306    0.1046 H   0  0  0  0  0  0  0  0  0  0  0  0
   -6.2961    0.5464    0.4691 H   0  0  0  0  0  0  0  0  0  0  0  0
   -5.9425   -1.1272   -0.0072 H   0  0  0  0  0  0  0  0  0  0  0  0
   -6.7740   -0.1806   -2.0869 H   0  0  0  0  0  0  0  0  0  0  0  0
   -5.8892    1.3287   -1.7959 H   0  0  0  0  0  0  0  0  0  0  0  0
   -4.2785    0.2141   -3.1497 H   0  0  0  0  0  0  0  0  0  0  0  0
   -4.7286   -1.3856   -2.5195 H   0  0  0  0  0  0  0  0  0  0  0  0
   -0.6846    3.1926    2.4647 H   0  0  0  0  0  0  0  0  0  0  0  0
    1.6896    3.8214    2.4244 H   0  0  0  0  0  0  0  0  0  0  0  0
    2.3245   -0.8478   -1.3613 H   0  0  0  0  0  0  0  0  0  0  0  0
    2.5183    0.9155   -1.1821 H   0  0  0  0  0  0  0  0  0  0  0  0
    3.2232    0.2059   -3.4469 H   0  0  0  0  0  0  0  0  0  0  0  0
    4.6222    0.8063   -2.5525 H   0  0  0  0  0  0  0  0  0  0  0  0
    4.1403   -2.6506   -1.4293 H   0  0  0  0  0  0  0  0  0  0  0  0
    5.8382   -2.5046   -1.8903 H   0  0  0  0  0  0  0  0  0  0  0  0
    5.5562   -1.5852    0.3832 H   0  0  0  0  0  0  0  0  0  0  0  0
    5.9653   -0.2703   -0.7153 H   0  0  0  0  0  0  0  0  0  0  0  0
    0.3646   -0.8832    1.5494 H   0  0  0  0  0  0  0  0  0  0  0  0
  1  2  2  0
  2  3  1  0
  3  4  1  0
  4  5  1  0
  5  6  1  0
  6  7  1  0
  7  8  1  0
  8  9  1  0
  2 10  1  0
 10 11  2  0
 11 12  1  0
 12 13  2  0
 13 14  1  0
 13 15  1  0
 15 16  1  0
 16 17  2  0
 16 18  2  0
 16 19  1  0
 19 20  1  0
 20 21  1  0
 21 22  1  0
 22 23  1  0
 23 24  1  0
 15 25  2  0
  9  5  1  0
 25 10  1  0
 24 19  1  0
  3 26  1  0
  4 27  1  0
  4 28  1  0
  5 29  1  0
  6 30  1  0
  6 31  1  0
  7 32  1  0
  7 33  1  0
  8 34  1  0
  8 35  1  0
 11 36  1  0
 12 37  1  0
 20 38  1  0
 20 39  1  0
 21 40  1  0
 21 41  1  0
 23 42  1  0
 23 43  1  0
 24 44  1  0
 24 45  1  0
 25 46  1  0
M  END
$$$$
