
     RDKit          3D

 67 71  0  0  0  0  0  0  0  0999 V2000
   -4.4508   -1.9202    5.8659 C   0  0  0  0  0  0  0  0  0  0  0  0
   -4.8336   -2.0208    4.5022 O   0  0  0  0  0  0  0  0  0  0  0  0
   -4.6905   -0.7749    3.8257 C   0  0  0  0  0  0  0  0  0  0  0  0
   -5.1777   -0.9715    2.4253 C   0  0  0  0  0  0  0  0  0  0  0  0
   -4.4704   -0.8424    1.2896 C   0  0  0  0  0  0  0  0  0  0  0  0
   -3.0557   -0.5328    1.1932 C   0  0  0  0  0  0  0  0  0  0  0  0
   -2.1749   -1.4861    1.5818 C   0  0  0  0  0  0  0  0  0  0  0  0
   -0.7391   -1.2262    1.4914 C   0  0  0  0  0  0  0  0  0  0  0  0
    0.1393   -2.1865    1.8118 C   0  0  0  0  0  0  0  0  0  0  0  0
    1.5982   -1.9565    1.6880 C   0  0  0  0  0  0  0  0  0  0  0  0
    2.3250   -2.9479    1.6290 O   0  0  0  0  0  0  0  0  0  0  0  0
    2.1182   -0.5119    1.6647 C   0  0  0  0  0  0  0  0  0  0  0  0
    2.2536    0.0340    3.0960 C   0  0  0  0  0  0  0  0  0  0  0  0
    3.3468   -0.4402    0.9111 O   0  0  0  0  0  0  0  0  0  0  0  0
    4.4943   -0.9438    1.4223 C   0  0  0  0  0  0  0  0  0  0  0  0
    4.6716   -1.3366    2.5645 O   0  0  0  0  0  0  0  0  0  0  0  0
    5.5565   -0.9541    0.3860 C   0  0  0  0  0  0  0  0  0  0  0  0
    6.8008   -1.4610    0.7118 C   0  0  0  0  0  0  0  0  0  0  0  0
    7.8230   -1.5023   -0.1787 N   0  0  0  0  0  0  0  0  0  0  0  0
    7.5610   -1.0247   -1.4128 C   0  0  0  0  0  0  0  0  0  0  0  0
    8.5568   -1.0381   -2.3815 C   0  0  0  0  0  0  0  0  0  0  0  0
    8.3252   -0.5549   -3.6708 C   0  0  0  0  0  0  0  0  0  0  0  0
    7.0747   -0.0468   -3.9991 C   0  0  0  0  0  0  0  0  0  0  0  0
    6.0661   -0.0267   -3.0346 C   0  0  0  0  0  0  0  0  0  0  0  0
    6.2836   -0.5055   -1.7487 C   0  0  0  0  0  0  0  0  0  0  0  0
    5.2803   -0.4671   -0.8525 N   0  0  0  0  0  0  0  0  0  0  0  0
    1.1496    0.4315    0.9469 C   0  0  0  0  0  0  0  0  0  0  0  0
    1.5078    1.4820    0.4113 O   0  0  0  0  0  0  0  0  0  0  0  0
   -0.2952    0.0747    1.0093 C   0  0  0  0  0  0  0  0  0  0  0  0
   -1.2342    0.9671    0.6492 C   0  0  0  0  0  0  0  0  0  0  0  0
   -2.6191    0.7233    0.7004 N   0  0  0  0  0  0  0  0  0  0  0  0
   -3.5538    1.7901    0.2762 C   0  0  0  0  0  0  0  0  0  0  0  0
   -3.7096    1.8513   -1.2302 C   0  0  0  0  0  0  0  0  0  0  0  0
   -2.8046    2.5800   -2.0173 C   0  0  0  0  0  0  0  0  0  0  0  0
   -2.9461    2.6446   -3.4088 C   0  0  0  0  0  0  0  0  0  0  0  0
   -3.9989    1.9833   -4.0373 C   0  0  0  0  0  0  0  0  0  0  0  0
   -4.2547    1.9682   -5.3805 O   0  0  0  0  0  0  0  0  0  0  0  0
   -3.3590    2.6963   -6.2114 C   0  0  0  0  0  0  0  0  0  0  0  0
   -4.9031    1.2560   -3.2620 C   0  0  0  0  0  0  0  0  0  0  0  0
   -4.7625    1.1879   -1.8725 C   0  0  0  0  0  0  0  0  0  0  0  0
   -4.5710   -2.9051    6.3281 H   0  0  0  0  0  0  0  0  0  0  0  0
   -5.0912   -1.2052    6.3916 H   0  0  0  0  0  0  0  0  0  0  0  0
   -3.4006   -1.6207    5.9479 H   0  0  0  0  0  0  0  0  0  0  0  0
   -3.6464   -0.4490    3.8697 H   0  0  0  0  0  0  0  0  0  0  0  0
   -5.3116   -0.0144    4.3155 H   0  0  0  0  0  0  0  0  0  0  0  0
   -6.2266   -1.2426    2.3395 H   0  0  0  0  0  0  0  0  0  0  0  0
   -4.9706   -1.0115    0.3397 H   0  0  0  0  0  0  0  0  0  0  0  0
   -2.5174   -2.4488    1.9521 H   0  0  0  0  0  0  0  0  0  0  0  0
   -0.1559   -3.1836    2.1208 H   0  0  0  0  0  0  0  0  0  0  0  0
    2.9010    0.9179    3.1237 H   0  0  0  0  0  0  0  0  0  0  0  0
    1.2847    0.3184    3.5230 H   0  0  0  0  0  0  0  0  0  0  0  0
    2.6790   -0.7137    3.7740 H   0  0  0  0  0  0  0  0  0  0  0  0
    7.0212   -1.8517    1.6998 H   0  0  0  0  0  0  0  0  0  0  0  0
    9.5361   -1.4346   -2.1235 H   0  0  0  0  0  0  0  0  0  0  0  0
    9.1226   -0.5776   -4.4092 H   0  0  0  0  0  0  0  0  0  0  0  0
    6.8761    0.3346   -4.9985 H   0  0  0  0  0  0  0  0  0  0  0  0
    5.0867    0.3702   -3.2914 H   0  0  0  0  0  0  0  0  0  0  0  0
   -0.9628    1.9570    0.2930 H   0  0  0  0  0  0  0  0  0  0  0  0
   -4.5391    1.6817    0.7455 H   0  0  0  0  0  0  0  0  0  0  0  0
   -3.1902    2.7623    0.6375 H   0  0  0  0  0  0  0  0  0  0  0  0
   -1.9748    3.1100   -1.5544 H   0  0  0  0  0  0  0  0  0  0  0  0
   -2.2161    3.2195   -3.9680 H   0  0  0  0  0  0  0  0  0  0  0  0
   -2.3425    2.2921   -6.1489 H   0  0  0  0  0  0  0  0  0  0  0  0
   -3.3747    3.7643   -5.9684 H   0  0  0  0  0  0  0  0  0  0  0  0
   -3.6986    2.5849   -7.2450 H   0  0  0  0  0  0  0  0  0  0  0  0
   -5.7265    0.7372   -3.7479 H   0  0  0  0  0  0  0  0  0  0  0  0
   -5.4899    0.6180   -1.3011 H   0  0  0  0  0  0  0  0  0  0  0  0
  1  2  1  0
  2  3  1  0
  3  4  1  0
  4  5  2  3
  5  6  1  0
  6  7  2  0
  7  8  1  0
  8  9  2  0
  9 10  1  0
 10 11  2  0
 10 12  1  0
 12 13  1  0
 12 14  1  0
 14 15  1  0
 15 16  2  0
 15 17  1  0
 17 18  2  0
 18 19  1  0
 19 20  2  0
 20 21  1  0
 21 22  2  0
 22 23  1  0
 23 24  2  0
 24 25  1  0
 25 26  2  0
 12 27  1  0
 27 28  2  0
 27 29  1  0
 29 30  2  0
 30 31  1  0
 31 32  1  0
 32 33  1  0
 33 34  2  0
 34 35  1  0
 35 36  2  0
 36 37  1  0
 37 38  1  0
 36 39  1  0
 39 40  2  0
 31  6  1  0
 40 33  1  0
 29  8  1  0
 26 17  1  0
 25 20  1  0
  1 41  1  0
  1 42  1  0
  1 43  1  0
  3 44  1  0
  3 45  1  0
  4 46  1  0
  5 47  1  0
  7 48  1  0
  9 49  1  0
 13 50  1  0
 13 51  1  0
 13 52  1  0
 18 53  1  0
 21 54  1  0
 22 55  1  0
 23 56  1  0
 24 57  1  0
 30 58  1  0
 32 59  1  0
 32 60  1  0
 34 61  1  0
 35 62  1  0
 38 63  1  0
 38 64  1  0
 38 65  1  0
 39 66  1  0
 40 67  1  0
M  END
$$$$
