
     RDKit          3D

 55 57  0  0  0  0  0  0  0  0999 V2000
   -0.9505    3.3510    1.4890 O   0  0  0  0  0  0  0  0  0  0  0  0
   -0.3883    2.3858    1.9988 C   0  0  0  0  0  0  0  0  0  0  0  0
   -1.0595    1.2653    2.4321 N   0  0  0  0  0  0  0  0  0  0  0  0
   -2.4893    1.0973    2.2531 C   0  0  0  0  0  0  0  0  0  0  0  0
   -2.8018    0.0393    1.1931 C   0  0  0  0  0  0  0  0  0  0  0  0
   -2.3709    0.4596   -0.2170 C   0  0  0  0  0  0  0  0  0  0  0  0
   -2.6069   -0.6426   -1.2510 C   0  0  0  0  0  0  0  0  0  0  0  0
   -2.1207   -0.2532   -2.6448 C   0  0  0  0  0  0  0  0  0  0  0  0
   -2.7759   -1.2961   -3.5365 C   0  0  0  0  0  0  0  0  0  0  0  0
   -4.1445   -1.5467   -2.9093 C   0  0  0  0  0  0  0  0  0  0  0  0
   -4.0790   -0.9834   -1.4888 C   0  0  0  0  0  0  0  0  0  0  0  0
    1.1295    2.3227    2.0947 C   0  0  0  0  0  0  0  0  0  0  0  0
    1.6500    1.9091    3.4781 C   0  0  0  0  0  0  0  0  0  0  0  0
    2.2799    0.5221    3.4792 C   0  0  0  0  0  0  0  0  0  0  0  0
    3.3485    0.4030    2.4112 C   0  0  0  0  0  0  0  0  0  0  0  0
    4.3996   -0.1958    2.6220 O   0  0  0  0  0  0  0  0  0  0  0  0
    3.0076    0.9720    1.1908 N   0  0  0  0  0  0  0  0  0  0  0  0
    3.8506    0.7140    0.0264 C   0  0  0  0  0  0  0  0  0  0  0  0
    3.3380   -0.4425   -0.8038 C   0  0  0  0  0  0  0  0  0  0  0  0
    2.5945   -0.2118   -1.9714 C   0  0  0  0  0  0  0  0  0  0  0  0
    2.0863   -1.2830   -2.7100 C   0  0  0  0  0  0  0  0  0  0  0  0
    2.3183   -2.5894   -2.2851 C   0  0  0  0  0  0  0  0  0  0  0  0
    1.6792   -3.9060   -3.1899 Cl  0  0  0  0  0  0  0  0  0  0  0  0
    3.0578   -2.8355   -1.1307 C   0  0  0  0  0  0  0  0  0  0  0  0
    3.5648   -1.7646   -0.3914 C   0  0  0  0  0  0  0  0  0  0  0  0
    1.6418    1.4276    0.9663 C   0  0  0  0  0  0  0  0  0  0  0  0
   -0.5523    0.4969    2.8483 H   0  0  0  0  0  0  0  0  0  0  0  0
   -2.9623    2.0515    1.9982 H   0  0  0  0  0  0  0  0  0  0  0  0
   -2.8870    0.7713    3.2201 H   0  0  0  0  0  0  0  0  0  0  0  0
   -3.8811   -0.1512    1.2039 H   0  0  0  0  0  0  0  0  0  0  0  0
   -2.3050   -0.9022    1.4605 H   0  0  0  0  0  0  0  0  0  0  0  0
   -2.9077    1.3722   -0.5052 H   0  0  0  0  0  0  0  0  0  0  0  0
   -1.3036    0.7080   -0.2203 H   0  0  0  0  0  0  0  0  0  0  0  0
   -2.0774   -1.5518   -0.9354 H   0  0  0  0  0  0  0  0  0  0  0  0
   -2.4693    0.7496   -2.9189 H   0  0  0  0  0  0  0  0  0  0  0  0
   -1.0301   -0.2703   -2.7256 H   0  0  0  0  0  0  0  0  0  0  0  0
   -2.1887   -2.2222   -3.5242 H   0  0  0  0  0  0  0  0  0  0  0  0
   -2.8515   -0.9633   -4.5762 H   0  0  0  0  0  0  0  0  0  0  0  0
   -4.3810   -2.6157   -2.9070 H   0  0  0  0  0  0  0  0  0  0  0  0
   -4.9324   -1.0409   -3.4779 H   0  0  0  0  0  0  0  0  0  0  0  0
   -4.4536   -1.7032   -0.7546 H   0  0  0  0  0  0  0  0  0  0  0  0
   -4.7068   -0.0869   -1.4215 H   0  0  0  0  0  0  0  0  0  0  0  0
    1.4877    3.3469    1.9191 H   0  0  0  0  0  0  0  0  0  0  0  0
    0.8672    1.9683    4.2430 H   0  0  0  0  0  0  0  0  0  0  0  0
    2.4220    2.6307    3.7792 H   0  0  0  0  0  0  0  0  0  0  0  0
    2.7417    0.3345    4.4545 H   0  0  0  0  0  0  0  0  0  0  0  0
    1.5318   -0.2584    3.3076 H   0  0  0  0  0  0  0  0  0  0  0  0
    3.8875    1.6324   -0.5717 H   0  0  0  0  0  0  0  0  0  0  0  0
    4.8814    0.5087    0.3385 H   0  0  0  0  0  0  0  0  0  0  0  0
    2.4026    0.8040   -2.3102 H   0  0  0  0  0  0  0  0  0  0  0  0
    1.5095   -1.0918   -3.6112 H   0  0  0  0  0  0  0  0  0  0  0  0
    3.2421   -3.8537   -0.7985 H   0  0  0  0  0  0  0  0  0  0  0  0
    4.1376   -1.9630    0.5143 H   0  0  0  0  0  0  0  0  0  0  0  0
    1.0197    0.5328    0.8420 H   0  0  0  0  0  0  0  0  0  0  0  0
    1.5998    1.9874    0.0243 H   0  0  0  0  0  0  0  0  0  0  0  0
  1  2  2  0
  2  3  1  0
  3  4  1  0
  4  5  1  0
  5  6  1  0
  6  7  1  0
  7  8  1  0
  8  9  1  0
  9 10  1  0
 10 11  1  0
  2 12  1  0
 12 13  1  0
 13 14  1  0
 14 15  1  0
 15 16  2  0
 15 17  1  0
 17 18  1  0
 18 19  1  0
 19 20  2  0
 20 21  1  0
 21 22  2  0
 22 23  1  0
 22 24  1  0
 24 25  2  0
 17 26  1  0
 11  7  1  0
 26 12  1  0
 25 19  1  0
  3 27  1  0
  4 28  1  0
  4 29  1  0
  5 30  1  0
  5 31  1  0
  6 32  1  0
  6 33  1  0
  7 34  1  0
  8 35  1  0
  8 36  1  0
  9 37  1  0
  9 38  1  0
 10 39  1  0
 10 40  1  0
 11 41  1  0
 11 42  1  0
 12 43  1  0
 13 44  1  0
 13 45  1  0
 14 46  1  0
 14 47  1  0
 18 48  1  0
 18 49  1  0
 20 50  1  0
 21 51  1  0
 24 52  1  0
 25 53  1  0
 26 54  1  0
 26 55  1  0
M  END
$$$$
