
     RDKit          3D

 43 45  0  0  0  0  0  0  0  0999 V2000
    6.5190   -2.4179    0.0577 C   0  0  0  0  0  0  0  0  0  0  0  0
    5.7485   -1.1340   -0.0333 C   0  0  0  0  0  0  0  0  0  0  0  0
    6.4184    0.0794   -0.2098 C   0  0  0  0  0  0  0  0  0  0  0  0
    5.7007    1.2694   -0.3275 C   0  0  0  0  0  0  0  0  0  0  0  0
    4.3000    1.2652   -0.2764 C   0  0  0  0  0  0  0  0  0  0  0  0
    3.5453    2.5594   -0.4083 C   0  0  0  0  0  0  0  0  0  0  0  0
    3.6176    0.0465   -0.1110 C   0  0  0  0  0  0  0  0  0  0  0  0
    2.2503    0.1370   -0.0787 O   0  0  0  0  0  0  0  0  0  0  0  0
    1.5150   -1.0619    0.1531 C   0  0  0  0  0  0  0  0  0  0  0  0
    0.0815   -0.6924    0.2213 C   0  0  0  0  0  0  0  0  0  0  0  0
   -0.6317    0.4758    0.1137 C   0  0  0  0  0  0  0  0  0  0  0  0
   -1.9923    0.0990    0.2882 C   0  0  0  0  0  0  0  0  0  0  0  0
   -3.1385    1.0241    0.3055 C   0  0  0  0  0  0  0  0  0  0  0  0
   -2.9360    2.2273    0.4879 O   0  0  0  0  0  0  0  0  0  0  0  0
   -4.4480    0.5569    0.1173 N   0  0  0  0  0  0  0  0  0  0  0  0
   -4.8223   -0.8322   -0.1556 C   0  0  0  0  0  0  0  0  0  0  0  0
   -6.1704   -0.9256   -0.8677 C   0  0  0  0  0  0  0  0  0  0  0  0
   -7.2042   -0.2185   -0.1547 N   0  0  0  0  0  0  0  0  0  0  0  0
   -6.9771    1.0286    0.3648 C   0  0  0  0  0  0  0  0  0  0  0  0
   -7.9273    1.7346    0.6960 O   0  0  0  0  0  0  0  0  0  0  0  0
   -5.5171    1.4722    0.5382 C   0  0  0  0  0  0  0  0  0  0  0  0
   -2.0742   -1.2237    0.5142 N   0  0  0  0  0  0  0  0  0  0  0  0
   -0.7854   -1.7126    0.4538 O   0  0  0  0  0  0  0  0  0  0  0  0
    4.3458   -1.1442    0.0000 C   0  0  0  0  0  0  0  0  0  0  0  0
    6.6441   -2.8501   -0.9394 H   0  0  0  0  0  0  0  0  0  0  0  0
    7.5080   -2.2514    0.4974 H   0  0  0  0  0  0  0  0  0  0  0  0
    5.9988   -3.1403    0.6948 H   0  0  0  0  0  0  0  0  0  0  0  0
    7.5048    0.1077   -0.2574 H   0  0  0  0  0  0  0  0  0  0  0  0
    6.2435    2.2028   -0.4602 H   0  0  0  0  0  0  0  0  0  0  0  0
    2.9114    2.5361   -1.3005 H   0  0  0  0  0  0  0  0  0  0  0  0
    2.9227    2.7280    0.4766 H   0  0  0  0  0  0  0  0  0  0  0  0
    4.2242    3.4137   -0.5029 H   0  0  0  0  0  0  0  0  0  0  0  0
    1.8118   -1.5181    1.1052 H   0  0  0  0  0  0  0  0  0  0  0  0
    1.6669   -1.7650   -0.6745 H   0  0  0  0  0  0  0  0  0  0  0  0
   -0.2395    1.4685   -0.0588 H   0  0  0  0  0  0  0  0  0  0  0  0
   -4.8605   -1.3549    0.8069 H   0  0  0  0  0  0  0  0  0  0  0  0
   -4.0744   -1.3064   -0.7949 H   0  0  0  0  0  0  0  0  0  0  0  0
   -6.1039   -0.4790   -1.8662 H   0  0  0  0  0  0  0  0  0  0  0  0
   -6.4836   -1.9684   -0.9734 H   0  0  0  0  0  0  0  0  0  0  0  0
   -8.1798   -0.4208   -0.3401 H   0  0  0  0  0  0  0  0  0  0  0  0
   -5.3927    2.4138   -0.0097 H   0  0  0  0  0  0  0  0  0  0  0  0
   -5.3679    1.6738    1.6066 H   0  0  0  0  0  0  0  0  0  0  0  0
    3.8483   -2.1023    0.1130 H   0  0  0  0  0  0  0  0  0  0  0  0
  1  2  1  0
  2  3  2  0
  3  4  1  0
  4  5  2  0
  5  6  1  0
  5  7  1  0
  7  8  1  0
  8  9  1  0
  9 10  1  0
 10 11  2  0
 11 12  1  0
 12 13  1  0
 13 14  2  0
 13 15  1  0
 15 16  1  0
 16 17  1  0
 17 18  1  0
 18 19  1  0
 19 20  2  0
 19 21  1  0
 12 22  2  0
 22 23  1  0
  7 24  2  0
 24  2  1  0
 23 10  1  0
 21 15  1  0
  1 25  1  0
  1 26  1  0
  1 27  1  0
  3 28  1  0
  4 29  1  0
  6 30  1  0
  6 31  1  0
  6 32  1  0
  9 33  1  0
  9 34  1  0
 11 35  1  0
 16 36  1  0
 16 37  1  0
 17 38  1  0
 17 39  1  0
 18 40  1  0
 21 41  1  0
 21 42  1  0
 24 43  1  0
M  END
$$$$
