
     RDKit          3D

 54 57  0  0  0  0  0  0  0  0999 V2000
   -4.8688    1.5868    1.1828 C   0  0  0  0  0  0  0  0  0  0  0  0
   -3.3636    1.7407    1.4561 C   0  0  0  0  0  0  0  0  0  0  0  0
   -3.0792    3.1338    2.0498 C   0  0  0  0  0  0  0  0  0  0  0  0
   -3.5241    3.2641    3.5040 C   0  0  0  0  0  0  0  0  0  0  0  0
   -2.9023    2.1864    4.3833 C   0  0  0  0  0  0  0  0  0  0  0  0
   -3.1624    0.7799    3.8475 C   0  0  0  0  0  0  0  0  0  0  0  0
   -2.8054    0.6175    2.3661 C   0  0  0  0  0  0  0  0  0  0  0  0
   -3.1948   -0.7027    1.8960 N   0  0  0  0  0  0  0  0  0  0  0  0
   -2.1479   -1.4156    1.3662 C   0  0  0  0  0  0  0  0  0  0  0  0
   -2.2626   -2.5067    0.8332 O   0  0  0  0  0  0  0  0  0  0  0  0
   -1.0071   -0.7091    1.5591 N   0  0  0  0  0  0  0  0  0  0  0  0
    0.2878   -1.1110    1.0696 C   0  0  0  0  0  0  0  0  0  0  0  0
    0.4631   -0.6098   -0.3649 C   0  0  0  0  0  0  0  0  0  0  0  0
   -0.3292    0.1417   -0.9282 O   0  0  0  0  0  0  0  0  0  0  0  0
    1.6124   -1.0727   -0.9695 N   0  0  0  0  0  0  0  0  0  0  0  0
    1.9787   -0.6954   -2.3269 C   0  0  0  0  0  0  0  0  0  0  0  0
    2.6181    0.7016   -2.3592 C   0  0  0  0  0  0  0  0  0  0  0  0
    4.0439    0.6661   -1.8182 C   0  0  0  0  0  0  0  0  0  0  0  0
    4.9237   -0.2353   -2.6809 C   0  0  0  0  0  0  0  0  0  0  0  0
    4.2830   -1.5595   -3.0177 C   0  0  0  0  0  0  0  0  0  0  0  0
    5.0880   -2.5923   -3.5232 C   0  0  0  0  0  0  0  0  0  0  0  0
    4.5303   -3.8179   -3.8868 C   0  0  0  0  0  0  0  0  0  0  0  0
    3.1601   -4.0240   -3.7587 C   0  0  0  0  0  0  0  0  0  0  0  0
    2.3471   -3.0040   -3.2664 C   0  0  0  0  0  0  0  0  0  0  0  0
    2.8945   -1.7620   -2.8975 C   0  0  0  0  0  0  0  0  0  0  0  0
   -1.2720    0.4842    2.1664 C   0  0  0  0  0  0  0  0  0  0  0  0
   -0.4319    1.3155    2.4866 O   0  0  0  0  0  0  0  0  0  0  0  0
   -5.2476    2.4384    0.6067 H   0  0  0  0  0  0  0  0  0  0  0  0
   -5.4505    1.5205    2.1071 H   0  0  0  0  0  0  0  0  0  0  0  0
   -5.0712    0.6876    0.5922 H   0  0  0  0  0  0  0  0  0  0  0  0
   -2.8632    1.6959    0.4784 H   0  0  0  0  0  0  0  0  0  0  0  0
   -2.0044    3.3436    1.9877 H   0  0  0  0  0  0  0  0  0  0  0  0
   -3.5708    3.9079    1.4480 H   0  0  0  0  0  0  0  0  0  0  0  0
   -4.6170    3.2065    3.5684 H   0  0  0  0  0  0  0  0  0  0  0  0
   -3.2406    4.2525    3.8845 H   0  0  0  0  0  0  0  0  0  0  0  0
   -3.3030    2.2684    5.4005 H   0  0  0  0  0  0  0  0  0  0  0  0
   -1.8228    2.3593    4.4621 H   0  0  0  0  0  0  0  0  0  0  0  0
   -4.2236    0.5399    3.9957 H   0  0  0  0  0  0  0  0  0  0  0  0
   -2.6024    0.0601    4.4589 H   0  0  0  0  0  0  0  0  0  0  0  0
   -4.1422   -1.0422    1.7970 H   0  0  0  0  0  0  0  0  0  0  0  0
    1.0734   -0.6726    1.6931 H   0  0  0  0  0  0  0  0  0  0  0  0
    0.3609   -2.2032    1.0785 H   0  0  0  0  0  0  0  0  0  0  0  0
    2.2683   -1.6410   -0.4496 H   0  0  0  0  0  0  0  0  0  0  0  0
    1.0606   -0.6550   -2.9272 H   0  0  0  0  0  0  0  0  0  0  0  0
    2.6392    1.0689   -3.3941 H   0  0  0  0  0  0  0  0  0  0  0  0
    2.0217    1.4169   -1.7814 H   0  0  0  0  0  0  0  0  0  0  0  0
    4.0417    0.3043   -0.7824 H   0  0  0  0  0  0  0  0  0  0  0  0
    4.4648    1.6779   -1.7993 H   0  0  0  0  0  0  0  0  0  0  0  0
    5.1534    0.2786   -3.6226 H   0  0  0  0  0  0  0  0  0  0  0  0
    5.8717   -0.4038   -2.1564 H   0  0  0  0  0  0  0  0  0  0  0  0
    6.1594   -2.4439   -3.6386 H   0  0  0  0  0  0  0  0  0  0  0  0
    5.1651   -4.6100   -4.2755 H   0  0  0  0  0  0  0  0  0  0  0  0
    2.7230   -4.9775   -4.0443 H   0  0  0  0  0  0  0  0  0  0  0  0
    1.2766   -3.1784   -3.1688 H   0  0  0  0  0  0  0  0  0  0  0  0
  1  2  1  0
  2  3  1  0
  3  4  1  0
  4  5  1  0
  5  6  1  0
  6  7  1  0
  7  8  1  0
  8  9  1  0
  9 10  2  0
  9 11  1  0
 11 12  1  0
 12 13  1  0
 13 14  2  0
 13 15  1  0
 15 16  1  0
 16 17  1  0
 17 18  1  0
 18 19  1  0
 19 20  1  0
 20 21  2  0
 21 22  1  0
 22 23  2  0
 23 24  1  0
 24 25  2  0
 11 26  1  0
 26 27  2  0
  7  2  1  0
 25 16  1  0
 26  7  1  0
 25 20  1  0
  1 28  1  0
  1 29  1  0
  1 30  1  0
  2 31  1  0
  3 32  1  0
  3 33  1  0
  4 34  1  0
  4 35  1  0
  5 36  1  0
  5 37  1  0
  6 38  1  0
  6 39  1  0
  8 40  1  0
 12 41  1  0
 12 42  1  0
 15 43  1  0
 16 44  1  0
 17 45  1  0
 17 46  1  0
 18 47  1  0
 18 48  1  0
 19 49  1  0
 19 50  1  0
 21 51  1  0
 22 52  1  0
 23 53  1  0
 24 54  1  0
M  END
$$$$
