
     RDKit          3D

 57 59  0  0  0  0  0  0  0  0999 V2000
    6.3159   -1.2192   -0.0001 C   0  0  0  0  0  0  0  0  0  0  0  0
    5.8751    0.1432    0.4634 C   0  0  0  0  0  0  0  0  0  0  0  0
    6.7527    1.2329    0.3556 C   0  0  0  0  0  0  0  0  0  0  0  0
    6.3584    2.5042    0.7717 C   0  0  0  0  0  0  0  0  0  0  0  0
    5.0832    2.6983    1.2952 C   0  0  0  0  0  0  0  0  0  0  0  0
    4.1997    1.6225    1.4067 C   0  0  0  0  0  0  0  0  0  0  0  0
    4.5862    0.3423    0.9927 C   0  0  0  0  0  0  0  0  0  0  0  0
    3.7976   -0.7756    1.0637 O   0  0  0  0  0  0  0  0  0  0  0  0
    2.4571   -0.6132    1.5340 C   0  0  0  0  0  0  0  0  0  0  0  0
    1.7605   -1.9798    1.4960 C   0  0  0  0  0  0  0  0  0  0  0  0
    1.6182   -2.4957    0.1269 N   0  0  0  0  0  0  0  0  0  0  0  0
    0.7355   -1.9109   -0.7983 C   0  0  0  0  0  0  0  0  0  0  0  0
   -0.4481   -1.2627   -0.3781 C   0  0  0  0  0  0  0  0  0  0  0  0
   -1.4169   -0.7307   -1.2591 C   0  0  0  0  0  0  0  0  0  0  0  0
   -2.5511   -0.0842   -0.7955 N   0  0  0  0  0  0  0  0  0  0  0  0
   -3.7685    0.0249   -1.6202 C   0  0  0  0  0  0  0  0  0  0  0  0
   -5.0316    0.0526   -0.7267 C   0  0  0  0  0  0  0  0  0  0  0  0
   -5.0827    1.1900    0.2231 N   0  0  0  0  0  0  0  0  0  0  0  0
   -6.0068    0.8734    1.3343 C   0  0  0  0  0  0  0  0  0  0  0  0
   -6.4415    2.1341    2.0972 C   0  0  0  0  0  0  0  0  0  0  0  0
   -6.9082    3.1198    1.1762 O   0  0  0  0  0  0  0  0  0  0  0  0
   -3.7201    1.5464    0.6854 C   0  0  0  0  0  0  0  0  0  0  0  0
   -2.6528    0.4285    0.5811 C   0  0  0  0  0  0  0  0  0  0  0  0
   -1.1755   -0.8921   -2.6296 C   0  0  0  0  0  0  0  0  0  0  0  0
   -0.0460   -1.5628   -3.0995 C   0  0  0  0  0  0  0  0  0  0  0  0
    0.8879   -2.0778   -2.1897 C   0  0  0  0  0  0  0  0  0  0  0  0
    2.0412   -2.7879   -2.7489 N   0  0  0  0  0  4  0  0  0  0  0  0
    3.1258   -2.7036   -2.1504 O   0  0  0  0  0  0  0  0  0  0  0  0
    1.8698   -3.4144   -3.8066 O   0  0  0  0  0  1  0  0  0  0  0  0
    7.3567   -1.2096   -0.3404 H   0  0  0  0  0  0  0  0  0  0  0  0
    6.2447   -1.9413    0.8194 H   0  0  0  0  0  0  0  0  0  0  0  0
    5.6940   -1.5533   -0.8368 H   0  0  0  0  0  0  0  0  0  0  0  0
    7.7507    1.0955   -0.0558 H   0  0  0  0  0  0  0  0  0  0  0  0
    7.0456    3.3424    0.6858 H   0  0  0  0  0  0  0  0  0  0  0  0
    4.7741    3.6896    1.6170 H   0  0  0  0  0  0  0  0  0  0  0  0
    3.2166    1.8198    1.8213 H   0  0  0  0  0  0  0  0  0  0  0  0
    2.4729   -0.2625    2.5726 H   0  0  0  0  0  0  0  0  0  0  0  0
    1.9189    0.1057    0.9060 H   0  0  0  0  0  0  0  0  0  0  0  0
    0.7978   -1.9453    2.0147 H   0  0  0  0  0  0  0  0  0  0  0  0
    2.3784   -2.7027    2.0419 H   0  0  0  0  0  0  0  0  0  0  0  0
    2.5541   -2.6223   -0.2875 H   0  0  0  0  0  0  0  0  0  0  0  0
   -0.6483   -1.1954    0.6860 H   0  0  0  0  0  0  0  0  0  0  0  0
   -3.7173    0.9349   -2.2311 H   0  0  0  0  0  0  0  0  0  0  0  0
   -3.8667   -0.8344   -2.2951 H   0  0  0  0  0  0  0  0  0  0  0  0
   -5.9214    0.0929   -1.3679 H   0  0  0  0  0  0  0  0  0  0  0  0
   -5.0707   -0.8993   -0.1799 H   0  0  0  0  0  0  0  0  0  0  0  0
   -6.9196    0.4360    0.9080 H   0  0  0  0  0  0  0  0  0  0  0  0
   -5.5755    0.1347    2.0209 H   0  0  0  0  0  0  0  0  0  0  0  0
   -5.6201    2.5677    2.6756 H   0  0  0  0  0  0  0  0  0  0  0  0
   -7.2550    1.8997    2.7906 H   0  0  0  0  0  0  0  0  0  0  0  0
   -6.3361    3.0179    0.3875 H   0  0  0  0  0  0  0  0  0  0  0  0
   -3.7254    1.9366    1.7087 H   0  0  0  0  0  0  0  0  0  0  0  0
   -3.3886    2.3831    0.0557 H   0  0  0  0  0  0  0  0  0  0  0  0
   -2.9073   -0.3921    1.2639 H   0  0  0  0  0  0  0  0  0  0  0  0
   -1.6963    0.8600    0.9031 H   0  0  0  0  0  0  0  0  0  0  0  0
   -1.8638   -0.4844   -3.3664 H   0  0  0  0  0  0  0  0  0  0  0  0
    0.0926   -1.6762   -4.1735 H   0  0  0  0  0  0  0  0  0  0  0  0
  1  2  1  0
  2  3  2  0
  3  4  1  0
  4  5  2  0
  5  6  1  0
  6  7  2  0
  7  8  1  0
  8  9  1  0
  9 10  1  0
 10 11  1  0
 11 12  1  0
 12 13  2  0
 13 14  1  0
 14 15  1  0
 15 16  1  0
 16 17  1  0
 17 18  1  0
 18 19  1  0
 19 20  1  0
 20 21  1  0
 18 22  1  0
 22 23  1  0
 14 24  2  0
 24 25  1  0
 25 26  2  0
 26 27  1  0
 27 28  2  0
 27 29  1  0
  7  2  1  0
 26 12  1  0
 23 15  1  0
  1 30  1  0
  1 31  1  0
  1 32  1  0
  3 33  1  0
  4 34  1  0
  5 35  1  0
  6 36  1  0
  9 37  1  0
  9 38  1  0
 10 39  1  0
 10 40  1  0
 11 41  1  0
 13 42  1  0
 16 43  1  0
 16 44  1  0
 17 45  1  0
 17 46  1  0
 19 47  1  0
 19 48  1  0
 20 49  1  0
 20 50  1  0
 21 51  1  0
 22 52  1  0
 22 53  1  0
 23 54  1  0
 23 55  1  0
 24 56  1  0
 25 57  1  0
M  CHG  2  27   1  29  -1
M  END
$$$$
