
     RDKit          3D

 55 57  0  0  0  0  0  0  0  0999 V2000
    7.4323   -2.4830    1.8101 C   0  0  0  0  0  0  0  0  0  0  0  0
    6.2392   -1.5471    1.9256 C   0  0  0  0  0  0  0  0  0  0  0  0
    5.7773   -1.2615    0.6084 O   0  0  0  0  0  0  0  0  0  0  0  0
    4.6621   -0.4789    0.4770 C   0  0  0  0  0  0  0  0  0  0  0  0
    3.9946    0.1370    1.5388 C   0  0  0  0  0  0  0  0  0  0  0  0
    2.8555    0.9144    1.3010 C   0  0  0  0  0  0  0  0  0  0  0  0
    2.3596    1.0813    0.0011 C   0  0  0  0  0  0  0  0  0  0  0  0
    1.1172    1.8884   -0.1732 C   0  0  0  0  0  0  0  0  0  0  0  0
    0.8546    2.7500    0.6635 O   0  0  0  0  0  0  0  0  0  0  0  0
    0.1777    1.5834   -1.3201 C   0  0  0  0  0  0  0  0  0  0  0  0
   -0.5533    2.8172   -1.7450 C   0  0  0  0  0  0  0  0  0  0  0  0
   -0.1247    3.6889   -2.4772 O   0  0  0  0  0  0  0  0  0  0  0  0
   -1.9520    2.8051   -1.1397 C   0  0  0  0  0  0  0  0  0  0  0  0
   -2.7625    3.7005   -1.2519 O   0  0  0  0  0  0  0  0  0  0  0  0
   -2.1055    1.5652   -0.5401 N   0  0  0  0  0  0  0  0  0  0  0  0
   -3.4443    1.0802   -0.2027 C   0  0  0  0  0  0  0  0  0  0  0  0
   -4.2747    0.6628   -1.4362 C   0  0  0  0  0  0  0  0  0  0  0  0
   -5.5851    0.0751   -1.0993 N   0  0  0  0  0  0  0  0  0  0  0  0
   -6.1936   -0.5101   -2.2979 C   0  0  0  0  0  0  0  0  0  0  0  0
   -6.4928    1.0761   -0.5297 C   0  0  0  0  0  0  0  0  0  0  0  0
   -1.0133    0.6813   -0.9287 C   0  0  0  0  0  0  0  0  0  0  0  0
   -0.6701   -0.4141    0.0578 C   0  0  0  0  0  0  0  0  0  0  0  0
   -0.2206   -1.6575   -0.4154 C   0  0  0  0  0  0  0  0  0  0  0  0
    0.1630   -2.6610    0.4752 C   0  0  0  0  0  0  0  0  0  0  0  0
    0.1027   -2.4375    1.8485 C   0  0  0  0  0  0  0  0  0  0  0  0
   -0.3408   -1.2104    2.3339 C   0  0  0  0  0  0  0  0  0  0  0  0
   -0.7214   -0.2036    1.4455 C   0  0  0  0  0  0  0  0  0  0  0  0
    3.0347    0.4915   -1.0686 C   0  0  0  0  0  0  0  0  0  0  0  0
    4.1755   -0.2842   -0.8272 C   0  0  0  0  0  0  0  0  0  0  0  0
    4.9598   -1.0002   -2.1970 Cl  0  0  0  0  0  0  0  0  0  0  0  0
    8.2316   -2.0182    1.2225 H   0  0  0  0  0  0  0  0  0  0  0  0
    7.8247   -2.7392    2.7976 H   0  0  0  0  0  0  0  0  0  0  0  0
    7.1506   -3.4066    1.2926 H   0  0  0  0  0  0  0  0  0  0  0  0
    6.5553   -0.6234    2.4247 H   0  0  0  0  0  0  0  0  0  0  0  0
    5.4516   -2.0416    2.5068 H   0  0  0  0  0  0  0  0  0  0  0  0
    4.3309    0.0370    2.5673 H   0  0  0  0  0  0  0  0  0  0  0  0
    2.3467    1.3803    2.1455 H   0  0  0  0  0  0  0  0  0  0  0  0
    0.6939    1.1713   -2.1885 H   0  0  0  0  0  0  0  0  0  0  0  0
   -3.9489    1.8986    0.3232 H   0  0  0  0  0  0  0  0  0  0  0  0
   -3.3548    0.2454    0.4987 H   0  0  0  0  0  0  0  0  0  0  0  0
   -4.3959    1.5167   -2.1149 H   0  0  0  0  0  0  0  0  0  0  0  0
   -3.6899   -0.0856   -1.9854 H   0  0  0  0  0  0  0  0  0  0  0  0
   -5.5622   -1.3132   -2.6965 H   0  0  0  0  0  0  0  0  0  0  0  0
   -6.3499    0.2330   -3.0885 H   0  0  0  0  0  0  0  0  0  0  0  0
   -7.1601   -0.9669   -2.0567 H   0  0  0  0  0  0  0  0  0  0  0  0
   -6.6348    1.9330   -1.1984 H   0  0  0  0  0  0  0  0  0  0  0  0
   -7.4762    0.6345   -0.3277 H   0  0  0  0  0  0  0  0  0  0  0  0
   -6.1238    1.4412    0.4335 H   0  0  0  0  0  0  0  0  0  0  0  0
   -1.3677    0.1979   -1.8516 H   0  0  0  0  0  0  0  0  0  0  0  0
   -0.1604   -1.8593   -1.4830 H   0  0  0  0  0  0  0  0  0  0  0  0
    0.5089   -3.6201    0.0977 H   0  0  0  0  0  0  0  0  0  0  0  0
    0.3993   -3.2199    2.5406 H   0  0  0  0  0  0  0  0  0  0  0  0
   -0.3880   -1.0328    3.4053 H   0  0  0  0  0  0  0  0  0  0  0  0
   -1.0486    0.7549    1.8486 H   0  0  0  0  0  0  0  0  0  0  0  0
    2.7164    0.6340   -2.0964 H   0  0  0  0  0  0  0  0  0  0  0  0
  1  2  1  0
  2  3  1  0
  3  4  1  0
  4  5  2  0
  5  6  1  0
  6  7  2  0
  7  8  1  0
  8  9  2  0
  8 10  1  0
 10 11  1  0
 11 12  2  0
 11 13  1  0
 13 14  2  0
 13 15  1  0
 15 16  1  0
 16 17  1  0
 17 18  1  0
 18 19  1  0
 18 20  1  0
 15 21  1  0
 21 22  1  0
 22 23  2  0
 23 24  1  0
 24 25  2  0
 25 26  1  0
 26 27  2  0
  7 28  1  0
 28 29  2  0
 29 30  1  0
 29  4  1  0
 21 10  1  0
 27 22  1  0
  1 31  1  0
  1 32  1  0
  1 33  1  0
  2 34  1  0
  2 35  1  0
  5 36  1  0
  6 37  1  0
 10 38  1  0
 16 39  1  0
 16 40  1  0
 17 41  1  0
 17 42  1  0
 19 43  1  0
 19 44  1  0
 19 45  1  0
 20 46  1  0
 20 47  1  0
 20 48  1  0
 21 49  1  0
 23 50  1  0
 24 51  1  0
 25 52  1  0
 26 53  1  0
 27 54  1  0
 28 55  1  0
M  END
$$$$
