
     RDKit          3D

 66 68  0  0  0  0  0  0  0  0999 V2000
   -2.3092    6.4538    1.4741 C   0  0  0  0  0  0  0  0  0  0  0  0
   -2.1893    5.0724    1.7888 O   0  0  0  0  0  0  0  0  0  0  0  0
   -3.4738    4.4503    1.9182 C   0  0  0  0  0  0  0  0  0  0  0  0
   -3.2778    2.9786    2.2805 C   0  0  0  0  0  0  0  0  0  0  0  0
   -2.4975    2.2896    1.2524 N   0  0  0  0  0  0  0  0  0  0  0  0
   -2.2911    0.9236    1.1555 C   0  0  0  0  0  0  0  0  0  0  0  0
   -3.0789   -0.1923    2.1245 S   0  0  0  0  0  0  0  0  0  0  0  0
   -1.3612    0.6294    0.1350 N   0  0  0  0  0  0  0  0  0  0  0  0
   -1.6438    1.1974   -1.1902 C   0  0  0  0  0  0  0  0  0  0  0  0
   -2.6600    0.3163   -1.9259 C   0  0  0  0  0  0  0  0  0  0  0  0
   -2.3597   -1.1653   -1.8104 C   0  0  0  0  0  0  0  0  0  0  0  0
   -3.0567   -2.0599   -2.6402 C   0  0  0  0  0  0  0  0  0  0  0  0
   -2.8363   -3.4377   -2.5562 C   0  0  0  0  0  0  0  0  0  0  0  0
   -3.4703   -4.3754   -3.3334 O   0  0  0  0  0  0  0  0  0  0  0  0
   -4.4290   -3.9145   -4.2736 C   0  0  0  0  0  0  0  0  0  0  0  0
   -1.9085   -3.9327   -1.6228 C   0  0  0  0  0  0  0  0  0  0  0  0
   -1.7308   -5.2955   -1.6105 O   0  0  0  0  0  0  0  0  0  0  0  0
   -1.0009   -5.8495   -0.5253 C   0  0  0  0  0  0  0  0  0  0  0  0
   -1.2135   -3.0420   -0.7939 C   0  0  0  0  0  0  0  0  0  0  0  0
   -1.4424   -1.6566   -0.8549 C   0  0  0  0  0  0  0  0  0  0  0  0
   -0.6453   -0.6715    0.0065 C   0  0  0  0  0  0  0  0  0  0  0  0
   -0.0280   -1.2015    1.3309 C   0  0  0  0  0  0  0  0  0  0  0  0
    1.2119   -1.8927    1.1025 O   0  0  0  0  0  0  0  0  0  0  0  0
    2.3601   -1.1615    0.9786 C   0  0  0  0  0  0  0  0  0  0  0  0
    2.4774    0.2232    1.0790 C   0  0  0  0  0  0  0  0  0  0  0  0
    3.7255    0.8388    0.9202 C   0  0  0  0  0  0  0  0  0  0  0  0
    4.8758    0.0830    0.6527 C   0  0  0  0  0  0  0  0  0  0  0  0
    6.2379    0.7310    0.4798 C   0  0  0  0  0  0  0  0  0  0  0  0
    6.7181    1.3696    1.7853 C   0  0  0  0  0  0  0  0  0  0  0  0
    6.2434    1.7523   -0.6605 C   0  0  0  0  0  0  0  0  0  0  0  0
    4.7478   -1.3082    0.5561 C   0  0  0  0  0  0  0  0  0  0  0  0
    3.5020   -1.9206    0.7184 C   0  0  0  0  0  0  0  0  0  0  0  0
   -2.8307    6.5852    0.5214 H   0  0  0  0  0  0  0  0  0  0  0  0
   -1.3042    6.8733    1.3834 H   0  0  0  0  0  0  0  0  0  0  0  0
   -2.8391    6.9834    2.2712 H   0  0  0  0  0  0  0  0  0  0  0  0
   -4.0476    4.9517    2.7055 H   0  0  0  0  0  0  0  0  0  0  0  0
   -4.0124    4.5358    0.9670 H   0  0  0  0  0  0  0  0  0  0  0  0
   -2.7182    2.8883    3.2182 H   0  0  0  0  0  0  0  0  0  0  0  0
   -4.2497    2.4893    2.3948 H   0  0  0  0  0  0  0  0  0  0  0  0
   -1.7117    2.8406    0.9238 H   0  0  0  0  0  0  0  0  0  0  0  0
   -0.7000    1.2520   -1.7465 H   0  0  0  0  0  0  0  0  0  0  0  0
   -2.0331    2.2180   -1.1258 H   0  0  0  0  0  0  0  0  0  0  0  0
   -3.6588    0.4867   -1.5043 H   0  0  0  0  0  0  0  0  0  0  0  0
   -2.6884    0.6121   -2.9811 H   0  0  0  0  0  0  0  0  0  0  0  0
   -3.7715   -1.6506   -3.3466 H   0  0  0  0  0  0  0  0  0  0  0  0
   -5.2642   -3.4128   -3.7737 H   0  0  0  0  0  0  0  0  0  0  0  0
   -4.8320   -4.7876   -4.7959 H   0  0  0  0  0  0  0  0  0  0  0  0
   -3.9664   -3.2645   -5.0237 H   0  0  0  0  0  0  0  0  0  0  0  0
   -1.4283   -5.5521    0.4380 H   0  0  0  0  0  0  0  0  0  0  0  0
    0.0581   -5.5802   -0.5894 H   0  0  0  0  0  0  0  0  0  0  0  0
   -1.0705   -6.9391   -0.5977 H   0  0  0  0  0  0  0  0  0  0  0  0
   -0.4698   -3.4205   -0.1017 H   0  0  0  0  0  0  0  0  0  0  0  0
    0.2168   -0.4309   -0.6331 H   0  0  0  0  0  0  0  0  0  0  0  0
    0.1155   -0.4127    2.0779 H   0  0  0  0  0  0  0  0  0  0  0  0
   -0.6924   -1.9368    1.7974 H   0  0  0  0  0  0  0  0  0  0  0  0
    1.6243    0.8625    1.2787 H   0  0  0  0  0  0  0  0  0  0  0  0
    3.7874    1.9211    1.0111 H   0  0  0  0  0  0  0  0  0  0  0  0
    6.9639   -0.0485    0.2133 H   0  0  0  0  0  0  0  0  0  0  0  0
    7.7317    1.7686    1.6692 H   0  0  0  0  0  0  0  0  0  0  0  0
    6.7387    0.6335    2.5966 H   0  0  0  0  0  0  0  0  0  0  0  0
    6.0688    2.1940    2.0995 H   0  0  0  0  0  0  0  0  0  0  0  0
    7.2542    2.1412   -0.8237 H   0  0  0  0  0  0  0  0  0  0  0  0
    5.5905    2.6060   -0.4506 H   0  0  0  0  0  0  0  0  0  0  0  0
    5.9044    1.2952   -1.5967 H   0  0  0  0  0  0  0  0  0  0  0  0
    5.6162   -1.9315    0.3549 H   0  0  0  0  0  0  0  0  0  0  0  0
    3.4226   -3.0023    0.6393 H   0  0  0  0  0  0  0  0  0  0  0  0
  1  2  1  0
  2  3  1  0
  3  4  1  0
  4  5  1  0
  5  6  1  0
  6  7  2  0
  6  8  1  0
  8  9  1  0
  9 10  1  0
 10 11  1  0
 11 12  2  0
 12 13  1  0
 13 14  1  0
 14 15  1  0
 13 16  2  0
 16 17  1  0
 17 18  1  0
 16 19  1  0
 19 20  2  0
 20 21  1  0
 21 22  1  0
 22 23  1  0
 23 24  1  0
 24 25  2  0
 25 26  1  0
 26 27  2  0
 27 28  1  0
 28 29  1  0
 28 30  1  0
 27 31  1  0
 31 32  2  0
 21  8  1  0
 32 24  1  0
 20 11  1  0
  1 33  1  0
  1 34  1  0
  1 35  1  0
  3 36  1  0
  3 37  1  0
  4 38  1  0
  4 39  1  0
  5 40  1  0
  9 41  1  0
  9 42  1  0
 10 43  1  0
 10 44  1  0
 12 45  1  0
 15 46  1  0
 15 47  1  0
 15 48  1  0
 18 49  1  0
 18 50  1  0
 18 51  1  0
 19 52  1  0
 21 53  1  0
 22 54  1  0
 22 55  1  0
 25 56  1  0
 26 57  1  0
 28 58  1  0
 29 59  1  0
 29 60  1  0
 29 61  1  0
 30 62  1  0
 30 63  1  0
 30 64  1  0
 31 65  1  0
 32 66  1  0
M  END
$$$$
