
     RDKit          3D

 90 91  0  0  0  0  0  0  0  0999 V2000
    4.6457   -3.0204   -0.1310 C   0  0  0  0  0  0  0  0  0  0  0  0
    3.4451   -2.1810   -0.4342 C   0  0  0  0  0  0  0  0  0  0  0  0
    2.7519   -2.3174   -1.4288 O   0  0  0  0  0  0  0  0  0  0  0  0
    3.2699   -1.2612    0.5485 O   0  0  0  0  0  0  0  0  0  0  0  0
    2.1369   -0.3608    0.4262 C   0  0  1  0  0  0  0  0  0  0  0  0
    1.0110   -0.7845    1.4114 C   0  0  2  0  0  0  0  0  0  0  0  0
    1.6105   -1.0468    2.7057 O   0  0  0  0  0  0  0  0  0  0  0  0
    1.1043   -0.3907    3.7803 C   0  0  0  0  0  0  0  0  0  0  0  0
    1.8012   -0.8539    5.0218 C   0  0  0  0  0  0  0  0  0  0  0  0
    0.1987    0.4324    3.7625 O   0  0  0  0  0  0  0  0  0  0  0  0
    0.2178   -2.0152    0.9776 C   0  0  0  0  0  0  0  0  0  0  0  0
    0.6061   -3.3313    1.6102 C   0  0  0  0  0  0  0  0  0  0  0  0
   -0.8247   -1.9788    0.1170 C   0  0  0  0  0  0  0  0  0  0  0  0
   -1.3191   -0.7881   -0.7123 C   0  0  1  0  0  0  0  0  0  0  0  0
   -1.9691   -1.2449   -2.0422 C   0  0  1  0  0  0  0  0  0  0  0  0
   -1.2758   -2.3244   -2.6706 O   0  0  0  0  0  0  0  0  0  0  0  0
   -0.1581   -1.9591   -3.3631 C   0  0  0  0  0  0  0  0  0  0  0  0
    0.4992   -3.1643   -3.9632 C   0  0  0  0  0  0  0  0  0  0  0  0
    0.2579   -0.8139   -3.4794 O   0  0  0  0  0  0  0  0  0  0  0  0
   -3.4321   -1.5792   -1.6881 C   0  0  1  0  0  0  0  0  0  0  0  0
   -3.8127   -3.0531   -1.6969 C   0  0  0  0  0  0  0  0  0  0  0  0
   -3.6657   -0.9156   -0.3174 C   0  0  0  0  0  0  0  0  0  0  0  0
   -2.4671    0.0576   -0.0742 C   0  0  1  0  0  0  0  0  0  0  0  0
   -2.2127    0.2108    1.3518 O   0  0  0  0  0  0  0  0  0  0  0  0
   -3.2436    0.5994    2.1560 C   0  0  0  0  0  0  0  0  0  0  0  0
   -2.8158    0.6787    3.5868 C   0  0  0  0  0  0  0  0  0  0  0  0
   -4.3781    0.8625    1.7779 O   0  0  0  0  0  0  0  0  0  0  0  0
   -2.6594    1.5046   -0.7115 C   0  0  2  0  0  0  0  0  0  0  0  0
   -3.6855    1.4202   -1.7424 O   0  0  0  0  0  0  0  0  0  0  0  0
   -4.7314    2.2896   -1.6610 C   0  0  0  0  0  0  0  0  0  0  0  0
   -5.7450    1.9662   -2.7168 C   0  0  0  0  0  0  0  0  0  0  0  0
   -4.8343    3.2122   -0.8664 O   0  0  0  0  0  0  0  0  0  0  0  0
   -1.4199    2.2106   -1.3611 C   0  0  1  0  0  0  0  0  0  0  0  0
   -1.7563    3.6572   -1.7718 C   0  0  0  0  0  0  0  0  0  0  0  0
   -0.1377    2.2631   -0.5469 C   0  0  0  0  0  0  0  0  0  0  0  0
    1.0589    2.0350   -1.1250 C   0  0  0  0  0  0  0  0  0  0  0  0
    2.4486    2.0733   -0.4886 C   0  0  0  0  0  0  0  0  0  0  0  0
    3.4924    1.7097   -1.5714 C   0  0  0  0  0  0  0  0  0  0  0  0
    2.7433    3.5229   -0.0389 C   0  0  0  0  0  0  0  0  0  0  0  0
    2.5837    1.1061    0.7402 C   0  0  2  0  0  0  0  0  0  0  0  0
    3.9665    1.1171    1.1890 O   0  0  0  0  0  0  0  0  0  0  0  0
    4.1911    1.3340    2.5102 C   0  0  0  0  0  0  0  0  0  0  0  0
    5.6545    1.2099    2.8106 C   0  0  0  0  0  0  0  0  0  0  0  0
    3.3365    1.5721    3.3484 O   0  0  0  0  0  0  0  0  0  0  0  0
    4.4997   -3.5597    0.8068 H   0  0  0  0  0  0  0  0  0  0  0  0
    5.5351   -2.3863   -0.0751 H   0  0  0  0  0  0  0  0  0  0  0  0
    4.7883   -3.7532   -0.9354 H   0  0  0  0  0  0  0  0  0  0  0  0
    1.7350   -0.4009   -0.5889 H   0  0  0  0  0  0  0  0  0  0  0  0
    0.2982    0.0433    1.4874 H   0  0  0  0  0  0  0  0  0  0  0  0
    1.3724   -0.3407    5.8885 H   0  0  0  0  0  0  0  0  0  0  0  0
    2.8701   -0.6197    4.9719 H   0  0  0  0  0  0  0  0  0  0  0  0
    1.6397   -1.9272    5.1499 H   0  0  0  0  0  0  0  0  0  0  0  0
    1.6826   -3.4995    1.5272 H   0  0  0  0  0  0  0  0  0  0  0  0
    0.1145   -4.1827    1.1302 H   0  0  0  0  0  0  0  0  0  0  0  0
    0.3309   -3.3421    2.6704 H   0  0  0  0  0  0  0  0  0  0  0  0
   -1.3478   -2.9192   -0.0659 H   0  0  0  0  0  0  0  0  0  0  0  0
   -0.4387   -0.2000   -0.9449 H   0  0  0  0  0  0  0  0  0  0  0  0
   -2.0115   -0.4036   -2.7470 H   0  0  0  0  0  0  0  0  0  0  0  0
   -0.2615   -3.8772   -4.3019 H   0  0  0  0  0  0  0  0  0  0  0  0
    1.0843   -2.8632   -4.8382 H   0  0  0  0  0  0  0  0  0  0  0  0
    1.1519   -3.6379   -3.2268 H   0  0  0  0  0  0  0  0  0  0  0  0
   -4.0776   -1.0899   -2.4269 H   0  0  0  0  0  0  0  0  0  0  0  0
   -3.6924   -3.4789   -2.6970 H   0  0  0  0  0  0  0  0  0  0  0  0
   -3.2027   -3.6419   -1.0069 H   0  0  0  0  0  0  0  0  0  0  0  0
   -4.8619   -3.1820   -1.4051 H   0  0  0  0  0  0  0  0  0  0  0  0
   -4.6390   -0.4143   -0.2971 H   0  0  0  0  0  0  0  0  0  0  0  0
   -3.7001   -1.6737    0.4773 H   0  0  0  0  0  0  0  0  0  0  0  0
   -2.1543    1.5367    3.7198 H   0  0  0  0  0  0  0  0  0  0  0  0
   -3.6963    0.8206    4.2188 H   0  0  0  0  0  0  0  0  0  0  0  0
   -2.3312   -0.2564    3.8854 H   0  0  0  0  0  0  0  0  0  0  0  0
   -2.9977    2.1697    0.0910 H   0  0  0  0  0  0  0  0  0  0  0  0
   -5.3202    2.1261   -3.7104 H   0  0  0  0  0  0  0  0  0  0  0  0
   -6.6157    2.6166   -2.5950 H   0  0  0  0  0  0  0  0  0  0  0  0
   -6.0758    0.9323   -2.6035 H   0  0  0  0  0  0  0  0  0  0  0  0
   -1.2142    1.6882   -2.3061 H   0  0  0  0  0  0  0  0  0  0  0  0
   -2.1084    4.2408   -0.9128 H   0  0  0  0  0  0  0  0  0  0  0  0
   -0.8789    4.1698   -2.1891 H   0  0  0  0  0  0  0  0  0  0  0  0
   -2.5311    3.6839   -2.5469 H   0  0  0  0  0  0  0  0  0  0  0  0
   -0.2131    2.5469    0.5022 H   0  0  0  0  0  0  0  0  0  0  0  0
    1.0576    1.7837   -2.1901 H   0  0  0  0  0  0  0  0  0  0  0  0
    3.3369    0.6964   -1.9615 H   0  0  0  0  0  0  0  0  0  0  0  0
    4.5179    1.7683   -1.1851 H   0  0  0  0  0  0  0  0  0  0  0  0
    3.4365    2.3970   -2.4255 H   0  0  0  0  0  0  0  0  0  0  0  0
    2.5957    4.2338   -0.8620 H   0  0  0  0  0  0  0  0  0  0  0  0
    2.0871    3.8273    0.7844 H   0  0  0  0  0  0  0  0  0  0  0  0
    3.7765    3.6311    0.3102 H   0  0  0  0  0  0  0  0  0  0  0  0
    1.9332    1.5247    1.5205 H   0  0  0  0  0  0  0  0  0  0  0  0
    5.8498    1.5817    3.8195 H   0  0  0  0  0  0  0  0  0  0  0  0
    6.2340    1.8093    2.1037 H   0  0  0  0  0  0  0  0  0  0  0  0
    5.9546    0.1615    2.7510 H   0  0  0  0  0  0  0  0  0  0  0  0
  1  2  1  0
  2  3  2  0
  2  4  1  0
  4  5  1  0
  5  6  1  0
  6  7  1  0
  7  8  1  0
  8  9  1  0
  8 10  2  0
  6 11  1  0
 11 12  1  0
 11 13  2  0
 13 14  1  0
 14 15  1  0
 15 16  1  0
 16 17  1  0
 17 18  1  0
 17 19  2  0
 15 20  1  0
 20 21  1  0
 20 22  1  0
 22 23  1  0
 23 24  1  1
 24 25  1  0
 25 26  1  0
 25 27  2  0
 23 28  1  0
 28 29  1  0
 29 30  1  0
 30 31  1  0
 30 32  2  0
 28 33  1  0
 33 34  1  0
 33 35  1  0
 35 36  2  0
 36 37  1  0
 37 38  1  0
 37 39  1  0
 37 40  1  0
 40 41  1  0
 41 42  1  0
 42 43  1  0
 42 44  2  0
 40  5  1  0
 23 14  1  0
  1 45  1  0
  1 46  1  0
  1 47  1  0
  5 48  1  6
  6 49  1  1
  9 50  1  0
  9 51  1  0
  9 52  1  0
 12 53  1  0
 12 54  1  0
 12 55  1  0
 13 56  1  0
 14 57  1  6
 15 58  1  6
 18 59  1  0
 18 60  1  0
 18 61  1  0
 20 62  1  6
 21 63  1  0
 21 64  1  0
 21 65  1  0
 22 66  1  0
 22 67  1  0
 26 68  1  0
 26 69  1  0
 26 70  1  0
 28 71  1  1
 31 72  1  0
 31 73  1  0
 31 74  1  0
 33 75  1  6
 34 76  1  0
 34 77  1  0
 34 78  1  0
 35 79  1  0
 36 80  1  0
 38 81  1  0
 38 82  1  0
 38 83  1  0
 39 84  1  0
 39 85  1  0
 39 86  1  0
 40 87  1  1
 43 88  1  0
 43 89  1  0
 43 90  1  0
M  END
$$$$
