
     RDKit          3D

 47 49  0  0  0  0  0  0  0  0999 V2000
   -1.2004    1.9256    2.9249 C   0  0  0  0  0  0  0  0  0  0  0  0
   -0.2720    1.1080    2.1433 N   0  0  0  0  0  0  0  0  0  0  0  0
    0.7518    0.4278    2.9404 C   0  0  0  0  0  0  0  0  0  0  0  0
   -0.2512    1.1229    0.7147 C   0  0  0  0  0  0  0  0  0  0  0  0
   -1.5895    1.4173    0.0112 C   0  0  0  0  0  0  0  0  0  0  0  0
   -2.2520    0.1917   -0.4737 N   0  0  0  0  0  0  0  0  0  0  0  0
   -3.3494    0.5420   -1.4018 C   0  0  0  0  0  0  0  0  0  0  0  0
   -4.0731   -0.6999   -1.9504 C   0  0  0  0  0  0  0  0  0  0  0  0
   -4.4964   -1.6033   -0.8848 N   0  0  0  0  0  0  0  0  0  0  0  0
   -5.5104   -2.5045   -1.1341 C   0  0  0  0  0  0  0  0  0  0  0  0
   -6.2213   -2.5282   -2.1301 O   0  0  0  0  0  0  0  0  0  0  0  0
   -3.4888   -1.8989    0.1264 C   0  0  0  0  0  0  0  0  0  0  0  0
   -2.7803   -0.6295    0.6343 C   0  0  0  0  0  0  0  0  0  0  0  0
    0.8485    0.8762   -0.0457 C   0  0  0  0  0  0  0  0  0  0  0  0
    2.1061    0.5851    0.4454 N   0  0  0  0  0  0  0  0  0  0  0  0
    2.8105    0.3933   -0.6204 C   0  0  0  0  0  0  0  0  0  0  0  0
    4.2368    0.0369   -0.6810 C   0  0  0  0  0  0  0  0  0  0  0  0
    4.9465   -0.1149    0.5167 C   0  0  0  0  0  0  0  0  0  0  0  0
    6.3006   -0.4536    0.4905 C   0  0  0  0  0  0  0  0  0  0  0  0
    6.9488   -0.6421   -0.7298 C   0  0  0  0  0  0  0  0  0  0  0  0
    6.2466   -0.4917   -1.9254 C   0  0  0  0  0  0  0  0  0  0  0  0
    4.8917   -0.1528   -1.9044 C   0  0  0  0  0  0  0  0  0  0  0  0
    2.1968    0.5339   -1.8123 O   0  0  0  0  0  0  0  0  0  0  0  0
    0.9036    0.8767   -1.5481 C   0  0  0  0  0  0  0  0  0  0  0  0
    0.0675    1.1446   -2.3867 O   0  0  0  0  0  0  0  0  0  0  0  0
   -2.1863    1.4520    2.9619 H   0  0  0  0  0  0  0  0  0  0  0  0
   -0.8568    2.0610    3.9566 H   0  0  0  0  0  0  0  0  0  0  0  0
   -1.2959    2.9277    2.4927 H   0  0  0  0  0  0  0  0  0  0  0  0
    1.6402    1.0584    3.0470 H   0  0  0  0  0  0  0  0  0  0  0  0
    0.3794    0.1994    3.9461 H   0  0  0  0  0  0  0  0  0  0  0  0
    1.0281   -0.5348    2.4971 H   0  0  0  0  0  0  0  0  0  0  0  0
   -1.4037    2.1140   -0.8154 H   0  0  0  0  0  0  0  0  0  0  0  0
   -2.2746    1.9753    0.6595 H   0  0  0  0  0  0  0  0  0  0  0  0
   -2.9533    1.1089   -2.2529 H   0  0  0  0  0  0  0  0  0  0  0  0
   -4.0808    1.1829   -0.8911 H   0  0  0  0  0  0  0  0  0  0  0  0
   -4.9429   -0.3943   -2.5423 H   0  0  0  0  0  0  0  0  0  0  0  0
   -3.4069   -1.2665   -2.6130 H   0  0  0  0  0  0  0  0  0  0  0  0
   -5.6606   -3.2152   -0.3043 H   0  0  0  0  0  0  0  0  0  0  0  0
   -2.7619   -2.5835   -0.3286 H   0  0  0  0  0  0  0  0  0  0  0  0
   -3.9574   -2.4295    0.9629 H   0  0  0  0  0  0  0  0  0  0  0  0
   -3.4896   -0.0437    1.2339 H   0  0  0  0  0  0  0  0  0  0  0  0
   -1.9707   -0.9506    1.2984 H   0  0  0  0  0  0  0  0  0  0  0  0
    4.4508    0.0310    1.4745 H   0  0  0  0  0  0  0  0  0  0  0  0
    6.8497   -0.5699    1.4219 H   0  0  0  0  0  0  0  0  0  0  0  0
    8.0038   -0.9057   -0.7492 H   0  0  0  0  0  0  0  0  0  0  0  0
    6.7551   -0.6383   -2.8757 H   0  0  0  0  0  0  0  0  0  0  0  0
    4.3635   -0.0411   -2.8484 H   0  0  0  0  0  0  0  0  0  0  0  0
  1  2  1  0
  2  3  1  0
  2  4  1  0
  4  5  1  0
  5  6  1  0
  6  7  1  0
  7  8  1  0
  8  9  1  0
  9 10  1  0
 10 11  2  0
  9 12  1  0
 12 13  1  0
  4 14  2  3
 14 15  1  0
 15 16  2  0
 16 17  1  0
 17 18  2  0
 18 19  1  0
 19 20  2  0
 20 21  1  0
 21 22  2  0
 16 23  1  0
 23 24  1  0
 24 25  2  0
 13  6  1  0
 24 14  1  0
 22 17  1  0
  1 26  1  0
  1 27  1  0
  1 28  1  0
  3 29  1  0
  3 30  1  0
  3 31  1  0
  5 32  1  0
  5 33  1  0
  7 34  1  0
  7 35  1  0
  8 36  1  0
  8 37  1  0
 10 38  1  0
 12 39  1  0
 12 40  1  0
 13 41  1  0
 13 42  1  0
 18 43  1  0
 19 44  1  0
 20 45  1  0
 21 46  1  0
 22 47  1  0
M  END
$$$$
