
     RDKit          3D

 45 47  0  0  0  0  0  0  0  0999 V2000
    7.2710   -3.6223    1.5810 N   0  0  0  0  0  0  0  0  0  0  0  0
    6.4535   -2.8771    1.2304 C   0  0  0  0  0  0  0  0  0  0  0  0
    5.4427   -1.9554    0.8009 C   0  0  0  0  0  0  0  0  0  0  0  0
    5.7322   -0.5909    0.6969 C   0  0  0  0  0  0  0  0  0  0  0  0
    4.7475    0.3127    0.2775 C   0  0  0  0  0  0  0  0  0  0  0  0
    3.4671   -0.1442   -0.0377 C   0  0  0  0  0  0  0  0  0  0  0  0
    2.4167    0.6253   -0.4509 O   0  0  0  0  0  0  0  0  0  0  0  0
    2.6422    2.0252   -0.5699 C   0  0  0  0  0  0  0  0  0  0  0  0
    1.3593    2.7136   -1.0365 C   0  0  0  0  0  0  0  0  0  0  0  0
    1.3011    3.2054   -2.1665 O   0  0  0  0  0  0  0  0  0  0  0  0
    0.3011    2.8053   -0.1375 N   0  0  0  0  0  0  0  0  0  0  0  0
   -0.9897    3.2928   -0.6373 C   0  0  0  0  0  0  0  0  0  0  0  0
   -1.9224    2.1075   -0.9603 C   0  0  0  0  0  0  0  0  0  0  0  0
   -2.0678    1.2296    0.2345 N   0  0  0  0  0  0  0  0  0  0  0  0
   -2.9828    0.1788    0.0240 C   0  0  0  0  0  0  0  0  0  0  0  0
   -3.4013   -0.6018    1.1028 C   0  0  0  0  0  0  0  0  0  0  0  0
   -4.3169   -1.6363    0.9051 C   0  0  0  0  0  0  0  0  0  0  0  0
   -4.8138   -1.8806   -0.3737 C   0  0  0  0  0  0  0  0  0  0  0  0
   -5.8106   -2.9615   -0.6458 C   0  0  0  0  0  0  0  0  0  0  0  0
   -7.0601   -2.6384   -0.2110 F   0  0  0  0  0  0  0  0  0  0  0  0
   -5.9405   -3.2615   -1.9686 F   0  0  0  0  0  0  0  0  0  0  0  0
   -5.4934   -4.1355   -0.0293 F   0  0  0  0  0  0  0  0  0  0  0  0
   -4.3705   -1.0506   -1.3872 C   0  0  0  0  0  0  0  0  0  0  0  0
   -3.4826   -0.0429   -1.2109 N   0  0  0  0  0  0  0  0  0  0  0  0
   -0.7645    0.7586    0.7692 C   0  0  0  0  0  0  0  0  0  0  0  0
    0.1587    1.9641    1.0565 C   0  0  0  0  0  0  0  0  0  0  0  0
    3.1821   -1.5091    0.0649 C   0  0  0  0  0  0  0  0  0  0  0  0
    4.1627   -2.4136    0.4816 C   0  0  0  0  0  0  0  0  0  0  0  0
    6.7270   -0.2200    0.9386 H   0  0  0  0  0  0  0  0  0  0  0  0
    5.0185    1.3617    0.2039 H   0  0  0  0  0  0  0  0  0  0  0  0
    3.4147    2.2212   -1.3236 H   0  0  0  0  0  0  0  0  0  0  0  0
    2.9470    2.4699    0.3848 H   0  0  0  0  0  0  0  0  0  0  0  0
   -0.8595    3.9219   -1.5235 H   0  0  0  0  0  0  0  0  0  0  0  0
   -1.4304    3.9158    0.1505 H   0  0  0  0  0  0  0  0  0  0  0  0
   -1.5018    1.5399   -1.8012 H   0  0  0  0  0  0  0  0  0  0  0  0
   -2.8981    2.5108   -1.2583 H   0  0  0  0  0  0  0  0  0  0  0  0
   -3.0418   -0.3933    2.1051 H   0  0  0  0  0  0  0  0  0  0  0  0
   -4.6428   -2.2374    1.7513 H   0  0  0  0  0  0  0  0  0  0  0  0
   -4.7208   -1.1640   -2.4111 H   0  0  0  0  0  0  0  0  0  0  0  0
   -0.8919    0.2069    1.7068 H   0  0  0  0  0  0  0  0  0  0  0  0
   -0.2868    0.0896    0.0419 H   0  0  0  0  0  0  0  0  0  0  0  0
   -0.2866    2.5916    1.8385 H   0  0  0  0  0  0  0  0  0  0  0  0
    1.1248    1.6231    1.4324 H   0  0  0  0  0  0  0  0  0  0  0  0
    2.1889   -1.8735   -0.1893 H   0  0  0  0  0  0  0  0  0  0  0  0
    3.9189   -3.4721    0.5507 H   0  0  0  0  0  0  0  0  0  0  0  0
  1  2  3  0
  2  3  1  0
  3  4  2  0
  4  5  1  0
  5  6  2  0
  6  7  1  0
  7  8  1  0
  8  9  1  0
  9 10  2  0
  9 11  1  0
 11 12  1  0
 12 13  1  0
 13 14  1  0
 14 15  1  0
 15 16  2  0
 16 17  1  0
 17 18  2  0
 18 19  1  0
 19 20  1  0
 19 21  1  0
 19 22  1  0
 18 23  1  0
 23 24  2  0
 14 25  1  0
 25 26  1  0
  6 27  1  0
 27 28  2  0
 28  3  1  0
 26 11  1  0
 24 15  1  0
  4 29  1  0
  5 30  1  0
  8 31  1  0
  8 32  1  0
 12 33  1  0
 12 34  1  0
 13 35  1  0
 13 36  1  0
 16 37  1  0
 17 38  1  0
 23 39  1  0
 25 40  1  0
 25 41  1  0
 26 42  1  0
 26 43  1  0
 27 44  1  0
 28 45  1  0
M  END
$$$$
