
     RDKit          3D

 33 34  0  0  0  0  0  0  0  0999 V2000
   -4.7239    0.8029    2.8953 C   0  0  0  0  0  0  0  0  0  0  0  0
   -4.4144    0.1980    1.6452 O   0  0  0  0  0  0  0  0  0  0  0  0
   -3.1493    0.3893    1.1601 C   0  0  0  0  0  0  0  0  0  0  0  0
   -2.1432    1.1322    1.7735 C   0  0  0  0  0  0  0  0  0  0  0  0
   -0.8920    1.2408    1.1645 C   0  0  0  0  0  0  0  0  0  0  0  0
   -0.6395    0.5998   -0.0564 C   0  0  0  0  0  0  0  0  0  0  0  0
    0.7212    0.7579   -0.6307 C   0  0  0  0  0  0  0  0  0  0  0  0
    1.2432    1.8723   -0.5936 O   0  0  0  0  0  0  0  0  0  0  0  0
    1.4025   -0.4597   -1.2179 C   0  0  0  0  0  0  0  0  0  0  0  0
    2.7948   -0.5386   -0.6967 C   0  0  0  0  0  0  0  0  0  0  0  0
    3.1380   -1.1553    0.4164 N   0  0  0  0  0  0  0  0  0  0  0  0
    4.4944   -1.0830    0.6567 N   0  0  0  0  0  0  0  0  0  0  0  0
    5.1310   -0.4201   -0.2853 C   0  0  0  0  0  0  0  0  0  0  0  0
    6.5918   -0.1623   -0.3056 C   0  0  0  0  0  0  0  0  0  0  0  0
    4.1195    0.1465   -1.5525 S   0  0  0  0  0  0  0  0  0  0  0  0
   -1.6513   -0.1309   -0.6970 C   0  0  0  0  0  0  0  0  0  0  0  0
   -1.3500   -0.6777   -1.9163 O   0  0  0  0  0  0  0  0  0  0  0  0
   -2.3926   -1.3551   -2.6098 C   0  0  0  0  0  0  0  0  0  0  0  0
   -2.8992   -0.2343   -0.0705 C   0  0  0  0  0  0  0  0  0  0  0  0
   -5.7599    0.5506    3.1410 H   0  0  0  0  0  0  0  0  0  0  0  0
   -4.6522    1.8938    2.8339 H   0  0  0  0  0  0  0  0  0  0  0  0
   -4.0865    0.4080    3.6934 H   0  0  0  0  0  0  0  0  0  0  0  0
   -2.2957    1.6389    2.7209 H   0  0  0  0  0  0  0  0  0  0  0  0
   -0.1085    1.8240    1.6464 H   0  0  0  0  0  0  0  0  0  0  0  0
    0.8816   -1.3768   -0.9228 H   0  0  0  0  0  0  0  0  0  0  0  0
    1.3743   -0.3880   -2.3102 H   0  0  0  0  0  0  0  0  0  0  0  0
    7.0548   -0.6118   -1.1899 H   0  0  0  0  0  0  0  0  0  0  0  0
    6.7981    0.9126   -0.3090 H   0  0  0  0  0  0  0  0  0  0  0  0
    7.0694   -0.5936    0.5800 H   0  0  0  0  0  0  0  0  0  0  0  0
   -3.2277   -0.6805   -2.8255 H   0  0  0  0  0  0  0  0  0  0  0  0
   -1.9872   -1.6988   -3.5663 H   0  0  0  0  0  0  0  0  0  0  0  0
   -2.7260   -2.2374   -2.0539 H   0  0  0  0  0  0  0  0  0  0  0  0
   -3.7156   -0.7937   -0.5174 H   0  0  0  0  0  0  0  0  0  0  0  0
  1  2  1  0
  2  3  1  0
  3  4  2  0
  4  5  1  0
  5  6  2  0
  6  7  1  0
  7  8  2  0
  7  9  1  0
  9 10  1  0
 10 11  2  0
 11 12  1  0
 12 13  2  0
 13 14  1  0
 13 15  1  0
  6 16  1  0
 16 17  1  0
 17 18  1  0
 16 19  2  0
 19  3  1  0
 15 10  1  0
  1 20  1  0
  1 21  1  0
  1 22  1  0
  4 23  1  0
  5 24  1  0
  9 25  1  0
  9 26  1  0
 14 27  1  0
 14 28  1  0
 14 29  1  0
 18 30  1  0
 18 31  1  0
 18 32  1  0
 19 33  1  0
M  END
$$$$
