
     RDKit          3D

 54 56  0  0  0  0  0  0  0  0999 V2000
   -1.2458   -0.6243    3.7401 N   0  0  0  0  0  0  0  0  0  0  0  0
   -2.2151   -0.4248    2.8298 C   0  0  0  0  0  0  0  0  0  0  0  0
   -3.4610   -0.7111    3.0652 N   0  0  0  0  0  0  0  0  0  0  0  0
   -4.1723   -0.3276    1.8103 C   0  0  0  0  0  0  0  0  0  0  0  0
   -3.1173    0.2513    0.8369 C   0  0  0  0  0  0  0  0  0  0  0  0
   -3.0560   -0.5144   -0.4920 C   0  0  0  0  0  0  0  0  0  0  0  0
   -4.2692   -0.2850   -1.3634 C   0  0  0  0  0  0  0  0  0  0  0  0
   -4.4504    0.9396   -2.0216 C   0  0  0  0  0  0  0  0  0  0  0  0
   -5.5763    1.1555   -2.8175 C   0  0  0  0  0  0  0  0  0  0  0  0
   -6.5302    0.1505   -2.9646 C   0  0  0  0  0  0  0  0  0  0  0  0
   -6.3580   -1.0717   -2.3183 C   0  0  0  0  0  0  0  0  0  0  0  0
   -5.2326   -1.2899   -1.5222 C   0  0  0  0  0  0  0  0  0  0  0  0
   -1.8970    0.0902    1.6194 N   0  0  0  0  0  0  0  0  0  0  0  0
   -0.6368    0.6387    1.1695 C   0  0  0  0  0  0  0  0  0  0  0  0
    0.3337   -0.4768    0.7774 C   0  0  0  0  0  0  0  0  0  0  0  0
    1.6540    0.0950    0.2531 C   0  0  0  0  0  0  0  0  0  0  0  0
    2.6187   -1.0261   -0.1483 C   0  0  0  0  0  0  0  0  0  0  0  0
    4.0065   -0.5644   -0.6333 C   0  0  0  0  0  0  0  0  0  0  0  0
    4.8834   -0.0292    0.5157 C   0  0  0  0  0  0  0  0  0  0  0  0
    6.0094    0.8968    0.0450 C   0  0  0  0  0  0  0  0  0  0  0  0
    6.4681    0.5685   -1.3688 C   0  0  0  0  0  0  0  0  0  0  0  0
    5.3310    0.7040   -2.3831 C   0  0  0  0  0  0  0  0  0  0  0  0
    3.9441    0.4402   -1.7884 C   0  0  0  0  0  0  0  0  0  0  0  0
   -1.6574   -0.8798    4.6317 H   0  0  0  0  0  0  0  0  0  0  0  0
   -0.6146    0.1560    3.8433 H   0  0  0  0  0  0  0  0  0  0  0  0
   -4.6807   -1.2118    1.4134 H   0  0  0  0  0  0  0  0  0  0  0  0
   -4.9327    0.4254    2.0446 H   0  0  0  0  0  0  0  0  0  0  0  0
   -3.3142    1.3179    0.6728 H   0  0  0  0  0  0  0  0  0  0  0  0
   -2.9182   -1.5881   -0.3073 H   0  0  0  0  0  0  0  0  0  0  0  0
   -2.1738   -0.2065   -1.0678 H   0  0  0  0  0  0  0  0  0  0  0  0
   -3.7138    1.7337   -1.9223 H   0  0  0  0  0  0  0  0  0  0  0  0
   -5.7091    2.1076   -3.3246 H   0  0  0  0  0  0  0  0  0  0  0  0
   -7.4068    0.3188   -3.5846 H   0  0  0  0  0  0  0  0  0  0  0  0
   -7.1009   -1.8568   -2.4339 H   0  0  0  0  0  0  0  0  0  0  0  0
   -5.1152   -2.2507   -1.0249 H   0  0  0  0  0  0  0  0  0  0  0  0
   -0.8003    1.3000    0.3096 H   0  0  0  0  0  0  0  0  0  0  0  0
   -0.1976    1.2677    1.9527 H   0  0  0  0  0  0  0  0  0  0  0  0
   -0.1212   -1.1141    0.0095 H   0  0  0  0  0  0  0  0  0  0  0  0
    0.5331   -1.1226    1.6407 H   0  0  0  0  0  0  0  0  0  0  0  0
    1.4449    0.7342   -0.6121 H   0  0  0  0  0  0  0  0  0  0  0  0
    2.1023    0.7288    1.0252 H   0  0  0  0  0  0  0  0  0  0  0  0
    2.7520   -1.7128    0.6975 H   0  0  0  0  0  0  0  0  0  0  0  0
    2.1520   -1.6136   -0.9499 H   0  0  0  0  0  0  0  0  0  0  0  0
    4.5041   -1.4668   -1.0187 H   0  0  0  0  0  0  0  0  0  0  0  0
    4.2901    0.5079    1.2632 H   0  0  0  0  0  0  0  0  0  0  0  0
    5.3195   -0.8878    1.0428 H   0  0  0  0  0  0  0  0  0  0  0  0
    5.6586    1.9362    0.0752 H   0  0  0  0  0  0  0  0  0  0  0  0
    6.8525    0.8328    0.7423 H   0  0  0  0  0  0  0  0  0  0  0  0
    6.8550   -0.4582   -1.3913 H   0  0  0  0  0  0  0  0  0  0  0  0
    7.2998    1.2201   -1.6599 H   0  0  0  0  0  0  0  0  0  0  0  0
    5.3399    1.7104   -2.8191 H   0  0  0  0  0  0  0  0  0  0  0  0
    5.5167    0.0111   -3.2129 H   0  0  0  0  0  0  0  0  0  0  0  0
    3.2735    0.0842   -2.5792 H   0  0  0  0  0  0  0  0  0  0  0  0
    3.5315    1.3920   -1.4309 H   0  0  0  0  0  0  0  0  0  0  0  0
  1  2  1  0
  2  3  2  0
  3  4  1  0
  4  5  1  0
  5  6  1  0
  6  7  1  0
  7  8  2  0
  8  9  1  0
  9 10  2  0
 10 11  1  0
 11 12  2  0
  5 13  1  0
 13 14  1  0
 14 15  1  0
 15 16  1  0
 16 17  1  0
 17 18  1  0
 18 19  1  0
 19 20  1  0
 20 21  1  0
 21 22  1  0
 22 23  1  0
 13  2  1  0
 23 18  1  0
 12  7  1  0
  1 24  1  0
  1 25  1  0
  4 26  1  0
  4 27  1  0
  5 28  1  0
  6 29  1  0
  6 30  1  0
  8 31  1  0
  9 32  1  0
 10 33  1  0
 11 34  1  0
 12 35  1  0
 14 36  1  0
 14 37  1  0
 15 38  1  0
 15 39  1  0
 16 40  1  0
 16 41  1  0
 17 42  1  0
 17 43  1  0
 18 44  1  0
 19 45  1  0
 19 46  1  0
 20 47  1  0
 20 48  1  0
 21 49  1  0
 21 50  1  0
 22 51  1  0
 22 52  1  0
 23 53  1  0
 23 54  1  0
M  END
$$$$
