
     RDKit          3D

 43 45  0  0  0  0  0  0  0  0999 V2000
   -0.5580    1.3540    3.7291 N   0  0  0  0  0  0  0  0  0  0  0  0
    0.2104    0.5255    2.9996 C   0  0  0  0  0  0  0  0  0  0  0  0
    1.3898    0.1413    3.3939 N   0  0  0  0  0  0  0  0  0  0  0  0
    1.8367   -0.7814    2.3107 C   0  0  0  0  0  0  0  0  0  0  0  0
    0.9041   -0.5196    1.1058 C   0  0  0  0  0  0  0  0  0  0  0  0
    1.5484    0.4411    0.0866 C   0  0  0  0  0  0  0  0  0  0  0  0
    2.6390   -0.2081   -0.7358 C   0  0  0  0  0  0  0  0  0  0  0  0
    2.3188   -1.1424   -1.7329 C   0  0  0  0  0  0  0  0  0  0  0  0
    3.3256   -1.7461   -2.4901 C   0  0  0  0  0  0  0  0  0  0  0  0
    4.6544   -1.4136   -2.2503 C   0  0  0  0  0  0  0  0  0  0  0  0
    5.6687   -1.9784   -2.9650 O   0  0  0  0  0  0  0  0  0  0  0  0
    4.9902   -0.4885   -1.2700 C   0  0  0  0  0  0  0  0  0  0  0  0
    3.9846    0.1158   -0.5144 C   0  0  0  0  0  0  0  0  0  0  0  0
   -0.2460    0.0813    1.7962 N   0  0  0  0  0  0  0  0  0  0  0  0
   -1.3557    0.6619    1.0484 C   0  0  0  0  0  0  0  0  0  0  0  0
   -1.9622   -0.3399    0.0573 C   0  0  0  0  0  0  0  0  0  0  0  0
   -3.1569    0.2329   -0.6650 C   0  0  0  0  0  0  0  0  0  0  0  0
   -4.4557    0.0117   -0.1822 C   0  0  0  0  0  0  0  0  0  0  0  0
   -5.5615    0.5560   -0.8413 C   0  0  0  0  0  0  0  0  0  0  0  0
   -5.3787    1.3287   -1.9865 C   0  0  0  0  0  0  0  0  0  0  0  0
   -4.0925    1.5514   -2.4623 C   0  0  0  0  0  0  0  0  0  0  0  0
   -3.9156    2.2954   -3.5619 F   0  0  0  0  0  0  0  0  0  0  0  0
   -2.9838    1.0152   -1.8145 C   0  0  0  0  0  0  0  0  0  0  0  0
   -1.5065    1.0202    3.8323 H   0  0  0  0  0  0  0  0  0  0  0  0
   -0.1346    1.4944    4.6412 H   0  0  0  0  0  0  0  0  0  0  0  0
    1.7219   -1.8113    2.6693 H   0  0  0  0  0  0  0  0  0  0  0  0
    2.8941   -0.6153    2.0897 H   0  0  0  0  0  0  0  0  0  0  0  0
    0.6247   -1.4695    0.6363 H   0  0  0  0  0  0  0  0  0  0  0  0
    1.9367    1.3341    0.5940 H   0  0  0  0  0  0  0  0  0  0  0  0
    0.7977    0.8158   -0.6198 H   0  0  0  0  0  0  0  0  0  0  0  0
    1.2814   -1.4030   -1.9311 H   0  0  0  0  0  0  0  0  0  0  0  0
    3.0555   -2.4653   -3.2567 H   0  0  0  0  0  0  0  0  0  0  0  0
    5.2872   -2.5915   -3.6140 H   0  0  0  0  0  0  0  0  0  0  0  0
    6.0322   -0.2368   -1.0942 H   0  0  0  0  0  0  0  0  0  0  0  0
    4.2613    0.8390    0.2504 H   0  0  0  0  0  0  0  0  0  0  0  0
   -2.1496    0.9714    1.7390 H   0  0  0  0  0  0  0  0  0  0  0  0
   -1.0281    1.5734    0.5344 H   0  0  0  0  0  0  0  0  0  0  0  0
   -1.2206   -0.6533   -0.6875 H   0  0  0  0  0  0  0  0  0  0  0  0
   -2.2548   -1.2573    0.5846 H   0  0  0  0  0  0  0  0  0  0  0  0
   -4.6159   -0.5888    0.7116 H   0  0  0  0  0  0  0  0  0  0  0  0
   -6.5641    0.3768   -0.4610 H   0  0  0  0  0  0  0  0  0  0  0  0
   -6.2273    1.7579   -2.5092 H   0  0  0  0  0  0  0  0  0  0  0  0
   -1.9950    1.2149   -2.2173 H   0  0  0  0  0  0  0  0  0  0  0  0
  1  2  1  0
  2  3  2  0
  3  4  1  0
  4  5  1  0
  5  6  1  0
  6  7  1  0
  7  8  2  0
  8  9  1  0
  9 10  2  0
 10 11  1  0
 10 12  1  0
 12 13  2  0
  5 14  1  0
 14 15  1  0
 15 16  1  0
 16 17  1  0
 17 18  2  0
 18 19  1  0
 19 20  2  0
 20 21  1  0
 21 22  1  0
 21 23  2  0
 14  2  1  0
 23 17  1  0
 13  7  1  0
  1 24  1  0
  1 25  1  0
  4 26  1  0
  4 27  1  0
  5 28  1  0
  6 29  1  0
  6 30  1  0
  8 31  1  0
  9 32  1  0
 11 33  1  0
 12 34  1  0
 13 35  1  0
 15 36  1  0
 15 37  1  0
 16 38  1  0
 16 39  1  0
 18 40  1  0
 19 41  1  0
 20 42  1  0
 23 43  1  0
M  END
$$$$
