
     RDKit          3D

 48 51  0  0  0  0  0  0  0  0999 V2000
    0.4379   -3.3552   -1.7577 C   0  0  0  0  0  0  0  0  0  0  0  0
    1.7633   -2.6291   -1.9032 C   0  0  0  0  0  0  0  0  0  0  0  0
    1.8744   -1.7005   -0.8272 O   0  0  0  0  0  0  0  0  0  0  0  0
    2.9315   -0.8246   -0.8400 C   0  0  0  0  0  0  0  0  0  0  0  0
    4.0495   -0.9708   -1.6735 C   0  0  0  0  0  0  0  0  0  0  0  0
    5.1172   -0.0743   -1.5959 C   0  0  0  0  0  0  0  0  0  0  0  0
    5.0839    0.9711   -0.6813 C   0  0  0  0  0  0  0  0  0  0  0  0
    3.9772    1.1239    0.1537 C   0  0  0  0  0  0  0  0  0  0  0  0
    2.8794    0.2399    0.0882 C   0  0  0  0  0  0  0  0  0  0  0  0
    1.7283    0.4544    0.9764 C   0  0  0  0  0  0  0  0  0  0  0  0
    1.9961    0.6701    2.2859 N   0  0  0  0  0  0  0  0  0  0  0  0
    0.9215    0.8823    3.0857 C   0  0  0  0  0  0  0  0  0  0  0  0
    1.1936    1.1021    4.5335 C   0  0  0  0  0  0  0  0  0  0  0  0
    2.5105    1.0445    4.9024 N   0  0  0  0  0  0  0  0  0  0  0  0
    0.3027    1.3161    5.3460 O   0  0  0  0  0  0  0  0  0  0  0  0
   -0.3524    0.8957    2.5996 C   0  0  0  0  0  0  0  0  0  0  0  0
   -1.5838    1.0909    3.2020 N   0  0  0  0  0  0  0  0  0  0  0  0
   -2.5811    1.0059    2.2211 C   0  0  0  0  0  0  0  0  0  0  0  0
   -3.7678    1.1363    2.4731 O   0  0  0  0  0  0  0  0  0  0  0  0
   -1.9143    0.7495    0.9825 N   0  0  0  0  0  0  0  0  0  0  0  0
   -2.5144    0.5830   -0.2981 C   0  0  0  0  0  0  0  0  0  0  0  0
   -1.7813    0.2665   -1.4523 C   0  0  0  0  0  0  0  0  0  0  0  0
   -2.3981    0.1159   -2.7010 C   0  0  0  0  0  0  0  0  0  0  0  0
   -3.7727    0.2712   -2.8290 C   0  0  0  0  0  0  0  0  0  0  0  0
   -4.5406    0.5685   -1.7052 C   0  0  0  0  0  0  0  0  0  0  0  0
   -6.0224    0.7732   -1.8273 C   0  0  0  0  0  0  0  0  0  0  0  0
   -3.9040    0.7330   -0.4604 C   0  0  0  0  0  0  0  0  0  0  0  0
   -0.5219    0.6863    1.2525 C   0  0  0  0  0  0  0  0  0  0  0  0
    0.4992    0.4793    0.4178 N   0  0  0  0  0  0  0  0  0  0  0  0
   -0.3958   -2.6462   -1.7798 H   0  0  0  0  0  0  0  0  0  0  0  0
    0.3876   -3.8758   -0.7958 H   0  0  0  0  0  0  0  0  0  0  0  0
    0.3024   -4.0844   -2.5614 H   0  0  0  0  0  0  0  0  0  0  0  0
    2.5770   -3.3612   -1.8548 H   0  0  0  0  0  0  0  0  0  0  0  0
    1.7819   -2.1060   -2.8664 H   0  0  0  0  0  0  0  0  0  0  0  0
    4.1272   -1.7849   -2.3867 H   0  0  0  0  0  0  0  0  0  0  0  0
    5.9792   -0.1996   -2.2467 H   0  0  0  0  0  0  0  0  0  0  0  0
    5.9169    1.6669   -0.6157 H   0  0  0  0  0  0  0  0  0  0  0  0
    3.9642    1.9514    0.8613 H   0  0  0  0  0  0  0  0  0  0  0  0
    2.7582    1.1411    5.8770 H   0  0  0  0  0  0  0  0  0  0  0  0
    3.2232    0.8153    4.2183 H   0  0  0  0  0  0  0  0  0  0  0  0
   -1.7432    1.2668    4.1871 H   0  0  0  0  0  0  0  0  0  0  0  0
   -0.7078    0.1193   -1.4338 H   0  0  0  0  0  0  0  0  0  0  0  0
   -1.7946   -0.1228   -3.5732 H   0  0  0  0  0  0  0  0  0  0  0  0
   -4.2381    0.1587   -3.8050 H   0  0  0  0  0  0  0  0  0  0  0  0
   -6.4322    0.1851   -2.6554 H   0  0  0  0  0  0  0  0  0  0  0  0
   -6.5370    0.4509   -0.9160 H   0  0  0  0  0  0  0  0  0  0  0  0
   -6.2409    1.8310   -2.0036 H   0  0  0  0  0  0  0  0  0  0  0  0
   -4.5397    0.9897    0.3822 H   0  0  0  0  0  0  0  0  0  0  0  0
  1  2  1  0
  2  3  1  0
  3  4  1  0
  4  5  2  0
  5  6  1  0
  6  7  2  0
  7  8  1  0
  8  9  2  0
  9 10  1  0
 10 11  2  0
 11 12  1  0
 12 13  1  0
 13 14  1  0
 13 15  2  0
 12 16  2  0
 16 17  1  0
 17 18  1  0
 18 19  2  0
 18 20  1  0
 20 21  1  0
 21 22  2  0
 22 23  1  0
 23 24  2  0
 24 25  1  0
 25 26  1  0
 25 27  2  0
 20 28  1  0
 28 29  2  0
  9  4  1  0
 29 10  1  0
 28 16  1  0
 27 21  1  0
  1 30  1  0
  1 31  1  0
  1 32  1  0
  2 33  1  0
  2 34  1  0
  5 35  1  0
  6 36  1  0
  7 37  1  0
  8 38  1  0
 14 39  1  0
 14 40  1  0
 17 41  1  0
 22 42  1  0
 23 43  1  0
 24 44  1  0
 26 45  1  0
 26 46  1  0
 26 47  1  0
 27 48  1  0
M  END
$$$$
