
     RDKit          3D

 53 56  0  0  0  0  0  0  0  0999 V2000
    4.6418   -1.0732    2.7744 C   0  0  0  0  0  0  0  0  0  0  0  0
    4.3978   -0.1388    1.6651 N   0  0  0  0  0  0  0  0  0  0  0  0
    5.3463   -0.1025    0.6103 C   0  0  0  0  0  0  0  0  0  0  0  0
    5.1361    0.7504   -0.4907 C   0  0  0  0  0  0  0  0  0  0  0  0
    6.0524    0.8370   -1.5451 C   0  0  0  0  0  0  0  0  0  0  0  0
    7.2124    0.0729   -1.5215 C   0  0  0  0  0  0  0  0  0  0  0  0
    7.4549   -0.7695   -0.4436 C   0  0  0  0  0  0  0  0  0  0  0  0
    6.5352   -0.8505    0.6112 C   0  0  0  0  0  0  0  0  0  0  0  0
    3.0086    0.0860    1.4850 C   0  0  0  0  0  0  0  0  0  0  0  0
    2.2708   -0.7233    0.6068 C   0  0  0  0  0  0  0  0  0  0  0  0
    0.8996   -0.5129    0.4040 C   0  0  0  0  0  0  0  0  0  0  0  0
    0.2221    0.5076    1.0831 C   0  0  0  0  0  0  0  0  0  0  0  0
   -1.2050    0.7855    0.8628 C   0  0  0  0  0  0  0  0  0  0  0  0
   -2.2289   -0.0907    0.9254 C   0  0  0  0  0  0  0  0  0  0  0  0
   -2.0489   -1.4619    1.2786 C   0  0  0  0  0  0  0  0  0  0  0  0
   -1.9235   -2.5948    1.4964 N   0  0  0  0  0  0  0  0  0  0  0  0
   -3.5372    0.4295    0.7150 C   0  0  0  0  0  0  0  0  0  0  0  0
   -4.0932    1.4920    1.2655 N   0  0  0  0  0  0  0  0  0  0  0  0
   -5.3700    1.6169    0.7912 N   0  0  0  0  0  0  0  0  0  0  0  0
   -5.5788    0.6516   -0.0732 C   0  0  0  0  0  0  0  0  0  0  0  0
   -4.4385   -0.1086   -0.1805 N   0  0  0  0  0  0  0  0  0  0  0  0
   -4.2690   -1.1911   -1.1288 C   0  0  0  0  0  0  0  0  0  0  0  0
   -4.4420   -0.7543   -2.5831 C   0  0  0  0  0  0  0  0  0  0  0  0
   -5.8989   -0.5752   -3.0130 C   0  0  0  0  0  0  0  0  0  0  0  0
   -6.6269    0.5921   -2.3465 C   0  0  0  0  0  0  0  0  0  0  0  0
   -6.8276    0.4139   -0.8430 C   0  0  0  0  0  0  0  0  0  0  0  0
    0.9423    1.3391    1.9457 C   0  0  0  0  0  0  0  0  0  0  0  0
    2.3137    1.1128    2.1389 C   0  0  0  0  0  0  0  0  0  0  0  0
    3.0246    2.0340    2.9994 N   0  0  0  0  0  4  0  0  0  0  0  0
    3.1590    3.1952    2.5840 O   0  0  0  0  0  0  0  0  0  0  0  0
    3.3867    1.6147    4.1082 O   0  0  0  0  0  1  0  0  0  0  0  0
    5.6075   -0.8663    3.2509 H   0  0  0  0  0  0  0  0  0  0  0  0
    3.8892   -0.9818    3.5665 H   0  0  0  0  0  0  0  0  0  0  0  0
    4.6235   -2.1133    2.4252 H   0  0  0  0  0  0  0  0  0  0  0  0
    4.2535    1.3840   -0.5327 H   0  0  0  0  0  0  0  0  0  0  0  0
    5.8592    1.5111   -2.3761 H   0  0  0  0  0  0  0  0  0  0  0  0
    7.9299    0.1426   -2.3347 H   0  0  0  0  0  0  0  0  0  0  0  0
    8.3646   -1.3640   -0.4136 H   0  0  0  0  0  0  0  0  0  0  0  0
    6.7813   -1.5203    1.4289 H   0  0  0  0  0  0  0  0  0  0  0  0
    2.7702   -1.5227    0.0615 H   0  0  0  0  0  0  0  0  0  0  0  0
    0.3815   -1.1547   -0.3057 H   0  0  0  0  0  0  0  0  0  0  0  0
   -1.4195    1.8365    0.6565 H   0  0  0  0  0  0  0  0  0  0  0  0
   -3.2618   -1.5992   -1.0240 H   0  0  0  0  0  0  0  0  0  0  0  0
   -4.9749   -1.9827   -0.8557 H   0  0  0  0  0  0  0  0  0  0  0  0
   -4.0043   -1.5321   -3.2227 H   0  0  0  0  0  0  0  0  0  0  0  0
   -3.8791    0.1668   -2.7768 H   0  0  0  0  0  0  0  0  0  0  0  0
   -5.9141   -0.4071   -4.0969 H   0  0  0  0  0  0  0  0  0  0  0  0
   -6.4526   -1.5057   -2.8388 H   0  0  0  0  0  0  0  0  0  0  0  0
   -6.0966    1.5298   -2.5578 H   0  0  0  0  0  0  0  0  0  0  0  0
   -7.6156    0.6782   -2.8154 H   0  0  0  0  0  0  0  0  0  0  0  0
   -7.5807    1.1371   -0.5065 H   0  0  0  0  0  0  0  0  0  0  0  0
   -7.2271   -0.5818   -0.6194 H   0  0  0  0  0  0  0  0  0  0  0  0
    0.4500    2.1617    2.4608 H   0  0  0  0  0  0  0  0  0  0  0  0
  1  2  1  0
  2  3  1  0
  3  4  2  0
  4  5  1  0
  5  6  2  0
  6  7  1  0
  7  8  2  0
  2  9  1  0
  9 10  2  0
 10 11  1  0
 11 12  2  0
 12 13  1  0
 13 14  2  3
 14 15  1  0
 15 16  3  0
 14 17  1  0
 17 18  2  0
 18 19  1  0
 19 20  2  0
 20 21  1  0
 21 22  1  0
 22 23  1  0
 23 24  1  0
 24 25  1  0
 25 26  1  0
 12 27  1  0
 27 28  2  0
 28 29  1  0
 29 30  2  0
 29 31  1  0
  8  3  1  0
 28  9  1  0
 21 17  1  0
 26 20  1  0
  1 32  1  0
  1 33  1  0
  1 34  1  0
  4 35  1  0
  5 36  1  0
  6 37  1  0
  7 38  1  0
  8 39  1  0
 10 40  1  0
 11 41  1  0
 13 42  1  0
 22 43  1  0
 22 44  1  0
 23 45  1  0
 23 46  1  0
 24 47  1  0
 24 48  1  0
 25 49  1  0
 25 50  1  0
 26 51  1  0
 26 52  1  0
 27 53  1  0
M  CHG  2  29   1  31  -1
M  END
$$$$
