
     RDKit          3D

 36 37  0  0  0  0  0  0  0  0999 V2000
   -3.8014   -2.1667    0.0417 C   0  0  0  0  0  0  0  0  0  0  0  0
   -3.4338   -0.8159   -0.3394 N   0  0  0  0  0  0  0  0  0  0  0  0
   -3.7964   -0.3711   -1.6031 C   0  0  0  0  0  0  0  0  0  0  0  0
   -4.4274   -1.0524   -2.4092 O   0  0  0  0  0  0  0  0  0  0  0  0
   -3.3755    1.0005   -1.9636 C   0  0  0  0  0  0  0  0  0  0  0  0
   -3.7320    1.5467   -3.2232 C   0  0  0  0  0  0  0  0  0  0  0  0
   -3.9934    2.0570   -4.2326 N   0  0  0  0  0  0  0  0  0  0  0  0
   -2.6480    1.6958   -1.0843 C   0  0  0  0  0  0  0  0  0  0  0  0
   -2.2840    1.1848    0.1414 N   0  0  0  0  0  0  0  0  0  0  0  0
   -1.3908    1.9663    1.0086 C   0  0  0  0  0  0  0  0  0  0  0  0
    0.1051    1.7255    0.7241 C   0  0  0  0  0  0  0  0  0  0  0  0
    0.4176    0.2991    0.6838 N   0  0  0  0  0  0  0  0  0  0  0  0
    1.7770   -0.0363    0.6313 C   0  0  0  0  0  0  0  0  0  0  0  0
    2.6854    0.9454    0.4189 N   0  0  0  0  0  0  0  0  0  0  0  0
    3.9921    0.6030    0.3124 C   0  0  0  0  0  0  0  0  0  0  0  0
    4.4665   -0.6957    0.4038 C   0  0  0  0  0  0  0  0  0  0  0  0
    5.9278   -0.9761    0.2494 C   0  0  0  0  0  0  0  0  0  0  0  0
    6.3000   -1.0774   -1.0548 F   0  0  0  0  0  0  0  0  0  0  0  0
    6.7137   -0.0045    0.7896 F   0  0  0  0  0  0  0  0  0  0  0  0
    6.3142   -2.1390    0.8423 F   0  0  0  0  0  0  0  0  0  0  0  0
    3.5260   -1.7084    0.6010 C   0  0  0  0  0  0  0  0  0  0  0  0
    2.1744   -1.3809    0.7121 C   0  0  0  0  0  0  0  0  0  0  0  0
    1.0340   -2.6555    0.9570 Cl  0  0  0  0  0  0  0  0  0  0  0  0
   -2.6267   -0.1062    0.5463 C   0  0  0  0  0  0  0  0  0  0  0  0
   -2.2325   -0.5808    1.6138 O   0  0  0  0  0  0  0  0  0  0  0  0
   -4.6612   -2.5288   -0.5286 H   0  0  0  0  0  0  0  0  0  0  0  0
   -2.9453   -2.8222   -0.1480 H   0  0  0  0  0  0  0  0  0  0  0  0
   -4.0449   -2.2080    1.1081 H   0  0  0  0  0  0  0  0  0  0  0  0
   -2.3023    2.7018   -1.3135 H   0  0  0  0  0  0  0  0  0  0  0  0
   -1.6254    3.0325    0.9018 H   0  0  0  0  0  0  0  0  0  0  0  0
   -1.6016    1.7046    2.0529 H   0  0  0  0  0  0  0  0  0  0  0  0
    0.6836    2.2356    1.5043 H   0  0  0  0  0  0  0  0  0  0  0  0
    0.3582    2.1774   -0.2429 H   0  0  0  0  0  0  0  0  0  0  0  0
   -0.0607   -0.2443    1.4075 H   0  0  0  0  0  0  0  0  0  0  0  0
    4.6653    1.4419    0.1432 H   0  0  0  0  0  0  0  0  0  0  0  0
    3.8424   -2.7476    0.6647 H   0  0  0  0  0  0  0  0  0  0  0  0
  1  2  1  0
  2  3  1  0
  3  4  2  0
  3  5  1  0
  5  6  1  0
  6  7  3  0
  5  8  2  0
  8  9  1  0
  9 10  1  0
 10 11  1  0
 11 12  1  0
 12 13  1  0
 13 14  2  0
 14 15  1  0
 15 16  2  0
 16 17  1  0
 17 18  1  0
 17 19  1  0
 17 20  1  0
 16 21  1  0
 21 22  2  0
 22 23  1  0
  9 24  1  0
 24 25  2  0
 24  2  1  0
 22 13  1  0
  1 26  1  0
  1 27  1  0
  1 28  1  0
  8 29  1  0
 10 30  1  0
 10 31  1  0
 11 32  1  0
 11 33  1  0
 12 34  1  0
 15 35  1  0
 21 36  1  0
M  END
$$$$
