
     RDKit          3D

 61 63  0  0  0  0  0  0  0  0999 V2000
   -5.1467    3.4531   -0.6163 C   0  0  0  0  0  0  0  0  0  0  0  0
   -3.6697    3.7773   -0.4545 C   0  0  0  0  0  0  0  0  0  0  0  0
   -3.0160    4.0901   -1.8026 C   0  0  0  0  0  0  0  0  0  0  0  0
   -1.5365    4.4509   -1.6667 C   0  0  0  0  0  0  0  0  0  0  0  0
   -0.7379    3.3430   -1.1864 N   0  0  0  0  0  0  0  0  0  0  0  0
   -0.3310    2.3281   -2.0233 C   0  0  0  0  0  0  0  0  0  0  0  0
   -0.4966    2.3463   -3.2432 O   0  0  0  0  0  0  0  0  0  0  0  0
    0.3779    1.1540   -1.3295 C   0  0  0  0  0  0  0  0  0  0  0  0
    1.8989    1.3412   -1.3882 C   0  0  0  0  0  0  0  0  0  0  0  0
    2.3983    2.3158   -0.3467 C   0  0  0  0  0  0  0  0  0  0  0  0
    2.6060    1.8954    0.9746 C   0  0  0  0  0  0  0  0  0  0  0  0
    3.0362    2.8018    1.9444 C   0  0  0  0  0  0  0  0  0  0  0  0
    3.2609    4.1343    1.6036 C   0  0  0  0  0  0  0  0  0  0  0  0
    3.0585    4.5615    0.2927 C   0  0  0  0  0  0  0  0  0  0  0  0
    2.6296    3.6571   -0.6795 C   0  0  0  0  0  0  0  0  0  0  0  0
    0.0082   -0.0768   -2.0799 N   0  0  0  0  0  0  0  0  0  0  0  0
   -1.4450   -0.8101   -1.6539 S   0  0  0  0  0  6  0  0  0  0  0  0
   -2.2819    0.1727   -1.0026 O   0  0  0  0  0  0  0  0  0  0  0  0
   -1.8891   -1.5804   -2.7909 O   0  0  0  0  0  0  0  0  0  0  0  0
   -0.8986   -1.9716   -0.4272 C   0  0  0  0  0  0  0  0  0  0  0  0
   -1.4075   -1.9161    0.8688 C   0  0  0  0  0  0  0  0  0  0  0  0
   -0.9609   -2.8346    1.8258 C   0  0  0  0  0  0  0  0  0  0  0  0
   -0.0053   -3.8134    1.5006 C   0  0  0  0  0  0  0  0  0  0  0  0
    0.4868   -3.8482    0.1955 C   0  0  0  0  0  0  0  0  0  0  0  0
    0.0456   -2.9362   -0.7744 C   0  0  0  0  0  0  0  0  0  0  0  0
    1.4932   -4.8569   -0.1670 C   0  0  0  0  0  0  0  0  0  0  0  0
    1.9936   -4.8246   -1.2891 O   0  0  0  0  0  0  0  0  0  0  0  0
    1.8272   -5.7832    0.8078 N   0  0  0  0  0  0  0  0  0  0  0  0
    2.8043   -6.7978    0.4565 C   0  0  0  0  0  0  0  0  0  0  0  0
    1.4080   -5.7313    2.1313 C   0  0  0  0  0  0  0  0  0  0  0  0
    1.8493   -6.5126    2.9773 O   0  0  0  0  0  0  0  0  0  0  0  0
    0.4748   -4.7490    2.4552 N   0  0  0  0  0  0  0  0  0  0  0  0
   -0.0117   -4.6920    3.8285 C   0  0  0  0  0  0  0  0  0  0  0  0
   -5.6876    4.2958   -1.0591 H   0  0  0  0  0  0  0  0  0  0  0  0
   -5.2875    2.5778   -1.2586 H   0  0  0  0  0  0  0  0  0  0  0  0
   -5.5958    3.2352    0.3579 H   0  0  0  0  0  0  0  0  0  0  0  0
   -3.5612    4.6352    0.2191 H   0  0  0  0  0  0  0  0  0  0  0  0
   -3.1711    2.9254    0.0218 H   0  0  0  0  0  0  0  0  0  0  0  0
   -3.1322    3.2304   -2.4738 H   0  0  0  0  0  0  0  0  0  0  0  0
   -3.5389    4.9339   -2.2688 H   0  0  0  0  0  0  0  0  0  0  0  0
   -1.4016    5.2804   -0.9649 H   0  0  0  0  0  0  0  0  0  0  0  0
   -1.1464    4.7656   -2.6411 H   0  0  0  0  0  0  0  0  0  0  0  0
   -0.6583    3.2168   -0.1848 H   0  0  0  0  0  0  0  0  0  0  0  0
    0.0497    1.0627   -0.2876 H   0  0  0  0  0  0  0  0  0  0  0  0
    2.4036    0.3789   -1.2267 H   0  0  0  0  0  0  0  0  0  0  0  0
    2.2142    1.6726   -2.3866 H   0  0  0  0  0  0  0  0  0  0  0  0
    2.4417    0.8573    1.2564 H   0  0  0  0  0  0  0  0  0  0  0  0
    3.2022    2.4682    2.9657 H   0  0  0  0  0  0  0  0  0  0  0  0
    3.6001    4.8393    2.3583 H   0  0  0  0  0  0  0  0  0  0  0  0
    3.2381    5.6000    0.0256 H   0  0  0  0  0  0  0  0  0  0  0  0
    2.4745    4.0093   -1.6980 H   0  0  0  0  0  0  0  0  0  0  0  0
    0.0584    0.0341   -3.0997 H   0  0  0  0  0  0  0  0  0  0  0  0
   -2.1523   -1.1716    1.1442 H   0  0  0  0  0  0  0  0  0  0  0  0
   -1.3847   -2.7605    2.8236 H   0  0  0  0  0  0  0  0  0  0  0  0
    0.4356   -2.9804   -1.7904 H   0  0  0  0  0  0  0  0  0  0  0  0
    2.6236   -7.7220    1.0141 H   0  0  0  0  0  0  0  0  0  0  0  0
    2.7735   -7.0251   -0.6134 H   0  0  0  0  0  0  0  0  0  0  0  0
    3.7997   -6.4191    0.7109 H   0  0  0  0  0  0  0  0  0  0  0  0
    0.2329   -3.7161    4.2603 H   0  0  0  0  0  0  0  0  0  0  0  0
    0.4414   -5.4588    4.4628 H   0  0  0  0  0  0  0  0  0  0  0  0
   -1.0946   -4.8528    3.8365 H   0  0  0  0  0  0  0  0  0  0  0  0
  1  2  1  0
  2  3  1  0
  3  4  1  0
  4  5  1  0
  5  6  1  0
  6  7  2  0
  6  8  1  0
  8  9  1  0
  9 10  1  0
 10 11  2  0
 11 12  1  0
 12 13  2  0
 13 14  1  0
 14 15  2  0
  8 16  1  0
 16 17  1  0
 17 18  2  0
 17 19  2  0
 17 20  1  0
 20 21  2  0
 21 22  1  0
 22 23  2  0
 23 24  1  0
 24 25  2  0
 24 26  1  0
 26 27  2  0
 26 28  1  0
 28 29  1  0
 28 30  1  0
 30 31  2  0
 30 32  1  0
 32 33  1  0
 15 10  1  0
 25 20  1  0
 32 23  1  0
  1 34  1  0
  1 35  1  0
  1 36  1  0
  2 37  1  0
  2 38  1  0
  3 39  1  0
  3 40  1  0
  4 41  1  0
  4 42  1  0
  5 43  1  0
  8 44  1  0
  9 45  1  0
  9 46  1  0
 11 47  1  0
 12 48  1  0
 13 49  1  0
 14 50  1  0
 15 51  1  0
 16 52  1  0
 21 53  1  0
 22 54  1  0
 25 55  1  0
 29 56  1  0
 29 57  1  0
 29 58  1  0
 33 59  1  0
 33 60  1  0
 33 61  1  0
M  END
$$$$
