
     RDKit          3D

 55 58  0  0  0  0  0  0  0  0999 V2000
    0.7987    1.0115    0.5790 O   0  0  0  0  0  0  0  0  0  0  0  0
    0.5982   -0.1409    0.1981 C   0  0  0  0  0  0  0  0  0  0  0  0
    1.7493   -0.9525   -0.2362 C   0  0  0  0  0  0  0  0  0  0  0  0
    3.0566   -0.4452   -0.1799 C   0  0  0  0  0  0  0  0  0  0  0  0
    4.1602   -1.2049   -0.5989 C   0  0  0  0  0  0  0  0  0  0  0  0
    5.4506   -0.7122   -0.5425 N   0  0  0  0  0  0  0  0  0  0  0  0
    5.8075    0.4634    0.2712 C   0  0  0  0  0  0  0  0  0  0  0  0
    7.3048    0.4257    0.6225 C   0  0  0  0  0  0  0  0  0  0  0  0
    8.1754    0.4114   -0.5176 O   0  0  0  0  0  0  0  0  0  0  0  0
    7.5759   -0.1736   -1.6811 C   0  0  0  0  0  0  0  0  0  0  0  0
    6.5375   -1.2648   -1.3690 C   0  0  0  0  0  0  0  0  0  0  0  0
    3.8844   -2.5001   -1.0727 C   0  0  0  0  0  0  0  0  0  0  0  0
    2.5815   -3.0134   -1.1326 C   0  0  0  0  0  0  0  0  0  0  0  0
    1.5161   -2.2290   -0.7113 C   0  0  0  0  0  0  0  0  0  0  0  0
    0.2166   -2.7215   -0.7698 N   0  0  0  0  0  0  0  0  0  0  0  0
   -0.8890   -2.0198   -0.3695 C   0  0  0  0  0  0  0  0  0  0  0  0
   -2.3593   -2.8096   -0.5471 S   0  0  0  0  0  0  0  0  0  0  0  0
   -0.6723   -0.7388    0.1366 N   0  0  0  0  0  0  0  0  0  0  0  0
   -1.7838    0.1150    0.5920 C   0  0  0  0  0  0  0  0  0  0  0  0
   -2.3075    1.0091   -0.5376 C   0  0  0  0  0  0  0  0  0  0  0  0
   -3.3345    2.0347   -0.0426 C   0  0  0  0  0  0  0  0  0  0  0  0
   -4.5196    1.4367    0.5862 N   0  0  0  0  0  0  0  0  0  0  0  0
   -5.3085    0.6263   -0.3604 C   0  0  0  0  0  0  0  0  0  0  0  0
   -6.7940    0.4985    0.0064 C   0  0  0  0  0  0  0  0  0  0  0  0
   -6.9961    0.5135    1.5135 C   0  0  0  0  0  0  0  0  0  0  0  0
   -6.4015    1.7797    2.1328 C   0  0  0  0  0  0  0  0  0  0  0  0
   -5.3457    2.4499    1.2458 C   0  0  0  0  0  0  0  0  0  0  0  0
    3.1925    0.5715    0.1803 H   0  0  0  0  0  0  0  0  0  0  0  0
    5.2426    0.4804    1.2103 H   0  0  0  0  0  0  0  0  0  0  0  0
    5.5800    1.3732   -0.2967 H   0  0  0  0  0  0  0  0  0  0  0  0
    7.5712    1.2979    1.2279 H   0  0  0  0  0  0  0  0  0  0  0  0
    7.5298   -0.4663    1.2193 H   0  0  0  0  0  0  0  0  0  0  0  0
    8.3834   -0.5879   -2.2932 H   0  0  0  0  0  0  0  0  0  0  0  0
    7.1131    0.6361   -2.2578 H   0  0  0  0  0  0  0  0  0  0  0  0
    7.0132   -2.0873   -0.8225 H   0  0  0  0  0  0  0  0  0  0  0  0
    6.1583   -1.6474   -2.3235 H   0  0  0  0  0  0  0  0  0  0  0  0
    4.6943   -3.1539   -1.3867 H   0  0  0  0  0  0  0  0  0  0  0  0
    2.4254   -4.0223   -1.5033 H   0  0  0  0  0  0  0  0  0  0  0  0
    0.0499   -3.6555   -1.1273 H   0  0  0  0  0  0  0  0  0  0  0  0
   -2.5869   -0.5030    1.0038 H   0  0  0  0  0  0  0  0  0  0  0  0
   -1.4305    0.7404    1.4213 H   0  0  0  0  0  0  0  0  0  0  0  0
   -2.7287    0.3969   -1.3431 H   0  0  0  0  0  0  0  0  0  0  0  0
   -1.4710    1.5579   -0.9887 H   0  0  0  0  0  0  0  0  0  0  0  0
   -2.8252    2.6794    0.6857 H   0  0  0  0  0  0  0  0  0  0  0  0
   -3.6291    2.6830   -0.8780 H   0  0  0  0  0  0  0  0  0  0  0  0
   -5.2541    1.0328   -1.3786 H   0  0  0  0  0  0  0  0  0  0  0  0
   -4.8723   -0.3784   -0.3934 H   0  0  0  0  0  0  0  0  0  0  0  0
   -7.3546    1.3304   -0.4389 H   0  0  0  0  0  0  0  0  0  0  0  0
   -7.2027   -0.4240   -0.4212 H   0  0  0  0  0  0  0  0  0  0  0  0
   -8.0607    0.4382    1.7611 H   0  0  0  0  0  0  0  0  0  0  0  0
   -6.5096   -0.3677    1.9509 H   0  0  0  0  0  0  0  0  0  0  0  0
   -7.2017    2.5031    2.3310 H   0  0  0  0  0  0  0  0  0  0  0  0
   -5.9669    1.5237    3.1071 H   0  0  0  0  0  0  0  0  0  0  0  0
   -5.8266    3.1026    0.5053 H   0  0  0  0  0  0  0  0  0  0  0  0
   -4.7347    3.0970    1.8871 H   0  0  0  0  0  0  0  0  0  0  0  0
  1  2  2  0
  2  3  1  0
  3  4  2  0
  4  5  1  0
  5  6  1  0
  6  7  1  0
  7  8  1  0
  8  9  1  0
  9 10  1  0
 10 11  1  0
  5 12  2  0
 12 13  1  0
 13 14  2  0
 14 15  1  0
 15 16  1  0
 16 17  2  0
 16 18  1  0
 18 19  1  0
 19 20  1  0
 20 21  1  0
 21 22  1  0
 22 23  1  0
 23 24  1  0
 24 25  1  0
 25 26  1  0
 26 27  1  0
 18  2  1  0
 27 22  1  0
 14  3  1  0
 11  6  1  0
  4 28  1  0
  7 29  1  0
  7 30  1  0
  8 31  1  0
  8 32  1  0
 10 33  1  0
 10 34  1  0
 11 35  1  0
 11 36  1  0
 12 37  1  0
 13 38  1  0
 15 39  1  0
 19 40  1  0
 19 41  1  0
 20 42  1  0
 20 43  1  0
 21 44  1  0
 21 45  1  0
 23 46  1  0
 23 47  1  0
 24 48  1  0
 24 49  1  0
 25 50  1  0
 25 51  1  0
 26 52  1  0
 26 53  1  0
 27 54  1  0
 27 55  1  0
M  END
$$$$
