
     RDKit          3D

 46 49  0  0  0  0  0  0  0  0999 V2000
    8.5886   -1.2391    1.7595 O   0  0  0  0  0  0  0  0  0  0  0  0
    8.0032   -1.9785    0.9551 N   0  0  0  0  0  4  0  0  0  0  0  0
    8.4177   -3.0886    0.5918 O   0  0  0  0  0  1  0  0  0  0  0  0
    6.7339   -1.5043    0.3900 C   0  0  0  0  0  0  0  0  0  0  0  0
    6.0377   -2.3065   -0.5226 C   0  0  0  0  0  0  0  0  0  0  0  0
    4.8300   -1.8510   -1.0575 C   0  0  0  0  0  0  0  0  0  0  0  0
    4.3169   -0.5958   -0.6951 C   0  0  0  0  0  0  0  0  0  0  0  0
    2.9988   -0.1189   -1.2578 C   0  0  0  0  0  0  0  0  0  0  0  0
    1.9654   -0.5722   -0.3892 O   0  0  0  0  0  0  0  0  0  0  0  0
    0.6791   -0.2436   -0.7140 C   0  0  0  0  0  0  0  0  0  0  0  0
   -0.2818   -0.7223    0.1766 C   0  0  0  0  0  0  0  0  0  0  0  0
   -1.6411   -0.4646   -0.0284 C   0  0  0  0  0  0  0  0  0  0  0  0
   -2.0736    0.2909   -1.1251 C   0  0  0  0  0  0  0  0  0  0  0  0
   -3.5067    0.5589   -1.3247 C   0  0  0  0  0  0  0  0  0  0  0  0
   -4.0453    0.6690   -2.5870 N   0  0  0  0  0  0  0  0  0  0  0  0
   -5.3774    0.8361   -2.6203 N   0  0  0  0  0  0  0  0  0  0  0  0
   -5.7070    0.8957   -1.3307 C   0  0  0  0  0  0  0  0  0  0  0  0
   -4.5903    0.7483   -0.4745 C   0  0  0  0  0  0  0  0  0  0  0  0
   -4.5573    0.8029    0.9734 C   0  0  0  0  0  0  0  0  0  0  0  0
   -5.3779   -0.0485    1.7244 C   0  0  0  0  0  0  0  0  0  0  0  0
   -5.3579    0.0057    3.1209 C   0  0  0  0  0  0  0  0  0  0  0  0
   -4.5228    0.9156    3.7671 C   0  0  0  0  0  0  0  0  0  0  0  0
   -4.4973    0.9800    5.4860 Cl  0  0  0  0  0  0  0  0  0  0  0  0
   -3.7094    1.7741    3.0303 C   0  0  0  0  0  0  0  0  0  0  0  0
   -3.7291    1.7203    1.6342 C   0  0  0  0  0  0  0  0  0  0  0  0
   -1.0931    0.7505   -2.0244 C   0  0  0  0  0  0  0  0  0  0  0  0
   -1.4774    1.4609   -3.1362 O   0  0  0  0  0  0  0  0  0  0  0  0
    0.2701    0.4939   -1.8237 C   0  0  0  0  0  0  0  0  0  0  0  0
    5.0190    0.1910    0.2312 C   0  0  0  0  0  0  0  0  0  0  0  0
    6.2275   -0.2558    0.7716 C   0  0  0  0  0  0  0  0  0  0  0  0
    6.4143   -3.2831   -0.8200 H   0  0  0  0  0  0  0  0  0  0  0  0
    4.2844   -2.4857   -1.7540 H   0  0  0  0  0  0  0  0  0  0  0  0
    2.8652   -0.5281   -2.2671 H   0  0  0  0  0  0  0  0  0  0  0  0
    3.0040    0.9768   -1.3171 H   0  0  0  0  0  0  0  0  0  0  0  0
    0.0262   -1.3090    1.0397 H   0  0  0  0  0  0  0  0  0  0  0  0
   -2.3545   -0.8784    0.6799 H   0  0  0  0  0  0  0  0  0  0  0  0
   -3.5320    0.6404   -3.4620 H   0  0  0  0  0  0  0  0  0  0  0  0
   -6.7430    1.0579   -1.0618 H   0  0  0  0  0  0  0  0  0  0  0  0
   -6.0294   -0.7662    1.2301 H   0  0  0  0  0  0  0  0  0  0  0  0
   -5.9937   -0.6627    3.6954 H   0  0  0  0  0  0  0  0  0  0  0  0
   -3.0612    2.4870    3.5326 H   0  0  0  0  0  0  0  0  0  0  0  0
   -3.0966    2.3994    1.0660 H   0  0  0  0  0  0  0  0  0  0  0  0
   -0.6902    1.8534   -3.5506 H   0  0  0  0  0  0  0  0  0  0  0  0
    0.9894    0.8659   -2.5431 H   0  0  0  0  0  0  0  0  0  0  0  0
    4.6215    1.1553    0.5438 H   0  0  0  0  0  0  0  0  0  0  0  0
    6.7528    0.3733    1.4874 H   0  0  0  0  0  0  0  0  0  0  0  0
  1  2  2  0
  2  3  1  0
  2  4  1  0
  4  5  2  0
  5  6  1  0
  6  7  2  0
  7  8  1  0
  8  9  1  0
  9 10  1  0
 10 11  2  0
 11 12  1  0
 12 13  2  0
 13 14  1  0
 14 15  1  0
 15 16  1  0
 16 17  2  0
 17 18  1  0
 18 19  1  0
 19 20  2  0
 20 21  1  0
 21 22  2  0
 22 23  1  0
 22 24  1  0
 24 25  2  0
 13 26  1  0
 26 27  1  0
 26 28  2  0
  7 29  1  0
 29 30  2  0
 30  4  1  0
 28 10  1  0
 18 14  2  0
 25 19  1  0
  5 31  1  0
  6 32  1  0
  8 33  1  0
  8 34  1  0
 11 35  1  0
 12 36  1  0
 15 37  1  0
 17 38  1  0
 20 39  1  0
 21 40  1  0
 24 41  1  0
 25 42  1  0
 27 43  1  0
 28 44  1  0
 29 45  1  0
 30 46  1  0
M  CHG  2   2   1   3  -1
M  END
$$$$
