
     RDKit          3D

 50 52  0  0  0  0  0  0  0  0999 V2000
    1.8642    4.5565   -0.1222 O   0  0  0  0  0  0  0  0  0  0  0  0
    1.7275    3.6359   -0.9044 C   0  0  0  0  0  0  0  0  0  0  0  0
    0.7778    3.6624   -1.8562 O   0  0  0  0  0  0  0  0  0  0  0  0
    2.5375    2.3954   -0.9405 C   0  0  0  0  0  0  0  0  0  0  0  0
    2.3732    1.4375   -1.9490 C   0  0  0  0  0  0  0  0  0  0  0  0
    3.1535    0.2811   -1.9442 C   0  0  0  0  0  0  0  0  0  0  0  0
    2.9296   -0.6990   -2.9505 N   0  0  0  0  0  0  0  0  0  0  0  0
    2.3008   -2.2086   -2.5255 S   0  0  0  0  0  6  0  0  0  0  0  0
    1.8721   -2.8309   -3.7595 O   0  0  0  0  0  0  0  0  0  0  0  0
    3.2067   -2.8725   -1.6160 O   0  0  0  0  0  0  0  0  0  0  0  0
    0.8364   -1.7779   -1.6105 C   0  0  0  0  0  0  0  0  0  0  0  0
   -0.3676   -1.5671   -2.2881 C   0  0  0  0  0  0  0  0  0  0  0  0
   -1.5151   -1.1997   -1.5729 C   0  0  0  0  0  0  0  0  0  0  0  0
   -1.4871   -1.0371   -0.1770 C   0  0  0  0  0  0  0  0  0  0  0  0
   -2.6260   -0.6478    0.5478 N   0  0  0  0  0  0  0  0  0  0  0  0
   -3.4996   -1.7928    0.8743 C   0  0  0  0  0  0  0  0  0  0  0  0
   -4.5164   -1.3626    1.9318 C   0  0  0  0  0  0  0  0  0  0  0  0
   -5.3033   -0.1334    1.4797 C   0  0  0  0  0  0  0  0  0  0  0  0
   -4.3612    0.9948    1.0622 C   0  0  0  0  0  0  0  0  0  0  0  0
   -3.3568    0.5139    0.0145 C   0  0  0  0  0  0  0  0  0  0  0  0
   -0.2611   -1.2959    0.4663 C   0  0  0  0  0  0  0  0  0  0  0  0
   -0.1449   -1.1163    1.8983 N   0  0  0  0  0  4  0  0  0  0  0  0
   -0.5906   -2.0162    2.6241 O   0  0  0  0  0  0  0  0  0  0  0  0
    0.4661   -0.1078    2.2825 O   0  0  0  0  0  1  0  0  0  0  0  0
    0.8986   -1.6692   -0.2226 C   0  0  0  0  0  0  0  0  0  0  0  0
    4.1012    0.0768   -0.9424 C   0  0  0  0  0  0  0  0  0  0  0  0
    4.2725    1.0342    0.0658 C   0  0  0  0  0  0  0  0  0  0  0  0
    5.2921    0.7764    1.1105 C   0  0  0  0  0  0  0  0  0  0  0  0
    6.0024   -0.2080    1.1828 O   0  0  0  0  0  0  0  0  0  0  0  0
    5.3729    1.7691    2.0115 O   0  0  0  0  0  0  0  0  0  0  0  0
    3.4880    2.1938    0.0669 C   0  0  0  0  0  0  0  0  0  0  0  0
    0.3307    4.5235   -1.7073 H   0  0  0  0  0  0  0  0  0  0  0  0
    1.6314    1.5911   -2.7283 H   0  0  0  0  0  0  0  0  0  0  0  0
    2.6035   -0.3917   -3.8663 H   0  0  0  0  0  0  0  0  0  0  0  0
   -0.4265   -1.6857   -3.3687 H   0  0  0  0  0  0  0  0  0  0  0  0
   -2.4405   -1.0507   -2.1248 H   0  0  0  0  0  0  0  0  0  0  0  0
   -2.9179   -2.6340    1.2699 H   0  0  0  0  0  0  0  0  0  0  0  0
   -4.0203   -2.1450   -0.0258 H   0  0  0  0  0  0  0  0  0  0  0  0
   -3.9927   -1.1301    2.8677 H   0  0  0  0  0  0  0  0  0  0  0  0
   -5.2052   -2.1879    2.1430 H   0  0  0  0  0  0  0  0  0  0  0  0
   -5.9580    0.2081    2.2890 H   0  0  0  0  0  0  0  0  0  0  0  0
   -5.9484   -0.4029    0.6345 H   0  0  0  0  0  0  0  0  0  0  0  0
   -3.8228    1.3611    1.9454 H   0  0  0  0  0  0  0  0  0  0  0  0
   -4.9407    1.8351    0.6642 H   0  0  0  0  0  0  0  0  0  0  0  0
   -2.6608    1.3320   -0.2081 H   0  0  0  0  0  0  0  0  0  0  0  0
   -3.8885    0.2582   -0.9104 H   0  0  0  0  0  0  0  0  0  0  0  0
    1.8278   -1.8506    0.3142 H   0  0  0  0  0  0  0  0  0  0  0  0
    4.7160   -0.8227   -0.9433 H   0  0  0  0  0  0  0  0  0  0  0  0
    6.0598    1.4665    2.6426 H   0  0  0  0  0  0  0  0  0  0  0  0
    3.6098    2.9408    0.8504 H   0  0  0  0  0  0  0  0  0  0  0  0
  1  2  2  0
  2  3  1  0
  2  4  1  0
  4  5  2  0
  5  6  1  0
  6  7  1  0
  7  8  1  0
  8  9  2  0
  8 10  2  0
  8 11  1  0
 11 12  2  0
 12 13  1  0
 13 14  2  0
 14 15  1  0
 15 16  1  0
 16 17  1  0
 17 18  1  0
 18 19  1  0
 19 20  1  0
 14 21  1  0
 21 22  1  0
 22 23  2  0
 22 24  1  0
 21 25  2  0
  6 26  2  0
 26 27  1  0
 27 28  1  0
 28 29  2  0
 28 30  1  0
 27 31  2  0
 31  4  1  0
 25 11  1  0
 20 15  1  0
  3 32  1  0
  5 33  1  0
  7 34  1  0
 12 35  1  0
 13 36  1  0
 16 37  1  0
 16 38  1  0
 17 39  1  0
 17 40  1  0
 18 41  1  0
 18 42  1  0
 19 43  1  0
 19 44  1  0
 20 45  1  0
 20 46  1  0
 25 47  1  0
 26 48  1  0
 30 49  1  0
 31 50  1  0
M  CHG  2  22   1  24  -1
M  END
$$$$
