
     RDKit          3D

 56 59  0  0  0  0  0  0  0  0999 V2000
    2.1864   -0.8764   -0.1809 C   0  0  0  0  0  0  0  0  0  0  0  0
    2.3918   -0.5151    1.2890 C   0  0  0  0  0  0  0  0  0  0  0  0
    3.2164    0.7680    1.4904 C   0  0  0  0  0  0  0  0  0  0  0  0
    4.7368    0.5687    1.4252 C   0  0  0  0  0  0  0  0  0  0  0  0
    5.3098    0.3546    0.0495 C   0  0  0  0  0  0  0  0  0  0  0  0
    5.9706   -0.8417   -0.2634 C   0  0  0  0  0  0  0  0  0  0  0  0
    6.5107   -1.0410   -1.5348 C   0  0  0  0  0  0  0  0  0  0  0  0
    6.4022   -0.0454   -2.5035 C   0  0  0  0  0  0  0  0  0  0  0  0
    5.7561    1.1511   -2.2013 C   0  0  0  0  0  0  0  0  0  0  0  0
    5.2163    1.3529   -0.9301 C   0  0  0  0  0  0  0  0  0  0  0  0
    1.0867   -0.3457    1.9254 N   0  0  0  0  0  0  0  0  0  0  0  0
    0.3585   -1.4172    2.4052 C   0  0  0  0  0  0  0  0  0  0  0  0
    0.7866   -2.5681    2.4390 O   0  0  0  0  0  0  0  0  0  0  0  0
   -1.0367   -1.0488    2.9150 C   0  0  0  0  0  0  0  0  0  0  0  0
   -2.0123   -0.9264    1.8806 O   0  0  0  0  0  0  0  0  0  0  0  0
   -1.9680    0.2350    1.1875 C   0  0  0  0  0  0  0  0  0  0  0  0
   -1.1710    1.1467    1.3369 O   0  0  0  0  0  0  0  0  0  0  0  0
   -3.0800    0.2356    0.2222 C   0  0  0  0  0  0  0  0  0  0  0  0
   -2.9129   -0.4390   -1.0162 C   0  0  0  0  0  0  0  0  0  0  0  0
   -1.7317   -1.1160   -1.4071 C   0  0  0  0  0  0  0  0  0  0  0  0
   -1.6321   -1.7570   -2.6412 C   0  0  0  0  0  0  0  0  0  0  0  0
   -2.7098   -1.7423   -3.5162 C   0  0  0  0  0  0  0  0  0  0  0  0
   -3.8844   -1.0860   -3.1566 C   0  0  0  0  0  0  0  0  0  0  0  0
   -3.9977   -0.4322   -1.9190 C   0  0  0  0  0  0  0  0  0  0  0  0
   -5.1872    0.2284   -1.5750 C   0  0  0  0  0  0  0  0  0  0  0  0
   -5.3406    0.8978   -0.3516 C   0  0  0  0  0  0  0  0  0  0  0  0
   -6.5494    1.5458   -0.0450 C   0  0  0  0  0  0  0  0  0  0  0  0
   -6.7200    2.2143    1.1660 C   0  0  0  0  0  0  0  0  0  0  0  0
   -5.6810    2.2487    2.0857 C   0  0  0  0  0  0  0  0  0  0  0  0
   -4.4742    1.6096    1.7949 C   0  0  0  0  0  0  0  0  0  0  0  0
   -4.2762    0.9171    0.5745 C   0  0  0  0  0  0  0  0  0  0  0  0
    1.5538   -1.7658   -0.2756 H   0  0  0  0  0  0  0  0  0  0  0  0
    1.6890   -0.0638   -0.7219 H   0  0  0  0  0  0  0  0  0  0  0  0
    3.1269   -1.0993   -0.6861 H   0  0  0  0  0  0  0  0  0  0  0  0
    2.8937   -1.3517    1.7906 H   0  0  0  0  0  0  0  0  0  0  0  0
    2.8849    1.5490    0.7970 H   0  0  0  0  0  0  0  0  0  0  0  0
    3.0022    1.1541    2.4959 H   0  0  0  0  0  0  0  0  0  0  0  0
    5.2260    1.4565    1.8455 H   0  0  0  0  0  0  0  0  0  0  0  0
    5.0197   -0.2586    2.0859 H   0  0  0  0  0  0  0  0  0  0  0  0
    6.0643   -1.6310    0.4797 H   0  0  0  0  0  0  0  0  0  0  0  0
    7.0184   -1.9737   -1.7671 H   0  0  0  0  0  0  0  0  0  0  0  0
    6.8245   -0.2009   -3.4925 H   0  0  0  0  0  0  0  0  0  0  0  0
    5.6767    1.9305   -2.9535 H   0  0  0  0  0  0  0  0  0  0  0  0
    4.7262    2.2988   -0.7078 H   0  0  0  0  0  0  0  0  0  0  0  0
    0.5641    0.5071    1.7184 H   0  0  0  0  0  0  0  0  0  0  0  0
   -1.3692   -1.8438    3.5905 H   0  0  0  0  0  0  0  0  0  0  0  0
   -0.9859   -0.1342    3.5185 H   0  0  0  0  0  0  0  0  0  0  0  0
   -0.8667   -1.1545   -0.7478 H   0  0  0  0  0  0  0  0  0  0  0  0
   -0.7124   -2.2674   -2.9137 H   0  0  0  0  0  0  0  0  0  0  0  0
   -2.6387   -2.2404   -4.4774 H   0  0  0  0  0  0  0  0  0  0  0  0
   -4.7175   -1.0876   -3.8575 H   0  0  0  0  0  0  0  0  0  0  0  0
   -6.0180    0.2219   -2.2805 H   0  0  0  0  0  0  0  0  0  0  0  0
   -7.3759    1.5342   -0.7530 H   0  0  0  0  0  0  0  0  0  0  0  0
   -7.6627    2.7089    1.3876 H   0  0  0  0  0  0  0  0  0  0  0  0
   -5.8052    2.7724    3.0306 H   0  0  0  0  0  0  0  0  0  0  0  0
   -3.6820    1.6634    2.5402 H   0  0  0  0  0  0  0  0  0  0  0  0
  1  2  1  0
  2  3  1  0
  3  4  1  0
  4  5  1  0
  5  6  2  0
  6  7  1  0
  7  8  2  0
  8  9  1  0
  9 10  2  0
  2 11  1  0
 11 12  1  0
 12 13  2  0
 12 14  1  0
 14 15  1  0
 15 16  1  0
 16 17  2  0
 16 18  1  0
 18 19  1  0
 19 20  2  0
 20 21  1  0
 21 22  2  0
 22 23  1  0
 23 24  2  0
 24 25  1  0
 25 26  2  0
 26 27  1  0
 27 28  2  0
 28 29  1  0
 29 30  2  0
 30 31  1  0
 10  5  1  0
 31 18  2  0
 24 19  1  0
 31 26  1  0
  1 32  1  0
  1 33  1  0
  1 34  1  0
  2 35  1  0
  3 36  1  0
  3 37  1  0
  4 38  1  0
  4 39  1  0
  6 40  1  0
  7 41  1  0
  8 42  1  0
  9 43  1  0
 10 44  1  0
 11 45  1  0
 14 46  1  0
 14 47  1  0
 20 48  1  0
 21 49  1  0
 22 50  1  0
 23 51  1  0
 25 52  1  0
 27 53  1  0
 28 54  1  0
 29 55  1  0
 30 56  1  0
M  END
$$$$
