
     RDKit          3D

 49 52  0  0  0  0  0  0  0  0999 V2000
    7.0253    1.7740    1.0475 C   0  0  0  0  0  0  0  0  0  0  0  0
    6.7727    0.3211    0.7649 C   0  0  0  0  0  0  0  0  0  0  0  0
    7.8339   -0.5239    0.4063 C   0  0  0  0  0  0  0  0  0  0  0  0
    7.6011   -1.8758    0.1482 C   0  0  0  0  0  0  0  0  0  0  0  0
    8.9142   -2.8992   -0.2889 Cl  0  0  0  0  0  0  0  0  0  0  0  0
    6.3169   -2.4054    0.2479 C   0  0  0  0  0  0  0  0  0  0  0  0
    5.2534   -1.5751    0.6031 C   0  0  0  0  0  0  0  0  0  0  0  0
    5.4765   -0.2141    0.8418 C   0  0  0  0  0  0  0  0  0  0  0  0
    4.4560    0.6176    1.2409 O   0  0  0  0  0  0  0  0  0  0  0  0
    3.3253    0.7130    0.5350 C   0  0  0  0  0  0  0  0  0  0  0  0
    3.1395    0.1692   -0.6493 N   0  0  0  0  0  0  0  0  0  0  0  0
    1.8732    0.4739   -1.1050 C   0  0  0  0  0  0  0  0  0  0  0  0
    1.0996    1.2482   -0.2635 C   0  0  0  0  0  0  0  0  0  0  0  0
   -0.2950    1.7569   -0.4605 C   0  0  0  0  0  0  0  0  0  0  0  0
   -1.2533    1.1495    0.4727 N   0  0  0  0  0  0  0  0  0  0  0  0
   -1.5523   -0.2670    0.1683 C   0  0  0  0  0  0  0  0  0  0  0  0
   -2.8420   -0.5280   -0.6468 C   0  0  0  0  0  0  0  0  0  0  0  0
   -4.0184    0.0801   -0.0035 N   0  0  0  0  0  0  0  0  0  0  0  0
   -5.2775   -0.4822   -0.1423 C   0  0  0  0  0  0  0  0  0  0  0  0
   -5.6111   -1.2752   -1.2537 C   0  0  0  0  0  0  0  0  0  0  0  0
   -6.8818   -1.8435   -1.4091 C   0  0  0  0  0  0  0  0  0  0  0  0
   -7.8620   -1.6301   -0.4486 C   0  0  0  0  0  0  0  0  0  0  0  0
   -7.5682   -0.8476    0.6607 C   0  0  0  0  0  0  0  0  0  0  0  0
   -6.2945   -0.2824    0.8056 C   0  0  0  0  0  0  0  0  0  0  0  0
   -3.7523    1.1647    0.9534 C   0  0  0  0  0  0  0  0  0  0  0  0
   -2.4948    1.9546    0.5250 C   0  0  0  0  0  0  0  0  0  0  0  0
    2.0083    1.6281    1.1434 S   0  0  0  0  0  0  0  0  0  0  0  0
    6.4773    2.3987    0.3349 H   0  0  0  0  0  0  0  0  0  0  0  0
    6.7101    2.0229    2.0660 H   0  0  0  0  0  0  0  0  0  0  0  0
    8.0884    2.0216    0.9597 H   0  0  0  0  0  0  0  0  0  0  0  0
    8.8444   -0.1295    0.3294 H   0  0  0  0  0  0  0  0  0  0  0  0
    6.1364   -3.4586    0.0527 H   0  0  0  0  0  0  0  0  0  0  0  0
    4.2534   -1.9919    0.6876 H   0  0  0  0  0  0  0  0  0  0  0  0
    1.5597    0.0986   -2.0719 H   0  0  0  0  0  0  0  0  0  0  0  0
   -0.2680    2.8452   -0.3094 H   0  0  0  0  0  0  0  0  0  0  0  0
   -0.6124    1.5986   -1.4998 H   0  0  0  0  0  0  0  0  0  0  0  0
   -0.7111   -0.7667   -0.3249 H   0  0  0  0  0  0  0  0  0  0  0  0
   -1.6609   -0.7768    1.1352 H   0  0  0  0  0  0  0  0  0  0  0  0
   -2.9580   -1.6156   -0.7289 H   0  0  0  0  0  0  0  0  0  0  0  0
   -2.7307   -0.1193   -1.6582 H   0  0  0  0  0  0  0  0  0  0  0  0
   -4.8853   -1.4485   -2.0432 H   0  0  0  0  0  0  0  0  0  0  0  0
   -7.1002   -2.4470   -2.2858 H   0  0  0  0  0  0  0  0  0  0  0  0
   -8.8487   -2.0691   -0.5645 H   0  0  0  0  0  0  0  0  0  0  0  0
   -8.3249   -0.6750    1.4213 H   0  0  0  0  0  0  0  0  0  0  0  0
   -6.1095    0.3052    1.7001 H   0  0  0  0  0  0  0  0  0  0  0  0
   -4.5893    1.8730    0.9792 H   0  0  0  0  0  0  0  0  0  0  0  0
   -3.6189    0.7536    1.9614 H   0  0  0  0  0  0  0  0  0  0  0  0
   -2.7041    2.3921   -0.4615 H   0  0  0  0  0  0  0  0  0  0  0  0
   -2.3404    2.7871    1.2212 H   0  0  0  0  0  0  0  0  0  0  0  0
  1  2  1  0
  2  3  2  0
  3  4  1  0
  4  5  1  0
  4  6  2  0
  6  7  1  0
  7  8  2  0
  8  9  1  0
  9 10  1  0
 10 11  2  0
 11 12  1  0
 12 13  2  0
 13 14  1  0
 14 15  1  0
 15 16  1  0
 16 17  1  0
 17 18  1  0
 18 19  1  0
 19 20  2  0
 20 21  1  0
 21 22  2  0
 22 23  1  0
 23 24  2  0
 18 25  1  0
 25 26  1  0
 13 27  1  0
  8  2  1  0
 27 10  1  0
 26 15  1  0
 24 19  1  0
  1 28  1  0
  1 29  1  0
  1 30  1  0
  3 31  1  0
  6 32  1  0
  7 33  1  0
 12 34  1  0
 14 35  1  0
 14 36  1  0
 16 37  1  0
 16 38  1  0
 17 39  1  0
 17 40  1  0
 20 41  1  0
 21 42  1  0
 22 43  1  0
 23 44  1  0
 24 45  1  0
 25 46  1  0
 25 47  1  0
 26 48  1  0
 26 49  1  0
M  END
$$$$
