
     RDKit          3D

 42 44  0  0  0  0  0  0  0  0999 V2000
    3.7563    0.7197    2.0549 C   0  0  0  0  0  0  0  0  0  0  0  0
    2.7857   -0.4487    2.1336 C   0  0  0  0  0  0  0  0  0  0  0  0
    1.5008   -0.2325    1.3284 C   0  0  0  0  0  0  0  0  0  0  0  0
    1.7429   -0.1715   -0.1882 C   0  0  0  0  0  0  0  0  0  0  0  0
    0.4591   -0.0476   -1.0537 C   0  0  0  0  0  0  0  0  0  0  0  0
   -0.4312   -1.2642   -0.9041 C   0  0  0  0  0  0  0  0  0  0  0  0
   -1.6385   -1.1992   -0.3128 C   0  0  0  0  0  0  0  0  0  0  0  0
   -2.5340   -2.3825   -0.0867 C   0  0  0  0  0  0  0  0  0  0  0  0
   -1.7593   -3.6934   -0.1338 C   0  0  0  0  0  0  0  0  0  0  0  0
   -0.8897   -3.7647   -1.3775 C   0  0  0  0  0  0  0  0  0  0  0  0
    0.0203   -2.5598   -1.4900 C   0  0  0  0  0  0  0  0  0  0  0  0
    1.0799   -2.6286   -2.1097 O   0  0  0  0  0  0  0  0  0  0  0  0
   -2.1597   -0.0057    0.1687 O   0  0  0  0  0  0  0  0  0  0  0  0
   -1.5265    1.1877   -0.1538 C   0  0  0  0  0  0  0  0  0  0  0  0
   -0.3128    1.2168   -0.7353 C   0  0  0  0  0  0  0  0  0  0  0  0
    0.2885    2.5341   -1.0933 C   0  0  0  0  0  0  0  0  0  0  0  0
    1.3513    2.5912   -1.7079 O   0  0  0  0  0  0  0  0  0  0  0  0
   -0.4114    3.7931   -0.6301 C   0  0  0  0  0  0  0  0  0  0  0  0
   -1.9199    3.6163   -0.6506 C   0  0  0  0  0  0  0  0  0  0  0  0
   -2.3396    2.4066    0.1753 C   0  0  0  0  0  0  0  0  0  0  0  0
    4.1602    0.8395    1.0455 H   0  0  0  0  0  0  0  0  0  0  0  0
    4.6011    0.5515    2.7306 H   0  0  0  0  0  0  0  0  0  0  0  0
    3.2699    1.6556    2.3474 H   0  0  0  0  0  0  0  0  0  0  0  0
    3.2872   -1.3643    1.7993 H   0  0  0  0  0  0  0  0  0  0  0  0
    2.5132   -0.6028    3.1846 H   0  0  0  0  0  0  0  0  0  0  0  0
    1.0138    0.6870    1.6728 H   0  0  0  0  0  0  0  0  0  0  0  0
    0.8209   -1.0603    1.5601 H   0  0  0  0  0  0  0  0  0  0  0  0
    2.3021   -1.0660   -0.4889 H   0  0  0  0  0  0  0  0  0  0  0  0
    2.4039    0.6733   -0.4116 H   0  0  0  0  0  0  0  0  0  0  0  0
    0.7605    0.0104   -2.1089 H   0  0  0  0  0  0  0  0  0  0  0  0
   -3.3241   -2.3814   -0.8470 H   0  0  0  0  0  0  0  0  0  0  0  0
   -3.0240   -2.2990    0.8906 H   0  0  0  0  0  0  0  0  0  0  0  0
   -1.1264   -3.7742    0.7598 H   0  0  0  0  0  0  0  0  0  0  0  0
   -2.4546   -4.5400   -0.1112 H   0  0  0  0  0  0  0  0  0  0  0  0
   -0.2691   -4.6661   -1.3320 H   0  0  0  0  0  0  0  0  0  0  0  0
   -1.5053   -3.8128   -2.2825 H   0  0  0  0  0  0  0  0  0  0  0  0
   -0.1346    4.6139   -1.3006 H   0  0  0  0  0  0  0  0  0  0  0  0
   -0.0542    4.0350    0.3769 H   0  0  0  0  0  0  0  0  0  0  0  0
   -2.2575    3.4824   -1.6867 H   0  0  0  0  0  0  0  0  0  0  0  0
   -2.4107    4.5182   -0.2682 H   0  0  0  0  0  0  0  0  0  0  0  0
   -3.4024    2.2086   -0.0082 H   0  0  0  0  0  0  0  0  0  0  0  0
   -2.2317    2.6244    1.2447 H   0  0  0  0  0  0  0  0  0  0  0  0
  1  2  1  0
  2  3  1  0
  3  4  1  0
  4  5  1  0
  5  6  1  0
  6  7  2  0
  7  8  1  0
  8  9  1  0
  9 10  1  0
 10 11  1  0
 11 12  2  0
  7 13  1  0
 13 14  1  0
 14 15  2  0
 15 16  1  0
 16 17  2  0
 16 18  1  0
 18 19  1  0
 19 20  1  0
 15  5  1  0
 11  6  1  0
 20 14  1  0
  1 21  1  0
  1 22  1  0
  1 23  1  0
  2 24  1  0
  2 25  1  0
  3 26  1  0
  3 27  1  0
  4 28  1  0
  4 29  1  0
  5 30  1  0
  8 31  1  0
  8 32  1  0
  9 33  1  0
  9 34  1  0
 10 35  1  0
 10 36  1  0
 18 37  1  0
 18 38  1  0
 19 39  1  0
 19 40  1  0
 20 41  1  0
 20 42  1  0
M  END
$$$$
