
     RDKit          3D

 47 50  0  0  0  0  0  0  0  0999 V2000
    2.9465   -1.8723    1.4495 C   0  0  0  0  0  0  0  0  0  0  0  0
    2.2035   -1.4867    0.2719 N   0  0  0  0  0  0  0  0  0  0  0  0
    2.3188   -0.2990   -0.4226 C   0  0  0  0  0  0  0  0  0  0  0  0
    3.1778    0.8185   -0.0645 C   0  0  0  0  0  0  0  0  0  0  0  0
    4.2758    1.1484   -0.8648 C   0  0  0  0  0  0  0  0  0  0  0  0
    5.0941    2.2274   -0.5263 C   0  0  0  0  0  0  0  0  0  0  0  0
    4.8162    2.9842    0.6114 C   0  0  0  0  0  0  0  0  0  0  0  0
    3.7236    2.6614    1.4147 C   0  0  0  0  0  0  0  0  0  0  0  0
    2.9036    1.5839    1.0758 C   0  0  0  0  0  0  0  0  0  0  0  0
    1.4366   -0.4359   -1.4790 C   0  0  0  0  0  0  0  0  0  0  0  0
    0.7782   -1.6358   -1.4323 N   0  0  0  0  0  0  0  0  0  0  0  0
    1.2430   -2.2315   -0.3590 C   0  0  0  0  0  0  0  0  0  0  0  0
    0.6471   -3.7376    0.2582 S   0  0  0  0  0  0  0  0  0  0  0  0
   -1.1305   -3.4859   -0.0756 C   0  0  0  0  0  0  0  0  0  0  0  0
   -1.6462   -2.2598    0.6857 C   0  0  0  0  0  0  0  0  0  0  0  0
   -1.4333   -2.1655    1.9008 O   0  0  0  0  0  0  0  0  0  0  0  0
   -2.3540   -1.2999   -0.0581 N   0  0  0  0  0  0  0  0  0  0  0  0
   -3.0419   -1.6782   -1.2939 C   0  0  0  0  0  0  0  0  0  0  0  0
   -4.3498   -0.9337   -1.4856 C   0  0  0  0  0  0  0  0  0  0  0  0
   -4.0753    0.5536   -1.5511 C   0  0  0  0  0  0  0  0  0  0  0  0
   -3.2151    0.9977   -0.3995 C   0  0  0  0  0  0  0  0  0  0  0  0
   -3.2183    2.3660   -0.0726 C   0  0  0  0  0  0  0  0  0  0  0  0
   -2.4214    2.8523    0.9577 C   0  0  0  0  0  0  0  0  0  0  0  0
   -1.6036    1.9777    1.6596 C   0  0  0  0  0  0  0  0  0  0  0  0
   -1.5840    0.6194    1.3347 C   0  0  0  0  0  0  0  0  0  0  0  0
   -2.3910    0.0962    0.3105 C   0  0  0  0  0  0  0  0  0  0  0  0
    3.8207   -1.2307    1.5714 H   0  0  0  0  0  0  0  0  0  0  0  0
    3.2959   -2.9011    1.3349 H   0  0  0  0  0  0  0  0  0  0  0  0
    2.2868   -1.7776    2.3170 H   0  0  0  0  0  0  0  0  0  0  0  0
    4.5011    0.5667   -1.7554 H   0  0  0  0  0  0  0  0  0  0  0  0
    5.9388    2.4877   -1.1592 H   0  0  0  0  0  0  0  0  0  0  0  0
    5.4501    3.8278    0.8713 H   0  0  0  0  0  0  0  0  0  0  0  0
    3.5062    3.2527    2.3014 H   0  0  0  0  0  0  0  0  0  0  0  0
    2.0437    1.3528    1.6971 H   0  0  0  0  0  0  0  0  0  0  0  0
    1.2325    0.2841   -2.2616 H   0  0  0  0  0  0  0  0  0  0  0  0
   -1.6887   -4.3597    0.2647 H   0  0  0  0  0  0  0  0  0  0  0  0
   -1.2485   -3.4049   -1.1570 H   0  0  0  0  0  0  0  0  0  0  0  0
   -2.3541   -1.4981   -2.1292 H   0  0  0  0  0  0  0  0  0  0  0  0
   -3.2722   -2.7510   -1.2710 H   0  0  0  0  0  0  0  0  0  0  0  0
   -4.8475   -1.2638   -2.4028 H   0  0  0  0  0  0  0  0  0  0  0  0
   -5.0243   -1.1540   -0.6502 H   0  0  0  0  0  0  0  0  0  0  0  0
   -3.5615    0.8005   -2.4875 H   0  0  0  0  0  0  0  0  0  0  0  0
   -5.0311    1.0917   -1.5440 H   0  0  0  0  0  0  0  0  0  0  0  0
   -3.8470    3.0601   -0.6262 H   0  0  0  0  0  0  0  0  0  0  0  0
   -2.4319    3.9114    1.2055 H   0  0  0  0  0  0  0  0  0  0  0  0
   -0.9708    2.3477    2.4585 H   0  0  0  0  0  0  0  0  0  0  0  0
   -0.8984   -0.0075    1.8942 H   0  0  0  0  0  0  0  0  0  0  0  0
  1  2  1  0
  2  3  1  0
  3  4  1  0
  4  5  2  0
  5  6  1  0
  6  7  2  0
  7  8  1  0
  8  9  2  0
  3 10  2  0
 10 11  1  0
 11 12  2  0
 12 13  1  0
 13 14  1  0
 14 15  1  0
 15 16  2  0
 15 17  1  0
 17 18  1  0
 18 19  1  0
 19 20  1  0
 20 21  1  0
 21 22  2  0
 22 23  1  0
 23 24  2  0
 24 25  1  0
 25 26  2  0
 12  2  1  0
 26 17  1  0
  9  4  1  0
 26 21  1  0
  1 27  1  0
  1 28  1  0
  1 29  1  0
  5 30  1  0
  6 31  1  0
  7 32  1  0
  8 33  1  0
  9 34  1  0
 10 35  1  0
 14 36  1  0
 14 37  1  0
 18 38  1  0
 18 39  1  0
 19 40  1  0
 19 41  1  0
 20 42  1  0
 20 43  1  0
 22 44  1  0
 23 45  1  0
 24 46  1  0
 25 47  1  0
M  END
$$$$
