
     RDKit          3D

 32 34  0  0  0  0  0  0  0  0999 V2000
    6.0645    0.5658    0.0907 C   0  0  0  0  0  0  0  0  0  0  0  0
    4.7058    0.0748   -0.3199 C   0  0  0  0  0  0  0  0  0  0  0  0
    4.5729   -1.1019   -1.0749 C   0  0  0  0  0  0  0  0  0  0  0  0
    3.3195   -1.5781   -1.4807 C   0  0  0  0  0  0  0  0  0  0  0  0
    2.2073   -0.8324   -1.0811 C   0  0  0  0  0  0  0  0  0  0  0  0
    0.8634   -0.9913   -1.2989 N   0  0  0  0  0  0  0  0  0  0  0  0
    0.1904    0.0173   -0.6402 C   0  0  0  0  0  0  0  0  0  0  0  0
   -1.2318    0.0542   -0.6696 C   0  0  0  0  0  0  0  0  0  0  0  0
   -1.9424   -0.4229   -1.8190 C   0  0  0  0  0  0  0  0  0  0  0  0
   -2.4692   -0.8320   -2.7697 N   0  0  0  0  0  0  0  0  0  0  0  0
   -1.8614    0.6217    0.3791 C   0  0  0  0  0  0  0  0  0  0  0  0
   -3.2800    0.6501    0.4815 C   0  0  0  0  0  0  0  0  0  0  0  0
   -4.2060    1.4678   -0.1636 C   0  0  0  0  0  0  0  0  0  0  0  0
   -5.5034    1.0581    0.2364 C   0  0  0  0  0  0  0  0  0  0  0  0
   -5.2933    0.0258    1.1148 C   0  0  0  0  0  0  0  0  0  0  0  0
   -6.2072   -0.8012    1.8400 N   0  0  0  0  0  4  0  0  0  0  0  0
   -7.4118   -0.6637    1.5549 O   0  0  0  0  0  0  0  0  0  0  0  0
   -5.7424   -1.5803    2.6830 O   0  0  0  0  0  1  0  0  0  0  0  0
   -3.9725   -0.2284    1.2827 O   0  0  0  0  0  0  0  0  0  0  0  0
    1.0508    0.8216   -0.0326 N   0  0  0  0  0  0  0  0  0  0  0  0
    2.2985    0.3139   -0.3068 C   0  0  0  0  0  0  0  0  0  0  0  0
    3.5601    0.7837    0.0828 C   0  0  0  0  0  0  0  0  0  0  0  0
    6.2678    0.2967    1.1348 H   0  0  0  0  0  0  0  0  0  0  0  0
    6.1240    1.6576   -0.0105 H   0  0  0  0  0  0  0  0  0  0  0  0
    6.8486    0.1380   -0.5433 H   0  0  0  0  0  0  0  0  0  0  0  0
    5.4628   -1.6611   -1.3630 H   0  0  0  0  0  0  0  0  0  0  0  0
    3.2318   -2.4832   -2.0743 H   0  0  0  0  0  0  0  0  0  0  0  0
    0.4423   -1.7514   -1.8167 H   0  0  0  0  0  0  0  0  0  0  0  0
   -1.2964    0.9763    1.2398 H   0  0  0  0  0  0  0  0  0  0  0  0
   -3.9681    2.2608   -0.8634 H   0  0  0  0  0  0  0  0  0  0  0  0
   -6.4577    1.4524   -0.0882 H   0  0  0  0  0  0  0  0  0  0  0  0
    3.6328    1.6914    0.6744 H   0  0  0  0  0  0  0  0  0  0  0  0
  1  2  1  0
  2  3  2  0
  3  4  1  0
  4  5  2  0
  5  6  1  0
  6  7  1  0
  7  8  1  0
  8  9  1  0
  9 10  3  0
  8 11  2  3
 11 12  1  0
 12 13  2  0
 13 14  1  0
 14 15  2  0
 15 16  1  0
 16 17  2  0
 16 18  1  0
 15 19  1  0
  7 20  2  0
 20 21  1  0
 21 22  2  0
 22  2  1  0
 21  5  1  0
 19 12  1  0
  1 23  1  0
  1 24  1  0
  1 25  1  0
  3 26  1  0
  4 27  1  0
  6 28  1  0
 11 29  1  0
 13 30  1  0
 14 31  1  0
 22 32  1  0
M  CHG  2  16   1  18  -1
M  END
$$$$
