
     RDKit          3D

 43 45  0  0  0  0  0  0  0  0999 V2000
   -1.8436   -1.5577    1.4653 N   0  0  0  0  0  0  0  0  0  0  0  0
   -0.9013   -0.6291    1.6992 C   0  0  0  0  0  0  0  0  0  0  0  0
   -0.7531   -0.0291    2.8424 N   0  0  0  0  0  0  0  0  0  0  0  0
    0.3610    0.9289    2.6011 C   0  0  0  0  0  0  0  0  0  0  0  0
    0.9892    0.5589    1.2390 C   0  0  0  0  0  0  0  0  0  0  0  0
    2.3292   -0.1717    1.4359 C   0  0  0  0  0  0  0  0  0  0  0  0
    3.0686   -0.4244    0.1411 C   0  0  0  0  0  0  0  0  0  0  0  0
    3.0129   -1.6843   -0.4713 C   0  0  0  0  0  0  0  0  0  0  0  0
    3.6770   -1.9136   -1.6765 C   0  0  0  0  0  0  0  0  0  0  0  0
    4.3993   -0.8865   -2.2707 C   0  0  0  0  0  0  0  0  0  0  0  0
    5.0326   -1.1542   -3.4481 O   0  0  0  0  0  0  0  0  0  0  0  0
    4.4691    0.3706   -1.6795 C   0  0  0  0  0  0  0  0  0  0  0  0
    3.8024    0.6010   -0.4738 C   0  0  0  0  0  0  0  0  0  0  0  0
   -0.0295   -0.3422    0.6982 N   0  0  0  0  0  0  0  0  0  0  0  0
   -0.3891   -0.2437   -0.7150 C   0  0  0  0  0  0  0  0  0  0  0  0
   -1.2284    0.9991   -1.0542 C   0  0  0  0  0  0  0  0  0  0  0  0
   -2.7135    0.8407   -0.8312 C   0  0  0  0  0  0  0  0  0  0  0  0
   -3.5057    0.1613   -1.7710 C   0  0  0  0  0  0  0  0  0  0  0  0
   -4.8807    0.0127   -1.5698 C   0  0  0  0  0  0  0  0  0  0  0  0
   -5.4768    0.5406   -0.4266 C   0  0  0  0  0  0  0  0  0  0  0  0
   -4.6937    1.2101    0.5060 C   0  0  0  0  0  0  0  0  0  0  0  0
   -5.2696    1.7174    1.6043 F   0  0  0  0  0  0  0  0  0  0  0  0
   -3.3243    1.3651    0.3154 C   0  0  0  0  0  0  0  0  0  0  0  0
   -2.3052   -1.8303    2.3256 H   0  0  0  0  0  0  0  0  0  0  0  0
   -1.4990   -2.3550    0.9500 H   0  0  0  0  0  0  0  0  0  0  0  0
    1.0792    0.8869    3.4261 H   0  0  0  0  0  0  0  0  0  0  0  0
   -0.0578    1.9415    2.5659 H   0  0  0  0  0  0  0  0  0  0  0  0
    1.1245    1.4618    0.6323 H   0  0  0  0  0  0  0  0  0  0  0  0
    2.9842    0.4261    2.0835 H   0  0  0  0  0  0  0  0  0  0  0  0
    2.1775   -1.1232    1.9629 H   0  0  0  0  0  0  0  0  0  0  0  0
    2.4440   -2.4917   -0.0150 H   0  0  0  0  0  0  0  0  0  0  0  0
    3.6316   -2.8906   -2.1490 H   0  0  0  0  0  0  0  0  0  0  0  0
    5.5237   -0.3628   -3.7227 H   0  0  0  0  0  0  0  0  0  0  0  0
    5.0328    1.1771   -2.1373 H   0  0  0  0  0  0  0  0  0  0  0  0
    3.8623    1.5854   -0.0150 H   0  0  0  0  0  0  0  0  0  0  0  0
    0.5366   -0.1881   -1.2988 H   0  0  0  0  0  0  0  0  0  0  0  0
   -0.8916   -1.1614   -1.0428 H   0  0  0  0  0  0  0  0  0  0  0  0
   -0.8665    1.8809   -0.5119 H   0  0  0  0  0  0  0  0  0  0  0  0
   -1.0830    1.2338   -2.1174 H   0  0  0  0  0  0  0  0  0  0  0  0
   -3.0553   -0.2569   -2.6687 H   0  0  0  0  0  0  0  0  0  0  0  0
   -5.4845   -0.5149   -2.3033 H   0  0  0  0  0  0  0  0  0  0  0  0
   -6.5424    0.4332   -0.2539 H   0  0  0  0  0  0  0  0  0  0  0  0
   -2.7435    1.8780    1.0766 H   0  0  0  0  0  0  0  0  0  0  0  0
  1  2  1  0
  2  3  2  0
  3  4  1  0
  4  5  1  0
  5  6  1  0
  6  7  1  0
  7  8  2  0
  8  9  1  0
  9 10  2  0
 10 11  1  0
 10 12  1  0
 12 13  2  0
  5 14  1  0
 14 15  1  0
 15 16  1  0
 16 17  1  0
 17 18  2  0
 18 19  1  0
 19 20  2  0
 20 21  1  0
 21 22  1  0
 21 23  2  0
 14  2  1  0
 23 17  1  0
 13  7  1  0
  1 24  1  0
  1 25  1  0
  4 26  1  0
  4 27  1  0
  5 28  1  0
  6 29  1  0
  6 30  1  0
  8 31  1  0
  9 32  1  0
 11 33  1  0
 12 34  1  0
 13 35  1  0
 15 36  1  0
 15 37  1  0
 16 38  1  0
 16 39  1  0
 18 40  1  0
 19 41  1  0
 20 42  1  0
 23 43  1  0
M  END
$$$$
