
     RDKit          3D

 37 37  0  0  0  0  0  0  0  0999 V2000
    5.5379    0.9805    0.0046 C   0  0  0  0  0  0  0  0  0  0  0  0
    5.1775   -0.0684   -1.0356 C   0  0  0  0  0  0  0  0  0  0  0  0
    4.6359   -1.3669   -0.4331 C   0  0  0  0  0  0  0  0  0  0  0  0
    3.3655   -1.2278    0.4106 C   0  0  0  0  0  0  0  0  0  0  0  0
    2.1779   -0.6639   -0.3678 C   0  0  0  0  0  0  0  0  0  0  0  0
    0.8994   -0.6569    0.4538 C   0  0  0  0  0  0  0  0  0  0  0  0
    0.8511   -1.0283    1.6221 O   0  0  0  0  0  0  0  0  0  0  0  0
   -0.1756   -0.1716   -0.2828 N   0  0  0  0  0  0  0  0  0  0  0  0
   -1.4124   -0.1308    0.2800 N   0  0  0  0  0  0  0  0  0  0  0  0
   -2.4105    0.3655   -0.3911 C   0  0  0  0  0  0  0  0  0  0  0  0
   -2.2826    0.9595   -1.7787 C   0  0  0  0  0  0  0  0  0  0  0  0
   -3.7619    0.3496    0.2525 C   0  0  0  0  0  0  0  0  0  0  0  0
   -3.8445    0.3604    1.6528 C   0  0  0  0  0  0  0  0  0  0  0  0
   -5.0892    0.3401    2.2880 C   0  0  0  0  0  0  0  0  0  0  0  0
   -6.2533    0.3002    1.5247 C   0  0  0  0  0  0  0  0  0  0  0  0
   -7.7872    0.2751    2.3025 Cl  0  0  0  0  0  0  0  0  0  0  0  0
   -6.1831    0.2740    0.1323 C   0  0  0  0  0  0  0  0  0  0  0  0
   -4.9381    0.2943   -0.5057 C   0  0  0  0  0  0  0  0  0  0  0  0
    6.0114    1.8413   -0.4785 H   0  0  0  0  0  0  0  0  0  0  0  0
    4.6507    1.3439    0.5315 H   0  0  0  0  0  0  0  0  0  0  0  0
    6.2392    0.5780    0.7422 H   0  0  0  0  0  0  0  0  0  0  0  0
    6.0777   -0.3077   -1.6148 H   0  0  0  0  0  0  0  0  0  0  0  0
    4.4576    0.3525   -1.7461 H   0  0  0  0  0  0  0  0  0  0  0  0
    4.4444   -2.0746   -1.2493 H   0  0  0  0  0  0  0  0  0  0  0  0
    5.4166   -1.8208    0.1901 H   0  0  0  0  0  0  0  0  0  0  0  0
    3.5630   -0.6068    1.2923 H   0  0  0  0  0  0  0  0  0  0  0  0
    3.1043   -2.2217    0.7966 H   0  0  0  0  0  0  0  0  0  0  0  0
    2.3806    0.3677   -0.6760 H   0  0  0  0  0  0  0  0  0  0  0  0
    2.0039   -1.2665   -1.2670 H   0  0  0  0  0  0  0  0  0  0  0  0
   -0.0503    0.0836   -1.2535 H   0  0  0  0  0  0  0  0  0  0  0  0
   -3.1565    1.5521   -2.0580 H   0  0  0  0  0  0  0  0  0  0  0  0
   -2.1453    0.1543   -2.5058 H   0  0  0  0  0  0  0  0  0  0  0  0
   -1.4223    1.6347   -1.8168 H   0  0  0  0  0  0  0  0  0  0  0  0
   -2.9387    0.3827    2.2576 H   0  0  0  0  0  0  0  0  0  0  0  0
   -5.1385    0.3503    3.3738 H   0  0  0  0  0  0  0  0  0  0  0  0
   -7.0929    0.2293   -0.4612 H   0  0  0  0  0  0  0  0  0  0  0  0
   -4.9117    0.2433   -1.5902 H   0  0  0  0  0  0  0  0  0  0  0  0
  1  2  1  0
  2  3  1  0
  3  4  1  0
  4  5  1  0
  5  6  1  0
  6  7  2  0
  6  8  1  0
  8  9  1  0
  9 10  2  3
 10 11  1  0
 10 12  1  0
 12 13  2  0
 13 14  1  0
 14 15  2  0
 15 16  1  0
 15 17  1  0
 17 18  2  0
 18 12  1  0
  1 19  1  0
  1 20  1  0
  1 21  1  0
  2 22  1  0
  2 23  1  0
  3 24  1  0
  3 25  1  0
  4 26  1  0
  4 27  1  0
  5 28  1  0
  5 29  1  0
  8 30  1  0
 11 31  1  0
 11 32  1  0
 11 33  1  0
 13 34  1  0
 14 35  1  0
 17 36  1  0
 18 37  1  0
M  END
$$$$
