
     RDKit          3D

 55 57  0  0  0  0  0  0  0  0999 V2000
    7.1436    1.9717   -2.3075 C   0  0  0  0  0  0  0  0  0  0  0  0
    6.0540    1.2441   -2.8733 O   0  0  0  0  0  0  0  0  0  0  0  0
    4.8270    1.4207   -2.2893 C   0  0  0  0  0  0  0  0  0  0  0  0
    4.5220    2.3479   -1.2922 C   0  0  0  0  0  0  0  0  0  0  0  0
    3.2218    2.4239   -0.7810 C   0  0  0  0  0  0  0  0  0  0  0  0
    2.2012    1.5741   -1.2519 C   0  0  0  0  0  0  0  0  0  0  0  0
    0.8174    1.6669   -0.6196 C   0  0  0  0  0  0  0  0  0  0  0  0
   -0.4577    2.1160   -1.8590 S   0  0  0  0  0  0  0  0  0  0  0  0
   -1.8343    2.2973   -0.7248 C   0  0  0  0  0  0  0  0  0  0  0  0
   -2.3808    3.5925   -0.6190 C   0  0  0  0  0  0  0  0  0  0  0  0
   -3.4938    3.8312    0.1858 C   0  0  0  0  0  0  0  0  0  0  0  0
   -4.0787    2.7743    0.8839 C   0  0  0  0  0  0  0  0  0  0  0  0
   -3.5534    1.4774    0.7727 C   0  0  0  0  0  0  0  0  0  0  0  0
   -2.4229    1.2137   -0.0244 C   0  0  0  0  0  0  0  0  0  0  0  0
   -1.9387   -0.1340   -0.1466 N   0  0  0  0  0  0  0  0  0  0  0  0
   -2.9075   -1.2419   -0.1785 C   0  0  0  0  0  0  0  0  0  0  0  0
   -2.8338   -2.0975    1.1065 C   0  0  0  0  0  0  0  0  0  0  0  0
   -3.9456   -3.0622    1.2441 N   0  0  0  0  0  0  0  0  0  0  0  0
   -3.9576   -3.6088    2.6063 C   0  0  0  0  0  0  0  0  0  0  0  0
   -3.8252   -4.1579    0.2785 C   0  0  0  0  0  0  0  0  0  0  0  0
   -0.5894   -0.4783   -0.2920 C   0  0  0  0  0  0  0  0  0  0  0  0
   -0.2371   -1.5638   -0.7607 O   0  0  0  0  0  0  0  0  0  0  0  0
    0.4382    0.4970    0.3091 C   0  0  0  0  0  0  0  0  0  0  0  0
    1.6093   -0.2589    0.6953 O   0  0  0  0  0  0  0  0  0  0  0  0
    1.4843   -0.9777    1.8443 C   0  0  0  0  0  0  0  0  0  0  0  0
    2.6602   -1.8923    2.0038 C   0  0  0  0  0  0  0  0  0  0  0  0
    0.5513   -0.9034    2.6419 O   0  0  0  0  0  0  0  0  0  0  0  0
    2.5168    0.6429   -2.2540 C   0  0  0  0  0  0  0  0  0  0  0  0
    3.8180    0.5764   -2.7692 C   0  0  0  0  0  0  0  0  0  0  0  0
    8.0556    1.6949   -2.8553 H   0  0  0  0  0  0  0  0  0  0  0  0
    7.2889    1.6989   -1.2574 H   0  0  0  0  0  0  0  0  0  0  0  0
    7.0000    3.0586   -2.4179 H   0  0  0  0  0  0  0  0  0  0  0  0
    5.2665    3.0276   -0.8845 H   0  0  0  0  0  0  0  0  0  0  0  0
    3.0143    3.1537    0.0026 H   0  0  0  0  0  0  0  0  0  0  0  0
    0.8513    2.5519    0.0335 H   0  0  0  0  0  0  0  0  0  0  0  0
   -1.9473    4.4261   -1.1773 H   0  0  0  0  0  0  0  0  0  0  0  0
   -3.9092    4.8383    0.2568 H   0  0  0  0  0  0  0  0  0  0  0  0
   -4.9492    2.9550    1.5138 H   0  0  0  0  0  0  0  0  0  0  0  0
   -4.0362    0.6845    1.3463 H   0  0  0  0  0  0  0  0  0  0  0  0
   -3.9231   -0.8602   -0.3301 H   0  0  0  0  0  0  0  0  0  0  0  0
   -2.6801   -1.8585   -1.0546 H   0  0  0  0  0  0  0  0  0  0  0  0
   -1.8653   -2.6092    1.1652 H   0  0  0  0  0  0  0  0  0  0  0  0
   -2.8637   -1.4062    1.9592 H   0  0  0  0  0  0  0  0  0  0  0  0
   -4.1516   -2.8051    3.3308 H   0  0  0  0  0  0  0  0  0  0  0  0
   -4.7654   -4.3429    2.7282 H   0  0  0  0  0  0  0  0  0  0  0  0
   -3.0055   -4.0917    2.8691 H   0  0  0  0  0  0  0  0  0  0  0  0
   -2.8960   -4.7232    0.4062 H   0  0  0  0  0  0  0  0  0  0  0  0
   -3.8694   -3.7894   -0.7507 H   0  0  0  0  0  0  0  0  0  0  0  0
   -4.6678   -4.8510    0.3884 H   0  0  0  0  0  0  0  0  0  0  0  0
   -0.0016    0.9308    1.2188 H   0  0  0  0  0  0  0  0  0  0  0  0
    2.6498   -2.3018    3.0198 H   0  0  0  0  0  0  0  0  0  0  0  0
    2.5839   -2.7134    1.2805 H   0  0  0  0  0  0  0  0  0  0  0  0
    3.5980   -1.3404    1.8680 H   0  0  0  0  0  0  0  0  0  0  0  0
    1.7623   -0.0439   -2.6413 H   0  0  0  0  0  0  0  0  0  0  0  0
    4.0523   -0.1493   -3.5474 H   0  0  0  0  0  0  0  0  0  0  0  0
  1  2  1  0
  2  3  1  0
  3  4  2  0
  4  5  1  0
  5  6  2  0
  6  7  1  0
  7  8  1  0
  8  9  1  0
  9 10  2  0
 10 11  1  0
 11 12  2  0
 12 13  1  0
 13 14  2  0
 14 15  1  0
 15 16  1  0
 16 17  1  0
 17 18  1  0
 18 19  1  0
 18 20  1  0
 15 21  1  0
 21 22  2  0
 21 23  1  0
 23 24  1  0
 24 25  1  0
 25 26  1  0
 25 27  2  0
  6 28  1  0
 28 29  2  0
 29  3  1  0
 23  7  1  0
 14  9  1  0
  1 30  1  0
  1 31  1  0
  1 32  1  0
  4 33  1  0
  5 34  1  0
  7 35  1  0
 10 36  1  0
 11 37  1  0
 12 38  1  0
 13 39  1  0
 16 40  1  0
 16 41  1  0
 17 42  1  0
 17 43  1  0
 19 44  1  0
 19 45  1  0
 19 46  1  0
 20 47  1  0
 20 48  1  0
 20 49  1  0
 23 50  1  0
 26 51  1  0
 26 52  1  0
 26 53  1  0
 28 54  1  0
 29 55  1  0
M  END
$$$$
