
     RDKit          3D

 48 49  0  0  0  0  0  0  0  0999 V2000
   -5.0273   -1.8226   -3.0455 C   0  0  0  0  0  0  0  0  0  0  0  0
   -4.0417   -1.3335   -2.0265 C   0  0  0  0  0  0  0  0  0  0  0  0
   -3.4594   -2.2231   -1.1178 C   0  0  0  0  0  0  0  0  0  0  0  0
   -2.5624   -1.7630   -0.1507 C   0  0  0  0  0  0  0  0  0  0  0  0
   -2.2391   -0.4028   -0.0687 C   0  0  0  0  0  0  0  0  0  0  0  0
   -1.2648    0.0908    0.9759 C   0  0  0  0  0  0  0  0  0  0  0  0
    0.0608    0.6017    0.3898 C   0  0  0  0  0  0  0  0  0  0  0  0
    0.8017   -0.4542   -0.2966 N   0  0  0  0  0  0  0  0  0  0  0  0
    1.6220   -0.1417   -1.3608 C   0  0  0  0  0  0  0  0  0  0  0  0
    1.6830    0.9758   -1.8613 O   0  0  0  0  0  0  0  0  0  0  0  0
    2.4864   -1.2437   -1.8657 C   0  0  0  0  0  0  0  0  0  0  0  0
    3.6910   -0.9135   -2.4982 C   0  0  0  0  0  0  0  0  0  0  0  0
    4.5260   -1.9205   -2.9855 C   0  0  0  0  0  0  0  0  0  0  0  0
    4.1559   -3.2584   -2.8512 C   0  0  0  0  0  0  0  0  0  0  0  0
    2.9487   -3.5927   -2.2369 C   0  0  0  0  0  0  0  0  0  0  0  0
    2.1108   -2.5884   -1.7467 C   0  0  0  0  0  0  0  0  0  0  0  0
    0.9335    1.1076    1.5531 C   0  0  0  0  0  0  0  0  0  0  0  0
    1.7216    0.3771    2.1531 O   0  0  0  0  0  0  0  0  0  0  0  0
    0.7075    2.4209    1.9138 N   0  0  0  0  0  0  0  0  0  0  0  0
    1.2771    2.9574    3.1491 C   0  0  0  0  0  0  0  0  0  0  0  0
    1.4800    4.4598    3.0305 C   0  0  0  0  0  0  0  0  0  0  0  0
    0.3169    2.6508    4.2980 C   0  0  0  0  0  0  0  0  0  0  0  0
   -0.8654    2.3557    4.1942 O   0  0  0  0  0  0  0  0  0  0  0  0
    0.8874    2.7716    5.5134 O   0  0  0  0  0  0  0  0  0  0  0  0
   -2.8374    0.4892   -0.9674 C   0  0  0  0  0  0  0  0  0  0  0  0
   -3.7333    0.0279   -1.9349 C   0  0  0  0  0  0  0  0  0  0  0  0
   -4.8004   -2.8507   -3.3466 H   0  0  0  0  0  0  0  0  0  0  0  0
   -6.0400   -1.7902   -2.6322 H   0  0  0  0  0  0  0  0  0  0  0  0
   -4.9936   -1.2052   -3.9493 H   0  0  0  0  0  0  0  0  0  0  0  0
   -3.6994   -3.2831   -1.1581 H   0  0  0  0  0  0  0  0  0  0  0  0
   -2.1194   -2.4777    0.5389 H   0  0  0  0  0  0  0  0  0  0  0  0
   -1.0648   -0.7107    1.7002 H   0  0  0  0  0  0  0  0  0  0  0  0
   -1.7565    0.8863    1.5515 H   0  0  0  0  0  0  0  0  0  0  0  0
   -0.1174    1.4308   -0.3049 H   0  0  0  0  0  0  0  0  0  0  0  0
    1.0950   -1.2296    0.2859 H   0  0  0  0  0  0  0  0  0  0  0  0
    3.9813    0.1293   -2.6089 H   0  0  0  0  0  0  0  0  0  0  0  0
    5.4625   -1.6597   -3.4720 H   0  0  0  0  0  0  0  0  0  0  0  0
    4.8057   -4.0416   -3.2342 H   0  0  0  0  0  0  0  0  0  0  0  0
    2.6562   -4.6361   -2.1481 H   0  0  0  0  0  0  0  0  0  0  0  0
    1.1597   -2.8660   -1.3009 H   0  0  0  0  0  0  0  0  0  0  0  0
   -0.1489    2.8511    1.5850 H   0  0  0  0  0  0  0  0  0  0  0  0
    2.2297    2.4547    3.3492 H   0  0  0  0  0  0  0  0  0  0  0  0
    2.1457    4.6978    2.1941 H   0  0  0  0  0  0  0  0  0  0  0  0
    1.9193    4.8712    3.9453 H   0  0  0  0  0  0  0  0  0  0  0  0
    0.5295    4.9777    2.8579 H   0  0  0  0  0  0  0  0  0  0  0  0
    0.1743    2.5313    6.1416 H   0  0  0  0  0  0  0  0  0  0  0  0
   -2.6115    1.5520   -0.9255 H   0  0  0  0  0  0  0  0  0  0  0  0
   -4.1866    0.7402   -2.6207 H   0  0  0  0  0  0  0  0  0  0  0  0
  1  2  1  0
  2  3  2  0
  3  4  1  0
  4  5  2  0
  5  6  1  0
  6  7  1  0
  7  8  1  0
  8  9  1  0
  9 10  2  0
  9 11  1  0
 11 12  2  0
 12 13  1  0
 13 14  2  0
 14 15  1  0
 15 16  2  0
  7 17  1  0
 17 18  2  0
 17 19  1  0
 19 20  1  0
 20 21  1  0
 20 22  1  0
 22 23  2  0
 22 24  1  0
  5 25  1  0
 25 26  2  0
 26  2  1  0
 16 11  1  0
  1 27  1  0
  1 28  1  0
  1 29  1  0
  3 30  1  0
  4 31  1  0
  6 32  1  0
  6 33  1  0
  7 34  1  0
  8 35  1  0
 12 36  1  0
 13 37  1  0
 14 38  1  0
 15 39  1  0
 16 40  1  0
 19 41  1  0
 20 42  1  0
 21 43  1  0
 21 44  1  0
 21 45  1  0
 24 46  1  0
 25 47  1  0
 26 48  1  0
M  END
$$$$
