
     RDKit          3D

 52 54  0  0  0  0  0  0  0  0999 V2000
    2.2982   -0.1938    2.0095 C   0  0  0  0  0  0  0  0  0  0  0  0
    1.0409    0.4765    1.4583 C   0  0  0  0  0  0  0  0  0  0  0  0
    0.4001   -0.0947    0.2623 N   0  0  0  0  0  0  0  0  0  0  0  0
    1.3297   -0.5954   -0.7628 C   0  0  0  0  0  0  0  0  0  0  0  0
    2.2220    0.4634   -1.3828 C   0  0  0  0  0  0  0  0  0  0  0  0
    3.6077    0.2566   -1.4664 C   0  0  0  0  0  0  0  0  0  0  0  0
    4.4371    1.2094   -2.0614 C   0  0  0  0  0  0  0  0  0  0  0  0
    3.8914    2.3760   -2.5913 C   0  0  0  0  0  0  0  0  0  0  0  0
    2.5163    2.5884   -2.5309 C   0  0  0  0  0  0  0  0  0  0  0  0
    1.6870    1.6354   -1.9362 C   0  0  0  0  0  0  0  0  0  0  0  0
   -0.7367   -1.0179    0.5106 C   0  0  0  0  0  0  0  0  0  0  0  0
   -0.3424   -2.4043    1.0407 C   0  0  0  0  0  0  0  0  0  0  0  0
   -0.2159   -3.4808    0.1469 C   0  0  0  0  0  0  0  0  0  0  0  0
    0.1536   -4.7270    0.6319 C   0  0  0  0  0  0  0  0  0  0  0  0
    0.4053   -4.9812    1.9305 N   0  0  0  0  0  0  0  0  0  0  0  0
    0.2735   -3.9443    2.7831 C   0  0  0  0  0  0  0  0  0  0  0  0
   -0.0863   -2.6627    2.3930 C   0  0  0  0  0  0  0  0  0  0  0  0
   -1.8790   -0.3603    1.2632 C   0  0  0  0  0  0  0  0  0  0  0  0
   -2.2447   -0.6467    2.5039 N   0  0  0  0  0  0  0  0  0  0  0  0
   -3.2828    0.1692    2.8225 N   0  0  0  0  0  0  0  0  0  0  0  0
   -3.5748    0.9646    1.8140 N   0  0  0  0  0  0  0  0  0  0  0  0
   -2.7239    0.6392    0.8111 N   0  0  0  0  0  0  0  0  0  0  0  0
   -2.7977    1.4281   -0.4279 C   0  0  0  0  0  0  0  0  0  0  0  0
   -1.8821    2.6579   -0.2965 C   0  0  0  0  0  0  0  0  0  0  0  0
   -4.2465    1.9428   -0.6595 C   0  0  0  0  0  0  0  0  0  0  0  0
   -2.4359    0.6369   -1.6978 C   0  0  0  0  0  0  0  0  0  0  0  0
    2.1716   -1.2646    2.1710 H   0  0  0  0  0  0  0  0  0  0  0  0
    2.5601    0.2566    2.9732 H   0  0  0  0  0  0  0  0  0  0  0  0
    3.1574   -0.0507    1.3500 H   0  0  0  0  0  0  0  0  0  0  0  0
    0.3199    0.5766    2.2772 H   0  0  0  0  0  0  0  0  0  0  0  0
    1.3113    1.5125    1.2159 H   0  0  0  0  0  0  0  0  0  0  0  0
    0.7630   -1.0201   -1.6027 H   0  0  0  0  0  0  0  0  0  0  0  0
    1.9401   -1.4168   -0.3680 H   0  0  0  0  0  0  0  0  0  0  0  0
    4.0546   -0.6495   -1.0622 H   0  0  0  0  0  0  0  0  0  0  0  0
    5.5097    1.0400   -2.1114 H   0  0  0  0  0  0  0  0  0  0  0  0
    4.5373    3.1178   -3.0535 H   0  0  0  0  0  0  0  0  0  0  0  0
    2.0885    3.4963   -2.9479 H   0  0  0  0  0  0  0  0  0  0  0  0
    0.6174    1.8150   -1.9052 H   0  0  0  0  0  0  0  0  0  0  0  0
   -1.1813   -1.2388   -0.4667 H   0  0  0  0  0  0  0  0  0  0  0  0
   -0.4007   -3.3618   -0.9159 H   0  0  0  0  0  0  0  0  0  0  0  0
    0.2589   -5.5786   -0.0341 H   0  0  0  0  0  0  0  0  0  0  0  0
    0.4719   -4.1732    3.8265 H   0  0  0  0  0  0  0  0  0  0  0  0
   -0.1639   -1.8851    3.1465 H   0  0  0  0  0  0  0  0  0  0  0  0
   -1.8998    3.2659   -1.2080 H   0  0  0  0  0  0  0  0  0  0  0  0
   -0.8446    2.3725   -0.1064 H   0  0  0  0  0  0  0  0  0  0  0  0
   -2.1936    3.2986    0.5370 H   0  0  0  0  0  0  0  0  0  0  0  0
   -4.9572    1.1092   -0.7116 H   0  0  0  0  0  0  0  0  0  0  0  0
   -4.5781    2.6155    0.1402 H   0  0  0  0  0  0  0  0  0  0  0  0
   -4.3237    2.5071   -1.5965 H   0  0  0  0  0  0  0  0  0  0  0  0
   -2.9689   -0.3196   -1.7377 H   0  0  0  0  0  0  0  0  0  0  0  0
   -2.6983    1.1978   -2.6031 H   0  0  0  0  0  0  0  0  0  0  0  0
   -1.3655    0.4420   -1.7746 H   0  0  0  0  0  0  0  0  0  0  0  0
  1  2  1  0
  2  3  1  0
  3  4  1  0
  4  5  1  0
  5  6  2  0
  6  7  1  0
  7  8  2  0
  8  9  1  0
  9 10  2  0
  3 11  1  0
 11 12  1  0
 12 13  2  0
 13 14  1  0
 14 15  2  0
 15 16  1  0
 16 17  2  0
 11 18  1  0
 18 19  2  0
 19 20  1  0
 20 21  2  0
 21 22  1  0
 22 23  1  0
 23 24  1  0
 23 25  1  0
 23 26  1  0
 10  5  1  0
 17 12  1  0
 22 18  1  0
  1 27  1  0
  1 28  1  0
  1 29  1  0
  2 30  1  0
  2 31  1  0
  4 32  1  0
  4 33  1  0
  6 34  1  0
  7 35  1  0
  8 36  1  0
  9 37  1  0
 10 38  1  0
 11 39  1  0
 13 40  1  0
 14 41  1  0
 16 42  1  0
 17 43  1  0
 24 44  1  0
 24 45  1  0
 24 46  1  0
 25 47  1  0
 25 48  1  0
 25 49  1  0
 26 50  1  0
 26 51  1  0
 26 52  1  0
M  END
$$$$
