
     RDKit          3D

 35 37  0  0  0  0  0  0  0  0999 V2000
    0.8938    0.8890   -2.6813 O   0  0  0  0  0  0  0  0  0  0  0  0
    1.7582    0.6018   -1.7152 C   0  0  0  0  0  0  0  0  0  0  0  0
    3.0838    0.8813   -1.8775 N   0  0  0  0  0  0  0  0  0  0  0  0
    3.7920    0.5031   -0.7608 C   0  0  0  0  0  0  0  0  0  0  0  0
    5.1615    0.5986   -0.4870 C   0  0  0  0  0  0  0  0  0  0  0  0
    5.6095    0.1260    0.7495 C   0  0  0  0  0  0  0  0  0  0  0  0
    4.7218   -0.4199    1.6731 C   0  0  0  0  0  0  0  0  0  0  0  0
    3.3547   -0.5083    1.3841 C   0  0  0  0  0  0  0  0  0  0  0  0
    2.8742   -0.0385    0.1431 C   0  0  0  0  0  0  0  0  0  0  0  0
    1.5821    0.0281   -0.4701 C   0  0  0  0  0  0  0  0  0  0  0  0
    0.3141   -0.4072    0.0753 C   0  0  0  0  0  0  0  0  0  0  0  0
   -0.7492   -0.2595   -0.6515 N   0  0  0  0  0  0  0  0  0  0  0  0
   -1.9646   -0.6455   -0.1276 N   0  0  0  0  0  0  0  0  0  0  0  0
   -3.0846   -0.5719   -1.0731 C   0  0  0  0  0  0  0  0  0  0  0  0
   -4.0540    0.5372   -0.6879 C   0  0  0  0  0  0  0  0  0  0  0  0
   -4.6284    0.3242    0.7162 C   0  0  0  0  0  0  0  0  0  0  0  0
   -3.7608   -0.5857    1.5891 C   0  0  0  0  0  0  0  0  0  0  0  0
   -2.2756   -0.4067    1.2894 C   0  0  0  0  0  0  0  0  0  0  0  0
    0.0184    0.5935   -2.3415 H   0  0  0  0  0  0  0  0  0  0  0  0
    3.4748    1.3050   -2.7056 H   0  0  0  0  0  0  0  0  0  0  0  0
    5.8556    1.0230   -1.2052 H   0  0  0  0  0  0  0  0  0  0  0  0
    6.6681    0.1857    0.9921 H   0  0  0  0  0  0  0  0  0  0  0  0
    5.0932   -0.7823    2.6287 H   0  0  0  0  0  0  0  0  0  0  0  0
    2.6775   -0.9382    2.1161 H   0  0  0  0  0  0  0  0  0  0  0  0
    0.3165   -0.8549    1.0813 H   0  0  0  0  0  0  0  0  0  0  0  0
   -3.5872   -1.5458   -1.0580 H   0  0  0  0  0  0  0  0  0  0  0  0
   -2.6977   -0.4184   -2.0870 H   0  0  0  0  0  0  0  0  0  0  0  0
   -4.8695    0.6036   -1.4165 H   0  0  0  0  0  0  0  0  0  0  0  0
   -3.5273    1.4998   -0.7140 H   0  0  0  0  0  0  0  0  0  0  0  0
   -4.7490    1.3008    1.2007 H   0  0  0  0  0  0  0  0  0  0  0  0
   -5.6336   -0.1084    0.6457 H   0  0  0  0  0  0  0  0  0  0  0  0
   -4.0416   -1.6306    1.4045 H   0  0  0  0  0  0  0  0  0  0  0  0
   -3.9628   -0.3886    2.6478 H   0  0  0  0  0  0  0  0  0  0  0  0
   -1.9704    0.6172    1.5356 H   0  0  0  0  0  0  0  0  0  0  0  0
   -1.6934   -1.1071    1.8957 H   0  0  0  0  0  0  0  0  0  0  0  0
  1  2  1  0
  2  3  1  0
  3  4  1  0
  4  5  2  0
  5  6  1  0
  6  7  2  0
  7  8  1  0
  8  9  2  0
  9 10  1  0
 10 11  1  0
 11 12  2  3
 12 13  1  0
 13 14  1  0
 14 15  1  0
 15 16  1  0
 16 17  1  0
 17 18  1  0
 10  2  2  0
 18 13  1  0
  9  4  1  0
  1 19  1  0
  3 20  1  0
  5 21  1  0
  6 22  1  0
  7 23  1  0
  8 24  1  0
 11 25  1  0
 14 26  1  0
 14 27  1  0
 15 28  1  0
 15 29  1  0
 16 30  1  0
 16 31  1  0
 17 32  1  0
 17 33  1  0
 18 34  1  0
 18 35  1  0
M  END
$$$$
