
     RDKit          3D

 30 31  0  0  0  0  0  0  0  0999 V2000
    0.1595    0.7358   -2.9101 C   0  0  0  0  0  0  0  0  0  0  0  0
    0.4630    0.4473   -1.5477 O   0  0  0  0  0  0  0  0  0  0  0  0
   -0.5808    0.3582   -0.6581 C   0  0  0  0  0  0  0  0  0  0  0  0
   -1.9235    0.5426   -1.0312 C   0  0  0  0  0  0  0  0  0  0  0  0
   -2.9623    0.4355   -0.0966 C   0  0  0  0  0  0  0  0  0  0  0  0
   -4.6395    0.6995   -0.6484 S   0  0  0  0  0  0  0  0  0  0  0  0
   -5.4558   -0.7585    0.0575 C   0  0  0  0  0  0  0  0  0  0  0  0
   -2.6555    0.1667    1.2342 C   0  0  0  0  0  0  0  0  0  0  0  0
   -1.3271   -0.0204    1.6206 C   0  0  0  0  0  0  0  0  0  0  0  0
   -0.2749    0.0678    0.6893 C   0  0  0  0  0  0  0  0  0  0  0  0
    1.1136   -0.1589    1.2347 C   0  0  0  0  0  0  0  0  0  0  0  0
    1.2287   -0.4553    2.4201 O   0  0  0  0  0  0  0  0  0  0  0  0
    2.1456   -0.0098    0.3427 N   0  0  0  0  0  0  0  0  0  0  0  0
    3.4588   -0.1774    0.6734 C   0  0  0  0  0  0  0  0  0  0  0  0
    4.0042   -0.4889    1.8203 N   0  0  0  0  0  0  0  0  0  0  0  0
    5.3753   -0.5458    1.6752 C   0  0  0  0  0  0  0  0  0  0  0  0
    5.8510   -0.2744    0.4097 C   0  0  0  0  0  0  0  0  0  0  0  0
    4.5331    0.0642   -0.6359 S   0  0  0  0  0  0  0  0  0  0  0  0
    1.1047    0.7637   -3.4608 H   0  0  0  0  0  0  0  0  0  0  0  0
   -0.3116    1.7190   -3.0091 H   0  0  0  0  0  0  0  0  0  0  0  0
   -0.4590   -0.0523   -3.3516 H   0  0  0  0  0  0  0  0  0  0  0  0
   -2.1941    0.7713   -2.0579 H   0  0  0  0  0  0  0  0  0  0  0  0
   -5.5007   -0.6921    1.1474 H   0  0  0  0  0  0  0  0  0  0  0  0
   -4.9306   -1.6724   -0.2334 H   0  0  0  0  0  0  0  0  0  0  0  0
   -6.4793   -0.8111   -0.3238 H   0  0  0  0  0  0  0  0  0  0  0  0
   -3.4329    0.1125    1.9917 H   0  0  0  0  0  0  0  0  0  0  0  0
   -1.1140   -0.2317    2.6685 H   0  0  0  0  0  0  0  0  0  0  0  0
    1.9443    0.2313   -0.6181 H   0  0  0  0  0  0  0  0  0  0  0  0
    5.9863   -0.7926    2.5348 H   0  0  0  0  0  0  0  0  0  0  0  0
    6.8736   -0.2595    0.0625 H   0  0  0  0  0  0  0  0  0  0  0  0
  1  2  1  0
  2  3  1  0
  3  4  2  0
  4  5  1  0
  5  6  1  0
  6  7  1  0
  5  8  2  0
  8  9  1  0
  9 10  2  0
 10 11  1  0
 11 12  2  0
 11 13  1  0
 13 14  1  0
 14 15  2  0
 15 16  1  0
 16 17  2  0
 17 18  1  0
 10  3  1  0
 18 14  1  0
  1 19  1  0
  1 20  1  0
  1 21  1  0
  4 22  1  0
  7 23  1  0
  7 24  1  0
  7 25  1  0
  8 26  1  0
  9 27  1  0
 13 28  1  0
 16 29  1  0
 17 30  1  0
M  END
$$$$
