
     RDKit          3D

 49 51  0  0  0  0  0  0  0  0999 V2000
   -8.4267   -0.6613    0.2184 C   0  0  0  0  0  0  0  0  0  0  0  0
   -7.5475    0.3443   -0.4815 C   0  0  0  0  0  0  0  0  0  0  0  0
   -8.0372    1.1674   -1.2545 O   0  0  0  0  0  0  0  0  0  0  0  0
   -6.1935    0.2931   -0.2040 N   0  0  0  0  0  0  0  0  0  0  0  0
   -5.5736   -0.6328    0.7494 C   0  0  0  0  0  0  0  0  0  0  0  0
   -4.1723   -0.1897    1.2128 C   0  0  0  0  0  0  0  0  0  0  0  0
   -3.2826    0.0606    0.0690 N   0  0  0  0  0  0  0  0  0  0  0  0
   -1.9033    0.0076    0.1963 C   0  0  0  0  0  0  0  0  0  0  0  0
   -1.2626    0.0293    1.4425 C   0  0  0  0  0  0  0  0  0  0  0  0
    0.1371   -0.0309    1.5749 C   0  0  0  0  0  0  0  0  0  0  0  0
    0.9531   -0.1241    0.4561 C   0  0  0  0  0  0  0  0  0  0  0  0
    2.3627   -0.1885    0.4540 N   0  0  0  0  0  0  0  0  0  0  0  0
    3.3169   -0.2519    1.4408 C   0  0  0  0  0  0  0  0  0  0  0  0
    3.1524   -0.3279    3.1006 S   0  0  0  0  0  0  0  0  0  0  0  0
    4.6265   -0.2546    0.9756 N   0  0  0  0  0  0  0  0  0  0  0  0
    5.0940   -0.2208   -0.3323 C   0  0  0  0  0  0  0  0  0  0  0  0
    4.3607   -0.2769   -1.3159 O   0  0  0  0  0  0  0  0  0  0  0  0
    6.5708   -0.1619   -0.4998 C   0  0  0  0  0  0  0  0  0  0  0  0
    7.3976    0.4952    0.4213 C   0  0  0  0  0  0  0  0  0  0  0  0
    8.7796    0.5237    0.2193 C   0  0  0  0  0  0  0  0  0  0  0  0
    9.3367   -0.0929   -0.9010 C   0  0  0  0  0  0  0  0  0  0  0  0
    8.5154   -0.7322   -1.8288 C   0  0  0  0  0  0  0  0  0  0  0  0
    7.1340   -0.7629   -1.6326 C   0  0  0  0  0  0  0  0  0  0  0  0
    0.3333   -0.1464   -0.7967 C   0  0  0  0  0  0  0  0  0  0  0  0
   -1.0631   -0.0841   -0.9202 C   0  0  0  0  0  0  0  0  0  0  0  0
   -3.9002    0.5863   -1.1643 C   0  0  0  0  0  0  0  0  0  0  0  0
   -5.2848    1.2060   -0.9009 C   0  0  0  0  0  0  0  0  0  0  0  0
   -8.0254   -1.6716    0.1054 H   0  0  0  0  0  0  0  0  0  0  0  0
   -8.5189   -0.4022    1.2762 H   0  0  0  0  0  0  0  0  0  0  0  0
   -9.4237   -0.6445   -0.2327 H   0  0  0  0  0  0  0  0  0  0  0  0
   -5.5059   -1.6034    0.2430 H   0  0  0  0  0  0  0  0  0  0  0  0
   -6.2255   -0.7551    1.6199 H   0  0  0  0  0  0  0  0  0  0  0  0
   -3.7744   -0.9855    1.8536 H   0  0  0  0  0  0  0  0  0  0  0  0
   -4.2543    0.7253    1.8122 H   0  0  0  0  0  0  0  0  0  0  0  0
   -1.8382    0.1212    2.3594 H   0  0  0  0  0  0  0  0  0  0  0  0
    0.5304    0.0123    2.5810 H   0  0  0  0  0  0  0  0  0  0  0  0
    2.7699   -0.2190   -0.4831 H   0  0  0  0  0  0  0  0  0  0  0  0
    5.3035   -0.3252    1.7226 H   0  0  0  0  0  0  0  0  0  0  0  0
    6.9886    1.0159    1.2826 H   0  0  0  0  0  0  0  0  0  0  0  0
    9.4238    1.0366    0.9301 H   0  0  0  0  0  0  0  0  0  0  0  0
   10.4128   -0.0662   -1.0573 H   0  0  0  0  0  0  0  0  0  0  0  0
    8.9498   -1.2032   -2.7075 H   0  0  0  0  0  0  0  0  0  0  0  0
    6.4989   -1.2589   -2.3644 H   0  0  0  0  0  0  0  0  0  0  0  0
    0.9257   -0.2218   -1.7063 H   0  0  0  0  0  0  0  0  0  0  0  0
   -1.4790   -0.1348   -1.9227 H   0  0  0  0  0  0  0  0  0  0  0  0
   -4.0010   -0.2364   -1.8826 H   0  0  0  0  0  0  0  0  0  0  0  0
   -3.2737    1.3636   -1.6185 H   0  0  0  0  0  0  0  0  0  0  0  0
   -5.1810    2.0916   -0.2619 H   0  0  0  0  0  0  0  0  0  0  0  0
   -5.7261    1.5350   -1.8477 H   0  0  0  0  0  0  0  0  0  0  0  0
  1  2  1  0
  2  3  2  0
  2  4  1  0
  4  5  1  0
  5  6  1  0
  6  7  1  0
  7  8  1  0
  8  9  2  0
  9 10  1  0
 10 11  2  0
 11 12  1  0
 12 13  1  0
 13 14  2  0
 13 15  1  0
 15 16  1  0
 16 17  2  0
 16 18  1  0
 18 19  2  0
 19 20  1  0
 20 21  2  0
 21 22  1  0
 22 23  2  0
 11 24  1  0
 24 25  2  0
  7 26  1  0
 26 27  1  0
 27  4  1  0
 25  8  1  0
 23 18  1  0
  1 28  1  0
  1 29  1  0
  1 30  1  0
  5 31  1  0
  5 32  1  0
  6 33  1  0
  6 34  1  0
  9 35  1  0
 10 36  1  0
 12 37  1  0
 15 38  1  0
 19 39  1  0
 20 40  1  0
 21 41  1  0
 22 42  1  0
 23 43  1  0
 24 44  1  0
 25 45  1  0
 26 46  1  0
 26 47  1  0
 27 48  1  0
 27 49  1  0
M  END
$$$$
