
     RDKit          3D

 41 44  0  0  0  0  0  0  0  0999 V2000
    1.0741   -0.5524   -3.7583 O   0  0  0  0  0  0  0  0  0  0  0  0
    1.0641   -0.5126   -2.5284 C   0  0  0  0  0  0  0  0  0  0  0  0
    2.2850   -0.3904   -1.7628 C   0  0  0  0  0  0  0  0  0  0  0  0
    3.3772   -1.6974   -1.7491 S   0  0  0  0  0  0  0  0  0  0  0  0
    4.4773   -0.8679   -0.7174 C   0  0  0  0  0  0  0  0  0  0  0  0
    5.6994   -1.3618   -0.2190 C   0  0  0  0  0  0  0  0  0  0  0  0
    6.4759   -0.5449    0.6045 C   0  0  0  0  0  0  0  0  0  0  0  0
    6.0525    0.7358    0.9262 C   0  0  0  0  0  0  0  0  0  0  0  0
    4.8401    1.2227    0.4286 C   0  0  0  0  0  0  0  0  0  0  0  0
    4.0224    0.4181   -0.4083 C   0  0  0  0  0  0  0  0  0  0  0  0
    2.7548    0.6820   -1.0391 C   0  0  0  0  0  0  0  0  0  0  0  0
    1.9494    2.1935   -0.8890 Cl  0  0  0  0  0  0  0  0  0  0  0  0
   -0.1330   -0.5863   -1.8168 N   0  0  0  0  0  0  0  0  0  0  0  0
   -0.2355   -0.7619   -0.3574 C   0  0  0  0  0  0  0  0  0  0  0  0
   -1.5503   -1.4466    0.0543 C   0  0  0  0  0  0  0  0  0  0  0  0
   -2.7356   -0.7130   -0.4369 N   0  0  0  0  0  0  0  0  0  0  0  0
   -3.4842    0.0589    0.4716 C   0  0  0  0  0  0  0  0  0  0  0  0
   -4.8342    0.3215    0.1735 C   0  0  0  0  0  0  0  0  0  0  0  0
   -5.6436    1.0813    1.0262 C   0  0  0  0  0  0  0  0  0  0  0  0
   -5.1196    1.6034    2.2046 C   0  0  0  0  0  0  0  0  0  0  0  0
   -3.7876    1.3639    2.5263 C   0  0  0  0  0  0  0  0  0  0  0  0
   -2.9875    0.6035    1.6708 C   0  0  0  0  0  0  0  0  0  0  0  0
   -1.7007    0.4427    2.0197 F   0  0  0  0  0  0  0  0  0  0  0  0
   -2.5707   -0.0440   -1.7539 C   0  0  0  0  0  0  0  0  0  0  0  0
   -1.3959   -0.6246   -2.5608 C   0  0  0  0  0  0  0  0  0  0  0  0
    6.0368   -2.3630   -0.4735 H   0  0  0  0  0  0  0  0  0  0  0  0
    7.4215   -0.9168    0.9927 H   0  0  0  0  0  0  0  0  0  0  0  0
    6.6652    1.3669    1.5658 H   0  0  0  0  0  0  0  0  0  0  0  0
    4.5258    2.2310    0.6897 H   0  0  0  0  0  0  0  0  0  0  0  0
   -0.1735    0.2361    0.0877 H   0  0  0  0  0  0  0  0  0  0  0  0
    0.6111   -1.3519    0.0057 H   0  0  0  0  0  0  0  0  0  0  0  0
   -1.5824   -1.6309    1.1334 H   0  0  0  0  0  0  0  0  0  0  0  0
   -1.5787   -2.4441   -0.4042 H   0  0  0  0  0  0  0  0  0  0  0  0
   -5.2765   -0.0941   -0.7292 H   0  0  0  0  0  0  0  0  0  0  0  0
   -6.6849    1.2571    0.7676 H   0  0  0  0  0  0  0  0  0  0  0  0
   -5.7456    2.1937    2.8682 H   0  0  0  0  0  0  0  0  0  0  0  0
   -3.3574    1.7686    3.4369 H   0  0  0  0  0  0  0  0  0  0  0  0
   -2.3849    1.0290   -1.6073 H   0  0  0  0  0  0  0  0  0  0  0  0
   -3.4897   -0.1520   -2.3412 H   0  0  0  0  0  0  0  0  0  0  0  0
   -1.2919   -0.0775   -3.5041 H   0  0  0  0  0  0  0  0  0  0  0  0
   -1.5886   -1.6755   -2.8088 H   0  0  0  0  0  0  0  0  0  0  0  0
  1  2  2  0
  2  3  1  0
  3  4  1  0
  4  5  1  0
  5  6  2  0
  6  7  1  0
  7  8  2  0
  8  9  1  0
  9 10  2  0
 10 11  1  0
 11 12  1  0
  2 13  1  0
 13 14  1  0
 14 15  1  0
 15 16  1  0
 16 17  1  0
 17 18  2  0
 18 19  1  0
 19 20  2  0
 20 21  1  0
 21 22  2  0
 22 23  1  0
 16 24  1  0
 24 25  1  0
 11  3  2  0
 25 13  1  0
 10  5  1  0
 22 17  1  0
  6 26  1  0
  7 27  1  0
  8 28  1  0
  9 29  1  0
 14 30  1  0
 14 31  1  0
 15 32  1  0
 15 33  1  0
 18 34  1  0
 19 35  1  0
 20 36  1  0
 21 37  1  0
 24 38  1  0
 24 39  1  0
 25 40  1  0
 25 41  1  0
M  END
$$$$
