
     RDKit          3D

 39 41  0  0  0  0  0  0  0  0999 V2000
    1.2188   -0.6590   -2.4313 S   0  0  0  0  0  0  0  0  0  0  0  0
    0.5448   -0.7764   -0.8928 C   0  0  0  0  0  0  0  0  0  0  0  0
    1.3021   -1.0072    0.2398 N   0  0  0  0  0  0  0  0  0  0  0  0
    2.7620   -1.1071    0.3204 C   0  0  0  0  0  0  0  0  0  0  0  0
    3.4083    0.2684    0.5002 C   0  0  0  0  0  0  0  0  0  0  0  0
    4.9262    0.2194    0.5065 C   0  0  0  0  0  0  0  0  0  0  0  0
    5.2631    1.4630    1.2901 C   0  0  0  0  0  0  0  0  0  0  0  0
    4.1782    1.4753    2.3463 C   0  0  0  0  0  0  0  0  0  0  0  0
    3.0301    0.8234    1.7815 O   0  0  0  0  0  0  0  0  0  0  0  0
   -0.8344   -0.6811   -0.6346 N   0  0  0  0  0  0  0  0  0  0  0  0
   -1.4329   -1.0653    0.6550 C   0  0  0  0  0  0  0  0  0  0  0  0
   -2.8555   -1.6076    0.5310 C   0  0  0  0  0  0  0  0  0  0  0  0
   -3.7240   -0.6010   -0.1642 C   0  0  0  0  0  0  0  0  0  0  0  0
   -5.0700   -0.4337    0.1798 C   0  0  0  0  0  0  0  0  0  0  0  0
   -5.8527    0.5017   -0.4956 C   0  0  0  0  0  0  0  0  0  0  0  0
   -5.2989    1.2624   -1.5233 C   0  0  0  0  0  0  0  0  0  0  0  0
   -3.9616    1.0862   -1.8804 C   0  0  0  0  0  0  0  0  0  0  0  0
   -3.1611    0.1571   -1.2010 C   0  0  0  0  0  0  0  0  0  0  0  0
   -1.7341   -0.0776   -1.6392 C   0  0  0  0  0  0  0  0  0  0  0  0
    0.9049   -0.6388    1.0933 H   0  0  0  0  0  0  0  0  0  0  0  0
    2.9631   -1.7324    1.1976 H   0  0  0  0  0  0  0  0  0  0  0  0
    3.1548   -1.6197   -0.5620 H   0  0  0  0  0  0  0  0  0  0  0  0
    3.0566    0.9715   -0.2642 H   0  0  0  0  0  0  0  0  0  0  0  0
    5.2890   -0.6647    1.0447 H   0  0  0  0  0  0  0  0  0  0  0  0
    5.3550    0.2103   -0.4993 H   0  0  0  0  0  0  0  0  0  0  0  0
    5.1682    2.3455    0.6463 H   0  0  0  0  0  0  0  0  0  0  0  0
    6.2707    1.4572    1.7139 H   0  0  0  0  0  0  0  0  0  0  0  0
    4.4806    0.9055    3.2312 H   0  0  0  0  0  0  0  0  0  0  0  0
    3.9095    2.4882    2.6591 H   0  0  0  0  0  0  0  0  0  0  0  0
   -1.4159   -0.1705    1.2902 H   0  0  0  0  0  0  0  0  0  0  0  0
   -0.8194   -1.8319    1.1402 H   0  0  0  0  0  0  0  0  0  0  0  0
   -3.2439   -1.8267    1.5322 H   0  0  0  0  0  0  0  0  0  0  0  0
   -2.8618   -2.5395   -0.0469 H   0  0  0  0  0  0  0  0  0  0  0  0
   -5.5147   -1.0279    0.9743 H   0  0  0  0  0  0  0  0  0  0  0  0
   -6.8967    0.6339   -0.2241 H   0  0  0  0  0  0  0  0  0  0  0  0
   -5.9115    1.9868   -2.0537 H   0  0  0  0  0  0  0  0  0  0  0  0
   -3.5477    1.6736   -2.6972 H   0  0  0  0  0  0  0  0  0  0  0  0
   -1.7555   -0.7421   -2.5114 H   0  0  0  0  0  0  0  0  0  0  0  0
   -1.2934    0.8810   -1.9394 H   0  0  0  0  0  0  0  0  0  0  0  0
  1  2  2  0
  2  3  1  0
  3  4  1  0
  4  5  1  0
  5  6  1  0
  6  7  1  0
  7  8  1  0
  8  9  1  0
  2 10  1  0
 10 11  1  0
 11 12  1  0
 12 13  1  0
 13 14  2  0
 14 15  1  0
 15 16  2  0
 16 17  1  0
 17 18  2  0
 18 19  1  0
  9  5  1  0
 19 10  1  0
 18 13  1  0
  3 20  1  0
  4 21  1  0
  4 22  1  0
  5 23  1  0
  6 24  1  0
  6 25  1  0
  7 26  1  0
  7 27  1  0
  8 28  1  0
  8 29  1  0
 11 30  1  0
 11 31  1  0
 12 32  1  0
 12 33  1  0
 14 34  1  0
 15 35  1  0
 16 36  1  0
 17 37  1  0
 19 38  1  0
 19 39  1  0
M  END
$$$$
