
     RDKit          3D

 30 31  0  0  0  0  0  0  0  0999 V2000
    1.4476    1.1829   -2.1618 C   0  0  0  0  0  0  0  0  0  0  0  0
    1.1925    0.4832   -0.8412 C   0  0  0  0  0  0  0  0  0  0  0  0
    0.0110    0.1163   -0.4363 N   0  0  0  0  0  0  0  0  0  0  0  0
   -1.0485    0.3760   -1.2520 N   0  0  0  0  0  0  0  0  0  0  0  0
   -2.3305   -0.0132   -0.8193 C   0  0  0  0  0  0  0  0  0  0  0  0
   -2.6162   -0.1147    0.4920 N   0  0  0  0  0  0  0  0  0  0  0  0
   -3.8530   -0.4740    0.8428 C   0  0  0  0  0  0  0  0  0  0  0  0
   -4.1031   -0.5942    2.2091 N   0  0  0  0  0  0  0  0  0  0  0  0
   -4.8298   -0.7508   -0.0730 C   0  0  0  0  0  0  0  0  0  0  0  0
   -4.4410   -0.6192   -1.3781 C   0  0  0  0  0  0  0  0  0  0  0  0
   -5.5488   -0.9286   -2.6538 Cl  0  0  0  0  0  0  0  0  0  0  0  0
   -3.2197   -0.2523   -1.7890 N   0  0  0  0  0  0  0  0  0  0  0  0
    2.3577    0.2120    0.0565 C   0  0  0  0  0  0  0  0  0  0  0  0
    3.4868    1.0423    0.0660 C   0  0  0  0  0  0  0  0  0  0  0  0
    4.5537    0.7602    0.9237 C   0  0  0  0  0  0  0  0  0  0  0  0
    4.4850   -0.3405    1.7710 C   0  0  0  0  0  0  0  0  0  0  0  0
    5.5098   -0.6051    2.5914 F   0  0  0  0  0  0  0  0  0  0  0  0
    3.3663   -1.1644    1.7840 C   0  0  0  0  0  0  0  0  0  0  0  0
    2.2981   -0.8861    0.9290 C   0  0  0  0  0  0  0  0  0  0  0  0
    2.5089    1.2111   -2.4176 H   0  0  0  0  0  0  0  0  0  0  0  0
    0.9454    0.6492   -2.9736 H   0  0  0  0  0  0  0  0  0  0  0  0
    1.0632    2.2054   -2.1087 H   0  0  0  0  0  0  0  0  0  0  0  0
   -0.9933    0.1370   -2.2381 H   0  0  0  0  0  0  0  0  0  0  0  0
   -4.8960   -0.0368    2.5053 H   0  0  0  0  0  0  0  0  0  0  0  0
   -3.2497   -0.3129    2.6904 H   0  0  0  0  0  0  0  0  0  0  0  0
   -5.8230   -1.0624    0.2116 H   0  0  0  0  0  0  0  0  0  0  0  0
    3.5465    1.9237   -0.5659 H   0  0  0  0  0  0  0  0  0  0  0  0
    5.4334    1.3962    0.9432 H   0  0  0  0  0  0  0  0  0  0  0  0
    3.3280   -2.0128    2.4597 H   0  0  0  0  0  0  0  0  0  0  0  0
    1.4186   -1.5275    0.9467 H   0  0  0  0  0  0  0  0  0  0  0  0
  1  2  1  0
  2  3  2  3
  3  4  1  0
  4  5  1  0
  5  6  2  0
  6  7  1  0
  7  8  1  0
  7  9  2  0
  9 10  1  0
 10 11  1  0
 10 12  2  0
  2 13  1  0
 13 14  2  0
 14 15  1  0
 15 16  2  0
 16 17  1  0
 16 18  1  0
 18 19  2  0
 12  5  1  0
 19 13  1  0
  1 20  1  0
  1 21  1  0
  1 22  1  0
  4 23  1  0
  8 24  1  0
  8 25  1  0
  9 26  1  0
 14 27  1  0
 15 28  1  0
 18 29  1  0
 19 30  1  0
M  END
$$$$
