
     RDKit          3D

 31 33  0  0  0  0  0  0  0  0999 V2000
    0.3140   -3.2686    0.3628 O   0  0  0  0  0  0  0  0  0  0  0  0
   -0.0302   -2.2220    0.8805 C   0  0  0  0  0  0  0  0  0  0  0  0
    0.6750   -1.7121    1.9105 O   0  0  0  0  0  0  0  0  0  0  0  0
   -1.2132   -1.4113    0.4930 C   0  0  0  0  0  0  0  0  0  0  0  0
   -2.0722   -1.9816   -0.4620 C   0  0  0  0  0  0  0  0  0  0  0  0
   -3.2157   -1.3029   -0.8849 C   0  0  0  0  0  0  0  0  0  0  0  0
   -3.5122   -0.0495   -0.3577 C   0  0  0  0  0  0  0  0  0  0  0  0
   -2.6639    0.5297    0.5873 C   0  0  0  0  0  0  0  0  0  0  0  0
   -1.5103   -0.1381    1.0139 C   0  0  0  0  0  0  0  0  0  0  0  0
   -0.6613    0.5163    1.9648 N   0  0  0  0  0  0  0  0  0  0  0  0
    0.2221    1.8791    1.4838 S   0  0  0  0  0  6  0  0  0  0  0  0
    1.0990    2.1738    2.6014 O   0  0  0  0  0  0  0  0  0  0  0  0
   -0.6619    2.9005    0.9709 O   0  0  0  0  0  0  0  0  0  0  0  0
    1.2522    1.2942    0.1806 C   0  0  0  0  0  0  0  0  0  0  0  0
    2.5954    0.9373    0.4513 C   0  0  0  0  0  0  0  0  0  0  0  0
    3.4883    0.4699   -0.5400 C   0  0  0  0  0  0  0  0  0  0  0  0
    3.1221    0.3250   -1.8869 C   0  0  0  0  0  0  0  0  0  0  0  0
    1.7929    0.6817   -2.2180 C   0  0  0  0  0  0  0  0  0  0  0  0
    1.2555    0.6135   -3.4448 N   0  0  0  0  0  0  0  0  0  0  0  0
   -0.3107    1.1393   -3.3030 S   0  0  0  0  0  0  0  0  0  0  0  0
   -0.3766    1.4638   -1.6815 N   0  0  0  0  0  0  0  0  0  0  0  0
    0.8297    1.1855   -1.1642 C   0  0  0  0  0  0  0  0  0  0  0  0
    1.3741   -2.3905    2.0518 H   0  0  0  0  0  0  0  0  0  0  0  0
   -1.8548   -2.9628   -0.8818 H   0  0  0  0  0  0  0  0  0  0  0  0
   -3.8742   -1.7520   -1.6249 H   0  0  0  0  0  0  0  0  0  0  0  0
   -4.4001    0.4862   -0.6855 H   0  0  0  0  0  0  0  0  0  0  0  0
   -2.9080    1.5135    0.9838 H   0  0  0  0  0  0  0  0  0  0  0  0
   -0.0531   -0.1247    2.4885 H   0  0  0  0  0  0  0  0  0  0  0  0
    2.9751    1.0253    1.4717 H   0  0  0  0  0  0  0  0  0  0  0  0
    4.5081    0.2159   -0.2470 H   0  0  0  0  0  0  0  0  0  0  0  0
    3.8147   -0.0344   -2.6393 H   0  0  0  0  0  0  0  0  0  0  0  0
  1  2  2  0
  2  3  1  0
  2  4  1  0
  4  5  2  0
  5  6  1  0
  6  7  2  0
  7  8  1  0
  8  9  2  0
  9 10  1  0
 10 11  1  0
 11 12  2  0
 11 13  2  0
 11 14  1  0
 14 15  2  0
 15 16  1  0
 16 17  2  0
 17 18  1  0
 18 19  2  0
 19 20  1  0
 20 21  1  0
 21 22  2  0
  9  4  1  0
 22 14  1  0
 22 18  1  0
  3 23  1  0
  5 24  1  0
  6 25  1  0
  7 26  1  0
  8 27  1  0
 10 28  1  0
 15 29  1  0
 16 30  1  0
 17 31  1  0
M  END
$$$$
