
     RDKit          3D

 42 43  0  0  0  0  0  0  0  0999 V2000
    3.8580    0.6558   -0.2865 C   0  0  0  0  0  0  0  0  0  0  0  0
    3.9972   -0.2037    0.9567 C   0  0  0  0  0  0  0  0  0  0  0  0
    3.1848   -1.1712    1.2834 N   0  0  0  0  0  0  0  0  0  0  0  0
    2.0398   -1.3507    0.5527 N   0  0  0  0  0  0  0  0  0  0  0  0
    1.0251   -0.3880    0.5786 C   0  0  0  0  0  0  0  0  0  0  0  0
    1.1338    0.7504    1.0229 O   0  0  0  0  0  0  0  0  0  0  0  0
   -0.2625   -0.9227   -0.0230 C   0  0  0  0  0  0  0  0  0  0  0  0
   -1.3399    0.1538   -0.1247 C   0  0  0  0  0  0  0  0  0  0  0  0
   -2.6358   -0.4119   -0.7040 C   0  0  0  0  0  0  0  0  0  0  0  0
   -3.6161    0.6578   -0.8364 N   0  0  0  0  0  0  0  0  0  0  0  0
   -4.9214    0.3547   -1.2407 C   0  0  0  0  0  0  0  0  0  0  0  0
   -5.2687   -0.8024   -1.9475 C   0  0  0  0  0  0  0  0  0  0  0  0
   -6.5804   -1.0182   -2.3862 C   0  0  0  0  0  0  0  0  0  0  0  0
   -7.5638   -0.0627   -2.1493 C   0  0  0  0  0  0  0  0  0  0  0  0
   -7.2316    1.1134   -1.4860 C   0  0  0  0  0  0  0  0  0  0  0  0
   -5.9197    1.3222   -1.0500 C   0  0  0  0  0  0  0  0  0  0  0  0
    5.1729    0.0586    1.8455 C   0  0  0  0  0  0  0  0  0  0  0  0
    5.8069    1.3006    1.8650 C   0  0  0  0  0  0  0  0  0  0  0  0
    6.8857    1.4672    2.7166 C   0  0  0  0  0  0  0  0  0  0  0  0
    7.3587    0.4989    3.5291 N   0  0  0  0  0  0  0  0  0  0  0  0
    6.7167   -0.6881    3.5023 C   0  0  0  0  0  0  0  0  0  0  0  0
    5.6302   -0.9548    2.6894 C   0  0  0  0  0  0  0  0  0  0  0  0
    3.3392    1.5857   -0.0404 H   0  0  0  0  0  0  0  0  0  0  0  0
    4.8432    0.8966   -0.6974 H   0  0  0  0  0  0  0  0  0  0  0  0
    3.3112    0.1300   -1.0734 H   0  0  0  0  0  0  0  0  0  0  0  0
    1.7114   -2.3119    0.5848 H   0  0  0  0  0  0  0  0  0  0  0  0
   -0.0402   -1.3225   -1.0193 H   0  0  0  0  0  0  0  0  0  0  0  0
   -0.6163   -1.7463    0.6082 H   0  0  0  0  0  0  0  0  0  0  0  0
   -0.9805    0.9800   -0.7518 H   0  0  0  0  0  0  0  0  0  0  0  0
   -1.5352    0.5826    0.8668 H   0  0  0  0  0  0  0  0  0  0  0  0
   -2.4241   -0.8522   -1.6853 H   0  0  0  0  0  0  0  0  0  0  0  0
   -3.0183   -1.1986   -0.0424 H   0  0  0  0  0  0  0  0  0  0  0  0
   -3.6137    1.3061   -0.0514 H   0  0  0  0  0  0  0  0  0  0  0  0
   -4.5277   -1.5613   -2.1759 H   0  0  0  0  0  0  0  0  0  0  0  0
   -6.8274   -1.9301   -2.9231 H   0  0  0  0  0  0  0  0  0  0  0  0
   -8.5808   -0.2275   -2.4940 H   0  0  0  0  0  0  0  0  0  0  0  0
   -7.9868    1.8756   -1.3149 H   0  0  0  0  0  0  0  0  0  0  0  0
   -5.6791    2.2601   -0.5554 H   0  0  0  0  0  0  0  0  0  0  0  0
    5.4737    2.1335    1.2576 H   0  0  0  0  0  0  0  0  0  0  0  0
    7.4128    2.4157    2.7734 H   0  0  0  0  0  0  0  0  0  0  0  0
    7.1116   -1.4444    4.1749 H   0  0  0  0  0  0  0  0  0  0  0  0
    5.1567   -1.9301    2.7157 H   0  0  0  0  0  0  0  0  0  0  0  0
  1  2  1  0
  2  3  2  3
  3  4  1  0
  4  5  1  0
  5  6  2  0
  5  7  1  0
  7  8  1  0
  8  9  1  0
  9 10  1  0
 10 11  1  0
 11 12  2  0
 12 13  1  0
 13 14  2  0
 14 15  1  0
 15 16  2  0
  2 17  1  0
 17 18  2  0
 18 19  1  0
 19 20  2  0
 20 21  1  0
 21 22  2  0
 16 11  1  0
 22 17  1  0
  1 23  1  0
  1 24  1  0
  1 25  1  0
  4 26  1  0
  7 27  1  0
  7 28  1  0
  8 29  1  0
  8 30  1  0
  9 31  1  0
  9 32  1  0
 10 33  1  0
 12 34  1  0
 13 35  1  0
 14 36  1  0
 15 37  1  0
 16 38  1  0
 18 39  1  0
 19 40  1  0
 21 41  1  0
 22 42  1  0
M  END
$$$$
