
     RDKit          3D

 38 40  0  0  0  0  0  0  0  0999 V2000
   -1.0376   -0.9812   -3.8966 C   0  0  0  0  0  0  0  0  0  0  0  0
   -0.4398   -0.5663   -2.5776 C   0  0  0  0  0  0  0  0  0  0  0  0
    0.7764   -0.5372   -2.4025 O   0  0  0  0  0  0  0  0  0  0  0  0
   -1.3345   -0.2420   -1.4550 C   0  0  0  0  0  0  0  0  0  0  0  0
   -1.1525   -0.7479   -0.1727 C   0  0  0  0  0  0  0  0  0  0  0  0
   -0.0101   -1.6693    0.1827 C   0  0  0  0  0  0  0  0  0  0  0  0
    1.1575   -0.8800    0.4133 O   0  0  0  0  0  0  0  0  0  0  0  0
    2.2558   -1.6182    0.7021 C   0  0  0  0  0  0  0  0  0  0  0  0
    2.2789   -2.8284    0.8618 O   0  0  0  0  0  0  0  0  0  0  0  0
    3.4496   -0.7435    0.8319 C   0  0  0  0  0  0  0  0  0  0  0  0
    4.5853   -1.2589    1.4698 C   0  0  0  0  0  0  0  0  0  0  0  0
    5.7316   -0.4733    1.6047 C   0  0  0  0  0  0  0  0  0  0  0  0
    5.7502    0.8258    1.0975 C   0  0  0  0  0  0  0  0  0  0  0  0
    4.6256    1.3417    0.4539 C   0  0  0  0  0  0  0  0  0  0  0  0
    3.4761    0.5600    0.3190 C   0  0  0  0  0  0  0  0  0  0  0  0
   -1.9965   -0.4346    0.8447 N   0  0  0  0  0  0  0  0  0  0  0  0
   -3.0218    0.3955    0.6217 C   0  0  0  0  0  0  0  0  0  0  0  0
   -3.8773    0.7177    1.6672 C   0  0  0  0  0  0  0  0  0  0  0  0
   -4.9630    1.5814    1.4905 C   0  0  0  0  0  0  0  0  0  0  0  0
   -5.2075    2.1405    0.2422 C   0  0  0  0  0  0  0  0  0  0  0  0
   -4.3638    1.8309   -0.8211 C   0  0  0  0  0  0  0  0  0  0  0  0
   -3.2662    0.9566   -0.6402 C   0  0  0  0  0  0  0  0  0  0  0  0
   -2.3899    0.6207   -1.6951 N   0  0  0  0  0  4  0  0  0  0  0  0
   -2.5832    1.1287   -2.8579 O   0  0  0  0  0  1  0  0  0  0  0  0
   -2.0799   -1.2924   -3.7836 H   0  0  0  0  0  0  0  0  0  0  0  0
   -0.9665   -0.1570   -4.6106 H   0  0  0  0  0  0  0  0  0  0  0  0
   -0.4808   -1.8420   -4.2783 H   0  0  0  0  0  0  0  0  0  0  0  0
   -0.2649   -2.2162    1.0996 H   0  0  0  0  0  0  0  0  0  0  0  0
    0.1569   -2.4024   -0.6161 H   0  0  0  0  0  0  0  0  0  0  0  0
    4.5804   -2.2738    1.8629 H   0  0  0  0  0  0  0  0  0  0  0  0
    6.6113   -0.8773    2.0994 H   0  0  0  0  0  0  0  0  0  0  0  0
    6.6451    1.4356    1.1976 H   0  0  0  0  0  0  0  0  0  0  0  0
    4.6458    2.3508    0.0489 H   0  0  0  0  0  0  0  0  0  0  0  0
    2.6151    0.9715   -0.2028 H   0  0  0  0  0  0  0  0  0  0  0  0
   -3.6947    0.2863    2.6501 H   0  0  0  0  0  0  0  0  0  0  0  0
   -5.6129    1.8147    2.3310 H   0  0  0  0  0  0  0  0  0  0  0  0
   -6.0485    2.8146    0.0962 H   0  0  0  0  0  0  0  0  0  0  0  0
   -4.5498    2.2691   -1.8018 H   0  0  0  0  0  0  0  0  0  0  0  0
  1  2  1  0
  2  3  2  0
  2  4  1  0
  4  5  2  0
  5  6  1  0
  6  7  1  0
  7  8  1  0
  8  9  2  0
  8 10  1  0
 10 11  2  0
 11 12  1  0
 12 13  2  0
 13 14  1  0
 14 15  2  0
  5 16  1  0
 16 17  2  0
 17 18  1  0
 18 19  2  0
 19 20  1  0
 20 21  2  0
 21 22  1  0
 22 23  2  0
 23 24  1  0
 23  4  1  0
 15 10  1  0
 22 17  1  0
  1 25  1  0
  1 26  1  0
  1 27  1  0
  6 28  1  0
  6 29  1  0
 11 30  1  0
 12 31  1  0
 13 32  1  0
 14 33  1  0
 15 34  1  0
 18 35  1  0
 19 36  1  0
 20 37  1  0
 21 38  1  0
M  CHG  2  23   1  24  -1
M  END
$$$$
