
     RDKit          3D

 29 31  0  0  0  0  0  0  0  0999 V2000
    6.3516   -0.5298   -0.3082 C   0  0  0  0  0  0  0  0  0  0  0  0
    5.1757   -1.2810   -0.0335 O   0  0  0  0  0  0  0  0  0  0  0  0
    3.9813   -0.6142   -0.0923 C   0  0  0  0  0  0  0  0  0  0  0  0
    3.8165    0.7339   -0.4016 C   0  0  0  0  0  0  0  0  0  0  0  0
    2.5373    1.3081   -0.4313 C   0  0  0  0  0  0  0  0  0  0  0  0
    1.4052    0.5202   -0.1466 C   0  0  0  0  0  0  0  0  0  0  0  0
    0.0896    0.9536   -0.1403 N   0  0  0  0  0  0  0  0  0  0  0  0
   -0.7016   -0.0448    0.1724 C   0  0  0  0  0  0  0  0  0  0  0  0
   -2.0580    0.1454    0.2344 N   0  0  0  0  0  0  0  0  0  0  0  0
   -3.0228   -0.7714    0.5977 C   0  0  0  0  0  0  0  0  0  0  0  0
   -2.7875   -1.9178    0.9662 O   0  0  0  0  0  0  0  0  0  0  0  0
   -4.3875   -0.2390    0.5203 C   0  0  0  0  0  0  0  0  0  0  0  0
   -4.8851    0.8774   -0.1341 C   0  0  0  0  0  0  0  0  0  0  0  0
   -6.2906    1.0442    0.0502 C   0  0  0  0  0  0  0  0  0  0  0  0
   -6.8292    0.0494    0.8318 C   0  0  0  0  0  0  0  0  0  0  0  0
   -5.6505   -1.0795    1.3324 S   0  0  0  0  0  0  0  0  0  0  0  0
    0.0534   -1.5395    0.4597 S   0  0  0  0  0  0  0  0  0  0  0  0
    1.5898   -0.8275    0.1607 C   0  0  0  0  0  0  0  0  0  0  0  0
    2.8660   -1.4119    0.1928 C   0  0  0  0  0  0  0  0  0  0  0  0
    6.3411   -0.1409   -1.3318 H   0  0  0  0  0  0  0  0  0  0  0  0
    6.4842    0.2764    0.4207 H   0  0  0  0  0  0  0  0  0  0  0  0
    7.2082   -1.2047   -0.2174 H   0  0  0  0  0  0  0  0  0  0  0  0
    4.6615    1.3766   -0.6270 H   0  0  0  0  0  0  0  0  0  0  0  0
    2.4107    2.3590   -0.6725 H   0  0  0  0  0  0  0  0  0  0  0  0
   -2.3198    1.0970    0.0333 H   0  0  0  0  0  0  0  0  0  0  0  0
   -4.2894    1.5505   -0.7378 H   0  0  0  0  0  0  0  0  0  0  0  0
   -6.8772    1.8497   -0.3755 H   0  0  0  0  0  0  0  0  0  0  0  0
   -7.8616   -0.0757    1.1293 H   0  0  0  0  0  0  0  0  0  0  0  0
    2.9887   -2.4637    0.4345 H   0  0  0  0  0  0  0  0  0  0  0  0
  1  2  1  0
  2  3  1  0
  3  4  2  0
  4  5  1  0
  5  6  2  0
  6  7  1  0
  7  8  2  0
  8  9  1  0
  9 10  1  0
 10 11  2  0
 10 12  1  0
 12 13  2  0
 13 14  1  0
 14 15  2  0
 15 16  1  0
  8 17  1  0
 17 18  1  0
 18 19  2  0
 19  3  1  0
 18  6  1  0
 16 12  1  0
  1 20  1  0
  1 21  1  0
  1 22  1  0
  4 23  1  0
  5 24  1  0
  9 25  1  0
 13 26  1  0
 14 27  1  0
 15 28  1  0
 19 29  1  0
M  END
$$$$
