
     RDKit          3D

 50 53  0  0  0  0  0  0  0  0999 V2000
   -0.4470   -0.6659    0.7717 O   0  0  0  0  0  0  0  0  0  0  0  0
    0.6885   -0.2704    0.5175 C   0  0  0  0  0  0  0  0  0  0  0  0
    0.9691    0.6823   -0.4546 N   0  0  0  0  0  0  0  0  0  0  0  0
    0.1334    1.3617   -1.3255 C   0  0  0  0  0  0  0  0  0  0  0  0
    0.8978    2.4595   -2.3266 S   0  0  0  0  0  0  0  0  0  0  0  0
   -1.1916    1.0271   -1.2410 N   0  0  0  0  0  0  0  0  0  0  0  0
   -2.3753    1.4870   -1.8716 C   0  0  0  0  0  0  0  0  0  0  0  0
   -2.4653    2.5830   -2.7282 C   0  0  0  0  0  0  0  0  0  0  0  0
   -3.6902    2.9348   -3.3040 C   0  0  0  0  0  0  0  0  0  0  0  0
   -4.8368    2.1989   -3.0255 C   0  0  0  0  0  0  0  0  0  0  0  0
   -4.7670    1.1079   -2.1616 C   0  0  0  0  0  0  0  0  0  0  0  0
   -3.5477    0.7383   -1.5729 C   0  0  0  0  0  0  0  0  0  0  0  0
   -3.4491   -0.3402   -0.6624 N   0  0  0  0  0  0  0  0  0  0  0  0
   -4.0882   -1.6142   -1.0612 C   0  0  0  0  0  0  0  0  0  0  0  0
   -5.2968   -1.9455   -0.1703 C   0  0  0  0  0  0  0  0  0  0  0  0
   -4.9790   -2.0305    1.2277 O   0  0  0  0  0  0  0  0  0  0  0  0
   -3.9003   -1.1629    1.6195 C   0  0  0  0  0  0  0  0  0  0  0  0
   -3.7654    0.0796    0.7259 C   0  0  0  0  0  0  0  0  0  0  0  0
    1.8670   -0.7524    1.2060 C   0  0  0  0  0  0  0  0  0  0  0  0
    2.0146   -1.6794    2.2171 C   0  0  0  0  0  0  0  0  0  0  0  0
    3.4010   -1.7560    2.4970 C   0  0  0  0  0  0  0  0  0  0  0  0
    4.0328   -0.8751    1.6407 C   0  0  0  0  0  0  0  0  0  0  0  0
    5.4251   -0.4970    1.4080 C   0  0  0  0  0  0  0  0  0  0  0  0
    6.4672   -1.2061    2.0275 C   0  0  0  0  0  0  0  0  0  0  0  0
    7.8046   -0.8615    1.8050 C   0  0  0  0  0  0  0  0  0  0  0  0
    8.1189    0.1996    0.9598 C   0  0  0  0  0  0  0  0  0  0  0  0
    7.0948    0.9137    0.3444 C   0  0  0  0  0  0  0  0  0  0  0  0
    7.4796    2.2314   -0.6937 Cl  0  0  0  0  0  0  0  0  0  0  0  0
    5.7588    0.5726    0.5624 C   0  0  0  0  0  0  0  0  0  0  0  0
    3.0962   -0.2588    0.8567 O   0  0  0  0  0  0  0  0  0  0  0  0
    1.9471    0.9284   -0.5490 H   0  0  0  0  0  0  0  0  0  0  0  0
   -1.4021    0.2243   -0.6391 H   0  0  0  0  0  0  0  0  0  0  0  0
   -1.6127    3.2020   -2.9699 H   0  0  0  0  0  0  0  0  0  0  0  0
   -3.7441    3.7926   -3.9701 H   0  0  0  0  0  0  0  0  0  0  0  0
   -5.7865    2.4804   -3.4729 H   0  0  0  0  0  0  0  0  0  0  0  0
   -5.6775    0.5613   -1.9389 H   0  0  0  0  0  0  0  0  0  0  0  0
   -3.3335   -2.3995   -0.9329 H   0  0  0  0  0  0  0  0  0  0  0  0
   -4.3766   -1.6245   -2.1195 H   0  0  0  0  0  0  0  0  0  0  0  0
   -6.0836   -1.1918   -0.2853 H   0  0  0  0  0  0  0  0  0  0  0  0
   -5.7254   -2.9085   -0.4663 H   0  0  0  0  0  0  0  0  0  0  0  0
   -4.0823   -0.8650    2.6571 H   0  0  0  0  0  0  0  0  0  0  0  0
   -2.9772   -1.7539    1.6024 H   0  0  0  0  0  0  0  0  0  0  0  0
   -2.9674    0.7232    1.1135 H   0  0  0  0  0  0  0  0  0  0  0  0
   -4.7081    0.6412    0.7514 H   0  0  0  0  0  0  0  0  0  0  0  0
    1.2112   -2.2309    2.6882 H   0  0  0  0  0  0  0  0  0  0  0  0
    3.8778   -2.3848    3.2358 H   0  0  0  0  0  0  0  0  0  0  0  0
    6.2541   -2.0442    2.6867 H   0  0  0  0  0  0  0  0  0  0  0  0
    8.5989   -1.4246    2.2892 H   0  0  0  0  0  0  0  0  0  0  0  0
    9.1584    0.4640    0.7849 H   0  0  0  0  0  0  0  0  0  0  0  0
    4.9799    1.1488    0.0689 H   0  0  0  0  0  0  0  0  0  0  0  0
  1  2  2  0
  2  3  1  0
  3  4  1  0
  4  5  2  0
  4  6  1  0
  6  7  1  0
  7  8  2  0
  8  9  1  0
  9 10  2  0
 10 11  1  0
 11 12  2  0
 12 13  1  0
 13 14  1  0
 14 15  1  0
 15 16  1  0
 16 17  1  0
 17 18  1  0
  2 19  1  0
 19 20  2  0
 20 21  1  0
 21 22  2  0
 22 23  1  0
 23 24  2  0
 24 25  1  0
 25 26  2  0
 26 27  1  0
 27 28  1  0
 27 29  2  0
 22 30  1  0
 12  7  1  0
 18 13  1  0
 30 19  1  0
 29 23  1  0
  3 31  1  0
  6 32  1  0
  8 33  1  0
  9 34  1  0
 10 35  1  0
 11 36  1  0
 14 37  1  0
 14 38  1  0
 15 39  1  0
 15 40  1  0
 17 41  1  0
 17 42  1  0
 18 43  1  0
 18 44  1  0
 20 45  1  0
 21 46  1  0
 24 47  1  0
 25 48  1  0
 26 49  1  0
 29 50  1  0
M  END
$$$$
