
     RDKit          3D

 44 46  0  0  0  0  0  0  0  0999 V2000
    3.7914    1.9746   -2.7666 C   0  0  0  0  0  0  0  0  0  0  0  0
    2.4693    1.7909   -2.1737 N   0  0  0  0  0  0  0  0  0  0  0  0
    1.8608    0.5274   -2.6386 C   0  0  0  0  0  0  0  0  0  0  0  0
    0.7474    0.0087   -1.7097 C   0  0  0  0  0  0  0  0  0  0  0  0
    1.2511   -0.2365   -0.3534 N   0  0  0  0  0  0  0  0  0  0  0  0
    0.7644   -1.1973    0.5196 C   0  0  0  0  0  0  0  0  0  0  0  0
    1.3222   -1.5142    1.5669 O   0  0  0  0  0  0  0  0  0  0  0  0
   -0.4866   -1.8988    0.1696 C   0  0  0  0  0  0  0  0  0  0  0  0
   -0.3609   -3.2165   -0.2958 C   0  0  0  0  0  0  0  0  0  0  0  0
   -1.4978   -3.9438   -0.6381 C   0  0  0  0  0  0  0  0  0  0  0  0
   -2.7560   -3.3623   -0.5040 C   0  0  0  0  0  0  0  0  0  0  0  0
   -2.8801   -2.0557   -0.0200 C   0  0  0  0  0  0  0  0  0  0  0  0
   -1.7496   -1.2949    0.3369 C   0  0  0  0  0  0  0  0  0  0  0  0
   -1.9359    0.0779    0.8516 C   0  0  0  0  0  0  0  0  0  0  0  0
   -2.4310    1.0534   -0.0429 C   0  0  0  0  0  0  0  0  0  0  0  0
   -2.5922    2.3876    0.3371 C   0  0  0  0  0  0  0  0  0  0  0  0
   -2.2654    2.7839    1.6269 C   0  0  0  0  0  0  0  0  0  0  0  0
   -1.7921    1.8418    2.5379 C   0  0  0  0  0  0  0  0  0  0  0  0
   -1.6385    0.4908    2.1700 C   0  0  0  0  0  0  0  0  0  0  0  0
   -1.1611   -0.4049    3.2552 C   0  0  0  0  0  0  0  0  0  0  0  0
   -0.5155   -0.0490    4.2257 O   0  0  0  0  0  0  0  0  0  0  0  0
   -1.5875   -1.6714    3.1333 O   0  0  0  0  0  0  0  0  0  0  0  0
    2.4232    0.5406    0.0479 C   0  0  0  0  0  0  0  0  0  0  0  0
    2.5114    1.8843   -0.6978 C   0  0  0  0  0  0  0  0  0  0  0  0
    3.7328    1.9320   -3.8599 H   0  0  0  0  0  0  0  0  0  0  0  0
    4.1922    2.9621   -2.5127 H   0  0  0  0  0  0  0  0  0  0  0  0
    4.5047    1.2147   -2.4278 H   0  0  0  0  0  0  0  0  0  0  0  0
    2.6247   -0.2586   -2.7165 H   0  0  0  0  0  0  0  0  0  0  0  0
    1.4493    0.6818   -3.6426 H   0  0  0  0  0  0  0  0  0  0  0  0
    0.3194   -0.9088   -2.1242 H   0  0  0  0  0  0  0  0  0  0  0  0
   -0.0518    0.7530   -1.6371 H   0  0  0  0  0  0  0  0  0  0  0  0
    0.6231   -3.6712   -0.3827 H   0  0  0  0  0  0  0  0  0  0  0  0
   -1.4040   -4.9654   -0.9975 H   0  0  0  0  0  0  0  0  0  0  0  0
   -3.6472   -3.9305   -0.7602 H   0  0  0  0  0  0  0  0  0  0  0  0
   -3.8775   -1.6350    0.0996 H   0  0  0  0  0  0  0  0  0  0  0  0
   -2.6790    0.7745   -1.0665 H   0  0  0  0  0  0  0  0  0  0  0  0
   -2.9643    3.1160   -0.3793 H   0  0  0  0  0  0  0  0  0  0  0  0
   -2.3809    3.8221    1.9277 H   0  0  0  0  0  0  0  0  0  0  0  0
   -1.5462    2.1616    3.5499 H   0  0  0  0  0  0  0  0  0  0  0  0
   -1.1270   -2.1386    3.8609 H   0  0  0  0  0  0  0  0  0  0  0  0
    3.3087   -0.0711   -0.1631 H   0  0  0  0  0  0  0  0  0  0  0  0
    2.3922    0.7153    1.1293 H   0  0  0  0  0  0  0  0  0  0  0  0
    3.3935    2.4389   -0.3547 H   0  0  0  0  0  0  0  0  0  0  0  0
    1.6462    2.4908   -0.3988 H   0  0  0  0  0  0  0  0  0  0  0  0
  1  2  1  0
  2  3  1  0
  3  4  1  0
  4  5  1  0
  5  6  1  0
  6  7  2  0
  6  8  1  0
  8  9  2  0
  9 10  1  0
 10 11  2  0
 11 12  1  0
 12 13  2  0
 13 14  1  0
 14 15  2  0
 15 16  1  0
 16 17  2  0
 17 18  1  0
 18 19  2  0
 19 20  1  0
 20 21  2  0
 20 22  1  0
  5 23  1  0
 23 24  1  0
 24  2  1  0
 13  8  1  0
 19 14  1  0
  1 25  1  0
  1 26  1  0
  1 27  1  0
  3 28  1  0
  3 29  1  0
  4 30  1  0
  4 31  1  0
  9 32  1  0
 10 33  1  0
 11 34  1  0
 12 35  1  0
 15 36  1  0
 16 37  1  0
 17 38  1  0
 18 39  1  0
 22 40  1  0
 23 41  1  0
 23 42  1  0
 24 43  1  0
 24 44  1  0
M  END
$$$$
