
     RDKit          3D

 76 78  0  0  0  0  0  0  0  0999 V2000
    5.8864    3.7625    2.4480 C   0  0  0  0  0  0  0  0  0  0  0  0
    4.9376    2.5817    2.3471 C   0  0  0  0  0  0  0  0  0  0  0  0
    5.5676    1.3055    2.9125 C   0  0  0  0  0  0  0  0  0  0  0  0
    4.6595    0.0660    2.8453 C   0  0  0  0  0  0  0  0  0  0  0  0
    4.4108   -0.4006    1.4725 N   0  0  0  0  0  0  0  0  0  0  0  0
    3.2463   -0.0752    0.7750 C   0  0  0  0  0  0  0  0  0  0  0  0
    2.3146    0.7991    1.3168 N   0  0  0  0  0  0  0  0  0  0  0  0
    3.0489   -0.5774   -0.4740 C   0  0  0  0  0  0  0  0  0  0  0  0
    1.9395   -0.2604   -1.2685 N   0  0  0  0  0  0  0  0  0  0  0  0
    2.1708    0.2581   -2.6308 C   0  0  0  0  0  0  0  0  0  0  0  0
    2.1292    1.8010   -2.6937 C   0  0  0  0  0  0  0  0  0  0  0  0
    3.4354    2.4220   -2.1978 C   0  0  0  0  0  0  0  0  0  0  0  0
    1.8627    2.2548   -4.1303 C   0  0  0  0  0  0  0  0  0  0  0  0
    0.5985   -0.4043   -0.8824 C   0  0  0  0  0  0  0  0  0  0  0  0
   -0.3020    0.0986   -1.5653 O   0  0  0  0  0  0  0  0  0  0  0  0
    0.2684   -1.2391    0.3728 C   0  0  0  0  0  0  0  0  0  0  0  0
   -1.1210   -1.6416    0.2917 N   0  0  0  0  0  0  0  0  0  0  0  0
   -1.5639   -2.7720   -0.3107 C   0  0  0  0  0  0  0  0  0  0  0  0
   -0.8971   -3.6627   -0.8080 O   0  0  0  0  0  0  0  0  0  0  0  0
   -2.9374   -2.7699   -0.2888 N   0  0  0  0  0  0  0  0  0  0  0  0
   -3.4759   -1.4965    0.1425 C   0  0  0  0  0  0  0  0  0  0  0  0
   -4.0167   -0.6992   -1.0562 C   0  0  0  0  0  0  0  0  0  0  0  0
   -5.0893    0.3091   -0.6228 C   0  0  0  0  0  0  0  0  0  0  0  0
   -5.5283    1.1697   -1.8118 C   0  0  0  0  0  0  0  0  0  0  0  0
   -6.3015   -0.3833    0.0342 C   0  0  0  0  0  0  0  0  0  0  0  0
   -5.9569   -1.6476    0.8671 C   0  0  0  0  0  0  0  0  0  0  0  0
   -6.8276   -1.6749    2.1455 C   0  0  0  0  0  0  0  0  0  0  0  0
   -6.2888   -2.9220    0.0646 C   0  0  0  0  0  0  0  0  0  0  0  0
   -4.4689   -1.6453    1.3016 C   0  0  0  0  0  0  0  0  0  0  0  0
   -2.1690   -0.8384    0.6345 C   0  0  0  0  0  0  0  0  0  0  0  0
   -2.0922    0.2487    1.1916 O   0  0  0  0  0  0  0  0  0  0  0  0
    4.0995   -1.4667   -1.0590 C   0  0  0  0  0  0  0  0  0  0  0  0
    3.9169   -2.1348   -2.0703 O   0  0  0  0  0  0  0  0  0  0  0  0
    5.2770   -1.5263   -0.3912 N   0  0  0  0  0  0  0  0  0  0  0  0
    5.4424   -1.1509    0.9029 C   0  0  0  0  0  0  0  0  0  0  0  0
    6.4679   -1.4884    1.5014 O   0  0  0  0  0  0  0  0  0  0  0  0
    5.4368    4.6437    1.9836 H   0  0  0  0  0  0  0  0  0  0  0  0
    6.1064    4.0007    3.4988 H   0  0  0  0  0  0  0  0  0  0  0  0
    6.8287    3.5487    1.9406 H   0  0  0  0  0  0  0  0  0  0  0  0
    4.0179    2.8265    2.8901 H   0  0  0  0  0  0  0  0  0  0  0  0
    4.6813    2.4361    1.2939 H   0  0  0  0  0  0  0  0  0  0  0  0
    6.4998    1.1056    2.3693 H   0  0  0  0  0  0  0  0  0  0  0  0
    5.8460    1.4795    3.9603 H   0  0  0  0  0  0  0  0  0  0  0  0
    5.1720   -0.7437    3.3796 H   0  0  0  0  0  0  0  0  0  0  0  0
    3.7257    0.2066    3.3951 H   0  0  0  0  0  0  0  0  0  0  0  0
    2.6584    1.3457    2.1067 H   0  0  0  0  0  0  0  0  0  0  0  0
    1.9499    1.4472    0.6064 H   0  0  0  0  0  0  0  0  0  0  0  0
    1.3905   -0.1596   -3.2835 H   0  0  0  0  0  0  0  0  0  0  0  0
    3.1249   -0.0977   -3.0338 H   0  0  0  0  0  0  0  0  0  0  0  0
    1.3081    2.1731   -2.0675 H   0  0  0  0  0  0  0  0  0  0  0  0
    4.2915    2.0683   -2.7852 H   0  0  0  0  0  0  0  0  0  0  0  0
    3.6240    2.1722   -1.1551 H   0  0  0  0  0  0  0  0  0  0  0  0
    3.4028    3.5119   -2.2677 H   0  0  0  0  0  0  0  0  0  0  0  0
    0.9025    1.8646   -4.4915 H   0  0  0  0  0  0  0  0  0  0  0  0
    1.8222    3.3529   -4.1948 H   0  0  0  0  0  0  0  0  0  0  0  0
    2.6451    1.8959   -4.8106 H   0  0  0  0  0  0  0  0  0  0  0  0
    0.3784   -0.6432    1.2782 H   0  0  0  0  0  0  0  0  0  0  0  0
    0.8949   -2.1368    0.4064 H   0  0  0  0  0  0  0  0  0  0  0  0
   -3.4440   -3.4774   -0.8013 H   0  0  0  0  0  0  0  0  0  0  0  0
   -4.4489   -1.3816   -1.7991 H   0  0  0  0  0  0  0  0  0  0  0  0
   -3.1961   -0.1829   -1.5722 H   0  0  0  0  0  0  0  0  0  0  0  0
   -4.6412    0.9783    0.1238 H   0  0  0  0  0  0  0  0  0  0  0  0
   -6.2766    1.9096   -1.5060 H   0  0  0  0  0  0  0  0  0  0  0  0
   -5.9633    0.5502   -2.6068 H   0  0  0  0  0  0  0  0  0  0  0  0
   -4.6824    1.7143   -2.2276 H   0  0  0  0  0  0  0  0  0  0  0  0
   -6.7947    0.3688    0.6651 H   0  0  0  0  0  0  0  0  0  0  0  0
   -7.0422   -0.6383   -0.7304 H   0  0  0  0  0  0  0  0  0  0  0  0
   -7.8970   -1.6465    1.9005 H   0  0  0  0  0  0  0  0  0  0  0  0
   -6.6156   -0.8142    2.7897 H   0  0  0  0  0  0  0  0  0  0  0  0
   -6.6235   -2.5839    2.7301 H   0  0  0  0  0  0  0  0  0  0  0  0
   -7.3554   -2.9597   -0.1824 H   0  0  0  0  0  0  0  0  0  0  0  0
   -6.0491   -3.8254    0.6433 H   0  0  0  0  0  0  0  0  0  0  0  0
   -5.7295   -2.9777   -0.8727 H   0  0  0  0  0  0  0  0  0  0  0  0
   -4.3268   -0.8199    2.0128 H   0  0  0  0  0  0  0  0  0  0  0  0
   -4.2409   -2.5613    1.8702 H   0  0  0  0  0  0  0  0  0  0  0  0
    5.9761   -2.1496   -0.7624 H   0  0  0  0  0  0  0  0  0  0  0  0
  1  2  1  0
  2  3  1  0
  3  4  1  0
  4  5  1  0
  5  6  1  0
  6  7  1  0
  6  8  2  0
  8  9  1  0
  9 10  1  0
 10 11  1  0
 11 12  1  0
 11 13  1  0
  9 14  1  0
 14 15  2  0
 14 16  1  0
 16 17  1  0
 17 18  1  0
 18 19  2  0
 18 20  1  0
 20 21  1  0
 21 22  1  0
 22 23  1  0
 23 24  1  0
 23 25  1  0
 25 26  1  0
 26 27  1  0
 26 28  1  0
 26 29  1  0
 21 30  1  0
 30 31  2  0
  8 32  1  0
 32 33  2  0
 32 34  1  0
 34 35  1  0
 35 36  2  0
 35  5  1  0
 30 17  1  0
 29 21  1  0
  1 37  1  0
  1 38  1  0
  1 39  1  0
  2 40  1  0
  2 41  1  0
  3 42  1  0
  3 43  1  0
  4 44  1  0
  4 45  1  0
  7 46  1  0
  7 47  1  0
 10 48  1  0
 10 49  1  0
 11 50  1  0
 12 51  1  0
 12 52  1  0
 12 53  1  0
 13 54  1  0
 13 55  1  0
 13 56  1  0
 16 57  1  0
 16 58  1  0
 20 59  1  0
 22 60  1  0
 22 61  1  0
 23 62  1  0
 24 63  1  0
 24 64  1  0
 24 65  1  0
 25 66  1  0
 25 67  1  0
 27 68  1  0
 27 69  1  0
 27 70  1  0
 28 71  1  0
 28 72  1  0
 28 73  1  0
 29 74  1  0
 29 75  1  0
 34 76  1  0
M  END
$$$$
