
     RDKit          3D

 38 41  0  0  0  0  0  0  0  0999 V2000
    8.1535    1.6699    0.3310 C   0  0  0  0  0  0  0  0  0  0  0  0
    6.6763    1.8021    0.3686 C   0  0  0  0  0  0  0  0  0  0  0  0
    6.0216    2.9201    0.6010 N   0  0  0  0  0  0  0  0  0  0  0  0
    4.6545    2.7303    0.5715 N   0  0  0  0  0  0  0  0  0  0  0  0
    4.3297    1.4814    0.3193 C   0  0  0  0  0  0  0  0  0  0  0  0
    3.0230    1.0748    0.2449 N   0  0  0  0  0  0  0  0  0  0  0  0
    2.5470   -0.1929   -0.0089 C   0  0  0  0  0  0  0  0  0  0  0  0
    3.2580   -1.1751   -0.2088 O   0  0  0  0  0  0  0  0  0  0  0  0
    1.0838   -0.3039   -0.0248 C   0  0  0  0  0  0  0  0  0  0  0  0
    0.0798    1.0079    0.4296 S   0  0  0  0  0  0  0  0  0  0  0  0
   -1.3393    0.1106    0.1733 C   0  0  0  0  0  0  0  0  0  0  0  0
   -2.5339    0.6892    0.3889 N   0  0  0  0  0  0  0  0  0  0  0  0
   -3.6082   -0.0834    0.1407 C   0  0  0  0  0  0  0  0  0  0  0  0
   -4.8915    0.6058    0.3906 C   0  0  0  0  0  0  0  0  0  0  0  0
   -5.0881    1.9294    0.7596 C   0  0  0  0  0  0  0  0  0  0  0  0
   -6.4607    2.2732    0.9234 C   0  0  0  0  0  0  0  0  0  0  0  0
   -7.2867    1.2024    0.6783 C   0  0  0  0  0  0  0  0  0  0  0  0
   -6.4076   -0.1985    0.2569 S   0  0  0  0  0  0  0  0  0  0  0  0
   -3.5063   -1.3925   -0.3141 C   0  0  0  0  0  0  0  0  0  0  0  0
   -2.2429   -1.9855   -0.5245 C   0  0  0  0  0  0  0  0  0  0  0  0
   -2.1714   -3.3916   -1.0561 C   0  0  0  0  0  0  0  0  0  0  0  0
   -1.8421   -3.4381   -2.3747 F   0  0  0  0  0  0  0  0  0  0  0  0
   -3.3522   -4.0653   -0.9480 F   0  0  0  0  0  0  0  0  0  0  0  0
   -1.2558   -4.1681   -0.4087 F   0  0  0  0  0  0  0  0  0  0  0  0
   -1.0999   -1.1865   -0.2610 C   0  0  0  0  0  0  0  0  0  0  0  0
    0.3196   -1.4118   -0.3581 C   0  0  0  0  0  0  0  0  0  0  0  0
    0.8710   -2.5861   -0.7488 N   0  0  0  0  0  0  0  0  0  0  0  0
    5.6622    0.4439    0.0994 S   0  0  0  0  0  0  0  0  0  0  0  0
    8.5013    0.9653    1.0929 H   0  0  0  0  0  0  0  0  0  0  0  0
    8.6296    2.6365    0.5242 H   0  0  0  0  0  0  0  0  0  0  0  0
    8.4887    1.3200   -0.6505 H   0  0  0  0  0  0  0  0  0  0  0  0
    2.3572    1.8203    0.3986 H   0  0  0  0  0  0  0  0  0  0  0  0
   -4.2689    2.6249    0.9055 H   0  0  0  0  0  0  0  0  0  0  0  0
   -6.8197    3.2550    1.2070 H   0  0  0  0  0  0  0  0  0  0  0  0
   -8.3667    1.1745    0.7275 H   0  0  0  0  0  0  0  0  0  0  0  0
   -4.3996   -1.9775   -0.5205 H   0  0  0  0  0  0  0  0  0  0  0  0
    0.3966   -3.4789   -0.6136 H   0  0  0  0  0  0  0  0  0  0  0  0
    1.8882   -2.7020   -0.6712 H   0  0  0  0  0  0  0  0  0  0  0  0
  1  2  1  0
  2  3  2  0
  3  4  1  0
  4  5  2  0
  5  6  1  0
  6  7  1  0
  7  8  2  0
  7  9  1  0
  9 10  1  0
 10 11  1  0
 11 12  2  0
 12 13  1  0
 13 14  1  0
 14 15  2  0
 15 16  1  0
 16 17  2  0
 17 18  1  0
 13 19  2  0
 19 20  1  0
 20 21  1  0
 21 22  1  0
 21 23  1  0
 21 24  1  0
 20 25  2  0
 25 26  1  0
 26 27  1  0
  5 28  1  0
 28  2  1  0
 26  9  2  0
 25 11  1  0
 18 14  1  0
  1 29  1  0
  1 30  1  0
  1 31  1  0
  6 32  1  0
 15 33  1  0
 16 34  1  0
 17 35  1  0
 19 36  1  0
 27 37  1  0
 27 38  1  0
M  END
$$$$
