
     RDKit          3D

 47 48  0  0  0  0  0  0  0  0999 V2000
    6.6630   -1.7269    2.2131 C   0  0  0  0  0  0  0  0  0  0  0  0
    5.1668   -1.4846    2.2481 C   0  0  0  0  0  0  0  0  0  0  0  0
    4.8161   -0.7141    1.0935 O   0  0  0  0  0  0  0  0  0  0  0  0
    3.5004   -0.3664    1.0173 C   0  0  0  0  0  0  0  0  0  0  0  0
    2.6598   -0.7068    1.8396 O   0  0  0  0  0  0  0  0  0  0  0  0
    3.1792    0.4711   -0.1418 C   0  0  0  0  0  0  0  0  0  0  0  0
    4.0582    0.9081   -1.1327 C   0  0  0  0  0  0  0  0  0  0  0  0
    5.5104    0.6511   -1.3505 C   0  0  0  0  0  0  0  0  0  0  0  0
    3.3597    1.7171   -1.9957 N   0  0  0  0  0  0  0  0  0  0  0  0
    2.0552    1.8211   -1.5961 C   0  0  0  0  0  0  0  0  0  0  0  0
    1.0752    2.6365   -2.3641 C   0  0  0  0  0  0  0  0  0  0  0  0
    1.8921    1.0392   -0.4600 C   0  0  0  0  0  0  0  0  0  0  0  0
    0.6115    0.8843    0.2401 C   0  0  0  0  0  0  0  0  0  0  0  0
   -0.0158    1.8697    0.6339 O   0  0  0  0  0  0  0  0  0  0  0  0
    0.0439   -0.5323    0.3947 C   0  0  0  0  0  0  0  0  0  0  0  0
   -1.3879   -0.5775    0.3626 O   0  0  0  0  0  0  0  0  0  0  0  0
   -1.9288   -0.2520   -0.8346 C   0  0  0  0  0  0  0  0  0  0  0  0
   -1.3074   -0.0106   -1.8591 O   0  0  0  0  0  0  0  0  0  0  0  0
   -3.4050   -0.2326   -0.7903 C   0  0  0  0  0  0  0  0  0  0  0  0
   -4.1331   -0.5289    0.2987 C   0  0  0  0  0  0  0  0  0  0  0  0
   -5.6025   -0.5193    0.3255 C   0  0  0  0  0  0  0  0  0  0  0  0
   -6.2678   -1.4839    1.0958 C   0  0  0  0  0  0  0  0  0  0  0  0
   -7.6662   -1.4951    1.1715 C   0  0  0  0  0  0  0  0  0  0  0  0
   -8.4029   -0.5312    0.4891 C   0  0  0  0  0  0  0  0  0  0  0  0
  -10.1173   -0.5413    0.5867 Cl  0  0  0  0  0  0  0  0  0  0  0  0
   -7.7554    0.4455   -0.2657 C   0  0  0  0  0  0  0  0  0  0  0  0
   -6.3603    0.4535   -0.3448 C   0  0  0  0  0  0  0  0  0  0  0  0
    6.9516   -2.2542    1.2972 H   0  0  0  0  0  0  0  0  0  0  0  0
    6.9842   -2.3144    3.0769 H   0  0  0  0  0  0  0  0  0  0  0  0
    7.2022   -0.7728    2.2126 H   0  0  0  0  0  0  0  0  0  0  0  0
    4.9087   -0.9290    3.1572 H   0  0  0  0  0  0  0  0  0  0  0  0
    4.6341   -2.4415    2.2309 H   0  0  0  0  0  0  0  0  0  0  0  0
    5.8797    1.1653   -2.2461 H   0  0  0  0  0  0  0  0  0  0  0  0
    6.0979    1.0068   -0.4943 H   0  0  0  0  0  0  0  0  0  0  0  0
    5.6951   -0.4222   -1.4840 H   0  0  0  0  0  0  0  0  0  0  0  0
    3.7526    2.1771   -2.8077 H   0  0  0  0  0  0  0  0  0  0  0  0
    1.5769    3.4229   -2.9377 H   0  0  0  0  0  0  0  0  0  0  0  0
    0.5210    2.0011   -3.0618 H   0  0  0  0  0  0  0  0  0  0  0  0
    0.3568    3.1212   -1.6989 H   0  0  0  0  0  0  0  0  0  0  0  0
    0.3361   -0.9130    1.3759 H   0  0  0  0  0  0  0  0  0  0  0  0
    0.4494   -1.2050   -0.3678 H   0  0  0  0  0  0  0  0  0  0  0  0
   -3.8647    0.0320   -1.7366 H   0  0  0  0  0  0  0  0  0  0  0  0
   -3.6490   -0.8160    1.2305 H   0  0  0  0  0  0  0  0  0  0  0  0
   -5.7037   -2.2422    1.6397 H   0  0  0  0  0  0  0  0  0  0  0  0
   -8.1663   -2.2535    1.7679 H   0  0  0  0  0  0  0  0  0  0  0  0
   -8.3279    1.2064   -0.7883 H   0  0  0  0  0  0  0  0  0  0  0  0
   -5.8758    1.2374   -0.9234 H   0  0  0  0  0  0  0  0  0  0  0  0
  1  2  1  0
  2  3  1  0
  3  4  1  0
  4  5  2  0
  4  6  1  0
  6  7  2  0
  7  8  1  0
  7  9  1  0
  9 10  1  0
 10 11  1  0
 10 12  2  0
 12 13  1  0
 13 14  2  0
 13 15  1  0
 15 16  1  0
 16 17  1  0
 17 18  2  0
 17 19  1  0
 19 20  2  3
 20 21  1  0
 21 22  2  0
 22 23  1  0
 23 24  2  0
 24 25  1  0
 24 26  1  0
 26 27  2  0
 12  6  1  0
 27 21  1  0
  1 28  1  0
  1 29  1  0
  1 30  1  0
  2 31  1  0
  2 32  1  0
  8 33  1  0
  8 34  1  0
  8 35  1  0
  9 36  1  0
 11 37  1  0
 11 38  1  0
 11 39  1  0
 15 40  1  0
 15 41  1  0
 19 42  1  0
 20 43  1  0
 22 44  1  0
 23 45  1  0
 26 46  1  0
 27 47  1  0
M  END
$$$$
