
     RDKit          3D

 44 47  0  0  0  0  0  0  0  0999 V2000
    6.5446   -0.5888   -0.2819 C   0  0  0  0  0  0  0  0  0  0  0  0
    5.4660   -0.4400   -1.3444 C   0  0  0  0  0  0  0  0  0  0  0  0
    4.0949   -0.3986   -0.7397 C   0  0  0  0  0  0  0  0  0  0  0  0
    3.2719   -1.4597   -0.4148 C   0  0  0  0  0  0  0  0  0  0  0  0
    2.0342   -1.0239    0.1427 C   0  0  0  0  0  0  0  0  0  0  0  0
    0.9086   -1.8093    0.6000 C   0  0  0  0  0  0  0  0  0  0  0  0
    0.9400   -3.0360    0.5628 O   0  0  0  0  0  0  0  0  0  0  0  0
   -0.1787   -1.0584    1.0639 N   0  0  0  0  0  0  0  0  0  0  0  0
   -1.3776   -1.8229    1.4251 C   0  0  0  0  0  0  0  0  0  0  0  0
   -2.3547   -1.9368    0.2703 C   0  0  0  0  0  0  0  0  0  0  0  0
   -3.5518   -1.2060    0.2651 C   0  0  0  0  0  0  0  0  0  0  0  0
   -4.4349   -1.2910   -0.8132 C   0  0  0  0  0  0  0  0  0  0  0  0
   -4.1419   -2.1199   -1.8934 C   0  0  0  0  0  0  0  0  0  0  0  0
   -2.9653   -2.8645   -1.8959 C   0  0  0  0  0  0  0  0  0  0  0  0
   -2.0782   -2.7755   -0.8211 C   0  0  0  0  0  0  0  0  0  0  0  0
   -0.0986    0.3332    1.1173 C   0  0  0  0  0  0  0  0  0  0  0  0
   -1.4375    1.2326    1.8021 S   0  0  0  0  0  0  0  0  0  0  0  0
   -1.7530    2.3591    0.4158 C   0  0  0  0  0  0  0  0  0  0  0  0
   -0.9961    3.6639    0.5395 C   0  0  0  0  0  0  0  0  0  0  0  0
   -1.8830    4.6078   -0.2313 C   0  0  0  0  0  0  0  0  0  0  0  0
   -3.2152    4.1611    0.0207 O   0  0  0  0  0  0  0  0  0  0  0  0
   -3.1825    2.8459    0.4040 C   0  0  0  0  0  0  0  0  0  0  0  0
   -4.1852    2.1912    0.6423 O   0  0  0  0  0  0  0  0  0  0  0  0
    0.9095    1.0476    0.7205 N   0  0  0  0  0  0  0  0  0  0  0  0
    1.9506    0.3418    0.2283 C   0  0  0  0  0  0  0  0  0  0  0  0
    3.3548    1.1030   -0.3659 S   0  0  0  0  0  0  0  0  0  0  0  0
    6.4033   -1.5047    0.3022 H   0  0  0  0  0  0  0  0  0  0  0  0
    6.5370    0.2581    0.4131 H   0  0  0  0  0  0  0  0  0  0  0  0
    7.5327   -0.6347   -0.7505 H   0  0  0  0  0  0  0  0  0  0  0  0
    5.5273   -1.2850   -2.0409 H   0  0  0  0  0  0  0  0  0  0  0  0
    5.6567    0.4639   -1.9351 H   0  0  0  0  0  0  0  0  0  0  0  0
    3.5382   -2.4997   -0.5687 H   0  0  0  0  0  0  0  0  0  0  0  0
   -1.8657   -1.3763    2.2975 H   0  0  0  0  0  0  0  0  0  0  0  0
   -1.1015   -2.8362    1.7433 H   0  0  0  0  0  0  0  0  0  0  0  0
   -3.8181   -0.5562    1.0974 H   0  0  0  0  0  0  0  0  0  0  0  0
   -5.3532   -0.7081   -0.8044 H   0  0  0  0  0  0  0  0  0  0  0  0
   -4.8334   -2.1907   -2.7290 H   0  0  0  0  0  0  0  0  0  0  0  0
   -2.7383   -3.5194   -2.7337 H   0  0  0  0  0  0  0  0  0  0  0  0
   -1.1719   -3.3774   -0.8435 H   0  0  0  0  0  0  0  0  0  0  0  0
   -1.5659    1.8735   -0.5493 H   0  0  0  0  0  0  0  0  0  0  0  0
   -0.9382    4.0004    1.5826 H   0  0  0  0  0  0  0  0  0  0  0  0
    0.0195    3.6288    0.1359 H   0  0  0  0  0  0  0  0  0  0  0  0
   -1.7710    5.6417    0.1094 H   0  0  0  0  0  0  0  0  0  0  0  0
   -1.6986    4.5661   -1.3103 H   0  0  0  0  0  0  0  0  0  0  0  0
  1  2  1  0
  2  3  1  0
  3  4  2  0
  4  5  1  0
  5  6  1  0
  6  7  2  0
  6  8  1  0
  8  9  1  0
  9 10  1  0
 10 11  2  0
 11 12  1  0
 12 13  2  0
 13 14  1  0
 14 15  2  0
  8 16  1  0
 16 17  1  0
 17 18  1  0
 18 19  1  0
 19 20  1  0
 20 21  1  0
 21 22  1  0
 22 23  2  0
 16 24  2  0
 24 25  1  0
 25 26  1  0
 26  3  1  0
 25  5  2  0
 15 10  1  0
 22 18  1  0
  1 27  1  0
  1 28  1  0
  1 29  1  0
  2 30  1  0
  2 31  1  0
  4 32  1  0
  9 33  1  0
  9 34  1  0
 11 35  1  0
 12 36  1  0
 13 37  1  0
 14 38  1  0
 15 39  1  0
 18 40  1  0
 19 41  1  0
 19 42  1  0
 20 43  1  0
 20 44  1  0
M  END
$$$$
