
     RDKit          3D

 70 72  0  0  0  0  0  0  0  0999 V2000
    7.3412    3.7978   -1.3010 C   0  0  0  0  0  0  0  0  0  0  0  0
    6.7603    2.6815   -0.4451 C   0  0  0  0  0  0  0  0  0  0  0  0
    6.5421    1.4081   -1.2642 C   0  0  0  0  0  0  0  0  0  0  0  0
    6.0612    0.2162   -0.4292 C   0  0  0  0  0  0  0  0  0  0  0  0
    4.6625    0.4131    0.1624 C   0  0  0  0  0  0  0  0  0  0  0  0
    4.1627   -0.7971    0.9603 C   0  0  0  0  0  0  0  0  0  0  0  0
    4.0170   -2.1030    0.1710 C   0  0  0  0  0  0  0  0  0  0  0  0
    3.1310   -2.0275   -1.0769 C   0  0  0  0  0  0  0  0  0  0  0  0
    1.6914   -1.5510   -0.8409 C   0  0  0  0  0  0  0  0  0  0  0  0
    0.8914   -2.5205    0.0328 C   0  0  0  0  0  0  0  0  0  0  0  0
   -0.5710   -2.0628    0.3156 N   0  0  0  0  0  4  0  0  0  0  0  0
   -0.5616   -0.7509    1.0916 C   0  0  0  0  0  0  0  0  0  0  0  0
   -1.1855   -3.1534    1.2061 C   0  0  0  0  0  0  0  0  0  0  0  0
   -1.3550   -1.9511   -1.0135 C   0  0  0  0  0  0  0  0  0  0  0  0
   -2.8484   -1.5784   -0.8980 C   0  0  0  0  0  0  0  0  0  0  0  0
   -3.1155   -0.1034   -0.7039 C   0  0  0  0  0  0  0  0  0  0  0  0
   -4.1100    0.5039   -0.0136 C   0  0  0  0  0  0  0  0  0  0  0  0
   -4.2772    1.9707   -0.2198 C   0  0  0  0  0  0  0  0  0  0  0  0
   -3.2140    2.8734   -0.0617 C   0  0  0  0  0  0  0  0  0  0  0  0
   -3.4149    4.2410   -0.2586 C   0  0  0  0  0  0  0  0  0  0  0  0
   -4.6780    4.7193   -0.6057 C   0  0  0  0  0  0  0  0  0  0  0  0
   -5.7452    3.8326   -0.7553 C   0  0  0  0  0  0  0  0  0  0  0  0
   -5.5571    2.4606   -0.5536 C   0  0  0  0  0  0  0  0  0  0  0  0
   -6.9669    1.3650   -0.7422 S   0  0  0  0  0  0  0  0  0  0  0  0
   -6.5250    0.0570    0.4013 C   0  0  0  0  0  0  0  0  0  0  0  0
   -7.5548   -0.6481    1.0381 C   0  0  0  0  0  0  0  0  0  0  0  0
   -7.2564   -1.6247    1.9900 C   0  0  0  0  0  0  0  0  0  0  0  0
   -5.9297   -1.8778    2.3215 C   0  0  0  0  0  0  0  0  0  0  0  0
   -5.5445   -3.0607    3.5101 Cl  0  0  0  0  0  0  0  0  0  0  0  0
   -4.8963   -1.1836    1.6928 C   0  0  0  0  0  0  0  0  0  0  0  0
   -5.1798   -0.2456    0.6934 C   0  0  0  0  0  0  0  0  0  0  0  0
    6.6535    4.0700   -2.1080 H   0  0  0  0  0  0  0  0  0  0  0  0
    8.2939    3.4982   -1.7483 H   0  0  0  0  0  0  0  0  0  0  0  0
    7.5172    4.6888   -0.6905 H   0  0  0  0  0  0  0  0  0  0  0  0
    5.8128    3.0291   -0.0179 H   0  0  0  0  0  0  0  0  0  0  0  0
    7.4407    2.4763    0.3910 H   0  0  0  0  0  0  0  0  0  0  0  0
    5.8256    1.6035   -2.0727 H   0  0  0  0  0  0  0  0  0  0  0  0
    7.4887    1.1264   -1.7437 H   0  0  0  0  0  0  0  0  0  0  0  0
    6.0643   -0.6635   -1.0824 H   0  0  0  0  0  0  0  0  0  0  0  0
    6.7796    0.0164    0.3754 H   0  0  0  0  0  0  0  0  0  0  0  0
    3.9516    0.6596   -0.6339 H   0  0  0  0  0  0  0  0  0  0  0  0
    4.6727    1.2721    0.8429 H   0  0  0  0  0  0  0  0  0  0  0  0
    4.8498   -0.9754    1.7973 H   0  0  0  0  0  0  0  0  0  0  0  0
    3.1978   -0.5408    1.4149 H   0  0  0  0  0  0  0  0  0  0  0  0
    5.0103   -2.4557   -0.1321 H   0  0  0  0  0  0  0  0  0  0  0  0
    3.6322   -2.8760    0.8472 H   0  0  0  0  0  0  0  0  0  0  0  0
    3.1046   -3.0206   -1.5448 H   0  0  0  0  0  0  0  0  0  0  0  0
    3.6008   -1.3642   -1.8130 H   0  0  0  0  0  0  0  0  0  0  0  0
    1.2250   -1.4635   -1.8275 H   0  0  0  0  0  0  0  0  0  0  0  0
    1.7047   -0.5461   -0.4086 H   0  0  0  0  0  0  0  0  0  0  0  0
    1.3664   -2.6449    1.0123 H   0  0  0  0  0  0  0  0  0  0  0  0
    0.8258   -3.5039   -0.4489 H   0  0  0  0  0  0  0  0  0  0  0  0
   -0.2873    0.0600    0.4131 H   0  0  0  0  0  0  0  0  0  0  0  0
    0.1641   -0.8361    1.9057 H   0  0  0  0  0  0  0  0  0  0  0  0
   -1.5551   -0.5793    1.5112 H   0  0  0  0  0  0  0  0  0  0  0  0
   -2.1814   -2.8424    1.5220 H   0  0  0  0  0  0  0  0  0  0  0  0
   -1.2343   -4.0825    0.6307 H   0  0  0  0  0  0  0  0  0  0  0  0
   -0.5484   -3.2792    2.0875 H   0  0  0  0  0  0  0  0  0  0  0  0
   -0.8434   -1.2086   -1.6330 H   0  0  0  0  0  0  0  0  0  0  0  0
   -1.2627   -2.9288   -1.5016 H   0  0  0  0  0  0  0  0  0  0  0  0
   -3.3009   -1.8330   -1.8658 H   0  0  0  0  0  0  0  0  0  0  0  0
   -3.3547   -2.2111   -0.1697 H   0  0  0  0  0  0  0  0  0  0  0  0
   -2.4749    0.5327   -1.3202 H   0  0  0  0  0  0  0  0  0  0  0  0
   -2.2240    2.5264    0.2207 H   0  0  0  0  0  0  0  0  0  0  0  0
   -2.5914    4.9398   -0.1320 H   0  0  0  0  0  0  0  0  0  0  0  0
   -4.8353    5.7854   -0.7559 H   0  0  0  0  0  0  0  0  0  0  0  0
   -6.7263    4.2227   -1.0197 H   0  0  0  0  0  0  0  0  0  0  0  0
   -8.5972   -0.4298    0.8112 H   0  0  0  0  0  0  0  0  0  0  0  0
   -8.0644   -2.1621    2.4812 H   0  0  0  0  0  0  0  0  0  0  0  0
   -3.8741   -1.3610    2.0020 H   0  0  0  0  0  0  0  0  0  0  0  0
  1  2  1  0
  2  3  1  0
  3  4  1  0
  4  5  1  0
  5  6  1  0
  6  7  1  0
  7  8  1  0
  8  9  1  0
  9 10  1  0
 10 11  1  0
 11 12  1  0
 11 13  1  0
 11 14  1  0
 14 15  1  0
 15 16  1  0
 16 17  2  3
 17 18  1  0
 18 19  2  0
 19 20  1  0
 20 21  2  0
 21 22  1  0
 22 23  2  0
 23 24  1  0
 24 25  1  0
 25 26  2  0
 26 27  1  0
 27 28  2  0
 28 29  1  0
 28 30  1  0
 30 31  2  0
 31 17  1  0
 23 18  1  0
 31 25  1  0
  1 32  1  0
  1 33  1  0
  1 34  1  0
  2 35  1  0
  2 36  1  0
  3 37  1  0
  3 38  1  0
  4 39  1  0
  4 40  1  0
  5 41  1  0
  5 42  1  0
  6 43  1  0
  6 44  1  0
  7 45  1  0
  7 46  1  0
  8 47  1  0
  8 48  1  0
  9 49  1  0
  9 50  1  0
 10 51  1  0
 10 52  1  0
 12 53  1  0
 12 54  1  0
 12 55  1  0
 13 56  1  0
 13 57  1  0
 13 58  1  0
 14 59  1  0
 14 60  1  0
 15 61  1  0
 15 62  1  0
 16 63  1  0
 19 64  1  0
 20 65  1  0
 21 66  1  0
 22 67  1  0
 26 68  1  0
 27 69  1  0
 30 70  1  0
M  CHG  1  11   1
M  END
$$$$
