
     RDKit          3D

 38 39  0  0  0  0  0  0  0  0999 V2000
    5.0965   -0.1372   -2.0546 C   0  0  0  0  0  0  0  0  0  0  0  0
    4.6857    1.0365   -1.1754 C   0  0  0  0  0  0  0  0  0  0  0  0
    4.4434    0.6394    0.2808 C   0  0  0  0  0  0  0  0  0  0  0  0
    3.2484   -0.2194    0.4456 C   0  0  0  0  0  0  0  0  0  0  0  0
    3.1698   -1.5167    0.6457 N   0  0  0  0  0  0  0  0  0  0  0  0
    1.8251   -1.8137    0.7259 N   0  0  0  0  0  0  0  0  0  0  0  0
    1.1765   -0.6765    0.5705 C   0  0  0  0  0  0  0  0  0  0  0  0
   -0.2574   -0.4092    0.5659 C   0  0  0  0  0  0  0  0  0  0  0  0
   -0.7655    0.8864    0.3685 C   0  0  0  0  0  0  0  0  0  0  0  0
   -2.1427    1.1222    0.3651 C   0  0  0  0  0  0  0  0  0  0  0  0
   -2.7264    2.3486    0.1786 O   0  0  0  0  0  0  0  0  0  0  0  0
   -1.8775    3.4879    0.1843 C   0  0  0  0  0  0  0  0  0  0  0  0
   -3.0177    0.0377    0.5440 C   0  0  0  0  0  0  0  0  0  0  0  0
   -4.3755    0.2691    0.5842 O   0  0  0  0  0  0  0  0  0  0  0  0
   -4.9300    0.1224   -0.7219 C   0  0  0  0  0  0  0  0  0  0  0  0
   -2.5338   -1.2622    0.7641 C   0  0  0  0  0  0  0  0  0  0  0  0
   -3.4768   -2.2393    0.9507 O   0  0  0  0  0  0  0  0  0  0  0  0
   -3.0170   -3.5319    1.3225 C   0  0  0  0  0  0  0  0  0  0  0  0
   -1.1536   -1.4745    0.7639 C   0  0  0  0  0  0  0  0  0  0  0  0
    2.0230    0.3882    0.3876 O   0  0  0  0  0  0  0  0  0  0  0  0
    5.3190    0.2124   -3.0678 H   0  0  0  0  0  0  0  0  0  0  0  0
    4.2987   -0.8828   -2.1265 H   0  0  0  0  0  0  0  0  0  0  0  0
    5.9929   -0.6271   -1.6612 H   0  0  0  0  0  0  0  0  0  0  0  0
    3.7902    1.5084   -1.5977 H   0  0  0  0  0  0  0  0  0  0  0  0
    5.4852    1.7864   -1.2043 H   0  0  0  0  0  0  0  0  0  0  0  0
    5.3243    0.1239    0.6807 H   0  0  0  0  0  0  0  0  0  0  0  0
    4.3108    1.5475    0.8810 H   0  0  0  0  0  0  0  0  0  0  0  0
   -0.0667    1.7026    0.2142 H   0  0  0  0  0  0  0  0  0  0  0  0
   -2.5115    4.3777    0.1223 H   0  0  0  0  0  0  0  0  0  0  0  0
   -1.2178    3.4887   -0.6894 H   0  0  0  0  0  0  0  0  0  0  0  0
   -1.3032    3.5525    1.1145 H   0  0  0  0  0  0  0  0  0  0  0  0
   -4.4980    0.8449   -1.4230 H   0  0  0  0  0  0  0  0  0  0  0  0
   -6.0039    0.3204   -0.6533 H   0  0  0  0  0  0  0  0  0  0  0  0
   -4.7987   -0.8971   -1.1004 H   0  0  0  0  0  0  0  0  0  0  0  0
   -3.8949   -4.1594    1.5035 H   0  0  0  0  0  0  0  0  0  0  0  0
   -2.4417   -3.9913    0.5122 H   0  0  0  0  0  0  0  0  0  0  0  0
   -2.4365   -3.4960    2.2504 H   0  0  0  0  0  0  0  0  0  0  0  0
   -0.7429   -2.4696    0.9152 H   0  0  0  0  0  0  0  0  0  0  0  0
  1  2  1  0
  2  3  1  0
  3  4  1  0
  4  5  2  0
  5  6  1  0
  6  7  2  0
  7  8  1  0
  8  9  2  0
  9 10  1  0
 10 11  1  0
 11 12  1  0
 10 13  2  0
 13 14  1  0
 14 15  1  0
 13 16  1  0
 16 17  1  0
 17 18  1  0
 16 19  2  0
  7 20  1  0
 20  4  1  0
 19  8  1  0
  1 21  1  0
  1 22  1  0
  1 23  1  0
  2 24  1  0
  2 25  1  0
  3 26  1  0
  3 27  1  0
  9 28  1  0
 12 29  1  0
 12 30  1  0
 12 31  1  0
 15 32  1  0
 15 33  1  0
 15 34  1  0
 18 35  1  0
 18 36  1  0
 18 37  1  0
 19 38  1  0
M  END
$$$$
