
     RDKit          3D

 47 49  0  0  0  0  0  0  0  0999 V2000
    4.9421   -3.2893    1.8509 C   0  0  0  0  0  0  0  0  0  0  0  0
    4.5345   -1.8431    1.5878 C   0  0  0  0  0  0  0  0  0  0  0  0
    4.3129   -1.5693    0.1609 N   0  0  0  0  0  0  0  0  0  0  0  0
    4.1697   -0.1198   -0.0918 C   0  0  0  0  0  0  0  0  0  0  0  0
    2.8647    0.5204    0.4325 C   0  0  0  0  0  0  0  0  0  0  0  0
    1.6441   -0.1904   -0.0364 N   0  0  0  0  0  0  0  0  0  0  0  0
    0.3850    0.4589   -0.0836 C   0  0  0  0  0  0  0  0  0  0  0  0
   -0.7604   -0.1391   -0.4832 C   0  0  0  0  0  0  0  0  0  0  0  0
   -2.0462    0.5384   -0.5457 C   0  0  0  0  0  0  0  0  0  0  0  0
   -3.2015   -0.1486   -0.4965 C   0  0  0  0  0  0  0  0  0  0  0  0
   -4.5065    0.5056   -0.3789 C   0  0  0  0  0  0  0  0  0  0  0  0
   -5.6790   -0.1202   -0.6489 C   0  0  0  0  0  0  0  0  0  0  0  0
   -6.9318    0.5398   -0.4830 C   0  0  0  0  0  0  0  0  0  0  0  0
   -7.9454    1.0862   -0.3393 N   0  0  0  0  0  0  0  0  0  0  0  0
   -5.7282   -1.4684   -1.1136 C   0  0  0  0  0  0  0  0  0  0  0  0
   -5.7565   -2.5690   -1.4827 N   0  0  0  0  0  0  0  0  0  0  0  0
   -4.4077    1.9372    0.1332 C   0  0  0  0  0  0  0  0  0  0  0  0
   -3.3525    2.7268   -0.6360 C   0  0  0  0  0  0  0  0  0  0  0  0
   -1.9755    2.0470   -0.6239 C   0  0  0  0  0  0  0  0  0  0  0  0
   -1.0778    2.5214    0.5168 C   0  0  0  0  0  0  0  0  0  0  0  0
    0.3311    1.9303    0.3477 C   0  0  0  0  0  0  0  0  0  0  0  0
    1.7536   -1.6677    0.1201 C   0  0  0  0  0  0  0  0  0  0  0  0
    3.1054   -2.2238   -0.3841 C   0  0  0  0  0  0  0  0  0  0  0  0
    5.7944   -3.5805    1.2279 H   0  0  0  0  0  0  0  0  0  0  0  0
    5.2391   -3.4060    2.8985 H   0  0  0  0  0  0  0  0  0  0  0  0
    4.1200   -3.9864    1.6643 H   0  0  0  0  0  0  0  0  0  0  0  0
    3.6623   -1.5948    2.2030 H   0  0  0  0  0  0  0  0  0  0  0  0
    5.3599   -1.2133    1.9449 H   0  0  0  0  0  0  0  0  0  0  0  0
    5.0315    0.4196    0.3206 H   0  0  0  0  0  0  0  0  0  0  0  0
    4.2217    0.0398   -1.1779 H   0  0  0  0  0  0  0  0  0  0  0  0
    2.8647    1.5576    0.0796 H   0  0  0  0  0  0  0  0  0  0  0  0
    2.8656    0.5442    1.5289 H   0  0  0  0  0  0  0  0  0  0  0  0
   -0.7717   -1.1843   -0.7696 H   0  0  0  0  0  0  0  0  0  0  0  0
   -3.1687   -1.2376   -0.4828 H   0  0  0  0  0  0  0  0  0  0  0  0
   -4.1506    1.9174    1.2008 H   0  0  0  0  0  0  0  0  0  0  0  0
   -5.3580    2.4752    0.0533 H   0  0  0  0  0  0  0  0  0  0  0  0
   -3.6859    2.8231   -1.6788 H   0  0  0  0  0  0  0  0  0  0  0  0
   -3.2858    3.7486   -0.2431 H   0  0  0  0  0  0  0  0  0  0  0  0
   -1.4871    2.3236   -1.5705 H   0  0  0  0  0  0  0  0  0  0  0  0
   -1.4929    2.2177    1.4875 H   0  0  0  0  0  0  0  0  0  0  0  0
   -1.0078    3.6157    0.5302 H   0  0  0  0  0  0  0  0  0  0  0  0
    0.8628    2.5248   -0.4070 H   0  0  0  0  0  0  0  0  0  0  0  0
    0.8558    2.0611    1.3017 H   0  0  0  0  0  0  0  0  0  0  0  0
    1.6038   -1.9239    1.1760 H   0  0  0  0  0  0  0  0  0  0  0  0
    0.9788   -2.1876   -0.4512 H   0  0  0  0  0  0  0  0  0  0  0  0
    3.1404   -3.3059   -0.2148 H   0  0  0  0  0  0  0  0  0  0  0  0
    3.1336   -2.1113   -1.4770 H   0  0  0  0  0  0  0  0  0  0  0  0
  1  2  1  0
  2  3  1  0
  3  4  1  0
  4  5  1  0
  5  6  1  0
  6  7  1  0
  7  8  2  0
  8  9  1  0
  9 10  2  0
 10 11  1  0
 11 12  2  3
 12 13  1  0
 13 14  3  0
 12 15  1  0
 15 16  3  0
 11 17  1  0
 17 18  1  0
 18 19  1  0
 19 20  1  0
 20 21  1  0
  6 22  1  0
 22 23  1  0
 23  3  1  0
 21  7  1  0
 19  9  1  0
  1 24  1  0
  1 25  1  0
  1 26  1  0
  2 27  1  0
  2 28  1  0
  4 29  1  0
  4 30  1  0
  5 31  1  0
  5 32  1  0
  8 33  1  0
 10 34  1  0
 17 35  1  0
 17 36  1  0
 18 37  1  0
 18 38  1  0
 19 39  1  0
 20 40  1  0
 20 41  1  0
 21 42  1  0
 21 43  1  0
 22 44  1  0
 22 45  1  0
 23 46  1  0
 23 47  1  0
M  END
$$$$
