
     RDKit          3D

 39 40  0  0  0  0  0  0  0  0999 V2000
   -6.5954    1.1433    1.6027 C   0  0  0  0  0  0  0  0  0  0  0  0
   -5.6824    1.4105    0.5481 O   0  0  0  0  0  0  0  0  0  0  0  0
   -4.4213    0.8765    0.6427 C   0  0  0  0  0  0  0  0  0  0  0  0
   -3.9863    0.0603    1.6941 C   0  0  0  0  0  0  0  0  0  0  0  0
   -2.6833   -0.4416    1.7047 C   0  0  0  0  0  0  0  0  0  0  0  0
   -1.8134   -0.1302    0.6589 C   0  0  0  0  0  0  0  0  0  0  0  0
   -0.4294   -0.6830    0.6551 C   0  0  0  0  0  0  0  0  0  0  0  0
    0.2910   -0.6413    1.7349 N   0  0  0  0  0  0  0  0  0  0  0  0
    0.0372   -1.2198   -0.5273 N   0  0  0  0  0  0  0  0  0  0  0  0
    1.1852   -2.0094   -0.3539 O   0  0  0  0  0  0  0  0  0  0  0  0
    2.3481   -1.3160   -0.5919 C   0  0  0  0  0  0  0  0  0  0  0  0
    2.4242   -0.1967   -1.0871 O   0  0  0  0  0  0  0  0  0  0  0  0
    3.4078   -2.1326   -0.2225 O   0  0  0  0  0  0  0  0  0  0  0  0
    4.6629   -1.5329   -0.3492 C   0  0  0  0  0  0  0  0  0  0  0  0
    5.0550   -0.5229    0.5292 C   0  0  0  0  0  0  0  0  0  0  0  0
    6.3332    0.0214    0.4126 C   0  0  0  0  0  0  0  0  0  0  0  0
    7.2099   -0.4563   -0.5644 C   0  0  0  0  0  0  0  0  0  0  0  0
    6.8132   -1.4831   -1.4245 C   0  0  0  0  0  0  0  0  0  0  0  0
    5.5359   -2.0314   -1.3139 C   0  0  0  0  0  0  0  0  0  0  0  0
   -2.2329    0.6844   -0.3979 C   0  0  0  0  0  0  0  0  0  0  0  0
   -3.5346    1.1955   -0.4090 C   0  0  0  0  0  0  0  0  0  0  0  0
   -4.0393    2.0014   -1.3997 O   0  0  0  0  0  0  0  0  0  0  0  0
   -3.1336    2.4873   -2.3810 C   0  0  0  0  0  0  0  0  0  0  0  0
   -6.2272    1.5399    2.5546 H   0  0  0  0  0  0  0  0  0  0  0  0
   -7.5340    1.6556    1.3705 H   0  0  0  0  0  0  0  0  0  0  0  0
   -6.8109    0.0723    1.6760 H   0  0  0  0  0  0  0  0  0  0  0  0
   -4.6400   -0.2078    2.5176 H   0  0  0  0  0  0  0  0  0  0  0  0
   -2.3636   -1.0899    2.5172 H   0  0  0  0  0  0  0  0  0  0  0  0
   -0.2046   -0.1658    2.4950 H   0  0  0  0  0  0  0  0  0  0  0  0
   -0.6486   -1.6393   -1.1463 H   0  0  0  0  0  0  0  0  0  0  0  0
    4.3731   -0.1576    1.2919 H   0  0  0  0  0  0  0  0  0  0  0  0
    6.6467    0.8174    1.0829 H   0  0  0  0  0  0  0  0  0  0  0  0
    8.2057   -0.0292   -0.6532 H   0  0  0  0  0  0  0  0  0  0  0  0
    7.5016   -1.8560   -2.1783 H   0  0  0  0  0  0  0  0  0  0  0  0
    5.2271   -2.8360   -1.9738 H   0  0  0  0  0  0  0  0  0  0  0  0
   -1.5257    0.9198   -1.1866 H   0  0  0  0  0  0  0  0  0  0  0  0
   -2.7529    1.6700   -3.0019 H   0  0  0  0  0  0  0  0  0  0  0  0
   -2.3148    3.0514   -1.9220 H   0  0  0  0  0  0  0  0  0  0  0  0
   -3.6837    3.1717   -3.0339 H   0  0  0  0  0  0  0  0  0  0  0  0
  1  2  1  0
  2  3  1  0
  3  4  2  0
  4  5  1  0
  5  6  2  0
  6  7  1  0
  7  8  2  3
  7  9  1  0
  9 10  1  0
 10 11  1  0
 11 12  2  0
 11 13  1  0
 13 14  1  0
 14 15  2  0
 15 16  1  0
 16 17  2  0
 17 18  1  0
 18 19  2  0
  6 20  1  0
 20 21  2  0
 21 22  1  0
 22 23  1  0
 21  3  1  0
 19 14  1  0
  1 24  1  0
  1 25  1  0
  1 26  1  0
  4 27  1  0
  5 28  1  0
  8 29  1  0
  9 30  1  0
 15 31  1  0
 16 32  1  0
 17 33  1  0
 18 34  1  0
 19 35  1  0
 20 36  1  0
 23 37  1  0
 23 38  1  0
 23 39  1  0
M  END
$$$$
