
     RDKit          3D

 46 48  0  0  0  0  0  0  0  0999 V2000
   -5.5118    2.2840   -0.0554 C   0  0  0  0  0  0  0  0  0  0  0  0
   -5.0928    1.0276    0.6967 C   0  0  0  0  0  0  0  0  0  0  0  0
   -5.2440   -0.2081   -0.1884 C   0  0  0  0  0  0  0  0  0  0  0  0
   -4.9808   -1.7600    0.7340 S   0  0  0  0  0  0  0  0  0  0  0  0
   -3.2076   -1.8909    0.5927 C   0  0  0  0  0  0  0  0  0  0  0  0
   -2.5102   -1.0005    1.3400 N   0  0  0  0  0  0  0  0  0  0  0  0
   -1.1501   -1.0457    1.3249 C   0  0  0  0  0  0  0  0  0  0  0  0
   -0.4691   -0.0216    2.1915 C   0  0  0  0  0  0  0  0  0  0  0  0
   -0.4406   -1.9833    0.5648 C   0  0  0  0  0  0  0  0  0  0  0  0
    1.0122   -2.0301    0.5521 C   0  0  0  0  0  0  0  0  0  0  0  0
    1.7434   -3.1855    0.7274 C   0  0  0  0  0  0  0  0  0  0  0  0
    3.4140   -2.8292    0.6587 S   0  0  0  0  0  0  0  0  0  0  0  0
    3.0628   -1.1434    0.3893 C   0  0  0  0  0  0  0  0  0  0  0  0
    4.1319   -0.1934    0.2228 C   0  0  0  0  0  0  0  0  0  0  0  0
    5.3720   -0.4027    0.9156 C   0  0  0  0  0  0  0  0  0  0  0  0
    6.3849   -0.5573    1.4634 N   0  0  0  0  0  0  0  0  0  0  0  0
    3.9786    0.9009   -0.5616 C   0  0  0  0  0  0  0  0  0  0  0  0
    5.0664    1.9249   -0.8239 C   0  0  0  0  0  0  0  0  0  0  0  0
    4.5855    2.6497   -2.0738 C   0  0  0  0  0  0  0  0  0  0  0  0
    3.0765    2.6689   -1.9120 C   0  0  0  0  0  0  0  0  0  0  0  0
    2.7478    1.2870   -1.3567 C   0  0  0  0  0  0  0  0  0  0  0  0
    1.7642   -0.8897    0.3509 N   0  0  0  0  0  0  0  0  0  0  0  0
   -1.1803   -2.8918   -0.2060 C   0  0  0  0  0  0  0  0  0  0  0  0
   -2.5797   -2.8532   -0.1940 C   0  0  0  0  0  0  0  0  0  0  0  0
   -3.3087   -3.7859   -0.9976 C   0  0  0  0  0  0  0  0  0  0  0  0
   -3.8602   -4.5508   -1.6759 N   0  0  0  0  0  0  0  0  0  0  0  0
   -4.9257    2.4057   -0.9735 H   0  0  0  0  0  0  0  0  0  0  0  0
   -5.3576    3.1720    0.5655 H   0  0  0  0  0  0  0  0  0  0  0  0
   -6.5710    2.2391   -0.3292 H   0  0  0  0  0  0  0  0  0  0  0  0
   -5.7081    0.9343    1.5987 H   0  0  0  0  0  0  0  0  0  0  0  0
   -4.0516    1.1474    1.0156 H   0  0  0  0  0  0  0  0  0  0  0  0
   -6.2619   -0.2486   -0.5901 H   0  0  0  0  0  0  0  0  0  0  0  0
   -4.5653   -0.1628   -1.0479 H   0  0  0  0  0  0  0  0  0  0  0  0
    0.2556   -0.4982    2.8604 H   0  0  0  0  0  0  0  0  0  0  0  0
   -1.2005    0.5004    2.8207 H   0  0  0  0  0  0  0  0  0  0  0  0
    0.0316    0.7306    1.5735 H   0  0  0  0  0  0  0  0  0  0  0  0
    1.3949   -4.1951    0.8950 H   0  0  0  0  0  0  0  0  0  0  0  0
    6.0515    1.4762   -0.9951 H   0  0  0  0  0  0  0  0  0  0  0  0
    5.1276    2.6232    0.0185 H   0  0  0  0  0  0  0  0  0  0  0  0
    4.8637    2.0854   -2.9711 H   0  0  0  0  0  0  0  0  0  0  0  0
    5.0092    3.6559   -2.1584 H   0  0  0  0  0  0  0  0  0  0  0  0
    2.7820    3.4458   -1.1927 H   0  0  0  0  0  0  0  0  0  0  0  0
    2.5562    2.8705   -2.8555 H   0  0  0  0  0  0  0  0  0  0  0  0
    2.5959    0.5765   -2.1782 H   0  0  0  0  0  0  0  0  0  0  0  0
    1.8401    1.3475   -0.7493 H   0  0  0  0  0  0  0  0  0  0  0  0
   -0.6708   -3.6258   -0.8306 H   0  0  0  0  0  0  0  0  0  0  0  0
  1  2  1  0
  2  3  1  0
  3  4  1  0
  4  5  1  0
  5  6  2  0
  6  7  1  0
  7  8  1  0
  7  9  2  0
  9 10  1  0
 10 11  2  0
 11 12  1  0
 12 13  1  0
 13 14  1  0
 14 15  1  0
 15 16  3  0
 14 17  2  3
 17 18  1  0
 18 19  1  0
 19 20  1  0
 20 21  1  0
 13 22  2  0
  9 23  1  0
 23 24  2  0
 24 25  1  0
 25 26  3  0
 24  5  1  0
 22 10  1  0
 21 17  1  0
  1 27  1  0
  1 28  1  0
  1 29  1  0
  2 30  1  0
  2 31  1  0
  3 32  1  0
  3 33  1  0
  8 34  1  0
  8 35  1  0
  8 36  1  0
 11 37  1  0
 18 38  1  0
 18 39  1  0
 19 40  1  0
 19 41  1  0
 20 42  1  0
 20 43  1  0
 21 44  1  0
 21 45  1  0
 23 46  1  0
M  END
$$$$
