
     RDKit          3D

 39 41  0  0  0  0  0  0  0  0999 V2000
    1.4431   -2.3004    2.6588 O   0  0  0  0  0  0  0  0  0  0  0  0
    1.7806   -1.7819    1.6110 C   0  0  0  0  0  0  0  0  0  0  0  0
    3.0652   -1.7191    1.0905 N   0  0  0  0  0  0  0  0  0  0  0  0
    3.0537   -0.8075    0.0412 N   0  0  0  0  0  0  0  0  0  0  0  0
    1.7236   -0.5772   -0.2598 C   0  0  0  0  0  0  0  0  0  0  0  0
    1.3830    0.1521   -1.4771 C   0  0  0  0  0  0  0  0  0  0  0  0
    1.2917    1.5495   -1.4240 C   0  0  0  0  0  0  0  0  0  0  0  0
    0.9344    2.2795   -2.5597 C   0  0  0  0  0  0  0  0  0  0  0  0
    0.6679    1.6193   -3.7582 C   0  0  0  0  0  0  0  0  0  0  0  0
    0.7652    0.2301   -3.8256 C   0  0  0  0  0  0  0  0  0  0  0  0
    1.1283   -0.4960   -2.6938 C   0  0  0  0  0  0  0  0  0  0  0  0
    1.2011   -1.8544   -2.8418 O   0  0  0  0  0  0  0  0  0  0  0  0
    0.8749   -1.0944    0.6474 C   0  0  0  0  0  0  0  0  0  0  0  0
   -0.6177   -1.1379    0.8256 C   0  0  0  0  0  0  0  0  0  0  0  0
   -1.3629   -1.4324   -0.4828 C   0  0  0  0  0  0  0  0  0  0  0  0
   -2.7785   -1.8142   -0.1666 N   0  0  0  0  0  4  0  0  0  0  0  0
   -2.9624   -2.9370    0.3207 O   0  0  0  0  0  0  0  0  0  0  0  0
   -3.6621   -0.9950   -0.4469 O   0  0  0  0  0  1  0  0  0  0  0  0
   -1.0920    0.1031    1.5809 C   0  0  0  0  0  0  0  0  0  0  0  0
   -1.1096    0.0767    2.9870 C   0  0  0  0  0  0  0  0  0  0  0  0
   -1.5142    1.1925    3.7214 C   0  0  0  0  0  0  0  0  0  0  0  0
   -1.9027    2.3555    3.0637 C   0  0  0  0  0  0  0  0  0  0  0  0
   -1.8820    2.4037    1.6725 C   0  0  0  0  0  0  0  0  0  0  0  0
   -1.4757    1.2886    0.9351 C   0  0  0  0  0  0  0  0  0  0  0  0
    3.8412   -1.7308    1.7456 H   0  0  0  0  0  0  0  0  0  0  0  0
    3.6415   -1.0288   -0.7651 H   0  0  0  0  0  0  0  0  0  0  0  0
    1.4923    2.0785   -0.4933 H   0  0  0  0  0  0  0  0  0  0  0  0
    0.8627    3.3636   -2.5084 H   0  0  0  0  0  0  0  0  0  0  0  0
    0.3876    2.1870   -4.6424 H   0  0  0  0  0  0  0  0  0  0  0  0
    0.5618   -0.2850   -4.7610 H   0  0  0  0  0  0  0  0  0  0  0  0
    1.6440   -2.2425   -2.0685 H   0  0  0  0  0  0  0  0  0  0  0  0
   -0.8282   -1.9962    1.4815 H   0  0  0  0  0  0  0  0  0  0  0  0
   -1.4069   -0.5915   -1.1798 H   0  0  0  0  0  0  0  0  0  0  0  0
   -0.9395   -2.2971   -1.0067 H   0  0  0  0  0  0  0  0  0  0  0  0
   -0.8029   -0.8197    3.5261 H   0  0  0  0  0  0  0  0  0  0  0  0
   -1.5255    1.1508    4.8076 H   0  0  0  0  0  0  0  0  0  0  0  0
   -2.2219    3.2231    3.6349 H   0  0  0  0  0  0  0  0  0  0  0  0
   -2.1869    3.3117    1.1581 H   0  0  0  0  0  0  0  0  0  0  0  0
   -1.4721    1.3738   -0.1482 H   0  0  0  0  0  0  0  0  0  0  0  0
  1  2  2  0
  2  3  1  0
  3  4  1  0
  4  5  1  0
  5  6  1  0
  6  7  2  0
  7  8  1  0
  8  9  2  0
  9 10  1  0
 10 11  2  0
 11 12  1  0
  5 13  2  0
 13 14  1  0
 14 15  1  0
 15 16  1  0
 16 17  2  0
 16 18  1  0
 14 19  1  0
 19 20  2  0
 20 21  1  0
 21 22  2  0
 22 23  1  0
 23 24  2  0
 13  2  1  0
 24 19  1  0
 11  6  1  0
  3 25  1  0
  4 26  1  0
  7 27  1  0
  8 28  1  0
  9 29  1  0
 10 30  1  0
 12 31  1  0
 14 32  1  0
 15 33  1  0
 15 34  1  0
 20 35  1  0
 21 36  1  0
 22 37  1  0
 23 38  1  0
 24 39  1  0
M  CHG  2  16   1  18  -1
M  END
$$$$
