
     RDKit          3D

 52 53  0  0  0  0  0  0  0  0999 V2000
    5.2730   -0.6034   -1.1563 C   0  0  0  0  0  0  0  0  0  0  0  0
    4.9683    0.0078    0.2243 C   0  0  0  0  0  0  0  0  0  0  0  0
    5.7734   -0.7760    1.2847 C   0  0  0  0  0  0  0  0  0  0  0  0
    5.4970    1.4594    0.2342 C   0  0  0  0  0  0  0  0  0  0  0  0
    3.4329   -0.0169    0.5756 C   0  0  0  0  0  0  0  0  0  0  0  0
    2.8446   -1.4424    0.6825 C   0  0  0  0  0  0  0  0  0  0  0  0
    1.3700   -1.4278    1.0792 C   0  0  0  0  0  0  0  0  0  0  0  0
    0.5307   -0.5926    0.1154 C   0  0  0  0  0  0  0  0  0  0  0  0
   -0.8149   -0.5526    0.6360 O   0  0  0  0  0  0  0  0  0  0  0  0
   -1.8045   -0.3038   -0.2625 C   0  0  0  0  0  0  0  0  0  0  0  0
   -1.6526   -0.1142   -1.4615 O   0  0  0  0  0  0  0  0  0  0  0  0
   -3.1539   -0.2750    0.4549 C   0  0  0  0  0  0  0  0  0  0  0  0
   -4.4193   -0.1534   -0.4579 N   0  0  0  0  0  4  0  0  0  0  0  0
   -4.4933   -1.3449   -1.4102 C   0  0  0  0  0  0  0  0  0  0  0  0
   -4.4081    1.1698   -1.2600 C   0  0  0  0  0  0  0  0  0  0  0  0
   -5.5784    1.9709   -0.7155 C   0  0  0  0  0  0  0  0  0  0  0  0
   -6.5708    0.9177   -0.2771 C   0  0  0  0  0  0  0  0  0  0  0  0
   -5.6879   -0.1024    0.4105 C   0  0  0  0  0  0  0  0  0  0  0  0
    1.0902    0.8254    0.0175 C   0  0  0  0  0  0  0  0  0  0  0  0
    2.5637    0.8261   -0.3853 C   0  0  0  0  0  0  0  0  0  0  0  0
    4.7713   -0.0593   -1.9625 H   0  0  0  0  0  0  0  0  0  0  0  0
    6.3484   -0.5703   -1.3682 H   0  0  0  0  0  0  0  0  0  0  0  0
    4.9678   -1.6528   -1.2136 H   0  0  0  0  0  0  0  0  0  0  0  0
    5.5428   -0.4230    2.2959 H   0  0  0  0  0  0  0  0  0  0  0  0
    6.8524   -0.6563    1.1310 H   0  0  0  0  0  0  0  0  0  0  0  0
    5.5678   -1.8504    1.2427 H   0  0  0  0  0  0  0  0  0  0  0  0
    5.2480    1.9638    1.1744 H   0  0  0  0  0  0  0  0  0  0  0  0
    6.5877    1.4843    0.1248 H   0  0  0  0  0  0  0  0  0  0  0  0
    5.0854    2.0504   -0.5901 H   0  0  0  0  0  0  0  0  0  0  0  0
    3.3313    0.4395    1.5720 H   0  0  0  0  0  0  0  0  0  0  0  0
    3.3858   -2.0289    1.4314 H   0  0  0  0  0  0  0  0  0  0  0  0
    2.9447   -1.9679   -0.2740 H   0  0  0  0  0  0  0  0  0  0  0  0
    0.9816   -2.4532    1.1107 H   0  0  0  0  0  0  0  0  0  0  0  0
    1.2623   -1.0401    2.1007 H   0  0  0  0  0  0  0  0  0  0  0  0
    0.5381   -1.0785   -0.8691 H   0  0  0  0  0  0  0  0  0  0  0  0
   -3.1727    0.5916    1.1246 H   0  0  0  0  0  0  0  0  0  0  0  0
   -3.2822   -1.2020    1.0238 H   0  0  0  0  0  0  0  0  0  0  0  0
   -5.4445   -1.2966   -1.9490 H   0  0  0  0  0  0  0  0  0  0  0  0
   -3.6652   -1.2972   -2.1194 H   0  0  0  0  0  0  0  0  0  0  0  0
   -4.4412   -2.2616   -0.8158 H   0  0  0  0  0  0  0  0  0  0  0  0
   -3.4575    1.6901   -1.1167 H   0  0  0  0  0  0  0  0  0  0  0  0
   -4.5478    0.9295   -2.3192 H   0  0  0  0  0  0  0  0  0  0  0  0
   -5.9931    2.6529   -1.4634 H   0  0  0  0  0  0  0  0  0  0  0  0
   -5.2557    2.5705    0.1443 H   0  0  0  0  0  0  0  0  0  0  0  0
   -7.3368    1.3186    0.3925 H   0  0  0  0  0  0  0  0  0  0  0  0
   -7.0727    0.4748   -1.1451 H   0  0  0  0  0  0  0  0  0  0  0  0
   -6.1317   -1.1004    0.4772 H   0  0  0  0  0  0  0  0  0  0  0  0
   -5.4012    0.2415    1.4106 H   0  0  0  0  0  0  0  0  0  0  0  0
    0.9652    1.3410    0.9787 H   0  0  0  0  0  0  0  0  0  0  0  0
    0.5111    1.4099   -0.7070 H   0  0  0  0  0  0  0  0  0  0  0  0
    2.9042    1.8661   -0.4022 H   0  0  0  0  0  0  0  0  0  0  0  0
    2.6464    0.4422   -1.4085 H   0  0  0  0  0  0  0  0  0  0  0  0
  1  2  1  0
  2  3  1  0
  2  4  1  0
  2  5  1  0
  5  6  1  0
  6  7  1  0
  7  8  1  0
  8  9  1  0
  9 10  1  0
 10 11  2  0
 10 12  1  0
 12 13  1  0
 13 14  1  0
 13 15  1  0
 15 16  1  0
 16 17  1  0
 17 18  1  0
  8 19  1  0
 19 20  1  0
 20  5  1  0
 18 13  1  0
  1 21  1  0
  1 22  1  0
  1 23  1  0
  3 24  1  0
  3 25  1  0
  3 26  1  0
  4 27  1  0
  4 28  1  0
  4 29  1  0
  5 30  1  0
  6 31  1  0
  6 32  1  0
  7 33  1  0
  7 34  1  0
  8 35  1  0
 12 36  1  0
 12 37  1  0
 14 38  1  0
 14 39  1  0
 14 40  1  0
 15 41  1  0
 15 42  1  0
 16 43  1  0
 16 44  1  0
 17 45  1  0
 17 46  1  0
 18 47  1  0
 18 48  1  0
 19 49  1  0
 19 50  1  0
 20 51  1  0
 20 52  1  0
M  CHG  1  13   1
M  END
$$$$
