
     RDKit          3D

 37 39  0  0  0  0  0  0  0  0999 V2000
    3.1585   -1.8965   -0.7288 N   0  0  0  0  0  0  0  0  0  0  0  0
    4.2360   -1.4221   -0.0487 C   0  0  0  0  0  0  0  0  0  0  0  0
    5.3572   -1.8729   -0.2625 O   0  0  0  0  0  0  0  0  0  0  0  0
    3.9872   -0.2811    0.9324 C   0  0  0  0  0  0  0  0  0  0  0  0
    3.8330    1.0493    0.1955 C   0  0  0  0  0  0  0  0  0  0  0  0
    2.5234    1.1515   -0.5909 C   0  0  0  0  0  0  0  0  0  0  0  0
    1.4349    0.4052    0.0588 N   0  0  0  0  0  0  0  0  0  0  0  0
    0.1648    0.4919   -0.4574 C   0  0  0  0  0  0  0  0  0  0  0  0
   -0.9204    0.2429    0.2442 N   0  0  0  0  0  0  0  0  0  0  0  0
   -2.0759    0.3652   -0.5171 C   0  0  0  0  0  0  0  0  0  0  0  0
   -3.3888    0.1427    0.0844 C   0  0  0  0  0  0  0  0  0  0  0  0
   -3.5085    0.1620    1.4847 C   0  0  0  0  0  0  0  0  0  0  0  0
   -4.7441   -0.0453    2.1073 C   0  0  0  0  0  0  0  0  0  0  0  0
   -5.8820   -0.2796    1.3394 C   0  0  0  0  0  0  0  0  0  0  0  0
   -5.7816   -0.3094   -0.0493 C   0  0  0  0  0  0  0  0  0  0  0  0
   -4.5461   -0.1018   -0.6654 C   0  0  0  0  0  0  0  0  0  0  0  0
   -4.5085   -0.1597   -2.0055 F   0  0  0  0  0  0  0  0  0  0  0  0
   -1.8493    0.7267   -1.8272 C   0  0  0  0  0  0  0  0  0  0  0  0
   -0.1716    0.8836   -2.1139 S   0  0  0  0  0  0  0  0  0  0  0  0
    1.5495    0.2582    1.5127 C   0  0  0  0  0  0  0  0  0  0  0  0
    2.7979   -0.5555    1.8640 C   0  0  0  0  0  0  0  0  0  0  0  0
    3.2979   -2.6291   -1.4107 H   0  0  0  0  0  0  0  0  0  0  0  0
    2.2341   -1.4851   -0.6283 H   0  0  0  0  0  0  0  0  0  0  0  0
    4.8904   -0.2329    1.5560 H   0  0  0  0  0  0  0  0  0  0  0  0
    4.6772    1.2214   -0.4832 H   0  0  0  0  0  0  0  0  0  0  0  0
    3.8643    1.8609    0.9347 H   0  0  0  0  0  0  0  0  0  0  0  0
    2.2589    2.2114   -0.6962 H   0  0  0  0  0  0  0  0  0  0  0  0
    2.6950    0.7532   -1.5985 H   0  0  0  0  0  0  0  0  0  0  0  0
   -2.6312    0.3417    2.1045 H   0  0  0  0  0  0  0  0  0  0  0  0
   -4.8128   -0.0247    3.1924 H   0  0  0  0  0  0  0  0  0  0  0  0
   -6.8426   -0.4427    1.8215 H   0  0  0  0  0  0  0  0  0  0  0  0
   -6.6579   -0.4980   -0.6621 H   0  0  0  0  0  0  0  0  0  0  0  0
   -2.5567    0.9051   -2.6234 H   0  0  0  0  0  0  0  0  0  0  0  0
    1.6015    1.2518    1.9766 H   0  0  0  0  0  0  0  0  0  0  0  0
    0.6875   -0.2527    1.9588 H   0  0  0  0  0  0  0  0  0  0  0  0
    2.5498   -1.6243    1.8715 H   0  0  0  0  0  0  0  0  0  0  0  0
    3.0793   -0.3113    2.8963 H   0  0  0  0  0  0  0  0  0  0  0  0
  1  2  1  0
  2  3  2  0
  2  4  1  0
  4  5  1  0
  5  6  1  0
  6  7  1  0
  7  8  1  0
  8  9  2  0
  9 10  1  0
 10 11  1  0
 11 12  2  0
 12 13  1  0
 13 14  2  0
 14 15  1  0
 15 16  2  0
 16 17  1  0
 10 18  2  0
 18 19  1  0
  7 20  1  0
 20 21  1  0
 21  4  1  0
 19  8  1  0
 16 11  1  0
  1 22  1  0
  1 23  1  0
  4 24  1  0
  5 25  1  0
  5 26  1  0
  6 27  1  0
  6 28  1  0
 12 29  1  0
 13 30  1  0
 14 31  1  0
 15 32  1  0
 18 33  1  0
 20 34  1  0
 20 35  1  0
 21 36  1  0
 21 37  1  0
M  END
$$$$
