
     RDKit          3D

 52 53  0  0  0  0  0  0  0  0999 V2000
    6.6923    0.3919   -1.4104 C   0  0  0  0  0  0  0  0  0  0  0  0
    5.7599   -0.2879   -0.5782 O   0  0  0  0  0  0  0  0  0  0  0  0
    4.4332   -0.1373   -0.8783 C   0  0  0  0  0  0  0  0  0  0  0  0
    3.9227    0.4735   -2.0229 C   0  0  0  0  0  0  0  0  0  0  0  0
    2.5429    0.5457   -2.2156 C   0  0  0  0  0  0  0  0  0  0  0  0
    1.6729    0.0067   -1.2652 C   0  0  0  0  0  0  0  0  0  0  0  0
    2.1694   -0.6048   -0.1088 C   0  0  0  0  0  0  0  0  0  0  0  0
    1.2221   -1.1211    0.8020 N   0  0  0  0  0  0  0  0  0  0  0  0
    1.4688   -1.6564    2.0580 C   0  0  0  0  0  0  0  0  0  0  0  0
    2.5634   -1.7372    2.6130 O   0  0  0  0  0  0  0  0  0  0  0  0
    0.1917   -2.0960    2.7908 C   0  0  0  0  0  0  0  0  0  0  0  0
   -0.2355   -1.1076    3.7896 N   0  0  0  0  0  0  0  0  0  0  0  0
    0.6008   -0.9852    4.9734 C   0  0  0  0  0  0  0  0  0  0  0  0
   -1.0628   -0.0329    3.4985 C   0  0  0  0  0  0  0  0  0  0  0  0
   -1.1797    0.9632    4.2066 O   0  0  0  0  0  0  0  0  0  0  0  0
   -1.8251   -0.1289    2.2360 C   0  0  0  0  0  0  0  0  0  0  0  0
   -1.7003    0.8570    1.3370 C   0  0  0  0  0  0  0  0  0  0  0  0
   -2.3811    0.8428    0.0337 C   0  0  0  0  0  0  0  0  0  0  0  0
   -3.0569    2.0159   -0.3456 C   0  0  0  0  0  0  0  0  0  0  0  0
   -3.7112    2.1074   -1.5758 C   0  0  0  0  0  0  0  0  0  0  0  0
   -4.3245    3.3072   -1.8089 O   0  0  0  0  0  0  0  0  0  0  0  0
   -4.9395    3.4842   -3.0791 C   0  0  0  0  0  0  0  0  0  0  0  0
   -3.6857    1.0155   -2.4406 C   0  0  0  0  0  0  0  0  0  0  0  0
   -3.0017   -0.1568   -2.0849 C   0  0  0  0  0  0  0  0  0  0  0  0
   -2.3458   -0.2538   -0.8525 C   0  0  0  0  0  0  0  0  0  0  0  0
   -1.6171   -1.3506   -0.4549 O   0  0  0  0  0  0  0  0  0  0  0  0
   -1.7913   -2.5500   -1.2033 C   0  0  0  0  0  0  0  0  0  0  0  0
    3.5527   -0.6749    0.0710 C   0  0  0  0  0  0  0  0  0  0  0  0
    7.6931    0.2313   -0.9955 H   0  0  0  0  0  0  0  0  0  0  0  0
    6.5013    1.4727   -1.4183 H   0  0  0  0  0  0  0  0  0  0  0  0
    6.6851   -0.0134   -2.4270 H   0  0  0  0  0  0  0  0  0  0  0  0
    4.5701    0.8956   -2.7839 H   0  0  0  0  0  0  0  0  0  0  0  0
    2.1416    1.0237   -3.1057 H   0  0  0  0  0  0  0  0  0  0  0  0
    0.6032    0.0848   -1.4389 H   0  0  0  0  0  0  0  0  0  0  0  0
    0.2490   -1.0353    0.5151 H   0  0  0  0  0  0  0  0  0  0  0  0
   -0.6041   -2.3088    2.0729 H   0  0  0  0  0  0  0  0  0  0  0  0
    0.4009   -3.0425    3.3040 H   0  0  0  0  0  0  0  0  0  0  0  0
    0.0482   -0.4974    5.7824 H   0  0  0  0  0  0  0  0  0  0  0  0
    0.9125   -1.9769    5.3122 H   0  0  0  0  0  0  0  0  0  0  0  0
    1.4784   -0.3766    4.7335 H   0  0  0  0  0  0  0  0  0  0  0  0
   -2.4575   -0.9974    2.0907 H   0  0  0  0  0  0  0  0  0  0  0  0
   -1.0929    1.7345    1.5582 H   0  0  0  0  0  0  0  0  0  0  0  0
   -3.0830    2.8730    0.3247 H   0  0  0  0  0  0  0  0  0  0  0  0
   -5.7520    2.7647   -3.2291 H   0  0  0  0  0  0  0  0  0  0  0  0
   -5.3773    4.4894   -3.0984 H   0  0  0  0  0  0  0  0  0  0  0  0
   -4.2028    3.4235   -3.8868 H   0  0  0  0  0  0  0  0  0  0  0  0
   -4.1846    1.0423   -3.4045 H   0  0  0  0  0  0  0  0  0  0  0  0
   -2.9971   -0.9735   -2.7984 H   0  0  0  0  0  0  0  0  0  0  0  0
   -1.2625   -3.3498   -0.6736 H   0  0  0  0  0  0  0  0  0  0  0  0
   -1.3425   -2.4573   -2.1975 H   0  0  0  0  0  0  0  0  0  0  0  0
   -2.8493   -2.8326   -1.2645 H   0  0  0  0  0  0  0  0  0  0  0  0
    3.9879   -1.1512    0.9435 H   0  0  0  0  0  0  0  0  0  0  0  0
  1  2  1  0
  2  3  1  0
  3  4  2  0
  4  5  1  0
  5  6  2  0
  6  7  1  0
  7  8  1  0
  8  9  1  0
  9 10  2  0
  9 11  1  0
 11 12  1  0
 12 13  1  0
 12 14  1  0
 14 15  2  0
 14 16  1  0
 16 17  2  3
 17 18  1  0
 18 19  2  0
 19 20  1  0
 20 21  1  0
 21 22  1  0
 20 23  2  0
 23 24  1  0
 24 25  2  0
 25 26  1  0
 26 27  1  0
  7 28  2  0
 28  3  1  0
 25 18  1  0
  1 29  1  0
  1 30  1  0
  1 31  1  0
  4 32  1  0
  5 33  1  0
  6 34  1  0
  8 35  1  0
 11 36  1  0
 11 37  1  0
 13 38  1  0
 13 39  1  0
 13 40  1  0
 16 41  1  0
 17 42  1  0
 19 43  1  0
 22 44  1  0
 22 45  1  0
 22 46  1  0
 23 47  1  0
 24 48  1  0
 27 49  1  0
 27 50  1  0
 27 51  1  0
 28 52  1  0
M  END
$$$$
