
     RDKit          3D

 41 41  0  0  0  0  0  0  0  0999 V2000
    3.7159   -1.8209    2.8263 C   0  0  0  0  0  0  0  0  0  0  0  0
    3.3371   -0.3932    2.4644 C   0  0  0  0  0  0  0  0  0  0  0  0
    1.8854   -0.2420    2.0035 C   0  0  0  0  0  0  0  0  0  0  0  0
    1.5866   -0.9762    0.6932 C   0  0  0  0  0  0  0  0  0  0  0  0
    0.1599   -0.7218    0.1794 C   0  0  0  0  0  0  0  0  0  0  0  0
    0.0780    0.2407   -1.0375 C   0  0  0  0  0  0  0  0  0  0  0  0
    0.6128    1.6415   -0.7244 C   0  0  0  0  0  0  0  0  0  0  0  0
   -0.2882    2.3782    0.2514 C   0  0  0  0  0  0  0  0  0  0  0  0
    0.2885    3.1717    1.1019 N   0  0  0  0  0  0  0  0  0  0  0  0
   -0.6335    3.8108    1.9383 O   0  0  0  0  0  0  0  0  0  0  0  0
   -1.7591    2.1664    0.1089 C   0  0  0  0  0  0  0  0  0  0  0  0
   -2.2560    1.2714   -0.7653 C   0  0  0  0  0  0  0  0  0  0  0  0
   -3.7429    1.2050   -0.9967 C   0  0  0  0  0  0  0  0  0  0  0  0
   -1.3600    0.3762   -1.6151 C   0  0  0  0  0  0  0  0  0  0  0  0
   -1.9331   -1.0183   -1.9155 C   0  0  0  0  0  0  0  0  0  0  0  0
   -2.7405   -1.6291   -1.2291 O   0  0  0  0  0  0  0  0  0  0  0  0
   -1.3743   -1.5009   -3.0659 O   0  0  0  0  0  0  0  0  0  0  0  0
   -1.8188   -2.8106   -3.4223 C   0  0  0  0  0  0  0  0  0  0  0  0
    4.7290   -1.8469    3.2402 H   0  0  0  0  0  0  0  0  0  0  0  0
    3.7006   -2.4747    1.9494 H   0  0  0  0  0  0  0  0  0  0  0  0
    3.0328   -2.2308    3.5769 H   0  0  0  0  0  0  0  0  0  0  0  0
    3.4885    0.2409    3.3461 H   0  0  0  0  0  0  0  0  0  0  0  0
    4.0152   -0.0216    1.6873 H   0  0  0  0  0  0  0  0  0  0  0  0
    1.6796    0.8260    1.8865 H   0  0  0  0  0  0  0  0  0  0  0  0
    1.2123   -0.6057    2.7897 H   0  0  0  0  0  0  0  0  0  0  0  0
    2.3285   -0.7191   -0.0713 H   0  0  0  0  0  0  0  0  0  0  0  0
    1.6885   -2.0535    0.8726 H   0  0  0  0  0  0  0  0  0  0  0  0
   -0.4898   -0.3849    0.9952 H   0  0  0  0  0  0  0  0  0  0  0  0
   -0.2314   -1.6980   -0.1315 H   0  0  0  0  0  0  0  0  0  0  0  0
    0.7136   -0.1888   -1.8247 H   0  0  0  0  0  0  0  0  0  0  0  0
    0.6581    2.2416   -1.6424 H   0  0  0  0  0  0  0  0  0  0  0  0
    1.6333    1.5997   -0.3310 H   0  0  0  0  0  0  0  0  0  0  0  0
   -0.0550    4.3426    2.5160 H   0  0  0  0  0  0  0  0  0  0  0  0
   -2.4038    2.8040    0.7034 H   0  0  0  0  0  0  0  0  0  0  0  0
   -4.1718    0.3056   -0.5467 H   0  0  0  0  0  0  0  0  0  0  0  0
   -3.9632    1.2069   -2.0692 H   0  0  0  0  0  0  0  0  0  0  0  0
   -4.2621    2.0659   -0.5606 H   0  0  0  0  0  0  0  0  0  0  0  0
   -1.2969    0.8856   -2.5892 H   0  0  0  0  0  0  0  0  0  0  0  0
   -2.8993   -2.8146   -3.5969 H   0  0  0  0  0  0  0  0  0  0  0  0
   -1.5475   -3.5316   -2.6448 H   0  0  0  0  0  0  0  0  0  0  0  0
   -1.3171   -3.0975   -4.3505 H   0  0  0  0  0  0  0  0  0  0  0  0
  1  2  1  0
  2  3  1  0
  3  4  1  0
  4  5  1  0
  5  6  1  0
  6  7  1  0
  7  8  1  0
  8  9  2  3
  9 10  1  0
  8 11  1  0
 11 12  2  0
 12 13  1  0
 12 14  1  0
 14 15  1  0
 15 16  2  0
 15 17  1  0
 17 18  1  0
 14  6  1  0
  1 19  1  0
  1 20  1  0
  1 21  1  0
  2 22  1  0
  2 23  1  0
  3 24  1  0
  3 25  1  0
  4 26  1  0
  4 27  1  0
  5 28  1  0
  5 29  1  0
  6 30  1  0
  7 31  1  0
  7 32  1  0
 10 33  1  0
 11 34  1  0
 13 35  1  0
 13 36  1  0
 13 37  1  0
 14 38  1  0
 18 39  1  0
 18 40  1  0
 18 41  1  0
M  END
$$$$
