
     RDKit          3D

 36 37  0  0  0  0  0  0  0  0999 V2000
   -3.5568    0.2213    1.0951 C   0  0  0  0  0  0  0  0  0  0  0  0
   -2.3726   -0.7351    0.9223 C   0  0  0  0  0  0  0  0  0  0  0  0
   -2.4571   -1.5178   -0.3971 C   0  0  0  0  0  0  0  0  0  0  0  0
   -2.1379   -0.6430   -1.6190 C   0  0  0  0  0  0  0  0  0  0  0  0
   -2.1256   -1.4851   -2.8938 C   0  0  0  0  0  0  0  0  0  0  0  0
   -0.7941    0.0739   -1.4321 C   0  0  0  0  0  0  0  0  0  0  0  0
   -0.8256    0.8532   -0.1725 N   0  0  0  0  0  0  0  0  0  0  0  0
    0.3136    2.1073   -0.0163 S   0  0  0  0  0  6  0  0  0  0  0  0
    0.4116    2.8188   -1.2715 O   0  0  0  0  0  0  0  0  0  0  0  0
    0.0420    2.8043    1.2236 O   0  0  0  0  0  0  0  0  0  0  0  0
    1.9142    1.3673    0.2618 C   0  0  0  0  0  0  0  0  0  0  0  0
    2.6442    1.1676    1.4183 C   0  0  0  0  0  0  0  0  0  0  0  0
    3.9133    0.5163    1.1968 C   0  0  0  0  0  0  0  0  0  0  0  0
    4.8423    0.2085    2.2718 C   0  0  0  0  0  0  0  0  0  0  0  0
    4.6156    0.4149    3.4557 O   0  0  0  0  0  0  0  0  0  0  0  0
    6.0183   -0.3380    1.9081 O   0  0  0  0  0  0  0  0  0  0  0  0
    4.0615    0.2566   -0.1490 C   0  0  0  0  0  0  0  0  0  0  0  0
    5.3592   -0.5128   -0.9837 Cl  0  0  0  0  0  0  0  0  0  0  0  0
    2.7504    0.7715   -1.0996 S   0  0  0  0  0  0  0  0  0  0  0  0
   -1.0338    0.0081    1.0278 C   0  0  0  0  0  0  0  0  0  0  0  0
   -3.5697    1.0092    0.3359 H   0  0  0  0  0  0  0  0  0  0  0  0
   -4.5049   -0.3232    1.0330 H   0  0  0  0  0  0  0  0  0  0  0  0
   -3.5168    0.7066    2.0763 H   0  0  0  0  0  0  0  0  0  0  0  0
   -2.4241   -1.4584    1.7465 H   0  0  0  0  0  0  0  0  0  0  0  0
   -1.7430   -2.3512   -0.3533 H   0  0  0  0  0  0  0  0  0  0  0  0
   -3.4520   -1.9669   -0.5054 H   0  0  0  0  0  0  0  0  0  0  0  0
   -2.9266    0.1128   -1.7258 H   0  0  0  0  0  0  0  0  0  0  0  0
   -1.9306   -0.8586   -3.7706 H   0  0  0  0  0  0  0  0  0  0  0  0
   -1.3524   -2.2598   -2.8529 H   0  0  0  0  0  0  0  0  0  0  0  0
   -3.0920   -1.9782   -3.0424 H   0  0  0  0  0  0  0  0  0  0  0  0
    0.0233   -0.6551   -1.3989 H   0  0  0  0  0  0  0  0  0  0  0  0
   -0.6289    0.7368   -2.2877 H   0  0  0  0  0  0  0  0  0  0  0  0
    2.2875    1.4851    2.3938 H   0  0  0  0  0  0  0  0  0  0  0  0
    6.4936   -0.4577    2.7559 H   0  0  0  0  0  0  0  0  0  0  0  0
   -1.0331    0.6160    1.9386 H   0  0  0  0  0  0  0  0  0  0  0  0
   -0.2132   -0.7150    1.1089 H   0  0  0  0  0  0  0  0  0  0  0  0
  1  2  1  0
  2  3  1  0
  3  4  1  0
  4  5  1  0
  4  6  1  0
  6  7  1  0
  7  8  1  0
  8  9  2  0
  8 10  2  0
  8 11  1  0
 11 12  2  0
 12 13  1  0
 13 14  1  0
 14 15  2  0
 14 16  1  0
 13 17  2  0
 17 18  1  0
 17 19  1  0
  7 20  1  0
 20  2  1  0
 19 11  1  0
  1 21  1  0
  1 22  1  0
  1 23  1  0
  2 24  1  0
  3 25  1  0
  3 26  1  0
  4 27  1  0
  5 28  1  0
  5 29  1  0
  5 30  1  0
  6 31  1  0
  6 32  1  0
 12 33  1  0
 16 34  1  0
 20 35  1  0
 20 36  1  0
M  END
$$$$
