
     RDKit          3D

 56 60  0  0  0  0  0  0  0  0999 V2000
   -0.1879   -0.0375   -0.7528 C   0  0  0  0  0  0  0  0  0  0  0  0
   -0.5459    0.4900    0.4261 C   0  0  0  0  0  0  0  0  0  0  0  0
    0.3295    1.1502    1.4179 C   0  0  0  0  0  0  0  0  0  0  0  0
    1.6010    1.5831    1.3590 C   0  0  0  0  0  0  0  0  0  0  0  0
    2.5364    1.5689    0.2460 C   0  0  0  0  0  0  0  0  0  0  0  0
    2.3662    2.2508   -0.8939 C   0  0  0  0  0  0  0  0  0  0  0  0
    1.2894    3.0353   -1.2079 O   0  0  0  0  0  0  0  0  0  0  0  0
    3.2896    2.2233   -1.8743 N   0  0  0  0  0  0  0  0  0  0  0  0
    4.4805    1.5596   -1.8268 C   0  0  0  0  0  0  0  0  0  0  0  0
    5.2350    1.6920   -2.7907 O   0  0  0  0  0  0  0  0  0  0  0  0
    4.7357    0.8331   -0.6595 N   0  0  0  0  0  0  0  0  0  0  0  0
    5.9808    0.0994   -0.5487 C   0  0  0  0  0  0  0  0  0  0  0  0
    6.5795   -0.4980   -1.6732 C   0  0  0  0  0  0  0  0  0  0  0  0
    7.7815   -1.2110   -1.5718 C   0  0  0  0  0  0  0  0  0  0  0  0
    8.4095   -1.3388   -0.3392 C   0  0  0  0  0  0  0  0  0  0  0  0
    9.8838   -2.2145   -0.2114 Cl  0  0  0  0  0  0  0  0  0  0  0  0
    7.8448   -0.7593    0.7900 C   0  0  0  0  0  0  0  0  0  0  0  0
    6.6421   -0.0477    0.6838 C   0  0  0  0  0  0  0  0  0  0  0  0
    3.8249    0.8077    0.4064 C   0  0  0  0  0  0  0  0  0  0  0  0
    3.9750    0.1776    1.4568 O   0  0  0  0  0  0  0  0  0  0  0  0
   -0.4705    1.3662    2.6211 C   0  0  0  0  0  0  0  0  0  0  0  0
   -1.7247    0.9601    2.3459 C   0  0  0  0  0  0  0  0  0  0  0  0
   -2.8848    1.0564    3.2792 C   0  0  0  0  0  0  0  0  0  0  0  0
   -1.8213    0.4565    1.0299 N   0  0  0  0  0  0  0  0  0  0  0  0
   -2.9519   -0.0742    0.4692 C   0  0  0  0  0  0  0  0  0  0  0  0
   -3.8380    0.7923   -0.7311 S   0  0  0  0  0  0  0  0  0  0  0  0
   -4.9986   -0.4382   -0.8694 C   0  0  0  0  0  0  0  0  0  0  0  0
   -4.7369   -1.5146   -0.0451 C   0  0  0  0  0  0  0  0  0  0  0  0
   -3.5508   -1.2969    0.7322 C   0  0  0  0  0  0  0  0  0  0  0  0
   -3.0202   -2.2374    1.6765 C   0  0  0  0  0  0  0  0  0  0  0  0
   -2.6261   -3.0168    2.4412 N   0  0  0  0  0  0  0  0  0  0  0  0
   -5.6398   -2.7153   -0.0003 C   0  0  0  0  0  0  0  0  0  0  0  0
   -6.5865   -2.7657   -1.2100 C   0  0  0  0  0  0  0  0  0  0  0  0
   -7.2140   -1.3946   -1.4969 C   0  0  0  0  0  0  0  0  0  0  0  0
   -6.1469   -0.3397   -1.8267 C   0  0  0  0  0  0  0  0  0  0  0  0
    0.8277   -0.0385   -1.1212 H   0  0  0  0  0  0  0  0  0  0  0  0
   -0.9146   -0.5328   -1.3880 H   0  0  0  0  0  0  0  0  0  0  0  0
    2.0458    1.9996    2.2649 H   0  0  0  0  0  0  0  0  0  0  0  0
    0.6280    2.9676   -0.4961 H   0  0  0  0  0  0  0  0  0  0  0  0
    3.1165    2.7706   -2.7088 H   0  0  0  0  0  0  0  0  0  0  0  0
    6.1115   -0.4526   -2.6540 H   0  0  0  0  0  0  0  0  0  0  0  0
    8.2127   -1.6641   -2.4606 H   0  0  0  0  0  0  0  0  0  0  0  0
    8.3303   -0.8499    1.7581 H   0  0  0  0  0  0  0  0  0  0  0  0
    6.2575    0.4121    1.5912 H   0  0  0  0  0  0  0  0  0  0  0  0
   -0.1211    1.8007    3.5443 H   0  0  0  0  0  0  0  0  0  0  0  0
   -2.6067    1.5667    4.2076 H   0  0  0  0  0  0  0  0  0  0  0  0
   -3.2547    0.0631    3.5489 H   0  0  0  0  0  0  0  0  0  0  0  0
   -3.7023    1.6244    2.8237 H   0  0  0  0  0  0  0  0  0  0  0  0
   -5.0498   -3.6381    0.0335 H   0  0  0  0  0  0  0  0  0  0  0  0
   -6.2324   -2.6690    0.9219 H   0  0  0  0  0  0  0  0  0  0  0  0
   -7.3726   -3.5070   -1.0274 H   0  0  0  0  0  0  0  0  0  0  0  0
   -6.0317   -3.0985   -2.0967 H   0  0  0  0  0  0  0  0  0  0  0  0
   -7.7891   -1.0733   -0.6189 H   0  0  0  0  0  0  0  0  0  0  0  0
   -7.9204   -1.4724   -2.3310 H   0  0  0  0  0  0  0  0  0  0  0  0
   -5.7748   -0.5063   -2.8452 H   0  0  0  0  0  0  0  0  0  0  0  0
   -6.6001    0.6576   -1.7978 H   0  0  0  0  0  0  0  0  0  0  0  0
  1  2  2  0
  2  3  1  0
  3  4  2  3
  4  5  1  0
  5  6  2  0
  6  7  1  0
  6  8  1  0
  8  9  1  0
  9 10  2  0
  9 11  1  0
 11 12  1  0
 12 13  2  0
 13 14  1  0
 14 15  2  0
 15 16  1  0
 15 17  1  0
 17 18  2  0
 11 19  1  0
 19 20  2  0
  3 21  1  0
 21 22  2  0
 22 23  1  0
 22 24  1  0
 24 25  1  0
 25 26  1  0
 26 27  1  0
 27 28  2  0
 28 29  1  0
 29 30  1  0
 30 31  3  0
 28 32  1  0
 32 33  1  0
 33 34  1  0
 34 35  1  0
 24  2  1  0
 29 25  2  0
 19  5  1  0
 35 27  1  0
 18 12  1  0
  1 36  1  0
  1 37  1  0
  4 38  1  0
  7 39  1  0
  8 40  1  0
 13 41  1  0
 14 42  1  0
 17 43  1  0
 18 44  1  0
 21 45  1  0
 23 46  1  0
 23 47  1  0
 23 48  1  0
 32 49  1  0
 32 50  1  0
 33 51  1  0
 33 52  1  0
 34 53  1  0
 34 54  1  0
 35 55  1  0
 35 56  1  0
M  END
$$$$
