
     RDKit          3D

 40 43  0  0  0  0  0  0  0  0999 V2000
   -2.4597    3.2861    0.2504 C   0  0  0  0  0  0  0  0  0  0  0  0
   -1.6209    3.4731   -0.7800 C   0  0  0  0  0  0  0  0  0  0  0  0
   -1.1693    2.4746   -1.8207 C   0  0  0  0  0  0  0  0  0  0  0  0
   -1.6460    1.1186   -1.5454 N   0  0  0  0  0  0  0  0  0  0  0  0
   -1.0003    0.2333   -0.6912 C   0  0  0  0  0  0  0  0  0  0  0  0
    0.4797    0.7611    0.0932 S   0  0  0  0  0  0  0  0  0  0  0  0
    1.1073   -0.8197    0.7306 C   0  0  0  0  0  0  0  0  0  0  0  0
    2.4472   -0.5979    1.4006 C   0  0  0  0  0  0  0  0  0  0  0  0
    2.5280   -0.4553    2.7345 C   0  0  0  0  0  0  0  0  0  0  0  0
    3.8455   -0.2348    3.3669 C   0  0  0  0  0  0  0  0  0  0  0  0
    3.9255   -0.0965    4.5841 O   0  0  0  0  0  0  0  0  0  0  0  0
    4.8975   -0.2092    2.4866 N   0  0  0  0  0  0  0  0  0  0  0  0
    6.2161   -0.0211    2.8398 C   0  0  0  0  0  0  0  0  0  0  0  0
    7.0639   -0.0544    1.8049 C   0  0  0  0  0  0  0  0  0  0  0  0
    6.2270   -0.3302    0.2996 S   0  0  0  0  0  0  0  0  0  0  0  0
    4.6847   -0.3927    1.1394 C   0  0  0  0  0  0  0  0  0  0  0  0
    3.5476   -0.5869    0.5650 N   0  0  0  0  0  0  0  0  0  0  0  0
   -1.4284   -0.9571   -0.4231 N   0  0  0  0  0  0  0  0  0  0  0  0
   -2.6084   -1.3993   -1.0247 C   0  0  0  0  0  0  0  0  0  0  0  0
   -3.0815   -2.6791   -0.7229 C   0  0  0  0  0  0  0  0  0  0  0  0
   -4.2582   -3.1587   -1.3053 C   0  0  0  0  0  0  0  0  0  0  0  0
   -4.9721   -2.3593   -2.1975 C   0  0  0  0  0  0  0  0  0  0  0  0
   -4.5089   -1.0808   -2.5050 C   0  0  0  0  0  0  0  0  0  0  0  0
   -3.3299   -0.6104   -1.9132 C   0  0  0  0  0  0  0  0  0  0  0  0
   -2.8140    0.7372   -2.2054 C   0  0  0  0  0  0  0  0  0  0  0  0
   -3.4262    1.4424   -3.0055 O   0  0  0  0  0  0  0  0  0  0  0  0
   -2.6955    4.1052    0.9244 H   0  0  0  0  0  0  0  0  0  0  0  0
   -2.9380    2.3340    0.4524 H   0  0  0  0  0  0  0  0  0  0  0  0
   -1.1976    4.4691   -0.9077 H   0  0  0  0  0  0  0  0  0  0  0  0
   -1.5313    2.8154   -2.7977 H   0  0  0  0  0  0  0  0  0  0  0  0
   -0.0770    2.4843   -1.8870 H   0  0  0  0  0  0  0  0  0  0  0  0
    1.2195   -1.5381   -0.0891 H   0  0  0  0  0  0  0  0  0  0  0  0
    0.3899   -1.2367    1.4458 H   0  0  0  0  0  0  0  0  0  0  0  0
    1.6668   -0.4702    3.3904 H   0  0  0  0  0  0  0  0  0  0  0  0
    6.4779    0.1310    3.8795 H   0  0  0  0  0  0  0  0  0  0  0  0
    8.1366    0.0689    1.8649 H   0  0  0  0  0  0  0  0  0  0  0  0
   -2.5295   -3.3051   -0.0264 H   0  0  0  0  0  0  0  0  0  0  0  0
   -4.6166   -4.1562   -1.0597 H   0  0  0  0  0  0  0  0  0  0  0  0
   -5.8876   -2.7307   -2.6520 H   0  0  0  0  0  0  0  0  0  0  0  0
   -5.0637   -0.4537   -3.1999 H   0  0  0  0  0  0  0  0  0  0  0  0
  1  2  2  0
  2  3  1  0
  3  4  1  0
  4  5  1  0
  5  6  1  0
  6  7  1  0
  7  8  1  0
  8  9  2  0
  9 10  1  0
 10 11  2  0
 10 12  1  0
 12 13  1  0
 13 14  2  0
 14 15  1  0
 15 16  1  0
 16 17  2  0
  5 18  2  0
 18 19  1  0
 19 20  2  0
 20 21  1  0
 21 22  2  0
 22 23  1  0
 23 24  2  0
 24 25  1  0
 25 26  2  0
 25  4  1  0
 17  8  1  0
 24 19  1  0
 16 12  1  0
  1 27  1  0
  1 28  1  0
  2 29  1  0
  3 30  1  0
  3 31  1  0
  7 32  1  0
  7 33  1  0
  9 34  1  0
 13 35  1  0
 14 36  1  0
 20 37  1  0
 21 38  1  0
 22 39  1  0
 23 40  1  0
M  END
$$$$
