
     RDKit          3D

 54 55  0  0  0  0  0  0  0  0999 V2000
    0.8829    2.3216    1.3810 C   0  0  0  0  0  0  0  0  0  0  0  0
   -0.1616    1.6864    0.6538 O   0  0  0  0  0  0  0  0  0  0  0  0
    0.1881    1.0061   -0.4836 C   0  0  0  0  0  0  0  0  0  0  0  0
    1.4428    1.0777   -1.0980 C   0  0  0  0  0  0  0  0  0  0  0  0
    1.7299    0.3249   -2.2508 C   0  0  0  0  0  0  0  0  0  0  0  0
    3.1017    0.3868   -2.8855 C   0  0  0  0  0  0  0  0  0  0  0  0
    3.9950   -0.5866   -2.2671 N   0  0  0  0  0  0  0  0  0  0  0  0
    4.6844   -0.2899   -1.0890 C   0  0  0  0  0  0  0  0  0  0  0  0
    5.0333   -1.3448   -0.2312 C   0  0  0  0  0  0  0  0  0  0  0  0
    5.7663   -1.1253    0.9413 C   0  0  0  0  0  0  0  0  0  0  0  0
    6.1921    0.1637    1.2655 C   0  0  0  0  0  0  0  0  0  0  0  0
    6.9671    0.4559    2.4949 C   0  0  0  0  0  0  0  0  0  0  0  0
    7.3325    1.5578    2.8615 O   0  0  0  0  0  0  0  0  0  0  0  0
    7.2474   -0.6481    3.2103 O   0  0  0  0  0  0  0  0  0  0  0  0
    5.8927    1.2193    0.4005 C   0  0  0  0  0  0  0  0  0  0  0  0
    5.1605    0.9875   -0.7712 C   0  0  0  0  0  0  0  0  0  0  0  0
    0.7427   -0.5204   -2.7772 C   0  0  0  0  0  0  0  0  0  0  0  0
   -0.5164   -0.5893   -2.1788 C   0  0  0  0  0  0  0  0  0  0  0  0
   -1.8084   -1.7583   -2.9323 Br  0  0  0  0  0  0  0  0  0  0  0  0
   -0.8039    0.1901   -1.0524 C   0  0  0  0  0  0  0  0  0  0  0  0
   -2.0404    0.0859   -0.4599 O   0  0  0  0  0  0  0  0  0  0  0  0
   -2.8559    1.2140   -0.8029 C   0  0  0  0  0  0  0  0  0  0  0  0
   -4.3069    0.9882   -0.3714 C   0  0  0  0  0  0  0  0  0  0  0  0
   -5.2023    1.7629   -0.6965 O   0  0  0  0  0  0  0  0  0  0  0  0
   -4.4934   -0.1321    0.4103 N   0  0  0  0  0  0  0  0  0  0  0  0
   -5.7798   -0.6208    0.9183 C   0  0  0  0  0  0  0  0  0  0  0  0
   -5.5122   -1.8819    1.7598 C   0  0  0  0  0  0  0  0  0  0  0  0
   -6.7149   -0.9960   -0.2413 C   0  0  0  0  0  0  0  0  0  0  0  0
   -6.4508    0.4270    1.8204 C   0  0  0  0  0  0  0  0  0  0  0  0
    1.2919    3.1673    0.8182 H   0  0  0  0  0  0  0  0  0  0  0  0
    1.6685    1.6096    1.6549 H   0  0  0  0  0  0  0  0  0  0  0  0
    0.4533    2.7159    2.3072 H   0  0  0  0  0  0  0  0  0  0  0  0
    2.2267    1.7100   -0.6916 H   0  0  0  0  0  0  0  0  0  0  0  0
    3.4888    1.4108   -2.8738 H   0  0  0  0  0  0  0  0  0  0  0  0
    3.0108    0.1320   -3.9488 H   0  0  0  0  0  0  0  0  0  0  0  0
    3.5653   -1.5077   -2.2310 H   0  0  0  0  0  0  0  0  0  0  0  0
    4.7285   -2.3623   -0.4664 H   0  0  0  0  0  0  0  0  0  0  0  0
    6.0010   -1.9688    1.5857 H   0  0  0  0  0  0  0  0  0  0  0  0
    7.7572   -0.3092    3.9763 H   0  0  0  0  0  0  0  0  0  0  0  0
    6.2409    2.2259    0.6231 H   0  0  0  0  0  0  0  0  0  0  0  0
    4.9923    1.8306   -1.4340 H   0  0  0  0  0  0  0  0  0  0  0  0
    0.9598   -1.1264   -3.6546 H   0  0  0  0  0  0  0  0  0  0  0  0
   -2.5036    2.1159   -0.2909 H   0  0  0  0  0  0  0  0  0  0  0  0
   -2.8614    1.3708   -1.8888 H   0  0  0  0  0  0  0  0  0  0  0  0
   -3.6714   -0.7222    0.5154 H   0  0  0  0  0  0  0  0  0  0  0  0
   -4.8414   -1.6613    2.5986 H   0  0  0  0  0  0  0  0  0  0  0  0
   -5.0337   -2.6639    1.1584 H   0  0  0  0  0  0  0  0  0  0  0  0
   -6.4406   -2.2947    2.1703 H   0  0  0  0  0  0  0  0  0  0  0  0
   -6.9790   -0.1255   -0.8505 H   0  0  0  0  0  0  0  0  0  0  0  0
   -6.2420   -1.7274   -0.9065 H   0  0  0  0  0  0  0  0  0  0  0  0
   -7.6496   -1.4324    0.1292 H   0  0  0  0  0  0  0  0  0  0  0  0
   -5.7791    0.7370    2.6300 H   0  0  0  0  0  0  0  0  0  0  0  0
   -6.7308    1.3286    1.2656 H   0  0  0  0  0  0  0  0  0  0  0  0
   -7.3652    0.0286    2.2756 H   0  0  0  0  0  0  0  0  0  0  0  0
  1  2  1  0
  2  3  1  0
  3  4  2  0
  4  5  1  0
  5  6  1  0
  6  7  1  0
  7  8  1  0
  8  9  2  0
  9 10  1  0
 10 11  2  0
 11 12  1  0
 12 13  2  0
 12 14  1  0
 11 15  1  0
 15 16  2  0
  5 17  2  0
 17 18  1  0
 18 19  1  0
 18 20  2  0
 20 21  1  0
 21 22  1  0
 22 23  1  0
 23 24  2  0
 23 25  1  0
 25 26  1  0
 26 27  1  0
 26 28  1  0
 26 29  1  0
 20  3  1  0
 16  8  1  0
  1 30  1  0
  1 31  1  0
  1 32  1  0
  4 33  1  0
  6 34  1  0
  6 35  1  0
  7 36  1  0
  9 37  1  0
 10 38  1  0
 14 39  1  0
 15 40  1  0
 16 41  1  0
 17 42  1  0
 22 43  1  0
 22 44  1  0
 25 45  1  0
 27 46  1  0
 27 47  1  0
 27 48  1  0
 28 49  1  0
 28 50  1  0
 28 51  1  0
 29 52  1  0
 29 53  1  0
 29 54  1  0
M  END
$$$$
