
     RDKit          3D

 47 49  0  0  0  0  0  0  0  0999 V2000
    5.2969    0.0745    2.8016 C   0  0  0  0  0  0  0  0  0  0  0  0
    4.4140    0.1976    1.6931 O   0  0  0  0  0  0  0  0  0  0  0  0
    4.9871    0.4346    0.4630 C   0  0  0  0  0  0  0  0  0  0  0  0
    6.3576    0.5972    0.2372 C   0  0  0  0  0  0  0  0  0  0  0  0
    6.8314    0.8340   -1.0547 C   0  0  0  0  0  0  0  0  0  0  0  0
    5.9417    0.9063   -2.1233 C   0  0  0  0  0  0  0  0  0  0  0  0
    4.5715    0.7460   -1.9079 C   0  0  0  0  0  0  0  0  0  0  0  0
    4.0834    0.5175   -0.6196 C   0  0  0  0  0  0  0  0  0  0  0  0
    2.7127    0.3326   -0.3223 N   0  0  0  0  0  0  0  0  0  0  0  0
    1.6289    0.5493   -1.1373 C   0  0  0  0  0  0  0  0  0  0  0  0
    1.7003    1.0650   -2.2515 O   0  0  0  0  0  0  0  0  0  0  0  0
    0.3940    0.1432   -0.6074 N   0  0  0  0  0  0  0  0  0  0  0  0
    0.2020   -0.3688    0.7520 C   0  0  0  0  0  0  0  0  0  0  0  0
   -1.0272   -1.2605    0.8892 C   0  0  0  0  0  0  0  0  0  0  0  0
   -2.2798   -0.5919    0.3116 C   0  0  0  0  0  0  0  0  0  0  0  0
   -3.4923   -1.5130    0.4355 C   0  0  0  0  0  0  0  0  0  0  0  0
   -3.3674   -2.7158    0.6642 O   0  0  0  0  0  0  0  0  0  0  0  0
   -4.8751   -0.9570    0.2732 C   0  0  0  0  0  0  0  0  0  0  0  0
   -5.9478   -1.8640    0.2218 C   0  0  0  0  0  0  0  0  0  0  0  0
   -7.2595   -1.4069    0.0752 C   0  0  0  0  0  0  0  0  0  0  0  0
   -7.5005   -0.0429   -0.0176 C   0  0  0  0  0  0  0  0  0  0  0  0
   -8.7564    0.3991   -0.1577 F   0  0  0  0  0  0  0  0  0  0  0  0
   -6.4547    0.8712    0.0347 C   0  0  0  0  0  0  0  0  0  0  0  0
   -5.1397    0.4171    0.1818 C   0  0  0  0  0  0  0  0  0  0  0  0
   -2.0089   -0.2497   -1.1531 C   0  0  0  0  0  0  0  0  0  0  0  0
   -0.7946    0.6615   -1.2837 C   0  0  0  0  0  0  0  0  0  0  0  0
    5.9833   -0.7682    2.6690 H   0  0  0  0  0  0  0  0  0  0  0  0
    4.6903   -0.1281    3.6895 H   0  0  0  0  0  0  0  0  0  0  0  0
    5.8415    1.0079    2.9775 H   0  0  0  0  0  0  0  0  0  0  0  0
    7.0837    0.5464    1.0410 H   0  0  0  0  0  0  0  0  0  0  0  0
    7.8972    0.9599   -1.2287 H   0  0  0  0  0  0  0  0  0  0  0  0
    6.3105    1.0855   -3.1302 H   0  0  0  0  0  0  0  0  0  0  0  0
    3.9087    0.7949   -2.7661 H   0  0  0  0  0  0  0  0  0  0  0  0
    2.5504    0.2014    0.6640 H   0  0  0  0  0  0  0  0  0  0  0  0
    1.0704   -0.9540    1.0675 H   0  0  0  0  0  0  0  0  0  0  0  0
    0.1231    0.4998    1.4163 H   0  0  0  0  0  0  0  0  0  0  0  0
   -1.1823   -1.5119    1.9455 H   0  0  0  0  0  0  0  0  0  0  0  0
   -0.8361   -2.2082    0.3678 H   0  0  0  0  0  0  0  0  0  0  0  0
   -2.4650    0.3149    0.8987 H   0  0  0  0  0  0  0  0  0  0  0  0
   -5.7659   -2.9355    0.2950 H   0  0  0  0  0  0  0  0  0  0  0  0
   -8.0888   -2.1062    0.0341 H   0  0  0  0  0  0  0  0  0  0  0  0
   -6.6705    1.9332   -0.0381 H   0  0  0  0  0  0  0  0  0  0  0  0
   -4.3497    1.1598    0.2234 H   0  0  0  0  0  0  0  0  0  0  0  0
   -1.8366   -1.1728   -1.7227 H   0  0  0  0  0  0  0  0  0  0  0  0
   -2.8752    0.2373   -1.6137 H   0  0  0  0  0  0  0  0  0  0  0  0
   -0.5958    0.8289   -2.3477 H   0  0  0  0  0  0  0  0  0  0  0  0
   -1.0107    1.6417   -0.8405 H   0  0  0  0  0  0  0  0  0  0  0  0
  1  2  1  0
  2  3  1  0
  3  4  2  0
  4  5  1  0
  5  6  2  0
  6  7  1  0
  7  8  2  0
  8  9  1  0
  9 10  1  0
 10 11  2  0
 10 12  1  0
 12 13  1  0
 13 14  1  0
 14 15  1  0
 15 16  1  0
 16 17  2  0
 16 18  1  0
 18 19  2  0
 19 20  1  0
 20 21  2  0
 21 22  1  0
 21 23  1  0
 23 24  2  0
 15 25  1  0
 25 26  1  0
  8  3  1  0
 26 12  1  0
 24 18  1  0
  1 27  1  0
  1 28  1  0
  1 29  1  0
  4 30  1  0
  5 31  1  0
  6 32  1  0
  7 33  1  0
  9 34  1  0
 13 35  1  0
 13 36  1  0
 14 37  1  0
 14 38  1  0
 15 39  1  0
 19 40  1  0
 20 41  1  0
 23 42  1  0
 24 43  1  0
 25 44  1  0
 25 45  1  0
 26 46  1  0
 26 47  1  0
M  END
$$$$
