
     RDKit          3D

 50 53  0  0  0  0  0  0  0  0999 V2000
   -4.5091   -4.4722   -1.7997 C   0  0  0  0  0  0  0  0  0  0  0  0
   -3.7445   -3.4058   -2.3468 O   0  0  0  0  0  0  0  0  0  0  0  0
   -3.0445   -2.6298   -1.4652 C   0  0  0  0  0  0  0  0  0  0  0  0
   -2.2604   -1.6375   -2.0548 C   0  0  0  0  0  0  0  0  0  0  0  0
   -1.4939   -0.7721   -1.2705 C   0  0  0  0  0  0  0  0  0  0  0  0
   -1.4932   -0.8863    0.1270 C   0  0  0  0  0  0  0  0  0  0  0  0
   -0.6940    0.0557    1.0155 C   0  0  0  0  0  0  0  0  0  0  0  0
   -1.4335    1.3804    1.2127 C   0  0  0  0  0  0  0  0  0  0  0  0
   -0.5400    2.3080    0.4363 C   0  0  0  0  0  0  0  0  0  0  0  0
   -0.9141    3.7184    0.1785 C   0  0  0  0  0  0  0  0  0  0  0  0
   -0.0693    4.5106   -0.6092 C   0  0  0  0  0  0  0  0  0  0  0  0
   -0.3950    5.8427   -0.8707 C   0  0  0  0  0  0  0  0  0  0  0  0
   -1.5646    6.3897   -0.3463 C   0  0  0  0  0  0  0  0  0  0  0  0
   -2.4091    5.6068    0.4400 C   0  0  0  0  0  0  0  0  0  0  0  0
   -2.0867    4.2728    0.7041 C   0  0  0  0  0  0  0  0  0  0  0  0
    0.5831    1.7879    0.0425 N   0  0  0  0  0  0  0  0  0  0  0  0
    0.5792    0.4769    0.4260 N   0  0  0  0  0  0  0  0  0  0  0  0
    1.7171   -0.3133    0.2755 C   0  0  0  0  0  0  0  0  0  0  0  0
    2.8769    0.2077   -0.3303 C   0  0  0  0  0  0  0  0  0  0  0  0
    4.0373   -0.5559   -0.4957 C   0  0  0  0  0  0  0  0  0  0  0  0
    4.0565   -1.8708   -0.0397 C   0  0  0  0  0  0  0  0  0  0  0  0
    5.5193   -2.8502   -0.2312 S   0  0  0  0  0  6  0  0  0  0  0  0
    6.3397   -2.5036    1.2003 N   0  0  0  0  0  0  0  0  0  0  0  0
    6.3235   -2.2803   -1.2875 O   0  0  0  0  0  0  0  0  0  0  0  0
    5.1506   -4.2455   -0.2005 O   0  0  0  0  0  0  0  0  0  0  0  0
    2.9247   -2.4283    0.5519 C   0  0  0  0  0  0  0  0  0  0  0  0
    1.7708   -1.6496    0.7068 C   0  0  0  0  0  0  0  0  0  0  0  0
   -2.2924   -1.8812    0.7131 C   0  0  0  0  0  0  0  0  0  0  0  0
   -3.0591   -2.7474   -0.0762 C   0  0  0  0  0  0  0  0  0  0  0  0
   -4.9780   -5.0081   -2.6306 H   0  0  0  0  0  0  0  0  0  0  0  0
   -3.8711   -5.1823   -1.2632 H   0  0  0  0  0  0  0  0  0  0  0  0
   -5.3086   -4.0929   -1.1549 H   0  0  0  0  0  0  0  0  0  0  0  0
   -2.2407   -1.5381   -3.1376 H   0  0  0  0  0  0  0  0  0  0  0  0
   -0.8876   -0.0128   -1.7626 H   0  0  0  0  0  0  0  0  0  0  0  0
   -0.5227   -0.4111    1.9940 H   0  0  0  0  0  0  0  0  0  0  0  0
   -2.4590    1.3828    0.8337 H   0  0  0  0  0  0  0  0  0  0  0  0
   -1.4228    1.6824    2.2655 H   0  0  0  0  0  0  0  0  0  0  0  0
    0.8461    4.0950   -1.0256 H   0  0  0  0  0  0  0  0  0  0  0  0
    0.2646    6.4514   -1.4843 H   0  0  0  0  0  0  0  0  0  0  0  0
   -1.8179    7.4271   -0.5509 H   0  0  0  0  0  0  0  0  0  0  0  0
   -3.3207    6.0370    0.8480 H   0  0  0  0  0  0  0  0  0  0  0  0
   -2.7635    3.6913    1.3223 H   0  0  0  0  0  0  0  0  0  0  0  0
    2.8751    1.2346   -0.6922 H   0  0  0  0  0  0  0  0  0  0  0  0
    4.9041   -0.1145   -0.9814 H   0  0  0  0  0  0  0  0  0  0  0  0
    5.7733   -1.9774    1.8649 H   0  0  0  0  0  0  0  0  0  0  0  0
    7.2058   -2.0144    0.9685 H   0  0  0  0  0  0  0  0  0  0  0  0
    2.9242   -3.4629    0.8890 H   0  0  0  0  0  0  0  0  0  0  0  0
    0.9068   -2.1206    1.1663 H   0  0  0  0  0  0  0  0  0  0  0  0
   -2.3256   -1.9942    1.7949 H   0  0  0  0  0  0  0  0  0  0  0  0
   -3.6570   -3.5007    0.4258 H   0  0  0  0  0  0  0  0  0  0  0  0
  1  2  1  0
  2  3  1  0
  3  4  2  0
  4  5  1  0
  5  6  2  0
  6  7  1  0
  7  8  1  0
  8  9  1  0
  9 10  1  0
 10 11  2  0
 11 12  1  0
 12 13  2  0
 13 14  1  0
 14 15  2  0
  9 16  2  0
 16 17  1  0
 17 18  1  0
 18 19  2  0
 19 20  1  0
 20 21  2  0
 21 22  1  0
 22 23  1  0
 22 24  2  0
 22 25  2  0
 21 26  1  0
 26 27  2  0
  6 28  1  0
 28 29  2  0
 29  3  1  0
 17  7  1  0
 27 18  1  0
 15 10  1  0
  1 30  1  0
  1 31  1  0
  1 32  1  0
  4 33  1  0
  5 34  1  0
  7 35  1  0
  8 36  1  0
  8 37  1  0
 11 38  1  0
 12 39  1  0
 13 40  1  0
 14 41  1  0
 15 42  1  0
 19 43  1  0
 20 44  1  0
 23 45  1  0
 23 46  1  0
 26 47  1  0
 27 48  1  0
 28 49  1  0
 29 50  1  0
M  END
$$$$
