
     RDKit          3D

 51 53  0  0  0  0  0  0  0  0999 V2000
   -2.5925    5.0551   -1.1577 C   0  0  0  0  0  0  0  0  0  0  0  0
   -1.1465    4.6408   -0.9217 C   0  0  0  0  0  0  0  0  0  0  0  0
   -0.4034    4.2328   -2.1956 C   0  0  0  0  0  0  0  0  0  0  0  0
   -1.0820    2.7473   -3.0172 S   0  0  0  0  0  0  0  0  0  0  0  0
   -0.5175    1.4433   -1.9310 C   0  0  0  0  0  0  0  0  0  0  0  0
   -1.0302    0.1761   -2.1075 C   0  0  0  0  0  0  0  0  0  0  0  0
   -0.5824   -0.8188   -1.2618 C   0  0  0  0  0  0  0  0  0  0  0  0
   -1.0397   -2.1263   -1.3835 N   0  0  0  0  0  0  0  0  0  0  0  0
   -0.3930   -3.1339   -0.5258 C   0  0  0  0  0  0  0  0  0  0  0  0
   -0.8801   -4.5448   -0.9240 C   0  0  0  0  0  0  0  0  0  0  0  0
   -2.3371   -4.7509   -0.7571 N   0  0  0  0  0  0  0  0  0  0  0  0
   -2.8333   -5.7219   -1.7280 C   0  0  0  0  0  0  0  0  0  0  0  0
   -3.0763   -3.4745   -0.8252 C   0  0  0  0  0  0  0  0  0  0  0  0
   -2.4532   -2.3752   -1.7193 C   0  0  0  0  0  0  0  0  0  0  0  0
    0.3453   -0.5437   -0.3296 N   0  0  0  0  0  0  0  0  0  0  0  0
    0.7996    0.7186   -0.2238 C   0  0  0  0  0  0  0  0  0  0  0  0
    1.8066    1.0032    0.8196 C   0  0  0  0  0  0  0  0  0  0  0  0
    2.2657   -0.0001    1.6943 C   0  0  0  0  0  0  0  0  0  0  0  0
    3.2204    0.2631    2.6879 C   0  0  0  0  0  0  0  0  0  0  0  0
    3.7444    1.5447    2.8330 C   0  0  0  0  0  0  0  0  0  0  0  0
    4.6759    1.9364    3.7535 O   0  0  0  0  0  0  0  0  0  0  0  0
    5.1607    0.9371    4.6413 C   0  0  0  0  0  0  0  0  0  0  0  0
    3.3045    2.5546    1.9786 C   0  0  0  0  0  0  0  0  0  0  0  0
    2.3514    2.2890    0.9881 C   0  0  0  0  0  0  0  0  0  0  0  0
    0.3958    1.7360   -0.9976 N   0  0  0  0  0  0  0  0  0  0  0  0
   -2.6558    5.8521   -1.9056 H   0  0  0  0  0  0  0  0  0  0  0  0
   -3.2056    4.2139   -1.4939 H   0  0  0  0  0  0  0  0  0  0  0  0
   -3.0300    5.4311   -0.2271 H   0  0  0  0  0  0  0  0  0  0  0  0
   -0.6165    5.4936   -0.4798 H   0  0  0  0  0  0  0  0  0  0  0  0
   -1.1157    3.8404   -0.1743 H   0  0  0  0  0  0  0  0  0  0  0  0
    0.6617    4.0869   -1.9874 H   0  0  0  0  0  0  0  0  0  0  0  0
   -0.4634    5.0514   -2.9218 H   0  0  0  0  0  0  0  0  0  0  0  0
   -1.7406   -0.0286   -2.8968 H   0  0  0  0  0  0  0  0  0  0  0  0
   -0.6156   -2.9446    0.5325 H   0  0  0  0  0  0  0  0  0  0  0  0
    0.6961   -3.1026   -0.6570 H   0  0  0  0  0  0  0  0  0  0  0  0
   -0.3530   -5.2930   -0.3212 H   0  0  0  0  0  0  0  0  0  0  0  0
   -0.5877   -4.7093   -1.9706 H   0  0  0  0  0  0  0  0  0  0  0  0
   -3.8871   -5.9523   -1.5360 H   0  0  0  0  0  0  0  0  0  0  0  0
   -2.7423   -5.3615   -2.7590 H   0  0  0  0  0  0  0  0  0  0  0  0
   -2.2854   -6.6669   -1.6414 H   0  0  0  0  0  0  0  0  0  0  0  0
   -3.1254   -3.0828    0.1999 H   0  0  0  0  0  0  0  0  0  0  0  0
   -4.1205   -3.6391   -1.1194 H   0  0  0  0  0  0  0  0  0  0  0  0
   -3.0660   -1.4736   -1.5991 H   0  0  0  0  0  0  0  0  0  0  0  0
   -2.5125   -2.6786   -2.7712 H   0  0  0  0  0  0  0  0  0  0  0  0
    1.8753   -1.0135    1.6073 H   0  0  0  0  0  0  0  0  0  0  0  0
    3.5272   -0.5583    3.3265 H   0  0  0  0  0  0  0  0  0  0  0  0
    5.6676    0.1350    4.0945 H   0  0  0  0  0  0  0  0  0  0  0  0
    4.3544    0.5412    5.2677 H   0  0  0  0  0  0  0  0  0  0  0  0
    5.8964    1.4055    5.3023 H   0  0  0  0  0  0  0  0  0  0  0  0
    3.7058    3.5600    2.0808 H   0  0  0  0  0  0  0  0  0  0  0  0
    2.0355    3.1055    0.3409 H   0  0  0  0  0  0  0  0  0  0  0  0
  1  2  1  0
  2  3  1  0
  3  4  1  0
  4  5  1  0
  5  6  2  0
  6  7  1  0
  7  8  1  0
  8  9  1  0
  9 10  1  0
 10 11  1  0
 11 12  1  0
 11 13  1  0
 13 14  1  0
  7 15  2  0
 15 16  1  0
 16 17  1  0
 17 18  2  0
 18 19  1  0
 19 20  2  0
 20 21  1  0
 21 22  1  0
 20 23  1  0
 23 24  2  0
 16 25  2  0
 25  5  1  0
 14  8  1  0
 24 17  1  0
  1 26  1  0
  1 27  1  0
  1 28  1  0
  2 29  1  0
  2 30  1  0
  3 31  1  0
  3 32  1  0
  6 33  1  0
  9 34  1  0
  9 35  1  0
 10 36  1  0
 10 37  1  0
 12 38  1  0
 12 39  1  0
 12 40  1  0
 13 41  1  0
 13 42  1  0
 14 43  1  0
 14 44  1  0
 18 45  1  0
 19 46  1  0
 22 47  1  0
 22 48  1  0
 22 49  1  0
 23 50  1  0
 24 51  1  0
M  END
$$$$
