
     RDKit          3D

 41 42  0  0  0  0  0  0  0  0999 V2000
   -4.2109    0.3866    0.4456 C   0  0  0  0  0  0  0  0  0  0  0  0
   -3.1192   -0.0795   -0.3377 O   0  0  0  0  0  0  0  0  0  0  0  0
   -3.3127   -1.2270   -1.0643 C   0  0  0  0  0  0  0  0  0  0  0  0
   -4.4142   -2.0790   -0.9237 C   0  0  0  0  0  0  0  0  0  0  0  0
   -4.5086   -3.2468   -1.6867 C   0  0  0  0  0  0  0  0  0  0  0  0
   -3.5027   -3.5764   -2.5909 C   0  0  0  0  0  0  0  0  0  0  0  0
   -2.4016   -2.7348   -2.7387 C   0  0  0  0  0  0  0  0  0  0  0  0
   -2.2994   -1.5500   -1.9877 C   0  0  0  0  0  0  0  0  0  0  0  0
   -1.0865   -0.6713   -2.1665 C   0  0  0  0  0  0  0  0  0  0  0  0
   -0.1040   -0.9350   -1.1401 N   0  0  0  0  0  0  0  0  0  0  0  0
    1.1872   -0.4591   -1.2685 C   0  0  0  0  0  0  0  0  0  0  0  0
    1.5989    0.0741   -2.2965 O   0  0  0  0  0  0  0  0  0  0  0  0
    2.0471   -0.6933   -0.0192 C   0  0  0  0  0  0  0  0  0  0  0  0
    3.2919   -0.0024   -0.0272 O   0  0  0  0  0  0  0  0  0  0  0  0
    3.1695    1.2525    0.5144 C   0  0  0  0  0  0  0  0  0  0  0  0
    3.1654    2.3329   -0.3701 C   0  0  0  0  0  0  0  0  0  0  0  0
    3.0904    3.6330    0.1241 C   0  0  0  0  0  0  0  0  0  0  0  0
    3.0345    3.8487    1.5006 C   0  0  0  0  0  0  0  0  0  0  0  0
    3.0600    2.7660    2.3874 C   0  0  0  0  0  0  0  0  0  0  0  0
    3.1413    1.4564    1.9026 C   0  0  0  0  0  0  0  0  0  0  0  0
    3.1671    0.3356    2.6906 O   0  0  0  0  0  0  0  0  0  0  0  0
    3.5865    0.5242    4.0378 C   0  0  0  0  0  0  0  0  0  0  0  0
   -3.9240    1.3513    0.8778 H   0  0  0  0  0  0  0  0  0  0  0  0
   -4.4196   -0.2995    1.2737 H   0  0  0  0  0  0  0  0  0  0  0  0
   -5.1008    0.5494   -0.1720 H   0  0  0  0  0  0  0  0  0  0  0  0
   -5.2131   -1.8704   -0.2201 H   0  0  0  0  0  0  0  0  0  0  0  0
   -5.3667   -3.9045   -1.5676 H   0  0  0  0  0  0  0  0  0  0  0  0
   -3.5725   -4.4891   -3.1784 H   0  0  0  0  0  0  0  0  0  0  0  0
   -1.6159   -3.0066   -3.4419 H   0  0  0  0  0  0  0  0  0  0  0  0
   -0.6327   -0.8328   -3.1514 H   0  0  0  0  0  0  0  0  0  0  0  0
   -1.3580    0.3901   -2.1231 H   0  0  0  0  0  0  0  0  0  0  0  0
   -0.4633   -1.1034   -0.2097 H   0  0  0  0  0  0  0  0  0  0  0  0
    2.2818   -1.7637    0.0021 H   0  0  0  0  0  0  0  0  0  0  0  0
    1.4538   -0.4790    0.8785 H   0  0  0  0  0  0  0  0  0  0  0  0
    3.2109    2.1547   -1.4423 H   0  0  0  0  0  0  0  0  0  0  0  0
    3.0760    4.4744   -0.5642 H   0  0  0  0  0  0  0  0  0  0  0  0
    2.9718    4.8637    1.8863 H   0  0  0  0  0  0  0  0  0  0  0  0
    3.0049    2.9775    3.4497 H   0  0  0  0  0  0  0  0  0  0  0  0
    3.7418   -0.4643    4.4808 H   0  0  0  0  0  0  0  0  0  0  0  0
    2.8084    1.0286    4.6213 H   0  0  0  0  0  0  0  0  0  0  0  0
    4.5371    1.0681    4.0927 H   0  0  0  0  0  0  0  0  0  0  0  0
  1  2  1  0
  2  3  1  0
  3  4  2  0
  4  5  1  0
  5  6  2  0
  6  7  1  0
  7  8  2  0
  8  9  1  0
  9 10  1  0
 10 11  1  0
 11 12  2  0
 11 13  1  0
 13 14  1  0
 14 15  1  0
 15 16  2  0
 16 17  1  0
 17 18  2  0
 18 19  1  0
 19 20  2  0
 20 21  1  0
 21 22  1  0
  8  3  1  0
 20 15  1  0
  1 23  1  0
  1 24  1  0
  1 25  1  0
  4 26  1  0
  5 27  1  0
  6 28  1  0
  7 29  1  0
  9 30  1  0
  9 31  1  0
 10 32  1  0
 13 33  1  0
 13 34  1  0
 16 35  1  0
 17 36  1  0
 18 37  1  0
 19 38  1  0
 22 39  1  0
 22 40  1  0
 22 41  1  0
M  END
$$$$
