
     RDKit          3D

 38 40  0  0  0  0  0  0  0  0999 V2000
    1.7694    1.3390    1.2571 O   0  0  0  0  0  0  0  0  0  0  0  0
    2.2287    0.4277    0.5739 C   0  0  0  0  0  0  0  0  0  0  0  0
    1.4499   -0.6040    0.0842 N   0  0  0  0  0  0  0  0  0  0  0  0
    0.0594   -0.4733    0.2342 N   0  0  0  0  0  0  0  0  0  0  0  0
   -0.7366   -0.7998   -0.8497 C   0  0  0  0  0  0  0  0  0  0  0  0
   -0.2831   -1.3734   -1.8406 O   0  0  0  0  0  0  0  0  0  0  0  0
   -2.1808   -0.3209   -0.7229 C   0  0  0  0  0  0  0  0  0  0  0  0
   -3.0631   -1.0127   -1.7526 C   0  0  0  0  0  0  0  0  0  0  0  0
   -4.3961   -0.4840   -1.7115 O   0  0  0  0  0  0  0  0  0  0  0  0
   -4.8515   -0.3717   -0.4233 C   0  0  0  0  0  0  0  0  0  0  0  0
   -6.2218   -0.1815   -0.2572 C   0  0  0  0  0  0  0  0  0  0  0  0
   -6.7587   -0.0789    1.0271 C   0  0  0  0  0  0  0  0  0  0  0  0
   -5.9242   -0.1641    2.1429 C   0  0  0  0  0  0  0  0  0  0  0  0
   -4.5496   -0.3410    1.9764 C   0  0  0  0  0  0  0  0  0  0  0  0
   -4.0121   -0.4295    0.6937 C   0  0  0  0  0  0  0  0  0  0  0  0
   -2.6524   -0.5793    0.6047 O   0  0  0  0  0  0  0  0  0  0  0  0
    3.6705    0.4108    0.2039 C   0  0  0  0  0  0  0  0  0  0  0  0
    4.3351   -0.7746   -0.1446 C   0  0  0  0  0  0  0  0  0  0  0  0
    5.6924   -0.7497   -0.4780 C   0  0  0  0  0  0  0  0  0  0  0  0
    6.3967    0.4548   -0.4598 C   0  0  0  0  0  0  0  0  0  0  0  0
    5.7358    1.6369   -0.0991 C   0  0  0  0  0  0  0  0  0  0  0  0
    6.4775    2.9039   -0.0752 N   0  0  0  0  0  4  0  0  0  0  0  0
    7.6987    2.8587   -0.2806 O   0  0  0  0  0  0  0  0  0  0  0  0
    5.8388    3.9420    0.1440 O   0  0  0  0  0  1  0  0  0  0  0  0
    4.3762    1.6214    0.2370 C   0  0  0  0  0  0  0  0  0  0  0  0
    1.7424   -1.1539   -0.7231 H   0  0  0  0  0  0  0  0  0  0  0  0
   -0.2566    0.2025    0.9323 H   0  0  0  0  0  0  0  0  0  0  0  0
   -2.1808    0.7662   -0.8819 H   0  0  0  0  0  0  0  0  0  0  0  0
   -3.1140   -2.0963   -1.5831 H   0  0  0  0  0  0  0  0  0  0  0  0
   -2.6842   -0.8536   -2.7679 H   0  0  0  0  0  0  0  0  0  0  0  0
   -6.8718   -0.1241   -1.1260 H   0  0  0  0  0  0  0  0  0  0  0  0
   -7.8286    0.0629    1.1576 H   0  0  0  0  0  0  0  0  0  0  0  0
   -6.3444   -0.0886    3.1427 H   0  0  0  0  0  0  0  0  0  0  0  0
   -3.9003   -0.3993    2.8455 H   0  0  0  0  0  0  0  0  0  0  0  0
    3.8217   -1.7334   -0.1377 H   0  0  0  0  0  0  0  0  0  0  0  0
    6.2041   -1.6729   -0.7444 H   0  0  0  0  0  0  0  0  0  0  0  0
    7.4537    0.4552   -0.7213 H   0  0  0  0  0  0  0  0  0  0  0  0
    3.8596    2.5371    0.5231 H   0  0  0  0  0  0  0  0  0  0  0  0
  1  2  2  0
  2  3  1  0
  3  4  1  0
  4  5  1  0
  5  6  2  0
  5  7  1  0
  7  8  1  0
  8  9  1  0
  9 10  1  0
 10 11  2  0
 11 12  1  0
 12 13  2  0
 13 14  1  0
 14 15  2  0
 15 16  1  0
  2 17  1  0
 17 18  2  0
 18 19  1  0
 19 20  2  0
 20 21  1  0
 21 22  1  0
 22 23  2  0
 22 24  1  0
 21 25  2  0
 16  7  1  0
 25 17  1  0
 15 10  1  0
  3 26  1  0
  4 27  1  0
  7 28  1  0
  8 29  1  0
  8 30  1  0
 11 31  1  0
 12 32  1  0
 13 33  1  0
 14 34  1  0
 18 35  1  0
 19 36  1  0
 20 37  1  0
 25 38  1  0
M  CHG  2  22   1  24  -1
M  END
$$$$
