
     RDKit          3D

 43 45  0  0  0  0  0  0  0  0999 V2000
   -7.7348    0.7797    0.0009 C   0  0  0  0  0  0  0  0  0  0  0  0
   -6.8420   -0.1623   -0.3314 C   0  0  0  0  0  0  0  0  0  0  0  0
   -6.1078   -1.0267    0.6564 C   0  0  0  0  0  0  0  0  0  0  0  0
   -4.7218   -0.5929    0.7231 N   0  0  0  0  0  0  0  0  0  0  0  0
   -4.3746    0.3199    1.7086 C   0  0  0  0  0  0  0  0  0  0  0  0
   -5.1533    0.7677    2.5478 O   0  0  0  0  0  0  0  0  0  0  0  0
   -3.0736    0.7212    1.7310 N   0  0  0  0  0  0  0  0  0  0  0  0
   -2.1116    0.2736    0.8452 C   0  0  0  0  0  0  0  0  0  0  0  0
   -0.8625    0.7608    0.9888 N   0  0  0  0  0  0  0  0  0  0  0  0
    0.0630    0.3106    0.1131 C   0  0  0  0  0  0  0  0  0  0  0  0
    1.3685    0.7693    0.2009 C   0  0  0  0  0  0  0  0  0  0  0  0
    2.3649    0.3243   -0.6736 C   0  0  0  0  0  0  0  0  0  0  0  0
    3.6650    0.8345   -0.5493 N   0  0  0  0  0  0  0  0  0  0  0  0
    4.4478    0.2077    0.2670 C   0  0  0  0  0  0  0  0  0  0  0  0
    5.7586    0.5269    0.5394 N   0  0  0  0  0  0  0  0  0  0  0  0
    6.4250   -0.0504    1.6953 C   0  0  0  0  0  0  0  0  0  0  0  0
    6.2985    1.7900    0.0536 C   0  0  0  0  0  0  0  0  0  0  0  0
    2.0356   -0.5844   -1.6872 C   0  0  0  0  0  0  0  0  0  0  0  0
    3.0732   -1.0636   -2.6624 C   0  0  0  0  0  0  0  0  0  0  0  0
    0.7176   -1.0562   -1.7748 C   0  0  0  0  0  0  0  0  0  0  0  0
   -0.2693   -0.6284   -0.8976 C   0  0  0  0  0  0  0  0  0  0  0  0
   -1.5188   -1.1104   -1.0246 N   0  0  0  0  0  0  0  0  0  0  0  0
   -2.4311   -0.6405   -0.1374 C   0  0  0  0  0  0  0  0  0  0  0  0
   -3.8273   -1.1223   -0.2137 C   0  0  0  0  0  0  0  0  0  0  0  0
   -4.1510   -1.9455   -1.0677 O   0  0  0  0  0  0  0  0  0  0  0  0
   -8.2388    1.3635   -0.7633 H   0  0  0  0  0  0  0  0  0  0  0  0
   -7.9729    0.9975    1.0385 H   0  0  0  0  0  0  0  0  0  0  0  0
   -6.6331   -0.3480   -1.3836 H   0  0  0  0  0  0  0  0  0  0  0  0
   -6.1635   -2.0721    0.3325 H   0  0  0  0  0  0  0  0  0  0  0  0
   -6.5717   -0.9733    1.6479 H   0  0  0  0  0  0  0  0  0  0  0  0
   -2.7943    1.3898    2.4351 H   0  0  0  0  0  0  0  0  0  0  0  0
    1.6244    1.4968    0.9670 H   0  0  0  0  0  0  0  0  0  0  0  0
    4.1022   -0.6796    0.8321 H   0  0  0  0  0  0  0  0  0  0  0  0
    7.5134    0.0258    1.6020 H   0  0  0  0  0  0  0  0  0  0  0  0
    6.1166    0.4664    2.6098 H   0  0  0  0  0  0  0  0  0  0  0  0
    6.1819   -1.1135    1.7971 H   0  0  0  0  0  0  0  0  0  0  0  0
    6.0551    1.9414   -1.0035 H   0  0  0  0  0  0  0  0  0  0  0  0
    7.3904    1.8109    0.1373 H   0  0  0  0  0  0  0  0  0  0  0  0
    5.8924    2.6261    0.6323 H   0  0  0  0  0  0  0  0  0  0  0  0
    3.8170   -1.6819   -2.1499 H   0  0  0  0  0  0  0  0  0  0  0  0
    2.6251   -1.6677   -3.4585 H   0  0  0  0  0  0  0  0  0  0  0  0
    3.5723   -0.2142   -3.1400 H   0  0  0  0  0  0  0  0  0  0  0  0
    0.4454   -1.7709   -2.5494 H   0  0  0  0  0  0  0  0  0  0  0  0
  1  2  2  0
  2  3  1  0
  3  4  1  0
  4  5  1  0
  5  6  2  0
  5  7  1  0
  7  8  1  0
  8  9  2  0
  9 10  1  0
 10 11  2  0
 11 12  1  0
 12 13  1  0
 13 14  2  3
 14 15  1  0
 15 16  1  0
 15 17  1  0
 12 18  2  0
 18 19  1  0
 18 20  1  0
 20 21  2  0
 21 22  1  0
 22 23  2  0
 23 24  1  0
 24 25  2  0
 24  4  1  0
 23  8  1  0
 21 10  1  0
  1 26  1  0
  1 27  1  0
  2 28  1  0
  3 29  1  0
  3 30  1  0
  7 31  1  0
 11 32  1  0
 14 33  1  0
 16 34  1  0
 16 35  1  0
 16 36  1  0
 17 37  1  0
 17 38  1  0
 17 39  1  0
 19 40  1  0
 19 41  1  0
 19 42  1  0
 20 43  1  0
M  END
$$$$
