
     RDKit          3D

 53 56  0  0  0  0  0  0  0  0999 V2000
   -1.1628   -3.1644    1.6175 C   0  0  0  0  0  0  0  0  0  0  0  0
   -1.4445   -1.7888    1.0805 C   0  0  0  0  0  0  0  0  0  0  0  0
   -0.4442   -0.8139    0.9875 C   0  0  0  0  0  0  0  0  0  0  0  0
    0.7989   -1.1160    1.4778 O   0  0  0  0  0  0  0  0  0  0  0  0
    1.8896   -0.8386    0.5903 C   0  0  0  0  0  0  0  0  0  0  0  0
    2.7942   -2.0682    0.6438 C   0  0  0  0  0  0  0  0  0  0  0  0
    2.6418    0.4432    1.0149 C   0  0  0  0  0  0  0  0  0  0  0  0
    2.2140    1.2309    1.8602 O   0  0  0  0  0  0  0  0  0  0  0  0
    3.8030    0.6991    0.3215 N   0  0  0  0  0  0  0  0  0  0  0  0
    4.6272    1.8465    0.6604 C   0  0  0  0  0  0  0  0  0  0  0  0
    5.9450    1.8195   -0.0791 C   0  0  0  0  0  0  0  0  0  0  0  0
    6.6919    2.9881   -0.2051 C   0  0  0  0  0  0  0  0  0  0  0  0
    7.9456    2.9198   -0.8186 C   0  0  0  0  0  0  0  0  0  0  0  0
    8.4178    1.6964   -1.2849 C   0  0  0  0  0  0  0  0  0  0  0  0
    7.6145    0.5760   -1.1179 C   0  0  0  0  0  0  0  0  0  0  0  0
    6.3960    0.6066   -0.5252 N   0  0  0  0  0  0  0  0  0  0  0  0
   -0.7501    0.4529    0.4876 C   0  0  0  0  0  0  0  0  0  0  0  0
   -2.0438    0.7526    0.0483 C   0  0  0  0  0  0  0  0  0  0  0  0
   -3.0621   -0.2024    0.1085 C   0  0  0  0  0  0  0  0  0  0  0  0
   -4.4471    0.0533   -0.3362 C   0  0  0  0  0  0  0  0  0  0  0  0
   -5.3522   -0.9479   -0.2898 C   0  0  0  0  0  0  0  0  0  0  0  0
   -5.0082   -2.2947    0.2264 C   0  0  0  0  0  0  0  0  0  0  0  0
   -5.8340   -3.2028    0.2599 O   0  0  0  0  0  0  0  0  0  0  0  0
   -3.7072   -2.4813    0.6731 O   0  0  0  0  0  0  0  0  0  0  0  0
   -2.7321   -1.4610    0.6169 C   0  0  0  0  0  0  0  0  0  0  0  0
   -6.7788   -0.7961   -0.7598 C   0  0  0  0  0  0  0  0  0  0  0  0
   -7.0216    0.4684   -1.5837 C   0  0  0  0  0  0  0  0  0  0  0  0
   -6.3326    1.6673   -0.9506 C   0  0  0  0  0  0  0  0  0  0  0  0
   -4.8226    1.4338   -0.8282 C   0  0  0  0  0  0  0  0  0  0  0  0
   -0.1938   -3.2294    2.1196 H   0  0  0  0  0  0  0  0  0  0  0  0
   -1.9199   -3.4478    2.3571 H   0  0  0  0  0  0  0  0  0  0  0  0
   -1.1700   -3.8909    0.7987 H   0  0  0  0  0  0  0  0  0  0  0  0
    1.5429   -0.6991   -0.4436 H   0  0  0  0  0  0  0  0  0  0  0  0
    3.5410   -2.0622   -0.1517 H   0  0  0  0  0  0  0  0  0  0  0  0
    2.2031   -2.9836    0.5473 H   0  0  0  0  0  0  0  0  0  0  0  0
    3.3213   -2.1265    1.6028 H   0  0  0  0  0  0  0  0  0  0  0  0
    4.3185   -0.0696   -0.0868 H   0  0  0  0  0  0  0  0  0  0  0  0
    4.0549    2.7448    0.4122 H   0  0  0  0  0  0  0  0  0  0  0  0
    4.8204    1.8383    1.7377 H   0  0  0  0  0  0  0  0  0  0  0  0
    6.3127    3.9279    0.1709 H   0  0  0  0  0  0  0  0  0  0  0  0
    8.5488    3.8136   -0.9195 H   0  0  0  0  0  0  0  0  0  0  0  0
    9.3936    1.6077   -1.7419 H   0  0  0  0  0  0  0  0  0  0  0  0
    7.9515   -0.4052   -1.4440 H   0  0  0  0  0  0  0  0  0  0  0  0
    0.0013    1.2357    0.4580 H   0  0  0  0  0  0  0  0  0  0  0  0
   -2.2263    1.7548   -0.3312 H   0  0  0  0  0  0  0  0  0  0  0  0
   -7.4363   -0.7826    0.1207 H   0  0  0  0  0  0  0  0  0  0  0  0
   -7.0779   -1.6565   -1.3688 H   0  0  0  0  0  0  0  0  0  0  0  0
   -8.0967    0.6523   -1.6607 H   0  0  0  0  0  0  0  0  0  0  0  0
   -6.6489    0.3195   -2.6031 H   0  0  0  0  0  0  0  0  0  0  0  0
   -6.7605    1.8521    0.0453 H   0  0  0  0  0  0  0  0  0  0  0  0
   -6.5197    2.5663   -1.5478 H   0  0  0  0  0  0  0  0  0  0  0  0
   -4.3631    1.5894   -1.8107 H   0  0  0  0  0  0  0  0  0  0  0  0
   -4.4323    2.2052   -0.1565 H   0  0  0  0  0  0  0  0  0  0  0  0
  1  2  1  0
  2  3  2  0
  3  4  1  0
  4  5  1  0
  5  6  1  0
  5  7  1  0
  7  8  2  0
  7  9  1  0
  9 10  1  0
 10 11  1  0
 11 12  2  0
 12 13  1  0
 13 14  2  0
 14 15  1  0
 15 16  2  0
  3 17  1  0
 17 18  2  0
 18 19  1  0
 19 20  1  0
 20 21  2  0
 21 22  1  0
 22 23  2  0
 22 24  1  0
 24 25  1  0
 21 26  1  0
 26 27  1  0
 27 28  1  0
 28 29  1  0
 25  2  1  0
 16 11  1  0
 25 19  2  0
 29 20  1  0
  1 30  1  0
  1 31  1  0
  1 32  1  0
  5 33  1  0
  6 34  1  0
  6 35  1  0
  6 36  1  0
  9 37  1  0
 10 38  1  0
 10 39  1  0
 12 40  1  0
 13 41  1  0
 14 42  1  0
 15 43  1  0
 17 44  1  0
 18 45  1  0
 26 46  1  0
 26 47  1  0
 27 48  1  0
 27 49  1  0
 28 50  1  0
 28 51  1  0
 29 52  1  0
 29 53  1  0
M  END
$$$$
