
     RDKit          3D

 38 40  0  0  0  0  0  0  0  0999 V2000
   -7.2062    0.6512    1.4235 C   0  0  0  0  0  0  0  0  0  0  0  0
   -6.6951    0.6685    0.0964 O   0  0  0  0  0  0  0  0  0  0  0  0
   -5.3492    0.4793   -0.0469 C   0  0  0  0  0  0  0  0  0  0  0  0
   -4.8907    0.5005   -1.3622 C   0  0  0  0  0  0  0  0  0  0  0  0
   -3.5325    0.3193   -1.6466 C   0  0  0  0  0  0  0  0  0  0  0  0
   -2.5935    0.1141   -0.6235 C   0  0  0  0  0  0  0  0  0  0  0  0
   -1.2453   -0.0694   -0.9810 N   0  0  0  0  0  0  0  0  0  0  0  0
   -0.1731   -0.3358   -0.1975 C   0  0  0  0  0  0  0  0  0  0  0  0
   -0.1504   -0.5387    1.1006 N   0  0  0  0  0  0  0  0  0  0  0  0
    1.1239   -0.7825    1.5240 C   0  0  0  0  0  0  0  0  0  0  0  0
    1.3079   -1.0248    2.8307 N   0  0  0  0  0  0  0  0  0  0  0  0
    2.1115   -0.7513    0.5665 C   0  0  0  0  0  0  0  0  0  0  0  0
    3.5256   -1.0111    0.7299 C   0  0  0  0  0  0  0  0  0  0  0  0
    3.9739   -1.7445    1.6127 O   0  0  0  0  0  0  0  0  0  0  0  0
    4.5224   -0.3802   -0.1768 C   0  0  0  0  0  0  0  0  0  0  0  0
    4.4497    0.9816   -0.5063 C   0  0  0  0  0  0  0  0  0  0  0  0
    5.4151    1.5444   -1.3440 C   0  0  0  0  0  0  0  0  0  0  0  0
    6.4490    0.7517   -1.8331 C   0  0  0  0  0  0  0  0  0  0  0  0
    7.3726    1.2962   -2.6351 F   0  0  0  0  0  0  0  0  0  0  0  0
    6.5438   -0.5942   -1.4951 C   0  0  0  0  0  0  0  0  0  0  0  0
    5.5823   -1.1628   -0.6581 C   0  0  0  0  0  0  0  0  0  0  0  0
    1.3824   -0.4472   -0.9537 S   0  0  0  0  0  0  0  0  0  0  0  0
   -3.0713    0.0922    0.6905 C   0  0  0  0  0  0  0  0  0  0  0  0
   -4.4327    0.2738    0.9801 C   0  0  0  0  0  0  0  0  0  0  0  0
   -6.7782    1.4620    2.0222 H   0  0  0  0  0  0  0  0  0  0  0  0
   -7.0405   -0.3217    1.8979 H   0  0  0  0  0  0  0  0  0  0  0  0
   -8.2869    0.8140    1.3674 H   0  0  0  0  0  0  0  0  0  0  0  0
   -5.5950    0.6580   -2.1752 H   0  0  0  0  0  0  0  0  0  0  0  0
   -3.2196    0.3397   -2.6874 H   0  0  0  0  0  0  0  0  0  0  0  0
   -1.0646    0.0321   -1.9711 H   0  0  0  0  0  0  0  0  0  0  0  0
    0.4857   -1.2832    3.3665 H   0  0  0  0  0  0  0  0  0  0  0  0
    2.1463   -1.5270    3.1219 H   0  0  0  0  0  0  0  0  0  0  0  0
    3.6615    1.6150   -0.1058 H   0  0  0  0  0  0  0  0  0  0  0  0
    5.3741    2.5961   -1.6113 H   0  0  0  0  0  0  0  0  0  0  0  0
    7.3673   -1.1886   -1.8789 H   0  0  0  0  0  0  0  0  0  0  0  0
    5.6606   -2.2122   -0.3802 H   0  0  0  0  0  0  0  0  0  0  0  0
   -2.3966   -0.0620    1.5276 H   0  0  0  0  0  0  0  0  0  0  0  0
   -4.7338    0.2475    2.0219 H   0  0  0  0  0  0  0  0  0  0  0  0
  1  2  1  0
  2  3  1  0
  3  4  2  0
  4  5  1  0
  5  6  2  0
  6  7  1  0
  7  8  1  0
  8  9  2  0
  9 10  1  0
 10 11  1  0
 10 12  2  0
 12 13  1  0
 13 14  2  0
 13 15  1  0
 15 16  2  0
 16 17  1  0
 17 18  2  0
 18 19  1  0
 18 20  1  0
 20 21  2  0
 12 22  1  0
  6 23  1  0
 23 24  2  0
 24  3  1  0
 22  8  1  0
 21 15  1  0
  1 25  1  0
  1 26  1  0
  1 27  1  0
  4 28  1  0
  5 29  1  0
  7 30  1  0
 11 31  1  0
 11 32  1  0
 16 33  1  0
 17 34  1  0
 20 35  1  0
 21 36  1  0
 23 37  1  0
 24 38  1  0
M  END
$$$$
