
     RDKit          3D

 41 43  0  0  0  0  0  0  0  0999 V2000
   -7.1402   -0.0518   -0.6920 C   0  0  0  0  0  0  0  0  0  0  0  0
   -6.4981   -0.4829    0.6151 C   0  0  0  0  0  0  0  0  0  0  0  0
   -5.6911    0.5637    1.1525 O   0  0  0  0  0  0  0  0  0  0  0  0
   -4.3758    0.6346    0.7933 C   0  0  0  0  0  0  0  0  0  0  0  0
   -3.6398    1.6020    1.4793 C   0  0  0  0  0  0  0  0  0  0  0  0
   -2.2792    1.7922    1.2150 C   0  0  0  0  0  0  0  0  0  0  0  0
   -1.6279    1.0232    0.2424 C   0  0  0  0  0  0  0  0  0  0  0  0
   -0.2204    1.1984   -0.0316 N   0  0  0  0  0  0  0  0  0  0  0  0
    0.5688    0.0339    0.0071 C   0  0  0  0  0  0  0  0  0  0  0  0
    0.1274   -1.0898    0.2603 O   0  0  0  0  0  0  0  0  0  0  0  0
    2.0319    0.2041   -0.2597 C   0  0  0  0  0  0  0  0  0  0  0  0
    2.7352   -0.9395   -0.3872 C   0  0  0  0  0  0  0  0  0  0  0  0
    4.1159   -1.0834   -0.6938 C   0  0  0  0  0  0  0  0  0  0  0  0
    4.9377   -0.4369   -1.6106 C   0  0  0  0  0  0  0  0  0  0  0  0
    6.2274   -1.0150   -1.5340 C   0  0  0  0  0  0  0  0  0  0  0  0
    6.1378   -2.0105   -0.5934 C   0  0  0  0  0  0  0  0  0  0  0  0
    7.0999   -2.9850   -0.0445 C   0  0  0  0  0  0  0  0  0  0  0  0
    4.8742   -2.0702   -0.0995 O   0  0  0  0  0  0  0  0  0  0  0  0
    2.5956    1.5632   -0.3296 C   0  0  0  0  0  0  0  0  0  0  0  0
    3.7854    1.8460   -0.3103 O   0  0  0  0  0  0  0  0  0  0  0  0
    1.6666    2.5576   -0.4087 N   0  0  0  0  0  0  0  0  0  0  0  0
    0.3031    2.4681   -0.3051 C   0  0  0  0  0  0  0  0  0  0  0  0
   -0.5169    3.9106   -0.5866 S   0  0  0  0  0  0  0  0  0  0  0  0
   -2.3720    0.0458   -0.4351 C   0  0  0  0  0  0  0  0  0  0  0  0
   -3.7349   -0.1429   -0.1672 C   0  0  0  0  0  0  0  0  0  0  0  0
   -7.7102    0.8727   -0.5517 H   0  0  0  0  0  0  0  0  0  0  0  0
   -6.3882    0.1539   -1.4593 H   0  0  0  0  0  0  0  0  0  0  0  0
   -7.8152   -0.8274   -1.0652 H   0  0  0  0  0  0  0  0  0  0  0  0
   -5.9540   -1.4293    0.5227 H   0  0  0  0  0  0  0  0  0  0  0  0
   -7.2939   -0.6655    1.3463 H   0  0  0  0  0  0  0  0  0  0  0  0
   -4.1287    2.2103    2.2371 H   0  0  0  0  0  0  0  0  0  0  0  0
   -1.7418    2.5299    1.8052 H   0  0  0  0  0  0  0  0  0  0  0  0
    2.2351   -1.8953   -0.2357 H   0  0  0  0  0  0  0  0  0  0  0  0
    4.6412    0.3723   -2.2633 H   0  0  0  0  0  0  0  0  0  0  0  0
    7.1072   -0.7403   -2.0983 H   0  0  0  0  0  0  0  0  0  0  0  0
    6.7610   -4.0076   -0.2365 H   0  0  0  0  0  0  0  0  0  0  0  0
    7.2048   -2.8522    1.0366 H   0  0  0  0  0  0  0  0  0  0  0  0
    8.0871   -2.8617   -0.5004 H   0  0  0  0  0  0  0  0  0  0  0  0
    2.0510    3.4874   -0.5285 H   0  0  0  0  0  0  0  0  0  0  0  0
   -1.9061   -0.5788   -1.1944 H   0  0  0  0  0  0  0  0  0  0  0  0
   -4.2595   -0.9039   -0.7346 H   0  0  0  0  0  0  0  0  0  0  0  0
  1  2  1  0
  2  3  1  0
  3  4  1  0
  4  5  2  0
  5  6  1  0
  6  7  2  0
  7  8  1  0
  8  9  1  0
  9 10  2  0
  9 11  1  0
 11 12  2  3
 12 13  1  0
 13 14  2  0
 14 15  1  0
 15 16  2  0
 16 17  1  0
 16 18  1  0
 11 19  1  0
 19 20  2  0
 19 21  1  0
 21 22  1  0
 22 23  2  0
  7 24  1  0
 24 25  2  0
 25  4  1  0
 22  8  1  0
 18 13  1  0
  1 26  1  0
  1 27  1  0
  1 28  1  0
  2 29  1  0
  2 30  1  0
  5 31  1  0
  6 32  1  0
 12 33  1  0
 14 34  1  0
 15 35  1  0
 17 36  1  0
 17 37  1  0
 17 38  1  0
 21 39  1  0
 24 40  1  0
 25 41  1  0
M  END
$$$$
