
     RDKit          3D

 39 41  0  0  0  0  0  0  0  0999 V2000
    4.3550   -1.1695    1.3177 C   0  0  0  0  0  0  0  0  0  0  0  0
    3.9331   -2.0717    0.1704 C   0  0  0  0  0  0  0  0  0  0  0  0
    2.3706   -2.9421    0.5311 S   0  0  0  0  0  0  0  0  0  0  0  0
    1.1663   -1.6412    0.2899 C   0  0  0  0  0  0  0  0  0  0  0  0
   -0.1254   -1.8572    0.7206 C   0  0  0  0  0  0  0  0  0  0  0  0
   -1.0443   -0.8500    0.5143 C   0  0  0  0  0  0  0  0  0  0  0  0
   -2.3516   -0.9671    0.9240 N   0  0  0  0  0  0  0  0  0  0  0  0
   -3.0268   -2.2402    1.1486 C   0  0  0  0  0  0  0  0  0  0  0  0
   -4.5043   -1.9301    0.9038 C   0  0  0  0  0  0  0  0  0  0  0  0
   -4.6114   -0.4423    1.1980 C   0  0  0  0  0  0  0  0  0  0  0  0
   -3.3008    0.1029    0.6394 C   0  0  0  0  0  0  0  0  0  0  0  0
   -0.6656    0.2990   -0.0711 N   0  0  0  0  0  0  0  0  0  0  0  0
    0.6128    0.4293   -0.4685 C   0  0  0  0  0  0  0  0  0  0  0  0
    1.0062    1.6991   -1.1159 C   0  0  0  0  0  0  0  0  0  0  0  0
    2.3201    1.9137   -1.5800 C   0  0  0  0  0  0  0  0  0  0  0  0
    2.6947    3.1156   -2.1927 C   0  0  0  0  0  0  0  0  0  0  0  0
    1.7576    4.1306   -2.3532 C   0  0  0  0  0  0  0  0  0  0  0  0
    2.2144    5.6083   -3.1052 Cl  0  0  0  0  0  0  0  0  0  0  0  0
    0.4523    3.9540   -1.9072 C   0  0  0  0  0  0  0  0  0  0  0  0
    0.0837    2.7498   -1.2955 C   0  0  0  0  0  0  0  0  0  0  0  0
    1.5545   -0.5122   -0.3158 N   0  0  0  0  0  0  0  0  0  0  0  0
    5.3176   -0.7017    1.0856 H   0  0  0  0  0  0  0  0  0  0  0  0
    4.4799   -1.7365    2.2465 H   0  0  0  0  0  0  0  0  0  0  0  0
    3.6350   -0.3654    1.4975 H   0  0  0  0  0  0  0  0  0  0  0  0
    4.7011   -2.8386    0.0242 H   0  0  0  0  0  0  0  0  0  0  0  0
    3.8627   -1.5141   -0.7687 H   0  0  0  0  0  0  0  0  0  0  0  0
   -0.3958   -2.7800    1.2148 H   0  0  0  0  0  0  0  0  0  0  0  0
   -2.6941   -3.0308    0.4669 H   0  0  0  0  0  0  0  0  0  0  0  0
   -2.8659   -2.5666    2.1819 H   0  0  0  0  0  0  0  0  0  0  0  0
   -5.1675   -2.5368    1.5266 H   0  0  0  0  0  0  0  0  0  0  0  0
   -4.7557   -2.1200   -0.1469 H   0  0  0  0  0  0  0  0  0  0  0  0
   -5.4888    0.0207    0.7383 H   0  0  0  0  0  0  0  0  0  0  0  0
   -4.6597   -0.2774    2.2811 H   0  0  0  0  0  0  0  0  0  0  0  0
   -3.0282    1.0444    1.1281 H   0  0  0  0  0  0  0  0  0  0  0  0
   -3.3903    0.2666   -0.4416 H   0  0  0  0  0  0  0  0  0  0  0  0
    3.0714    1.1334   -1.4659 H   0  0  0  0  0  0  0  0  0  0  0  0
    3.7163    3.2471   -2.5390 H   0  0  0  0  0  0  0  0  0  0  0  0
   -0.2850    4.7428   -2.0290 H   0  0  0  0  0  0  0  0  0  0  0  0
   -0.9441    2.6339   -0.9530 H   0  0  0  0  0  0  0  0  0  0  0  0
  1  2  1  0
  2  3  1  0
  3  4  1  0
  4  5  2  0
  5  6  1  0
  6  7  1  0
  7  8  1  0
  8  9  1  0
  9 10  1  0
 10 11  1  0
  6 12  2  0
 12 13  1  0
 13 14  1  0
 14 15  2  0
 15 16  1  0
 16 17  2  0
 17 18  1  0
 17 19  1  0
 19 20  2  0
 13 21  2  0
 21  4  1  0
 11  7  1  0
 20 14  1  0
  1 22  1  0
  1 23  1  0
  1 24  1  0
  2 25  1  0
  2 26  1  0
  5 27  1  0
  8 28  1  0
  8 29  1  0
  9 30  1  0
  9 31  1  0
 10 32  1  0
 10 33  1  0
 11 34  1  0
 11 35  1  0
 15 36  1  0
 16 37  1  0
 19 38  1  0
 20 39  1  0
M  END
$$$$
