
     RDKit          3D

 53 56  0  0  0  0  0  0  0  0999 V2000
    5.3643   -2.8660   -1.9842 C   0  0  0  0  0  0  0  0  0  0  0  0
    5.8932   -2.5198   -0.7108 O   0  0  0  0  0  0  0  0  0  0  0  0
    5.2320   -1.3998   -0.1159 C   0  0  0  0  0  0  0  0  0  0  0  0
    3.9589   -1.8257    0.6107 C   0  0  0  0  0  0  0  0  0  0  0  0
    3.2796   -0.7036    1.2460 N   0  0  0  0  0  0  0  0  0  0  0  0
    3.4783   -0.3169    2.5530 C   0  0  0  0  0  0  0  0  0  0  0  0
    4.4381   -0.9730    3.4830 C   0  0  0  0  0  0  0  0  0  0  0  0
    2.6345    0.7421    2.7952 C   0  0  0  0  0  0  0  0  0  0  0  0
    1.8840    1.0191    1.6145 C   0  0  0  0  0  0  0  0  0  0  0  0
    0.8617    2.0807    1.5429 C   0  0  0  0  0  0  0  0  0  0  0  0
    0.8060    2.9346    2.4349 O   0  0  0  0  0  0  0  0  0  0  0  0
   -0.1482    2.1372    0.4181 C   0  0  0  0  0  0  0  0  0  0  0  0
   -1.4371    0.8776    0.6740 S   0  0  0  0  0  0  0  0  0  0  0  0
   -2.4518    1.1935   -0.7388 C   0  0  0  0  0  0  0  0  0  0  0  0
   -1.9122    1.7993   -1.8178 N   0  0  0  0  0  0  0  0  0  0  0  0
   -2.6906    2.0197   -2.8936 C   0  0  0  0  0  0  0  0  0  0  0  0
   -2.0581    2.7253   -4.0544 C   0  0  0  0  0  0  0  0  0  0  0  0
   -3.9855    1.7055   -3.0093 N   0  0  0  0  0  0  0  0  0  0  0  0
   -4.4849    1.0995   -1.9201 C   0  0  0  0  0  0  0  0  0  0  0  0
   -6.1359    0.6142   -1.8835 S   0  0  0  0  0  0  0  0  0  0  0  0
   -5.9421    0.0132   -0.3381 C   0  0  0  0  0  0  0  0  0  0  0  0
   -4.6775    0.1545    0.1652 C   0  0  0  0  0  0  0  0  0  0  0  0
   -3.7939    0.7999   -0.7461 C   0  0  0  0  0  0  0  0  0  0  0  0
   -4.5947   -0.4020    1.5417 C   0  0  0  0  0  0  0  0  0  0  0  0
   -5.9251   -1.2102    1.6596 C   0  0  0  0  0  0  0  0  0  0  0  0
   -6.8982   -0.6387    0.5858 C   0  0  0  0  0  0  0  0  0  0  0  0
    2.3406    0.1248    0.6433 C   0  0  0  0  0  0  0  0  0  0  0  0
    1.9763   -0.0051   -0.8006 C   0  0  0  0  0  0  0  0  0  0  0  0
    4.3157   -3.1649   -1.9051 H   0  0  0  0  0  0  0  0  0  0  0  0
    5.4661   -2.0290   -2.6814 H   0  0  0  0  0  0  0  0  0  0  0  0
    5.9361   -3.7126   -2.3735 H   0  0  0  0  0  0  0  0  0  0  0  0
    5.0400   -0.6253   -0.8680 H   0  0  0  0  0  0  0  0  0  0  0  0
    5.9351   -0.9660    0.6038 H   0  0  0  0  0  0  0  0  0  0  0  0
    3.2475   -2.3208   -0.0578 H   0  0  0  0  0  0  0  0  0  0  0  0
    4.1912   -2.5747    1.3759 H   0  0  0  0  0  0  0  0  0  0  0  0
    4.1182   -1.9948    3.7097 H   0  0  0  0  0  0  0  0  0  0  0  0
    4.4994   -0.4248    4.4291 H   0  0  0  0  0  0  0  0  0  0  0  0
    5.4433   -1.0046    3.0526 H   0  0  0  0  0  0  0  0  0  0  0  0
    2.5427    1.2700    3.7381 H   0  0  0  0  0  0  0  0  0  0  0  0
    0.3487    2.0426   -0.5468 H   0  0  0  0  0  0  0  0  0  0  0  0
   -0.6179    3.1277    0.4368 H   0  0  0  0  0  0  0  0  0  0  0  0
   -0.9896    2.4953   -4.1092 H   0  0  0  0  0  0  0  0  0  0  0  0
   -2.5233    2.4145   -4.9950 H   0  0  0  0  0  0  0  0  0  0  0  0
   -2.1812    3.8061   -3.9392 H   0  0  0  0  0  0  0  0  0  0  0  0
   -3.7320   -1.0572    1.6877 H   0  0  0  0  0  0  0  0  0  0  0  0
   -4.5715    0.4056    2.2807 H   0  0  0  0  0  0  0  0  0  0  0  0
   -6.3478   -1.1695    2.6682 H   0  0  0  0  0  0  0  0  0  0  0  0
   -5.7217   -2.2648    1.4312 H   0  0  0  0  0  0  0  0  0  0  0  0
   -7.4820   -1.4347    0.1159 H   0  0  0  0  0  0  0  0  0  0  0  0
   -7.5727    0.0990    1.0323 H   0  0  0  0  0  0  0  0  0  0  0  0
    2.0549    0.9657   -1.2993 H   0  0  0  0  0  0  0  0  0  0  0  0
    0.9562   -0.3832   -0.9070 H   0  0  0  0  0  0  0  0  0  0  0  0
    2.6325   -0.6796   -1.3551 H   0  0  0  0  0  0  0  0  0  0  0  0
  1  2  1  0
  2  3  1  0
  3  4  1  0
  4  5  1  0
  5  6  1  0
  6  7  1  0
  6  8  2  0
  8  9  1  0
  9 10  1  0
 10 11  2  0
 10 12  1  0
 12 13  1  0
 13 14  1  0
 14 15  2  0
 15 16  1  0
 16 17  1  0
 16 18  2  0
 18 19  1  0
 19 20  1  0
 20 21  1  0
 21 22  2  0
 22 23  1  0
 22 24  1  0
 24 25  1  0
 25 26  1  0
  9 27  2  0
 27 28  1  0
 27  5  1  0
 23 14  1  0
 23 19  2  0
 26 21  1  0
  1 29  1  0
  1 30  1  0
  1 31  1  0
  3 32  1  0
  3 33  1  0
  4 34  1  0
  4 35  1  0
  7 36  1  0
  7 37  1  0
  7 38  1  0
  8 39  1  0
 12 40  1  0
 12 41  1  0
 17 42  1  0
 17 43  1  0
 17 44  1  0
 24 45  1  0
 24 46  1  0
 25 47  1  0
 25 48  1  0
 26 49  1  0
 26 50  1  0
 28 51  1  0
 28 52  1  0
 28 53  1  0
M  END
$$$$
