
     RDKit          3D

 43 45  0  0  0  0  0  0  0  0999 V2000
   -0.1795   -1.3994    4.3252 C   0  0  0  0  0  0  0  0  0  0  0  0
   -0.8404   -1.4052    3.0210 N   0  0  0  0  0  0  0  0  0  0  0  0
   -0.5438   -2.6391    2.2631 C   0  0  0  0  0  0  0  0  0  0  0  0
    0.6870   -2.5621    1.3448 C   0  0  0  0  0  0  0  0  0  0  0  0
    0.6644   -1.4013    0.4548 N   0  0  0  0  0  0  0  0  0  0  0  0
    1.5988   -1.3554   -0.5668 C   0  0  0  0  0  0  0  0  0  0  0  0
    2.4974   -2.1717   -0.7354 O   0  0  0  0  0  0  0  0  0  0  0  0
    1.5460   -0.1880   -1.5321 C   0  0  0  0  0  0  0  0  0  0  0  0
    2.6817    0.7998   -1.3849 C   0  0  0  0  0  0  0  0  0  0  0  0
    2.1637    2.0853   -0.8152 C   0  0  0  0  0  0  0  0  0  0  0  0
    1.4614    3.0841   -1.4662 C   0  0  0  0  0  0  0  0  0  0  0  0
    1.1330    4.1668   -0.6024 C   0  0  0  0  0  0  0  0  0  0  0  0
    1.5979    3.9613    0.6804 C   0  0  0  0  0  0  0  0  0  0  0  0
    2.4290    2.4744    0.8340 S   0  0  0  0  0  0  0  0  0  0  0  0
    0.6349   -0.0089   -2.4462 N   0  0  0  0  0  0  0  0  0  0  0  0
   -0.3268   -0.9828   -2.5912 C   0  0  0  0  0  0  0  0  0  0  0  0
   -0.0943   -2.1848   -2.6168 O   0  0  0  0  0  0  0  0  0  0  0  0
   -1.6455   -0.3955   -2.7354 C   0  0  0  0  0  0  0  0  0  0  0  0
   -2.0979    0.9128   -2.7981 C   0  0  0  0  0  0  0  0  0  0  0  0
   -3.5067    0.8573   -2.9437 C   0  0  0  0  0  0  0  0  0  0  0  0
   -3.8363   -0.4773   -2.9462 C   0  0  0  0  0  0  0  0  0  0  0  0
   -2.7231   -1.2400   -2.8231 O   0  0  0  0  0  0  0  0  0  0  0  0
   -0.3564   -0.3891    0.7421 C   0  0  0  0  0  0  0  0  0  0  0  0
   -0.5068   -0.1774    2.2610 C   0  0  0  0  0  0  0  0  0  0  0  0
    0.9126   -1.4307    4.2331 H   0  0  0  0  0  0  0  0  0  0  0  0
   -0.4544   -0.5007    4.8888 H   0  0  0  0  0  0  0  0  0  0  0  0
   -0.5017   -2.2561    4.9285 H   0  0  0  0  0  0  0  0  0  0  0  0
   -0.4596   -3.5057    2.9293 H   0  0  0  0  0  0  0  0  0  0  0  0
   -1.4232   -2.8426    1.6378 H   0  0  0  0  0  0  0  0  0  0  0  0
    1.6058   -2.5046    1.9405 H   0  0  0  0  0  0  0  0  0  0  0  0
    0.7492   -3.4687    0.7332 H   0  0  0  0  0  0  0  0  0  0  0  0
    3.4790    0.3747   -0.7649 H   0  0  0  0  0  0  0  0  0  0  0  0
    3.1086    0.9792   -2.3800 H   0  0  0  0  0  0  0  0  0  0  0  0
    1.1980    3.0402   -2.5192 H   0  0  0  0  0  0  0  0  0  0  0  0
    0.5801    5.0498   -0.9045 H   0  0  0  0  0  0  0  0  0  0  0  0
    1.4951    4.6187    1.5368 H   0  0  0  0  0  0  0  0  0  0  0  0
   -1.4761    1.7956   -2.7554 H   0  0  0  0  0  0  0  0  0  0  0  0
   -4.1998    1.6821   -3.0388 H   0  0  0  0  0  0  0  0  0  0  0  0
   -4.7669   -1.0234   -3.0294 H   0  0  0  0  0  0  0  0  0  0  0  0
   -1.3012   -0.7512    0.3160 H   0  0  0  0  0  0  0  0  0  0  0  0
   -0.1176    0.5574    0.2541 H   0  0  0  0  0  0  0  0  0  0  0  0
   -1.2968    0.5607    2.4441 H   0  0  0  0  0  0  0  0  0  0  0  0
    0.4312    0.2616    2.6272 H   0  0  0  0  0  0  0  0  0  0  0  0
  1  2  1  0
  2  3  1  0
  3  4  1  0
  4  5  1  0
  5  6  1  0
  6  7  2  0
  6  8  1  0
  8  9  1  0
  9 10  1  0
 10 11  2  0
 11 12  1  0
 12 13  2  0
 13 14  1  0
  8 15  2  3
 15 16  1  0
 16 17  2  0
 16 18  1  0
 18 19  2  0
 19 20  1  0
 20 21  2  0
 21 22  1  0
  5 23  1  0
 23 24  1  0
 24  2  1  0
 14 10  1  0
 22 18  1  0
  1 25  1  0
  1 26  1  0
  1 27  1  0
  3 28  1  0
  3 29  1  0
  4 30  1  0
  4 31  1  0
  9 32  1  0
  9 33  1  0
 11 34  1  0
 12 35  1  0
 13 36  1  0
 19 37  1  0
 20 38  1  0
 21 39  1  0
 23 40  1  0
 23 41  1  0
 24 42  1  0
 24 43  1  0
M  END
$$$$
