
     RDKit          3D

 35 36  0  0  0  0  0  0  0  0999 V2000
   -5.2441    1.5508    0.6692 N   0  0  0  0  0  0  0  0  0  0  0  0
   -4.3288    0.8650   -0.0803 C   0  0  0  0  0  0  0  0  0  0  0  0
   -3.8555    1.4367   -1.3574 C   0  0  0  0  0  0  0  0  0  0  0  0
   -2.9825    0.6951   -2.0366 C   0  0  0  0  0  0  0  0  0  0  0  0
   -2.5614   -0.5191   -1.5488 N   0  0  0  0  0  0  0  0  0  0  0  0
   -1.5820   -1.3040   -2.2927 C   0  0  0  0  0  0  0  0  0  0  0  0
   -0.1774   -0.9766   -1.7915 C   0  0  0  0  0  0  0  0  0  0  0  0
    0.5297   -0.1270   -2.3293 O   0  0  0  0  0  0  0  0  0  0  0  0
    0.1935   -1.6676   -0.6560 N   0  0  0  0  0  0  0  0  0  0  0  0
    1.4347   -1.3785    0.0377 C   0  0  0  0  0  0  0  0  0  0  0  0
    1.3469   -0.1027    0.8728 C   0  0  0  0  0  0  0  0  0  0  0  0
    2.6693    0.2041    1.5223 C   0  0  0  0  0  0  0  0  0  0  0  0
    3.6023    1.0120    0.8760 C   0  0  0  0  0  0  0  0  0  0  0  0
    4.8237    1.2563    1.4969 C   0  0  0  0  0  0  0  0  0  0  0  0
    5.0821    0.6879    2.7379 C   0  0  0  0  0  0  0  0  0  0  0  0
    4.1036   -0.1082    3.3077 C   0  0  0  0  0  0  0  0  0  0  0  0
    2.9102   -0.3647    2.7283 N   0  0  0  0  0  0  0  0  0  0  0  0
   -2.9896   -1.0010   -0.3100 C   0  0  0  0  0  0  0  0  0  0  0  0
   -2.5238   -2.0454    0.1470 O   0  0  0  0  0  0  0  0  0  0  0  0
   -3.9155   -0.2696    0.3911 N   0  0  0  0  0  0  0  0  0  0  0  0
   -5.3181    1.1739    1.6101 H   0  0  0  0  0  0  0  0  0  0  0  0
   -5.1802    2.5611    0.6561 H   0  0  0  0  0  0  0  0  0  0  0  0
   -4.2234    2.3924   -1.6995 H   0  0  0  0  0  0  0  0  0  0  0  0
   -2.5757    1.0258   -2.9878 H   0  0  0  0  0  0  0  0  0  0  0  0
   -1.7768   -2.3754   -2.1674 H   0  0  0  0  0  0  0  0  0  0  0  0
   -1.6442   -1.0843   -3.3645 H   0  0  0  0  0  0  0  0  0  0  0  0
   -0.5483   -2.1358   -0.1312 H   0  0  0  0  0  0  0  0  0  0  0  0
    2.2328   -1.2967   -0.7099 H   0  0  0  0  0  0  0  0  0  0  0  0
    1.6585   -2.2440    0.6711 H   0  0  0  0  0  0  0  0  0  0  0  0
    1.0277    0.7497    0.2608 H   0  0  0  0  0  0  0  0  0  0  0  0
    0.5796   -0.2192    1.6487 H   0  0  0  0  0  0  0  0  0  0  0  0
    3.3854    1.4430   -0.0968 H   0  0  0  0  0  0  0  0  0  0  0  0
    5.5672    1.8840    1.0143 H   0  0  0  0  0  0  0  0  0  0  0  0
    6.0231    0.8589    3.2479 H   0  0  0  0  0  0  0  0  0  0  0  0
    4.2571   -0.5771    4.2753 H   0  0  0  0  0  0  0  0  0  0  0  0
  1  2  1  0
  2  3  1  0
  3  4  2  0
  4  5  1  0
  5  6  1  0
  6  7  1  0
  7  8  2  0
  7  9  1  0
  9 10  1  0
 10 11  1  0
 11 12  1  0
 12 13  2  0
 13 14  1  0
 14 15  2  0
 15 16  1  0
 16 17  2  0
  5 18  1  0
 18 19  2  0
 18 20  1  0
 20  2  2  0
 17 12  1  0
  1 21  1  0
  1 22  1  0
  3 23  1  0
  4 24  1  0
  6 25  1  0
  6 26  1  0
  9 27  1  0
 10 28  1  0
 10 29  1  0
 11 30  1  0
 11 31  1  0
 13 32  1  0
 14 33  1  0
 15 34  1  0
 16 35  1  0
M  END
$$$$
