
     RDKit          3D

 51 54  0  0  0  0  0  0  0  0999 V2000
   -6.4675   -2.7818    0.0032 C   0  0  0  0  0  0  0  0  0  0  0  0
   -5.7251   -1.7770   -0.8745 C   0  0  0  0  0  0  0  0  0  0  0  0
   -6.6699   -0.8269   -1.6112 C   0  0  0  0  0  0  0  0  0  0  0  0
   -4.6655   -1.0784   -0.1452 N   0  0  0  0  0  0  0  0  0  0  0  0
   -3.3309   -1.2491   -0.4310 C   0  0  0  0  0  0  0  0  0  0  0  0
   -2.5845   -0.4474    0.4105 C   0  0  0  0  0  0  0  0  0  0  0  0
   -1.1349   -0.3820    0.3582 C   0  0  0  0  0  0  0  0  0  0  0  0
   -0.5063    0.5135    1.0476 N   0  0  0  0  0  0  0  0  0  0  0  0
    0.8598    0.6307    0.9457 N   0  0  0  0  0  0  0  0  0  0  0  0
    1.6676    0.1863   -0.1018 C   0  0  0  0  0  0  0  0  0  0  0  0
    1.3044   -0.5364   -1.0272 O   0  0  0  0  0  0  0  0  0  0  0  0
    3.1127    0.6730    0.0229 C   0  0  0  0  0  0  0  0  0  0  0  0
    3.6068    0.9509   -1.2882 O   0  0  0  0  0  0  0  0  0  0  0  0
    4.9021    0.5191   -1.4777 C   0  0  0  0  0  0  0  0  0  0  0  0
    5.0889   -0.3038   -2.5930 C   0  0  0  0  0  0  0  0  0  0  0  0
    6.3557   -0.7817   -2.9001 C   0  0  0  0  0  0  0  0  0  0  0  0
    7.4355   -0.4055   -2.1153 C   0  0  0  0  0  0  0  0  0  0  0  0
    7.2578    0.4496   -1.0116 C   0  0  0  0  0  0  0  0  0  0  0  0
    8.3520    0.8612   -0.2383 C   0  0  0  0  0  0  0  0  0  0  0  0
    8.1625    1.7240    0.8376 C   0  0  0  0  0  0  0  0  0  0  0  0
    6.8765    2.1365    1.1144 C   0  0  0  0  0  0  0  0  0  0  0  0
    5.7971    1.7495    0.4041 N   0  0  0  0  0  0  0  0  0  0  0  0
    5.9739    0.9260   -0.6635 C   0  0  0  0  0  0  0  0  0  0  0  0
   -3.5162    0.2417    1.2516 C   0  0  0  0  0  0  0  0  0  0  0  0
   -3.3798    1.1846    2.2959 C   0  0  0  0  0  0  0  0  0  0  0  0
   -4.5129    1.6907    2.9389 C   0  0  0  0  0  0  0  0  0  0  0  0
   -5.7816    1.2687    2.5616 C   0  0  0  0  0  0  0  0  0  0  0  0
   -5.9506    0.3372    1.5346 C   0  0  0  0  0  0  0  0  0  0  0  0
   -4.8080   -0.1700    0.8862 C   0  0  0  0  0  0  0  0  0  0  0  0
   -5.7753   -3.5574    0.3495 H   0  0  0  0  0  0  0  0  0  0  0  0
   -6.9109   -2.3219    0.8897 H   0  0  0  0  0  0  0  0  0  0  0  0
   -7.2644   -3.2778   -0.5604 H   0  0  0  0  0  0  0  0  0  0  0  0
   -5.2141   -2.3645   -1.6508 H   0  0  0  0  0  0  0  0  0  0  0  0
   -7.3130   -0.2660   -0.9273 H   0  0  0  0  0  0  0  0  0  0  0  0
   -7.3214   -1.3911   -2.2855 H   0  0  0  0  0  0  0  0  0  0  0  0
   -6.1104   -0.1051   -2.2127 H   0  0  0  0  0  0  0  0  0  0  0  0
   -3.0141   -1.9104   -1.2237 H   0  0  0  0  0  0  0  0  0  0  0  0
   -0.6557   -1.1346   -0.2858 H   0  0  0  0  0  0  0  0  0  0  0  0
    1.2427    1.3092    1.6024 H   0  0  0  0  0  0  0  0  0  0  0  0
    3.6695   -0.1214    0.5370 H   0  0  0  0  0  0  0  0  0  0  0  0
    3.1509    1.5956    0.6163 H   0  0  0  0  0  0  0  0  0  0  0  0
    4.2335   -0.5765   -3.2080 H   0  0  0  0  0  0  0  0  0  0  0  0
    6.4991   -1.4393   -3.7501 H   0  0  0  0  0  0  0  0  0  0  0  0
    8.4243   -0.7755   -2.3745 H   0  0  0  0  0  0  0  0  0  0  0  0
    9.3578    0.5241   -0.4759 H   0  0  0  0  0  0  0  0  0  0  0  0
    9.0060    2.0682    1.4428 H   0  0  0  0  0  0  0  0  0  0  0  0
    6.6714    2.8138    1.9434 H   0  0  0  0  0  0  0  0  0  0  0  0
   -2.3918    1.5238    2.5991 H   0  0  0  0  0  0  0  0  0  0  0  0
   -4.3959    2.4181    3.7391 H   0  0  0  0  0  0  0  0  0  0  0  0
   -6.6562    1.6656    3.0743 H   0  0  0  0  0  0  0  0  0  0  0  0
   -6.9518    0.0199    1.2621 H   0  0  0  0  0  0  0  0  0  0  0  0
  1  2  1  0
  2  3  1  0
  2  4  1  0
  4  5  1  0
  5  6  2  0
  6  7  1  0
  7  8  2  3
  8  9  1  0
  9 10  1  0
 10 11  2  0
 10 12  1  0
 12 13  1  0
 13 14  1  0
 14 15  2  0
 15 16  1  0
 16 17  2  0
 17 18  1  0
 18 19  2  0
 19 20  1  0
 20 21  2  0
 21 22  1  0
 22 23  2  0
  6 24  1  0
 24 25  2  0
 25 26  1  0
 26 27  2  0
 27 28  1  0
 28 29  2  0
 29  4  1  0
 23 14  1  0
 29 24  1  0
 23 18  1  0
  1 30  1  0
  1 31  1  0
  1 32  1  0
  2 33  1  0
  3 34  1  0
  3 35  1  0
  3 36  1  0
  5 37  1  0
  7 38  1  0
  9 39  1  0
 12 40  1  0
 12 41  1  0
 15 42  1  0
 16 43  1  0
 17 44  1  0
 19 45  1  0
 20 46  1  0
 21 47  1  0
 25 48  1  0
 26 49  1  0
 27 50  1  0
 28 51  1  0
M  END
$$$$
