
     RDKit          3D

 30 31  0  0  0  0  0  0  0  0999 V2000
    5.0273    0.7544   -1.2762 N   0  0  0  0  0  0  0  0  0  0  0  0
    4.0133    0.5642   -0.7448 C   0  0  0  0  0  0  0  0  0  0  0  0
    2.7750    0.4081   -0.0584 C   0  0  0  0  0  0  0  0  0  0  0  0
    2.5660    1.0921    1.0820 C   0  0  0  0  0  0  0  0  0  0  0  0
    1.4034    0.9723    1.8859 C   0  0  0  0  0  0  0  0  0  0  0  0
    1.3109    0.7000    3.2486 C   0  0  0  0  0  0  0  0  0  0  0  0
   -0.0608    0.7089    3.6094 C   0  0  0  0  0  0  0  0  0  0  0  0
   -0.7287    1.0138    2.4525 C   0  0  0  0  0  0  0  0  0  0  0  0
   -2.1165    1.1938    2.1683 N   0  0  0  0  0  4  0  0  0  0  0  0
   -2.9012    0.9790    3.1009 O   0  0  0  0  0  0  0  0  0  0  0  0
   -2.4239    1.5627    1.0271 O   0  0  0  0  0  1  0  0  0  0  0  0
    0.1270    1.1809    1.4115 O   0  0  0  0  0  0  0  0  0  0  0  0
    1.8570   -0.6322   -0.6064 C   0  0  0  0  0  0  0  0  0  0  0  0
    2.2670   -1.7829   -0.7074 O   0  0  0  0  0  0  0  0  0  0  0  0
    0.6192   -0.1564   -0.9835 N   0  0  0  0  0  0  0  0  0  0  0  0
   -0.4366   -0.8884   -1.5680 C   0  0  0  0  0  0  0  0  0  0  0  0
   -0.3535   -2.2398   -1.9173 C   0  0  0  0  0  0  0  0  0  0  0  0
   -1.4501   -2.8916   -2.4915 C   0  0  0  0  0  0  0  0  0  0  0  0
   -2.6278   -2.1921   -2.7163 C   0  0  0  0  0  0  0  0  0  0  0  0
   -3.6764   -2.8191   -3.2645 F   0  0  0  0  0  0  0  0  0  0  0  0
   -2.7303   -0.8500   -2.3797 C   0  0  0  0  0  0  0  0  0  0  0  0
   -1.6342   -0.1984   -1.8086 C   0  0  0  0  0  0  0  0  0  0  0  0
    3.3445    1.7548    1.4572 H   0  0  0  0  0  0  0  0  0  0  0  0
    2.1488    0.5039    3.9065 H   0  0  0  0  0  0  0  0  0  0  0  0
   -0.4984    0.5289    4.5822 H   0  0  0  0  0  0  0  0  0  0  0  0
    0.4112    0.8151   -0.7760 H   0  0  0  0  0  0  0  0  0  0  0  0
    0.5506   -2.8197   -1.7609 H   0  0  0  0  0  0  0  0  0  0  0  0
   -1.3867   -3.9406   -2.7633 H   0  0  0  0  0  0  0  0  0  0  0  0
   -3.6591   -0.3183   -2.5598 H   0  0  0  0  0  0  0  0  0  0  0  0
   -1.7370    0.8529   -1.5497 H   0  0  0  0  0  0  0  0  0  0  0  0
  1  2  3  0
  2  3  1  0
  3  4  2  3
  4  5  1  0
  5  6  2  0
  6  7  1  0
  7  8  2  0
  8  9  1  0
  9 10  2  0
  9 11  1  0
  8 12  1  0
  3 13  1  0
 13 14  2  0
 13 15  1  0
 15 16  1  0
 16 17  2  0
 17 18  1  0
 18 19  2  0
 19 20  1  0
 19 21  1  0
 21 22  2  0
 12  5  1  0
 22 16  1  0
  4 23  1  0
  6 24  1  0
  7 25  1  0
 15 26  1  0
 17 27  1  0
 18 28  1  0
 21 29  1  0
 22 30  1  0
M  CHG  2   9   1  11  -1
M  END
$$$$
