
     RDKit          3D

 50 53  0  0  0  0  0  0  0  0999 V2000
    5.3399   -0.8720    1.7492 C   0  0  0  0  0  0  0  0  0  0  0  0
    4.0107   -0.3263    2.0896 C   0  0  0  0  0  0  0  0  0  0  0  0
    3.0615   -0.6495    3.0359 C   0  0  0  0  0  0  0  0  0  0  0  0
    1.9800    0.2427    2.8365 C   0  0  0  0  0  0  0  0  0  0  0  0
    2.3361    1.0552    1.7796 C   0  0  0  0  0  0  0  0  0  0  0  0
    1.6555    2.1688    1.0754 C   0  0  0  0  0  0  0  0  0  0  0  0
    0.8857    1.6705   -0.0685 N   0  0  0  0  0  0  0  0  0  0  0  0
    1.6302    1.3489   -1.2902 C   0  0  0  0  0  0  0  0  0  0  0  0
    1.9957   -0.1005   -1.4922 C   0  0  0  0  0  0  0  0  0  0  0  0
    1.5318   -1.1610   -0.7081 C   0  0  0  0  0  0  0  0  0  0  0  0
    1.9269   -2.4663   -0.9935 C   0  0  0  0  0  0  0  0  0  0  0  0
    2.7855   -2.6749   -2.0601 C   0  0  0  0  0  0  0  0  0  0  0  0
    3.2496   -1.6864   -2.8487 N   0  0  0  0  0  0  0  0  0  0  0  0
    2.8483   -0.4303   -2.5469 C   0  0  0  0  0  0  0  0  0  0  0  0
   -0.4937    1.5338    0.0777 C   0  0  0  0  0  0  0  0  0  0  0  0
   -1.0419    1.7194    1.1694 O   0  0  0  0  0  0  0  0  0  0  0  0
   -1.3026    1.1309   -1.1722 C   0  0  0  0  0  0  0  0  0  0  0  0
   -2.7375    1.1036   -0.9067 N   0  0  0  0  0  0  0  0  0  0  0  0
   -3.4414    2.2919   -1.0525 C   0  0  0  0  0  0  0  0  0  0  0  0
   -2.9359    3.3340   -1.4750 O   0  0  0  0  0  0  0  0  0  0  0  0
   -4.8853    2.2447   -0.5640 C   0  0  0  0  0  0  0  0  0  0  0  0
   -5.5816    1.0158   -0.6645 O   0  0  0  0  0  0  0  0  0  0  0  0
   -4.8013   -0.0566   -0.3243 C   0  0  0  0  0  0  0  0  0  0  0  0
   -5.4956   -1.1975    0.0827 C   0  0  0  0  0  0  0  0  0  0  0  0
   -4.7989   -2.3518    0.4283 C   0  0  0  0  0  0  0  0  0  0  0  0
   -3.4091   -2.3651    0.3563 C   0  0  0  0  0  0  0  0  0  0  0  0
   -2.7141   -1.2280   -0.0704 C   0  0  0  0  0  0  0  0  0  0  0  0
   -3.4007   -0.0586   -0.4236 C   0  0  0  0  0  0  0  0  0  0  0  0
    3.5801    0.7199    1.3308 O   0  0  0  0  0  0  0  0  0  0  0  0
    6.1138   -0.1137    1.8992 H   0  0  0  0  0  0  0  0  0  0  0  0
    5.5815   -1.7375    2.3744 H   0  0  0  0  0  0  0  0  0  0  0  0
    5.3674   -1.1901    0.7013 H   0  0  0  0  0  0  0  0  0  0  0  0
    3.1379   -1.4359    3.7744 H   0  0  0  0  0  0  0  0  0  0  0  0
    1.0483    0.2895    3.3846 H   0  0  0  0  0  0  0  0  0  0  0  0
    2.3817    2.9063    0.7142 H   0  0  0  0  0  0  0  0  0  0  0  0
    1.0020    2.6988    1.7778 H   0  0  0  0  0  0  0  0  0  0  0  0
    1.0378    1.6696   -2.1527 H   0  0  0  0  0  0  0  0  0  0  0  0
    2.5448    1.9536   -1.2991 H   0  0  0  0  0  0  0  0  0  0  0  0
    0.8865   -0.9884    0.1516 H   0  0  0  0  0  0  0  0  0  0  0  0
    1.5871   -3.2970   -0.3871 H   0  0  0  0  0  0  0  0  0  0  0  0
    3.1309   -3.6729   -2.3165 H   0  0  0  0  0  0  0  0  0  0  0  0
    3.2537    0.3357   -3.2041 H   0  0  0  0  0  0  0  0  0  0  0  0
   -1.1114    1.8766   -1.9526 H   0  0  0  0  0  0  0  0  0  0  0  0
   -0.9734    0.1644   -1.5609 H   0  0  0  0  0  0  0  0  0  0  0  0
   -4.9017    2.5796    0.4819 H   0  0  0  0  0  0  0  0  0  0  0  0
   -5.4516    2.9750   -1.1526 H   0  0  0  0  0  0  0  0  0  0  0  0
   -6.5815   -1.1808    0.1340 H   0  0  0  0  0  0  0  0  0  0  0  0
   -5.3385   -3.2358    0.7542 H   0  0  0  0  0  0  0  0  0  0  0  0
   -2.8612   -3.2634    0.6307 H   0  0  0  0  0  0  0  0  0  0  0  0
   -1.6320   -1.2888   -0.1025 H   0  0  0  0  0  0  0  0  0  0  0  0
  1  2  1  0
  2  3  2  0
  3  4  1  0
  4  5  2  0
  5  6  1  0
  6  7  1  0
  7  8  1  0
  8  9  1  0
  9 10  2  0
 10 11  1  0
 11 12  2  0
 12 13  1  0
 13 14  2  0
  7 15  1  0
 15 16  2  0
 15 17  1  0
 17 18  1  0
 18 19  1  0
 19 20  2  0
 19 21  1  0
 21 22  1  0
 22 23  1  0
 23 24  2  0
 24 25  1  0
 25 26  2  0
 26 27  1  0
 27 28  2  0
  5 29  1  0
 29  2  1  0
 14  9  1  0
 28 18  1  0
 28 23  1  0
  1 30  1  0
  1 31  1  0
  1 32  1  0
  3 33  1  0
  4 34  1  0
  6 35  1  0
  6 36  1  0
  8 37  1  0
  8 38  1  0
 10 39  1  0
 11 40  1  0
 12 41  1  0
 14 42  1  0
 17 43  1  0
 17 44  1  0
 21 45  1  0
 21 46  1  0
 24 47  1  0
 25 48  1  0
 26 49  1  0
 27 50  1  0
M  END
$$$$
