
     RDKit          3D

 36 38  0  0  0  0  0  0  0  0999 V2000
   -2.4785    4.2395    1.5948 N   0  0  0  0  0  0  0  0  0  0  0  0
   -1.7799    3.3462    1.3396 C   0  0  0  0  0  0  0  0  0  0  0  0
   -0.9488    2.2253    1.0495 C   0  0  0  0  0  0  0  0  0  0  0  0
    0.3171    2.3974    0.5310 N   0  0  0  0  0  0  0  0  0  0  0  0
    0.7525    1.1618    0.3816 C   0  0  0  0  0  0  0  0  0  0  0  0
    2.0708    0.6905   -0.1249 C   0  0  0  0  0  0  0  0  0  0  0  0
    1.8238   -0.0736   -1.3059 O   0  0  0  0  0  0  0  0  0  0  0  0
    2.9058   -0.3324   -2.1061 C   0  0  0  0  0  0  0  0  0  0  0  0
    4.2219   -0.3975   -1.6366 C   0  0  0  0  0  0  0  0  0  0  0  0
    5.2698   -0.6833   -2.5181 C   0  0  0  0  0  0  0  0  0  0  0  0
    5.0052   -0.9103   -3.8676 C   0  0  0  0  0  0  0  0  0  0  0  0
    6.3018   -1.2593   -4.9429 Cl  0  0  0  0  0  0  0  0  0  0  0  0
    3.7005   -0.8654   -4.3477 C   0  0  0  0  0  0  0  0  0  0  0  0
    2.6544   -0.5842   -3.4660 C   0  0  0  0  0  0  0  0  0  0  0  0
    1.0472   -0.5413   -4.1026 Cl  0  0  0  0  0  0  0  0  0  0  0  0
   -0.1282    0.1982    0.7902 O   0  0  0  0  0  0  0  0  0  0  0  0
   -1.2397    0.8824    1.2138 C   0  0  0  0  0  0  0  0  0  0  0  0
   -2.2771    0.1399    1.6782 N   0  0  0  0  0  0  0  0  0  0  0  0
   -3.4876    0.7492    2.2435 C   0  0  0  0  0  0  0  0  0  0  0  0
   -4.2973   -0.3046    3.0172 C   0  0  0  0  0  0  0  0  0  0  0  0
   -4.7089   -1.4217    2.2179 O   0  0  0  0  0  0  0  0  0  0  0  0
   -3.8177   -1.7075    1.1305 C   0  0  0  0  0  0  0  0  0  0  0  0
   -2.3583   -1.3013    1.3929 C   0  0  0  0  0  0  0  0  0  0  0  0
    2.5452    0.0643    0.6382 H   0  0  0  0  0  0  0  0  0  0  0  0
    2.7032    1.5591   -0.3437 H   0  0  0  0  0  0  0  0  0  0  0  0
    4.4649   -0.2505   -0.5887 H   0  0  0  0  0  0  0  0  0  0  0  0
    6.2901   -0.7357   -2.1437 H   0  0  0  0  0  0  0  0  0  0  0  0
    3.4972   -1.0509   -5.3989 H   0  0  0  0  0  0  0  0  0  0  0  0
   -4.0966    1.1603    1.4297 H   0  0  0  0  0  0  0  0  0  0  0  0
   -3.2284    1.5567    2.9360 H   0  0  0  0  0  0  0  0  0  0  0  0
   -3.7077   -0.6986    3.8536 H   0  0  0  0  0  0  0  0  0  0  0  0
   -5.2009    0.1473    3.4392 H   0  0  0  0  0  0  0  0  0  0  0  0
   -4.2041   -1.1902    0.2445 H   0  0  0  0  0  0  0  0  0  0  0  0
   -3.8789   -2.7814    0.9299 H   0  0  0  0  0  0  0  0  0  0  0  0
   -1.7622   -1.5809    0.5163 H   0  0  0  0  0  0  0  0  0  0  0  0
   -1.9707   -1.8477    2.2600 H   0  0  0  0  0  0  0  0  0  0  0  0
  1  2  3  0
  2  3  1  0
  3  4  1  0
  4  5  2  0
  5  6  1  0
  6  7  1  0
  7  8  1  0
  8  9  2  0
  9 10  1  0
 10 11  2  0
 11 12  1  0
 11 13  1  0
 13 14  2  0
 14 15  1  0
  5 16  1  0
 16 17  1  0
 17 18  1  0
 18 19  1  0
 19 20  1  0
 20 21  1  0
 21 22  1  0
 22 23  1  0
 17  3  2  0
 23 18  1  0
 14  8  1  0
  6 24  1  0
  6 25  1  0
  9 26  1  0
 10 27  1  0
 13 28  1  0
 19 29  1  0
 19 30  1  0
 20 31  1  0
 20 32  1  0
 22 33  1  0
 22 34  1  0
 23 35  1  0
 23 36  1  0
M  END
$$$$
