
     RDKit          3D

 53 56  0  0  0  0  0  0  0  0999 V2000
    5.0184   -3.7328    0.4297 C   0  0  0  0  0  0  0  0  0  0  0  0
    3.7216   -3.1532    0.4735 O   0  0  0  0  0  0  0  0  0  0  0  0
    3.4371   -2.1998   -0.4611 C   0  0  0  0  0  0  0  0  0  0  0  0
    4.2747   -1.7879   -1.4944 C   0  0  0  0  0  0  0  0  0  0  0  0
    3.8591   -0.7942   -2.3834 C   0  0  0  0  0  0  0  0  0  0  0  0
    2.5993   -0.2013   -2.2573 C   0  0  0  0  0  0  0  0  0  0  0  0
    2.1189    0.7883   -3.0698 O   0  0  0  0  0  0  0  0  0  0  0  0
    2.9906    1.3029   -4.0684 C   0  0  0  0  0  0  0  0  0  0  0  0
    1.7365   -0.6295   -1.2343 C   0  0  0  0  0  0  0  0  0  0  0  0
    0.3595   -0.0356   -1.0433 C   0  0  0  0  0  0  0  0  0  0  0  0
    0.3960    1.0348   -0.0281 N   0  0  0  0  0  0  0  0  0  0  0  0
   -0.9100    1.5944    0.1654 N   0  0  0  0  0  0  0  0  0  0  0  0
   -1.8387    1.0064    1.0355 C   0  0  0  0  0  0  0  0  0  0  0  0
   -1.4376   -0.1669    1.8578 C   0  0  0  0  0  0  0  0  0  0  0  0
   -0.2919   -0.1390    2.6578 C   0  0  0  0  0  0  0  0  0  0  0  0
    0.0452   -1.2514    3.4254 C   0  0  0  0  0  0  0  0  0  0  0  0
   -0.7667   -2.3867    3.4040 C   0  0  0  0  0  0  0  0  0  0  0  0
   -1.9224   -2.4233    2.6149 C   0  0  0  0  0  0  0  0  0  0  0  0
   -2.8122   -3.6292    2.6238 C   0  0  0  0  0  0  0  0  0  0  0  0
   -2.2643   -1.2968    1.8577 C   0  0  0  0  0  0  0  0  0  0  0  0
   -3.0604    1.4367    1.1463 N   0  0  0  0  0  0  0  0  0  0  0  0
   -3.4499    2.5598    0.4037 C   0  0  0  0  0  0  0  0  0  0  0  0
   -4.7655    3.0152    0.5235 C   0  0  0  0  0  0  0  0  0  0  0  0
   -5.1974    4.1431   -0.1827 C   0  0  0  0  0  0  0  0  0  0  0  0
   -4.3124    4.8295   -1.0164 C   0  0  0  0  0  0  0  0  0  0  0  0
   -2.9973    4.3851   -1.1475 C   0  0  0  0  0  0  0  0  0  0  0  0
   -2.5774    3.2525   -0.4371 C   0  0  0  0  0  0  0  0  0  0  0  0
   -1.2008    2.7482   -0.5695 C   0  0  0  0  0  0  0  0  0  0  0  0
   -0.3859    3.3290   -1.2901 O   0  0  0  0  0  0  0  0  0  0  0  0
    2.1744   -1.6198   -0.3372 C   0  0  0  0  0  0  0  0  0  0  0  0
    5.1001   -4.4372    1.2682 H   0  0  0  0  0  0  0  0  0  0  0  0
    5.1622   -4.3009   -0.4973 H   0  0  0  0  0  0  0  0  0  0  0  0
    5.7980   -2.9713    0.5526 H   0  0  0  0  0  0  0  0  0  0  0  0
    5.2593   -2.2193   -1.6402 H   0  0  0  0  0  0  0  0  0  0  0  0
    4.5463   -0.5102   -3.1697 H   0  0  0  0  0  0  0  0  0  0  0  0
    2.4517    2.0879   -4.6096 H   0  0  0  0  0  0  0  0  0  0  0  0
    3.8837    1.7565   -3.6218 H   0  0  0  0  0  0  0  0  0  0  0  0
    3.2595    0.5273   -4.7918 H   0  0  0  0  0  0  0  0  0  0  0  0
   -0.0433    0.3389   -1.9999 H   0  0  0  0  0  0  0  0  0  0  0  0
   -0.3219   -0.8444   -0.7314 H   0  0  0  0  0  0  0  0  0  0  0  0
    0.9698    1.7905   -0.4320 H   0  0  0  0  0  0  0  0  0  0  0  0
    0.3422    0.7427    2.6876 H   0  0  0  0  0  0  0  0  0  0  0  0
    0.9400   -1.2358    4.0418 H   0  0  0  0  0  0  0  0  0  0  0  0
   -0.4903   -3.2444    4.0121 H   0  0  0  0  0  0  0  0  0  0  0  0
   -2.2409   -4.5329    2.8500 H   0  0  0  0  0  0  0  0  0  0  0  0
   -3.5987   -3.5084    3.3753 H   0  0  0  0  0  0  0  0  0  0  0  0
   -3.2756   -3.7742    1.6438 H   0  0  0  0  0  0  0  0  0  0  0  0
   -3.1707   -1.2980    1.2585 H   0  0  0  0  0  0  0  0  0  0  0  0
   -5.4563    2.4861    1.1755 H   0  0  0  0  0  0  0  0  0  0  0  0
   -6.2241    4.4856   -0.0780 H   0  0  0  0  0  0  0  0  0  0  0  0
   -4.6473    5.7080   -1.5660 H   0  0  0  0  0  0  0  0  0  0  0  0
   -2.3039    4.9155   -1.8002 H   0  0  0  0  0  0  0  0  0  0  0  0
    1.5200   -1.9406    0.4741 H   0  0  0  0  0  0  0  0  0  0  0  0
  1  2  1  0
  2  3  1  0
  3  4  2  0
  4  5  1  0
  5  6  2  0
  6  7  1  0
  7  8  1  0
  6  9  1  0
  9 10  1  0
 10 11  1  0
 11 12  1  0
 12 13  1  0
 13 14  1  0
 14 15  2  0
 15 16  1  0
 16 17  2  0
 17 18  1  0
 18 19  1  0
 18 20  2  0
 13 21  2  0
 21 22  1  0
 22 23  2  0
 23 24  1  0
 24 25  2  0
 25 26  1  0
 26 27  2  0
 27 28  1  0
 28 29  2  0
  9 30  2  0
 30  3  1  0
 28 12  1  0
 20 14  1  0
 27 22  1  0
  1 31  1  0
  1 32  1  0
  1 33  1  0
  4 34  1  0
  5 35  1  0
  8 36  1  0
  8 37  1  0
  8 38  1  0
 10 39  1  0
 10 40  1  0
 11 41  1  0
 15 42  1  0
 16 43  1  0
 17 44  1  0
 19 45  1  0
 19 46  1  0
 19 47  1  0
 20 48  1  0
 23 49  1  0
 24 50  1  0
 25 51  1  0
 26 52  1  0
 30 53  1  0
M  END
$$$$
