
     RDKit          3D

 47 50  0  0  0  0  0  0  0  0999 V2000
   -6.0403    1.5872   -1.3752 C   0  0  0  0  0  0  0  0  0  0  0  0
   -5.8989    0.1028   -1.0645 C   0  0  0  0  0  0  0  0  0  0  0  0
   -5.1333   -0.1263    0.1747 N   0  0  0  0  0  0  0  0  0  0  0  0
   -5.8690    0.1023    1.4277 C   0  0  0  0  0  0  0  0  0  0  0  0
   -5.5460   -0.9689    2.4606 C   0  0  0  0  0  0  0  0  0  0  0  0
   -3.7508    0.0747    0.1100 C   0  0  0  0  0  0  0  0  0  0  0  0
   -2.9914   -0.5223   -0.9106 C   0  0  0  0  0  0  0  0  0  0  0  0
   -1.6041   -0.3501   -1.0068 C   0  0  0  0  0  0  0  0  0  0  0  0
   -0.9264    0.4235   -0.0666 C   0  0  0  0  0  0  0  0  0  0  0  0
    0.5213    0.6310   -0.1466 C   0  0  0  0  0  0  0  0  0  0  0  0
    1.4592   -0.3069    0.0462 C   0  0  0  0  0  0  0  0  0  0  0  0
    1.2129   -1.9899    0.4522 S   0  0  0  0  0  0  0  0  0  0  0  0
    2.9120   -2.2217    0.4744 C   0  0  0  0  0  0  0  0  0  0  0  0
    3.6983   -3.2215    0.7513 N   0  0  0  0  0  0  0  0  0  0  0  0
    4.9920   -2.7365    0.6099 N   0  0  0  0  0  0  0  0  0  0  0  0
    4.9351   -1.4648    0.2279 C   0  0  0  0  0  0  0  0  0  0  0  0
    6.0718   -0.5964   -0.0493 C   0  0  0  0  0  0  0  0  0  0  0  0
    6.9801   -0.3357    0.9892 C   0  0  0  0  0  0  0  0  0  0  0  0
    8.0855    0.4918    0.7797 C   0  0  0  0  0  0  0  0  0  0  0  0
    8.3026    1.0606   -0.4729 C   0  0  0  0  0  0  0  0  0  0  0  0
    7.4212    0.7936   -1.5206 C   0  0  0  0  0  0  0  0  0  0  0  0
    6.3139   -0.0362   -1.3147 C   0  0  0  0  0  0  0  0  0  0  0  0
    5.3001   -0.3698   -2.6786 Cl  0  0  0  0  0  0  0  0  0  0  0  0
    3.6136   -1.1056    0.1782 N   0  0  0  0  0  0  0  0  0  0  0  0
    2.9056    0.0472   -0.0524 C   0  0  0  0  0  0  0  0  0  0  0  0
    3.4322    1.1234   -0.2613 O   0  0  0  0  0  0  0  0  0  0  0  0
   -1.6543    1.0254    0.9581 C   0  0  0  0  0  0  0  0  0  0  0  0
   -3.0423    0.8442    1.0449 C   0  0  0  0  0  0  0  0  0  0  0  0
   -6.5286    2.1211   -0.5536 H   0  0  0  0  0  0  0  0  0  0  0  0
   -6.6452    1.7274   -2.2766 H   0  0  0  0  0  0  0  0  0  0  0  0
   -5.0654    2.0545   -1.5475 H   0  0  0  0  0  0  0  0  0  0  0  0
   -5.4563   -0.4126   -1.9230 H   0  0  0  0  0  0  0  0  0  0  0  0
   -6.8991   -0.3352   -0.9564 H   0  0  0  0  0  0  0  0  0  0  0  0
   -6.9484    0.0473    1.2371 H   0  0  0  0  0  0  0  0  0  0  0  0
   -5.6931    1.1077    1.8256 H   0  0  0  0  0  0  0  0  0  0  0  0
   -5.7512   -1.9683    2.0624 H   0  0  0  0  0  0  0  0  0  0  0  0
   -6.1600   -0.8264    3.3556 H   0  0  0  0  0  0  0  0  0  0  0  0
   -4.4965   -0.9408    2.7676 H   0  0  0  0  0  0  0  0  0  0  0  0
   -3.4708   -1.1706   -1.6391 H   0  0  0  0  0  0  0  0  0  0  0  0
   -1.0703   -0.8361   -1.8196 H   0  0  0  0  0  0  0  0  0  0  0  0
    0.8163    1.6563   -0.3678 H   0  0  0  0  0  0  0  0  0  0  0  0
    6.8307   -0.7813    1.9718 H   0  0  0  0  0  0  0  0  0  0  0  0
    8.7789    0.6880    1.5944 H   0  0  0  0  0  0  0  0  0  0  0  0
    9.1638    1.7039   -0.6373 H   0  0  0  0  0  0  0  0  0  0  0  0
    7.6070    1.2292   -2.4994 H   0  0  0  0  0  0  0  0  0  0  0  0
   -1.1570    1.6389    1.7056 H   0  0  0  0  0  0  0  0  0  0  0  0
   -3.5555    1.3418    1.8614 H   0  0  0  0  0  0  0  0  0  0  0  0
  1  2  1  0
  2  3  1  0
  3  4  1  0
  4  5  1  0
  3  6  1  0
  6  7  2  0
  7  8  1  0
  8  9  2  0
  9 10  1  0
 10 11  2  3
 11 12  1  0
 12 13  1  0
 13 14  2  0
 14 15  1  0
 15 16  2  0
 16 17  1  0
 17 18  2  0
 18 19  1  0
 19 20  2  0
 20 21  1  0
 21 22  2  0
 22 23  1  0
 16 24  1  0
 24 25  1  0
 25 26  2  0
  9 27  1  0
 27 28  2  0
 28  6  1  0
 25 11  1  0
 24 13  1  0
 22 17  1  0
  1 29  1  0
  1 30  1  0
  1 31  1  0
  2 32  1  0
  2 33  1  0
  4 34  1  0
  4 35  1  0
  5 36  1  0
  5 37  1  0
  5 38  1  0
  7 39  1  0
  8 40  1  0
 10 41  1  0
 18 42  1  0
 19 43  1  0
 20 44  1  0
 21 45  1  0
 27 46  1  0
 28 47  1  0
M  END
$$$$
