
     RDKit          3D

 39 40  0  0  0  0  0  0  0  0999 V2000
   -6.7073   -0.5259    2.2719 N   0  0  0  0  0  0  0  0  0  0  0  0
   -6.6287   -1.2698    0.7621 S   0  0  0  0  0  6  0  0  0  0  0  0
   -6.7285   -2.6954    0.9606 O   0  0  0  0  0  0  0  0  0  0  0  0
   -7.5461   -0.5328   -0.0768 O   0  0  0  0  0  0  0  0  0  0  0  0
   -4.9717   -0.8846    0.2646 C   0  0  0  0  0  0  0  0  0  0  0  0
   -4.7350    0.1736   -0.6155 C   0  0  0  0  0  0  0  0  0  0  0  0
   -3.4260    0.4633   -1.0043 C   0  0  0  0  0  0  0  0  0  0  0  0
   -2.3558   -0.3060   -0.5247 C   0  0  0  0  0  0  0  0  0  0  0  0
   -0.9376    0.0113   -0.9348 C   0  0  0  0  0  0  0  0  0  0  0  0
   -0.2752    0.9922    0.0368 C   0  0  0  0  0  0  0  0  0  0  0  0
    1.0918    1.3157   -0.3391 N   0  0  0  0  0  0  0  0  0  0  0  0
    2.1002    0.3943   -0.1167 C   0  0  0  0  0  0  0  0  0  0  0  0
    1.8868   -0.7190    0.3419 O   0  0  0  0  0  0  0  0  0  0  0  0
    3.3186    0.9121   -0.4996 N   0  0  0  0  0  0  0  0  0  0  0  0
    4.5865    0.3135   -0.3600 C   0  0  0  0  0  0  0  0  0  0  0  0
    4.8157   -0.8592    0.3621 C   0  0  0  0  0  0  0  0  0  0  0  0
    6.1066   -1.3907    0.4644 C   0  0  0  0  0  0  0  0  0  0  0  0
    7.1835   -0.7515   -0.1510 C   0  0  0  0  0  0  0  0  0  0  0  0
    8.7486   -1.4607    0.0174 Cl  0  0  0  0  0  0  0  0  0  0  0  0
    6.9643    0.4262   -0.8700 C   0  0  0  0  0  0  0  0  0  0  0  0
    8.2430    1.2826   -1.6574 Cl  0  0  0  0  0  0  0  0  0  0  0  0
    5.6711    0.9551   -0.9708 C   0  0  0  0  0  0  0  0  0  0  0  0
   -2.6112   -1.3685    0.3553 C   0  0  0  0  0  0  0  0  0  0  0  0
   -3.9174   -1.6643    0.7462 C   0  0  0  0  0  0  0  0  0  0  0  0
   -7.4012    0.2225    2.2331 H   0  0  0  0  0  0  0  0  0  0  0  0
   -5.8030   -0.1928    2.6031 H   0  0  0  0  0  0  0  0  0  0  0  0
   -5.5568    0.7690   -1.0077 H   0  0  0  0  0  0  0  0  0  0  0  0
   -3.2462    1.2861   -1.6938 H   0  0  0  0  0  0  0  0  0  0  0  0
   -0.3646   -0.9214   -1.0037 H   0  0  0  0  0  0  0  0  0  0  0  0
   -0.9323    0.4302   -1.9495 H   0  0  0  0  0  0  0  0  0  0  0  0
   -0.2706    0.5932    1.0583 H   0  0  0  0  0  0  0  0  0  0  0  0
   -0.8298    1.9376    0.0547 H   0  0  0  0  0  0  0  0  0  0  0  0
    1.3690    2.2749   -0.1900 H   0  0  0  0  0  0  0  0  0  0  0  0
    3.2657    1.7420   -1.0719 H   0  0  0  0  0  0  0  0  0  0  0  0
    4.0094   -1.3869    0.8645 H   0  0  0  0  0  0  0  0  0  0  0  0
    6.2593   -2.3071    1.0303 H   0  0  0  0  0  0  0  0  0  0  0  0
    5.5199    1.8723   -1.5344 H   0  0  0  0  0  0  0  0  0  0  0  0
   -1.7900   -1.9785    0.7304 H   0  0  0  0  0  0  0  0  0  0  0  0
   -4.1050   -2.5033    1.4139 H   0  0  0  0  0  0  0  0  0  0  0  0
  1  2  1  0
  2  3  2  0
  2  4  2  0
  2  5  1  0
  5  6  2  0
  6  7  1  0
  7  8  2  0
  8  9  1  0
  9 10  1  0
 10 11  1  0
 11 12  1  0
 12 13  2  0
 12 14  1  0
 14 15  1  0
 15 16  2  0
 16 17  1  0
 17 18  2  0
 18 19  1  0
 18 20  1  0
 20 21  1  0
 20 22  2  0
  8 23  1  0
 23 24  2  0
 24  5  1  0
 22 15  1  0
  1 25  1  0
  1 26  1  0
  6 27  1  0
  7 28  1  0
  9 29  1  0
  9 30  1  0
 10 31  1  0
 10 32  1  0
 11 33  1  0
 14 34  1  0
 16 35  1  0
 17 36  1  0
 22 37  1  0
 23 38  1  0
 24 39  1  0
M  END
$$$$
