
     RDKit          3D

 60 63  0  0  0  0  0  0  0  0999 V2000
   -9.2521    1.3086   -0.2413 C   0  0  0  0  0  0  0  0  0  0  0  0
   -7.9793    1.1777    0.5931 C   0  0  0  0  0  0  0  0  0  0  0  0
   -8.3380    1.0116    2.0669 C   0  0  0  0  0  0  0  0  0  0  0  0
   -7.2984    0.0103    0.1226 O   0  0  0  0  0  0  0  0  0  0  0  0
   -5.9383   -0.0548    0.2198 C   0  0  0  0  0  0  0  0  0  0  0  0
   -5.3663   -1.1655   -0.3991 C   0  0  0  0  0  0  0  0  0  0  0  0
   -3.9810   -1.3634   -0.3780 C   0  0  0  0  0  0  0  0  0  0  0  0
   -3.1207   -0.4552    0.2616 C   0  0  0  0  0  0  0  0  0  0  0  0
   -1.6584   -0.6740    0.2674 C   0  0  0  0  0  0  0  0  0  0  0  0
   -0.7400    0.3603    0.3015 C   0  0  0  0  0  0  0  0  0  0  0  0
    0.6204    0.0483    0.2940 C   0  0  0  0  0  0  0  0  0  0  0  0
    1.5424    1.2046    0.2772 C   0  0  0  0  0  0  0  0  0  0  0  0
    1.4632    2.0599    1.1501 O   0  0  0  0  0  0  0  0  0  0  0  0
    2.4045    1.2609   -0.7934 N   0  0  0  0  0  0  0  0  0  0  0  0
    3.4366    2.2778   -0.8837 C   0  0  0  0  0  0  0  0  0  0  0  0
    4.7194    1.8784   -0.1273 C   0  0  0  0  0  0  0  0  0  0  0  0
    5.2902    0.5908   -0.5749 N   0  0  0  0  0  0  0  0  0  0  0  0
    6.2498    0.0796    0.4296 C   0  0  0  0  0  0  0  0  0  0  0  0
    7.1722   -0.9918   -0.1687 C   0  0  0  0  0  0  0  0  0  0  0  0
    8.0107   -0.4849   -1.2158 O   0  0  0  0  0  0  0  0  0  0  0  0
    7.4621    0.6657   -1.8696 C   0  0  0  0  0  0  0  0  0  0  0  0
    5.9245    0.6612   -1.9097 C   0  0  0  0  0  0  0  0  0  0  0  0
    1.0627   -1.2911    0.2953 C   0  0  0  0  0  0  0  0  0  0  0  0
    2.4171   -1.7069    0.3636 C   0  0  0  0  0  0  0  0  0  0  0  0
    2.7590   -3.0573    0.3442 C   0  0  0  0  0  0  0  0  0  0  0  0
    1.7563   -4.0121    0.2687 C   0  0  0  0  0  0  0  0  0  0  0  0
    0.4201   -3.6082    0.2239 C   0  0  0  0  0  0  0  0  0  0  0  0
    0.0537   -2.2688    0.2434 C   0  0  0  0  0  0  0  0  0  0  0  0
   -1.2558   -1.9684    0.2164 N   0  0  0  0  0  0  0  0  0  0  0  0
   -3.7181    0.6497    0.8945 C   0  0  0  0  0  0  0  0  0  0  0  0
   -5.1075    0.8492    0.8745 C   0  0  0  0  0  0  0  0  0  0  0  0
   -9.8389    2.1811    0.0615 H   0  0  0  0  0  0  0  0  0  0  0  0
   -9.8780    0.4139   -0.1495 H   0  0  0  0  0  0  0  0  0  0  0  0
   -9.0016    1.4087   -1.3032 H   0  0  0  0  0  0  0  0  0  0  0  0
   -7.3903    2.0871    0.4290 H   0  0  0  0  0  0  0  0  0  0  0  0
   -7.4406    0.9055    2.6843 H   0  0  0  0  0  0  0  0  0  0  0  0
   -8.9325    0.1047    2.2245 H   0  0  0  0  0  0  0  0  0  0  0  0
   -8.9073    1.8712    2.4341 H   0  0  0  0  0  0  0  0  0  0  0  0
   -6.0019   -1.8884   -0.9046 H   0  0  0  0  0  0  0  0  0  0  0  0
   -3.5717   -2.2431   -0.8727 H   0  0  0  0  0  0  0  0  0  0  0  0
   -1.0547    1.3989    0.3074 H   0  0  0  0  0  0  0  0  0  0  0  0
    2.4954    0.4561   -1.4009 H   0  0  0  0  0  0  0  0  0  0  0  0
    3.0510    3.2159   -0.4692 H   0  0  0  0  0  0  0  0  0  0  0  0
    3.6326    2.4426   -1.9472 H   0  0  0  0  0  0  0  0  0  0  0  0
    5.4622    2.6815   -0.2116 H   0  0  0  0  0  0  0  0  0  0  0  0
    4.4558    1.7966    0.9356 H   0  0  0  0  0  0  0  0  0  0  0  0
    5.6939   -0.3461    1.2723 H   0  0  0  0  0  0  0  0  0  0  0  0
    6.8725    0.8982    0.8143 H   0  0  0  0  0  0  0  0  0  0  0  0
    6.5878   -1.8265   -0.5737 H   0  0  0  0  0  0  0  0  0  0  0  0
    7.8280   -1.4006    0.6067 H   0  0  0  0  0  0  0  0  0  0  0  0
    7.8628    0.6842   -2.8882 H   0  0  0  0  0  0  0  0  0  0  0  0
    7.8340    1.5619   -1.3592 H   0  0  0  0  0  0  0  0  0  0  0  0
    5.6006   -0.2334   -2.4563 H   0  0  0  0  0  0  0  0  0  0  0  0
    5.5761    1.5212   -2.4907 H   0  0  0  0  0  0  0  0  0  0  0  0
    3.2189   -0.9772    0.4482 H   0  0  0  0  0  0  0  0  0  0  0  0
    3.8023   -3.3583    0.3938 H   0  0  0  0  0  0  0  0  0  0  0  0
    2.0043   -5.0703    0.2552 H   0  0  0  0  0  0  0  0  0  0  0  0
   -0.3621   -4.3635    0.1794 H   0  0  0  0  0  0  0  0  0  0  0  0
   -3.1101    1.3706    1.4379 H   0  0  0  0  0  0  0  0  0  0  0  0
   -5.4993    1.7154    1.3962 H   0  0  0  0  0  0  0  0  0  0  0  0
  1  2  1  0
  2  3  1  0
  2  4  1  0
  4  5  1  0
  5  6  2  0
  6  7  1  0
  7  8  2  0
  8  9  1  0
  9 10  2  0
 10 11  1  0
 11 12  1  0
 12 13  2  0
 12 14  1  0
 14 15  1  0
 15 16  1  0
 16 17  1  0
 17 18  1  0
 18 19  1  0
 19 20  1  0
 20 21  1  0
 21 22  1  0
 11 23  2  0
 23 24  1  0
 24 25  2  0
 25 26  1  0
 26 27  2  0
 27 28  1  0
 28 29  2  0
  8 30  1  0
 30 31  2  0
 31  5  1  0
 29  9  1  0
 22 17  1  0
 28 23  1  0
  1 32  1  0
  1 33  1  0
  1 34  1  0
  2 35  1  0
  3 36  1  0
  3 37  1  0
  3 38  1  0
  6 39  1  0
  7 40  1  0
 10 41  1  0
 14 42  1  0
 15 43  1  0
 15 44  1  0
 16 45  1  0
 16 46  1  0
 18 47  1  0
 18 48  1  0
 19 49  1  0
 19 50  1  0
 21 51  1  0
 21 52  1  0
 22 53  1  0
 22 54  1  0
 24 55  1  0
 25 56  1  0
 26 57  1  0
 27 58  1  0
 30 59  1  0
 31 60  1  0
M  END
$$$$
