
     RDKit          3D

 45 47  0  0  0  0  0  0  0  0999 V2000
   -5.4642    0.7046   -2.2149 C   0  0  0  0  0  0  0  0  0  0  0  0
   -5.5007    0.0592   -0.8368 C   0  0  0  0  0  0  0  0  0  0  0  0
   -4.4251    0.5760    0.0187 N   0  0  0  0  0  0  0  0  0  0  0  0
   -4.7644    1.7498    0.8337 C   0  0  0  0  0  0  0  0  0  0  0  0
   -5.2587    1.3326    2.2115 C   0  0  0  0  0  0  0  0  0  0  0  0
   -3.1530    0.0129    0.0317 C   0  0  0  0  0  0  0  0  0  0  0  0
   -2.1577    0.4215    0.9361 C   0  0  0  0  0  0  0  0  0  0  0  0
   -0.8712   -0.1431    0.9570 C   0  0  0  0  0  0  0  0  0  0  0  0
   -0.5196   -1.1397    0.0527 C   0  0  0  0  0  0  0  0  0  0  0  0
    0.7912   -1.7947    0.0647 C   0  0  0  0  0  0  0  0  0  0  0  0
    1.9953   -1.2078    0.0379 C   0  0  0  0  0  0  0  0  0  0  0  0
    2.3802    0.2291   -0.0209 C   0  0  0  0  0  0  0  0  0  0  0  0
    1.6833    1.2200   -0.0362 O   0  0  0  0  0  0  0  0  0  0  0  0
    3.8485    0.2357   -0.0548 C   0  0  0  0  0  0  0  0  0  0  0  0
    4.6912    1.3313   -0.1122 C   0  0  0  0  0  0  0  0  0  0  0  0
    6.0704    1.0891   -0.1351 C   0  0  0  0  0  0  0  0  0  0  0  0
    6.5781   -0.2319   -0.1007 C   0  0  0  0  0  0  0  0  0  0  0  0
    8.0358   -0.5075   -0.1244 C   0  0  0  0  0  0  0  0  0  0  0  0
    8.5494   -1.6095   -0.0980 O   0  0  0  0  0  0  0  0  0  0  0  0
    8.7760    0.6122   -0.1797 O   0  0  0  0  0  0  0  0  0  0  0  0
    5.7036   -1.3278   -0.0427 C   0  0  0  0  0  0  0  0  0  0  0  0
    4.3450   -1.0641   -0.0209 C   0  0  0  0  0  0  0  0  0  0  0  0
    3.2402   -2.0268    0.0366 C   0  0  0  0  0  0  0  0  0  0  0  0
    3.3467   -3.2343    0.0729 O   0  0  0  0  0  0  0  0  0  0  0  0
   -1.4890   -1.5798   -0.8458 C   0  0  0  0  0  0  0  0  0  0  0  0
   -2.7727   -1.0096   -0.8538 C   0  0  0  0  0  0  0  0  0  0  0  0
   -5.5709    1.7920   -2.1432 H   0  0  0  0  0  0  0  0  0  0  0  0
   -4.5243    0.4981   -2.7356 H   0  0  0  0  0  0  0  0  0  0  0  0
   -6.2842    0.3238   -2.8317 H   0  0  0  0  0  0  0  0  0  0  0  0
   -6.4733    0.2793   -0.3779 H   0  0  0  0  0  0  0  0  0  0  0  0
   -5.4706   -1.0333   -0.9143 H   0  0  0  0  0  0  0  0  0  0  0  0
   -5.5603    2.3235    0.3414 H   0  0  0  0  0  0  0  0  0  0  0  0
   -3.9252    2.4499    0.9126 H   0  0  0  0  0  0  0  0  0  0  0  0
   -6.1453    0.6945    2.1343 H   0  0  0  0  0  0  0  0  0  0  0  0
   -5.5269    2.2156    2.7999 H   0  0  0  0  0  0  0  0  0  0  0  0
   -4.4970    0.7751    2.7647 H   0  0  0  0  0  0  0  0  0  0  0  0
   -2.3533    1.1949    1.6719 H   0  0  0  0  0  0  0  0  0  0  0  0
   -0.1579    0.2195    1.6928 H   0  0  0  0  0  0  0  0  0  0  0  0
    0.7409   -2.8839    0.0741 H   0  0  0  0  0  0  0  0  0  0  0  0
    4.2945    2.3425   -0.1392 H   0  0  0  0  0  0  0  0  0  0  0  0
    6.7520    1.9376   -0.1806 H   0  0  0  0  0  0  0  0  0  0  0  0
    9.7011    0.2861   -0.1899 H   0  0  0  0  0  0  0  0  0  0  0  0
    6.0722   -2.3504   -0.0159 H   0  0  0  0  0  0  0  0  0  0  0  0
   -1.2643   -2.3684   -1.5603 H   0  0  0  0  0  0  0  0  0  0  0  0
   -3.4660   -1.3939   -1.5949 H   0  0  0  0  0  0  0  0  0  0  0  0
  1  2  1  0
  2  3  1  0
  3  4  1  0
  4  5  1  0
  3  6  1  0
  6  7  2  0
  7  8  1  0
  8  9  2  0
  9 10  1  0
 10 11  2  3
 11 12  1  0
 12 13  2  0
 12 14  1  0
 14 15  2  0
 15 16  1  0
 16 17  2  0
 17 18  1  0
 18 19  2  0
 18 20  1  0
 17 21  1  0
 21 22  2  0
 22 23  1  0
 23 24  2  0
  9 25  1  0
 25 26  2  0
 26  6  1  0
 23 11  1  0
 22 14  1  0
  1 27  1  0
  1 28  1  0
  1 29  1  0
  2 30  1  0
  2 31  1  0
  4 32  1  0
  4 33  1  0
  5 34  1  0
  5 35  1  0
  5 36  1  0
  7 37  1  0
  8 38  1  0
 10 39  1  0
 15 40  1  0
 16 41  1  0
 20 42  1  0
 21 43  1  0
 25 44  1  0
 26 45  1  0
M  END
$$$$
