
     RDKit          3D

 21 21  0  0  0  0  0  0  0  0999 V2000
   -1.8767   -2.3242    0.0213 C   0  0  0  0  0  0  0  0  0  0  0  0
   -0.7521   -1.7842   -0.6611 O   0  0  0  0  0  0  0  0  0  0  0  0
   -0.2664   -0.5813   -0.2235 C   0  0  0  0  0  0  0  0  0  0  0  0
   -1.0260    0.3337    0.5218 C   0  0  0  0  0  0  0  0  0  0  0  0
   -0.5115    1.5867    0.8864 C   0  0  0  0  0  0  0  0  0  0  0  0
   -1.2693    2.4106    1.7364 N   0  0  0  0  0  0  0  0  0  0  0  0
    0.8214    1.8804    0.5612 C   0  0  0  0  0  0  0  0  0  0  0  0
    1.6207    3.5191    1.0982 Br  0  0  0  0  0  0  0  0  0  0  0  0
    1.5893    0.9888   -0.1879 C   0  0  0  0  0  0  0  0  0  0  0  0
    1.0453   -0.2396   -0.5910 C   0  0  0  0  0  0  0  0  0  0  0  0
    1.8934   -1.1852   -1.3612 C   0  0  0  0  0  0  0  0  0  0  0  0
    1.8622   -2.3999   -1.3524 O   0  0  0  0  0  0  0  0  0  0  0  0
    2.7771   -0.5270   -2.1386 O   0  0  0  0  0  0  0  0  0  0  0  0
   -1.7222   -2.3353    1.1056 H   0  0  0  0  0  0  0  0  0  0  0  0
   -2.0016   -3.3602   -0.3082 H   0  0  0  0  0  0  0  0  0  0  0  0
   -2.7888   -1.7795   -0.2423 H   0  0  0  0  0  0  0  0  0  0  0  0
   -2.0407    0.0934    0.8229 H   0  0  0  0  0  0  0  0  0  0  0  0
   -2.2741    2.3373    1.6137 H   0  0  0  0  0  0  0  0  0  0  0  0
   -0.9455    3.3759    1.7471 H   0  0  0  0  0  0  0  0  0  0  0  0
    2.6152    1.2405   -0.4461 H   0  0  0  0  0  0  0  0  0  0  0  0
    3.2503   -1.2499   -2.6024 H   0  0  0  0  0  0  0  0  0  0  0  0
  1  2  1  0
  2  3  1  0
  3  4  2  0
  4  5  1  0
  5  6  1  0
  5  7  2  0
  7  8  1  0
  7  9  1  0
  9 10  2  0
 10 11  1  0
 11 12  2  0
 11 13  1  0
 10  3  1  0
  1 14  1  0
  1 15  1  0
  1 16  1  0
  4 17  1  0
  6 18  1  0
  6 19  1  0
  9 20  1  0
 13 21  1  0
M  END
$$$$
