
     RDKit          3D

 56 59  0  0  0  0  0  0  0  0999 V2000
   -5.2604   -1.5516   -2.0101 C   0  0  0  0  0  0  0  0  0  0  0  0
   -4.1933   -0.5461   -2.4122 C   0  0  0  0  0  0  0  0  0  0  0  0
   -2.9216   -0.8277   -1.7358 N   0  0  0  0  0  0  0  0  0  0  0  0
   -2.7046   -0.4674   -0.4005 C   0  0  0  0  0  0  0  0  0  0  0  0
   -2.5809   -1.3185    0.6342 C   0  0  0  0  0  0  0  0  0  0  0  0
   -2.6867   -2.7320    0.3739 N   0  0  0  0  0  0  0  0  0  0  0  0
   -1.3184   -3.4514   -0.3349 S   0  0  0  0  0  6  0  0  0  0  0  0
   -1.4711   -3.3236   -1.7698 O   0  0  0  0  0  0  0  0  0  0  0  0
   -1.1843   -4.7498    0.2896 O   0  0  0  0  0  0  0  0  0  0  0  0
    0.0655   -2.4641    0.1805 C   0  0  0  0  0  0  0  0  0  0  0  0
    0.6037   -2.6507    1.4550 C   0  0  0  0  0  0  0  0  0  0  0  0
    1.6595   -1.8420    1.8788 C   0  0  0  0  0  0  0  0  0  0  0  0
    2.1915   -0.8527    1.0350 C   0  0  0  0  0  0  0  0  0  0  0  0
    3.3242    0.0325    1.5332 C   0  0  0  0  0  0  0  0  0  0  0  0
    4.6265   -0.2283    0.7518 C   0  0  0  0  0  0  0  0  0  0  0  0
    5.6432    0.8786    1.0033 C   0  0  0  0  0  0  0  0  0  0  0  0
    5.1359    2.2429    0.5343 C   0  0  0  0  0  0  0  0  0  0  0  0
    3.6116    2.3491    0.4785 C   0  0  0  0  0  0  0  0  0  0  0  0
    2.9350    1.5277    1.5719 C   0  0  0  0  0  0  0  0  0  0  0  0
    1.6557   -0.7048   -0.2544 C   0  0  0  0  0  0  0  0  0  0  0  0
    0.6025   -1.5114   -0.6870 C   0  0  0  0  0  0  0  0  0  0  0  0
   -2.4460   -0.9041    2.0497 C   0  0  0  0  0  0  0  0  0  0  0  0
   -2.3901   -1.7508    2.9392 O   0  0  0  0  0  0  0  0  0  0  0  0
   -2.4104    0.4501    2.3077 O   0  0  0  0  0  0  0  0  0  0  0  0
   -2.3899    1.3717    1.2462 C   0  0  0  0  0  0  0  0  0  0  0  0
   -2.2037    2.7087    1.6048 C   0  0  0  0  0  0  0  0  0  0  0  0
   -2.1167    3.6774    0.6100 C   0  0  0  0  0  0  0  0  0  0  0  0
   -2.2050    3.3012   -0.7283 C   0  0  0  0  0  0  0  0  0  0  0  0
   -2.3952    1.9575   -1.0714 C   0  0  0  0  0  0  0  0  0  0  0  0
   -2.5146    0.9667   -0.0852 C   0  0  0  0  0  0  0  0  0  0  0  0
   -6.1872   -1.3604   -2.5597 H   0  0  0  0  0  0  0  0  0  0  0  0
   -4.9393   -2.5757   -2.2273 H   0  0  0  0  0  0  0  0  0  0  0  0
   -5.4819   -1.4889   -0.9398 H   0  0  0  0  0  0  0  0  0  0  0  0
   -4.0250   -0.6115   -3.4925 H   0  0  0  0  0  0  0  0  0  0  0  0
   -4.5431    0.4695   -2.2007 H   0  0  0  0  0  0  0  0  0  0  0  0
   -2.7000   -1.8228   -1.8807 H   0  0  0  0  0  0  0  0  0  0  0  0
   -2.8720   -3.2550    1.2395 H   0  0  0  0  0  0  0  0  0  0  0  0
    0.2006   -3.4048    2.1282 H   0  0  0  0  0  0  0  0  0  0  0  0
    2.0612   -1.9864    2.8802 H   0  0  0  0  0  0  0  0  0  0  0  0
    3.5211   -0.2494    2.5779 H   0  0  0  0  0  0  0  0  0  0  0  0
    5.0469   -1.1957    1.0537 H   0  0  0  0  0  0  0  0  0  0  0  0
    4.4412   -0.2998   -0.3273 H   0  0  0  0  0  0  0  0  0  0  0  0
    5.8650    0.9244    2.0772 H   0  0  0  0  0  0  0  0  0  0  0  0
    6.5894    0.6458    0.5018 H   0  0  0  0  0  0  0  0  0  0  0  0
    5.5383    2.4645   -0.4616 H   0  0  0  0  0  0  0  0  0  0  0  0
    5.5372    3.0152    1.2018 H   0  0  0  0  0  0  0  0  0  0  0  0
    3.2618    2.0111   -0.5037 H   0  0  0  0  0  0  0  0  0  0  0  0
    3.3162    3.4013    0.5629 H   0  0  0  0  0  0  0  0  0  0  0  0
    3.2460    1.9408    2.5413 H   0  0  0  0  0  0  0  0  0  0  0  0
    1.8477    1.6641    1.5239 H   0  0  0  0  0  0  0  0  0  0  0  0
    2.0512    0.0451   -0.9355 H   0  0  0  0  0  0  0  0  0  0  0  0
    0.1957   -1.3716   -1.6869 H   0  0  0  0  0  0  0  0  0  0  0  0
   -2.1147    2.9890    2.6506 H   0  0  0  0  0  0  0  0  0  0  0  0
   -1.9663    4.7207    0.8752 H   0  0  0  0  0  0  0  0  0  0  0  0
   -2.1189    4.0513   -1.5110 H   0  0  0  0  0  0  0  0  0  0  0  0
   -2.4328    1.6922   -2.1256 H   0  0  0  0  0  0  0  0  0  0  0  0
  1  2  1  0
  2  3  1  0
  3  4  1  0
  4  5  2  0
  5  6  1  0
  6  7  1  0
  7  8  2  0
  7  9  2  0
  7 10  1  0
 10 11  2  0
 11 12  1  0
 12 13  2  0
 13 14  1  0
 14 15  1  0
 15 16  1  0
 16 17  1  0
 17 18  1  0
 18 19  1  0
 13 20  1  0
 20 21  2  0
  5 22  1  0
 22 23  2  0
 22 24  1  0
 24 25  1  0
 25 26  2  0
 26 27  1  0
 27 28  2  0
 28 29  1  0
 29 30  2  0
 30  4  1  0
 21 10  1  0
 30 25  1  0
 19 14  1  0
  1 31  1  0
  1 32  1  0
  1 33  1  0
  2 34  1  0
  2 35  1  0
  3 36  1  0
  6 37  1  0
 11 38  1  0
 12 39  1  0
 14 40  1  0
 15 41  1  0
 15 42  1  0
 16 43  1  0
 16 44  1  0
 17 45  1  0
 17 46  1  0
 18 47  1  0
 18 48  1  0
 19 49  1  0
 19 50  1  0
 20 51  1  0
 21 52  1  0
 26 53  1  0
 27 54  1  0
 28 55  1  0
 29 56  1  0
M  END
$$$$
