
     RDKit          3D

 60 64  0  0  0  0  0  0  0  0999 V2000
   -2.6120    4.1050    1.8521 C   0  0  0  0  0  0  0  0  0  0  0  0
   -3.3713    3.3806    0.7547 C   0  0  0  0  0  0  0  0  0  0  0  0
   -2.8509    2.0438    0.5184 N   0  0  0  0  0  0  0  0  0  0  0  0
   -1.8895    1.7507   -0.4380 C   0  0  0  0  0  0  0  0  0  0  0  0
   -1.3408    2.7050   -1.1793 O   0  0  0  0  0  0  0  0  0  0  0  0
   -1.6907    0.3958   -0.3918 C   0  0  0  0  0  0  0  0  0  0  0  0
   -2.5037   -0.1293    0.6167 C   0  0  0  0  0  0  0  0  0  0  0  0
   -3.2219    0.8857    1.1888 C   0  0  0  0  0  0  0  0  0  0  0  0
   -4.0964    0.8304    2.1851 O   0  0  0  0  0  0  0  0  0  0  0  0
   -2.3195   -1.5981    0.7725 C   0  0  0  0  0  0  0  0  0  0  0  0
   -1.9033   -1.9324    2.2350 C   0  0  0  0  0  0  0  0  0  0  0  0
   -2.5243   -2.6806    2.9865 O   0  0  0  0  0  0  0  0  0  0  0  0
   -0.7401   -1.3041    2.5951 O   0  0  0  0  0  0  0  0  0  0  0  0
   -0.3153   -1.5791    3.9278 C   0  0  0  0  0  0  0  0  0  0  0  0
   -3.5759   -2.3842    0.3591 C   0  0  0  0  0  0  0  0  0  0  0  0
   -3.3265   -3.8916    0.2428 C   0  0  0  0  0  0  0  0  0  0  0  0
   -1.8832   -4.2273   -0.1289 C   0  0  0  0  0  0  0  0  0  0  0  0
   -1.2470   -3.1047   -0.9408 C   0  0  0  0  0  0  0  0  0  0  0  0
   -1.1511   -1.8626   -0.1747 N   0  0  0  0  0  0  0  0  0  0  0  0
   -0.9308   -0.6799   -1.0651 C   0  0  0  0  0  0  0  0  0  0  0  0
    0.5100   -0.2381   -1.1762 C   0  0  0  0  0  0  0  0  0  0  0  0
    1.0572    0.0274   -2.4415 C   0  0  0  0  0  0  0  0  0  0  0  0
    2.3831    0.4545   -2.5767 C   0  0  0  0  0  0  0  0  0  0  0  0
    3.2076    0.6275   -1.4547 C   0  0  0  0  0  0  0  0  0  0  0  0
    4.6025    1.0762   -1.5976 C   0  0  0  0  0  0  0  0  0  0  0  0
    5.6588    0.3508   -1.0188 C   0  0  0  0  0  0  0  0  0  0  0  0
    6.9848    0.7721   -1.1523 C   0  0  0  0  0  0  0  0  0  0  0  0
    7.2777    1.9301   -1.8687 C   0  0  0  0  0  0  0  0  0  0  0  0
    6.2430    2.6601   -2.4473 C   0  0  0  0  0  0  0  0  0  0  0  0
    6.6011    4.0928   -3.3316 Cl  0  0  0  0  0  0  0  0  0  0  0  0
    4.9178    2.2416   -2.3160 C   0  0  0  0  0  0  0  0  0  0  0  0
    2.6602    0.3564   -0.1923 C   0  0  0  0  0  0  0  0  0  0  0  0
    1.3351   -0.0705   -0.0549 C   0  0  0  0  0  0  0  0  0  0  0  0
   -1.5526    4.2106    1.5956 H   0  0  0  0  0  0  0  0  0  0  0  0
   -3.0277    5.1058    2.0042 H   0  0  0  0  0  0  0  0  0  0  0  0
   -2.6726    3.5623    2.8013 H   0  0  0  0  0  0  0  0  0  0  0  0
   -4.4329    3.2896    1.0077 H   0  0  0  0  0  0  0  0  0  0  0  0
   -3.3174    3.9419   -0.1845 H   0  0  0  0  0  0  0  0  0  0  0  0
   -0.5811    2.3031   -1.6400 H   0  0  0  0  0  0  0  0  0  0  0  0
   -4.3631    1.7252    2.4487 H   0  0  0  0  0  0  0  0  0  0  0  0
    0.6144   -1.0311    4.1063 H   0  0  0  0  0  0  0  0  0  0  0  0
   -0.1152   -2.6475    4.0548 H   0  0  0  0  0  0  0  0  0  0  0  0
   -1.0631   -1.2339    4.6485 H   0  0  0  0  0  0  0  0  0  0  0  0
   -3.9351   -2.0191   -0.6140 H   0  0  0  0  0  0  0  0  0  0  0  0
   -4.4013   -2.2075    1.0609 H   0  0  0  0  0  0  0  0  0  0  0  0
   -3.5824   -4.3961    1.1820 H   0  0  0  0  0  0  0  0  0  0  0  0
   -4.0081   -4.3006   -0.5134 H   0  0  0  0  0  0  0  0  0  0  0  0
   -1.2961   -4.4048    0.7812 H   0  0  0  0  0  0  0  0  0  0  0  0
   -1.8599   -5.1648   -0.6964 H   0  0  0  0  0  0  0  0  0  0  0  0
   -0.2412   -3.4091   -1.2521 H   0  0  0  0  0  0  0  0  0  0  0  0
   -1.8395   -2.9690   -1.8553 H   0  0  0  0  0  0  0  0  0  0  0  0
   -1.3766   -0.8386   -2.0560 H   0  0  0  0  0  0  0  0  0  0  0  0
    0.4554   -0.1010   -3.3392 H   0  0  0  0  0  0  0  0  0  0  0  0
    2.7754    0.6378   -3.5755 H   0  0  0  0  0  0  0  0  0  0  0  0
    5.4520   -0.5632   -0.4641 H   0  0  0  0  0  0  0  0  0  0  0  0
    7.7863    0.1942   -0.6990 H   0  0  0  0  0  0  0  0  0  0  0  0
    8.3089    2.2567   -1.9717 H   0  0  0  0  0  0  0  0  0  0  0  0
    4.1243    2.8340   -2.7657 H   0  0  0  0  0  0  0  0  0  0  0  0
    3.2601    0.4867    0.7063 H   0  0  0  0  0  0  0  0  0  0  0  0
    0.9445   -0.2655    0.9415 H   0  0  0  0  0  0  0  0  0  0  0  0
  1  2  1  0
  2  3  1  0
  3  4  1  0
  4  5  1  0
  4  6  2  0
  6  7  1  0
  7  8  2  0
  8  9  1  0
  7 10  1  0
 10 11  1  0
 11 12  2  0
 11 13  1  0
 13 14  1  0
 10 15  1  0
 15 16  1  0
 16 17  1  0
 17 18  1  0
 18 19  1  0
 19 20  1  0
 20 21  1  0
 21 22  2  0
 22 23  1  0
 23 24  2  0
 24 25  1  0
 25 26  2  0
 26 27  1  0
 27 28  2  0
 28 29  1  0
 29 30  1  0
 29 31  2  0
 24 32  1  0
 32 33  2  0
  8  3  1  0
 19 10  1  0
 33 21  1  0
 20  6  1  0
 31 25  1  0
  1 34  1  0
  1 35  1  0
  1 36  1  0
  2 37  1  0
  2 38  1  0
  5 39  1  0
  9 40  1  0
 14 41  1  0
 14 42  1  0
 14 43  1  0
 15 44  1  0
 15 45  1  0
 16 46  1  0
 16 47  1  0
 17 48  1  0
 17 49  1  0
 18 50  1  0
 18 51  1  0
 20 52  1  0
 22 53  1  0
 23 54  1  0
 26 55  1  0
 27 56  1  0
 28 57  1  0
 31 58  1  0
 32 59  1  0
 33 60  1  0
M  END
$$$$
