
     RDKit          3D

 40 41  0  0  0  0  0  0  0  0999 V2000
   -4.9648    1.6972    1.4574 C   0  0  0  0  0  0  0  0  0  0  0  0
   -3.9988    0.5390    1.2055 C   0  0  0  0  0  0  0  0  0  0  0  0
   -4.2109   -0.0771   -0.1890 C   0  0  0  0  0  0  0  0  0  0  0  0
   -3.1719    0.3980   -1.1987 C   0  0  0  0  0  0  0  0  0  0  0  0
   -1.8128    0.0912   -0.7598 N   0  0  0  0  0  0  0  0  0  0  0  0
   -0.8167    0.0259   -1.7328 C   0  0  0  0  0  0  0  0  0  0  0  0
   -1.0043    0.2955   -2.9169 O   0  0  0  0  0  0  0  0  0  0  0  0
    0.5454   -0.3942   -1.3342 C   0  0  0  0  0  0  0  0  0  0  0  0
    0.7559   -1.6136   -0.6807 C   0  0  0  0  0  0  0  0  0  0  0  0
    2.0515   -1.9919   -0.3232 C   0  0  0  0  0  0  0  0  0  0  0  0
    3.1293   -1.1625   -0.6417 C   0  0  0  0  0  0  0  0  0  0  0  0
    4.4429   -1.5174   -0.2179 N   0  0  0  0  0  0  0  0  0  0  0  0
    4.9449   -0.9183    1.2868 S   0  0  0  0  0  6  0  0  0  0  0  0
    6.0402    0.3901    0.7841 C   0  0  0  0  0  0  0  0  0  0  0  0
    3.8253   -0.3487    2.0021 O   0  0  0  0  0  0  0  0  0  0  0  0
    5.7541   -1.9701    1.8655 O   0  0  0  0  0  0  0  0  0  0  0  0
    2.9214    0.0482   -1.3038 C   0  0  0  0  0  0  0  0  0  0  0  0
    1.6276    0.4275   -1.6656 C   0  0  0  0  0  0  0  0  0  0  0  0
   -1.5535    0.1097    0.6839 C   0  0  0  0  0  0  0  0  0  0  0  0
   -2.5480    0.9996    1.4230 C   0  0  0  0  0  0  0  0  0  0  0  0
   -6.0038    1.3580    1.3892 H   0  0  0  0  0  0  0  0  0  0  0  0
   -4.8225    2.5003    0.7264 H   0  0  0  0  0  0  0  0  0  0  0  0
   -4.8155    2.1167    2.4580 H   0  0  0  0  0  0  0  0  0  0  0  0
   -4.2279   -0.2392    1.9459 H   0  0  0  0  0  0  0  0  0  0  0  0
   -5.2208    0.1264   -0.5628 H   0  0  0  0  0  0  0  0  0  0  0  0
   -4.1295   -1.1688   -0.0997 H   0  0  0  0  0  0  0  0  0  0  0  0
   -3.2382    1.4830   -1.3433 H   0  0  0  0  0  0  0  0  0  0  0  0
   -3.3551   -0.0733   -2.1710 H   0  0  0  0  0  0  0  0  0  0  0  0
   -0.0818   -2.2669   -0.4515 H   0  0  0  0  0  0  0  0  0  0  0  0
    2.2074   -2.9255    0.2101 H   0  0  0  0  0  0  0  0  0  0  0  0
    4.6514   -2.5177   -0.2537 H   0  0  0  0  0  0  0  0  0  0  0  0
    6.8154   -0.0240    0.1368 H   0  0  0  0  0  0  0  0  0  0  0  0
    6.4952    0.8104    1.6837 H   0  0  0  0  0  0  0  0  0  0  0  0
    5.4655    1.1603    0.2679 H   0  0  0  0  0  0  0  0  0  0  0  0
    3.7574    0.6934   -1.5553 H   0  0  0  0  0  0  0  0  0  0  0  0
    1.4595    1.3605   -2.1987 H   0  0  0  0  0  0  0  0  0  0  0  0
   -0.5369    0.4637    0.8803 H   0  0  0  0  0  0  0  0  0  0  0  0
   -1.6322   -0.9224    1.0440 H   0  0  0  0  0  0  0  0  0  0  0  0
   -2.3206    1.0043    2.4956 H   0  0  0  0  0  0  0  0  0  0  0  0
   -2.4237    2.0327    1.0720 H   0  0  0  0  0  0  0  0  0  0  0  0
  1  2  1  0
  2  3  1  0
  3  4  1  0
  4  5  1  0
  5  6  1  0
  6  7  2  0
  6  8  1  0
  8  9  2  0
  9 10  1  0
 10 11  2  0
 11 12  1  0
 12 13  1  0
 13 14  1  0
 13 15  2  0
 13 16  2  0
 11 17  1  0
 17 18  2  0
  5 19  1  0
 19 20  1  0
 20  2  1  0
 18  8  1  0
  1 21  1  0
  1 22  1  0
  1 23  1  0
  2 24  1  0
  3 25  1  0
  3 26  1  0
  4 27  1  0
  4 28  1  0
  9 29  1  0
 10 30  1  0
 12 31  1  0
 14 32  1  0
 14 33  1  0
 14 34  1  0
 17 35  1  0
 18 36  1  0
 19 37  1  0
 19 38  1  0
 20 39  1  0
 20 40  1  0
M  END
$$$$
