
     RDKit          3D

 40 42  0  0  0  0  0  0  0  0999 V2000
   -1.5793   -1.6115   -0.6676 O   0  0  0  0  0  0  0  0  0  0  0  0
   -1.2923   -0.4465   -0.3891 C   0  0  0  0  0  0  0  0  0  0  0  0
   -2.3166    0.5287    0.1826 C   0  0  0  0  0  0  0  0  0  0  0  0
   -3.7516    0.0676    0.0591 C   0  0  0  0  0  0  0  0  0  0  0  0
   -4.4920    0.3549   -1.0971 C   0  0  0  0  0  0  0  0  0  0  0  0
   -5.8146   -0.0775   -1.2166 C   0  0  0  0  0  0  0  0  0  0  0  0
   -6.4000   -0.8048   -0.1827 C   0  0  0  0  0  0  0  0  0  0  0  0
   -8.1902   -1.3909   -0.3444 Br  0  0  0  0  0  0  0  0  0  0  0  0
   -5.6747   -1.1071    0.9676 C   0  0  0  0  0  0  0  0  0  0  0  0
   -4.3522   -0.6743    1.0866 C   0  0  0  0  0  0  0  0  0  0  0  0
   -0.0048    0.0514   -0.5892 N   0  0  0  0  0  0  0  0  0  0  0  0
    0.5644    1.1684    0.1829 C   0  0  0  0  0  0  0  0  0  0  0  0
    1.3917    0.6328    1.3758 C   0  0  0  0  0  0  0  0  0  0  0  0
    2.3979   -0.3751    0.9579 N   0  0  0  0  0  0  0  0  0  0  0  0
    3.5926    0.1709    0.4590 C   0  0  0  0  0  0  0  0  0  0  0  0
    4.7054   -0.6520    0.2702 C   0  0  0  0  0  0  0  0  0  0  0  0
    5.8982   -0.1173   -0.2148 C   0  0  0  0  0  0  0  0  0  0  0  0
    5.9657    1.2372   -0.4954 C   0  0  0  0  0  0  0  0  0  0  0  0
    4.8343    1.9962   -0.2683 C   0  0  0  0  0  0  0  0  0  0  0  0
    3.6684    1.4953    0.2009 N   0  0  0  0  0  0  0  0  0  0  0  0
    1.8201   -1.4594    0.1192 C   0  0  0  0  0  0  0  0  0  0  0  0
    1.0228   -0.8805   -1.0691 C   0  0  0  0  0  0  0  0  0  0  0  0
   -2.2208    1.4930   -0.3311 H   0  0  0  0  0  0  0  0  0  0  0  0
   -2.0836    0.6937    1.2415 H   0  0  0  0  0  0  0  0  0  0  0  0
   -4.0409    0.9112   -1.9159 H   0  0  0  0  0  0  0  0  0  0  0  0
   -6.3740    0.1519   -2.1194 H   0  0  0  0  0  0  0  0  0  0  0  0
   -6.1243   -1.6834    1.7714 H   0  0  0  0  0  0  0  0  0  0  0  0
   -3.7904   -0.9295    1.9824 H   0  0  0  0  0  0  0  0  0  0  0  0
    1.1870    1.7485   -0.5061 H   0  0  0  0  0  0  0  0  0  0  0  0
   -0.2139    1.8377    0.5550 H   0  0  0  0  0  0  0  0  0  0  0  0
    0.7079    0.1365    2.0769 H   0  0  0  0  0  0  0  0  0  0  0  0
    1.8483    1.4571    1.9375 H   0  0  0  0  0  0  0  0  0  0  0  0
    4.6598   -1.7051    0.5266 H   0  0  0  0  0  0  0  0  0  0  0  0
    6.7650   -0.7554   -0.3582 H   0  0  0  0  0  0  0  0  0  0  0  0
    6.8758    1.6911   -0.8697 H   0  0  0  0  0  0  0  0  0  0  0  0
    4.8313    3.0651   -0.4609 H   0  0  0  0  0  0  0  0  0  0  0  0
    2.5794   -2.1593   -0.2454 H   0  0  0  0  0  0  0  0  0  0  0  0
    1.1439   -2.0450    0.7551 H   0  0  0  0  0  0  0  0  0  0  0  0
    1.6838   -0.3226   -1.7428 H   0  0  0  0  0  0  0  0  0  0  0  0
    0.5728   -1.6922   -1.6499 H   0  0  0  0  0  0  0  0  0  0  0  0
  1  2  2  0
  2  3  1  0
  3  4  1  0
  4  5  2  0
  5  6  1  0
  6  7  2  0
  7  8  1  0
  7  9  1  0
  9 10  2  0
  2 11  1  0
 11 12  1  0
 12 13  1  0
 13 14  1  0
 14 15  1  0
 15 16  2  0
 16 17  1  0
 17 18  2  0
 18 19  1  0
 19 20  2  0
 14 21  1  0
 21 22  1  0
 10  4  1  0
 22 11  1  0
 20 15  1  0
  3 23  1  0
  3 24  1  0
  5 25  1  0
  6 26  1  0
  9 27  1  0
 10 28  1  0
 12 29  1  0
 12 30  1  0
 13 31  1  0
 13 32  1  0
 16 33  1  0
 17 34  1  0
 18 35  1  0
 19 36  1  0
 21 37  1  0
 21 38  1  0
 22 39  1  0
 22 40  1  0
M  END
$$$$
