
     RDKit          3D

 66 68  0  0  0  0  0  0  0  0999 V2000
    0.5193    4.0146    3.2667 C   0  0  0  0  0  0  0  0  0  0  0  0
    1.1179    3.0660    4.2956 C   0  0  0  0  0  0  0  0  0  0  0  0
    0.8032    1.6064    3.9940 C   0  0  0  0  0  0  0  0  0  0  0  0
    1.3693    1.2470    2.7445 O   0  0  0  0  0  0  0  0  0  0  0  0
    0.8118   -0.1011    2.0160 P   0  0  0  0  0  5  0  0  0  0  0  0
    0.6279   -1.2045    3.0308 O   0  0  0  0  0  0  0  0  0  0  0  0
    1.9801   -0.4132    0.7179 C   0  0  0  0  0  0  0  0  0  0  0  0
    2.2158   -1.7154    0.2781 C   0  0  0  0  0  0  0  0  0  0  0  0
    3.1201   -1.9688   -0.7645 C   0  0  0  0  0  0  0  0  0  0  0  0
    3.8406   -0.9427   -1.4039 C   0  0  0  0  0  0  0  0  0  0  0  0
    4.7286   -1.1962   -2.4598 N   0  0  0  0  0  0  0  0  0  0  0  0
    5.2025   -2.5650   -2.6647 C   0  0  0  0  0  0  0  0  0  0  0  0
    5.6776   -0.1490   -2.8398 C   0  0  0  0  0  0  0  0  0  0  0  0
    3.5794    0.3607   -0.9449 C   0  0  0  0  0  0  0  0  0  0  0  0
    2.6796    0.6228    0.0977 C   0  0  0  0  0  0  0  0  0  0  0  0
   -0.8179    0.4473    1.2844 C   0  0  0  0  0  0  0  0  0  0  0  0
   -0.5963    1.6796    0.5040 N   0  0  0  0  0  0  0  0  0  0  0  0
   -1.6277    2.5613    0.1845 C   0  0  0  0  0  0  0  0  0  0  0  0
   -1.3822    3.5428   -0.7889 C   0  0  0  0  0  0  0  0  0  0  0  0
   -2.3383    4.5096   -1.1133 C   0  0  0  0  0  0  0  0  0  0  0  0
   -3.5568    4.5322   -0.4437 C   0  0  0  0  0  0  0  0  0  0  0  0
   -3.8093    3.5920    0.5498 C   0  0  0  0  0  0  0  0  0  0  0  0
   -2.8484    2.6237    0.8661 C   0  0  0  0  0  0  0  0  0  0  0  0
   -1.5279   -0.6213    0.4717 C   0  0  0  0  0  0  0  0  0  0  0  0
   -1.1267   -0.9754   -0.8183 C   0  0  0  0  0  0  0  0  0  0  0  0
   -1.7960   -1.9856   -1.5282 C   0  0  0  0  0  0  0  0  0  0  0  0
   -2.8833   -2.6963   -0.9899 C   0  0  0  0  0  0  0  0  0  0  0  0
   -3.5548   -3.6836   -1.7197 N   0  0  0  0  0  0  0  0  0  0  0  0
   -2.8473   -4.3377   -2.8217 C   0  0  0  0  0  0  0  0  0  0  0  0
   -4.5773   -4.4901   -1.0628 C   0  0  0  0  0  0  0  0  0  0  0  0
   -3.2750   -2.3163    0.3049 C   0  0  0  0  0  0  0  0  0  0  0  0
   -2.6119   -1.3099    1.0256 C   0  0  0  0  0  0  0  0  0  0  0  0
    0.9378    3.8392    2.2706 H   0  0  0  0  0  0  0  0  0  0  0  0
   -0.5684    3.8990    3.2113 H   0  0  0  0  0  0  0  0  0  0  0  0
    0.7368    5.0518    3.5399 H   0  0  0  0  0  0  0  0  0  0  0  0
    0.7370    3.3194    5.2918 H   0  0  0  0  0  0  0  0  0  0  0  0
    2.2050    3.2102    4.3087 H   0  0  0  0  0  0  0  0  0  0  0  0
    1.2445    0.9716    4.7677 H   0  0  0  0  0  0  0  0  0  0  0  0
   -0.2771    1.4407    3.9895 H   0  0  0  0  0  0  0  0  0  0  0  0
    1.6894   -2.5478    0.7470 H   0  0  0  0  0  0  0  0  0  0  0  0
    3.2414   -3.0074   -1.0580 H   0  0  0  0  0  0  0  0  0  0  0  0
    5.8580   -2.6286   -3.5404 H   0  0  0  0  0  0  0  0  0  0  0  0
    4.3769   -3.2529   -2.8624 H   0  0  0  0  0  0  0  0  0  0  0  0
    5.7717   -2.9125   -1.7965 H   0  0  0  0  0  0  0  0  0  0  0  0
    5.1553    0.7404   -3.2097 H   0  0  0  0  0  0  0  0  0  0  0  0
    6.3292   -0.4768   -3.6593 H   0  0  0  0  0  0  0  0  0  0  0  0
    6.3223    0.1250   -1.9952 H   0  0  0  0  0  0  0  0  0  0  0  0
    4.0753    1.2209   -1.3838 H   0  0  0  0  0  0  0  0  0  0  0  0
    2.5347    1.6511    0.4245 H   0  0  0  0  0  0  0  0  0  0  0  0
   -1.4139    0.6835    2.1716 H   0  0  0  0  0  0  0  0  0  0  0  0
    0.0470    1.5416   -0.2715 H   0  0  0  0  0  0  0  0  0  0  0  0
   -0.4298    3.5624   -1.3137 H   0  0  0  0  0  0  0  0  0  0  0  0
   -2.1255    5.2457   -1.8811 H   0  0  0  0  0  0  0  0  0  0  0  0
   -4.3022    5.2826   -0.6860 H   0  0  0  0  0  0  0  0  0  0  0  0
   -4.7546    3.6110    1.0871 H   0  0  0  0  0  0  0  0  0  0  0  0
   -3.0898    1.9232    1.6588 H   0  0  0  0  0  0  0  0  0  0  0  0
   -0.2935   -0.4741   -1.3077 H   0  0  0  0  0  0  0  0  0  0  0  0
   -1.4391   -2.1899   -2.5342 H   0  0  0  0  0  0  0  0  0  0  0  0
   -1.9097   -4.7899   -2.4785 H   0  0  0  0  0  0  0  0  0  0  0  0
   -3.4524   -5.1394   -3.2628 H   0  0  0  0  0  0  0  0  0  0  0  0
   -2.6434   -3.6325   -3.6345 H   0  0  0  0  0  0  0  0  0  0  0  0
   -4.1371   -5.1142   -0.2793 H   0  0  0  0  0  0  0  0  0  0  0  0
   -5.0721   -5.1550   -1.7780 H   0  0  0  0  0  0  0  0  0  0  0  0
   -5.3704   -3.8677   -0.6359 H   0  0  0  0  0  0  0  0  0  0  0  0
   -4.1164   -2.7935    0.8034 H   0  0  0  0  0  0  0  0  0  0  0  0
   -2.9636   -1.0712    2.0285 H   0  0  0  0  0  0  0  0  0  0  0  0
  1  2  1  0
  2  3  1  0
  3  4  1  0
  4  5  1  0
  5  6  2  0
  5  7  1  0
  7  8  2  0
  8  9  1  0
  9 10  2  0
 10 11  1  0
 11 12  1  0
 11 13  1  0
 10 14  1  0
 14 15  2  0
  5 16  1  0
 16 17  1  0
 17 18  1  0
 18 19  2  0
 19 20  1  0
 20 21  2  0
 21 22  1  0
 22 23  2  0
 16 24  1  0
 24 25  2  0
 25 26  1  0
 26 27  2  0
 27 28  1  0
 28 29  1  0
 28 30  1  0
 27 31  1  0
 31 32  2  0
 15  7  1  0
 23 18  1  0
 32 24  1  0
  1 33  1  0
  1 34  1  0
  1 35  1  0
  2 36  1  0
  2 37  1  0
  3 38  1  0
  3 39  1  0
  8 40  1  0
  9 41  1  0
 12 42  1  0
 12 43  1  0
 12 44  1  0
 13 45  1  0
 13 46  1  0
 13 47  1  0
 14 48  1  0
 15 49  1  0
 16 50  1  0
 17 51  1  0
 19 52  1  0
 20 53  1  0
 21 54  1  0
 22 55  1  0
 23 56  1  0
 25 57  1  0
 26 58  1  0
 29 59  1  0
 29 60  1  0
 29 61  1  0
 30 62  1  0
 30 63  1  0
 30 64  1  0
 31 65  1  0
 32 66  1  0
M  END
$$$$
