
     RDKit          3D

 43 45  0  0  0  0  0  0  0  0999 V2000
    4.0284    2.1567   -2.5347 C   0  0  0  0  0  0  0  0  0  0  0  0
    3.2993    1.0226   -1.8570 C   0  0  0  0  0  0  0  0  0  0  0  0
    3.8886    0.4919   -0.5892 C   0  0  0  0  0  0  0  0  0  0  0  0
    3.2168   -0.4955    0.0321 C   0  0  0  0  0  0  0  0  0  0  0  0
    3.7508   -1.0822    1.3035 C   0  0  0  0  0  0  0  0  0  0  0  0
    2.0233   -0.9578   -0.5587 N   0  0  0  0  0  0  0  0  0  0  0  0
    1.0679   -1.9034   -0.2306 C   0  0  0  0  0  0  0  0  0  0  0  0
    0.9993   -2.8578    1.2118 S   0  0  0  0  0  0  0  0  0  0  0  0
    0.0699   -1.7985    2.3573 C   0  0  0  0  0  0  0  0  0  0  0  0
   -0.7453   -0.7021    1.6919 C   0  0  0  0  0  0  0  0  0  0  0  0
   -0.2493    0.4258    1.6018 O   0  0  0  0  0  0  0  0  0  0  0  0
   -2.0330   -0.9803    1.2340 N   0  0  0  0  0  0  0  0  0  0  0  0
   -2.5274   -2.3431    1.0436 C   0  0  0  0  0  0  0  0  0  0  0  0
   -2.8035    0.0696    0.5414 C   0  0  0  0  0  0  0  0  0  0  0  0
   -2.1962    0.5322   -0.7899 C   0  0  0  0  0  0  0  0  0  0  0  0
   -3.0934    1.6541   -1.2995 C   0  0  0  0  0  0  0  0  0  0  0  0
   -3.6810    2.5027    0.1578 S   0  0  0  0  0  6  0  0  0  0  0  0
   -2.9710    3.7572    0.2914 O   0  0  0  0  0  0  0  0  0  0  0  0
   -5.1298    2.4304    0.1698 O   0  0  0  0  0  0  0  0  0  0  0  0
   -3.0573    1.3409    1.3601 C   0  0  0  0  0  0  0  0  0  0  0  0
    0.1577   -1.9902   -1.1733 N   0  0  0  0  0  0  0  0  0  0  0  0
    0.4550   -1.0527   -2.1270 N   0  0  0  0  0  0  0  0  0  0  0  0
    1.5588   -0.4269   -1.7683 C   0  0  0  0  0  0  0  0  0  0  0  0
    2.2087    0.5865   -2.4102 N   0  0  0  0  0  0  0  0  0  0  0  0
    3.3954    3.0487   -2.5159 H   0  0  0  0  0  0  0  0  0  0  0  0
    4.9751    2.3839   -2.0362 H   0  0  0  0  0  0  0  0  0  0  0  0
    4.2335    1.8884   -3.5754 H   0  0  0  0  0  0  0  0  0  0  0  0
    4.8124    0.9213   -0.2199 H   0  0  0  0  0  0  0  0  0  0  0  0
    3.8876   -2.1656    1.2110 H   0  0  0  0  0  0  0  0  0  0  0  0
    4.7336   -0.6663    1.5612 H   0  0  0  0  0  0  0  0  0  0  0  0
    3.0863   -0.8595    2.1428 H   0  0  0  0  0  0  0  0  0  0  0  0
   -0.5540   -2.4038    3.0196 H   0  0  0  0  0  0  0  0  0  0  0  0
    0.7962   -1.3031    3.0137 H   0  0  0  0  0  0  0  0  0  0  0  0
   -3.5997   -2.3630    1.2578 H   0  0  0  0  0  0  0  0  0  0  0  0
   -2.3563   -2.6376    0.0028 H   0  0  0  0  0  0  0  0  0  0  0  0
   -2.0400   -3.0670    1.6989 H   0  0  0  0  0  0  0  0  0  0  0  0
   -3.7944   -0.3608    0.3201 H   0  0  0  0  0  0  0  0  0  0  0  0
   -2.1419   -0.2815   -1.5166 H   0  0  0  0  0  0  0  0  0  0  0  0
   -1.1812    0.9157   -0.6521 H   0  0  0  0  0  0  0  0  0  0  0  0
   -2.5618    2.3545   -1.9491 H   0  0  0  0  0  0  0  0  0  0  0  0
   -3.9630    1.2504   -1.8216 H   0  0  0  0  0  0  0  0  0  0  0  0
   -3.8050    1.1858    2.1437 H   0  0  0  0  0  0  0  0  0  0  0  0
   -2.1604    1.7795    1.7988 H   0  0  0  0  0  0  0  0  0  0  0  0
  1  2  1  0
  2  3  1  0
  3  4  2  0
  4  5  1  0
  4  6  1  0
  6  7  1  0
  7  8  1  0
  8  9  1  0
  9 10  1  0
 10 11  2  0
 10 12  1  0
 12 13  1  0
 12 14  1  0
 14 15  1  0
 15 16  1  0
 16 17  1  0
 17 18  2  0
 17 19  2  0
 17 20  1  0
  7 21  2  0
 21 22  1  0
 22 23  2  0
 23 24  1  0
 24  2  2  0
 23  6  1  0
 20 14  1  0
  1 25  1  0
  1 26  1  0
  1 27  1  0
  3 28  1  0
  5 29  1  0
  5 30  1  0
  5 31  1  0
  9 32  1  0
  9 33  1  0
 13 34  1  0
 13 35  1  0
 13 36  1  0
 14 37  1  0
 15 38  1  0
 15 39  1  0
 16 40  1  0
 16 41  1  0
 20 42  1  0
 20 43  1  0
M  END
$$$$
