
     RDKit          3D

 52 55  0  0  0  0  0  0  0  0999 V2000
   -7.5997   -3.1540    0.2835 C   0  0  0  0  0  0  0  0  0  0  0  0
   -6.5647   -3.8314   -0.4181 O   0  0  0  0  0  0  0  0  0  0  0  0
   -5.4297   -3.1162   -0.6839 C   0  0  0  0  0  0  0  0  0  0  0  0
   -4.4193   -3.8399   -1.3218 C   0  0  0  0  0  0  0  0  0  0  0  0
   -3.2045   -3.2324   -1.6505 C   0  0  0  0  0  0  0  0  0  0  0  0
   -2.9861   -1.8879   -1.3393 C   0  0  0  0  0  0  0  0  0  0  0  0
   -1.7204   -1.2570   -1.7193 C   0  0  0  0  0  0  0  0  0  0  0  0
   -0.7384   -0.8592   -0.8951 C   0  0  0  0  0  0  0  0  0  0  0  0
    0.7098   -0.1453   -1.5076 S   0  0  0  0  0  0  0  0  0  0  0  0
    1.5105   -0.2879    0.0459 C   0  0  0  0  0  0  0  0  0  0  0  0
    2.8584   -0.2356    0.1470 C   0  0  0  0  0  0  0  0  0  0  0  0
    3.6081   -0.6352    1.2870 C   0  0  0  0  0  0  0  0  0  0  0  0
    4.2414   -0.9444    2.2097 N   0  0  0  0  0  0  0  0  0  0  0  0
    3.6975    0.0926   -1.0360 C   0  0  0  0  0  0  0  0  0  0  0  0
    4.3897   -0.7570   -1.5830 O   0  0  0  0  0  0  0  0  0  0  0  0
    3.6427    1.4071   -1.4263 N   0  0  0  0  0  0  0  0  0  0  0  0
    4.3013    1.8434   -2.6364 C   0  0  0  0  0  0  0  0  0  0  0  0
    4.2821    3.3249   -2.6796 C   0  0  0  0  0  0  0  0  0  0  0  0
    5.2564    4.2794   -2.8851 C   0  0  0  0  0  0  0  0  0  0  0  0
    4.6091    5.5360   -2.8054 C   0  0  0  0  0  0  0  0  0  0  0  0
    3.2834    5.2705   -2.5584 C   0  0  0  0  0  0  0  0  0  0  0  0
    3.0736    3.9315   -2.4771 O   0  0  0  0  0  0  0  0  0  0  0  0
    0.5832   -0.5805    1.0519 N   0  0  0  0  0  0  0  0  0  0  0  0
    0.7705   -0.3885    2.4593 C   0  0  0  0  0  0  0  0  0  0  0  0
    0.2734   -1.3167    3.3847 C   0  0  0  0  0  0  0  0  0  0  0  0
    0.4457   -1.1196    4.7571 C   0  0  0  0  0  0  0  0  0  0  0  0
    1.1048    0.0148    5.2228 C   0  0  0  0  0  0  0  0  0  0  0  0
    1.5847    0.9579    4.3178 C   0  0  0  0  0  0  0  0  0  0  0  0
    1.4142    0.7614    2.9445 C   0  0  0  0  0  0  0  0  0  0  0  0
   -0.7013   -0.9464    0.5943 C   0  0  0  0  0  0  0  0  0  0  0  0
   -1.6733   -1.2413    1.2756 O   0  0  0  0  0  0  0  0  0  0  0  0
   -4.0007   -1.1594   -0.7107 C   0  0  0  0  0  0  0  0  0  0  0  0
   -5.2160   -1.7717   -0.3804 C   0  0  0  0  0  0  0  0  0  0  0  0
   -7.2561   -2.8130    1.2658 H   0  0  0  0  0  0  0  0  0  0  0  0
   -8.4152   -3.8656    0.4450 H   0  0  0  0  0  0  0  0  0  0  0  0
   -7.9962   -2.3222   -0.3082 H   0  0  0  0  0  0  0  0  0  0  0  0
   -4.5787   -4.8885   -1.5605 H   0  0  0  0  0  0  0  0  0  0  0  0
   -2.4356   -3.8216   -2.1447 H   0  0  0  0  0  0  0  0  0  0  0  0
   -1.6027   -1.1452   -2.7961 H   0  0  0  0  0  0  0  0  0  0  0  0
    2.9507    2.0380   -1.0399 H   0  0  0  0  0  0  0  0  0  0  0  0
    3.7598    1.4252   -3.4910 H   0  0  0  0  0  0  0  0  0  0  0  0
    5.3250    1.4550   -2.6514 H   0  0  0  0  0  0  0  0  0  0  0  0
    6.3056    4.0900   -3.0679 H   0  0  0  0  0  0  0  0  0  0  0  0
    5.0541    6.5154   -2.9139 H   0  0  0  0  0  0  0  0  0  0  0  0
    2.4089    5.8913   -2.4210 H   0  0  0  0  0  0  0  0  0  0  0  0
   -0.2401   -2.2167    3.0527 H   0  0  0  0  0  0  0  0  0  0  0  0
    0.0633   -1.8551    5.4605 H   0  0  0  0  0  0  0  0  0  0  0  0
    1.2397    0.1657    6.2907 H   0  0  0  0  0  0  0  0  0  0  0  0
    2.0882    1.8502    4.6819 H   0  0  0  0  0  0  0  0  0  0  0  0
    1.7633    1.5391    2.2712 H   0  0  0  0  0  0  0  0  0  0  0  0
   -3.8515   -0.1125   -0.4572 H   0  0  0  0  0  0  0  0  0  0  0  0
   -5.9688   -1.1696    0.1166 H   0  0  0  0  0  0  0  0  0  0  0  0
  1  2  1  0
  2  3  1  0
  3  4  2  0
  4  5  1  0
  5  6  2  0
  6  7  1  0
  7  8  2  3
  8  9  1  0
  9 10  1  0
 10 11  2  3
 11 12  1  0
 12 13  3  0
 11 14  1  0
 14 15  2  0
 14 16  1  0
 16 17  1  0
 17 18  1  0
 18 19  2  0
 19 20  1  0
 20 21  2  0
 21 22  1  0
 10 23  1  0
 23 24  1  0
 24 25  2  0
 25 26  1  0
 26 27  2  0
 27 28  1  0
 28 29  2  0
 23 30  1  0
 30 31  2  0
  6 32  1  0
 32 33  2  0
 33  3  1  0
 30  8  1  0
 22 18  1  0
 29 24  1  0
  1 34  1  0
  1 35  1  0
  1 36  1  0
  4 37  1  0
  5 38  1  0
  7 39  1  0
 16 40  1  0
 17 41  1  0
 17 42  1  0
 19 43  1  0
 20 44  1  0
 21 45  1  0
 25 46  1  0
 26 47  1  0
 27 48  1  0
 28 49  1  0
 29 50  1  0
 32 51  1  0
 33 52  1  0
M  END
$$$$
