
     RDKit          3D

 52 55  0  0  0  0  0  0  0  0999 V2000
    0.3395    4.1153   -3.4800 C   0  0  0  0  0  0  0  0  0  0  0  0
    1.3218    3.1553   -2.8521 C   0  0  0  0  0  0  0  0  0  0  0  0
    2.5180    3.2567   -3.0928 O   0  0  0  0  0  0  0  0  0  0  0  0
    0.6787    2.2508   -2.0192 N   0  0  0  0  0  0  0  0  0  0  0  0
    1.2576    1.2290   -1.2740 C   0  0  0  0  0  0  0  0  0  0  0  0
    2.9334    0.9674   -1.3417 S   0  0  0  0  0  0  0  0  0  0  0  0
    2.8634   -0.3048   -0.2348 C   0  0  0  0  0  0  0  0  0  0  0  0
    1.5779   -0.5638    0.2001 C   0  0  0  0  0  0  0  0  0  0  0  0
    0.6047    0.3299   -0.4241 C   0  0  0  0  0  0  0  0  0  0  0  0
   -0.9083    0.3255   -0.1856 C   0  0  0  0  0  0  0  0  0  0  0  0
   -1.4058   -0.9289   -0.9124 C   0  0  0  0  0  0  0  0  0  0  0  0
   -1.5615   -0.9042   -2.3130 C   0  0  0  0  0  0  0  0  0  0  0  0
   -2.0093   -2.0305   -3.0096 C   0  0  0  0  0  0  0  0  0  0  0  0
   -2.3092   -3.1991   -2.3164 C   0  0  0  0  0  0  0  0  0  0  0  0
   -2.8619   -4.5848   -3.1726 Cl  0  0  0  0  0  0  0  0  0  0  0  0
   -2.1641   -3.2517   -0.9339 C   0  0  0  0  0  0  0  0  0  0  0  0
   -1.7148   -2.1251   -0.2391 C   0  0  0  0  0  0  0  0  0  0  0  0
   -1.2653    0.4321    1.2506 N   0  0  0  0  0  0  0  0  0  0  0  0
   -0.6177    1.6048    1.8962 C   0  0  0  0  0  0  0  0  0  0  0  0
   -1.0563    1.7613    3.3615 C   0  0  0  0  0  0  0  0  0  0  0  0
   -2.4771    1.9063    3.4631 O   0  0  0  0  0  0  0  0  0  0  0  0
   -3.1237    0.7642    2.8922 C   0  0  0  0  0  0  0  0  0  0  0  0
   -2.7350    0.5969    1.4152 C   0  0  0  0  0  0  0  0  0  0  0  0
    1.3171   -1.6712    1.1863 C   0  0  0  0  0  0  0  0  0  0  0  0
    2.5910   -2.0943    1.9344 C   0  0  0  0  0  0  0  0  0  0  0  0
    3.7600   -2.3021    0.9655 C   0  0  0  0  0  0  0  0  0  0  0  0
    4.1062   -1.0075    0.2200 C   0  0  0  0  0  0  0  0  0  0  0  0
    0.8059    4.6054   -4.3395 H   0  0  0  0  0  0  0  0  0  0  0  0
   -0.5488    3.5832   -3.8330 H   0  0  0  0  0  0  0  0  0  0  0  0
    0.0509    4.8725   -2.7462 H   0  0  0  0  0  0  0  0  0  0  0  0
   -0.3188    2.3662   -1.9285 H   0  0  0  0  0  0  0  0  0  0  0  0
   -1.3636    1.1851   -0.6925 H   0  0  0  0  0  0  0  0  0  0  0  0
   -1.3203   -0.0071   -2.8788 H   0  0  0  0  0  0  0  0  0  0  0  0
   -2.1144   -1.9902   -4.0905 H   0  0  0  0  0  0  0  0  0  0  0  0
   -2.3941   -4.1638   -0.3897 H   0  0  0  0  0  0  0  0  0  0  0  0
   -1.6049   -2.1890    0.8417 H   0  0  0  0  0  0  0  0  0  0  0  0
    0.4720    1.5044    1.8956 H   0  0  0  0  0  0  0  0  0  0  0  0
   -0.8759    2.5203    1.3476 H   0  0  0  0  0  0  0  0  0  0  0  0
   -0.6012    2.6603    3.7894 H   0  0  0  0  0  0  0  0  0  0  0  0
   -0.7335    0.9052    3.9663 H   0  0  0  0  0  0  0  0  0  0  0  0
   -2.8710   -0.1295    3.4755 H   0  0  0  0  0  0  0  0  0  0  0  0
   -4.2039    0.9210    2.9749 H   0  0  0  0  0  0  0  0  0  0  0  0
   -3.0741    1.4820    0.8605 H   0  0  0  0  0  0  0  0  0  0  0  0
   -3.2772   -0.2687    1.0235 H   0  0  0  0  0  0  0  0  0  0  0  0
    0.5654   -1.3765    1.9234 H   0  0  0  0  0  0  0  0  0  0  0  0
    0.9332   -2.5397    0.6393 H   0  0  0  0  0  0  0  0  0  0  0  0
    2.8610   -1.3259    2.6701 H   0  0  0  0  0  0  0  0  0  0  0  0
    2.3974   -3.0185    2.4904 H   0  0  0  0  0  0  0  0  0  0  0  0
    4.6417   -2.6588    1.5096 H   0  0  0  0  0  0  0  0  0  0  0  0
    3.4927   -3.0834    0.2423 H   0  0  0  0  0  0  0  0  0  0  0  0
    4.7606   -1.2403   -0.6278 H   0  0  0  0  0  0  0  0  0  0  0  0
    4.6614   -0.3419    0.8929 H   0  0  0  0  0  0  0  0  0  0  0  0
  1  2  1  0
  2  3  2  0
  2  4  1  0
  4  5  1  0
  5  6  1  0
  6  7  1  0
  7  8  2  0
  8  9  1  0
  9 10  1  0
 10 11  1  0
 11 12  2  0
 12 13  1  0
 13 14  2  0
 14 15  1  0
 14 16  1  0
 16 17  2  0
 10 18  1  0
 18 19  1  0
 19 20  1  0
 20 21  1  0
 21 22  1  0
 22 23  1  0
  8 24  1  0
 24 25  1  0
 25 26  1  0
 26 27  1  0
  9  5  2  0
 17 11  1  0
 23 18  1  0
 27  7  1  0
  1 28  1  0
  1 29  1  0
  1 30  1  0
  4 31  1  0
 10 32  1  0
 12 33  1  0
 13 34  1  0
 16 35  1  0
 17 36  1  0
 19 37  1  0
 19 38  1  0
 20 39  1  0
 20 40  1  0
 22 41  1  0
 22 42  1  0
 23 43  1  0
 23 44  1  0
 24 45  1  0
 24 46  1  0
 25 47  1  0
 25 48  1  0
 26 49  1  0
 26 50  1  0
 27 51  1  0
 27 52  1  0
M  END
$$$$
