
     RDKit          3D

 34 35  0  0  0  0  0  0  0  0999 V2000
   -1.3463    0.5967    0.9320 C   0  0  0  0  0  0  0  0  0  0  0  0
   -0.9395   -0.4877    0.0408 N   0  0  0  0  0  0  0  0  0  0  0  0
    0.3224   -0.5551   -0.5734 C   0  0  0  0  0  0  0  0  0  0  0  0
    0.5156   -1.3402   -1.5035 O   0  0  0  0  0  0  0  0  0  0  0  0
    1.4022    0.3810   -0.0384 C   0  0  0  0  0  0  0  0  0  0  0  0
    3.0638   -0.0962   -0.5942 S   0  0  0  0  0  0  0  0  0  0  0  0
    4.0169    1.1944    0.1611 C   0  0  0  0  0  0  0  0  0  0  0  0
    5.3387    1.1771   -0.0785 N   0  0  0  0  0  0  0  0  0  0  0  0
    6.0684    2.1528    0.4912 C   0  0  0  0  0  0  0  0  0  0  0  0
    5.5299    3.1349    1.2855 C   0  0  0  0  0  0  0  0  0  0  0  0
    4.1705    3.0636    1.4709 C   0  0  0  0  0  0  0  0  0  0  0  0
    3.3920    2.1095    0.9252 N   0  0  0  0  0  0  0  0  0  0  0  0
   -1.9642   -1.4333   -0.4374 C   0  0  0  0  0  0  0  0  0  0  0  0
   -3.0849   -1.7506    0.5655 C   0  0  0  0  0  0  0  0  0  0  0  0
   -4.0612   -2.6378   -0.1928 C   0  0  0  0  0  0  0  0  0  0  0  0
   -4.1473   -1.9235   -1.8258 S   0  0  0  0  0  6  0  0  0  0  0  0
   -3.9743   -2.9792   -2.8002 O   0  0  0  0  0  0  0  0  0  0  0  0
   -5.2755   -1.0149   -1.8630 O   0  0  0  0  0  0  0  0  0  0  0  0
   -2.6510   -0.9573   -1.7213 C   0  0  0  0  0  0  0  0  0  0  0  0
   -0.5645    1.3407    1.0846 H   0  0  0  0  0  0  0  0  0  0  0  0
   -1.6158    0.1713    1.9025 H   0  0  0  0  0  0  0  0  0  0  0  0
   -2.2109    1.1071    0.4976 H   0  0  0  0  0  0  0  0  0  0  0  0
    1.3897    0.3415    1.0551 H   0  0  0  0  0  0  0  0  0  0  0  0
    1.1758    1.3916   -0.3926 H   0  0  0  0  0  0  0  0  0  0  0  0
    7.1335    2.1174    0.2809 H   0  0  0  0  0  0  0  0  0  0  0  0
    6.1351    3.9103    1.7334 H   0  0  0  0  0  0  0  0  0  0  0  0
    3.6501    3.7946    2.0830 H   0  0  0  0  0  0  0  0  0  0  0  0
   -1.4563   -2.3827   -0.6600 H   0  0  0  0  0  0  0  0  0  0  0  0
   -3.6010   -0.8374    0.8844 H   0  0  0  0  0  0  0  0  0  0  0  0
   -2.7035   -2.2488    1.4624 H   0  0  0  0  0  0  0  0  0  0  0  0
   -5.0553   -2.6535    0.2584 H   0  0  0  0  0  0  0  0  0  0  0  0
   -3.6763   -3.6572   -0.2897 H   0  0  0  0  0  0  0  0  0  0  0  0
   -2.9344    0.0980   -1.6670 H   0  0  0  0  0  0  0  0  0  0  0  0
   -2.0426   -1.1273   -2.6125 H   0  0  0  0  0  0  0  0  0  0  0  0
  1  2  1  0
  2  3  1  0
  3  4  2  0
  3  5  1  0
  5  6  1  0
  6  7  1  0
  7  8  2  0
  8  9  1  0
  9 10  2  0
 10 11  1  0
 11 12  2  0
  2 13  1  0
 13 14  1  0
 14 15  1  0
 15 16  1  0
 16 17  2  0
 16 18  2  0
 16 19  1  0
 12  7  1  0
 19 13  1  0
  1 20  1  0
  1 21  1  0
  1 22  1  0
  5 23  1  0
  5 24  1  0
  9 25  1  0
 10 26  1  0
 11 27  1  0
 13 28  1  0
 14 29  1  0
 14 30  1  0
 15 31  1  0
 15 32  1  0
 19 33  1  0
 19 34  1  0
M  END
$$$$
