
     RDKit          3D

 46 47  0  0  0  0  0  0  0  0999 V2000
    0.6652   -0.8350    2.1028 O   0  0  0  0  0  0  0  0  0  0  0  0
    0.6555   -0.8416    0.8812 C   0  0  0  0  0  0  0  0  0  0  0  0
   -0.4763   -0.8817    0.1021 N   0  0  0  0  0  0  0  0  0  0  0  0
   -1.8078   -0.9645    0.7056 C   0  0  0  0  0  0  0  0  0  0  0  0
   -2.2075    0.3637    1.3717 C   0  0  0  0  0  0  0  0  0  0  0  0
   -2.3097    1.5900    0.4650 C   0  0  0  0  0  0  0  0  0  0  0  0
   -3.3786    1.5765   -0.6272 C   0  0  0  0  0  0  0  0  0  0  0  0
   -4.7546    1.0803   -0.1822 C   0  0  0  0  0  0  0  0  0  0  0  0
   -5.0800   -0.3564   -0.5965 C   0  0  0  0  0  0  0  0  0  0  0  0
   -4.2751   -1.4693    0.0784 C   0  0  0  0  0  0  0  0  0  0  0  0
   -2.8018   -1.5205   -0.3287 C   0  0  0  0  0  0  0  0  0  0  0  0
    1.7799   -0.8139    0.0913 N   0  0  0  0  0  0  0  0  0  0  0  0
    3.1052   -0.6702    0.6853 C   0  0  0  0  0  0  0  0  0  0  0  0
    4.1633   -1.2110   -0.2912 C   0  0  0  0  0  0  0  0  0  0  0  0
    5.5232   -0.5624   -0.0701 C   0  0  0  0  0  0  0  0  0  0  0  0
    5.4704    0.9494   -0.2978 C   0  0  0  0  0  0  0  0  0  0  0  0
    4.1096    1.5684    0.0283 C   0  0  0  0  0  0  0  0  0  0  0  0
    3.3764    0.7859    1.1124 C   0  0  0  0  0  0  0  0  0  0  0  0
   -0.3357   -1.4003   -0.7529 H   0  0  0  0  0  0  0  0  0  0  0  0
   -1.7364   -1.7085    1.5113 H   0  0  0  0  0  0  0  0  0  0  0  0
   -1.4637    0.6045    2.1425 H   0  0  0  0  0  0  0  0  0  0  0  0
   -3.1406    0.2355    1.9301 H   0  0  0  0  0  0  0  0  0  0  0  0
   -2.5094    2.4539    1.1134 H   0  0  0  0  0  0  0  0  0  0  0  0
   -1.3360    1.7906    0.0014 H   0  0  0  0  0  0  0  0  0  0  0  0
   -3.0255    1.0306   -1.5072 H   0  0  0  0  0  0  0  0  0  0  0  0
   -3.4886    2.6146   -0.9695 H   0  0  0  0  0  0  0  0  0  0  0  0
   -5.5049    1.7204   -0.6658 H   0  0  0  0  0  0  0  0  0  0  0  0
   -4.9041    1.2160    0.8946 H   0  0  0  0  0  0  0  0  0  0  0  0
   -6.1395   -0.5321   -0.3686 H   0  0  0  0  0  0  0  0  0  0  0  0
   -4.9894   -0.4504   -1.6862 H   0  0  0  0  0  0  0  0  0  0  0  0
   -4.7333   -2.4171   -0.2355 H   0  0  0  0  0  0  0  0  0  0  0  0
   -4.3965   -1.4339    1.1662 H   0  0  0  0  0  0  0  0  0  0  0  0
   -2.5359   -2.5767   -0.4817 H   0  0  0  0  0  0  0  0  0  0  0  0
   -2.6517   -1.0638   -1.3130 H   0  0  0  0  0  0  0  0  0  0  0  0
    1.6351   -0.3610   -0.7995 H   0  0  0  0  0  0  0  0  0  0  0  0
    3.1181   -1.2871    1.5935 H   0  0  0  0  0  0  0  0  0  0  0  0
    4.2415   -2.2990   -0.1765 H   0  0  0  0  0  0  0  0  0  0  0  0
    3.8548   -1.0377   -1.3310 H   0  0  0  0  0  0  0  0  0  0  0  0
    6.2707   -1.0085   -0.7358 H   0  0  0  0  0  0  0  0  0  0  0  0
    5.8574   -0.7660    0.9550 H   0  0  0  0  0  0  0  0  0  0  0  0
    5.7185    1.1773   -1.3416 H   0  0  0  0  0  0  0  0  0  0  0  0
    6.2499    1.4232    0.3111 H   0  0  0  0  0  0  0  0  0  0  0  0
    4.2469    2.6102    0.3395 H   0  0  0  0  0  0  0  0  0  0  0  0
    3.4930    1.5932   -0.8790 H   0  0  0  0  0  0  0  0  0  0  0  0
    3.9999    0.7808    2.0161 H   0  0  0  0  0  0  0  0  0  0  0  0
    2.4480    1.3036    1.3795 H   0  0  0  0  0  0  0  0  0  0  0  0
  1  2  2  0
  2  3  1  0
  3  4  1  0
  4  5  1  0
  5  6  1  0
  6  7  1  0
  7  8  1  0
  8  9  1  0
  9 10  1  0
 10 11  1  0
  2 12  1  0
 12 13  1  0
 13 14  1  0
 14 15  1  0
 15 16  1  0
 16 17  1  0
 17 18  1  0
 11  4  1  0
 18 13  1  0
  3 19  1  0
  4 20  1  0
  5 21  1  0
  5 22  1  0
  6 23  1  0
  6 24  1  0
  7 25  1  0
  7 26  1  0
  8 27  1  0
  8 28  1  0
  9 29  1  0
  9 30  1  0
 10 31  1  0
 10 32  1  0
 11 33  1  0
 11 34  1  0
 12 35  1  0
 13 36  1  0
 14 37  1  0
 14 38  1  0
 15 39  1  0
 15 40  1  0
 16 41  1  0
 16 42  1  0
 17 43  1  0
 17 44  1  0
 18 45  1  0
 18 46  1  0
M  END
$$$$
