
     RDKit          3D

 56 58  0  0  0  0  0  0  0  0999 V2000
   -5.2080   -2.0801    2.7395 C   0  0  0  0  0  0  0  0  0  0  0  0
   -5.5177   -1.5638    1.4533 O   0  0  0  0  0  0  0  0  0  0  0  0
   -4.8530   -0.4343    1.0437 C   0  0  0  0  0  0  0  0  0  0  0  0
   -3.8160    0.1739    1.7575 C   0  0  0  0  0  0  0  0  0  0  0  0
   -3.1899    1.3178    1.2575 C   0  0  0  0  0  0  0  0  0  0  0  0
   -3.5892    1.8712    0.0369 C   0  0  0  0  0  0  0  0  0  0  0  0
   -2.8810    3.0886   -0.5150 C   0  0  0  0  0  0  0  0  0  0  0  0
   -1.9355    2.7507   -1.6740 C   0  0  0  0  0  0  0  0  0  0  0  0
   -0.9002    1.8044   -1.2994 N   0  0  0  0  0  0  0  0  0  0  0  0
    0.2038    2.1931   -0.5860 C   0  0  0  0  0  0  0  0  0  0  0  0
    0.4446    3.3639   -0.3102 O   0  0  0  0  0  0  0  0  0  0  0  0
    1.0951    1.0826   -0.1379 C   0  0  0  0  0  0  0  0  0  0  0  0
    2.3385    1.4040    0.2680 C   0  0  0  0  0  0  0  0  0  0  0  0
    3.3578    0.4140    0.7472 C   0  0  0  0  0  0  0  0  0  0  0  0
    2.9428   -0.9689    0.3932 N   0  0  0  0  0  0  0  0  0  0  0  0
    4.0093   -2.1844    0.9433 S   0  0  0  0  0  6  0  0  0  0  0  0
    4.2502   -1.9440    2.3505 O   0  0  0  0  0  0  0  0  0  0  0  0
    3.5215   -3.4630    0.4732 O   0  0  0  0  0  0  0  0  0  0  0  0
    5.5018   -1.8345    0.0455 C   0  0  0  0  0  0  0  0  0  0  0  0
    6.6546   -1.4296    0.7277 C   0  0  0  0  0  0  0  0  0  0  0  0
    7.8155   -1.1581    0.0028 C   0  0  0  0  0  0  0  0  0  0  0  0
    7.8117   -1.2988   -1.3829 C   0  0  0  0  0  0  0  0  0  0  0  0
    8.9283   -1.0350   -2.0732 F   0  0  0  0  0  0  0  0  0  0  0  0
    6.6683   -1.7092   -2.0629 C   0  0  0  0  0  0  0  0  0  0  0  0
    5.5030   -1.9828   -1.3470 C   0  0  0  0  0  0  0  0  0  0  0  0
    1.5238   -1.2213    0.7675 C   0  0  0  0  0  0  0  0  0  0  0  0
    0.6138   -0.3391   -0.0918 C   0  0  0  0  0  0  0  0  0  0  0  0
   -4.6318    1.2643   -0.6787 C   0  0  0  0  0  0  0  0  0  0  0  0
   -5.2667    0.1173   -0.1853 C   0  0  0  0  0  0  0  0  0  0  0  0
   -6.2857   -0.5411   -0.8291 O   0  0  0  0  0  0  0  0  0  0  0  0
   -6.8340    0.0668   -1.9897 C   0  0  0  0  0  0  0  0  0  0  0  0
   -5.8621   -2.9384    2.9217 H   0  0  0  0  0  0  0  0  0  0  0  0
   -4.1737   -2.4366    2.7819 H   0  0  0  0  0  0  0  0  0  0  0  0
   -5.4048   -1.3402    3.5223 H   0  0  0  0  0  0  0  0  0  0  0  0
   -3.4690   -0.2187    2.7070 H   0  0  0  0  0  0  0  0  0  0  0  0
   -2.3821    1.7732    1.8278 H   0  0  0  0  0  0  0  0  0  0  0  0
   -2.3254    3.5879    0.2887 H   0  0  0  0  0  0  0  0  0  0  0  0
   -3.6335    3.8106   -0.8559 H   0  0  0  0  0  0  0  0  0  0  0  0
   -1.4584    3.6686   -2.0352 H   0  0  0  0  0  0  0  0  0  0  0  0
   -2.4849    2.3063   -2.5110 H   0  0  0  0  0  0  0  0  0  0  0  0
   -1.1035    0.8259   -1.4413 H   0  0  0  0  0  0  0  0  0  0  0  0
    2.6636    2.4433    0.2564 H   0  0  0  0  0  0  0  0  0  0  0  0
    3.4827    0.5263    1.8291 H   0  0  0  0  0  0  0  0  0  0  0  0
    4.3065    0.6462    0.2535 H   0  0  0  0  0  0  0  0  0  0  0  0
    6.6580   -1.3268    1.8108 H   0  0  0  0  0  0  0  0  0  0  0  0
    8.7239   -0.8413    0.5069 H   0  0  0  0  0  0  0  0  0  0  0  0
    6.6945   -1.8148   -3.1430 H   0  0  0  0  0  0  0  0  0  0  0  0
    4.6057   -2.3090   -1.8690 H   0  0  0  0  0  0  0  0  0  0  0  0
    1.2528   -2.2672    0.5900 H   0  0  0  0  0  0  0  0  0  0  0  0
    1.3751   -1.0090    1.8337 H   0  0  0  0  0  0  0  0  0  0  0  0
   -0.4015   -0.3934    0.3172 H   0  0  0  0  0  0  0  0  0  0  0  0
    0.5857   -0.7348   -1.1148 H   0  0  0  0  0  0  0  0  0  0  0  0
   -4.9294    1.7033   -1.6253 H   0  0  0  0  0  0  0  0  0  0  0  0
   -7.2205    1.0677   -1.7701 H   0  0  0  0  0  0  0  0  0  0  0  0
   -7.6750   -0.5481   -2.3238 H   0  0  0  0  0  0  0  0  0  0  0  0
   -6.1005    0.0945   -2.8021 H   0  0  0  0  0  0  0  0  0  0  0  0
  1  2  1  0
  2  3  1  0
  3  4  2  0
  4  5  1  0
  5  6  2  0
  6  7  1  0
  7  8  1  0
  8  9  1  0
  9 10  1  0
 10 11  2  0
 10 12  1  0
 12 13  2  0
 13 14  1  0
 14 15  1  0
 15 16  1  0
 16 17  2  0
 16 18  2  0
 16 19  1  0
 19 20  2  0
 20 21  1  0
 21 22  2  0
 22 23  1  0
 22 24  1  0
 24 25  2  0
 15 26  1  0
 26 27  1  0
  6 28  1  0
 28 29  2  0
 29 30  1  0
 30 31  1  0
 29  3  1  0
 27 12  1  0
 25 19  1  0
  1 32  1  0
  1 33  1  0
  1 34  1  0
  4 35  1  0
  5 36  1  0
  7 37  1  0
  7 38  1  0
  8 39  1  0
  8 40  1  0
  9 41  1  0
 13 42  1  0
 14 43  1  0
 14 44  1  0
 20 45  1  0
 21 46  1  0
 24 47  1  0
 25 48  1  0
 26 49  1  0
 26 50  1  0
 27 51  1  0
 27 52  1  0
 28 53  1  0
 31 54  1  0
 31 55  1  0
 31 56  1  0
M  END
$$$$
