
     RDKit          3D

 38 39  0  0  0  0  0  0  0  0999 V2000
    1.6568   -0.5308   -1.6627 O   0  0  0  0  0  0  0  0  0  0  0  0
    0.6862    0.0670   -1.2288 C   0  0  0  0  0  0  0  0  0  0  0  0
   -0.1164    0.9298   -1.9356 N   0  0  0  0  0  0  0  0  0  0  0  0
    0.1222    1.2385   -3.3329 C   0  0  0  0  0  0  0  0  0  0  0  0
    1.2831    2.2160   -3.5160 C   0  0  0  0  0  0  0  0  0  0  0  0
    1.0045    3.4411   -2.8396 O   0  0  0  0  0  0  0  0  0  0  0  0
    0.2852   -0.0820    0.2348 C   0  0  0  0  0  0  0  0  0  0  0  0
    0.3808   -1.4875    0.7925 C   0  0  0  0  0  0  0  0  0  0  0  0
   -0.6172   -2.4273    0.1571 C   0  0  0  0  0  0  0  0  0  0  0  0
   -1.9338   -2.4986    0.6327 C   0  0  0  0  0  0  0  0  0  0  0  0
   -2.8619   -3.3497    0.0280 C   0  0  0  0  0  0  0  0  0  0  0  0
   -2.4782   -4.1322   -1.0582 C   0  0  0  0  0  0  0  0  0  0  0  0
   -3.7347   -5.2815   -1.8784 Br  0  0  0  0  0  0  0  0  0  0  0  0
   -1.1749   -4.0721   -1.5449 C   0  0  0  0  0  0  0  0  0  0  0  0
   -0.2476   -3.2215   -0.9390 C   0  0  0  0  0  0  0  0  0  0  0  0
   -0.0721    1.0149    0.8410 N   0  0  0  0  0  0  0  0  0  0  0  0
   -0.4616    0.9309    2.1532 C   0  0  0  0  0  0  0  0  0  0  0  0
   -1.3933    0.2322    2.5311 O   0  0  0  0  0  0  0  0  0  0  0  0
    0.3492    1.7913    3.0030 C   0  0  0  0  0  0  0  0  0  0  0  0
    1.3823    2.6511    2.6670 C   0  0  0  0  0  0  0  0  0  0  0  0
    1.9324    3.3193    3.7999 C   0  0  0  0  0  0  0  0  0  0  0  0
    1.3051    2.9510    4.9677 C   0  0  0  0  0  0  0  0  0  0  0  0
    0.0635    1.8087    4.6960 S   0  0  0  0  0  0  0  0  0  0  0  0
   -0.8488    1.4193   -1.4304 H   0  0  0  0  0  0  0  0  0  0  0  0
    0.3275    0.3068   -3.8699 H   0  0  0  0  0  0  0  0  0  0  0  0
   -0.8056    1.6752   -3.7163 H   0  0  0  0  0  0  0  0  0  0  0  0
    1.4241    2.4406   -4.5773 H   0  0  0  0  0  0  0  0  0  0  0  0
    2.2211    1.8126   -3.1217 H   0  0  0  0  0  0  0  0  0  0  0  0
    0.9035    3.2136   -1.8985 H   0  0  0  0  0  0  0  0  0  0  0  0
    0.2606   -1.5038    1.8794 H   0  0  0  0  0  0  0  0  0  0  0  0
    1.4000   -1.8546    0.6172 H   0  0  0  0  0  0  0  0  0  0  0  0
   -2.2508   -1.8960    1.4823 H   0  0  0  0  0  0  0  0  0  0  0  0
   -3.8773   -3.3932    0.4132 H   0  0  0  0  0  0  0  0  0  0  0  0
   -0.8702   -4.6797   -2.3929 H   0  0  0  0  0  0  0  0  0  0  0  0
    0.7669   -3.1814   -1.3342 H   0  0  0  0  0  0  0  0  0  0  0  0
    1.7298    2.7995    1.6512 H   0  0  0  0  0  0  0  0  0  0  0  0
    2.7454    4.0344    3.7593 H   0  0  0  0  0  0  0  0  0  0  0  0
    1.5142    3.2980    5.9708 H   0  0  0  0  0  0  0  0  0  0  0  0
  1  2  2  0
  2  3  1  0
  3  4  1  0
  4  5  1  0
  5  6  1  0
  2  7  1  0
  7  8  1  0
  8  9  1  0
  9 10  2  0
 10 11  1  0
 11 12  2  0
 12 13  1  0
 12 14  1  0
 14 15  2  0
  7 16  2  3
 16 17  1  0
 17 18  2  0
 17 19  1  0
 19 20  2  0
 20 21  1  0
 21 22  2  0
 22 23  1  0
 15  9  1  0
 23 19  1  0
  3 24  1  0
  4 25  1  0
  4 26  1  0
  5 27  1  0
  5 28  1  0
  6 29  1  0
  8 30  1  0
  8 31  1  0
 10 32  1  0
 11 33  1  0
 14 34  1  0
 15 35  1  0
 20 36  1  0
 21 37  1  0
 22 38  1  0
M  END
$$$$
