
     RDKit          3D

 40 42  0  0  0  0  0  0  0  0999 V2000
   -6.4012    0.0773    1.3614 C   0  0  0  0  0  0  0  0  0  0  0  0
   -4.9445   -0.1744    0.9782 C   0  0  0  0  0  0  0  0  0  0  0  0
   -4.0448    0.9854    1.4503 C   0  0  0  0  0  0  0  0  0  0  0  0
   -2.5576    0.7108    1.1713 C   0  0  0  0  0  0  0  0  0  0  0  0
   -2.3288    0.1395   -0.2020 C   0  0  0  0  0  0  0  0  0  0  0  0
   -1.0542   -0.0143   -0.8706 C   0  0  0  0  0  0  0  0  0  0  0  0
    0.2564    0.3865   -0.3249 C   0  0  0  0  0  0  0  0  0  0  0  0
    0.3457    1.2941    0.4932 O   0  0  0  0  0  0  0  0  0  0  0  0
    1.3131   -0.3776   -0.7924 N   0  0  0  0  0  0  0  0  0  0  0  0
    2.6833   -0.2254   -0.4977 C   0  0  0  0  0  0  0  0  0  0  0  0
    3.2114    0.8154    0.2630 C   0  0  0  0  0  0  0  0  0  0  0  0
    4.5894    0.8897    0.5002 C   0  0  0  0  0  0  0  0  0  0  0  0
    5.4628   -0.0689   -0.0180 C   0  0  0  0  0  0  0  0  0  0  0  0
    6.7755    0.1322    0.2951 O   0  0  0  0  0  0  0  0  0  0  0  0
    7.7224   -0.8011   -0.1940 C   0  0  0  0  0  0  0  0  0  0  0  0
    7.7267   -0.8295   -1.5443 F   0  0  0  0  0  0  0  0  0  0  0  0
    7.4756   -2.0410    0.2809 F   0  0  0  0  0  0  0  0  0  0  0  0
    8.9536   -0.4299    0.2216 F   0  0  0  0  0  0  0  0  0  0  0  0
    4.9394   -1.1089   -0.7828 C   0  0  0  0  0  0  0  0  0  0  0  0
    3.5601   -1.1837   -1.0207 C   0  0  0  0  0  0  0  0  0  0  0  0
   -1.2414   -0.5656   -2.1300 C   0  0  0  0  0  0  0  0  0  0  0  0
   -2.8715   -0.9518   -2.4669 S   0  0  0  0  0  0  0  0  0  0  0  0
   -3.3730   -0.3635   -0.9565 C   0  0  0  0  0  0  0  0  0  0  0  0
   -4.8145   -0.3782   -0.5463 C   0  0  0  0  0  0  0  0  0  0  0  0
   -6.7827    0.9936    0.8984 H   0  0  0  0  0  0  0  0  0  0  0  0
   -6.5047    0.1786    2.4469 H   0  0  0  0  0  0  0  0  0  0  0  0
   -7.0359   -0.7553    1.0403 H   0  0  0  0  0  0  0  0  0  0  0  0
   -4.6137   -1.0918    1.4848 H   0  0  0  0  0  0  0  0  0  0  0  0
   -4.1799    1.1634    2.5238 H   0  0  0  0  0  0  0  0  0  0  0  0
   -4.3441    1.9087    0.9363 H   0  0  0  0  0  0  0  0  0  0  0  0
   -2.0050    1.6475    1.2972 H   0  0  0  0  0  0  0  0  0  0  0  0
   -2.1755   -0.0027    1.9117 H   0  0  0  0  0  0  0  0  0  0  0  0
    1.0716   -1.1815   -1.3542 H   0  0  0  0  0  0  0  0  0  0  0  0
    2.5847    1.5938    0.6870 H   0  0  0  0  0  0  0  0  0  0  0  0
    4.9779    1.7117    1.0984 H   0  0  0  0  0  0  0  0  0  0  0  0
    5.5661   -1.8843   -1.2142 H   0  0  0  0  0  0  0  0  0  0  0  0
    3.1861   -2.0093   -1.6218 H   0  0  0  0  0  0  0  0  0  0  0  0
   -0.5010   -0.7574   -2.8941 H   0  0  0  0  0  0  0  0  0  0  0  0
   -5.2888   -1.3258   -0.8291 H   0  0  0  0  0  0  0  0  0  0  0  0
   -5.3387    0.4251   -1.0799 H   0  0  0  0  0  0  0  0  0  0  0  0
  1  2  1  0
  2  3  1  0
  3  4  1  0
  4  5  1  0
  5  6  1  0
  6  7  1  0
  7  8  2  0
  7  9  1  0
  9 10  1  0
 10 11  2  0
 11 12  1  0
 12 13  2  0
 13 14  1  0
 14 15  1  0
 15 16  1  0
 15 17  1  0
 15 18  1  0
 13 19  1  0
 19 20  2  0
  6 21  2  0
 21 22  1  0
 22 23  1  0
 23 24  1  0
 24  2  1  0
 23  5  2  0
 20 10  1  0
  1 25  1  0
  1 26  1  0
  1 27  1  0
  2 28  1  0
  3 29  1  0
  3 30  1  0
  4 31  1  0
  4 32  1  0
  9 33  1  0
 11 34  1  0
 12 35  1  0
 19 36  1  0
 20 37  1  0
 21 38  1  0
 24 39  1  0
 24 40  1  0
M  END
$$$$
