
     RDKit          3D

 55 59  0  0  0  0  0  0  0  0999 V2000
    3.9777   -2.2969   -0.8752 C   0  0  0  0  0  0  0  0  0  0  0  0
    4.0706   -1.0002   -0.2491 N   0  0  0  0  0  0  0  0  0  0  0  0
    3.0848   -0.0327   -0.2142 C   0  0  0  0  0  0  0  0  0  0  0  0
    1.8310   -0.2405   -0.7047 N   0  0  0  0  0  0  0  0  0  0  0  0
    1.0603    0.9803   -1.0079 C   0  0  0  0  0  0  0  0  0  0  0  0
   -0.3350    0.6196   -1.5657 C   0  0  0  0  0  0  0  0  0  0  0  0
   -1.1858   -0.2292   -0.6840 N   0  0  0  0  0  0  0  0  0  0  0  0
   -2.3424    0.5276   -0.1173 C   0  0  0  0  0  0  0  0  0  0  0  0
   -3.2841    1.0976   -1.1910 C   0  0  0  0  0  0  0  0  0  0  0  0
   -3.9064    2.3421   -0.9823 C   0  0  0  0  0  0  0  0  0  0  0  0
   -4.7809    2.8712   -1.9338 C   0  0  0  0  0  0  0  0  0  0  0  0
   -5.0494    2.1642   -3.1045 C   0  0  0  0  0  0  0  0  0  0  0  0
   -4.4486    0.9259   -3.3238 C   0  0  0  0  0  0  0  0  0  0  0  0
   -3.5768    0.3937   -2.3724 C   0  0  0  0  0  0  0  0  0  0  0  0
   -3.1667   -0.2841    0.8917 C   0  0  0  0  0  0  0  0  0  0  0  0
   -3.6986   -1.5441    0.5614 C   0  0  0  0  0  0  0  0  0  0  0  0
   -4.4601   -2.2613    1.4848 C   0  0  0  0  0  0  0  0  0  0  0  0
   -4.7067   -1.7284    2.7490 C   0  0  0  0  0  0  0  0  0  0  0  0
   -4.1893   -0.4796    3.0926 C   0  0  0  0  0  0  0  0  0  0  0  0
   -3.4252    0.2391    2.1714 C   0  0  0  0  0  0  0  0  0  0  0  0
   -0.3508   -0.8447    0.3782 C   0  0  0  0  0  0  0  0  0  0  0  0
    1.0246   -1.3373   -0.1267 C   0  0  0  0  0  0  0  0  0  0  0  0
    3.5575    1.0880    0.2892 N   0  0  0  0  0  0  0  0  0  0  0  0
    4.8433    0.8151    0.6782 C   0  0  0  0  0  0  0  0  0  0  0  0
    5.7728    1.6458    1.3207 C   0  0  0  0  0  0  0  0  0  0  0  0
    7.0393    1.1318    1.6263 C   0  0  0  0  0  0  0  0  0  0  0  0
    7.3758   -0.1814    1.2913 C   0  0  0  0  0  0  0  0  0  0  0  0
    6.4625   -1.0241    0.6458 C   0  0  0  0  0  0  0  0  0  0  0  0
    5.1977   -0.4920    0.3588 C   0  0  0  0  0  0  0  0  0  0  0  0
    3.3136   -2.2419   -1.7424 H   0  0  0  0  0  0  0  0  0  0  0  0
    4.9674   -2.6138   -1.2159 H   0  0  0  0  0  0  0  0  0  0  0  0
    3.5920   -3.0051   -0.1380 H   0  0  0  0  0  0  0  0  0  0  0  0
    1.5953    1.5726   -1.7611 H   0  0  0  0  0  0  0  0  0  0  0  0
    0.9455    1.6042   -0.1109 H   0  0  0  0  0  0  0  0  0  0  0  0
   -0.1903    0.0501   -2.4959 H   0  0  0  0  0  0  0  0  0  0  0  0
   -0.8326    1.5532   -1.8624 H   0  0  0  0  0  0  0  0  0  0  0  0
   -1.9118    1.3870    0.4202 H   0  0  0  0  0  0  0  0  0  0  0  0
   -3.7179    2.9049   -0.0704 H   0  0  0  0  0  0  0  0  0  0  0  0
   -5.2568    3.8332   -1.7587 H   0  0  0  0  0  0  0  0  0  0  0  0
   -5.7321    2.5756   -3.8438 H   0  0  0  0  0  0  0  0  0  0  0  0
   -4.6597    0.3703   -4.2340 H   0  0  0  0  0  0  0  0  0  0  0  0
   -3.1186   -0.5764   -2.5571 H   0  0  0  0  0  0  0  0  0  0  0  0
   -3.5138   -1.9717   -0.4233 H   0  0  0  0  0  0  0  0  0  0  0  0
   -4.8664   -3.2326    1.2138 H   0  0  0  0  0  0  0  0  0  0  0  0
   -5.3056   -2.2836    3.4650 H   0  0  0  0  0  0  0  0  0  0  0  0
   -4.3880   -0.0615    4.0777 H   0  0  0  0  0  0  0  0  0  0  0  0
   -3.0371    1.2142    2.4574 H   0  0  0  0  0  0  0  0  0  0  0  0
   -0.1847   -0.1323    1.1982 H   0  0  0  0  0  0  0  0  0  0  0  0
   -0.8690   -1.7136    0.7988 H   0  0  0  0  0  0  0  0  0  0  0  0
    1.5419   -1.8227    0.7140 H   0  0  0  0  0  0  0  0  0  0  0  0
    0.8752   -2.1019   -0.9025 H   0  0  0  0  0  0  0  0  0  0  0  0
    5.5009    2.6630    1.5780 H   0  0  0  0  0  0  0  0  0  0  0  0
    7.7631    1.7646    2.1328 H   0  0  0  0  0  0  0  0  0  0  0  0
    8.3671   -0.5588    1.5379 H   0  0  0  0  0  0  0  0  0  0  0  0
    6.7312   -2.0428    0.3893 H   0  0  0  0  0  0  0  0  0  0  0  0
  1  2  1  0
  2  3  1  0
  3  4  1  0
  4  5  1  0
  5  6  1  0
  6  7  1  0
  7  8  1  0
  8  9  1  0
  9 10  2  0
 10 11  1  0
 11 12  2  0
 12 13  1  0
 13 14  2  0
  8 15  1  0
 15 16  2  0
 16 17  1  0
 17 18  2  0
 18 19  1  0
 19 20  2  0
  7 21  1  0
 21 22  1  0
  3 23  2  0
 23 24  1  0
 24 25  2  0
 25 26  1  0
 26 27  2  0
 27 28  1  0
 28 29  2  0
 29  2  1  0
 22  4  1  0
 29 24  1  0
 14  9  1  0
 20 15  1  0
  1 30  1  0
  1 31  1  0
  1 32  1  0
  5 33  1  0
  5 34  1  0
  6 35  1  0
  6 36  1  0
  8 37  1  0
 10 38  1  0
 11 39  1  0
 12 40  1  0
 13 41  1  0
 14 42  1  0
 16 43  1  0
 17 44  1  0
 18 45  1  0
 19 46  1  0
 20 47  1  0
 21 48  1  0
 21 49  1  0
 22 50  1  0
 22 51  1  0
 25 52  1  0
 26 53  1  0
 27 54  1  0
 28 55  1  0
M  END
$$$$
