
     RDKit          3D

 32 33  0  0  0  0  0  0  0  0999 V2000
   -5.6913   -0.6476    0.1894 C   0  0  0  0  0  0  0  0  0  0  0  0
   -4.8209    0.5391    0.5577 C   0  0  0  0  0  0  0  0  0  0  0  0
   -3.5440    0.4358   -0.0895 O   0  0  0  0  0  0  0  0  0  0  0  0
   -2.6038   -0.2837    0.5729 C   0  0  0  0  0  0  0  0  0  0  0  0
   -2.7537   -0.8399    1.6493 O   0  0  0  0  0  0  0  0  0  0  0  0
   -1.3310   -0.3169   -0.1983 C   0  0  0  0  0  0  0  0  0  0  0  0
   -1.1735    0.3480   -1.4208 C   0  0  0  0  0  0  0  0  0  0  0  0
    0.0457    0.2878   -2.1032 C   0  0  0  0  0  0  0  0  0  0  0  0
    1.1244   -0.4390   -1.5776 C   0  0  0  0  0  0  0  0  0  0  0  0
    2.4464   -0.4875   -2.3071 C   0  0  0  0  0  0  0  0  0  0  0  0
    3.4294    1.0214   -2.0709 S   0  0  0  0  0  0  0  0  0  0  0  0
    4.0010    0.7834   -0.4374 C   0  0  0  0  0  0  0  0  0  0  0  0
    4.2644   -0.4061    0.0564 N   0  0  0  0  0  0  0  0  0  0  0  0
    4.6914   -0.3354    1.3682 N   0  0  0  0  0  0  0  0  0  0  0  0
    4.7524    0.9014    1.8088 C   0  0  0  0  0  0  0  0  0  0  0  0
    5.1320    1.2510    3.0532 N   0  0  0  0  0  0  0  0  0  0  0  0
    4.2780    2.0766    0.6489 S   0  0  0  0  0  0  0  0  0  0  0  0
    0.9615   -1.1017   -0.3529 C   0  0  0  0  0  0  0  0  0  0  0  0
   -0.2557   -1.0412    0.3309 C   0  0  0  0  0  0  0  0  0  0  0  0
   -5.2460   -1.5848    0.5380 H   0  0  0  0  0  0  0  0  0  0  0  0
   -5.7918   -0.7279   -0.8980 H   0  0  0  0  0  0  0  0  0  0  0  0
   -6.6876   -0.5493    0.6297 H   0  0  0  0  0  0  0  0  0  0  0  0
   -5.2871    1.4627    0.1991 H   0  0  0  0  0  0  0  0  0  0  0  0
   -4.7111    0.6350    1.6440 H   0  0  0  0  0  0  0  0  0  0  0  0
   -1.9894    0.9206   -1.8550 H   0  0  0  0  0  0  0  0  0  0  0  0
    0.1495    0.8173   -3.0488 H   0  0  0  0  0  0  0  0  0  0  0  0
    3.0213   -1.3760   -2.0226 H   0  0  0  0  0  0  0  0  0  0  0  0
    2.2505   -0.5945   -3.3806 H   0  0  0  0  0  0  0  0  0  0  0  0
    4.7996    2.1384    3.4119 H   0  0  0  0  0  0  0  0  0  0  0  0
    5.1136    0.5034    3.7394 H   0  0  0  0  0  0  0  0  0  0  0  0
    1.7846   -1.6667    0.0835 H   0  0  0  0  0  0  0  0  0  0  0  0
   -0.3587   -1.5621    1.2814 H   0  0  0  0  0  0  0  0  0  0  0  0
  1  2  1  0
  2  3  1  0
  3  4  1  0
  4  5  2  0
  4  6  1  0
  6  7  2  0
  7  8  1  0
  8  9  2  0
  9 10  1  0
 10 11  1  0
 11 12  1  0
 12 13  2  0
 13 14  1  0
 14 15  2  0
 15 16  1  0
 15 17  1  0
  9 18  1  0
 18 19  2  0
 19  6  1  0
 17 12  1  0
  1 20  1  0
  1 21  1  0
  1 22  1  0
  2 23  1  0
  2 24  1  0
  7 25  1  0
  8 26  1  0
 10 27  1  0
 10 28  1  0
 16 29  1  0
 16 30  1  0
 18 31  1  0
 19 32  1  0
M  END
$$$$
