
     RDKit          3D

 43 44  0  0  0  0  0  0  0  0999 V2000
   -6.7827    2.2441   -1.3757 C   0  0  0  0  0  0  0  0  0  0  0  0
   -6.0852    1.1122   -0.6369 C   0  0  0  0  0  0  0  0  0  0  0  0
   -4.6190    1.4443   -0.3581 C   0  0  0  0  0  0  0  0  0  0  0  0
   -3.9731    0.3744    0.4343 C   0  0  0  0  0  0  0  0  0  0  0  0
   -3.3971   -0.7403    0.0394 N   0  0  0  0  0  0  0  0  0  0  0  0
   -2.9789   -1.3822    1.1879 N   0  0  0  0  0  0  0  0  0  0  0  0
   -3.3389   -0.6167    2.2011 C   0  0  0  0  0  0  0  0  0  0  0  0
   -3.0239   -0.9734    3.8692 S   0  0  0  0  0  0  0  0  0  0  0  0
   -1.4259   -1.8141    3.7051 C   0  0  0  0  0  0  0  0  0  0  0  0
   -0.3867   -0.9170    3.0352 C   0  0  0  0  0  0  0  0  0  0  0  0
   -0.2225    0.2492    3.3854 O   0  0  0  0  0  0  0  0  0  0  0  0
    0.3344   -1.5778    2.0505 N   0  0  0  0  0  0  0  0  0  0  0  0
    1.3261   -1.0394    1.2047 C   0  0  0  0  0  0  0  0  0  0  0  0
    1.9820   -1.9313    0.3445 C   0  0  0  0  0  0  0  0  0  0  0  0
    2.9688   -1.4809   -0.5400 C   0  0  0  0  0  0  0  0  0  0  0  0
    3.3066   -0.1238   -0.5850 C   0  0  0  0  0  0  0  0  0  0  0  0
    4.3280    0.4146   -1.5234 C   0  0  0  0  0  0  0  0  0  0  0  0
    4.5662    1.6051   -1.6501 O   0  0  0  0  0  0  0  0  0  0  0  0
    4.9384   -0.5967   -2.1891 O   0  0  0  0  0  0  0  0  0  0  0  0
    5.9322   -0.2027   -3.1474 C   0  0  0  0  0  0  0  0  0  0  0  0
    7.2700    0.0202   -2.4660 C   0  0  0  0  0  0  0  0  0  0  0  0
    2.6517    0.7679    0.2718 C   0  0  0  0  0  0  0  0  0  0  0  0
    1.6722    0.3124    1.1640 C   0  0  0  0  0  0  0  0  0  0  0  0
   -3.9902    0.5141    1.7946 O   0  0  0  0  0  0  0  0  0  0  0  0
   -6.2834    2.4693   -2.3243 H   0  0  0  0  0  0  0  0  0  0  0  0
   -6.7974    3.1549   -0.7691 H   0  0  0  0  0  0  0  0  0  0  0  0
   -7.8185    1.9714   -1.5959 H   0  0  0  0  0  0  0  0  0  0  0  0
   -6.1544    0.1957   -1.2337 H   0  0  0  0  0  0  0  0  0  0  0  0
   -6.6148    0.9182    0.3036 H   0  0  0  0  0  0  0  0  0  0  0  0
   -4.5452    2.3981    0.1830 H   0  0  0  0  0  0  0  0  0  0  0  0
   -4.0802    1.5707   -1.3069 H   0  0  0  0  0  0  0  0  0  0  0  0
   -1.5700   -2.7483    3.1538 H   0  0  0  0  0  0  0  0  0  0  0  0
   -1.0522   -2.0749    4.7008 H   0  0  0  0  0  0  0  0  0  0  0  0
    0.1209   -2.5556    1.8972 H   0  0  0  0  0  0  0  0  0  0  0  0
    1.7402   -2.9922    0.3518 H   0  0  0  0  0  0  0  0  0  0  0  0
    3.4615   -2.2027   -1.1892 H   0  0  0  0  0  0  0  0  0  0  0  0
    6.0204   -1.0243   -3.8679 H   0  0  0  0  0  0  0  0  0  0  0  0
    5.6137    0.6834   -3.7058 H   0  0  0  0  0  0  0  0  0  0  0  0
    7.2154    0.8471   -1.7496 H   0  0  0  0  0  0  0  0  0  0  0  0
    8.0445    0.2509   -3.2048 H   0  0  0  0  0  0  0  0  0  0  0  0
    7.5713   -0.8706   -1.9027 H   0  0  0  0  0  0  0  0  0  0  0  0
    2.8930    1.8297    0.2489 H   0  0  0  0  0  0  0  0  0  0  0  0
    1.1827    1.0492    1.7948 H   0  0  0  0  0  0  0  0  0  0  0  0
  1  2  1  0
  2  3  1  0
  3  4  1  0
  4  5  2  0
  5  6  1  0
  6  7  2  0
  7  8  1  0
  8  9  1  0
  9 10  1  0
 10 11  2  0
 10 12  1  0
 12 13  1  0
 13 14  2  0
 14 15  1  0
 15 16  2  0
 16 17  1  0
 17 18  2  0
 17 19  1  0
 19 20  1  0
 20 21  1  0
 16 22  1  0
 22 23  2  0
  7 24  1  0
 24  4  1  0
 23 13  1  0
  1 25  1  0
  1 26  1  0
  1 27  1  0
  2 28  1  0
  2 29  1  0
  3 30  1  0
  3 31  1  0
  9 32  1  0
  9 33  1  0
 12 34  1  0
 14 35  1  0
 15 36  1  0
 20 37  1  0
 20 38  1  0
 21 39  1  0
 21 40  1  0
 21 41  1  0
 22 42  1  0
 23 43  1  0
M  END
$$$$
