
     RDKit          3D

 30 31  0  0  0  0  0  0  0  0999 V2000
    0.8726    0.9830    1.4482 O   0  0  0  0  0  0  0  0  0  0  0  0
    0.8751    0.4910    0.3249 C   0  0  0  0  0  0  0  0  0  0  0  0
   -0.3769    0.2898   -0.5359 C   0  0  0  0  0  0  0  0  0  0  0  0
   -1.5537    0.6270    0.1805 O   0  0  0  0  0  0  0  0  0  0  0  0
   -2.7591    0.4939   -0.4558 C   0  0  0  0  0  0  0  0  0  0  0  0
   -2.9149    0.0730   -1.7813 C   0  0  0  0  0  0  0  0  0  0  0  0
   -4.1918   -0.0305   -2.3447 C   0  0  0  0  0  0  0  0  0  0  0  0
   -5.3174    0.2857   -1.5875 C   0  0  0  0  0  0  0  0  0  0  0  0
   -6.8818    0.1544   -2.2899 Cl  0  0  0  0  0  0  0  0  0  0  0  0
   -5.1832    0.7061   -0.2693 C   0  0  0  0  0  0  0  0  0  0  0  0
   -3.9081    0.8093    0.2924 C   0  0  0  0  0  0  0  0  0  0  0  0
   -3.7945    1.3350    1.9366 Cl  0  0  0  0  0  0  0  0  0  0  0  0
    2.0393    0.0530   -0.2854 N   0  0  0  0  0  0  0  0  0  0  0  0
    3.3384    0.3340    0.3233 C   0  0  0  0  0  0  0  0  0  0  0  0
    3.6324   -0.4696    1.5913 C   0  0  0  0  0  0  0  0  0  0  0  0
    4.2033   -1.8125    1.1785 C   0  0  0  0  0  0  0  0  0  0  0  0
    5.3892   -1.3945   -0.1254 S   0  0  0  0  0  0  0  0  0  0  0  0
    4.4292   -0.0273   -0.6761 C   0  0  0  0  0  0  0  0  0  0  0  0
    4.5416    0.4554   -1.7942 O   0  0  0  0  0  0  0  0  0  0  0  0
   -0.4059   -0.7655   -0.8329 H   0  0  0  0  0  0  0  0  0  0  0  0
   -0.2704    0.9372   -1.4146 H   0  0  0  0  0  0  0  0  0  0  0  0
   -2.0673   -0.1820   -2.4090 H   0  0  0  0  0  0  0  0  0  0  0  0
   -4.3002   -0.3583   -3.3761 H   0  0  0  0  0  0  0  0  0  0  0  0
   -6.0622    0.9526    0.3197 H   0  0  0  0  0  0  0  0  0  0  0  0
    2.0267   -0.0209   -1.2989 H   0  0  0  0  0  0  0  0  0  0  0  0
    3.3905    1.4077    0.5367 H   0  0  0  0  0  0  0  0  0  0  0  0
    2.7500   -0.6074    2.2239 H   0  0  0  0  0  0  0  0  0  0  0  0
    4.3741    0.0685    2.1976 H   0  0  0  0  0  0  0  0  0  0  0  0
    3.4271   -2.4670    0.7697 H   0  0  0  0  0  0  0  0  0  0  0  0
    4.6979   -2.3210    2.0102 H   0  0  0  0  0  0  0  0  0  0  0  0
  1  2  2  0
  2  3  1  0
  3  4  1  0
  4  5  1  0
  5  6  2  0
  6  7  1  0
  7  8  2  0
  8  9  1  0
  8 10  1  0
 10 11  2  0
 11 12  1  0
  2 13  1  0
 13 14  1  0
 14 15  1  0
 15 16  1  0
 16 17  1  0
 17 18  1  0
 18 19  2  0
 11  5  1  0
 18 14  1  0
  3 20  1  0
  3 21  1  0
  6 22  1  0
  7 23  1  0
 10 24  1  0
 13 25  1  0
 14 26  1  0
 15 27  1  0
 15 28  1  0
 16 29  1  0
 16 30  1  0
M  END
$$$$
