
     RDKit          3D

 36 38  0  0  0  0  0  0  0  0999 V2000
   -6.4140   -1.1447    1.5315 C   0  0  0  0  0  0  0  0  0  0  0  0
   -5.9072    0.1670    1.3194 O   0  0  0  0  0  0  0  0  0  0  0  0
   -4.6272    0.2676    0.8508 C   0  0  0  0  0  0  0  0  0  0  0  0
   -4.1855    1.5736    0.6338 C   0  0  0  0  0  0  0  0  0  0  0  0
   -2.8953    1.8233    0.1541 C   0  0  0  0  0  0  0  0  0  0  0  0
   -2.0197    0.7653   -0.1190 C   0  0  0  0  0  0  0  0  0  0  0  0
   -0.6555    1.0058   -0.6053 C   0  0  0  0  0  0  0  0  0  0  0  0
   -0.2637    2.0046   -1.4079 C   0  0  0  0  0  0  0  0  0  0  0  0
    1.2043    1.8565   -1.5360 C   0  0  0  0  0  0  0  0  0  0  0  0
    1.8867    2.6227   -2.1944 O   0  0  0  0  0  0  0  0  0  0  0  0
    1.5548    0.7369   -0.7799 N   0  0  0  0  0  0  0  0  0  0  0  0
    2.8101    0.1154   -0.6157 C   0  0  0  0  0  0  0  0  0  0  0  0
    3.9787    0.6912   -1.1361 C   0  0  0  0  0  0  0  0  0  0  0  0
    5.2268    0.0766   -0.9697 C   0  0  0  0  0  0  0  0  0  0  0  0
    5.3139   -1.1333   -0.2754 C   0  0  0  0  0  0  0  0  0  0  0  0
    6.6183   -1.7831   -0.0974 N   0  0  0  0  0  4  0  0  0  0  0  0
    7.6124   -1.2250   -0.5826 O   0  0  0  0  0  0  0  0  0  0  0  0
    6.6478   -2.8514    0.5304 O   0  0  0  0  0  1  0  0  0  0  0  0
    4.1626   -1.7286    0.2494 C   0  0  0  0  0  0  0  0  0  0  0  0
    2.9214   -1.1032    0.0765 C   0  0  0  0  0  0  0  0  0  0  0  0
    0.3915    0.1747   -0.2262 N   0  0  0  0  0  0  0  0  0  0  0  0
   -2.4697   -0.5437    0.1072 C   0  0  0  0  0  0  0  0  0  0  0  0
   -3.7631   -0.7926    0.5855 C   0  0  0  0  0  0  0  0  0  0  0  0
   -7.4430   -1.0513    1.8917 H   0  0  0  0  0  0  0  0  0  0  0  0
   -5.8383   -1.6702    2.3005 H   0  0  0  0  0  0  0  0  0  0  0  0
   -6.4387   -1.7146    0.5967 H   0  0  0  0  0  0  0  0  0  0  0  0
   -4.8525    2.4074    0.8414 H   0  0  0  0  0  0  0  0  0  0  0  0
   -2.5883    2.8565    0.0099 H   0  0  0  0  0  0  0  0  0  0  0  0
   -0.8267    2.7954   -1.8660 H   0  0  0  0  0  0  0  0  0  0  0  0
    3.9481    1.6330   -1.6798 H   0  0  0  0  0  0  0  0  0  0  0  0
    6.1097    0.5563   -1.3882 H   0  0  0  0  0  0  0  0  0  0  0  0
    4.2087   -2.6741    0.7862 H   0  0  0  0  0  0  0  0  0  0  0  0
    2.0409   -1.5994    0.4773 H   0  0  0  0  0  0  0  0  0  0  0  0
    0.4325    0.1021    0.7922 H   0  0  0  0  0  0  0  0  0  0  0  0
   -1.8202   -1.3914   -0.1042 H   0  0  0  0  0  0  0  0  0  0  0  0
   -4.0607   -1.8250    0.7354 H   0  0  0  0  0  0  0  0  0  0  0  0
  1  2  1  0
  2  3  1  0
  3  4  2  0
  4  5  1  0
  5  6  2  0
  6  7  1  0
  7  8  2  0
  8  9  1  0
  9 10  2  0
  9 11  1  0
 11 12  1  0
 12 13  2  0
 13 14  1  0
 14 15  2  0
 15 16  1  0
 16 17  2  0
 16 18  1  0
 15 19  1  0
 19 20  2  0
 11 21  1  0
  6 22  1  0
 22 23  2  0
 23  3  1  0
 21  7  1  0
 20 12  1  0
  1 24  1  0
  1 25  1  0
  1 26  1  0
  4 27  1  0
  5 28  1  0
  8 29  1  0
 13 30  1  0
 14 31  1  0
 19 32  1  0
 20 33  1  0
 21 34  1  0
 22 35  1  0
 23 36  1  0
M  CHG  2  16   1  18  -1
M  END
$$$$
