
     RDKit          3D

 43 45  0  0  0  0  0  0  0  0999 V2000
   -0.7626   -3.8819   -0.2169 C   0  0  0  0  0  0  0  0  0  0  0  0
   -0.7765   -2.9716    0.9826 C   0  0  0  0  0  0  0  0  0  0  0  0
   -1.5966   -3.1068    1.8903 O   0  0  0  0  0  0  0  0  0  0  0  0
    0.2366   -1.8894    1.0261 C   0  0  0  0  0  0  0  0  0  0  0  0
   -0.0149   -0.7452    0.3488 C   0  0  0  0  0  0  0  0  0  0  0  0
   -1.1993   -0.5250   -0.3613 N   0  0  0  0  0  0  0  0  0  0  0  0
   -2.4498   -0.2229    0.3871 C   0  0  0  0  0  0  0  0  0  0  0  0
   -3.6945   -0.5971   -0.4485 C   0  0  0  0  0  0  0  0  0  0  0  0
   -3.7413   -0.0055   -1.8054 N   0  0  0  0  0  0  0  0  0  0  0  0
   -4.0504    1.4212   -1.7635 C   0  0  0  0  0  0  0  0  0  0  0  0
   -2.4617   -0.2732   -2.4953 C   0  0  0  0  0  0  0  0  0  0  0  0
   -1.1896    0.1032   -1.7006 C   0  0  0  0  0  0  0  0  0  0  0  0
    0.9621    0.2188    0.3575 N   0  0  0  0  0  0  0  0  0  0  0  0
    2.1309    0.0943    1.0592 C   0  0  0  0  0  0  0  0  0  0  0  0
    3.1069    1.2289    1.0869 C   0  0  0  0  0  0  0  0  0  0  0  0
    2.6875    2.5531    0.9050 C   0  0  0  0  0  0  0  0  0  0  0  0
    3.6221    3.5919    0.9278 C   0  0  0  0  0  0  0  0  0  0  0  0
    4.9728    3.3146    1.1359 C   0  0  0  0  0  0  0  0  0  0  0  0
    5.3936    2.0000    1.3299 C   0  0  0  0  0  0  0  0  0  0  0  0
    4.4635    0.9592    1.3092 C   0  0  0  0  0  0  0  0  0  0  0  0
    2.4349   -0.9905    1.7062 N   0  0  0  0  0  0  0  0  0  0  0  0
    1.5636   -2.0669    1.7067 C   0  0  0  0  0  0  0  0  0  0  0  0
    2.0427   -3.5192    2.4378 S   0  0  0  0  0  0  0  0  0  0  0  0
   -1.6854   -3.7414   -0.7857 H   0  0  0  0  0  0  0  0  0  0  0  0
    0.0885   -3.6641   -0.8684 H   0  0  0  0  0  0  0  0  0  0  0  0
   -0.6824   -4.9189    0.1197 H   0  0  0  0  0  0  0  0  0  0  0  0
   -2.4862   -0.7687    1.3352 H   0  0  0  0  0  0  0  0  0  0  0  0
   -2.4647    0.8444    0.6398 H   0  0  0  0  0  0  0  0  0  0  0  0
   -3.7196   -1.6891   -0.5616 H   0  0  0  0  0  0  0  0  0  0  0  0
   -4.6034   -0.3353    0.1068 H   0  0  0  0  0  0  0  0  0  0  0  0
   -3.3041    2.0118   -1.2231 H   0  0  0  0  0  0  0  0  0  0  0  0
   -4.1294    1.8227   -2.7800 H   0  0  0  0  0  0  0  0  0  0  0  0
   -5.0238    1.5861   -1.2883 H   0  0  0  0  0  0  0  0  0  0  0  0
   -2.4475    0.2289   -3.4705 H   0  0  0  0  0  0  0  0  0  0  0  0
   -2.4238   -1.3485   -2.7158 H   0  0  0  0  0  0  0  0  0  0  0  0
   -0.3151   -0.2425   -2.2654 H   0  0  0  0  0  0  0  0  0  0  0  0
   -1.1086    1.1920   -1.5999 H   0  0  0  0  0  0  0  0  0  0  0  0
    0.7431    1.0636   -0.1461 H   0  0  0  0  0  0  0  0  0  0  0  0
    1.6396    2.8034    0.7770 H   0  0  0  0  0  0  0  0  0  0  0  0
    3.2966    4.6209    0.7947 H   0  0  0  0  0  0  0  0  0  0  0  0
    5.6981    4.1245    1.1577 H   0  0  0  0  0  0  0  0  0  0  0  0
    6.4450    1.7831    1.5024 H   0  0  0  0  0  0  0  0  0  0  0  0
    4.8031   -0.0628    1.4660 H   0  0  0  0  0  0  0  0  0  0  0  0
  1  2  1  0
  2  3  2  0
  2  4  1  0
  4  5  2  0
  5  6  1  0
  6  7  1  0
  7  8  1  0
  8  9  1  0
  9 10  1  0
  9 11  1  0
 11 12  1  0
  5 13  1  0
 13 14  1  0
 14 15  1  0
 15 16  2  0
 16 17  1  0
 17 18  2  0
 18 19  1  0
 19 20  2  0
 14 21  2  0
 21 22  1  0
 22 23  2  0
 22  4  1  0
 12  6  1  0
 20 15  1  0
  1 24  1  0
  1 25  1  0
  1 26  1  0
  7 27  1  0
  7 28  1  0
  8 29  1  0
  8 30  1  0
 10 31  1  0
 10 32  1  0
 10 33  1  0
 11 34  1  0
 11 35  1  0
 12 36  1  0
 12 37  1  0
 13 38  1  0
 16 39  1  0
 17 40  1  0
 18 41  1  0
 19 42  1  0
 20 43  1  0
M  END
$$$$
