
     RDKit          3D

 47 50  0  0  0  0  0  0  0  0999 V2000
   -3.1613   -1.8714    0.8813 O   0  0  0  0  0  0  0  0  0  0  0  0
   -3.3467   -0.6966    0.5414 C   0  0  0  0  0  0  0  0  0  0  0  0
   -4.5859    0.1053    1.0368 C   0  0  0  0  0  0  0  0  0  0  0  0
   -5.6286   -0.6503    1.9144 C   0  0  0  0  0  0  0  0  0  0  0  0
   -5.8170    0.6581    2.7039 C   0  0  0  0  0  0  0  0  0  0  0  0
   -4.3939    1.0444    2.2623 C   0  0  0  0  0  0  0  0  0  0  0  0
   -2.4811   -0.0063   -0.3025 N   0  0  0  0  0  0  0  0  0  0  0  0
   -2.6463    1.3896   -0.7395 C   0  0  0  0  0  0  0  0  0  0  0  0
   -1.4373    1.7536   -1.6098 C   0  0  0  0  0  0  0  0  0  0  0  0
   -0.7022    0.4547   -1.6831 C   0  0  0  0  0  0  0  0  0  0  0  0
    0.4564    0.1892   -2.3990 C   0  0  0  0  0  0  0  0  0  0  0  0
    0.9865   -1.1036   -2.3301 C   0  0  0  0  0  0  0  0  0  0  0  0
    2.4436   -1.4860   -3.2771 S   0  0  0  0  0  6  0  0  0  0  0  0
    2.6506   -2.9173   -3.2328 O   0  0  0  0  0  0  0  0  0  0  0  0
    2.3370   -0.7678   -4.5277 O   0  0  0  0  0  0  0  0  0  0  0  0
    3.6619   -0.7664   -2.3925 N   0  0  0  0  0  0  0  0  0  0  0  0
    3.9934   -1.3304   -1.0763 C   0  0  0  0  0  0  0  0  0  0  0  0
    4.6104   -0.2791   -0.1718 C   0  0  0  0  0  0  0  0  0  0  0  0
    5.4016   -0.6587    0.9105 C   0  0  0  0  0  0  0  0  0  0  0  0
    5.9430    0.3335    1.7237 C   0  0  0  0  0  0  0  0  0  0  0  0
    5.6776    1.6685    1.4421 C   0  0  0  0  0  0  0  0  0  0  0  0
    4.8704    1.9619    0.3550 C   0  0  0  0  0  0  0  0  0  0  0  0
    4.3246    1.0250   -0.4530 N   0  0  0  0  0  0  0  0  0  0  0  0
    0.3587   -2.1056   -1.5719 C   0  0  0  0  0  0  0  0  0  0  0  0
   -0.8040   -1.8138   -0.8493 C   0  0  0  0  0  0  0  0  0  0  0  0
   -1.3262   -0.5305   -0.9139 C   0  0  0  0  0  0  0  0  0  0  0  0
   -5.0986    0.6115    0.2052 H   0  0  0  0  0  0  0  0  0  0  0  0
   -5.2163   -1.4676    2.5180 H   0  0  0  0  0  0  0  0  0  0  0  0
   -6.5161   -1.0124    1.3881 H   0  0  0  0  0  0  0  0  0  0  0  0
   -5.9681    0.5484    3.7806 H   0  0  0  0  0  0  0  0  0  0  0  0
   -6.5981    1.3107    2.2964 H   0  0  0  0  0  0  0  0  0  0  0  0
   -3.6094    0.7217    2.9574 H   0  0  0  0  0  0  0  0  0  0  0  0
   -4.2525    2.1045    2.0349 H   0  0  0  0  0  0  0  0  0  0  0  0
   -2.7180    2.0443    0.1355 H   0  0  0  0  0  0  0  0  0  0  0  0
   -3.5799    1.4722   -1.3086 H   0  0  0  0  0  0  0  0  0  0  0  0
   -1.7520    2.0969   -2.6007 H   0  0  0  0  0  0  0  0  0  0  0  0
   -0.8245    2.5238   -1.1297 H   0  0  0  0  0  0  0  0  0  0  0  0
    0.9287    0.9584   -3.0032 H   0  0  0  0  0  0  0  0  0  0  0  0
    3.6319    0.2577   -2.3791 H   0  0  0  0  0  0  0  0  0  0  0  0
    3.1067   -1.7208   -0.5690 H   0  0  0  0  0  0  0  0  0  0  0  0
    4.7031   -2.1507   -1.2283 H   0  0  0  0  0  0  0  0  0  0  0  0
    5.6017   -1.7047    1.1180 H   0  0  0  0  0  0  0  0  0  0  0  0
    6.5679    0.0670    2.5723 H   0  0  0  0  0  0  0  0  0  0  0  0
    6.0903    2.4623    2.0560 H   0  0  0  0  0  0  0  0  0  0  0  0
    4.6350    2.9907    0.0977 H   0  0  0  0  0  0  0  0  0  0  0  0
    0.7624   -3.1162   -1.5437 H   0  0  0  0  0  0  0  0  0  0  0  0
   -1.2796   -2.5976   -0.2691 H   0  0  0  0  0  0  0  0  0  0  0  0
  1  2  2  0
  2  3  1  0
  3  4  1  0
  4  5  1  0
  5  6  1  0
  2  7  1  0
  7  8  1  0
  8  9  1  0
  9 10  1  0
 10 11  2  0
 11 12  1  0
 12 13  1  0
 13 14  2  0
 13 15  2  0
 13 16  1  0
 16 17  1  0
 17 18  1  0
 18 19  2  0
 19 20  1  0
 20 21  2  0
 21 22  1  0
 22 23  2  0
 12 24  2  0
 24 25  1  0
 25 26  2  0
  6  3  1  0
 26  7  1  0
 26 10  1  0
 23 18  1  0
  3 27  1  0
  4 28  1  0
  4 29  1  0
  5 30  1  0
  5 31  1  0
  6 32  1  0
  6 33  1  0
  8 34  1  0
  8 35  1  0
  9 36  1  0
  9 37  1  0
 11 38  1  0
 16 39  1  0
 17 40  1  0
 17 41  1  0
 19 42  1  0
 20 43  1  0
 21 44  1  0
 22 45  1  0
 24 46  1  0
 25 47  1  0
M  END
$$$$
