
     RDKit          3D

 33 34  0  0  0  0  0  0  0  0999 V2000
   -3.8035   -3.0516    2.8218 C   0  0  0  0  0  0  0  0  0  0  0  0
   -2.5719   -1.8242    2.3300 S   0  0  0  0  0  0  0  0  0  0  0  0
   -3.0042   -1.5168    0.6446 C   0  0  0  0  0  0  0  0  0  0  0  0
   -4.1826   -1.9425    0.1987 N   0  0  0  0  0  0  0  0  0  0  0  0
   -4.3631   -1.4693   -1.3661 S   0  0  0  0  0  0  0  0  0  0  0  0
   -2.8445   -0.6873   -1.5012 C   0  0  0  0  0  0  0  0  0  0  0  0
   -2.3285    0.0721   -3.0010 S   0  0  0  0  0  0  0  0  0  0  0  0
   -2.0095   -1.3865   -4.0227 C   0  0  0  0  0  0  0  0  0  0  0  0
   -2.1805   -0.7670   -0.2799 C   0  0  0  0  0  0  0  0  0  0  0  0
   -0.8575   -0.2187    0.0127 C   0  0  0  0  0  0  0  0  0  0  0  0
   -0.0649   -0.7766    0.7699 O   0  0  0  0  0  0  0  0  0  0  0  0
   -0.5598    0.9907   -0.5906 N   0  0  0  0  0  0  0  0  0  0  0  0
    0.6399    1.6678   -0.6090 C   0  0  0  0  0  0  0  0  0  0  0  0
    0.7565    2.6181   -1.3780 O   0  0  0  0  0  0  0  0  0  0  0  0
    1.6011    1.1913    0.2414 N   0  0  0  0  0  0  0  0  0  0  0  0
    2.9075    1.6832    0.4229 C   0  0  0  0  0  0  0  0  0  0  0  0
    3.7090    1.0510    1.3758 C   0  0  0  0  0  0  0  0  0  0  0  0
    5.0066    1.5039    1.6068 C   0  0  0  0  0  0  0  0  0  0  0  0
    5.4665    2.5812    0.8693 C   0  0  0  0  0  0  0  0  0  0  0  0
    4.7274    3.2172   -0.0628 N   0  0  0  0  0  0  0  0  0  0  0  0
    3.4650    2.7574   -0.2644 C   0  0  0  0  0  0  0  0  0  0  0  0
   -3.5995   -3.3672    3.8497 H   0  0  0  0  0  0  0  0  0  0  0  0
   -4.8120   -2.6274    2.7908 H   0  0  0  0  0  0  0  0  0  0  0  0
   -3.7518   -3.9340    2.1778 H   0  0  0  0  0  0  0  0  0  0  0  0
   -2.9266   -1.9627   -4.1709 H   0  0  0  0  0  0  0  0  0  0  0  0
   -1.2470   -2.0217   -3.5613 H   0  0  0  0  0  0  0  0  0  0  0  0
   -1.6468   -1.0608   -5.0010 H   0  0  0  0  0  0  0  0  0  0  0  0
   -1.2130    1.3642   -1.2653 H   0  0  0  0  0  0  0  0  0  0  0  0
    1.3215    0.4009    0.8217 H   0  0  0  0  0  0  0  0  0  0  0  0
    3.3329    0.2094    1.9520 H   0  0  0  0  0  0  0  0  0  0  0  0
    5.6420    1.0245    2.3426 H   0  0  0  0  0  0  0  0  0  0  0  0
    6.4701    2.9720    1.0105 H   0  0  0  0  0  0  0  0  0  0  0  0
    2.9212    3.3094   -1.0237 H   0  0  0  0  0  0  0  0  0  0  0  0
  1  2  1  0
  2  3  1  0
  3  4  2  0
  4  5  1  0
  5  6  1  0
  6  7  1  0
  7  8  1  0
  6  9  2  0
  9 10  1  0
 10 11  2  0
 10 12  1  0
 12 13  1  0
 13 14  2  0
 13 15  1  0
 15 16  1  0
 16 17  2  0
 17 18  1  0
 18 19  2  0
 19 20  1  0
 20 21  2  0
  9  3  1  0
 21 16  1  0
  1 22  1  0
  1 23  1  0
  1 24  1  0
  8 25  1  0
  8 26  1  0
  8 27  1  0
 12 28  1  0
 15 29  1  0
 17 30  1  0
 18 31  1  0
 19 32  1  0
 21 33  1  0
M  END
$$$$
