
     RDKit          3D

 44 47  0  0  0  0  0  0  0  0999 V2000
    0.6920   -2.3517   -0.0597 O   0  0  0  0  0  0  0  0  0  0  0  0
    1.2947   -1.4848    0.9374 S   0  0  0  0  0  6  0  0  0  0  0  0
    1.7316   -2.0494    2.1964 O   0  0  0  0  0  0  0  0  0  0  0  0
    2.6701   -0.6707    0.1772 C   0  0  0  0  0  0  0  0  0  0  0  0
    3.0712   -1.1038   -1.0992 C   0  0  0  0  0  0  0  0  0  0  0  0
    4.1528   -0.5010   -1.7252 C   0  0  0  0  0  0  0  0  0  0  0  0
    4.8285    0.5256   -1.0756 C   0  0  0  0  0  0  0  0  0  0  0  0
    4.4250    0.9553    0.2012 C   0  0  0  0  0  0  0  0  0  0  0  0
    5.1145    1.9915    0.8461 C   0  0  0  0  0  0  0  0  0  0  0  0
    4.7154    2.4170    2.1048 C   0  0  0  0  0  0  0  0  0  0  0  0
    3.6303    1.7910    2.6771 C   0  0  0  0  0  0  0  0  0  0  0  0
    2.9414    0.7952    2.0803 N   0  0  0  0  0  0  0  0  0  0  0  0
    3.3237    0.3582    0.8591 C   0  0  0  0  0  0  0  0  0  0  0  0
    0.1543   -0.2548    1.2333 N   0  0  0  0  0  0  0  0  0  0  0  0
   -0.2788    0.5332    0.0319 C   0  0  0  0  0  0  0  0  0  0  0  0
   -1.6611    1.1753    0.2348 C   0  0  0  0  0  0  0  0  0  0  0  0
   -2.7018    0.1536    0.4657 N   0  0  0  0  0  0  0  0  0  0  0  0
   -3.5941   -0.1917   -0.5576 C   0  0  0  0  0  0  0  0  0  0  0  0
   -3.3577    0.0660   -1.9154 C   0  0  0  0  0  0  0  0  0  0  0  0
   -4.2814   -0.3010   -2.9026 C   0  0  0  0  0  0  0  0  0  0  0  0
   -5.4692   -0.9327   -2.5508 C   0  0  0  0  0  0  0  0  0  0  0  0
   -5.7325   -1.1969   -1.2124 C   0  0  0  0  0  0  0  0  0  0  0  0
   -4.8045   -0.8294   -0.2325 C   0  0  0  0  0  0  0  0  0  0  0  0
   -2.2541   -1.0112    1.2760 C   0  0  0  0  0  0  0  0  0  0  0  0
   -0.9939   -0.6860    2.0987 C   0  0  0  0  0  0  0  0  0  0  0  0
    2.5488   -1.9155   -1.6023 H   0  0  0  0  0  0  0  0  0  0  0  0
    4.4728   -0.8330   -2.7100 H   0  0  0  0  0  0  0  0  0  0  0  0
    5.6791    0.9904   -1.5709 H   0  0  0  0  0  0  0  0  0  0  0  0
    5.9685    2.4704    0.3728 H   0  0  0  0  0  0  0  0  0  0  0  0
    5.2376    3.2125    2.6235 H   0  0  0  0  0  0  0  0  0  0  0  0
    3.2691    2.0758    3.6613 H   0  0  0  0  0  0  0  0  0  0  0  0
    0.4580    1.3251   -0.1397 H   0  0  0  0  0  0  0  0  0  0  0  0
   -0.3075   -0.1073   -0.8562 H   0  0  0  0  0  0  0  0  0  0  0  0
   -1.9051    1.8455   -0.5965 H   0  0  0  0  0  0  0  0  0  0  0  0
   -1.6285    1.8218    1.1216 H   0  0  0  0  0  0  0  0  0  0  0  0
   -2.4366    0.5331   -2.2466 H   0  0  0  0  0  0  0  0  0  0  0  0
   -4.0653   -0.0952   -3.9475 H   0  0  0  0  0  0  0  0  0  0  0  0
   -6.1859   -1.2169   -3.3160 H   0  0  0  0  0  0  0  0  0  0  0  0
   -6.6600   -1.6832   -0.9235 H   0  0  0  0  0  0  0  0  0  0  0  0
   -5.0495   -1.0257    0.8082 H   0  0  0  0  0  0  0  0  0  0  0  0
   -2.0376   -1.8653    0.6209 H   0  0  0  0  0  0  0  0  0  0  0  0
   -3.0511   -1.3062    1.9680 H   0  0  0  0  0  0  0  0  0  0  0  0
   -0.7237   -1.5527    2.7108 H   0  0  0  0  0  0  0  0  0  0  0  0
   -1.1995    0.1294    2.8034 H   0  0  0  0  0  0  0  0  0  0  0  0
  1  2  2  0
  2  3  2  0
  2  4  1  0
  4  5  2  0
  5  6  1  0
  6  7  2  0
  7  8  1  0
  8  9  2  0
  9 10  1  0
 10 11  2  0
 11 12  1  0
 12 13  2  0
  2 14  1  0
 14 15  1  0
 15 16  1  0
 16 17  1  0
 17 18  1  0
 18 19  2  0
 19 20  1  0
 20 21  2  0
 21 22  1  0
 22 23  2  0
 17 24  1  0
 24 25  1  0
 13  4  1  0
 25 14  1  0
 13  8  1  0
 23 18  1  0
  5 26  1  0
  6 27  1  0
  7 28  1  0
  9 29  1  0
 10 30  1  0
 11 31  1  0
 15 32  1  0
 15 33  1  0
 16 34  1  0
 16 35  1  0
 19 36  1  0
 20 37  1  0
 21 38  1  0
 22 39  1  0
 23 40  1  0
 24 41  1  0
 24 42  1  0
 25 43  1  0
 25 44  1  0
M  END
$$$$
