
     RDKit          3D

 44 45  0  0  0  0  0  0  0  0999 V2000
    2.5727    0.9164   -4.7309 C   0  0  0  0  0  0  0  0  0  0  0  0
    1.8780    1.4093   -3.4711 C   0  0  0  0  0  0  0  0  0  0  0  0
    0.5340    0.7256   -3.2058 C   0  0  0  0  0  0  0  0  0  0  0  0
    0.6054   -0.7775   -2.9101 C   0  0  0  0  0  0  0  0  0  0  0  0
    1.3135   -1.0683   -1.6475 N   0  0  0  0  0  0  0  0  0  0  0  0
    2.6913   -1.5483   -1.8163 C   0  0  0  0  0  0  0  0  0  0  0  0
    0.7466   -0.8670   -0.3690 C   0  0  0  0  0  0  0  0  0  0  0  0
   -0.5479   -0.5407   -0.1556 C   0  0  0  0  0  0  0  0  0  0  0  0
   -1.1226   -0.3435    1.1652 C   0  0  0  0  0  0  0  0  0  0  0  0
   -2.2357    0.3906    1.3402 C   0  0  0  0  0  0  0  0  0  0  0  0
   -2.7394    0.7584    2.6649 C   0  0  0  0  0  0  0  0  0  0  0  0
   -4.0028    1.1997    2.8844 C   0  0  0  0  0  0  0  0  0  0  0  0
   -4.4423    1.5852    4.1846 C   0  0  0  0  0  0  0  0  0  0  0  0
   -4.7878    1.8970    5.2478 N   0  0  0  0  0  0  0  0  0  0  0  0
   -4.9633    1.2980    1.8344 C   0  0  0  0  0  0  0  0  0  0  0  0
   -5.7358    1.3796    0.9718 N   0  0  0  0  0  0  0  0  0  0  0  0
   -1.6783    0.6480    3.7521 C   0  0  0  0  0  0  0  0  0  0  0  0
   -0.9596   -0.6963    3.6858 C   0  0  0  0  0  0  0  0  0  0  0  0
   -0.3545   -0.9792    2.3030 C   0  0  0  0  0  0  0  0  0  0  0  0
    1.1017   -0.5340    2.1800 C   0  0  0  0  0  0  0  0  0  0  0  0
    1.6801   -1.0124    0.8387 C   0  0  0  0  0  0  0  0  0  0  0  0
    1.9208    1.0192   -5.6041 H   0  0  0  0  0  0  0  0  0  0  0  0
    2.8714   -0.1316   -4.6451 H   0  0  0  0  0  0  0  0  0  0  0  0
    3.4778    1.5044   -4.9143 H   0  0  0  0  0  0  0  0  0  0  0  0
    1.6983    2.4861   -3.5785 H   0  0  0  0  0  0  0  0  0  0  0  0
    2.5449    1.2928   -2.6105 H   0  0  0  0  0  0  0  0  0  0  0  0
    0.0475    1.2463   -2.3729 H   0  0  0  0  0  0  0  0  0  0  0  0
   -0.1143    0.8743   -4.0785 H   0  0  0  0  0  0  0  0  0  0  0  0
    1.0692   -1.3022   -3.7533 H   0  0  0  0  0  0  0  0  0  0  0  0
   -0.4107   -1.1875   -2.8638 H   0  0  0  0  0  0  0  0  0  0  0  0
    2.8690   -2.4395   -1.2053 H   0  0  0  0  0  0  0  0  0  0  0  0
    2.9108   -1.8325   -2.8504 H   0  0  0  0  0  0  0  0  0  0  0  0
    3.4053   -0.7700   -1.5289 H   0  0  0  0  0  0  0  0  0  0  0  0
   -1.2197   -0.3812   -0.9923 H   0  0  0  0  0  0  0  0  0  0  0  0
   -2.7542    0.7815    0.4654 H   0  0  0  0  0  0  0  0  0  0  0  0
   -0.9530    1.4627    3.6258 H   0  0  0  0  0  0  0  0  0  0  0  0
   -2.0973    0.7599    4.7572 H   0  0  0  0  0  0  0  0  0  0  0  0
   -1.6862   -1.4875    3.9181 H   0  0  0  0  0  0  0  0  0  0  0  0
   -0.1911   -0.7509    4.4659 H   0  0  0  0  0  0  0  0  0  0  0  0
   -0.3810   -2.0714    2.1723 H   0  0  0  0  0  0  0  0  0  0  0  0
    1.1775    0.5595    2.2469 H   0  0  0  0  0  0  0  0  0  0  0  0
    1.7062   -0.9448    2.9974 H   0  0  0  0  0  0  0  0  0  0  0  0
    2.6087   -0.4559    0.6651 H   0  0  0  0  0  0  0  0  0  0  0  0
    1.9469   -2.0726    0.9374 H   0  0  0  0  0  0  0  0  0  0  0  0
  1  2  1  0
  2  3  1  0
  3  4  1  0
  4  5  1  0
  5  6  1  0
  5  7  1  0
  7  8  2  0
  8  9  1  0
  9 10  2  0
 10 11  1  0
 11 12  2  3
 12 13  1  0
 13 14  3  0
 12 15  1  0
 15 16  3  0
 11 17  1  0
 17 18  1  0
 18 19  1  0
 19 20  1  0
 20 21  1  0
 21  7  1  0
 19  9  1  0
  1 22  1  0
  1 23  1  0
  1 24  1  0
  2 25  1  0
  2 26  1  0
  3 27  1  0
  3 28  1  0
  4 29  1  0
  4 30  1  0
  6 31  1  0
  6 32  1  0
  6 33  1  0
  8 34  1  0
 10 35  1  0
 17 36  1  0
 17 37  1  0
 18 38  1  0
 18 39  1  0
 19 40  1  0
 20 41  1  0
 20 42  1  0
 21 43  1  0
 21 44  1  0
M  END
$$$$
