
     RDKit          3D

 52 55  0  0  0  0  0  0  0  0999 V2000
   -6.2048    1.3855   -0.5204 C   0  0  0  0  0  0  0  0  0  0  0  0
   -5.1926    0.2826   -0.3773 C   0  0  0  0  0  0  0  0  0  0  0  0
   -5.4619   -0.7473    0.5438 C   0  0  0  0  0  0  0  0  0  0  0  0
   -4.5743   -1.8121    0.7217 C   0  0  0  0  0  0  0  0  0  0  0  0
   -3.4028   -1.8668   -0.0380 C   0  0  0  0  0  0  0  0  0  0  0  0
   -2.4603   -2.9766    0.1511 N   0  0  0  0  0  4  0  0  0  0  0  0
   -1.3781   -2.9197   -0.4502 O   0  0  0  0  0  0  0  0  0  0  0  0
   -2.8021   -3.9010    0.9017 O   0  0  0  0  0  1  0  0  0  0  0  0
   -3.1187   -0.8693   -0.9747 C   0  0  0  0  0  0  0  0  0  0  0  0
   -4.0071    0.2079   -1.1367 C   0  0  0  0  0  0  0  0  0  0  0  0
   -3.5603    1.4556   -2.3454 S   0  0  0  0  0  6  0  0  0  0  0  0
   -4.7684    1.9034   -3.0024 O   0  0  0  0  0  0  0  0  0  0  0  0
   -2.4478    0.9423   -3.1170 O   0  0  0  0  0  0  0  0  0  0  0  0
   -3.0168    2.7370   -1.3919 N   0  0  0  0  0  0  0  0  0  0  0  0
   -2.0715    2.4997   -0.3541 C   0  0  0  0  0  0  0  0  0  0  0  0
   -2.4175    2.8447    0.9505 C   0  0  0  0  0  0  0  0  0  0  0  0
   -1.5320    2.5826    1.9914 C   0  0  0  0  0  0  0  0  0  0  0  0
   -0.3046    1.9705    1.7255 C   0  0  0  0  0  0  0  0  0  0  0  0
    0.0736    1.6137    0.4171 C   0  0  0  0  0  0  0  0  0  0  0  0
    1.3664    0.9510    0.1613 C   0  0  0  0  0  0  0  0  0  0  0  0
    1.5970    0.0723   -0.8855 C   0  0  0  0  0  0  0  0  0  0  0  0
    2.8560   -0.5201   -1.0233 C   0  0  0  0  0  0  0  0  0  0  0  0
    3.8704   -0.2445   -0.1169 C   0  0  0  0  0  0  0  0  0  0  0  0
    5.1252   -0.8049   -0.2337 N   0  0  0  0  0  0  0  0  0  0  0  0
    6.1131   -0.5267    0.8033 C   0  0  0  0  0  0  0  0  0  0  0  0
    7.2735   -1.4391    0.4200 C   0  0  0  0  0  0  0  0  0  0  0  0
    6.5602   -2.6758   -0.1033 C   0  0  0  0  0  0  0  0  0  0  0  0
    5.3509   -2.1089   -0.8495 C   0  0  0  0  0  0  0  0  0  0  0  0
    3.6103    0.6274    0.8797 N   0  0  0  0  0  0  0  0  0  0  0  0
    2.3627    1.2180    1.0288 N   0  0  0  0  0  0  0  0  0  0  0  0
   -0.8309    1.9121   -0.6189 C   0  0  0  0  0  0  0  0  0  0  0  0
   -6.7745    1.2603   -1.4459 H   0  0  0  0  0  0  0  0  0  0  0  0
   -5.7259    2.3679   -0.5040 H   0  0  0  0  0  0  0  0  0  0  0  0
   -6.9189    1.3778    0.3105 H   0  0  0  0  0  0  0  0  0  0  0  0
   -6.3756   -0.7269    1.1382 H   0  0  0  0  0  0  0  0  0  0  0  0
   -4.8129   -2.5848    1.4505 H   0  0  0  0  0  0  0  0  0  0  0  0
   -2.2091   -0.9209   -1.5711 H   0  0  0  0  0  0  0  0  0  0  0  0
   -3.7317    3.4466   -1.2418 H   0  0  0  0  0  0  0  0  0  0  0  0
   -3.3732    3.3101    1.1730 H   0  0  0  0  0  0  0  0  0  0  0  0
   -1.7918    2.8490    3.0130 H   0  0  0  0  0  0  0  0  0  0  0  0
    0.3689    1.7684    2.5591 H   0  0  0  0  0  0  0  0  0  0  0  0
    0.8178   -0.1818   -1.5964 H   0  0  0  0  0  0  0  0  0  0  0  0
    3.0260   -1.1926   -1.8569 H   0  0  0  0  0  0  0  0  0  0  0  0
    6.4226    0.5234    0.8108 H   0  0  0  0  0  0  0  0  0  0  0  0
    5.7326   -0.8018    1.7948 H   0  0  0  0  0  0  0  0  0  0  0  0
    7.9357   -1.6540    1.2630 H   0  0  0  0  0  0  0  0  0  0  0  0
    7.8674   -0.9815   -0.3807 H   0  0  0  0  0  0  0  0  0  0  0  0
    6.2215   -3.2924    0.7381 H   0  0  0  0  0  0  0  0  0  0  0  0
    7.1940   -3.2950   -0.7439 H   0  0  0  0  0  0  0  0  0  0  0  0
    4.4992   -2.7902   -0.7475 H   0  0  0  0  0  0  0  0  0  0  0  0
    5.5783   -1.9776   -1.9132 H   0  0  0  0  0  0  0  0  0  0  0  0
   -0.5571    1.7027   -1.6507 H   0  0  0  0  0  0  0  0  0  0  0  0
  1  2  1  0
  2  3  2  0
  3  4  1  0
  4  5  2  0
  5  6  1  0
  6  7  2  0
  6  8  1  0
  5  9  1  0
  9 10  2  0
 10 11  1  0
 11 12  2  0
 11 13  2  0
 11 14  1  0
 14 15  1  0
 15 16  2  0
 16 17  1  0
 17 18  2  0
 18 19  1  0
 19 20  1  0
 20 21  2  0
 21 22  1  0
 22 23  2  0
 23 24  1  0
 24 25  1  0
 25 26  1  0
 26 27  1  0
 27 28  1  0
 23 29  1  0
 29 30  2  0
 19 31  2  0
 10  2  1  0
 31 15  1  0
 30 20  1  0
 28 24  1  0
  1 32  1  0
  1 33  1  0
  1 34  1  0
  3 35  1  0
  4 36  1  0
  9 37  1  0
 14 38  1  0
 16 39  1  0
 17 40  1  0
 18 41  1  0
 21 42  1  0
 22 43  1  0
 25 44  1  0
 25 45  1  0
 26 46  1  0
 26 47  1  0
 27 48  1  0
 27 49  1  0
 28 50  1  0
 28 51  1  0
 31 52  1  0
M  CHG  2   6   1   8  -1
M  END
$$$$
