
     RDKit          3D

 73 75  0  0  0  0  0  0  0  0999 V2000
    5.8402   -1.8032    2.7786 C   0  0  0  0  0  0  0  0  0  0  0  0
    5.4816   -1.0702    1.4946 C   0  0  0  0  0  0  0  0  0  0  0  0
    6.7281   -0.7604    0.6634 C   0  0  0  0  0  0  0  0  0  0  0  0
    6.4085   -0.1247   -0.6932 C   0  0  0  0  0  0  0  0  0  0  0  0
    5.8117    1.2799   -0.5765 C   0  0  0  0  0  0  0  0  0  0  0  0
    5.6361    1.9759   -1.9272 C   0  0  0  0  0  0  0  0  0  0  0  0
    4.7242    1.2852   -2.9473 C   0  0  0  0  0  0  0  0  0  0  0  0
    3.2421    1.2131   -2.5589 C   0  0  0  0  0  0  0  0  0  0  0  0
    2.8619   -0.0659   -1.8063 C   0  0  0  0  0  0  0  0  0  0  0  0
    1.3445   -0.2794   -1.6981 C   0  0  0  0  0  0  0  0  0  0  0  0
    0.6512    0.8127   -0.8785 C   0  0  0  0  0  0  0  0  0  0  0  0
   -0.8732    0.5870   -0.6529 N   0  0  0  0  0  4  0  0  0  0  0  0
   -1.5934    0.4168   -1.9863 C   0  0  0  0  0  0  0  0  0  0  0  0
   -1.0932   -0.6571    0.2018 C   0  0  0  0  0  0  0  0  0  0  0  0
   -1.3801    1.8610    0.0930 C   0  0  0  0  0  0  0  0  0  0  0  0
   -2.9051    2.0111    0.2721 C   0  0  0  0  0  0  0  0  0  0  0  0
   -3.5203    1.1417    1.3389 C   0  0  0  0  0  0  0  0  0  0  0  0
   -4.5317    0.2479    1.2323 C   0  0  0  0  0  0  0  0  0  0  0  0
   -5.2050   -0.0600   -0.0554 C   0  0  0  0  0  0  0  0  0  0  0  0
   -5.7939    0.9358   -0.8468 C   0  0  0  0  0  0  0  0  0  0  0  0
   -6.4161    0.6060   -2.0521 C   0  0  0  0  0  0  0  0  0  0  0  0
   -6.4788   -0.7228   -2.4653 C   0  0  0  0  0  0  0  0  0  0  0  0
   -5.9428   -1.7299   -1.6619 C   0  0  0  0  0  0  0  0  0  0  0  0
   -5.3235   -1.4083   -0.4488 C   0  0  0  0  0  0  0  0  0  0  0  0
   -4.7191   -2.7449    0.5848 S   0  0  0  0  0  0  0  0  0  0  0  0
   -4.9119   -2.0117    2.2127 C   0  0  0  0  0  0  0  0  0  0  0  0
   -5.1643   -2.8550    3.3012 C   0  0  0  0  0  0  0  0  0  0  0  0
   -5.3333   -2.3197    4.5796 C   0  0  0  0  0  0  0  0  0  0  0  0
   -5.2535   -0.9421    4.7703 C   0  0  0  0  0  0  0  0  0  0  0  0
   -5.4700   -0.2837    6.3442 Cl  0  0  0  0  0  0  0  0  0  0  0  0
   -4.9971   -0.0896    3.6967 C   0  0  0  0  0  0  0  0  0  0  0  0
   -4.8060   -0.6187    2.4124 C   0  0  0  0  0  0  0  0  0  0  0  0
    4.9368   -2.0120    3.3613 H   0  0  0  0  0  0  0  0  0  0  0  0
    6.5137   -1.2020    3.3984 H   0  0  0  0  0  0  0  0  0  0  0  0
    6.3322   -2.7572    2.5617 H   0  0  0  0  0  0  0  0  0  0  0  0
    4.9563   -0.1453    1.7545 H   0  0  0  0  0  0  0  0  0  0  0  0
    4.7881   -1.6867    0.9113 H   0  0  0  0  0  0  0  0  0  0  0  0
    7.2775   -1.6930    0.4825 H   0  0  0  0  0  0  0  0  0  0  0  0
    7.4000   -0.1041    1.2297 H   0  0  0  0  0  0  0  0  0  0  0  0
    7.3387   -0.0687   -1.2722 H   0  0  0  0  0  0  0  0  0  0  0  0
    5.7320   -0.7847   -1.2465 H   0  0  0  0  0  0  0  0  0  0  0  0
    6.4813    1.8977    0.0361 H   0  0  0  0  0  0  0  0  0  0  0  0
    4.8549    1.2582   -0.0477 H   0  0  0  0  0  0  0  0  0  0  0  0
    5.2615    2.9914   -1.7481 H   0  0  0  0  0  0  0  0  0  0  0  0
    6.6260    2.0963   -2.3857 H   0  0  0  0  0  0  0  0  0  0  0  0
    5.1094    0.2936   -3.2084 H   0  0  0  0  0  0  0  0  0  0  0  0
    4.7878    1.8781   -3.8699 H   0  0  0  0  0  0  0  0  0  0  0  0
    2.6557    1.2462   -3.4863 H   0  0  0  0  0  0  0  0  0  0  0  0
    2.9636    2.1005   -1.9803 H   0  0  0  0  0  0  0  0  0  0  0  0
    3.2907   -0.0646   -0.8006 H   0  0  0  0  0  0  0  0  0  0  0  0
    3.2852   -0.9319   -2.3301 H   0  0  0  0  0  0  0  0  0  0  0  0
    1.1902   -1.2627   -1.2442 H   0  0  0  0  0  0  0  0  0  0  0  0
    0.9321   -0.3233   -2.7116 H   0  0  0  0  0  0  0  0  0  0  0  0
    0.7437    1.7775   -1.3885 H   0  0  0  0  0  0  0  0  0  0  0  0
    1.1036    0.8964    0.1166 H   0  0  0  0  0  0  0  0  0  0  0  0
   -1.4231    1.3136   -2.5878 H   0  0  0  0  0  0  0  0  0  0  0  0
   -2.6582    0.2647   -1.8014 H   0  0  0  0  0  0  0  0  0  0  0  0
   -1.2058   -0.4723   -2.4894 H   0  0  0  0  0  0  0  0  0  0  0  0
   -0.6464   -1.5197   -0.2963 H   0  0  0  0  0  0  0  0  0  0  0  0
   -0.6340   -0.4941    1.1809 H   0  0  0  0  0  0  0  0  0  0  0  0
   -2.1607   -0.8388    0.2925 H   0  0  0  0  0  0  0  0  0  0  0  0
   -0.8645    1.8873    1.0612 H   0  0  0  0  0  0  0  0  0  0  0  0
   -1.0288    2.7140   -0.5013 H   0  0  0  0  0  0  0  0  0  0  0  0
   -3.4000    1.9266   -0.6947 H   0  0  0  0  0  0  0  0  0  0  0  0
   -3.0858    3.0468    0.5911 H   0  0  0  0  0  0  0  0  0  0  0  0
   -3.0420    1.2632    2.3131 H   0  0  0  0  0  0  0  0  0  0  0  0
   -5.7933    1.9742   -0.5229 H   0  0  0  0  0  0  0  0  0  0  0  0
   -6.8735    1.3839   -2.6603 H   0  0  0  0  0  0  0  0  0  0  0  0
   -6.9769   -0.9805   -3.3977 H   0  0  0  0  0  0  0  0  0  0  0  0
   -6.0387   -2.7668   -1.9782 H   0  0  0  0  0  0  0  0  0  0  0  0
   -5.2460   -3.9316    3.1631 H   0  0  0  0  0  0  0  0  0  0  0  0
   -5.5377   -2.9811    5.4185 H   0  0  0  0  0  0  0  0  0  0  0  0
   -4.9640    0.9839    3.8641 H   0  0  0  0  0  0  0  0  0  0  0  0
  1  2  1  0
  2  3  1  0
  3  4  1  0
  4  5  1  0
  5  6  1  0
  6  7  1  0
  7  8  1  0
  8  9  1  0
  9 10  1  0
 10 11  1  0
 11 12  1  0
 12 13  1  0
 12 14  1  0
 12 15  1  0
 15 16  1  0
 16 17  1  0
 17 18  2  3
 18 19  1  0
 19 20  2  0
 20 21  1  0
 21 22  2  0
 22 23  1  0
 23 24  2  0
 24 25  1  0
 25 26  1  0
 26 27  2  0
 27 28  1  0
 28 29  2  0
 29 30  1  0
 29 31  1  0
 31 32  2  0
 32 18  1  0
 24 19  1  0
 32 26  1  0
  1 33  1  0
  1 34  1  0
  1 35  1  0
  2 36  1  0
  2 37  1  0
  3 38  1  0
  3 39  1  0
  4 40  1  0
  4 41  1  0
  5 42  1  0
  5 43  1  0
  6 44  1  0
  6 45  1  0
  7 46  1  0
  7 47  1  0
  8 48  1  0
  8 49  1  0
  9 50  1  0
  9 51  1  0
 10 52  1  0
 10 53  1  0
 11 54  1  0
 11 55  1  0
 13 56  1  0
 13 57  1  0
 13 58  1  0
 14 59  1  0
 14 60  1  0
 14 61  1  0
 15 62  1  0
 15 63  1  0
 16 64  1  0
 16 65  1  0
 17 66  1  0
 20 67  1  0
 21 68  1  0
 22 69  1  0
 23 70  1  0
 27 71  1  0
 28 72  1  0
 31 73  1  0
M  CHG  1  12   1
M  END
$$$$
