
     RDKit          3D

 36 38  0  0  0  0  0  0  0  0999 V2000
    5.8557   -0.4925    0.7824 C   0  0  0  0  0  0  0  0  0  0  0  0
    4.4464   -0.2804    0.3113 C   0  0  0  0  0  0  0  0  0  0  0  0
    3.7723   -1.2967   -0.3800 C   0  0  0  0  0  0  0  0  0  0  0  0
    2.4746   -1.0907   -0.8498 C   0  0  0  0  0  0  0  0  0  0  0  0
    1.8518    0.1407   -0.6307 C   0  0  0  0  0  0  0  0  0  0  0  0
    0.2002    0.3840   -1.2259 S   0  0  0  0  0  6  0  0  0  0  0  0
   -0.2669    1.6835   -0.7930 O   0  0  0  0  0  0  0  0  0  0  0  0
    0.1803    0.0088   -2.6222 O   0  0  0  0  0  0  0  0  0  0  0  0
   -0.6908   -0.7843   -0.3548 N   0  0  0  0  0  0  0  0  0  0  0  0
   -0.8175   -0.4907    1.1089 C   0  0  0  0  0  0  0  0  0  0  0  0
   -2.0462    0.2921    1.5738 C   0  0  0  0  0  0  0  0  0  0  0  0
   -2.1531    0.6605    2.7446 O   0  0  0  0  0  0  0  0  0  0  0  0
   -3.0628    0.4620    0.6693 N   0  0  0  0  0  0  0  0  0  0  0  0
   -4.4014    0.8463    1.0226 C   0  0  0  0  0  0  0  0  0  0  0  0
   -5.1428    0.7157   -0.2935 C   0  0  0  0  0  0  0  0  0  0  0  0
   -4.3501   -0.2140   -1.0658 O   0  0  0  0  0  0  0  0  0  0  0  0
   -2.9923    0.0872   -0.7165 C   0  0  0  0  0  0  0  0  0  0  0  0
   -2.0377   -1.0860   -0.9487 C   0  0  0  0  0  0  0  0  0  0  0  0
    2.5170    1.1704    0.0372 C   0  0  0  0  0  0  0  0  0  0  0  0
    3.8153    0.9569    0.5036 C   0  0  0  0  0  0  0  0  0  0  0  0
    6.0651    0.1094    1.6731 H   0  0  0  0  0  0  0  0  0  0  0  0
    6.5598   -0.2128   -0.0074 H   0  0  0  0  0  0  0  0  0  0  0  0
    6.0230   -1.5408    1.0521 H   0  0  0  0  0  0  0  0  0  0  0  0
    4.2578   -2.2544   -0.5586 H   0  0  0  0  0  0  0  0  0  0  0  0
    1.9586   -1.8841   -1.3861 H   0  0  0  0  0  0  0  0  0  0  0  0
    0.0713    0.0290    1.4801 H   0  0  0  0  0  0  0  0  0  0  0  0
   -0.8472   -1.4602    1.6220 H   0  0  0  0  0  0  0  0  0  0  0  0
   -4.7767    0.1374    1.7682 H   0  0  0  0  0  0  0  0  0  0  0  0
   -4.4313    1.8553    1.4429 H   0  0  0  0  0  0  0  0  0  0  0  0
   -6.1611    0.3354   -0.1771 H   0  0  0  0  0  0  0  0  0  0  0  0
   -5.1749    1.6683   -0.8343 H   0  0  0  0  0  0  0  0  0  0  0  0
   -2.6879    0.9676   -1.2936 H   0  0  0  0  0  0  0  0  0  0  0  0
   -1.9563   -1.3257   -2.0140 H   0  0  0  0  0  0  0  0  0  0  0  0
   -2.4277   -1.9962   -0.4747 H   0  0  0  0  0  0  0  0  0  0  0  0
    2.0408    2.1356    0.1951 H   0  0  0  0  0  0  0  0  0  0  0  0
    4.3351    1.7634    1.0173 H   0  0  0  0  0  0  0  0  0  0  0  0
  1  2  1  0
  2  3  2  0
  3  4  1  0
  4  5  2  0
  5  6  1  0
  6  7  2  0
  6  8  2  0
  6  9  1  0
  9 10  1  0
 10 11  1  0
 11 12  2  0
 11 13  1  0
 13 14  1  0
 14 15  1  0
 15 16  1  0
 16 17  1  0
 17 18  1  0
  5 19  1  0
 19 20  2  0
 20  2  1  0
 18  9  1  0
 17 13  1  0
  1 21  1  0
  1 22  1  0
  1 23  1  0
  3 24  1  0
  4 25  1  0
 10 26  1  0
 10 27  1  0
 14 28  1  0
 14 29  1  0
 15 30  1  0
 15 31  1  0
 17 32  1  0
 18 33  1  0
 18 34  1  0
 19 35  1  0
 20 36  1  0
M  END
$$$$
