
     RDKit          3D

 54 57  0  0  0  0  0  0  0  0999 V2000
   -2.6671    5.8160   -1.4668 C   0  0  0  0  0  0  0  0  0  0  0  0
   -2.3609    4.9671   -0.3681 O   0  0  0  0  0  0  0  0  0  0  0  0
   -1.7237    3.7913   -0.6525 C   0  0  0  0  0  0  0  0  0  0  0  0
   -1.4714    2.9809    0.4552 C   0  0  0  0  0  0  0  0  0  0  0  0
   -0.8267    1.7503    0.3082 C   0  0  0  0  0  0  0  0  0  0  0  0
   -0.4242    1.3018   -0.9580 C   0  0  0  0  0  0  0  0  0  0  0  0
    0.3035   -0.0204   -1.1534 C   0  0  0  0  0  0  0  0  0  0  0  0
    1.7877    0.1143   -0.8069 C   0  0  0  0  0  0  0  0  0  0  0  0
    1.8534   -0.7223    0.4414 C   0  0  0  0  0  0  0  0  0  0  0  0
    3.0779   -0.7918    1.2749 C   0  0  0  0  0  0  0  0  0  0  0  0
    3.0474   -1.5501    2.4516 C   0  0  0  0  0  0  0  0  0  0  0  0
    4.1804   -1.6361    3.2578 C   0  0  0  0  0  0  0  0  0  0  0  0
    5.3448   -0.9646    2.8887 C   0  0  0  0  0  0  0  0  0  0  0  0
    5.3893   -0.2052    1.7165 C   0  0  0  0  0  0  0  0  0  0  0  0
    6.5941    0.3973    1.4776 O   0  0  0  0  0  0  0  0  0  0  0  0
    6.7001    1.2013    0.3099 C   0  0  0  0  0  0  0  0  0  0  0  0
    4.2531   -0.1203    0.9074 C   0  0  0  0  0  0  0  0  0  0  0  0
    0.7743   -1.3930    0.7100 N   0  0  0  0  0  0  0  0  0  0  0  0
   -0.1509   -1.0731   -0.2422 N   0  0  0  0  0  0  0  0  0  0  0  0
   -1.3508   -1.7760   -0.3353 C   0  0  0  0  0  0  0  0  0  0  0  0
   -1.6498   -2.8085    0.5748 C   0  0  0  0  0  0  0  0  0  0  0  0
   -2.8476   -3.5288    0.5158 C   0  0  0  0  0  0  0  0  0  0  0  0
   -3.7828   -3.2129   -0.4652 C   0  0  0  0  0  0  0  0  0  0  0  0
   -5.3122   -4.1007   -0.5519 S   0  0  0  0  0  6  0  0  0  0  0  0
   -6.3245   -3.1096    0.3609 N   0  0  0  0  0  0  0  0  0  0  0  0
   -5.1819   -5.3249    0.2044 O   0  0  0  0  0  0  0  0  0  0  0  0
   -5.7806   -4.0771   -1.9172 O   0  0  0  0  0  0  0  0  0  0  0  0
   -3.5186   -2.2080   -1.3938 C   0  0  0  0  0  0  0  0  0  0  0  0
   -2.3131   -1.4993   -1.3213 C   0  0  0  0  0  0  0  0  0  0  0  0
   -0.6734    2.1271   -2.0662 C   0  0  0  0  0  0  0  0  0  0  0  0
   -1.3205    3.3599   -1.9154 C   0  0  0  0  0  0  0  0  0  0  0  0
   -3.3432    5.3214   -2.1720 H   0  0  0  0  0  0  0  0  0  0  0  0
   -1.7550    6.1584   -1.9665 H   0  0  0  0  0  0  0  0  0  0  0  0
   -3.1826    6.6979   -1.0744 H   0  0  0  0  0  0  0  0  0  0  0  0
   -1.7818    3.3084    1.4446 H   0  0  0  0  0  0  0  0  0  0  0  0
   -0.6494    1.1389    1.1919 H   0  0  0  0  0  0  0  0  0  0  0  0
    0.2052   -0.3506   -2.1955 H   0  0  0  0  0  0  0  0  0  0  0  0
    2.1150    1.1426   -0.6311 H   0  0  0  0  0  0  0  0  0  0  0  0
    2.4136   -0.3516   -1.5756 H   0  0  0  0  0  0  0  0  0  0  0  0
    2.1424   -2.0774    2.7467 H   0  0  0  0  0  0  0  0  0  0  0  0
    4.1567   -2.2249    4.1712 H   0  0  0  0  0  0  0  0  0  0  0  0
    6.2283   -1.0332    3.5197 H   0  0  0  0  0  0  0  0  0  0  0  0
    6.5534    0.6027   -0.5952 H   0  0  0  0  0  0  0  0  0  0  0  0
    6.0006    2.0431    0.3454 H   0  0  0  0  0  0  0  0  0  0  0  0
    7.7139    1.6118    0.2771 H   0  0  0  0  0  0  0  0  0  0  0  0
    4.2769    0.4599   -0.0063 H   0  0  0  0  0  0  0  0  0  0  0  0
   -0.9290   -3.0629    1.3501 H   0  0  0  0  0  0  0  0  0  0  0  0
   -3.0303   -4.3238    1.2348 H   0  0  0  0  0  0  0  0  0  0  0  0
   -6.6159   -3.6210    1.1958 H   0  0  0  0  0  0  0  0  0  0  0  0
   -5.8976   -2.2138    0.5964 H   0  0  0  0  0  0  0  0  0  0  0  0
   -4.2383   -1.9672   -2.1737 H   0  0  0  0  0  0  0  0  0  0  0  0
   -2.1473   -0.7178   -2.0568 H   0  0  0  0  0  0  0  0  0  0  0  0
   -0.3677    1.8168   -3.0636 H   0  0  0  0  0  0  0  0  0  0  0  0
   -1.4928    3.9577   -2.8042 H   0  0  0  0  0  0  0  0  0  0  0  0
  1  2  1  0
  2  3  1  0
  3  4  2  0
  4  5  1  0
  5  6  2  0
  6  7  1  0
  7  8  1  0
  8  9  1  0
  9 10  1  0
 10 11  2  0
 11 12  1  0
 12 13  2  0
 13 14  1  0
 14 15  1  0
 15 16  1  0
 14 17  2  0
  9 18  2  0
 18 19  1  0
 19 20  1  0
 20 21  2  0
 21 22  1  0
 22 23  2  0
 23 24  1  0
 24 25  1  0
 24 26  2  0
 24 27  2  0
 23 28  1  0
 28 29  2  0
  6 30  1  0
 30 31  2  0
 31  3  1  0
 19  7  1  0
 29 20  1  0
 17 10  1  0
  1 32  1  0
  1 33  1  0
  1 34  1  0
  4 35  1  0
  5 36  1  0
  7 37  1  0
  8 38  1  0
  8 39  1  0
 11 40  1  0
 12 41  1  0
 13 42  1  0
 16 43  1  0
 16 44  1  0
 16 45  1  0
 17 46  1  0
 21 47  1  0
 22 48  1  0
 25 49  1  0
 25 50  1  0
 28 51  1  0
 29 52  1  0
 30 53  1  0
 31 54  1  0
M  END
$$$$
