
     RDKit          3D

 59 62  0  0  0  0  0  0  0  0999 V2000
    3.8669   -4.5799   -2.7682 C   0  0  0  0  0  0  0  0  0  0  0  0
    4.1437   -3.1067   -2.7175 C   0  0  0  0  0  0  0  0  0  0  0  0
    3.3861   -2.2188   -3.4890 C   0  0  0  0  0  0  0  0  0  0  0  0
    3.6222   -0.8441   -3.4223 C   0  0  0  0  0  0  0  0  0  0  0  0
    4.6163   -0.3314   -2.5781 C   0  0  0  0  0  0  0  0  0  0  0  0
    4.8454    1.1554   -2.4935 C   0  0  0  0  0  0  0  0  0  0  0  0
    3.8606    1.7722   -1.6338 N   0  0  0  0  0  0  0  0  0  0  0  0
    2.7656    2.4340   -2.1457 C   0  0  0  0  0  0  0  0  0  0  0  0
    2.6087    2.6672   -3.3383 O   0  0  0  0  0  0  0  0  0  0  0  0
    1.7843    2.8542   -1.0689 C   0  0  0  0  0  0  0  0  0  0  0  0
    0.5530    3.5492   -1.6477 C   0  0  0  0  0  0  0  0  0  0  0  0
   -0.3740    4.1022   -0.5653 C   0  0  0  0  0  0  0  0  0  0  0  0
   -0.9714    3.0587    0.2603 N   0  0  0  0  0  0  0  0  0  0  0  0
   -0.2995    2.7669    1.4540 N   0  0  0  0  0  0  0  0  0  0  0  0
   -0.7354    1.8397    2.2607 C   0  0  0  0  0  0  0  0  0  0  0  0
    0.0339    1.5756    3.5237 C   0  0  0  0  0  0  0  0  0  0  0  0
   -1.9277    1.1042    1.9187 C   0  0  0  0  0  0  0  0  0  0  0  0
   -2.6785    0.1310    2.5578 C   0  0  0  0  0  0  0  0  0  0  0  0
   -2.5675   -0.4035    3.9396 C   0  0  0  0  0  0  0  0  0  0  0  0
   -3.6651   -0.2412    1.6354 N   0  0  0  0  0  0  0  0  0  0  0  0
   -4.5895   -1.3322    1.6487 C   0  0  0  0  0  0  0  0  0  0  0  0
   -4.4090   -2.4606    2.4576 C   0  0  0  0  0  0  0  0  0  0  0  0
   -5.3380   -3.5071    2.4285 C   0  0  0  0  0  0  0  0  0  0  0  0
   -6.4448   -3.4434    1.5850 C   0  0  0  0  0  0  0  0  0  0  0  0
   -6.6212   -2.3387    0.7572 C   0  0  0  0  0  0  0  0  0  0  0  0
   -5.6962   -1.2922    0.7820 C   0  0  0  0  0  0  0  0  0  0  0  0
   -3.6863    0.6146    0.5779 N   0  0  0  0  0  0  0  0  0  0  0  0
   -2.5985    1.3739    0.7216 C   0  0  0  0  0  0  0  0  0  0  0  0
   -2.1319    2.4002   -0.2016 C   0  0  0  0  0  0  0  0  0  0  0  0
   -2.6875    2.6652   -1.2653 O   0  0  0  0  0  0  0  0  0  0  0  0
    5.3587   -1.2199   -1.7895 C   0  0  0  0  0  0  0  0  0  0  0  0
    5.1225   -2.5955   -1.8577 C   0  0  0  0  0  0  0  0  0  0  0  0
    3.0769   -4.8369   -2.0557 H   0  0  0  0  0  0  0  0  0  0  0  0
    3.5521   -4.8823   -3.7725 H   0  0  0  0  0  0  0  0  0  0  0  0
    4.7652   -5.1563   -2.5225 H   0  0  0  0  0  0  0  0  0  0  0  0
    2.6050   -2.5903   -4.1488 H   0  0  0  0  0  0  0  0  0  0  0  0
    3.0210   -0.1683   -4.0298 H   0  0  0  0  0  0  0  0  0  0  0  0
    5.8294    1.3663   -2.0605 H   0  0  0  0  0  0  0  0  0  0  0  0
    4.8288    1.6000   -3.4947 H   0  0  0  0  0  0  0  0  0  0  0  0
    3.8309    1.4645   -0.6718 H   0  0  0  0  0  0  0  0  0  0  0  0
    2.3060    3.5273   -0.3785 H   0  0  0  0  0  0  0  0  0  0  0  0
    1.4866    1.9547   -0.5183 H   0  0  0  0  0  0  0  0  0  0  0  0
    0.0074    2.8497   -2.2929 H   0  0  0  0  0  0  0  0  0  0  0  0
    0.8711    4.3820   -2.2873 H   0  0  0  0  0  0  0  0  0  0  0  0
    0.1660    4.7992    0.0867 H   0  0  0  0  0  0  0  0  0  0  0  0
   -1.1809    4.6701   -1.0430 H   0  0  0  0  0  0  0  0  0  0  0  0
    0.1958    0.5022    3.6521 H   0  0  0  0  0  0  0  0  0  0  0  0
    1.0086    2.0713    3.4852 H   0  0  0  0  0  0  0  0  0  0  0  0
   -0.5217    1.9707    4.3782 H   0  0  0  0  0  0  0  0  0  0  0  0
   -1.8987   -1.2686    3.9689 H   0  0  0  0  0  0  0  0  0  0  0  0
   -3.5425   -0.6782    4.3525 H   0  0  0  0  0  0  0  0  0  0  0  0
   -2.1665    0.3529    4.6200 H   0  0  0  0  0  0  0  0  0  0  0  0
   -3.5382   -2.5911    3.0880 H   0  0  0  0  0  0  0  0  0  0  0  0
   -5.1887   -4.3824    3.0562 H   0  0  0  0  0  0  0  0  0  0  0  0
   -7.1620   -4.2598    1.5622 H   0  0  0  0  0  0  0  0  0  0  0  0
   -7.4755   -2.2888    0.0868 H   0  0  0  0  0  0  0  0  0  0  0  0
   -5.8594   -0.4411    0.1214 H   0  0  0  0  0  0  0  0  0  0  0  0
    6.1277   -0.8486   -1.1162 H   0  0  0  0  0  0  0  0  0  0  0  0
    5.7097   -3.2672   -1.2356 H   0  0  0  0  0  0  0  0  0  0  0  0
  1  2  1  0
  2  3  2  0
  3  4  1  0
  4  5  2  0
  5  6  1  0
  6  7  1  0
  7  8  1  0
  8  9  2  0
  8 10  1  0
 10 11  1  0
 11 12  1  0
 12 13  1  0
 13 14  1  0
 14 15  2  0
 15 16  1  0
 15 17  1  0
 17 18  2  0
 18 19  1  0
 18 20  1  0
 20 21  1  0
 21 22  2  0
 22 23  1  0
 23 24  2  0
 24 25  1  0
 25 26  2  0
 20 27  1  0
 27 28  2  0
 28 29  1  0
 29 30  2  0
  5 31  1  0
 31 32  2  0
 32  2  1  0
 29 13  1  0
 28 17  1  0
 26 21  1  0
  1 33  1  0
  1 34  1  0
  1 35  1  0
  3 36  1  0
  4 37  1  0
  6 38  1  0
  6 39  1  0
  7 40  1  0
 10 41  1  0
 10 42  1  0
 11 43  1  0
 11 44  1  0
 12 45  1  0
 12 46  1  0
 16 47  1  0
 16 48  1  0
 16 49  1  0
 19 50  1  0
 19 51  1  0
 19 52  1  0
 22 53  1  0
 23 54  1  0
 24 55  1  0
 25 56  1  0
 26 57  1  0
 31 58  1  0
 32 59  1  0
M  END
$$$$
