
     RDKit          3D

 46 48  0  0  0  0  0  0  0  0999 V2000
   -5.9813   -0.6184    0.4180 C   0  0  0  0  0  0  0  0  0  0  0  0
   -5.1371    0.2807    1.1217 O   0  0  0  0  0  0  0  0  0  0  0  0
   -3.8816    0.5079    0.6134 C   0  0  0  0  0  0  0  0  0  0  0  0
   -3.4006   -0.0413   -0.5801 C   0  0  0  0  0  0  0  0  0  0  0  0
   -2.1047    0.2492   -1.0338 C   0  0  0  0  0  0  0  0  0  0  0  0
   -1.2662    1.0799   -0.2691 C   0  0  0  0  0  0  0  0  0  0  0  0
   -1.7560    1.6379    0.9236 C   0  0  0  0  0  0  0  0  0  0  0  0
   -3.0523    1.3568    1.3713 C   0  0  0  0  0  0  0  0  0  0  0  0
   -3.6006    1.8620    2.5248 O   0  0  0  0  0  0  0  0  0  0  0  0
   -2.7649    2.6381    3.3702 C   0  0  0  0  0  0  0  0  0  0  0  0
    0.1390    1.4273   -0.7254 C   0  0  0  0  0  0  0  0  0  0  0  0
    0.6128    0.5602   -1.8137 N   0  0  0  0  0  0  0  0  0  0  0  0
    1.7412   -0.2706   -1.6705 C   0  0  0  0  0  0  0  0  0  0  0  0
    2.0350   -1.6383   -2.6087 S   0  0  0  0  0  0  0  0  0  0  0  0
    2.6394    0.2276   -0.7265 N   0  0  0  0  0  0  0  0  0  0  0  0
    3.7000   -0.4850   -0.1151 C   0  0  0  0  0  0  0  0  0  0  0  0
    4.9731    0.1001   -0.1940 C   0  0  0  0  0  0  0  0  0  0  0  0
    6.0838   -0.5367    0.3541 C   0  0  0  0  0  0  0  0  0  0  0  0
    5.9260   -1.7564    1.0019 C   0  0  0  0  0  0  0  0  0  0  0  0
    4.6538   -2.3219    1.1323 C   0  0  0  0  0  0  0  0  0  0  0  0
    4.5479   -3.8280    1.9807 Cl  0  0  0  0  0  0  0  0  0  0  0  0
    3.5118   -1.6815    0.6095 C   0  0  0  0  0  0  0  0  0  0  0  0
    2.1446   -2.2549    0.8825 C   0  0  0  0  0  0  0  0  0  0  0  0
   -0.3945    0.3730   -2.8664 C   0  0  0  0  0  0  0  0  0  0  0  0
   -1.6030   -0.3810   -2.3135 C   0  0  0  0  0  0  0  0  0  0  0  0
   -6.9196   -0.7015    0.9750 H   0  0  0  0  0  0  0  0  0  0  0  0
   -5.5380   -1.6182    0.3636 H   0  0  0  0  0  0  0  0  0  0  0  0
   -6.2207   -0.2356   -0.5794 H   0  0  0  0  0  0  0  0  0  0  0  0
   -4.0169   -0.7021   -1.1813 H   0  0  0  0  0  0  0  0  0  0  0  0
   -1.1014    2.2925    1.4902 H   0  0  0  0  0  0  0  0  0  0  0  0
   -2.4579    3.5656    2.8760 H   0  0  0  0  0  0  0  0  0  0  0  0
   -3.3463    2.9112    4.2561 H   0  0  0  0  0  0  0  0  0  0  0  0
   -1.8967    2.0623    3.7074 H   0  0  0  0  0  0  0  0  0  0  0  0
    0.8046    1.3824    0.1410 H   0  0  0  0  0  0  0  0  0  0  0  0
    0.1414    2.4540   -1.1102 H   0  0  0  0  0  0  0  0  0  0  0  0
    2.8463    1.1990   -0.9270 H   0  0  0  0  0  0  0  0  0  0  0  0
    5.1207    1.0393   -0.7216 H   0  0  0  0  0  0  0  0  0  0  0  0
    7.0707   -0.0908    0.2629 H   0  0  0  0  0  0  0  0  0  0  0  0
    6.7959   -2.2603    1.4160 H   0  0  0  0  0  0  0  0  0  0  0  0
    1.9819   -3.1593    0.2887 H   0  0  0  0  0  0  0  0  0  0  0  0
    1.3397   -1.5456    0.6725 H   0  0  0  0  0  0  0  0  0  0  0  0
    2.0388   -2.5020    1.9447 H   0  0  0  0  0  0  0  0  0  0  0  0
   -0.6922    1.3724   -3.2102 H   0  0  0  0  0  0  0  0  0  0  0  0
    0.0147   -0.1435   -3.7383 H   0  0  0  0  0  0  0  0  0  0  0  0
   -1.3332   -1.4214   -2.0971 H   0  0  0  0  0  0  0  0  0  0  0  0
   -2.3972   -0.3850   -3.0689 H   0  0  0  0  0  0  0  0  0  0  0  0
  1  2  1  0
  2  3  1  0
  3  4  2  0
  4  5  1  0
  5  6  2  0
  6  7  1  0
  7  8  2  0
  8  9  1  0
  9 10  1  0
  6 11  1  0
 11 12  1  0
 12 13  1  0
 13 14  2  0
 13 15  1  0
 15 16  1  0
 16 17  2  0
 17 18  1  0
 18 19  2  0
 19 20  1  0
 20 21  1  0
 20 22  2  0
 22 23  1  0
 12 24  1  0
 24 25  1  0
  8  3  1  0
 22 16  1  0
 25  5  1  0
  1 26  1  0
  1 27  1  0
  1 28  1  0
  4 29  1  0
  7 30  1  0
 10 31  1  0
 10 32  1  0
 10 33  1  0
 11 34  1  0
 11 35  1  0
 15 36  1  0
 17 37  1  0
 18 38  1  0
 19 39  1  0
 23 40  1  0
 23 41  1  0
 23 42  1  0
 24 43  1  0
 24 44  1  0
 25 45  1  0
 25 46  1  0
M  END
$$$$
