
     RDKit          3D

 46 49  0  0  0  0  0  0  0  0999 V2000
   -2.3952    1.0085   -1.1003 O   0  0  0  0  0  0  0  0  0  0  0  0
   -1.7218    0.2872   -0.3682 C   0  0  0  0  0  0  0  0  0  0  0  0
   -0.2904    0.1505   -0.5809 C   0  0  0  0  0  0  0  0  0  0  0  0
    0.4121   -1.0369   -0.6742 C   0  0  0  0  0  0  0  0  0  0  0  0
    1.7194   -0.7202   -0.9471 N   0  0  0  0  0  0  0  0  0  0  0  0
    2.8175   -1.6097   -1.1232 C   0  0  0  0  0  0  0  0  0  0  0  0
    2.6521   -2.9994   -1.0358 C   0  0  0  0  0  0  0  0  0  0  0  0
    3.7501   -3.8473   -1.2118 C   0  0  0  0  0  0  0  0  0  0  0  0
    5.0126   -3.3183   -1.4742 C   0  0  0  0  0  0  0  0  0  0  0  0
    5.1843   -1.9389   -1.5624 C   0  0  0  0  0  0  0  0  0  0  0  0
    4.0928   -1.0854   -1.3882 C   0  0  0  0  0  0  0  0  0  0  0  0
    1.8907    0.6177   -1.0400 N   0  0  0  0  0  0  0  0  0  0  0  0
    0.6793    1.1609   -0.8383 C   0  0  0  0  0  0  0  0  0  0  0  0
    0.5176    2.6185   -0.8826 C   0  0  0  0  0  0  0  0  0  0  0  0
    1.2763    3.3770   -1.7914 C   0  0  0  0  0  0  0  0  0  0  0  0
    1.1461    4.7668   -1.8447 C   0  0  0  0  0  0  0  0  0  0  0  0
    0.2603    5.4028   -0.9853 C   0  0  0  0  0  0  0  0  0  0  0  0
    0.1347    6.7355   -1.0332 F   0  0  0  0  0  0  0  0  0  0  0  0
   -0.4939    4.6765   -0.0721 C   0  0  0  0  0  0  0  0  0  0  0  0
   -0.3634    3.2854   -0.0173 C   0  0  0  0  0  0  0  0  0  0  0  0
   -2.2964   -0.4348    0.6823 N   0  0  0  0  0  0  0  0  0  0  0  0
   -3.7527   -0.4140    0.8012 C   0  0  0  0  0  0  0  0  0  0  0  0
   -4.2692   -1.6004    1.6048 C   0  0  0  0  0  0  0  0  0  0  0  0
   -3.6726   -1.6451    3.0115 C   0  0  0  0  0  0  0  0  0  0  0  0
   -2.3168   -0.9464    3.1082 C   0  0  0  0  0  0  0  0  0  0  0  0
   -1.5401   -1.0141    1.7970 C   0  0  0  0  0  0  0  0  0  0  0  0
    0.0693   -2.0563   -0.5932 H   0  0  0  0  0  0  0  0  0  0  0  0
    1.6891   -3.4578   -0.8361 H   0  0  0  0  0  0  0  0  0  0  0  0
    3.6198   -4.9249   -1.1456 H   0  0  0  0  0  0  0  0  0  0  0  0
    5.8633   -3.9812   -1.6112 H   0  0  0  0  0  0  0  0  0  0  0  0
    6.1680   -1.5238   -1.7677 H   0  0  0  0  0  0  0  0  0  0  0  0
    4.2527   -0.0109   -1.4618 H   0  0  0  0  0  0  0  0  0  0  0  0
    1.9733    2.8824   -2.4656 H   0  0  0  0  0  0  0  0  0  0  0  0
    1.7294    5.3509   -2.5488 H   0  0  0  0  0  0  0  0  0  0  0  0
   -1.1787    5.1946    0.5914 H   0  0  0  0  0  0  0  0  0  0  0  0
   -0.9548    2.7387    0.7118 H   0  0  0  0  0  0  0  0  0  0  0  0
   -4.0329    0.5311    1.2820 H   0  0  0  0  0  0  0  0  0  0  0  0
   -4.2008   -0.4190   -0.1989 H   0  0  0  0  0  0  0  0  0  0  0  0
   -5.3629   -1.5748    1.6652 H   0  0  0  0  0  0  0  0  0  0  0  0
   -4.0050   -2.5274    1.0794 H   0  0  0  0  0  0  0  0  0  0  0  0
   -3.5757   -2.6926    3.3215 H   0  0  0  0  0  0  0  0  0  0  0  0
   -4.3624   -1.1780    3.7248 H   0  0  0  0  0  0  0  0  0  0  0  0
   -2.4793    0.1072    3.3704 H   0  0  0  0  0  0  0  0  0  0  0  0
   -1.7298   -1.3853    3.9226 H   0  0  0  0  0  0  0  0  0  0  0  0
   -0.5869   -0.4908    1.9198 H   0  0  0  0  0  0  0  0  0  0  0  0
   -1.3289   -2.0585    1.5406 H   0  0  0  0  0  0  0  0  0  0  0  0
  1  2  2  0
  2  3  1  0
  3  4  2  0
  4  5  1  0
  5  6  1  0
  6  7  2  0
  7  8  1  0
  8  9  2  0
  9 10  1  0
 10 11  2  0
  5 12  1  0
 12 13  2  0
 13 14  1  0
 14 15  2  0
 15 16  1  0
 16 17  2  0
 17 18  1  0
 17 19  1  0
 19 20  2  0
  2 21  1  0
 21 22  1  0
 22 23  1  0
 23 24  1  0
 24 25  1  0
 25 26  1  0
 13  3  1  0
 20 14  1  0
 26 21  1  0
 11  6  1  0
  4 27  1  0
  7 28  1  0
  8 29  1  0
  9 30  1  0
 10 31  1  0
 11 32  1  0
 15 33  1  0
 16 34  1  0
 19 35  1  0
 20 36  1  0
 22 37  1  0
 22 38  1  0
 23 39  1  0
 23 40  1  0
 24 41  1  0
 24 42  1  0
 25 43  1  0
 25 44  1  0
 26 45  1  0
 26 46  1  0
M  END
$$$$
