
     RDKit          3D

 35 36  0  0  0  0  0  0  0  0999 V2000
    5.0703   -1.7031   -2.3241 C   0  0  0  0  0  0  0  0  0  0  0  0
    3.8635   -1.0699   -1.6992 C   0  0  0  0  0  0  0  0  0  0  0  0
    2.6740   -1.7888   -1.5601 C   0  0  0  0  0  0  0  0  0  0  0  0
    1.5421   -1.1817   -1.0070 C   0  0  0  0  0  0  0  0  0  0  0  0
    1.5671    0.1608   -0.6068 C   0  0  0  0  0  0  0  0  0  0  0  0
    0.3830    0.6760   -0.0378 N   0  0  0  0  0  0  0  0  0  0  0  0
   -0.0595    1.9583    0.1516 C   0  0  0  0  0  0  0  0  0  0  0  0
    0.4979    3.3776   -0.5294 S   0  0  0  0  0  0  0  0  0  0  0  0
   -1.1395    2.0821    0.9885 N   0  0  0  0  0  0  0  0  0  0  0  0
   -1.5969    1.1422    1.9949 C   0  0  0  0  0  0  0  0  0  0  0  0
   -2.4029    0.0493    1.3768 C   0  0  0  0  0  0  0  0  0  0  0  0
   -2.2264   -1.3211    1.4912 C   0  0  0  0  0  0  0  0  0  0  0  0
   -3.2270   -1.9577    0.7247 C   0  0  0  0  0  0  0  0  0  0  0  0
   -4.0027   -0.9676    0.1690 C   0  0  0  0  0  0  0  0  0  0  0  0
   -3.5101    0.2459    0.5783 N   0  0  0  0  0  0  0  0  0  0  0  0
   -4.0876    1.5185    0.2014 C   0  0  0  0  0  0  0  0  0  0  0  0
    2.7580    0.8727   -0.7384 C   0  0  0  0  0  0  0  0  0  0  0  0
    3.8934    0.2669   -1.2912 C   0  0  0  0  0  0  0  0  0  0  0  0
    5.9918   -1.2751   -1.9155 H   0  0  0  0  0  0  0  0  0  0  0  0
    5.0569   -1.5460   -3.4070 H   0  0  0  0  0  0  0  0  0  0  0  0
    5.0956   -2.7792   -2.1229 H   0  0  0  0  0  0  0  0  0  0  0  0
    2.6175   -2.8265   -1.8805 H   0  0  0  0  0  0  0  0  0  0  0  0
    0.6335   -1.7714   -0.9103 H   0  0  0  0  0  0  0  0  0  0  0  0
   -0.3470   -0.0135    0.0908 H   0  0  0  0  0  0  0  0  0  0  0  0
   -1.3913    3.0505    1.1450 H   0  0  0  0  0  0  0  0  0  0  0  0
   -2.2042    1.6958    2.7186 H   0  0  0  0  0  0  0  0  0  0  0  0
   -0.7225    0.7394    2.5176 H   0  0  0  0  0  0  0  0  0  0  0  0
   -1.4496   -1.8099    2.0666 H   0  0  0  0  0  0  0  0  0  0  0  0
   -3.3711   -3.0224    0.5940 H   0  0  0  0  0  0  0  0  0  0  0  0
   -4.8671   -1.0315   -0.4795 H   0  0  0  0  0  0  0  0  0  0  0  0
   -3.4882    1.9403   -0.6088 H   0  0  0  0  0  0  0  0  0  0  0  0
   -5.1151    1.3618   -0.1381 H   0  0  0  0  0  0  0  0  0  0  0  0
   -4.0947    2.1799    1.0709 H   0  0  0  0  0  0  0  0  0  0  0  0
    2.8535    1.8958   -0.3942 H   0  0  0  0  0  0  0  0  0  0  0  0
    4.8054    0.8515   -1.3912 H   0  0  0  0  0  0  0  0  0  0  0  0
  1  2  1  0
  2  3  2  0
  3  4  1  0
  4  5  2  0
  5  6  1  0
  6  7  1  0
  7  8  2  0
  7  9  1  0
  9 10  1  0
 10 11  1  0
 11 12  2  0
 12 13  1  0
 13 14  2  0
 14 15  1  0
 15 16  1  0
  5 17  1  0
 17 18  2  0
 18  2  1  0
 15 11  1  0
  1 19  1  0
  1 20  1  0
  1 21  1  0
  3 22  1  0
  4 23  1  0
  6 24  1  0
  9 25  1  0
 10 26  1  0
 10 27  1  0
 12 28  1  0
 13 29  1  0
 14 30  1  0
 16 31  1  0
 16 32  1  0
 16 33  1  0
 17 34  1  0
 18 35  1  0
M  END
$$$$
