
     RDKit          3D

 41 44  0  0  0  0  0  0  0  0999 V2000
   -0.6379    3.4433    1.5029 O   0  0  0  0  0  0  0  0  0  0  0  0
   -0.3702    2.5423    0.7216 C   0  0  0  0  0  0  0  0  0  0  0  0
    0.0869    2.8339   -0.5149 O   0  0  0  0  0  0  0  0  0  0  0  0
   -0.5800    1.0509    0.9481 C   0  0  0  0  0  0  0  0  0  0  0  0
    0.0256    0.6427    2.2966 C   0  0  0  0  0  0  0  0  0  0  0  0
    1.5237    0.6479    2.2744 C   0  0  0  0  0  0  0  0  0  0  0  0
    2.3497    1.6421    2.7609 C   0  0  0  0  0  0  0  0  0  0  0  0
    3.6479    1.2669    2.5421 N   0  0  0  0  0  0  0  0  0  0  0  0
    3.6906    0.0460    1.9109 C   0  0  0  0  0  0  0  0  0  0  0  0
    4.7885   -0.7140    1.4899 C   0  0  0  0  0  0  0  0  0  0  0  0
    4.5284   -1.9411    0.8727 C   0  0  0  0  0  0  0  0  0  0  0  0
    3.2225   -2.3884    0.6878 C   0  0  0  0  0  0  0  0  0  0  0  0
    2.1363   -1.6162    1.1150 C   0  0  0  0  0  0  0  0  0  0  0  0
    2.3716   -0.3729    1.7372 C   0  0  0  0  0  0  0  0  0  0  0  0
   -2.0482    0.8347    0.9362 N   0  0  0  0  0  0  0  0  0  0  0  0
   -2.6438   -0.6425    0.4125 S   0  0  0  0  0  6  0  0  0  0  0  0
   -1.6321   -1.6263    0.7209 O   0  0  0  0  0  0  0  0  0  0  0  0
   -3.9895   -0.7071    0.9348 O   0  0  0  0  0  0  0  0  0  0  0  0
   -2.7678   -0.4737   -1.3270 C   0  0  0  0  0  0  0  0  0  0  0  0
   -2.6860    0.7800   -1.9727 C   0  0  0  0  0  0  0  0  0  0  0  0
   -2.7778    0.9298   -3.3764 C   0  0  0  0  0  0  0  0  0  0  0  0
   -2.9648   -0.1535   -4.2507 C   0  0  0  0  0  0  0  0  0  0  0  0
   -3.0679   -1.4322   -3.6519 C   0  0  0  0  0  0  0  0  0  0  0  0
   -3.2551   -2.5857   -4.3101 N   0  0  0  0  0  0  0  0  0  0  0  0
   -3.3139   -3.7796   -3.1590 S   0  0  0  0  0  0  0  0  0  0  0  0
   -3.1037   -2.8861   -1.7790 N   0  0  0  0  0  0  0  0  0  0  0  0
   -2.9707   -1.6033   -2.1531 C   0  0  0  0  0  0  0  0  0  0  0  0
    0.1726    3.8106   -0.5133 H   0  0  0  0  0  0  0  0  0  0  0  0
   -0.1095    0.5093    0.1189 H   0  0  0  0  0  0  0  0  0  0  0  0
   -0.3145   -0.3597    2.5830 H   0  0  0  0  0  0  0  0  0  0  0  0
   -0.3290    1.3095    3.0942 H   0  0  0  0  0  0  0  0  0  0  0  0
    2.1237    2.5822    3.2482 H   0  0  0  0  0  0  0  0  0  0  0  0
    4.4630    1.8031    2.8054 H   0  0  0  0  0  0  0  0  0  0  0  0
    5.8074   -0.3713    1.6367 H   0  0  0  0  0  0  0  0  0  0  0  0
    5.3588   -2.5574    0.5359 H   0  0  0  0  0  0  0  0  0  0  0  0
    3.0406   -3.3484    0.2107 H   0  0  0  0  0  0  0  0  0  0  0  0
    1.1227   -1.9823    0.9705 H   0  0  0  0  0  0  0  0  0  0  0  0
   -2.6049    1.2733    1.6719 H   0  0  0  0  0  0  0  0  0  0  0  0
   -2.5561    1.6859   -1.3814 H   0  0  0  0  0  0  0  0  0  0  0  0
   -2.7028    1.9324   -3.8000 H   0  0  0  0  0  0  0  0  0  0  0  0
   -3.0344   -0.0252   -5.3245 H   0  0  0  0  0  0  0  0  0  0  0  0
  1  2  2  0
  2  3  1  0
  2  4  1  0
  4  5  1  0
  5  6  1  0
  6  7  2  0
  7  8  1  0
  8  9  1  0
  9 10  2  0
 10 11  1  0
 11 12  2  0
 12 13  1  0
 13 14  2  0
  4 15  1  0
 15 16  1  0
 16 17  2  0
 16 18  2  0
 16 19  1  0
 19 20  2  0
 20 21  1  0
 21 22  2  0
 22 23  1  0
 23 24  2  0
 24 25  1  0
 25 26  1  0
 26 27  2  0
 14  6  1  0
 27 19  1  0
 14  9  1  0
 27 23  1  0
  3 28  1  0
  4 29  1  0
  5 30  1  0
  5 31  1  0
  7 32  1  0
  8 33  1  0
 10 34  1  0
 11 35  1  0
 12 36  1  0
 13 37  1  0
 15 38  1  0
 20 39  1  0
 21 40  1  0
 22 41  1  0
M  END
$$$$
