
     RDKit          3D

 42 45  0  0  0  0  0  0  0  0999 V2000
   -1.8210    1.0050    1.5185 O   0  0  0  0  0  0  0  0  0  0  0  0
   -1.8482    0.9806    0.2946 C   0  0  0  0  0  0  0  0  0  0  0  0
   -0.6319    1.0038   -0.5639 C   0  0  0  0  0  0  0  0  0  0  0  0
    0.5828    1.0446   -0.0024 C   0  0  0  0  0  0  0  0  0  0  0  0
    1.8417    1.0575   -0.6663 C   0  0  0  0  0  0  0  0  0  0  0  0
    2.2384    1.4379   -1.9441 C   0  0  0  0  0  0  0  0  0  0  0  0
    3.6388    1.2501   -2.0494 C   0  0  0  0  0  0  0  0  0  0  0  0
    4.0551    0.7914   -0.8229 C   0  0  0  0  0  0  0  0  0  0  0  0
    5.3424    0.3859   -0.2766 C   0  0  0  0  0  0  0  0  0  0  0  0
    6.1319   -0.5071   -1.0234 C   0  0  0  0  0  0  0  0  0  0  0  0
    7.3742   -0.9394   -0.5518 C   0  0  0  0  0  0  0  0  0  0  0  0
    7.8503   -0.4818    0.6729 C   0  0  0  0  0  0  0  0  0  0  0  0
    7.0865    0.4115    1.4234 C   0  0  0  0  0  0  0  0  0  0  0  0
    5.8403    0.8476    0.9543 C   0  0  0  0  0  0  0  0  0  0  0  0
    4.9968    2.0011    1.9327 Cl  0  0  0  0  0  0  0  0  0  0  0  0
    2.9835    0.6653    0.0031 O   0  0  0  0  0  0  0  0  0  0  0  0
   -1.0898    0.9277   -2.2145 S   0  0  0  0  0  0  0  0  0  0  0  0
   -2.8108    0.8790   -1.8464 C   0  0  0  0  0  0  0  0  0  0  0  0
   -3.9626    0.8273   -3.0527 S   0  0  0  0  0  0  0  0  0  0  0  0
   -2.9921    0.9264   -0.4810 N   0  0  0  0  0  0  0  0  0  0  0  0
   -4.2865    0.8279    0.2009 C   0  0  0  0  0  0  0  0  0  0  0  0
   -4.5438   -0.5865    0.7363 C   0  0  0  0  0  0  0  0  0  0  0  0
   -5.8622   -0.7057    1.4842 C   0  0  0  0  0  0  0  0  0  0  0  0
   -6.1685   -2.1740    1.3272 C   0  0  0  0  0  0  0  0  0  0  0  0
   -5.6988   -2.4425   -0.0865 C   0  0  0  0  0  0  0  0  0  0  0  0
   -4.6178   -1.5347   -0.3462 O   0  0  0  0  0  0  0  0  0  0  0  0
    0.6506    1.0375    1.0850 H   0  0  0  0  0  0  0  0  0  0  0  0
    1.5985    1.8227   -2.7250 H   0  0  0  0  0  0  0  0  0  0  0  0
    4.2653    1.4444   -2.9083 H   0  0  0  0  0  0  0  0  0  0  0  0
    5.7735   -0.8872   -1.9785 H   0  0  0  0  0  0  0  0  0  0  0  0
    7.9660   -1.6364   -1.1405 H   0  0  0  0  0  0  0  0  0  0  0  0
    8.8161   -0.8167    1.0432 H   0  0  0  0  0  0  0  0  0  0  0  0
    7.4696    0.7722    2.3751 H   0  0  0  0  0  0  0  0  0  0  0  0
   -5.0873    1.1230   -0.4832 H   0  0  0  0  0  0  0  0  0  0  0  0
   -4.2870    1.5386    1.0361 H   0  0  0  0  0  0  0  0  0  0  0  0
   -3.7202   -0.9126    1.3829 H   0  0  0  0  0  0  0  0  0  0  0  0
   -6.6461   -0.1129    0.9973 H   0  0  0  0  0  0  0  0  0  0  0  0
   -5.7886   -0.3864    2.5274 H   0  0  0  0  0  0  0  0  0  0  0  0
   -5.5699   -2.7564    2.0376 H   0  0  0  0  0  0  0  0  0  0  0  0
   -7.2214   -2.4234    1.4818 H   0  0  0  0  0  0  0  0  0  0  0  0
   -5.3578   -3.4719   -0.2277 H   0  0  0  0  0  0  0  0  0  0  0  0
   -6.4902   -2.2332   -0.8138 H   0  0  0  0  0  0  0  0  0  0  0  0
  1  2  2  0
  2  3  1  0
  3  4  2  3
  4  5  1  0
  5  6  2  0
  6  7  1  0
  7  8  2  0
  8  9  1  0
  9 10  2  0
 10 11  1  0
 11 12  2  0
 12 13  1  0
 13 14  2  0
 14 15  1  0
  8 16  1  0
  3 17  1  0
 17 18  1  0
 18 19  2  0
 18 20  1  0
 20 21  1  0
 21 22  1  0
 22 23  1  0
 23 24  1  0
 24 25  1  0
 25 26  1  0
 20  2  1  0
 26 22  1  0
 16  5  1  0
 14  9  1  0
  4 27  1  0
  6 28  1  0
  7 29  1  0
 10 30  1  0
 11 31  1  0
 12 32  1  0
 13 33  1  0
 21 34  1  0
 21 35  1  0
 22 36  1  0
 23 37  1  0
 23 38  1  0
 24 39  1  0
 24 40  1  0
 25 41  1  0
 25 42  1  0
M  END
$$$$
