
     RDKit          3D

 41 42  0  0  0  0  0  0  0  0999 V2000
    1.8716   -2.0528   -1.5935 C   0  0  0  0  0  0  0  0  0  0  0  0
    2.1608   -0.6767   -1.0246 C   0  0  0  0  0  0  0  0  0  0  0  0
    1.3951    0.3666   -1.1843 N   0  0  0  0  0  0  0  0  0  0  0  0
    0.1783    0.2020   -1.7924 N   0  0  0  0  0  0  0  0  0  0  0  0
   -0.8432   -0.4898   -1.1335 C   0  0  0  0  0  0  0  0  0  0  0  0
   -0.6955   -1.2104   -0.1483 O   0  0  0  0  0  0  0  0  0  0  0  0
   -2.1997   -0.2888   -1.7831 C   0  0  0  0  0  0  0  0  0  0  0  0
   -2.7007    1.4632   -1.7410 S   0  0  0  0  0  0  0  0  0  0  0  0
   -2.8299    1.7303    0.0629 C   0  0  0  0  0  0  0  0  0  0  0  0
   -3.9578    0.9688    0.7151 C   0  0  0  0  0  0  0  0  0  0  0  0
   -3.6478   -0.1879    1.4565 C   0  0  0  0  0  0  0  0  0  0  0  0
   -4.6473   -0.9388    2.0775 C   0  0  0  0  0  0  0  0  0  0  0  0
   -5.9773   -0.5466    1.9740 C   0  0  0  0  0  0  0  0  0  0  0  0
   -6.3068    0.5994    1.2529 C   0  0  0  0  0  0  0  0  0  0  0  0
   -5.3067    1.3554    0.6290 C   0  0  0  0  0  0  0  0  0  0  0  0
   -5.8679    2.9157   -0.3008 Br  0  0  0  0  0  0  0  0  0  0  0  0
    3.4311   -0.5016   -0.2522 C   0  0  0  0  0  0  0  0  0  0  0  0
    4.0234   -1.5784    0.4219 C   0  0  0  0  0  0  0  0  0  0  0  0
    5.2028   -1.3953    1.1495 C   0  0  0  0  0  0  0  0  0  0  0  0
    5.7971   -0.1349    1.2144 C   0  0  0  0  0  0  0  0  0  0  0  0
    5.2001    0.9439    0.5487 C   0  0  0  0  0  0  0  0  0  0  0  0
    5.8226    2.2714    0.6168 N   0  0  0  0  0  4  0  0  0  0  0  0
    5.3586    3.1651   -0.1049 O   0  0  0  0  0  0  0  0  0  0  0  0
    6.7811    2.4177    1.3888 O   0  0  0  0  0  1  0  0  0  0  0  0
    4.0182    0.7689   -0.1825 C   0  0  0  0  0  0  0  0  0  0  0  0
    1.2695   -1.9840   -2.5032 H   0  0  0  0  0  0  0  0  0  0  0  0
    2.8020   -2.5588   -1.8688 H   0  0  0  0  0  0  0  0  0  0  0  0
    1.3439   -2.6588   -0.8526 H   0  0  0  0  0  0  0  0  0  0  0  0
   -0.1500    1.0557   -2.2451 H   0  0  0  0  0  0  0  0  0  0  0  0
   -2.9490   -0.9195   -1.2973 H   0  0  0  0  0  0  0  0  0  0  0  0
   -2.1338   -0.6090   -2.8283 H   0  0  0  0  0  0  0  0  0  0  0  0
   -2.9578    2.8035    0.2417 H   0  0  0  0  0  0  0  0  0  0  0  0
   -1.8701    1.4828    0.5300 H   0  0  0  0  0  0  0  0  0  0  0  0
   -2.6140   -0.5181    1.5573 H   0  0  0  0  0  0  0  0  0  0  0  0
   -4.3835   -1.8289    2.6433 H   0  0  0  0  0  0  0  0  0  0  0  0
   -6.7571   -1.1282    2.4582 H   0  0  0  0  0  0  0  0  0  0  0  0
   -7.3496    0.9001    1.1855 H   0  0  0  0  0  0  0  0  0  0  0  0
    3.5683   -2.5661    0.4108 H   0  0  0  0  0  0  0  0  0  0  0  0
    5.6538   -2.2361    1.6729 H   0  0  0  0  0  0  0  0  0  0  0  0
    6.7148   -0.0092    1.7861 H   0  0  0  0  0  0  0  0  0  0  0  0
    3.5527    1.6081   -0.6964 H   0  0  0  0  0  0  0  0  0  0  0  0
  1  2  1  0
  2  3  2  3
  3  4  1  0
  4  5  1  0
  5  6  2  0
  5  7  1  0
  7  8  1  0
  8  9  1  0
  9 10  1  0
 10 11  2  0
 11 12  1  0
 12 13  2  0
 13 14  1  0
 14 15  2  0
 15 16  1  0
  2 17  1  0
 17 18  2  0
 18 19  1  0
 19 20  2  0
 20 21  1  0
 21 22  1  0
 22 23  2  0
 22 24  1  0
 21 25  2  0
 15 10  1  0
 25 17  1  0
  1 26  1  0
  1 27  1  0
  1 28  1  0
  4 29  1  0
  7 30  1  0
  7 31  1  0
  9 32  1  0
  9 33  1  0
 11 34  1  0
 12 35  1  0
 13 36  1  0
 14 37  1  0
 18 38  1  0
 19 39  1  0
 20 40  1  0
 25 41  1  0
M  CHG  2  22   1  24  -1
M  END
$$$$
