
     RDKit          3D

 48 50  0  0  0  0  0  0  0  0999 V2000
   -2.9133    3.1246    0.7223 C   0  0  0  0  0  0  0  0  0  0  0  0
   -3.1663    1.6335    0.8403 C   0  0  0  0  0  0  0  0  0  0  0  0
   -2.0010    0.9025    0.4196 O   0  0  0  0  0  0  0  0  0  0  0  0
   -1.0517    0.6933    1.3672 C   0  0  0  0  0  0  0  0  0  0  0  0
   -1.1419    1.0496    2.5388 O   0  0  0  0  0  0  0  0  0  0  0  0
    0.1049   -0.1207    0.8539 C   0  0  0  0  0  0  0  0  0  0  0  0
    0.4115   -0.1872   -0.6285 C   0  0  0  0  0  0  0  0  0  0  0  0
    0.1151    0.9582   -1.5676 C   0  0  0  0  0  0  0  0  0  0  0  0
    1.1086    2.3761   -1.2120 S   0  0  0  0  0  6  0  0  0  0  0  0
    0.9114    2.7116    0.1855 O   0  0  0  0  0  0  0  0  0  0  0  0
    0.8614    3.3661   -2.2425 O   0  0  0  0  0  0  0  0  0  0  0  0
    2.7826    1.8230   -1.4135 C   0  0  0  0  0  0  0  0  0  0  0  0
    3.2623    1.5782   -2.7047 C   0  0  0  0  0  0  0  0  0  0  0  0
    4.5715    1.1290   -2.8741 C   0  0  0  0  0  0  0  0  0  0  0  0
    5.3940    0.9337   -1.7604 C   0  0  0  0  0  0  0  0  0  0  0  0
    4.9149    1.1990   -0.4754 C   0  0  0  0  0  0  0  0  0  0  0  0
    3.6059    1.6531   -0.2945 C   0  0  0  0  0  0  0  0  0  0  0  0
    1.0356   -1.1918   -1.1667 N   0  0  0  0  0  0  0  0  0  0  0  0
    1.4620   -2.2601   -0.4300 C   0  0  0  0  0  0  0  0  0  0  0  0
    2.2198   -3.1124   -0.8762 O   0  0  0  0  0  0  0  0  0  0  0  0
    1.0092   -2.3776    0.8468 N   0  0  0  0  0  0  0  0  0  0  0  0
   -0.0369   -1.5477    1.3853 C   0  0  0  0  0  0  0  0  0  0  0  0
   -1.4086   -2.1894    1.2086 C   0  0  0  0  0  0  0  0  0  0  0  0
   -1.8610   -2.6988   -0.0185 C   0  0  0  0  0  0  0  0  0  0  0  0
   -3.1407   -3.2478   -0.1355 C   0  0  0  0  0  0  0  0  0  0  0  0
   -3.9884   -3.2942    0.9685 C   0  0  0  0  0  0  0  0  0  0  0  0
   -3.5595   -2.7917    2.1921 C   0  0  0  0  0  0  0  0  0  0  0  0
   -2.2808   -2.2442    2.3115 C   0  0  0  0  0  0  0  0  0  0  0  0
   -2.5863    3.3800   -0.2913 H   0  0  0  0  0  0  0  0  0  0  0  0
   -2.1153    3.4414    1.4025 H   0  0  0  0  0  0  0  0  0  0  0  0
   -3.8199    3.6933    0.9562 H   0  0  0  0  0  0  0  0  0  0  0  0
   -3.4687    1.3541    1.8571 H   0  0  0  0  0  0  0  0  0  0  0  0
   -3.9821    1.3441    0.1699 H   0  0  0  0  0  0  0  0  0  0  0  0
    1.0099    0.3263    1.2903 H   0  0  0  0  0  0  0  0  0  0  0  0
    0.3314    0.6637   -2.6001 H   0  0  0  0  0  0  0  0  0  0  0  0
   -0.9304    1.2573   -1.5427 H   0  0  0  0  0  0  0  0  0  0  0  0
    2.6323    1.7369   -3.5785 H   0  0  0  0  0  0  0  0  0  0  0  0
    4.9533    0.9302   -3.8747 H   0  0  0  0  0  0  0  0  0  0  0  0
    6.4159    0.5866   -1.8940 H   0  0  0  0  0  0  0  0  0  0  0  0
    5.5663    1.0561    0.3877 H   0  0  0  0  0  0  0  0  0  0  0  0
    3.2557    1.8731    0.7133 H   0  0  0  0  0  0  0  0  0  0  0  0
    1.2340   -3.2614    1.2860 H   0  0  0  0  0  0  0  0  0  0  0  0
    0.1707   -1.5264    2.4645 H   0  0  0  0  0  0  0  0  0  0  0  0
   -1.2322   -2.6871   -0.9051 H   0  0  0  0  0  0  0  0  0  0  0  0
   -3.4776   -3.6419   -1.0914 H   0  0  0  0  0  0  0  0  0  0  0  0
   -4.9815   -3.7227    0.8741 H   0  0  0  0  0  0  0  0  0  0  0  0
   -4.2188   -2.8238    3.0561 H   0  0  0  0  0  0  0  0  0  0  0  0
   -1.9773   -1.8475    3.2797 H   0  0  0  0  0  0  0  0  0  0  0  0
  1  2  1  0
  2  3  1  0
  3  4  1  0
  4  5  2  0
  4  6  1  0
  6  7  1  0
  7  8  1  0
  8  9  1  0
  9 10  2  0
  9 11  2  0
  9 12  1  0
 12 13  2  0
 13 14  1  0
 14 15  2  0
 15 16  1  0
 16 17  2  0
  7 18  2  0
 18 19  1  0
 19 20  2  0
 19 21  1  0
 21 22  1  0
 22 23  1  0
 23 24  2  0
 24 25  1  0
 25 26  2  0
 26 27  1  0
 27 28  2  0
 22  6  1  0
 28 23  1  0
 17 12  1  0
  1 29  1  0
  1 30  1  0
  1 31  1  0
  2 32  1  0
  2 33  1  0
  6 34  1  0
  8 35  1  0
  8 36  1  0
 13 37  1  0
 14 38  1  0
 15 39  1  0
 16 40  1  0
 17 41  1  0
 21 42  1  0
 22 43  1  0
 24 44  1  0
 25 45  1  0
 26 46  1  0
 27 47  1  0
 28 48  1  0
M  END
$$$$
