
     RDKit          3D

 49 52  0  0  0  0  0  0  0  0999 V2000
   -8.3343   -3.2062   -0.0487 C   0  0  0  0  0  0  0  0  0  0  0  0
   -7.6556   -2.4996    0.9789 O   0  0  0  0  0  0  0  0  0  0  0  0
   -6.8322   -1.4794    0.5906 C   0  0  0  0  0  0  0  0  0  0  0  0
   -6.1995   -0.8103    1.6397 C   0  0  0  0  0  0  0  0  0  0  0  0
   -5.3309    0.2524    1.3862 C   0  0  0  0  0  0  0  0  0  0  0  0
   -5.0845    0.6663    0.0724 C   0  0  0  0  0  0  0  0  0  0  0  0
   -4.1235    1.7915   -0.1998 C   0  0  0  0  0  0  0  0  0  0  0  0
   -2.7620    1.3332   -0.0821 N   0  0  0  0  0  0  0  0  0  0  0  0
   -1.7104    2.2275   -0.0831 C   0  0  0  0  0  0  0  0  0  0  0  0
   -1.9157    3.4375   -0.1649 O   0  0  0  0  0  0  0  0  0  0  0  0
   -0.3888    1.6196    0.0262 C   0  0  0  0  0  0  0  0  0  0  0  0
   -0.0217    0.3087    0.3317 C   0  0  0  0  0  0  0  0  0  0  0  0
    1.3830    0.1692    0.3690 C   0  0  0  0  0  0  0  0  0  0  0  0
    2.0200    1.3386    0.0990 C   0  0  0  0  0  0  0  0  0  0  0  0
    1.0120    2.6258   -0.2115 S   0  0  0  0  0  0  0  0  0  0  0  0
    3.4849    1.2047    0.1654 C   0  0  0  0  0  0  0  0  0  0  0  0
    3.6571   -0.2804    0.2287 N   0  0  0  0  0  0  0  0  0  0  0  0
    4.7665   -0.6858    1.0929 C   0  0  0  0  0  0  0  0  0  0  0  0
    6.1166   -0.2211    0.5886 C   0  0  0  0  0  0  0  0  0  0  0  0
    6.9621    0.5323    1.4136 C   0  0  0  0  0  0  0  0  0  0  0  0
    8.2150    0.9460    0.9564 C   0  0  0  0  0  0  0  0  0  0  0  0
    8.6354    0.6126   -0.3301 C   0  0  0  0  0  0  0  0  0  0  0  0
    7.8039   -0.1334   -1.1599 C   0  0  0  0  0  0  0  0  0  0  0  0
    6.5531   -0.5520   -0.7022 C   0  0  0  0  0  0  0  0  0  0  0  0
    2.3651   -0.9012    0.6548 C   0  0  0  0  0  0  0  0  0  0  0  0
   -5.7143   -0.0116   -0.9788 C   0  0  0  0  0  0  0  0  0  0  0  0
   -6.5858   -1.0758   -0.7207 C   0  0  0  0  0  0  0  0  0  0  0  0
   -9.0012   -2.5436   -0.6089 H   0  0  0  0  0  0  0  0  0  0  0  0
   -8.9502   -3.9746    0.4262 H   0  0  0  0  0  0  0  0  0  0  0  0
   -7.6255   -3.7097   -0.7145 H   0  0  0  0  0  0  0  0  0  0  0  0
   -6.3858   -1.1210    2.6645 H   0  0  0  0  0  0  0  0  0  0  0  0
   -4.8469    0.7551    2.2205 H   0  0  0  0  0  0  0  0  0  0  0  0
   -4.2641    2.1969   -1.2077 H   0  0  0  0  0  0  0  0  0  0  0  0
   -4.2920    2.6136    0.5036 H   0  0  0  0  0  0  0  0  0  0  0  0
   -2.5811    0.3492   -0.2132 H   0  0  0  0  0  0  0  0  0  0  0  0
   -0.7201   -0.4893    0.5467 H   0  0  0  0  0  0  0  0  0  0  0  0
    3.9827    1.6090   -0.7157 H   0  0  0  0  0  0  0  0  0  0  0  0
    3.8555    1.7010    1.0648 H   0  0  0  0  0  0  0  0  0  0  0  0
    4.6023   -0.3262    2.1167 H   0  0  0  0  0  0  0  0  0  0  0  0
    4.8082   -1.7811    1.1543 H   0  0  0  0  0  0  0  0  0  0  0  0
    6.6530    0.8012    2.4191 H   0  0  0  0  0  0  0  0  0  0  0  0
    8.8656    1.5244    1.6053 H   0  0  0  0  0  0  0  0  0  0  0  0
    9.6108    0.9359   -0.6853 H   0  0  0  0  0  0  0  0  0  0  0  0
    8.1286   -0.3901   -2.1651 H   0  0  0  0  0  0  0  0  0  0  0  0
    5.9108   -1.1339   -1.3585 H   0  0  0  0  0  0  0  0  0  0  0  0
    2.1722   -1.8062    0.0725 H   0  0  0  0  0  0  0  0  0  0  0  0
    2.3492   -1.1369    1.7245 H   0  0  0  0  0  0  0  0  0  0  0  0
   -5.5329    0.2840   -2.0090 H   0  0  0  0  0  0  0  0  0  0  0  0
   -7.0543   -1.5665   -1.5671 H   0  0  0  0  0  0  0  0  0  0  0  0
  1  2  1  0
  2  3  1  0
  3  4  2  0
  4  5  1  0
  5  6  2  0
  6  7  1  0
  7  8  1  0
  8  9  1  0
  9 10  2  0
  9 11  1  0
 11 12  2  0
 12 13  1  0
 13 14  2  0
 14 15  1  0
 14 16  1  0
 16 17  1  0
 17 18  1  0
 18 19  1  0
 19 20  2  0
 20 21  1  0
 21 22  2  0
 22 23  1  0
 23 24  2  0
 17 25  1  0
  6 26  1  0
 26 27  2  0
 27  3  1  0
 15 11  1  0
 24 19  1  0
 25 13  1  0
  1 28  1  0
  1 29  1  0
  1 30  1  0
  4 31  1  0
  5 32  1  0
  7 33  1  0
  7 34  1  0
  8 35  1  0
 12 36  1  0
 16 37  1  0
 16 38  1  0
 18 39  1  0
 18 40  1  0
 20 41  1  0
 21 42  1  0
 22 43  1  0
 23 44  1  0
 24 45  1  0
 25 46  1  0
 25 47  1  0
 26 48  1  0
 27 49  1  0
M  END
$$$$
