
     RDKit          3D

 36 39  0  0  0  0  0  0  0  0999 V2000
    5.5257   -1.0840   -0.8710 C   0  0  0  0  0  0  0  0  0  0  0  0
    4.5222   -0.0308   -0.5096 C   0  0  0  0  0  0  0  0  0  0  0  0
    4.9244    1.2698   -0.2276 C   0  0  0  0  0  0  0  0  0  0  0  0
    3.9565    2.1842    0.1375 C   0  0  0  0  0  0  0  0  0  0  0  0
    2.6430    1.8891    0.2378 N   0  0  0  0  0  0  0  0  0  0  0  0
    2.2345    0.6218   -0.0152 C   0  0  0  0  0  0  0  0  0  0  0  0
    0.8293    0.3360    0.0962 N   0  0  0  0  0  0  0  0  0  0  0  0
    0.1094    1.0534    1.0611 C   0  0  0  0  0  0  0  0  0  0  0  0
    0.5836    1.7048    1.9908 O   0  0  0  0  0  0  0  0  0  0  0  0
   -1.3682    0.9295    1.0373 C   0  0  0  0  0  0  0  0  0  0  0  0
   -2.1266    1.7448    1.8897 C   0  0  0  0  0  0  0  0  0  0  0  0
   -3.5083    1.6215    1.9299 C   0  0  0  0  0  0  0  0  0  0  0  0
   -4.1395    0.6779    1.1230 C   0  0  0  0  0  0  0  0  0  0  0  0
   -3.4039   -0.1595    0.2464 C   0  0  0  0  0  0  0  0  0  0  0  0
   -3.9760   -1.1488   -0.5959 C   0  0  0  0  0  0  0  0  0  0  0  0
   -5.4139   -1.3592   -0.6279 N   0  0  0  0  0  4  0  0  0  0  0  0
   -5.8227   -2.4795   -0.2967 O   0  0  0  0  0  0  0  0  0  0  0  0
   -6.1182   -0.4136   -1.0037 O   0  0  0  0  0  1  0  0  0  0  0  0
   -3.2057   -1.9683   -1.4265 C   0  0  0  0  0  0  0  0  0  0  0  0
   -1.8273   -1.7955   -1.4471 C   0  0  0  0  0  0  0  0  0  0  0  0
   -1.2205   -0.8200   -0.6368 C   0  0  0  0  0  0  0  0  0  0  0  0
   -1.9877   -0.0136    0.2127 C   0  0  0  0  0  0  0  0  0  0  0  0
    0.2494   -0.6283   -0.7323 C   0  0  0  0  0  0  0  0  0  0  0  0
    0.8324   -1.3121   -1.5724 O   0  0  0  0  0  0  0  0  0  0  0  0
    3.1633   -0.3543   -0.3871 C   0  0  0  0  0  0  0  0  0  0  0  0
    5.0939   -1.8101   -1.5678 H   0  0  0  0  0  0  0  0  0  0  0  0
    5.8576   -1.6099    0.0295 H   0  0  0  0  0  0  0  0  0  0  0  0
    6.3983   -0.6416   -1.3629 H   0  0  0  0  0  0  0  0  0  0  0  0
    5.9652    1.5695   -0.2845 H   0  0  0  0  0  0  0  0  0  0  0  0
    4.2157    3.2131    0.3702 H   0  0  0  0  0  0  0  0  0  0  0  0
   -1.6378    2.4766    2.5323 H   0  0  0  0  0  0  0  0  0  0  0  0
   -4.0936    2.2547    2.5935 H   0  0  0  0  0  0  0  0  0  0  0  0
   -5.2253    0.6103    1.1923 H   0  0  0  0  0  0  0  0  0  0  0  0
   -3.6674   -2.7251   -2.0582 H   0  0  0  0  0  0  0  0  0  0  0  0
   -1.2242   -2.4194   -2.1068 H   0  0  0  0  0  0  0  0  0  0  0  0
    2.8627   -1.3833   -0.5555 H   0  0  0  0  0  0  0  0  0  0  0  0
  1  2  1  0
  2  3  2  0
  3  4  1  0
  4  5  2  0
  5  6  1  0
  6  7  1  0
  7  8  1  0
  8  9  2  0
  8 10  1  0
 10 11  2  0
 11 12  1  0
 12 13  2  0
 13 14  1  0
 14 15  2  0
 15 16  1  0
 16 17  2  0
 16 18  1  0
 15 19  1  0
 19 20  2  0
 20 21  1  0
 21 22  2  0
 21 23  1  0
 23 24  2  0
  6 25  2  0
 25  2  1  0
 23  7  1  0
 22 10  1  0
 22 14  1  0
  1 26  1  0
  1 27  1  0
  1 28  1  0
  3 29  1  0
  4 30  1  0
 11 31  1  0
 12 32  1  0
 13 33  1  0
 19 34  1  0
 20 35  1  0
 25 36  1  0
M  CHG  2  16   1  18  -1
M  END
$$$$
