
     RDKit          3D

 51 55  0  0  0  0  0  0  0  0999 V2000
    3.3662   -1.8753    2.1735 C   0  0  0  0  0  0  0  0  0  0  0  0
    2.9947   -1.9426    0.7002 C   0  0  0  0  0  0  0  0  0  0  0  0
    2.5974   -0.6325    0.1987 N   0  0  0  0  0  0  0  0  0  0  0  0
    1.3001   -0.1088    0.1881 C   0  0  0  0  0  0  0  0  0  0  0  0
    0.1872   -0.7215    0.6396 C   0  0  0  0  0  0  0  0  0  0  0  0
   -1.1650   -0.1442    0.6456 C   0  0  0  0  0  0  0  0  0  0  0  0
   -1.5339    0.6146    1.7564 C   0  0  0  0  0  0  0  0  0  0  0  0
   -2.7942    1.1757    1.8243 C   0  0  0  0  0  0  0  0  0  0  0  0
   -3.6917    0.9654    0.7851 C   0  0  0  0  0  0  0  0  0  0  0  0
   -4.9762    1.5274    0.8583 C   0  0  0  0  0  0  0  0  0  0  0  0
   -5.9076    1.3357   -0.1653 C   0  0  0  0  0  0  0  0  0  0  0  0
   -7.2887    1.9165   -0.0578 C   0  0  0  0  0  0  0  0  0  0  0  0
   -5.5537    0.5470   -1.2576 C   0  0  0  0  0  0  0  0  0  0  0  0
   -4.2752   -0.0176   -1.3443 C   0  0  0  0  0  0  0  0  0  0  0  0
   -3.3094    0.1821   -0.3385 C   0  0  0  0  0  0  0  0  0  0  0  0
   -2.0389   -0.3493   -0.3863 N   0  0  0  0  0  4  0  0  0  0  0  0
   -1.5926   -1.1329   -1.5778 C   0  0  0  0  0  0  0  0  0  0  0  0
   -1.9640   -2.5932   -1.3998 C   0  0  0  0  0  0  0  0  0  0  0  0
    1.1788    1.5137   -0.5245 S   0  0  0  0  0  0  0  0  0  0  0  0
    2.9539    1.5070   -0.7562 C   0  0  0  0  0  0  0  0  0  0  0  0
    3.6434    2.5680   -1.3087 C   0  0  0  0  0  0  0  0  0  0  0  0
    5.0205    2.4686   -1.4362 C   0  0  0  0  0  0  0  0  0  0  0  0
    5.6772    1.3020   -0.9866 C   0  0  0  0  0  0  0  0  0  0  0  0
    7.3817    1.0442   -1.0692 S   0  0  0  0  0  0  0  0  0  0  0  0
    7.2595   -0.4770   -0.3325 C   0  0  0  0  0  0  0  0  0  0  0  0
    5.9561   -0.7972   -0.0332 C   0  0  0  0  0  0  0  0  0  0  0  0
    4.9952    0.2120   -0.4145 C   0  0  0  0  0  0  0  0  0  0  0  0
    3.5715    0.2998   -0.3051 C   0  0  0  0  0  0  0  0  0  0  0  0
    2.5119   -1.5530    2.7783 H   0  0  0  0  0  0  0  0  0  0  0  0
    3.6794   -2.8614    2.5300 H   0  0  0  0  0  0  0  0  0  0  0  0
    4.1827   -1.1707    2.3568 H   0  0  0  0  0  0  0  0  0  0  0  0
    3.7944   -2.3780    0.0968 H   0  0  0  0  0  0  0  0  0  0  0  0
    2.1707   -2.6569    0.5834 H   0  0  0  0  0  0  0  0  0  0  0  0
    0.2425   -1.7102    1.0838 H   0  0  0  0  0  0  0  0  0  0  0  0
   -0.8317    0.7816    2.5727 H   0  0  0  0  0  0  0  0  0  0  0  0
   -3.0660    1.7737    2.6938 H   0  0  0  0  0  0  0  0  0  0  0  0
   -5.2644    2.1260    1.7238 H   0  0  0  0  0  0  0  0  0  0  0  0
   -7.7064    2.1176   -1.0499 H   0  0  0  0  0  0  0  0  0  0  0  0
   -7.2704    2.8672    0.4854 H   0  0  0  0  0  0  0  0  0  0  0  0
   -7.9473    1.2192    0.4690 H   0  0  0  0  0  0  0  0  0  0  0  0
   -6.2753    0.3650   -2.0544 H   0  0  0  0  0  0  0  0  0  0  0  0
   -4.0870   -0.6231   -2.2253 H   0  0  0  0  0  0  0  0  0  0  0  0
   -0.5152   -1.0233   -1.7163 H   0  0  0  0  0  0  0  0  0  0  0  0
   -2.0336   -0.6985   -2.4786 H   0  0  0  0  0  0  0  0  0  0  0  0
   -1.4846   -3.0183   -0.5125 H   0  0  0  0  0  0  0  0  0  0  0  0
   -1.6429   -3.1734   -2.2702 H   0  0  0  0  0  0  0  0  0  0  0  0
   -3.0440   -2.7238   -1.2842 H   0  0  0  0  0  0  0  0  0  0  0  0
    3.1299    3.4660   -1.6386 H   0  0  0  0  0  0  0  0  0  0  0  0
    5.5911    3.2874   -1.8691 H   0  0  0  0  0  0  0  0  0  0  0  0
    8.1462   -1.0683   -0.1461 H   0  0  0  0  0  0  0  0  0  0  0  0
    5.7278   -1.7325    0.4544 H   0  0  0  0  0  0  0  0  0  0  0  0
  1  2  1  0
  2  3  1  0
  3  4  1  0
  4  5  2  3
  5  6  1  0
  6  7  2  0
  7  8  1  0
  8  9  2  0
  9 10  1  0
 10 11  2  0
 11 12  1  0
 11 13  1  0
 13 14  2  0
 14 15  1  0
 15 16  2  0
 16 17  1  0
 17 18  1  0
  4 19  1  0
 19 20  1  0
 20 21  2  0
 21 22  1  0
 22 23  2  0
 23 24  1  0
 24 25  1  0
 25 26  2  0
 26 27  1  0
 27 28  2  0
 28  3  1  0
 16  6  1  0
 28 20  1  0
 15  9  1  0
 27 23  1  0
  1 29  1  0
  1 30  1  0
  1 31  1  0
  2 32  1  0
  2 33  1  0
  5 34  1  0
  7 35  1  0
  8 36  1  0
 10 37  1  0
 12 38  1  0
 12 39  1  0
 12 40  1  0
 13 41  1  0
 14 42  1  0
 17 43  1  0
 17 44  1  0
 18 45  1  0
 18 46  1  0
 18 47  1  0
 21 48  1  0
 22 49  1  0
 25 50  1  0
 26 51  1  0
M  CHG  1  16   1
M  END
$$$$
