
     RDKit          3D

 46 50  0  0  0  0  0  0  0  0999 V2000
    0.0443    1.6606   -1.5976 O   0  0  0  0  0  0  0  0  0  0  0  0
   -0.7097    1.2827   -0.7035 C   0  0  0  0  0  0  0  0  0  0  0  0
   -2.0199    1.9233   -0.5450 C   0  0  0  0  0  0  0  0  0  0  0  0
   -2.2885    3.1586   -1.1430 C   0  0  0  0  0  0  0  0  0  0  0  0
   -3.5365    3.7457   -0.9548 C   0  0  0  0  0  0  0  0  0  0  0  0
   -3.8844    5.2670   -1.6775 Cl  0  0  0  0  0  0  0  0  0  0  0  0
   -4.5070    3.1097   -0.1807 C   0  0  0  0  0  0  0  0  0  0  0  0
   -4.2286    1.8710    0.4025 C   0  0  0  0  0  0  0  0  0  0  0  0
   -2.9852    1.2694    0.2089 C   0  0  0  0  0  0  0  0  0  0  0  0
   -2.8053    0.0559    0.7981 O   0  0  0  0  0  0  0  0  0  0  0  0
   -1.6577   -0.7574    0.3862 C   0  0  0  0  0  0  0  0  0  0  0  0
   -2.0541   -1.4728   -0.9286 C   0  0  0  0  0  0  0  0  0  0  0  0
   -1.2883   -2.7633   -1.1894 C   0  0  0  0  0  0  0  0  0  0  0  0
   -1.4334   -3.6822   -0.0714 N   0  0  0  0  0  0  0  0  0  0  0  0
   -0.9252   -3.1353    1.1788 C   0  0  0  0  0  0  0  0  0  0  0  0
   -1.5830   -1.8059    1.5304 C   0  0  0  0  0  0  0  0  0  0  0  0
   -0.3904    0.1461    0.2710 C   0  0  0  0  0  0  0  0  0  0  0  0
    0.9272   -0.5041   -0.1134 C   0  0  0  0  0  0  0  0  0  0  0  0
    1.8466    0.3550    0.6906 C   0  0  0  0  0  0  0  0  0  0  0  0
    3.3086    0.3932    0.4524 C   0  0  0  0  0  0  0  0  0  0  0  0
    3.9218   -0.4417   -0.4893 C   0  0  0  0  0  0  0  0  0  0  0  0
    5.3061   -0.3800   -0.6837 C   0  0  0  0  0  0  0  0  0  0  0  0
    6.0757    0.5121    0.0618 C   0  0  0  0  0  0  0  0  0  0  0  0
    7.7769    0.5816   -0.1808 Cl  0  0  0  0  0  0  0  0  0  0  0  0
    5.4747    1.3449    1.0023 C   0  0  0  0  0  0  0  0  0  0  0  0
    4.0921    1.2851    1.1979 C   0  0  0  0  0  0  0  0  0  0  0  0
    1.2651    1.0266    1.6329 N   0  0  0  0  0  0  0  0  0  0  0  0
   -0.1189    0.7570    1.5481 O   0  0  0  0  0  0  0  0  0  0  0  0
   -1.5277    3.6581   -1.7380 H   0  0  0  0  0  0  0  0  0  0  0  0
   -5.4800    3.5703   -0.0285 H   0  0  0  0  0  0  0  0  0  0  0  0
   -4.9855    1.3721    1.0034 H   0  0  0  0  0  0  0  0  0  0  0  0
   -1.9396   -0.8072   -1.7919 H   0  0  0  0  0  0  0  0  0  0  0  0
   -3.1284   -1.7062   -0.8956 H   0  0  0  0  0  0  0  0  0  0  0  0
   -1.7005   -3.2391   -2.0865 H   0  0  0  0  0  0  0  0  0  0  0  0
   -0.2326   -2.5719   -1.4019 H   0  0  0  0  0  0  0  0  0  0  0  0
   -0.9672   -4.5663   -0.2783 H   0  0  0  0  0  0  0  0  0  0  0  0
   -1.1447   -3.8509    1.9802 H   0  0  0  0  0  0  0  0  0  0  0  0
    0.1634   -3.0584    1.1511 H   0  0  0  0  0  0  0  0  0  0  0  0
   -2.6086   -2.0308    1.8611 H   0  0  0  0  0  0  0  0  0  0  0  0
   -1.0986   -1.3804    2.4173 H   0  0  0  0  0  0  0  0  0  0  0  0
    1.0523   -1.5168    0.2592 H   0  0  0  0  0  0  0  0  0  0  0  0
    1.1445   -0.4825   -1.1834 H   0  0  0  0  0  0  0  0  0  0  0  0
    3.3500   -1.1481   -1.0831 H   0  0  0  0  0  0  0  0  0  0  0  0
    5.7774   -1.0289   -1.4177 H   0  0  0  0  0  0  0  0  0  0  0  0
    6.0710    2.0422    1.5850 H   0  0  0  0  0  0  0  0  0  0  0  0
    3.6316    1.9419    1.9343 H   0  0  0  0  0  0  0  0  0  0  0  0
  1  2  2  0
  2  3  1  0
  3  4  2  0
  4  5  1  0
  5  6  1  0
  5  7  2  0
  7  8  1  0
  8  9  2  0
  9 10  1  0
 10 11  1  0
 11 12  1  0
 12 13  1  0
 13 14  1  0
 14 15  1  0
 15 16  1  0
 11 17  1  0
 17 18  1  0
 18 19  1  0
 19 20  1  0
 20 21  2  0
 21 22  1  0
 22 23  2  0
 23 24  1  0
 23 25  1  0
 25 26  2  0
 19 27  2  0
 27 28  1  0
 17  2  1  0
 26 20  1  0
  9  3  1  0
 16 11  1  0
 28 17  1  0
  4 29  1  0
  7 30  1  0
  8 31  1  0
 12 32  1  0
 12 33  1  0
 13 34  1  0
 13 35  1  0
 14 36  1  0
 15 37  1  0
 15 38  1  0
 16 39  1  0
 16 40  1  0
 18 41  1  0
 18 42  1  0
 21 43  1  0
 22 44  1  0
 25 45  1  0
 26 46  1  0
M  END
$$$$
