
     RDKit          3D

 48 49  0  0  0  0  0  0  0  0999 V2000
   -6.7265   -0.5903   -1.8699 C   0  0  0  0  0  0  0  0  0  0  0  0
   -5.3368   -0.6876   -1.3147 C   0  0  0  0  0  0  0  0  0  0  0  0
   -4.9511    0.1024   -0.2264 C   0  0  0  0  0  0  0  0  0  0  0  0
   -3.6657   -0.0061    0.3096 C   0  0  0  0  0  0  0  0  0  0  0  0
   -2.7468   -0.9156   -0.2254 C   0  0  0  0  0  0  0  0  0  0  0  0
   -1.3524   -1.0278    0.3430 C   0  0  0  0  0  0  0  0  0  0  0  0
   -0.3357   -0.0997   -0.3457 C   0  0  0  0  0  0  0  0  0  0  0  0
    1.0277   -0.6639   -0.2320 N   0  0  0  0  0  0  0  0  0  0  0  0
    2.0313   -0.1968   -1.0621 C   0  0  0  0  0  0  0  0  0  0  0  0
    1.8964    0.7723   -1.7980 O   0  0  0  0  0  0  0  0  0  0  0  0
    3.3124   -0.9547   -1.0422 C   0  0  0  0  0  0  0  0  0  0  0  0
    3.7321   -1.6742    0.0847 C   0  0  0  0  0  0  0  0  0  0  0  0
    4.9453   -2.3662    0.0580 C   0  0  0  0  0  0  0  0  0  0  0  0
    5.7432   -2.3362   -1.0858 C   0  0  0  0  0  0  0  0  0  0  0  0
    5.3366   -1.6085   -2.2036 C   0  0  0  0  0  0  0  0  0  0  0  0
    4.1258   -0.9147   -2.1813 C   0  0  0  0  0  0  0  0  0  0  0  0
   -0.3807    1.2935    0.3296 C   0  0  0  0  0  0  0  0  0  0  0  0
   -1.2052    2.1545    0.0349 O   0  0  0  0  0  0  0  0  0  0  0  0
    0.4682    1.4197    1.4184 N   0  0  0  0  0  0  0  0  0  0  0  0
    0.7172    2.7356    2.0099 C   0  0  0  0  0  0  0  0  0  0  0  0
    0.7958    2.6141    3.5244 C   0  0  0  0  0  0  0  0  0  0  0  0
    2.0359    3.3141    1.4866 C   0  0  0  0  0  0  0  0  0  0  0  0
    2.4364    4.4572    1.6417 O   0  0  0  0  0  0  0  0  0  0  0  0
    2.8267    2.3934    0.8868 O   0  0  0  0  0  0  0  0  0  0  0  0
   -3.1365   -1.7121   -1.3102 C   0  0  0  0  0  0  0  0  0  0  0  0
   -4.4228   -1.6042   -1.8445 C   0  0  0  0  0  0  0  0  0  0  0  0
   -6.7354   -0.8132   -2.9419 H   0  0  0  0  0  0  0  0  0  0  0  0
   -7.1282    0.4210   -1.7444 H   0  0  0  0  0  0  0  0  0  0  0  0
   -7.3843   -1.2971   -1.3552 H   0  0  0  0  0  0  0  0  0  0  0  0
   -5.6459    0.8182    0.2074 H   0  0  0  0  0  0  0  0  0  0  0  0
   -3.3863    0.6381    1.1413 H   0  0  0  0  0  0  0  0  0  0  0  0
   -1.3839   -0.8454    1.4254 H   0  0  0  0  0  0  0  0  0  0  0  0
   -1.0389   -2.0756    0.2397 H   0  0  0  0  0  0  0  0  0  0  0  0
   -0.5521    0.0286   -1.4131 H   0  0  0  0  0  0  0  0  0  0  0  0
    1.1046   -1.6281    0.0643 H   0  0  0  0  0  0  0  0  0  0  0  0
    3.1448   -1.6855    0.9979 H   0  0  0  0  0  0  0  0  0  0  0  0
    5.2752   -2.9221    0.9326 H   0  0  0  0  0  0  0  0  0  0  0  0
    6.6886   -2.8734   -1.1036 H   0  0  0  0  0  0  0  0  0  0  0  0
    5.9631   -1.5776   -3.0918 H   0  0  0  0  0  0  0  0  0  0  0  0
    3.8161   -0.3439   -3.0551 H   0  0  0  0  0  0  0  0  0  0  0  0
    1.2929    0.8325    1.3360 H   0  0  0  0  0  0  0  0  0  0  0  0
   -0.0823    3.4266    1.7234 H   0  0  0  0  0  0  0  0  0  0  0  0
   -0.1375    2.2099    3.9311 H   0  0  0  0  0  0  0  0  0  0  0  0
    0.9773    3.5895    3.9883 H   0  0  0  0  0  0  0  0  0  0  0  0
    1.6093    1.9454    3.8286 H   0  0  0  0  0  0  0  0  0  0  0  0
    3.5805    2.9165    0.5400 H   0  0  0  0  0  0  0  0  0  0  0  0
   -2.4428   -2.4249   -1.7498 H   0  0  0  0  0  0  0  0  0  0  0  0
   -4.7056   -2.2376   -2.6822 H   0  0  0  0  0  0  0  0  0  0  0  0
  1  2  1  0
  2  3  2  0
  3  4  1  0
  4  5  2  0
  5  6  1  0
  6  7  1  0
  7  8  1  0
  8  9  1  0
  9 10  2  0
  9 11  1  0
 11 12  2  0
 12 13  1  0
 13 14  2  0
 14 15  1  0
 15 16  2  0
  7 17  1  0
 17 18  2  0
 17 19  1  0
 19 20  1  0
 20 21  1  0
 20 22  1  0
 22 23  2  0
 22 24  1  0
  5 25  1  0
 25 26  2  0
 26  2  1  0
 16 11  1  0
  1 27  1  0
  1 28  1  0
  1 29  1  0
  3 30  1  0
  4 31  1  0
  6 32  1  0
  6 33  1  0
  7 34  1  0
  8 35  1  0
 12 36  1  0
 13 37  1  0
 14 38  1  0
 15 39  1  0
 16 40  1  0
 19 41  1  0
 20 42  1  0
 21 43  1  0
 21 44  1  0
 21 45  1  0
 24 46  1  0
 25 47  1  0
 26 48  1  0
M  END
$$$$
