
     RDKit          3D

 48 48  0  0  0  0  0  0  0  0999 V2000
   -6.4351    0.8928   -2.6449 C   0  0  0  0  0  0  0  0  0  0  0  0
   -5.3964    0.2888   -1.7121 C   0  0  0  0  0  0  0  0  0  0  0  0
   -4.2665    1.2774   -1.4216 C   0  0  0  0  0  0  0  0  0  0  0  0
   -3.1384    0.6792   -0.5751 C   0  0  0  0  0  0  0  0  0  0  0  0
   -3.5795    0.3040    0.8423 C   0  0  0  0  0  0  0  0  0  0  0  0
   -2.4107   -0.0834    1.7556 C   0  0  0  0  0  0  0  0  0  0  0  0
   -1.6885   -1.3557    1.3039 C   0  0  0  0  0  0  0  0  0  0  0  0
   -0.6729   -1.8772    2.3291 C   0  0  0  0  0  0  0  0  0  0  0  0
    0.4903   -0.9295    2.6228 C   0  0  0  0  0  0  0  0  0  0  0  0
    1.4516   -0.7595    1.4567 C   0  0  0  0  0  0  0  0  0  0  0  0
    1.4250   -1.4676    0.4549 O   0  0  0  0  0  0  0  0  0  0  0  0
    2.3809    0.2579    1.7029 N   0  0  0  0  0  0  0  0  0  0  0  0
    3.1599    0.7447    0.6863 N   0  0  0  0  0  0  0  0  0  0  0  0
    4.0565   -0.0347    0.1474 C   0  0  0  0  0  0  0  0  0  0  0  0
    4.4275   -1.4110    0.6679 C   0  0  0  0  0  0  0  0  0  0  0  0
    4.8005    0.4699   -1.0436 C   0  0  0  0  0  0  0  0  0  0  0  0
    5.4591   -0.3798   -1.9348 C   0  0  0  0  0  0  0  0  0  0  0  0
    6.1346    0.1614   -3.0283 C   0  0  0  0  0  0  0  0  0  0  0  0
    6.1266    1.5370   -3.1957 C   0  0  0  0  0  0  0  0  0  0  0  0
    5.4959    2.3886   -2.3600 N   0  0  0  0  0  0  0  0  0  0  0  0
    4.8398    1.8350   -1.3081 C   0  0  0  0  0  0  0  0  0  0  0  0
   -6.8831    1.7895   -2.2048 H   0  0  0  0  0  0  0  0  0  0  0  0
   -7.2361    0.1722   -2.8375 H   0  0  0  0  0  0  0  0  0  0  0  0
   -5.9879    1.1676   -3.6055 H   0  0  0  0  0  0  0  0  0  0  0  0
   -5.8921   -0.0073   -0.7815 H   0  0  0  0  0  0  0  0  0  0  0  0
   -4.9885   -0.6201   -2.1691 H   0  0  0  0  0  0  0  0  0  0  0  0
   -3.8363    1.6193   -2.3713 H   0  0  0  0  0  0  0  0  0  0  0  0
   -4.6706    2.1659   -0.9213 H   0  0  0  0  0  0  0  0  0  0  0  0
   -2.3281    1.4163   -0.5158 H   0  0  0  0  0  0  0  0  0  0  0  0
   -2.7321   -0.1991   -1.0894 H   0  0  0  0  0  0  0  0  0  0  0  0
   -4.0987    1.1575    1.2953 H   0  0  0  0  0  0  0  0  0  0  0  0
   -4.2972   -0.5234    0.8086 H   0  0  0  0  0  0  0  0  0  0  0  0
   -1.7060    0.7541    1.8063 H   0  0  0  0  0  0  0  0  0  0  0  0
   -2.8030   -0.2323    2.7690 H   0  0  0  0  0  0  0  0  0  0  0  0
   -2.4305   -2.1456    1.1323 H   0  0  0  0  0  0  0  0  0  0  0  0
   -1.1897   -1.1826    0.3448 H   0  0  0  0  0  0  0  0  0  0  0  0
   -0.2807   -2.8375    1.9718 H   0  0  0  0  0  0  0  0  0  0  0  0
   -1.1978   -2.0874    3.2693 H   0  0  0  0  0  0  0  0  0  0  0  0
    0.1205    0.0504    2.9409 H   0  0  0  0  0  0  0  0  0  0  0  0
    1.0733   -1.3427    3.4554 H   0  0  0  0  0  0  0  0  0  0  0  0
    2.0442    0.9968    2.3143 H   0  0  0  0  0  0  0  0  0  0  0  0
    3.8926   -2.1788    0.1031 H   0  0  0  0  0  0  0  0  0  0  0  0
    4.1947   -1.5115    1.7310 H   0  0  0  0  0  0  0  0  0  0  0  0
    5.5039   -1.5801    0.5667 H   0  0  0  0  0  0  0  0  0  0  0  0
    5.4429   -1.4580   -1.8085 H   0  0  0  0  0  0  0  0  0  0  0  0
    6.6500   -0.4768   -3.7379 H   0  0  0  0  0  0  0  0  0  0  0  0
    6.6383    2.0031   -4.0331 H   0  0  0  0  0  0  0  0  0  0  0  0
    4.3380    2.5521   -0.6637 H   0  0  0  0  0  0  0  0  0  0  0  0
  1  2  1  0
  2  3  1  0
  3  4  1  0
  4  5  1  0
  5  6  1  0
  6  7  1  0
  7  8  1  0
  8  9  1  0
  9 10  1  0
 10 11  2  0
 10 12  1  0
 12 13  1  0
 13 14  2  3
 14 15  1  0
 14 16  1  0
 16 17  2  0
 17 18  1  0
 18 19  2  0
 19 20  1  0
 20 21  2  0
 21 16  1  0
  1 22  1  0
  1 23  1  0
  1 24  1  0
  2 25  1  0
  2 26  1  0
  3 27  1  0
  3 28  1  0
  4 29  1  0
  4 30  1  0
  5 31  1  0
  5 32  1  0
  6 33  1  0
  6 34  1  0
  7 35  1  0
  7 36  1  0
  8 37  1  0
  8 38  1  0
  9 39  1  0
  9 40  1  0
 12 41  1  0
 15 42  1  0
 15 43  1  0
 15 44  1  0
 17 45  1  0
 18 46  1  0
 19 47  1  0
 21 48  1  0
M  END
$$$$
