
     RDKit          3D

 46 49  0  0  0  0  0  0  0  0999 V2000
   -2.8644    0.7982    0.9363 O   0  0  0  0  0  0  0  0  0  0  0  0
   -3.2507    0.0871    0.0156 C   0  0  0  0  0  0  0  0  0  0  0  0
   -2.4480   -0.7060   -0.7829 N   0  0  0  0  0  0  0  0  0  0  0  0
   -1.0467   -0.8611   -0.7150 C   0  0  0  0  0  0  0  0  0  0  0  0
   -0.4633   -1.7378   -1.6399 C   0  0  0  0  0  0  0  0  0  0  0  0
    0.9184   -1.9547   -1.6483 C   0  0  0  0  0  0  0  0  0  0  0  0
    1.7431   -1.3021   -0.7341 C   0  0  0  0  0  0  0  0  0  0  0  0
    3.1201   -1.5414   -0.7819 N   0  0  0  0  0  0  0  0  0  0  0  0
    3.8768   -0.9535    0.0877 C   0  0  0  0  0  0  0  0  0  0  0  0
    3.4049   -0.0984    1.0670 N   0  0  0  0  0  0  0  0  0  0  0  0
    2.0582    0.2466    1.1385 C   0  0  0  0  0  0  0  0  0  0  0  0
    1.6023    1.0708    1.9263 O   0  0  0  0  0  0  0  0  0  0  0  0
    1.1621   -0.4318    0.1837 C   0  0  0  0  0  0  0  0  0  0  0  0
   -0.2233   -0.2051    0.2006 C   0  0  0  0  0  0  0  0  0  0  0  0
    4.3277    0.5572    1.9874 C   0  0  0  0  0  0  0  0  0  0  0  0
    5.1216    1.6775    1.3163 C   0  0  0  0  0  0  0  0  0  0  0  0
    5.5687    1.3949   -0.1188 C   0  0  0  0  0  0  0  0  0  0  0  0
    6.2068    0.0261   -0.3535 C   0  0  0  0  0  0  0  0  0  0  0  0
    5.3741   -1.2022    0.0235 C   0  0  0  0  0  0  0  0  0  0  0  0
   -4.7184    0.0702   -0.2742 C   0  0  0  0  0  0  0  0  0  0  0  0
   -5.5633    0.8685    0.5186 C   0  0  0  0  0  0  0  0  0  0  0  0
   -6.9457    0.8811    0.2794 C   0  0  0  0  0  0  0  0  0  0  0  0
   -7.8250    1.7164    1.1099 N   0  0  0  0  0  4  0  0  0  0  0  0
   -9.0381    1.6953    0.8589 O   0  0  0  0  0  0  0  0  0  0  0  0
   -7.3029    2.3889    2.0081 O   0  0  0  0  0  1  0  0  0  0  0  0
   -7.4987    0.1028   -0.7468 C   0  0  0  0  0  0  0  0  0  0  0  0
   -6.6611   -0.6888   -1.5329 C   0  0  0  0  0  0  0  0  0  0  0  0
   -5.2862   -0.7007   -1.2942 C   0  0  0  0  0  0  0  0  0  0  0  0
   -4.5244   -1.4790   -2.0780 F   0  0  0  0  0  0  0  0  0  0  0  0
   -2.9079   -1.2477   -1.5073 H   0  0  0  0  0  0  0  0  0  0  0  0
   -1.0724   -2.2663   -2.3694 H   0  0  0  0  0  0  0  0  0  0  0  0
    1.3574   -2.6362   -2.3727 H   0  0  0  0  0  0  0  0  0  0  0  0
   -0.6232    0.4854    0.9370 H   0  0  0  0  0  0  0  0  0  0  0  0
    5.0137   -0.1916    2.3964 H   0  0  0  0  0  0  0  0  0  0  0  0
    3.7899    0.9652    2.8508 H   0  0  0  0  0  0  0  0  0  0  0  0
    4.5082    2.5874    1.3012 H   0  0  0  0  0  0  0  0  0  0  0  0
    5.9957    1.9081    1.9372 H   0  0  0  0  0  0  0  0  0  0  0  0
    6.2824    2.1723   -0.4190 H   0  0  0  0  0  0  0  0  0  0  0  0
    4.7108    1.5112   -0.7938 H   0  0  0  0  0  0  0  0  0  0  0  0
    6.4524   -0.0435   -1.4213 H   0  0  0  0  0  0  0  0  0  0  0  0
    7.1673   -0.0250    0.1742 H   0  0  0  0  0  0  0  0  0  0  0  0
    5.7049   -1.6004    0.9893 H   0  0  0  0  0  0  0  0  0  0  0  0
    5.5725   -2.0030   -0.7001 H   0  0  0  0  0  0  0  0  0  0  0  0
   -5.1349    1.4749    1.3174 H   0  0  0  0  0  0  0  0  0  0  0  0
   -8.5697    0.1026   -0.9439 H   0  0  0  0  0  0  0  0  0  0  0  0
   -7.0717   -1.2992   -2.3333 H   0  0  0  0  0  0  0  0  0  0  0  0
  1  2  2  0
  2  3  1  0
  3  4  1  0
  4  5  2  0
  5  6  1  0
  6  7  2  0
  7  8  1  0
  8  9  2  0
  9 10  1  0
 10 11  1  0
 11 12  2  0
 11 13  1  0
 13 14  2  0
 10 15  1  0
 15 16  1  0
 16 17  1  0
 17 18  1  0
 18 19  1  0
  2 20  1  0
 20 21  2  0
 21 22  1  0
 22 23  1  0
 23 24  2  0
 23 25  1  0
 22 26  2  0
 26 27  1  0
 27 28  2  0
 28 29  1  0
 14  4  1  0
 28 20  1  0
 13  7  1  0
 19  9  1  0
  3 30  1  0
  5 31  1  0
  6 32  1  0
 14 33  1  0
 15 34  1  0
 15 35  1  0
 16 36  1  0
 16 37  1  0
 17 38  1  0
 17 39  1  0
 18 40  1  0
 18 41  1  0
 19 42  1  0
 19 43  1  0
 21 44  1  0
 26 45  1  0
 27 46  1  0
M  CHG  2  23   1  25  -1
M  END
$$$$
