
     RDKit          3D

 37 39  0  0  0  0  0  0  0  0999 V2000
   -1.6510   -1.6692    1.5153 O   0  0  0  0  0  0  0  0  0  0  0  0
   -1.1406   -0.6615    1.0425 C   0  0  0  0  0  0  0  0  0  0  0  0
    0.2849   -0.2555    1.3802 C   0  0  0  0  0  0  0  0  0  0  0  0
    1.1529   -1.4830    1.6691 C   0  0  0  0  0  0  0  0  0  0  0  0
    2.6036   -0.9996    2.6735 S   0  0  0  0  0  0  0  0  0  0  0  0
    3.6069   -0.2520    1.4093 C   0  0  0  0  0  0  0  0  0  0  0  0
    4.5658    0.6942    1.7891 C   0  0  0  0  0  0  0  0  0  0  0  0
    5.4214    1.2544    0.8392 C   0  0  0  0  0  0  0  0  0  0  0  0
    5.3349    0.8596   -0.4935 C   0  0  0  0  0  0  0  0  0  0  0  0
    4.3893   -0.0914   -0.8790 C   0  0  0  0  0  0  0  0  0  0  0  0
    3.5159   -0.6385    0.0667 C   0  0  0  0  0  0  0  0  0  0  0  0
    2.5943   -1.5987   -0.3709 N   0  0  0  0  0  0  0  0  0  0  0  0
    1.5697   -2.1381    0.3574 C   0  0  0  0  0  0  0  0  0  0  0  0
    0.9270   -3.0665   -0.1375 O   0  0  0  0  0  0  0  0  0  0  0  0
   -1.7667    0.2678    0.2288 N   0  0  0  0  0  0  0  0  0  0  0  0
   -3.0809    0.2306   -0.3118 C   0  0  0  0  0  0  0  0  0  0  0  0
   -3.9208   -0.8745   -0.1126 C   0  0  0  0  0  0  0  0  0  0  0  0
   -5.2145   -0.9161   -0.6470 C   0  0  0  0  0  0  0  0  0  0  0  0
   -5.7022    0.1467   -1.3974 C   0  0  0  0  0  0  0  0  0  0  0  0
   -4.8942    1.2581   -1.6191 C   0  0  0  0  0  0  0  0  0  0  0  0
   -3.5909    1.3039   -1.0834 C   0  0  0  0  0  0  0  0  0  0  0  0
   -2.7924    2.5114   -1.3602 N   0  0  0  0  0  4  0  0  0  0  0  0
   -3.3374    3.4419   -1.9708 O   0  0  0  0  0  0  0  0  0  0  0  0
   -1.6132    2.5377   -0.9711 O   0  0  0  0  0  1  0  0  0  0  0  0
    0.2065    0.3929    2.2623 H   0  0  0  0  0  0  0  0  0  0  0  0
    0.7000    0.3417    0.5596 H   0  0  0  0  0  0  0  0  0  0  0  0
    0.6192   -2.2318    2.2637 H   0  0  0  0  0  0  0  0  0  0  0  0
    4.6610    0.9954    2.8303 H   0  0  0  0  0  0  0  0  0  0  0  0
    6.1628    1.9895    1.1432 H   0  0  0  0  0  0  0  0  0  0  0  0
    6.0078    1.2888   -1.2322 H   0  0  0  0  0  0  0  0  0  0  0  0
    4.3396   -0.3907   -1.9229 H   0  0  0  0  0  0  0  0  0  0  0  0
    2.7046   -2.0004   -1.2941 H   0  0  0  0  0  0  0  0  0  0  0  0
   -1.2244    1.1005   -0.0053 H   0  0  0  0  0  0  0  0  0  0  0  0
   -3.5995   -1.7435    0.4552 H   0  0  0  0  0  0  0  0  0  0  0  0
   -5.8377   -1.7915   -0.4726 H   0  0  0  0  0  0  0  0  0  0  0  0
   -6.7079    0.1078   -1.8097 H   0  0  0  0  0  0  0  0  0  0  0  0
   -5.2937    2.0794   -2.2119 H   0  0  0  0  0  0  0  0  0  0  0  0
  1  2  2  0
  2  3  1  0
  3  4  1  0
  4  5  1  0
  5  6  1  0
  6  7  2  0
  7  8  1  0
  8  9  2  0
  9 10  1  0
 10 11  2  0
 11 12  1  0
 12 13  1  0
 13 14  2  0
  2 15  1  0
 15 16  1  0
 16 17  2  0
 17 18  1  0
 18 19  2  0
 19 20  1  0
 20 21  2  0
 21 22  1  0
 22 23  2  0
 22 24  1  0
 13  4  1  0
 21 16  1  0
 11  6  1  0
  3 25  1  0
  3 26  1  0
  4 27  1  0
  7 28  1  0
  8 29  1  0
  9 30  1  0
 10 31  1  0
 12 32  1  0
 15 33  1  0
 17 34  1  0
 18 35  1  0
 19 36  1  0
 20 37  1  0
M  CHG  2  22   1  24  -1
M  END
$$$$
