
     RDKit          3D

 67 69  0  0  0  0  0  0  0  0999 V2000
   -0.1169   -0.1021   -3.5011 C   0  0  0  0  0  0  0  0  0  0  0  0
   -0.2811   -0.2372   -1.9903 C   0  0  0  0  0  0  0  0  0  0  0  0
   -1.6593    0.0491   -1.6009 N   0  0  0  0  0  0  0  0  0  0  0  0
   -2.6677   -0.8748   -1.7343 C   0  0  0  0  0  0  0  0  0  0  0  0
   -2.4820   -2.0001   -2.1836 O   0  0  0  0  0  0  0  0  0  0  0  0
   -4.0252   -0.4562   -1.2829 C   0  0  0  0  0  0  0  0  0  0  0  0
   -4.4141    0.8838   -1.2071 C   0  0  0  0  0  0  0  0  0  0  0  0
   -5.7063    1.2240   -0.7820 C   0  0  0  0  0  0  0  0  0  0  0  0
   -6.6449    0.2404   -0.4286 C   0  0  0  0  0  0  0  0  0  0  0  0
   -8.0709    0.5814    0.0395 C   0  0  0  0  0  0  0  0  0  0  0  0
   -8.3507    2.0987    0.1383 C   0  0  0  0  0  0  0  0  0  0  0  0
   -8.3189   -0.0172    1.4415 C   0  0  0  0  0  0  0  0  0  0  0  0
   -9.0949   -0.0081   -0.9545 C   0  0  0  0  0  0  0  0  0  0  0  0
   -6.2373   -1.1040   -0.5286 C   0  0  0  0  0  0  0  0  0  0  0  0
   -4.9491   -1.4490   -0.9517 C   0  0  0  0  0  0  0  0  0  0  0  0
    0.6285    0.7772   -1.2657 C   0  0  0  0  0  0  0  0  0  0  0  0
    0.1551    1.8497   -0.8703 O   0  0  0  0  0  0  0  0  0  0  0  0
    1.9719    0.4727   -1.1102 N   0  0  0  0  0  0  0  0  0  0  0  0
    2.8382    1.4592   -0.4564 C   0  0  0  0  0  0  0  0  0  0  0  0
    4.0941    0.8289    0.1719 C   0  0  0  0  0  0  0  0  0  0  0  0
    4.8903    0.0718   -0.8034 N   0  0  0  0  0  0  0  0  0  0  0  0
    6.0123   -0.6529   -0.2083 C   0  0  0  0  0  0  0  0  0  0  0  0
    5.6225   -1.7712    0.7223 C   0  0  0  0  0  0  0  0  0  0  0  0
    5.9687   -1.9109    2.0125 C   0  0  0  0  0  0  0  0  0  0  0  0
    6.8017   -0.9661    2.7549 C   0  0  0  0  0  0  0  0  0  0  0  0
    8.1914   -1.1244    2.7775 C   0  0  0  0  0  0  0  0  0  0  0  0
    8.9897   -0.2168    3.4757 C   0  0  0  0  0  0  0  0  0  0  0  0
    8.4027    0.8521    4.1525 C   0  0  0  0  0  0  0  0  0  0  0  0
    7.0175    1.0132    4.1344 C   0  0  0  0  0  0  0  0  0  0  0  0
    6.2173    0.1064    3.4366 C   0  0  0  0  0  0  0  0  0  0  0  0
    4.0876   -0.6958   -1.7640 C   0  0  0  0  0  0  0  0  0  0  0  0
    2.5917   -0.8231   -1.4117 C   0  0  0  0  0  0  0  0  0  0  0  0
   -0.4596    0.8816   -3.8451 H   0  0  0  0  0  0  0  0  0  0  0  0
   -0.7069   -0.8582   -4.0301 H   0  0  0  0  0  0  0  0  0  0  0  0
    0.9265   -0.2080   -3.8132 H   0  0  0  0  0  0  0  0  0  0  0  0
   -0.0489   -1.2528   -1.6566 H   0  0  0  0  0  0  0  0  0  0  0  0
   -1.8036    0.9244   -1.1098 H   0  0  0  0  0  0  0  0  0  0  0  0
   -3.7408    1.6851   -1.4973 H   0  0  0  0  0  0  0  0  0  0  0  0
   -5.9546    2.2817   -0.7451 H   0  0  0  0  0  0  0  0  0  0  0  0
   -7.6751    2.5880    0.8499 H   0  0  0  0  0  0  0  0  0  0  0  0
   -8.2408    2.5942   -0.8338 H   0  0  0  0  0  0  0  0  0  0  0  0
   -9.3750    2.2903    0.4811 H   0  0  0  0  0  0  0  0  0  0  0  0
   -8.2592   -1.1109    1.4419 H   0  0  0  0  0  0  0  0  0  0  0  0
   -7.5831    0.3540    2.1647 H   0  0  0  0  0  0  0  0  0  0  0  0
   -9.3149    0.2478    1.8148 H   0  0  0  0  0  0  0  0  0  0  0  0
   -8.9472    0.4009   -1.9608 H   0  0  0  0  0  0  0  0  0  0  0  0
   -9.0211   -1.0983   -1.0292 H   0  0  0  0  0  0  0  0  0  0  0  0
  -10.1214    0.2256   -0.6487 H   0  0  0  0  0  0  0  0  0  0  0  0
   -6.9230   -1.9115   -0.2801 H   0  0  0  0  0  0  0  0  0  0  0  0
   -4.6711   -2.4990   -1.0206 H   0  0  0  0  0  0  0  0  0  0  0  0
    3.1234    2.1903   -1.2226 H   0  0  0  0  0  0  0  0  0  0  0  0
    2.2735    1.9945    0.3155 H   0  0  0  0  0  0  0  0  0  0  0  0
    3.7668    0.1806    0.9948 H   0  0  0  0  0  0  0  0  0  0  0  0
    4.7082    1.6259    0.6066 H   0  0  0  0  0  0  0  0  0  0  0  0
    6.6266   -1.0791   -1.0121 H   0  0  0  0  0  0  0  0  0  0  0  0
    6.6677    0.0723    0.2874 H   0  0  0  0  0  0  0  0  0  0  0  0
    5.0116   -2.5575    0.2863 H   0  0  0  0  0  0  0  0  0  0  0  0
    5.6288   -2.7736    2.5795 H   0  0  0  0  0  0  0  0  0  0  0  0
    8.6592   -1.9526    2.2504 H   0  0  0  0  0  0  0  0  0  0  0  0
   10.0692   -0.3435    3.4900 H   0  0  0  0  0  0  0  0  0  0  0  0
    9.0249    1.5584    4.6958 H   0  0  0  0  0  0  0  0  0  0  0  0
    6.5603    1.8462    4.6620 H   0  0  0  0  0  0  0  0  0  0  0  0
    5.1386    0.2421    3.4262 H   0  0  0  0  0  0  0  0  0  0  0  0
    4.4995   -1.6968   -1.9426 H   0  0  0  0  0  0  0  0  0  0  0  0
    4.1609   -0.1693   -2.7247 H   0  0  0  0  0  0  0  0  0  0  0  0
    2.0727   -1.3214   -2.2325 H   0  0  0  0  0  0  0  0  0  0  0  0
    2.4662   -1.4504   -0.5206 H   0  0  0  0  0  0  0  0  0  0  0  0
  1  2  1  0
  2  3  1  0
  3  4  1  0
  4  5  2  0
  4  6  1  0
  6  7  2  0
  7  8  1  0
  8  9  2  0
  9 10  1  0
 10 11  1  0
 10 12  1  0
 10 13  1  0
  9 14  1  0
 14 15  2  0
  2 16  1  0
 16 17  2  0
 16 18  1  0
 18 19  1  0
 19 20  1  0
 20 21  1  0
 21 22  1  0
 22 23  1  0
 23 24  2  3
 24 25  1  0
 25 26  2  0
 26 27  1  0
 27 28  2  0
 28 29  1  0
 29 30  2  0
 21 31  1  0
 31 32  1  0
 15  6  1  0
 32 18  1  0
 30 25  1  0
  1 33  1  0
  1 34  1  0
  1 35  1  0
  2 36  1  0
  3 37  1  0
  7 38  1  0
  8 39  1  0
 11 40  1  0
 11 41  1  0
 11 42  1  0
 12 43  1  0
 12 44  1  0
 12 45  1  0
 13 46  1  0
 13 47  1  0
 13 48  1  0
 14 49  1  0
 15 50  1  0
 19 51  1  0
 19 52  1  0
 20 53  1  0
 20 54  1  0
 22 55  1  0
 22 56  1  0
 23 57  1  0
 24 58  1  0
 26 59  1  0
 27 60  1  0
 28 61  1  0
 29 62  1  0
 30 63  1  0
 31 64  1  0
 31 65  1  0
 32 66  1  0
 32 67  1  0
M  END
$$$$
