
     RDKit          3D

 45 47  0  0  0  0  0  0  0  0999 V2000
    6.9840   -1.2689    1.3564 C   0  0  0  0  0  0  0  0  0  0  0  0
    6.3458   -0.4018    0.4300 O   0  0  0  0  0  0  0  0  0  0  0  0
    4.9742   -0.3529    0.4479 C   0  0  0  0  0  0  0  0  0  0  0  0
    4.1660   -1.1221    1.2881 C   0  0  0  0  0  0  0  0  0  0  0  0
    2.7723   -1.0066    1.2364 C   0  0  0  0  0  0  0  0  0  0  0  0
    2.1667   -0.1188    0.3499 C   0  0  0  0  0  0  0  0  0  0  0  0
    0.7692    0.0378    0.2324 N   0  0  0  0  0  0  0  0  0  0  0  0
   -0.2046   -0.4480    1.0782 C   0  0  0  0  0  0  0  0  0  0  0  0
    0.0111   -0.9844    2.1614 O   0  0  0  0  0  0  0  0  0  0  0  0
   -1.5065   -0.2596    0.6098 N   0  0  0  0  0  0  0  0  0  0  0  0
   -1.8590    0.0577   -0.7774 C   0  0  0  0  0  0  0  0  0  0  0  0
   -3.2098   -0.5241   -1.1668 C   0  0  0  0  0  0  0  0  0  0  0  0
   -4.3165   -0.0028   -0.2471 C   0  0  0  0  0  0  0  0  0  0  0  0
   -3.8456    0.2437    1.1905 C   0  0  0  0  0  0  0  0  0  0  0  0
   -2.6112   -0.5851    1.5128 C   0  0  0  0  0  0  0  0  0  0  0  0
   -5.3831   -0.9714   -0.2463 O   0  0  0  0  0  0  0  0  0  0  0  0
   -6.5725   -0.2097   -0.4488 C   0  0  0  0  0  0  0  0  0  0  0  0
   -6.1046    0.9309   -1.3075 C   0  0  0  0  0  0  0  0  0  0  0  0
   -4.8191    1.2436   -0.7710 O   0  0  0  0  0  0  0  0  0  0  0  0
    2.9750    0.6472   -0.5020 C   0  0  0  0  0  0  0  0  0  0  0  0
    4.3722    0.5411   -0.4580 C   0  0  0  0  0  0  0  0  0  0  0  0
    5.2310    1.2576   -1.2558 O   0  0  0  0  0  0  0  0  0  0  0  0
    4.6713    2.2144   -2.1424 C   0  0  0  0  0  0  0  0  0  0  0  0
    6.7545   -0.9840    2.3885 H   0  0  0  0  0  0  0  0  0  0  0  0
    8.0649   -1.1693    1.2175 H   0  0  0  0  0  0  0  0  0  0  0  0
    6.7200   -2.3142    1.1651 H   0  0  0  0  0  0  0  0  0  0  0  0
    4.5837   -1.8282    1.9979 H   0  0  0  0  0  0  0  0  0  0  0  0
    2.1862   -1.6354    1.9003 H   0  0  0  0  0  0  0  0  0  0  0  0
    0.4560    0.7324   -0.4257 H   0  0  0  0  0  0  0  0  0  0  0  0
   -1.0911   -0.3345   -1.4526 H   0  0  0  0  0  0  0  0  0  0  0  0
   -1.8644    1.1498   -0.8709 H   0  0  0  0  0  0  0  0  0  0  0  0
   -3.4281   -0.2732   -2.2118 H   0  0  0  0  0  0  0  0  0  0  0  0
   -3.1601   -1.6196   -1.1125 H   0  0  0  0  0  0  0  0  0  0  0  0
   -3.6041    1.3055    1.3308 H   0  0  0  0  0  0  0  0  0  0  0  0
   -4.6412    0.0035    1.9056 H   0  0  0  0  0  0  0  0  0  0  0  0
   -2.3079   -0.4033    2.5500 H   0  0  0  0  0  0  0  0  0  0  0  0
   -2.8185   -1.6575    1.4156 H   0  0  0  0  0  0  0  0  0  0  0  0
   -7.3474   -0.8191   -0.9199 H   0  0  0  0  0  0  0  0  0  0  0  0
   -6.9271    0.1378    0.5276 H   0  0  0  0  0  0  0  0  0  0  0  0
   -6.7624    1.8025   -1.2693 H   0  0  0  0  0  0  0  0  0  0  0  0
   -5.9714    0.6224   -2.3500 H   0  0  0  0  0  0  0  0  0  0  0  0
    2.4989    1.3275   -1.1984 H   0  0  0  0  0  0  0  0  0  0  0  0
    4.1200    2.9866   -1.5957 H   0  0  0  0  0  0  0  0  0  0  0  0
    4.0380    1.7321   -2.8941 H   0  0  0  0  0  0  0  0  0  0  0  0
    5.4955    2.7053   -2.6689 H   0  0  0  0  0  0  0  0  0  0  0  0
  1  2  1  0
  2  3  1  0
  3  4  2  0
  4  5  1  0
  5  6  2  0
  6  7  1  0
  7  8  1  0
  8  9  2  0
  8 10  1  0
 10 11  1  0
 11 12  1  0
 12 13  1  0
 13 14  1  0
 14 15  1  0
 13 16  1  0
 16 17  1  0
 17 18  1  0
 18 19  1  0
  6 20  1  0
 20 21  2  0
 21 22  1  0
 22 23  1  0
 21  3  1  0
 15 10  1  0
 19 13  1  0
  1 24  1  0
  1 25  1  0
  1 26  1  0
  4 27  1  0
  5 28  1  0
  7 29  1  0
 11 30  1  0
 11 31  1  0
 12 32  1  0
 12 33  1  0
 14 34  1  0
 14 35  1  0
 15 36  1  0
 15 37  1  0
 17 38  1  0
 17 39  1  0
 18 40  1  0
 18 41  1  0
 20 42  1  0
 23 43  1  0
 23 44  1  0
 23 45  1  0
M  END
$$$$
