
     RDKit          3D

 42 44  0  0  0  0  0  0  0  0999 V2000
    7.8573   -2.1515   -0.8195 C   0  0  0  0  0  0  0  0  0  0  0  0
    7.2569   -1.2098   -1.6998 O   0  0  0  0  0  0  0  0  0  0  0  0
    5.9867   -0.8020   -1.4015 C   0  0  0  0  0  0  0  0  0  0  0  0
    5.4536    0.1381   -2.2875 C   0  0  0  0  0  0  0  0  0  0  0  0
    4.1635    0.6408   -2.1026 C   0  0  0  0  0  0  0  0  0  0  0  0
    3.3869    0.1941   -1.0294 C   0  0  0  0  0  0  0  0  0  0  0  0
    2.0115    0.7478   -0.8646 C   0  0  0  0  0  0  0  0  0  0  0  0
    1.8213    1.9121   -1.1904 O   0  0  0  0  0  0  0  0  0  0  0  0
    1.0820   -0.1637   -0.3927 N   0  0  0  0  0  0  0  0  0  0  0  0
   -0.2545    0.0866   -0.1017 C   0  0  0  0  0  0  0  0  0  0  0  0
   -0.8975    1.6633   -0.1432 S   0  0  0  0  0  0  0  0  0  0  0  0
   -2.4445    1.1324    0.3182 C   0  0  0  0  0  0  0  0  0  0  0  0
   -2.4917   -0.2352    0.5036 C   0  0  0  0  0  0  0  0  0  0  0  0
   -1.2139   -0.8384    0.2745 C   0  0  0  0  0  0  0  0  0  0  0  0
   -0.9387   -2.2371    0.4130 C   0  0  0  0  0  0  0  0  0  0  0  0
   -0.6844   -3.3640    0.5198 N   0  0  0  0  0  0  0  0  0  0  0  0
   -3.7675   -0.8989    0.9202 C   0  0  0  0  0  0  0  0  0  0  0  0
   -4.9759   -0.0065    0.5902 C   0  0  0  0  0  0  0  0  0  0  0  0
   -4.7686    1.3905    1.0116 N   0  0  0  0  0  0  0  0  0  0  0  0
   -5.7828    2.2040    1.5023 C   0  0  0  0  0  0  0  0  0  0  0  0
   -7.0469    1.5312    1.9721 C   0  0  0  0  0  0  0  0  0  0  0  0
   -5.6728    3.4283    1.5715 O   0  0  0  0  0  0  0  0  0  0  0  0
   -3.5895    2.0873    0.4716 C   0  0  0  0  0  0  0  0  0  0  0  0
    3.9236   -0.7344   -0.1281 C   0  0  0  0  0  0  0  0  0  0  0  0
    5.2189   -1.2330   -0.3182 C   0  0  0  0  0  0  0  0  0  0  0  0
    7.9601   -1.7386    0.1894 H   0  0  0  0  0  0  0  0  0  0  0  0
    7.2974   -3.0924   -0.8071 H   0  0  0  0  0  0  0  0  0  0  0  0
    8.8622   -2.3669   -1.1951 H   0  0  0  0  0  0  0  0  0  0  0  0
    6.0506    0.4867   -3.1273 H   0  0  0  0  0  0  0  0  0  0  0  0
    3.7681    1.3790   -2.7976 H   0  0  0  0  0  0  0  0  0  0  0  0
    1.3798   -1.1297   -0.3266 H   0  0  0  0  0  0  0  0  0  0  0  0
   -3.8849   -1.8694    0.4261 H   0  0  0  0  0  0  0  0  0  0  0  0
   -3.7290   -1.0750    2.0023 H   0  0  0  0  0  0  0  0  0  0  0  0
   -5.1522    0.0152   -0.4929 H   0  0  0  0  0  0  0  0  0  0  0  0
   -5.8683   -0.4375    1.0495 H   0  0  0  0  0  0  0  0  0  0  0  0
   -7.5848    1.1048    1.1216 H   0  0  0  0  0  0  0  0  0  0  0  0
   -7.6939    2.2728    2.4510 H   0  0  0  0  0  0  0  0  0  0  0  0
   -6.8156    0.7605    2.7121 H   0  0  0  0  0  0  0  0  0  0  0  0
   -3.8707    2.5034   -0.5032 H   0  0  0  0  0  0  0  0  0  0  0  0
   -3.3170    2.9133    1.1384 H   0  0  0  0  0  0  0  0  0  0  0  0
    3.3635   -1.0597    0.7447 H   0  0  0  0  0  0  0  0  0  0  0  0
    5.6019   -1.9484    0.4026 H   0  0  0  0  0  0  0  0  0  0  0  0
  1  2  1  0
  2  3  1  0
  3  4  2  0
  4  5  1  0
  5  6  2  0
  6  7  1  0
  7  8  2  0
  7  9  1  0
  9 10  1  0
 10 11  1  0
 11 12  1  0
 12 13  2  0
 13 14  1  0
 14 15  1  0
 15 16  3  0
 13 17  1  0
 17 18  1  0
 18 19  1  0
 19 20  1  0
 20 21  1  0
 20 22  2  0
 19 23  1  0
  6 24  1  0
 24 25  2  0
 25  3  1  0
 14 10  2  0
 23 12  1  0
  1 26  1  0
  1 27  1  0
  1 28  1  0
  4 29  1  0
  5 30  1  0
  9 31  1  0
 17 32  1  0
 17 33  1  0
 18 34  1  0
 18 35  1  0
 21 36  1  0
 21 37  1  0
 21 38  1  0
 23 39  1  0
 23 40  1  0
 24 41  1  0
 25 42  1  0
M  END
$$$$
