
     RDKit          3D

 30 31  0  0  0  0  0  0  0  0999 V2000
    0.8781    1.1373    1.0979 O   0  0  0  0  0  0  0  0  0  0  0  0
    0.8033    0.3478    0.1620 C   0  0  0  0  0  0  0  0  0  0  0  0
   -0.4846    0.0280   -0.6038 C   0  0  0  0  0  0  0  0  0  0  0  0
   -1.5861    0.7570   -0.0865 O   0  0  0  0  0  0  0  0  0  0  0  0
   -2.8127    0.5743   -0.6678 C   0  0  0  0  0  0  0  0  0  0  0  0
   -3.0603   -0.2817   -1.7468 C   0  0  0  0  0  0  0  0  0  0  0  0
   -4.3516   -0.4006   -2.2730 C   0  0  0  0  0  0  0  0  0  0  0  0
   -5.4001    0.3342   -1.7244 C   0  0  0  0  0  0  0  0  0  0  0  0
   -6.9832    0.1802   -2.3789 Cl  0  0  0  0  0  0  0  0  0  0  0  0
   -5.1742    1.1899   -0.6524 C   0  0  0  0  0  0  0  0  0  0  0  0
   -3.8848    1.3081   -0.1277 C   0  0  0  0  0  0  0  0  0  0  0  0
   -3.6558    2.3857    1.2062 Cl  0  0  0  0  0  0  0  0  0  0  0  0
    1.9043   -0.3532   -0.2945 N   0  0  0  0  0  0  0  0  0  0  0  0
    3.2338   -0.0649    0.2270 C   0  0  0  0  0  0  0  0  0  0  0  0
    3.4488   -0.5833    1.6468 C   0  0  0  0  0  0  0  0  0  0  0  0
    4.9455   -0.5652    1.9008 C   0  0  0  0  0  0  0  0  0  0  0  0
    5.6690   -1.2437    0.3808 S   0  0  0  0  0  0  0  0  0  0  0  0
    4.2908   -0.7736   -0.6057 C   0  0  0  0  0  0  0  0  0  0  0  0
    4.2090   -0.9985   -1.8054 O   0  0  0  0  0  0  0  0  0  0  0  0
   -0.6636   -1.0493   -0.5036 H   0  0  0  0  0  0  0  0  0  0  0  0
   -0.3141    0.2971   -1.6532 H   0  0  0  0  0  0  0  0  0  0  0  0
   -2.2749   -0.8730   -2.2060 H   0  0  0  0  0  0  0  0  0  0  0  0
   -4.5316   -1.0691   -3.1119 H   0  0  0  0  0  0  0  0  0  0  0  0
   -5.9932    1.7623   -0.2259 H   0  0  0  0  0  0  0  0  0  0  0  0
    1.8633   -0.7739   -1.2190 H   0  0  0  0  0  0  0  0  0  0  0  0
    3.4126    1.0155    0.1673 H   0  0  0  0  0  0  0  0  0  0  0  0
    3.0588   -1.6053    1.7511 H   0  0  0  0  0  0  0  0  0  0  0  0
    2.9240    0.0300    2.3868 H   0  0  0  0  0  0  0  0  0  0  0  0
    5.2206   -1.1693    2.7694 H   0  0  0  0  0  0  0  0  0  0  0  0
    5.3088    0.4569    2.0467 H   0  0  0  0  0  0  0  0  0  0  0  0
  1  2  2  0
  2  3  1  0
  3  4  1  0
  4  5  1  0
  5  6  2  0
  6  7  1  0
  7  8  2  0
  8  9  1  0
  8 10  1  0
 10 11  2  0
 11 12  1  0
  2 13  1  0
 13 14  1  0
 14 15  1  0
 15 16  1  0
 16 17  1  0
 17 18  1  0
 18 19  2  0
 11  5  1  0
 18 14  1  0
  3 20  1  0
  3 21  1  0
  6 22  1  0
  7 23  1  0
 10 24  1  0
 13 25  1  0
 14 26  1  0
 15 27  1  0
 15 28  1  0
 16 29  1  0
 16 30  1  0
M  END
$$$$
