
     RDKit          3D

 42 44  0  0  0  0  0  0  0  0999 V2000
   -2.4805    0.9689   -4.3426 C   0  0  0  0  0  0  0  0  0  0  0  0
   -3.5182    0.3828   -3.5634 O   0  0  0  0  0  0  0  0  0  0  0  0
   -3.1999    0.0523   -2.2691 C   0  0  0  0  0  0  0  0  0  0  0  0
   -1.9128   -0.0035   -1.7349 C   0  0  0  0  0  0  0  0  0  0  0  0
   -1.7237   -0.3324   -0.3839 C   0  0  0  0  0  0  0  0  0  0  0  0
   -0.3833   -0.4220    0.2211 C   0  0  0  0  0  0  0  0  0  0  0  0
    0.6021    0.5001    0.1781 C   0  0  0  0  0  0  0  0  0  0  0  0
    0.4363    1.7614   -0.4720 C   0  0  0  0  0  0  0  0  0  0  0  0
    0.3520    2.7646   -1.0507 N   0  0  0  0  0  0  0  0  0  0  0  0
    1.7981    0.2015    0.9043 C   0  0  0  0  0  0  0  0  0  0  0  0
    1.8937   -0.3776    2.0902 N   0  0  0  0  0  0  0  0  0  0  0  0
    3.2262   -0.4085    2.4022 C   0  0  0  0  0  0  0  0  0  0  0  0
    3.8584   -0.8837    3.5601 C   0  0  0  0  0  0  0  0  0  0  0  0
    5.2518   -0.7995    3.6507 C   0  0  0  0  0  0  0  0  0  0  0  0
    6.0002   -0.2567    2.6063 C   0  0  0  0  0  0  0  0  0  0  0  0
    5.3854    0.2213    1.4429 C   0  0  0  0  0  0  0  0  0  0  0  0
    3.9887    0.1288    1.3729 C   0  0  0  0  0  0  0  0  0  0  0  0
    3.0637    0.4775    0.4098 N   0  0  0  0  0  0  0  0  0  0  0  0
    3.4173    0.9862   -0.8982 C   0  0  0  0  0  0  0  0  0  0  0  0
   -2.8346   -0.6478    0.4177 C   0  0  0  0  0  0  0  0  0  0  0  0
   -4.1292   -0.6140   -0.1066 C   0  0  0  0  0  0  0  0  0  0  0  0
   -5.2708   -0.9021    0.5927 O   0  0  0  0  0  0  0  0  0  0  0  0
   -5.1393   -1.1902    1.9772 C   0  0  0  0  0  0  0  0  0  0  0  0
   -4.2936   -0.2636   -1.4510 C   0  0  0  0  0  0  0  0  0  0  0  0
   -5.5561   -0.2205   -1.9934 O   0  0  0  0  0  0  0  0  0  0  0  0
   -2.9219    1.3077   -5.2849 H   0  0  0  0  0  0  0  0  0  0  0  0
   -1.7086    0.2302   -4.5817 H   0  0  0  0  0  0  0  0  0  0  0  0
   -2.0510    1.8437   -3.8421 H   0  0  0  0  0  0  0  0  0  0  0  0
   -1.0498    0.1942   -2.3598 H   0  0  0  0  0  0  0  0  0  0  0  0
   -0.2223   -1.3399    0.7899 H   0  0  0  0  0  0  0  0  0  0  0  0
    3.2686   -1.2972    4.3711 H   0  0  0  0  0  0  0  0  0  0  0  0
    5.7535   -1.1570    4.5470 H   0  0  0  0  0  0  0  0  0  0  0  0
    7.0825   -0.1980    2.7004 H   0  0  0  0  0  0  0  0  0  0  0  0
    5.9767    0.6510    0.6423 H   0  0  0  0  0  0  0  0  0  0  0  0
    2.7023    0.6277   -1.6416 H   0  0  0  0  0  0  0  0  0  0  0  0
    4.4072    0.6181   -1.1776 H   0  0  0  0  0  0  0  0  0  0  0  0
    3.4251    2.0764   -0.8480 H   0  0  0  0  0  0  0  0  0  0  0  0
   -2.6638   -0.9160    1.4563 H   0  0  0  0  0  0  0  0  0  0  0  0
   -6.1412   -1.3734    2.3778 H   0  0  0  0  0  0  0  0  0  0  0  0
   -4.7145   -0.3386    2.5181 H   0  0  0  0  0  0  0  0  0  0  0  0
   -4.5469   -2.0974    2.1372 H   0  0  0  0  0  0  0  0  0  0  0  0
   -5.4277    0.0449   -2.9232 H   0  0  0  0  0  0  0  0  0  0  0  0
  1  2  1  0
  2  3  1  0
  3  4  2  0
  4  5  1  0
  5  6  1  0
  6  7  2  3
  7  8  1  0
  8  9  3  0
  7 10  1  0
 10 11  2  0
 11 12  1  0
 12 13  2  0
 13 14  1  0
 14 15  2  0
 15 16  1  0
 16 17  2  0
 17 18  1  0
 18 19  1  0
  5 20  2  0
 20 21  1  0
 21 22  1  0
 22 23  1  0
 21 24  2  0
 24 25  1  0
 24  3  1  0
 18 10  1  0
 17 12  1  0
  1 26  1  0
  1 27  1  0
  1 28  1  0
  4 29  1  0
  6 30  1  0
 13 31  1  0
 14 32  1  0
 15 33  1  0
 16 34  1  0
 19 35  1  0
 19 36  1  0
 19 37  1  0
 20 38  1  0
 23 39  1  0
 23 40  1  0
 23 41  1  0
 25 42  1  0
M  END
$$$$
