
     RDKit          3D

 52 54  0  0  0  0  0  0  0  0999 V2000
    7.6334    1.5546    0.7256 C   0  0  0  0  0  0  0  0  0  0  0  0
    6.5524    2.5695    1.0484 C   0  0  0  0  0  0  0  0  0  0  0  0
    5.2549    2.0009    0.8145 O   0  0  0  0  0  0  0  0  0  0  0  0
    4.7122    1.3036    1.8500 C   0  0  0  0  0  0  0  0  0  0  0  0
    5.2646    1.1571    2.9309 O   0  0  0  0  0  0  0  0  0  0  0  0
    3.4662    0.7688    1.5396 N   0  0  0  0  0  0  0  0  0  0  0  0
    3.0167    0.6733    0.1536 C   0  0  0  0  0  0  0  0  0  0  0  0
    1.4991    0.6085    0.0440 C   0  0  0  0  0  0  0  0  0  0  0  0
    0.9418   -0.5036    0.9297 C   0  0  0  0  0  0  0  0  0  0  0  0
   -0.5096   -0.5518    0.8327 N   0  0  0  0  0  0  0  0  0  0  0  0
   -1.2081   -1.7246    1.0084 C   0  0  0  0  0  0  0  0  0  0  0  0
   -0.6520   -2.8063    1.1853 O   0  0  0  0  0  0  0  0  0  0  0  0
   -2.7326   -1.5824    1.0806 C   0  0  0  0  0  0  0  0  0  0  0  0
   -3.3166   -0.7173    0.0454 N   0  0  0  0  0  0  0  0  0  0  0  0
   -3.2884    0.6564    0.2420 C   0  0  0  0  0  0  0  0  0  0  0  0
   -2.7714    1.1632    1.2432 O   0  0  0  0  0  0  0  0  0  0  0  0
   -3.8049    1.5460   -0.8659 C   0  0  0  0  0  0  0  0  0  0  0  0
   -5.3112    1.6892   -0.8207 C   0  0  0  0  0  0  0  0  0  0  0  0
   -6.2666    0.1370   -0.8009 S   0  0  0  0  0  0  0  0  0  0  0  0
   -5.1415   -0.9759   -1.6346 C   0  0  0  0  0  0  0  0  0  0  0  0
   -5.6321   -1.6130   -2.7843 C   0  0  0  0  0  0  0  0  0  0  0  0
   -4.8884   -2.6043   -3.4241 C   0  0  0  0  0  0  0  0  0  0  0  0
   -3.6584   -2.9860   -2.9039 C   0  0  0  0  0  0  0  0  0  0  0  0
   -3.1631   -2.3675   -1.7504 C   0  0  0  0  0  0  0  0  0  0  0  0
   -3.8829   -1.3435   -1.1126 C   0  0  0  0  0  0  0  0  0  0  0  0
    1.3842   -0.2908    2.3770 C   0  0  0  0  0  0  0  0  0  0  0  0
    2.9009   -0.1933    2.4779 C   0  0  0  0  0  0  0  0  0  0  0  0
    7.4984    1.1439   -0.2829 H   0  0  0  0  0  0  0  0  0  0  0  0
    8.6229    2.0151    0.7917 H   0  0  0  0  0  0  0  0  0  0  0  0
    7.5945    0.7091    1.4230 H   0  0  0  0  0  0  0  0  0  0  0  0
    6.6513    2.9424    2.0711 H   0  0  0  0  0  0  0  0  0  0  0  0
    6.6476    3.4338    0.3834 H   0  0  0  0  0  0  0  0  0  0  0  0
    3.3799    1.5231   -0.4322 H   0  0  0  0  0  0  0  0  0  0  0  0
    3.4696   -0.2308   -0.2692 H   0  0  0  0  0  0  0  0  0  0  0  0
    1.2109    0.4394   -1.0000 H   0  0  0  0  0  0  0  0  0  0  0  0
    1.0685    1.5724    0.3372 H   0  0  0  0  0  0  0  0  0  0  0  0
    1.3358   -1.4644    0.5776 H   0  0  0  0  0  0  0  0  0  0  0  0
   -1.0196    0.2989    1.0806 H   0  0  0  0  0  0  0  0  0  0  0  0
   -3.1838   -2.5821    1.0184 H   0  0  0  0  0  0  0  0  0  0  0  0
   -2.9797   -1.1801    2.0688 H   0  0  0  0  0  0  0  0  0  0  0  0
   -3.3436    2.5377   -0.7418 H   0  0  0  0  0  0  0  0  0  0  0  0
   -3.4522    1.1899   -1.8414 H   0  0  0  0  0  0  0  0  0  0  0  0
   -5.6009    2.2471    0.0771 H   0  0  0  0  0  0  0  0  0  0  0  0
   -5.6415    2.2776   -1.6824 H   0  0  0  0  0  0  0  0  0  0  0  0
   -6.6090   -1.3513   -3.1823 H   0  0  0  0  0  0  0  0  0  0  0  0
   -5.2795   -3.0909   -4.3198 H   0  0  0  0  0  0  0  0  0  0  0  0
   -3.0785   -3.7638   -3.3963 H   0  0  0  0  0  0  0  0  0  0  0  0
   -2.1853   -2.6744   -1.3888 H   0  0  0  0  0  0  0  0  0  0  0  0
    0.9364    0.6307    2.7650 H   0  0  0  0  0  0  0  0  0  0  0  0
    1.0220   -1.1065    3.0126 H   0  0  0  0  0  0  0  0  0  0  0  0
    3.3599   -1.1643    2.2668 H   0  0  0  0  0  0  0  0  0  0  0  0
    3.1772    0.0798    3.4998 H   0  0  0  0  0  0  0  0  0  0  0  0
  1  2  1  0
  2  3  1  0
  3  4  1  0
  4  5  2  0
  4  6  1  0
  6  7  1  0
  7  8  1  0
  8  9  1  0
  9 10  1  0
 10 11  1  0
 11 12  2  0
 11 13  1  0
 13 14  1  0
 14 15  1  0
 15 16  2  0
 15 17  1  0
 17 18  1  0
 18 19  1  0
 19 20  1  0
 20 21  2  0
 21 22  1  0
 22 23  2  0
 23 24  1  0
 24 25  2  0
  9 26  1  0
 26 27  1  0
 27  6  1  0
 25 14  1  0
 25 20  1  0
  1 28  1  0
  1 29  1  0
  1 30  1  0
  2 31  1  0
  2 32  1  0
  7 33  1  0
  7 34  1  0
  8 35  1  0
  8 36  1  0
  9 37  1  0
 10 38  1  0
 13 39  1  0
 13 40  1  0
 17 41  1  0
 17 42  1  0
 18 43  1  0
 18 44  1  0
 21 45  1  0
 22 46  1  0
 23 47  1  0
 24 48  1  0
 26 49  1  0
 26 50  1  0
 27 51  1  0
 27 52  1  0
M  END
$$$$
