
     RDKit          3D

 46 48  0  0  0  0  0  0  0  0999 V2000
   -6.1906    1.5228   -1.2546 C   0  0  0  0  0  0  0  0  0  0  0  0
   -5.8055    1.1837    0.0692 O   0  0  0  0  0  0  0  0  0  0  0  0
   -4.4779    0.9204    0.3013 C   0  0  0  0  0  0  0  0  0  0  0  0
   -3.4859    0.9277   -0.6854 C   0  0  0  0  0  0  0  0  0  0  0  0
   -2.1545    0.6353   -0.3593 C   0  0  0  0  0  0  0  0  0  0  0  0
   -1.7996    0.3531    0.9645 C   0  0  0  0  0  0  0  0  0  0  0  0
   -2.7942    0.3557    1.9557 C   0  0  0  0  0  0  0  0  0  0  0  0
   -4.1293    0.6286    1.6345 C   0  0  0  0  0  0  0  0  0  0  0  0
   -5.1586    0.6434    2.5435 O   0  0  0  0  0  0  0  0  0  0  0  0
   -4.8475    0.3613    3.9000 C   0  0  0  0  0  0  0  0  0  0  0  0
   -0.3585    0.1135    1.3537 C   0  0  0  0  0  0  0  0  0  0  0  0
    0.5675   -0.2303    0.2565 N   0  0  0  0  0  0  0  0  0  0  0  0
    1.9274   -0.5026    0.5296 C   0  0  0  0  0  0  0  0  0  0  0  0
    2.6695   -0.1734    2.0076 S   0  0  0  0  0  0  0  0  0  0  0  0
    2.5660   -1.1409   -0.5340 N   0  0  0  0  0  0  0  0  0  0  0  0
    3.9646   -1.2862   -0.7114 C   0  0  0  0  0  0  0  0  0  0  0  0
    4.4365   -2.5933   -0.9080 C   0  0  0  0  0  0  0  0  0  0  0  0
    5.7975   -2.8424   -1.0667 C   0  0  0  0  0  0  0  0  0  0  0  0
    6.6964   -1.7823   -1.0482 C   0  0  0  0  0  0  0  0  0  0  0  0
    6.2316   -0.4713   -0.9060 C   0  0  0  0  0  0  0  0  0  0  0  0
    7.4195    0.7889   -0.9252 Cl  0  0  0  0  0  0  0  0  0  0  0  0
    4.8559   -0.1937   -0.7711 C   0  0  0  0  0  0  0  0  0  0  0  0
    4.3830    1.2373   -0.7511 C   0  0  0  0  0  0  0  0  0  0  0  0
   -0.0199   -0.4001   -1.0825 C   0  0  0  0  0  0  0  0  0  0  0  0
   -1.0772    0.6529   -1.4052 C   0  0  0  0  0  0  0  0  0  0  0  0
   -6.0040    0.6934   -1.9446 H   0  0  0  0  0  0  0  0  0  0  0  0
   -5.6917    2.4380   -1.5900 H   0  0  0  0  0  0  0  0  0  0  0  0
   -7.2679    1.7148   -1.2509 H   0  0  0  0  0  0  0  0  0  0  0  0
   -3.7248    1.1561   -1.7188 H   0  0  0  0  0  0  0  0  0  0  0  0
   -2.4972    0.1469    2.9789 H   0  0  0  0  0  0  0  0  0  0  0  0
   -5.7775    0.4134    4.4742 H   0  0  0  0  0  0  0  0  0  0  0  0
   -4.4451   -0.6509    4.0112 H   0  0  0  0  0  0  0  0  0  0  0  0
   -4.1613    1.1087    4.3116 H   0  0  0  0  0  0  0  0  0  0  0  0
   -0.3205   -0.7122    2.0750 H   0  0  0  0  0  0  0  0  0  0  0  0
    0.0127    1.0235    1.8397 H   0  0  0  0  0  0  0  0  0  0  0  0
    2.0258   -1.9446   -0.8310 H   0  0  0  0  0  0  0  0  0  0  0  0
    3.7521   -3.4382   -0.8974 H   0  0  0  0  0  0  0  0  0  0  0  0
    6.1570   -3.8607   -1.1893 H   0  0  0  0  0  0  0  0  0  0  0  0
    7.7601   -1.9792   -1.1570 H   0  0  0  0  0  0  0  0  0  0  0  0
    4.6392    1.7134    0.2001 H   0  0  0  0  0  0  0  0  0  0  0  0
    4.8437    1.8033   -1.5684 H   0  0  0  0  0  0  0  0  0  0  0  0
    3.3054    1.3281   -0.9115 H   0  0  0  0  0  0  0  0  0  0  0  0
   -0.4530   -1.4080   -1.1123 H   0  0  0  0  0  0  0  0  0  0  0  0
    0.7556   -0.3503   -1.8532 H   0  0  0  0  0  0  0  0  0  0  0  0
   -0.6269    1.6524   -1.4311 H   0  0  0  0  0  0  0  0  0  0  0  0
   -1.4983    0.4439   -2.3952 H   0  0  0  0  0  0  0  0  0  0  0  0
  1  2  1  0
  2  3  1  0
  3  4  2  0
  4  5  1  0
  5  6  2  0
  6  7  1  0
  7  8  2  0
  8  9  1  0
  9 10  1  0
  6 11  1  0
 11 12  1  0
 12 13  1  0
 13 14  2  0
 13 15  1  0
 15 16  1  0
 16 17  2  0
 17 18  1  0
 18 19  2  0
 19 20  1  0
 20 21  1  0
 20 22  2  0
 22 23  1  0
 12 24  1  0
 24 25  1  0
  8  3  1  0
 22 16  1  0
 25  5  1  0
  1 26  1  0
  1 27  1  0
  1 28  1  0
  4 29  1  0
  7 30  1  0
 10 31  1  0
 10 32  1  0
 10 33  1  0
 11 34  1  0
 11 35  1  0
 15 36  1  0
 17 37  1  0
 18 38  1  0
 19 39  1  0
 23 40  1  0
 23 41  1  0
 23 42  1  0
 24 43  1  0
 24 44  1  0
 25 45  1  0
 25 46  1  0
M  END
$$$$
