
     RDKit          3D

 51 54  0  0  0  0  0  0  0  0999 V2000
   -1.3722    3.6349    3.1693 O   0  0  0  0  0  0  0  0  0  0  0  0
   -1.0270    2.8659    2.2723 C   0  0  0  0  0  0  0  0  0  0  0  0
    0.3719    2.7843    1.8358 C   0  0  0  0  0  0  0  0  0  0  0  0
    1.1703    1.6243    1.6461 C   0  0  0  0  0  0  0  0  0  0  0  0
    2.3922    2.1020    1.2395 C   0  0  0  0  0  0  0  0  0  0  0  0
    3.6814    1.4750    0.8679 C   0  0  0  0  0  0  0  0  0  0  0  0
    3.3625    0.3571    0.0366 O   0  0  0  0  0  0  0  0  0  0  0  0
    4.4098   -0.3733   -0.4522 C   0  0  0  0  0  0  0  0  0  0  0  0
    5.7626   -0.1527   -0.1881 C   0  0  0  0  0  0  0  0  0  0  0  0
    6.7322   -0.9802   -0.7609 C   0  0  0  0  0  0  0  0  0  0  0  0
    6.3546   -2.0325   -1.5962 C   0  0  0  0  0  0  0  0  0  0  0  0
    4.9989   -2.2743   -1.8659 C   0  0  0  0  0  0  0  0  0  0  0  0
    4.5916   -3.3996   -2.7852 C   0  0  0  0  0  0  0  0  0  0  0  0
    3.2697   -3.7190   -2.6999 F   0  0  0  0  0  0  0  0  0  0  0  0
    4.8218   -3.1067   -4.0952 F   0  0  0  0  0  0  0  0  0  0  0  0
    5.2681   -4.5559   -2.5355 F   0  0  0  0  0  0  0  0  0  0  0  0
    4.0359   -1.4314   -1.2897 C   0  0  0  0  0  0  0  0  0  0  0  0
    2.3463    3.4599    1.2056 O   0  0  0  0  0  0  0  0  0  0  0  0
    1.0917    3.8918    1.5897 N   0  0  0  0  0  0  0  0  0  0  0  0
   -1.9527    2.0073    1.6560 N   0  0  0  0  0  0  0  0  0  0  0  0
   -1.7341    1.3744    0.3528 C   0  0  0  0  0  0  0  0  0  0  0  0
   -3.0019    1.3403   -0.4997 C   0  0  0  0  0  0  0  0  0  0  0  0
   -4.2037    0.6982    0.2228 C   0  0  0  0  0  0  0  0  0  0  0  0
   -4.5147   -0.6977   -0.2903 C   0  0  0  0  0  0  0  0  0  0  0  0
   -3.6117   -1.7601   -0.1590 C   0  0  0  0  0  0  0  0  0  0  0  0
   -3.9613   -3.0066   -0.6618 C   0  0  0  0  0  0  0  0  0  0  0  0
   -5.1305   -3.2665   -1.2812 N   0  0  0  0  0  0  0  0  0  0  0  0
   -5.9913   -2.2329   -1.4002 C   0  0  0  0  0  0  0  0  0  0  0  0
   -5.7343   -0.9527   -0.9275 C   0  0  0  0  0  0  0  0  0  0  0  0
   -4.0557    0.7241    1.7561 C   0  0  0  0  0  0  0  0  0  0  0  0
   -3.3048    1.9708    2.2062 C   0  0  0  0  0  0  0  0  0  0  0  0
    0.8924    0.5905    1.7893 H   0  0  0  0  0  0  0  0  0  0  0  0
    4.3056    2.1932    0.3198 H   0  0  0  0  0  0  0  0  0  0  0  0
    4.1947    1.1411    1.7791 H   0  0  0  0  0  0  0  0  0  0  0  0
    6.1017    0.6509    0.4572 H   0  0  0  0  0  0  0  0  0  0  0  0
    7.7861   -0.8021   -0.5562 H   0  0  0  0  0  0  0  0  0  0  0  0
    7.1222   -2.6665   -2.0379 H   0  0  0  0  0  0  0  0  0  0  0  0
    2.9782   -1.5967   -1.4950 H   0  0  0  0  0  0  0  0  0  0  0  0
   -1.3721    0.3596    0.5418 H   0  0  0  0  0  0  0  0  0  0  0  0
   -0.9589    1.9125   -0.1991 H   0  0  0  0  0  0  0  0  0  0  0  0
   -2.7977    0.8525   -1.4626 H   0  0  0  0  0  0  0  0  0  0  0  0
   -3.2672    2.3819   -0.7386 H   0  0  0  0  0  0  0  0  0  0  0  0
   -5.0691    1.3328   -0.0208 H   0  0  0  0  0  0  0  0  0  0  0  0
   -2.6506   -1.6377    0.3264 H   0  0  0  0  0  0  0  0  0  0  0  0
   -3.2858   -3.8548   -0.5760 H   0  0  0  0  0  0  0  0  0  0  0  0
   -6.9256   -2.4655   -1.9028 H   0  0  0  0  0  0  0  0  0  0  0  0
   -6.4794   -0.1732   -1.0635 H   0  0  0  0  0  0  0  0  0  0  0  0
   -5.0479    0.6937    2.2229 H   0  0  0  0  0  0  0  0  0  0  0  0
   -3.5172   -0.1613    2.1203 H   0  0  0  0  0  0  0  0  0  0  0  0
   -3.8247    2.8802    1.8769 H   0  0  0  0  0  0  0  0  0  0  0  0
   -3.2505    2.0008    3.3019 H   0  0  0  0  0  0  0  0  0  0  0  0
  1  2  2  0
  2  3  1  0
  3  4  1  0
  4  5  2  0
  5  6  1  0
  6  7  1  0
  7  8  1  0
  8  9  2  0
  9 10  1  0
 10 11  2  0
 11 12  1  0
 12 13  1  0
 13 14  1  0
 13 15  1  0
 13 16  1  0
 12 17  2  0
  5 18  1  0
 18 19  1  0
  2 20  1  0
 20 21  1  0
 21 22  1  0
 22 23  1  0
 23 24  1  0
 24 25  2  0
 25 26  1  0
 26 27  2  0
 27 28  1  0
 28 29  2  0
 23 30  1  0
 30 31  1  0
 19  3  2  0
 31 20  1  0
 17  8  1  0
 29 24  1  0
  4 32  1  0
  6 33  1  0
  6 34  1  0
  9 35  1  0
 10 36  1  0
 11 37  1  0
 17 38  1  0
 21 39  1  0
 21 40  1  0
 22 41  1  0
 22 42  1  0
 23 43  1  0
 25 44  1  0
 26 45  1  0
 28 46  1  0
 29 47  1  0
 30 48  1  0
 30 49  1  0
 31 50  1  0
 31 51  1  0
M  END
$$$$
