
     RDKit          3D

 37 39  0  0  0  0  0  0  0  0999 V2000
    0.4761   -2.4468   -2.6876 C   0  0  0  0  0  0  0  0  0  0  0  0
   -0.8771   -2.2272   -3.0769 O   0  0  0  0  0  0  0  0  0  0  0  0
   -1.5029   -1.1338   -2.4858 C   0  0  0  0  0  0  0  0  0  0  0  0
   -2.6894   -0.7531   -3.1280 C   0  0  0  0  0  0  0  0  0  0  0  0
   -3.4342    0.3266   -2.6704 C   0  0  0  0  0  0  0  0  0  0  0  0
   -3.0004    1.0602   -1.5657 C   0  0  0  0  0  0  0  0  0  0  0  0
   -3.7704    2.1135   -1.1253 O   0  0  0  0  0  0  0  0  0  0  0  0
   -3.4043    3.3053   -1.8231 C   0  0  0  0  0  0  0  0  0  0  0  0
   -1.8369    0.6567   -0.8881 C   0  0  0  0  0  0  0  0  0  0  0  0
   -1.1059    1.3321    0.5119 S   0  0  0  0  0  0  0  0  0  0  0  0
    0.1440    0.1400    0.4781 C   0  0  0  0  0  0  0  0  0  0  0  0
    1.1698    0.0913    1.3909 N   0  0  0  0  0  0  0  0  0  0  0  0
    2.1168   -1.0222    1.2108 C   0  0  0  0  0  0  0  0  0  0  0  0
    3.4166   -0.7491    1.9673 C   0  0  0  0  0  0  0  0  0  0  0  0
    3.1525   -0.4526    3.4373 C   0  0  0  0  0  0  0  0  0  0  0  0
    2.1560    0.6923    3.5712 C   0  0  0  0  0  0  0  0  0  0  0  0
    0.8691    0.4104    2.7956 C   0  0  0  0  0  0  0  0  0  0  0  0
    0.0425   -0.6907   -0.5360 N   0  0  0  0  0  0  0  0  0  0  0  0
   -1.0748   -0.4296   -1.3236 C   0  0  0  0  0  0  0  0  0  0  0  0
    0.5254   -2.8714   -1.6819 H   0  0  0  0  0  0  0  0  0  0  0  0
    1.0773   -1.5376   -2.7916 H   0  0  0  0  0  0  0  0  0  0  0  0
    0.8972   -3.1903   -3.3730 H   0  0  0  0  0  0  0  0  0  0  0  0
   -3.0253   -1.3126   -3.9985 H   0  0  0  0  0  0  0  0  0  0  0  0
   -4.3572    0.5993   -3.1738 H   0  0  0  0  0  0  0  0  0  0  0  0
   -3.6933    3.2425   -2.8776 H   0  0  0  0  0  0  0  0  0  0  0  0
   -3.9489    4.1376   -1.3694 H   0  0  0  0  0  0  0  0  0  0  0  0
   -2.3328    3.5157   -1.7334 H   0  0  0  0  0  0  0  0  0  0  0  0
    2.3764   -1.1536    0.1531 H   0  0  0  0  0  0  0  0  0  0  0  0
    1.6642   -1.9591    1.5627 H   0  0  0  0  0  0  0  0  0  0  0  0
    4.0870   -1.6124    1.8791 H   0  0  0  0  0  0  0  0  0  0  0  0
    3.9291    0.1078    1.5109 H   0  0  0  0  0  0  0  0  0  0  0  0
    2.7586   -1.3487    3.9322 H   0  0  0  0  0  0  0  0  0  0  0  0
    4.0925   -0.1897    3.9385 H   0  0  0  0  0  0  0  0  0  0  0  0
    2.6137    1.6158    3.1932 H   0  0  0  0  0  0  0  0  0  0  0  0
    1.9222    0.8595    4.6294 H   0  0  0  0  0  0  0  0  0  0  0  0
    0.2389    1.3013    2.8916 H   0  0  0  0  0  0  0  0  0  0  0  0
    0.3282   -0.4276    3.2562 H   0  0  0  0  0  0  0  0  0  0  0  0
  1  2  1  0
  2  3  1  0
  3  4  2  0
  4  5  1  0
  5  6  2  0
  6  7  1  0
  7  8  1  0
  6  9  1  0
  9 10  1  0
 10 11  1  0
 11 12  1  0
 12 13  1  0
 13 14  1  0
 14 15  1  0
 15 16  1  0
 16 17  1  0
 11 18  2  0
 18 19  1  0
 19  3  1  0
 19  9  2  0
 17 12  1  0
  1 20  1  0
  1 21  1  0
  1 22  1  0
  4 23  1  0
  5 24  1  0
  8 25  1  0
  8 26  1  0
  8 27  1  0
 13 28  1  0
 13 29  1  0
 14 30  1  0
 14 31  1  0
 15 32  1  0
 15 33  1  0
 16 34  1  0
 16 35  1  0
 17 36  1  0
 17 37  1  0
M  END
$$$$
