
     RDKit          3D

 43 46  0  0  0  0  0  0  0  0999 V2000
   -5.6430   -0.0043   -3.3326 N   0  0  0  0  0  0  0  0  0  0  0  0
   -4.4978   -0.1523   -3.2220 C   0  0  0  0  0  0  0  0  0  0  0  0
   -3.0553   -0.3424   -3.0529 C   0  0  0  0  0  0  0  0  0  0  0  0
   -2.6083    0.2293   -1.7162 C   0  0  0  0  0  0  0  0  0  0  0  0
   -1.2017   -0.0204   -1.4688 N   0  0  0  0  0  0  0  0  0  0  0  0
   -0.6693   -0.7815   -0.4729 C   0  0  0  0  0  0  0  0  0  0  0  0
    0.6973   -0.6734   -0.6020 C   0  0  0  0  0  0  0  0  0  0  0  0
    1.6896   -1.2655    0.2427 C   0  0  0  0  0  0  0  0  0  0  0  0
    1.6716   -1.4884    1.5751 C   0  0  0  0  0  0  0  0  0  0  0  0
    2.8020   -2.1265    2.1728 C   0  0  0  0  0  0  0  0  0  0  0  0
    3.7238   -2.6590    2.6351 N   0  0  0  0  0  0  0  0  0  0  0  0
    0.5968   -1.0582    2.4134 C   0  0  0  0  0  0  0  0  0  0  0  0
    0.0823    0.1562    2.4666 N   0  0  0  0  0  0  0  0  0  0  0  0
   -0.9556    0.2200    3.3792 C   0  0  0  0  0  0  0  0  0  0  0  0
   -1.7230    1.3636    3.6780 C   0  0  0  0  0  0  0  0  0  0  0  0
   -2.7504    1.2834    4.6236 C   0  0  0  0  0  0  0  0  0  0  0  0
   -3.0189    0.0816    5.2710 C   0  0  0  0  0  0  0  0  0  0  0  0
   -2.2706   -1.0663    4.9914 C   0  0  0  0  0  0  0  0  0  0  0  0
   -1.2419   -0.9731    4.0394 C   0  0  0  0  0  0  0  0  0  0  0  0
   -0.1632   -2.1906    3.4859 S   0  0  0  0  0  0  0  0  0  0  0  0
    0.8935    0.1270   -1.7707 C   0  0  0  0  0  0  0  0  0  0  0  0
    2.1424    0.5439   -2.3990 C   0  0  0  0  0  0  0  0  0  0  0  0
    2.4354    1.9098   -2.5268 C   0  0  0  0  0  0  0  0  0  0  0  0
    3.6284    2.3204   -3.1246 C   0  0  0  0  0  0  0  0  0  0  0  0
    4.5197    1.3652   -3.5992 C   0  0  0  0  0  0  0  0  0  0  0  0
    5.6636    1.7584   -4.1741 F   0  0  0  0  0  0  0  0  0  0  0  0
    4.2399    0.0071   -3.4922 C   0  0  0  0  0  0  0  0  0  0  0  0
    3.0473   -0.4063   -2.8943 C   0  0  0  0  0  0  0  0  0  0  0  0
   -0.2839    0.5254   -2.2799 N   0  0  0  0  0  0  0  0  0  0  0  0
   -2.5210    0.1426   -3.8782 H   0  0  0  0  0  0  0  0  0  0  0  0
   -2.8152   -1.4110   -3.1067 H   0  0  0  0  0  0  0  0  0  0  0  0
   -3.1765   -0.2111   -0.8878 H   0  0  0  0  0  0  0  0  0  0  0  0
   -2.7537    1.3157   -1.6746 H   0  0  0  0  0  0  0  0  0  0  0  0
   -1.2982   -1.2936    0.2418 H   0  0  0  0  0  0  0  0  0  0  0  0
    2.5969   -1.5679   -0.2818 H   0  0  0  0  0  0  0  0  0  0  0  0
   -1.5081    2.3001    3.1724 H   0  0  0  0  0  0  0  0  0  0  0  0
   -3.3394    2.1683    4.8541 H   0  0  0  0  0  0  0  0  0  0  0  0
   -3.8195    0.0332    6.0068 H   0  0  0  0  0  0  0  0  0  0  0  0
   -2.4802   -2.0026    5.5001 H   0  0  0  0  0  0  0  0  0  0  0  0
    1.7311    2.6549   -2.1619 H   0  0  0  0  0  0  0  0  0  0  0  0
    3.8634    3.3749   -3.2260 H   0  0  0  0  0  0  0  0  0  0  0  0
    4.9473   -0.7182   -3.8817 H   0  0  0  0  0  0  0  0  0  0  0  0
    2.8225   -1.4683   -2.8352 H   0  0  0  0  0  0  0  0  0  0  0  0
  1  2  3  0
  2  3  1  0
  3  4  1  0
  4  5  1  0
  5  6  1  0
  6  7  2  0
  7  8  1  0
  8  9  2  3
  9 10  1  0
 10 11  3  0
  9 12  1  0
 12 13  2  0
 13 14  1  0
 14 15  2  0
 15 16  1  0
 16 17  2  0
 17 18  1  0
 18 19  2  0
 19 20  1  0
  7 21  1  0
 21 22  1  0
 22 23  2  0
 23 24  1  0
 24 25  2  0
 25 26  1  0
 25 27  1  0
 27 28  2  0
 21 29  2  0
 29  5  1  0
 20 12  1  0
 28 22  1  0
 19 14  1  0
  3 30  1  0
  3 31  1  0
  4 32  1  0
  4 33  1  0
  6 34  1  0
  8 35  1  0
 15 36  1  0
 16 37  1  0
 17 38  1  0
 18 39  1  0
 23 40  1  0
 24 41  1  0
 27 42  1  0
 28 43  1  0
M  END
$$$$
