
     RDKit          3D

 45 47  0  0  0  0  0  0  0  0999 V2000
    3.0346   -0.9361   -2.5417 C   0  0  0  0  0  0  0  0  0  0  0  0
    3.2329    0.4030   -1.8973 C   0  0  0  0  0  0  0  0  0  0  0  0
    3.1186    1.5665   -2.6552 C   0  0  0  0  0  0  0  0  0  0  0  0
    3.3040    2.7970   -2.0304 C   0  0  0  0  0  0  0  0  0  0  0  0
    3.5917    2.8319   -0.6719 C   0  0  0  0  0  0  0  0  0  0  0  0
    3.6818    1.6249   -0.0043 C   0  0  0  0  0  0  0  0  0  0  0  0
    3.9245    1.5257    1.3777 N   0  0  0  0  0  0  0  0  0  0  0  0
    2.6864    2.0536    2.3901 S   0  0  0  0  0  6  0  0  0  0  0  0
    2.4151    3.4511    2.1219 O   0  0  0  0  0  0  0  0  0  0  0  0
    3.0266    1.6091    3.7261 O   0  0  0  0  0  0  0  0  0  0  0  0
    1.2771    1.1047    1.8618 C   0  0  0  0  0  0  0  0  0  0  0  0
    1.1219   -0.2045    2.3213 C   0  0  0  0  0  0  0  0  0  0  0  0
    0.0147   -0.9499    1.9116 C   0  0  0  0  0  0  0  0  0  0  0  0
   -0.9462   -0.3955    1.0502 C   0  0  0  0  0  0  0  0  0  0  0  0
   -2.1403   -1.2294    0.6180 C   0  0  0  0  0  0  0  0  0  0  0  0
   -2.2741   -1.3249   -0.9089 C   0  0  0  0  0  0  0  0  0  0  0  0
   -3.3761   -2.3069   -1.3181 C   0  0  0  0  0  0  0  0  0  0  0  0
   -4.5221   -2.3978   -0.3087 C   0  0  0  0  0  0  0  0  0  0  0  0
   -4.7020   -1.0993    0.4651 C   0  0  0  0  0  0  0  0  0  0  0  0
   -3.4485   -0.7268    1.2627 C   0  0  0  0  0  0  0  0  0  0  0  0
   -0.7830    0.9316    0.6194 C   0  0  0  0  0  0  0  0  0  0  0  0
    0.3206    1.6838    1.0258 C   0  0  0  0  0  0  0  0  0  0  0  0
    3.5202    0.4188   -0.5743 N   0  0  0  0  0  0  0  0  0  0  0  0
    2.0363   -0.9989   -2.9860 H   0  0  0  0  0  0  0  0  0  0  0  0
    3.7869   -1.0946   -3.3207 H   0  0  0  0  0  0  0  0  0  0  0  0
    3.1304   -1.7405   -1.8053 H   0  0  0  0  0  0  0  0  0  0  0  0
    2.8894    1.5196   -3.7155 H   0  0  0  0  0  0  0  0  0  0  0  0
    3.2227    3.7204   -2.5970 H   0  0  0  0  0  0  0  0  0  0  0  0
    3.7401    3.7738   -0.1558 H   0  0  0  0  0  0  0  0  0  0  0  0
    4.2083    0.5789    1.6192 H   0  0  0  0  0  0  0  0  0  0  0  0
    1.8515   -0.6499    2.9934 H   0  0  0  0  0  0  0  0  0  0  0  0
   -0.0938   -1.9708    2.2729 H   0  0  0  0  0  0  0  0  0  0  0  0
   -1.9757   -2.2557    0.9779 H   0  0  0  0  0  0  0  0  0  0  0  0
   -1.3260   -1.6339   -1.3668 H   0  0  0  0  0  0  0  0  0  0  0  0
   -2.5092   -0.3386   -1.3296 H   0  0  0  0  0  0  0  0  0  0  0  0
   -2.9489   -3.3077   -1.4549 H   0  0  0  0  0  0  0  0  0  0  0  0
   -3.7673   -2.0061   -2.2974 H   0  0  0  0  0  0  0  0  0  0  0  0
   -4.3198   -3.2118    0.3988 H   0  0  0  0  0  0  0  0  0  0  0  0
   -5.4495   -2.6621   -0.8291 H   0  0  0  0  0  0  0  0  0  0  0  0
   -5.5586   -1.1773    1.1442 H   0  0  0  0  0  0  0  0  0  0  0  0
   -4.9355   -0.2914   -0.2399 H   0  0  0  0  0  0  0  0  0  0  0  0
   -3.4440    0.3615    1.4008 H   0  0  0  0  0  0  0  0  0  0  0  0
   -3.5207   -1.1507    2.2731 H   0  0  0  0  0  0  0  0  0  0  0  0
   -1.5206    1.3943   -0.0329 H   0  0  0  0  0  0  0  0  0  0  0  0
    0.4260    2.7107    0.6840 H   0  0  0  0  0  0  0  0  0  0  0  0
  1  2  1  0
  2  3  2  0
  3  4  1  0
  4  5  2  0
  5  6  1  0
  6  7  1  0
  7  8  1  0
  8  9  2  0
  8 10  2  0
  8 11  1  0
 11 12  2  0
 12 13  1  0
 13 14  2  0
 14 15  1  0
 15 16  1  0
 16 17  1  0
 17 18  1  0
 18 19  1  0
 19 20  1  0
 14 21  1  0
 21 22  2  0
  6 23  2  0
 23  2  1  0
 22 11  1  0
 20 15  1  0
  1 24  1  0
  1 25  1  0
  1 26  1  0
  3 27  1  0
  4 28  1  0
  5 29  1  0
  7 30  1  0
 12 31  1  0
 13 32  1  0
 15 33  1  0
 16 34  1  0
 16 35  1  0
 17 36  1  0
 17 37  1  0
 18 38  1  0
 18 39  1  0
 19 40  1  0
 19 41  1  0
 20 42  1  0
 20 43  1  0
 21 44  1  0
 22 45  1  0
M  END
$$$$
