
     RDKit          3D

 66 70  0  0  0  0  0  0  0  0999 V2000
    1.6217    0.6802   -0.1647 C   0  0  0  0  0  0  0  0  0  0  0  0
    2.3608   -0.0458   -1.2260 C   0  0  0  0  0  0  0  0  0  0  0  0
    2.3738    0.2157   -2.5858 C   0  0  0  0  0  0  0  0  0  0  0  0
    1.6027    1.2274   -3.3917 C   0  0  0  0  0  0  0  0  0  0  0  0
    0.4880    0.5955   -4.2359 C   0  0  0  0  0  0  0  0  0  0  0  0
   -0.7547    0.4578   -3.5201 O   0  0  0  0  0  0  0  0  0  0  0  0
   -0.9475   -0.6901   -2.8178 C   0  0  0  0  0  0  0  0  0  0  0  0
   -0.0657   -1.4830   -2.5116 O   0  0  0  0  0  0  0  0  0  0  0  0
   -2.4060   -0.8544   -2.4519 C   0  0  0  0  0  0  0  0  0  0  0  0
   -2.7959   -0.3244   -1.0597 C   0  0  0  0  0  0  0  0  0  0  0  0
   -2.5431    1.1978   -0.9362 C   0  0  0  0  0  0  0  0  0  0  0  0
   -2.9794    1.7114    0.4461 C   0  0  0  0  0  0  0  0  0  0  0  0
   -2.1890    0.9716    1.5363 C   0  0  0  0  0  0  0  0  0  0  0  0
   -2.4576   -0.5386    1.4480 C   0  0  0  0  0  0  0  0  0  0  0  0
   -3.9599   -0.7985    1.6383 C   0  0  0  0  0  0  0  0  0  0  0  0
   -4.7736   -0.0686    0.5462 C   0  0  0  0  0  0  0  0  0  0  0  0
   -6.2701   -0.3311    0.7378 C   0  0  0  0  0  0  0  0  0  0  0  0
   -4.4806    1.4456    0.6368 C   0  0  0  0  0  0  0  0  0  0  0  0
   -4.3130   -0.5789   -0.8392 C   0  0  0  0  0  0  0  0  0  0  0  0
   -2.0243   -1.0552    0.0659 C   0  0  0  0  0  0  0  0  0  0  0  0
    3.4691   -0.8525   -3.3761 S   0  0  0  0  0  0  0  0  0  0  0  0
    3.7741   -1.7010   -1.9297 C   0  0  0  0  0  0  0  0  0  0  0  0
    3.1493   -1.1499   -0.9030 N   0  0  0  0  0  4  0  0  0  0  0  0
    3.2581   -1.7505    0.4329 C   0  0  0  0  0  0  0  0  0  0  0  0
    4.1674   -0.9273    1.3203 C   0  0  0  0  0  0  0  0  0  0  0  0
    3.6702   -0.3498    2.5027 C   0  0  0  0  0  0  0  0  0  0  0  0
    4.5022    0.4079    3.3337 C   0  0  0  0  0  0  0  0  0  0  0  0
    5.8479    0.5827    2.9925 C   0  0  0  0  0  0  0  0  0  0  0  0
    6.7246    1.3784    3.8612 N   0  0  0  0  0  4  0  0  0  0  0  0
    6.1886    2.0437    4.7578 O   0  0  0  0  0  0  0  0  0  0  0  0
    7.9412    1.3380    3.6347 O   0  0  0  0  0  1  0  0  0  0  0  0
    6.3640    0.0004    1.8287 C   0  0  0  0  0  0  0  0  0  0  0  0
    5.5256   -0.7520    0.9995 C   0  0  0  0  0  0  0  0  0  0  0  0
    0.8372    1.3136   -0.5867 H   0  0  0  0  0  0  0  0  0  0  0  0
    2.3017    1.3321    0.3915 H   0  0  0  0  0  0  0  0  0  0  0  0
    1.1334    0.0004    0.5358 H   0  0  0  0  0  0  0  0  0  0  0  0
    1.1813    1.9941   -2.7326 H   0  0  0  0  0  0  0  0  0  0  0  0
    2.3079    1.7372   -4.0612 H   0  0  0  0  0  0  0  0  0  0  0  0
    0.2636    1.2734   -5.0675 H   0  0  0  0  0  0  0  0  0  0  0  0
    0.7744   -0.3621   -4.6866 H   0  0  0  0  0  0  0  0  0  0  0  0
   -2.6315   -1.9261   -2.5305 H   0  0  0  0  0  0  0  0  0  0  0  0
   -3.0118   -0.3749   -3.2320 H   0  0  0  0  0  0  0  0  0  0  0  0
   -3.0905    1.7369   -1.7199 H   0  0  0  0  0  0  0  0  0  0  0  0
   -1.4816    1.4263   -1.0812 H   0  0  0  0  0  0  0  0  0  0  0  0
   -2.7845    2.7875    0.5166 H   0  0  0  0  0  0  0  0  0  0  0  0
   -1.1166    1.1702    1.4225 H   0  0  0  0  0  0  0  0  0  0  0  0
   -2.4771    1.3454    2.5267 H   0  0  0  0  0  0  0  0  0  0  0  0
   -1.8922   -1.0595    2.2288 H   0  0  0  0  0  0  0  0  0  0  0  0
   -4.2695   -0.4571    2.6346 H   0  0  0  0  0  0  0  0  0  0  0  0
   -4.1552   -1.8779    1.6010 H   0  0  0  0  0  0  0  0  0  0  0  0
   -6.6134    0.0324    1.7129 H   0  0  0  0  0  0  0  0  0  0  0  0
   -6.8621    0.1731   -0.0340 H   0  0  0  0  0  0  0  0  0  0  0  0
   -6.4932   -1.4025    0.6836 H   0  0  0  0  0  0  0  0  0  0  0  0
   -5.0517    1.9898   -0.1266 H   0  0  0  0  0  0  0  0  0  0  0  0
   -4.8036    1.8373    1.6102 H   0  0  0  0  0  0  0  0  0  0  0  0
   -4.8919   -0.0818   -1.6293 H   0  0  0  0  0  0  0  0  0  0  0  0
   -4.5265   -1.6529   -0.9278 H   0  0  0  0  0  0  0  0  0  0  0  0
   -2.2000   -2.1371    0.0049 H   0  0  0  0  0  0  0  0  0  0  0  0
   -0.9459   -0.9067   -0.0479 H   0  0  0  0  0  0  0  0  0  0  0  0
    4.4137   -2.5736   -1.8779 H   0  0  0  0  0  0  0  0  0  0  0  0
    3.6634   -2.7676    0.3582 H   0  0  0  0  0  0  0  0  0  0  0  0
    2.2560   -1.8574    0.8621 H   0  0  0  0  0  0  0  0  0  0  0  0
    2.6292   -0.4801    2.8006 H   0  0  0  0  0  0  0  0  0  0  0  0
    4.0930    0.8490    4.2430 H   0  0  0  0  0  0  0  0  0  0  0  0
    7.4137    0.1210    1.5599 H   0  0  0  0  0  0  0  0  0  0  0  0
    5.9616   -1.2048    0.1097 H   0  0  0  0  0  0  0  0  0  0  0  0
  1  2  1  0
  2  3  2  0
  3  4  1  0
  4  5  1  0
  5  6  1  0
  6  7  1  0
  7  8  2  0
  7  9  1  0
  9 10  1  0
 10 11  1  0
 11 12  1  0
 12 13  1  0
 13 14  1  0
 14 15  1  0
 15 16  1  0
 16 17  1  0
 16 18  1  0
 16 19  1  0
 14 20  1  0
  3 21  1  0
 21 22  1  0
 22 23  2  0
 23 24  1  0
 24 25  1  0
 25 26  2  0
 26 27  1  0
 27 28  2  0
 28 29  1  0
 29 30  2  0
 29 31  1  0
 28 32  1  0
 32 33  2  0
 23  2  1  0
 33 25  1  0
 19 10  1  0
 20 10  1  0
 18 12  1  0
  1 34  1  0
  1 35  1  0
  1 36  1  0
  4 37  1  0
  4 38  1  0
  5 39  1  0
  5 40  1  0
  9 41  1  0
  9 42  1  0
 11 43  1  0
 11 44  1  0
 12 45  1  0
 13 46  1  0
 13 47  1  0
 14 48  1  0
 15 49  1  0
 15 50  1  0
 17 51  1  0
 17 52  1  0
 17 53  1  0
 18 54  1  0
 18 55  1  0
 19 56  1  0
 19 57  1  0
 20 58  1  0
 20 59  1  0
 22 60  1  0
 24 61  1  0
 24 62  1  0
 26 63  1  0
 27 64  1  0
 32 65  1  0
 33 66  1  0
M  CHG  3  23   1  29   1  31  -1
M  END
$$$$
