
     RDKit          3D

 48 51  0  0  0  0  0  0  0  0999 V2000
    5.0673    1.0615   -2.6068 C   0  0  0  0  0  0  0  0  0  0  0  0
    4.4517    0.5764   -1.2963 C   0  0  0  0  0  0  0  0  0  0  0  0
    4.1558    1.7625   -0.3756 C   0  0  0  0  0  0  0  0  0  0  0  0
    3.1849   -0.2432   -1.5707 C   0  0  0  0  0  0  0  0  0  0  0  0
    2.7062   -0.7875   -0.3347 O   0  0  0  0  0  0  0  0  0  0  0  0
    1.5038   -1.4071   -0.4358 C   0  0  0  0  0  0  0  0  0  0  0  0
    0.8575   -1.5893   -1.4541 O   0  0  0  0  0  0  0  0  0  0  0  0
    1.0855   -1.8782    0.9037 C   0  0  0  0  0  0  0  0  0  0  0  0
    2.0051   -2.6384    1.6465 C   0  0  0  0  0  0  0  0  0  0  0  0
    1.6148   -3.2576    2.8349 C   0  0  0  0  0  0  0  0  0  0  0  0
    0.3021   -3.1356    3.2849 C   0  0  0  0  0  0  0  0  0  0  0  0
   -0.6215   -2.3834    2.5567 C   0  0  0  0  0  0  0  0  0  0  0  0
   -0.2329   -1.7423    1.3669 C   0  0  0  0  0  0  0  0  0  0  0  0
   -1.1870   -0.9165    0.7058 N   0  0  0  0  0  0  0  0  0  0  0  0
   -0.9620    0.4088    0.2818 C   0  0  0  0  0  0  0  0  0  0  0  0
    0.2102    1.0203    0.4234 O   0  0  0  0  0  0  0  0  0  0  0  0
   -2.1529    0.8764   -0.1894 C   0  0  0  0  0  0  0  0  0  0  0  0
   -3.1264   -0.1264   -0.0365 C   0  0  0  0  0  0  0  0  0  0  0  0
   -2.5456   -1.2393    0.4924 C   0  0  0  0  0  0  0  0  0  0  0  0
   -3.0888   -2.4318    0.7302 O   0  0  0  0  0  0  0  0  0  0  0  0
   -4.4201    0.4220   -0.5478 C   0  0  0  0  0  0  0  0  0  0  0  0
   -4.8881    1.5247    0.4369 C   0  0  0  0  0  0  0  0  0  0  0  0
   -3.8070    2.6439    0.2766 C   0  0  0  0  0  0  0  0  0  0  0  0
   -2.8370    2.0656   -0.7863 C   0  0  0  0  0  0  0  0  0  0  0  0
   -3.8770    1.3333   -1.6977 C   0  0  0  0  0  0  0  0  0  0  0  0
    5.3161    0.2154   -3.2560 H   0  0  0  0  0  0  0  0  0  0  0  0
    5.9900    1.6211   -2.4200 H   0  0  0  0  0  0  0  0  0  0  0  0
    4.3785    1.7158   -3.1518 H   0  0  0  0  0  0  0  0  0  0  0  0
    5.1783   -0.0655   -0.7822 H   0  0  0  0  0  0  0  0  0  0  0  0
    3.7722    1.4259    0.5931 H   0  0  0  0  0  0  0  0  0  0  0  0
    5.0653    2.3429   -0.1873 H   0  0  0  0  0  0  0  0  0  0  0  0
    3.4124    2.4332   -0.8195 H   0  0  0  0  0  0  0  0  0  0  0  0
    2.4137    0.3919   -2.0244 H   0  0  0  0  0  0  0  0  0  0  0  0
    3.4153   -1.0710   -2.2521 H   0  0  0  0  0  0  0  0  0  0  0  0
    3.0235   -2.7720    1.2875 H   0  0  0  0  0  0  0  0  0  0  0  0
    2.3332   -3.8432    3.4039 H   0  0  0  0  0  0  0  0  0  0  0  0
   -0.0001   -3.6136    4.2141 H   0  0  0  0  0  0  0  0  0  0  0  0
   -1.6270   -2.2619    2.9579 H   0  0  0  0  0  0  0  0  0  0  0  0
    0.1047    1.9158    0.0565 H   0  0  0  0  0  0  0  0  0  0  0  0
   -2.3756   -3.0928    0.7768 H   0  0  0  0  0  0  0  0  0  0  0  0
   -5.1719   -0.3115   -0.8379 H   0  0  0  0  0  0  0  0  0  0  0  0
   -4.9420    1.1691    1.4715 H   0  0  0  0  0  0  0  0  0  0  0  0
   -5.8714    1.9140    0.1500 H   0  0  0  0  0  0  0  0  0  0  0  0
   -4.2774    3.5658   -0.0832 H   0  0  0  0  0  0  0  0  0  0  0  0
   -3.3087    2.8552    1.2289 H   0  0  0  0  0  0  0  0  0  0  0  0
   -2.1918    2.7866   -1.2877 H   0  0  0  0  0  0  0  0  0  0  0  0
   -4.6351    2.0026   -2.1190 H   0  0  0  0  0  0  0  0  0  0  0  0
   -3.4009    0.7579   -2.5015 H   0  0  0  0  0  0  0  0  0  0  0  0
  1  2  1  0
  2  3  1  0
  2  4  1  0
  4  5  1  0
  5  6  1  0
  6  7  2  0
  6  8  1  0
  8  9  2  0
  9 10  1  0
 10 11  2  0
 11 12  1  0
 12 13  2  0
 13 14  1  0
 14 15  1  0
 15 16  1  0
 15 17  2  0
 17 18  1  0
 18 19  2  0
 19 20  1  0
 18 21  1  0
 21 22  1  0
 22 23  1  0
 23 24  1  0
 24 25  1  0
 13  8  1  0
 19 14  1  0
 25 21  1  0
 24 17  1  0
  1 26  1  0
  1 27  1  0
  1 28  1  0
  2 29  1  0
  3 30  1  0
  3 31  1  0
  3 32  1  0
  4 33  1  0
  4 34  1  0
  9 35  1  0
 10 36  1  0
 11 37  1  0
 12 38  1  0
 16 39  1  0
 20 40  1  0
 21 41  1  0
 22 42  1  0
 22 43  1  0
 23 44  1  0
 23 45  1  0
 24 46  1  0
 25 47  1  0
 25 48  1  0
M  END
$$$$
