
     RDKit          3D

 43 44  0  0  0  0  0  0  0  0999 V2000
   -2.4179    3.5835    0.6786 C   0  0  0  0  0  0  0  0  0  0  0  0
   -1.3125    2.8620   -0.0691 C   0  0  0  0  0  0  0  0  0  0  0  0
   -1.3481    1.4582    0.2291 O   0  0  0  0  0  0  0  0  0  0  0  0
   -2.1839    0.7013   -0.5440 C   0  0  0  0  0  0  0  0  0  0  0  0
   -2.8874    1.1669   -1.4332 O   0  0  0  0  0  0  0  0  0  0  0  0
   -2.1727   -0.7244   -0.1831 C   0  0  0  0  0  0  0  0  0  0  0  0
   -1.2358   -1.3278    0.6497 C   0  0  0  0  0  0  0  0  0  0  0  0
   -0.1404   -0.7270    1.2580 N   0  0  0  0  0  0  0  0  0  0  0  0
    0.8086   -1.3199    2.0761 C   0  0  0  0  0  0  0  0  0  0  0  0
    0.8798   -2.4978    2.4144 O   0  0  0  0  0  0  0  0  0  0  0  0
    1.8599   -0.3209    2.5715 C   0  0  0  0  0  0  0  0  0  0  0  0
    2.9490   -0.1676    1.6601 O   0  0  0  0  0  0  0  0  0  0  0  0
    2.7113    0.6601    0.6165 C   0  0  0  0  0  0  0  0  0  0  0  0
    1.6709    1.2708    0.4241 O   0  0  0  0  0  0  0  0  0  0  0  0
    3.8900    0.7346   -0.2823 C   0  0  0  0  0  0  0  0  0  0  0  0
    3.8252    1.5916   -1.3825 C   0  0  0  0  0  0  0  0  0  0  0  0
    4.9235    1.6605   -2.2189 C   0  0  0  0  0  0  0  0  0  0  0  0
    6.0521    0.9453   -2.0294 N   0  0  0  0  0  0  0  0  0  0  0  0
    6.0878    0.1204   -0.9614 C   0  0  0  0  0  0  0  0  0  0  0  0
    5.0438   -0.0204   -0.0653 C   0  0  0  0  0  0  0  0  0  0  0  0
   -1.5505   -2.9773    0.8796 S   0  0  0  0  0  0  0  0  0  0  0  0
   -2.9043   -2.9624   -0.1482 C   0  0  0  0  0  0  0  0  0  0  0  0
   -3.6616   -4.2291   -0.3838 C   0  0  0  0  0  0  0  0  0  0  0  0
   -3.1497   -1.6995   -0.6619 C   0  0  0  0  0  0  0  0  0  0  0  0
   -4.2829   -1.3703   -1.5879 C   0  0  0  0  0  0  0  0  0  0  0  0
   -2.3628    4.6620    0.5060 H   0  0  0  0  0  0  0  0  0  0  0  0
   -2.3415    3.3933    1.7542 H   0  0  0  0  0  0  0  0  0  0  0  0
   -3.4040    3.2291    0.3622 H   0  0  0  0  0  0  0  0  0  0  0  0
   -0.3402    3.2367    0.2663 H   0  0  0  0  0  0  0  0  0  0  0  0
   -1.3705    3.0425   -1.1485 H   0  0  0  0  0  0  0  0  0  0  0  0
    0.0068    0.2558    1.0171 H   0  0  0  0  0  0  0  0  0  0  0  0
    1.3976    0.6446    2.8120 H   0  0  0  0  0  0  0  0  0  0  0  0
    2.2698   -0.7043    3.5127 H   0  0  0  0  0  0  0  0  0  0  0  0
    2.9440    2.1908   -1.5867 H   0  0  0  0  0  0  0  0  0  0  0  0
    4.9272    2.3104   -3.0898 H   0  0  0  0  0  0  0  0  0  0  0  0
    7.0092   -0.4435   -0.8428 H   0  0  0  0  0  0  0  0  0  0  0  0
    5.1401   -0.7051    0.7700 H   0  0  0  0  0  0  0  0  0  0  0  0
   -3.2093   -5.0893    0.1208 H   0  0  0  0  0  0  0  0  0  0  0  0
   -3.6979   -4.4544   -1.4548 H   0  0  0  0  0  0  0  0  0  0  0  0
   -4.6884   -4.1284   -0.0169 H   0  0  0  0  0  0  0  0  0  0  0  0
   -4.9007   -0.5706   -1.1670 H   0  0  0  0  0  0  0  0  0  0  0  0
   -4.9364   -2.2310   -1.7591 H   0  0  0  0  0  0  0  0  0  0  0  0
   -3.8972   -1.0495   -2.5608 H   0  0  0  0  0  0  0  0  0  0  0  0
  1  2  1  0
  2  3  1  0
  3  4  1  0
  4  5  2  0
  4  6  1  0
  6  7  2  0
  7  8  1  0
  8  9  1  0
  9 10  2  0
  9 11  1  0
 11 12  1  0
 12 13  1  0
 13 14  2  0
 13 15  1  0
 15 16  2  0
 16 17  1  0
 17 18  2  0
 18 19  1  0
 19 20  2  0
  7 21  1  0
 21 22  1  0
 22 23  1  0
 22 24  2  0
 24 25  1  0
 24  6  1  0
 20 15  1  0
  1 26  1  0
  1 27  1  0
  1 28  1  0
  2 29  1  0
  2 30  1  0
  8 31  1  0
 11 32  1  0
 11 33  1  0
 16 34  1  0
 17 35  1  0
 19 36  1  0
 20 37  1  0
 23 38  1  0
 23 39  1  0
 23 40  1  0
 25 41  1  0
 25 42  1  0
 25 43  1  0
M  END
$$$$
