
     RDKit          3D

 57 59  0  0  0  0  0  0  0  0999 V2000
    1.1608    1.5425    4.5005 C   0  0  0  0  0  0  0  0  0  0  0  0
    1.0561    1.2709    3.1075 O   0  0  0  0  0  0  0  0  0  0  0  0
   -0.1879    1.4106    2.5344 C   0  0  0  0  0  0  0  0  0  0  0  0
   -1.3492    1.7739    3.2233 C   0  0  0  0  0  0  0  0  0  0  0  0
   -2.5612    1.8838    2.5395 C   0  0  0  0  0  0  0  0  0  0  0  0
   -2.6077    1.6337    1.1658 C   0  0  0  0  0  0  0  0  0  0  0  0
   -4.1505    1.8330    0.3033 S   0  0  0  0  0  6  0  0  0  0  0  0
   -4.8925    2.8592    1.0080 O   0  0  0  0  0  0  0  0  0  0  0  0
   -3.8751    1.9643   -1.1101 O   0  0  0  0  0  0  0  0  0  0  0  0
   -4.9276    0.3407    0.5751 N   0  0  0  0  0  0  0  0  0  0  0  0
   -4.3033   -0.8881    0.0188 C   0  0  0  0  0  0  0  0  0  0  0  0
   -4.6847   -1.1198   -1.4396 C   0  0  0  0  0  0  0  0  0  0  0  0
   -6.1962   -1.0894   -1.6403 C   0  0  0  0  0  0  0  0  0  0  0  0
   -6.8015    0.1800   -1.0500 C   0  0  0  0  0  0  0  0  0  0  0  0
   -6.4042    0.3461    0.4114 C   0  0  0  0  0  0  0  0  0  0  0  0
   -1.4525    1.2860    0.4604 C   0  0  0  0  0  0  0  0  0  0  0  0
   -0.2441    1.1511    1.1453 C   0  0  0  0  0  0  0  0  0  0  0  0
    0.9660    0.7760    0.5189 N   0  0  0  0  0  0  0  0  0  0  0  0
    1.1431    0.3035   -0.7647 C   0  0  0  0  0  0  0  0  0  0  0  0
    0.2560    0.0369   -1.5672 O   0  0  0  0  0  0  0  0  0  0  0  0
    2.5601    0.0465   -1.1576 C   0  0  0  0  0  0  0  0  0  0  0  0
    3.6250    0.7878   -0.6334 C   0  0  0  0  0  0  0  0  0  0  0  0
    4.9360    0.5103   -1.0322 C   0  0  0  0  0  0  0  0  0  0  0  0
    5.2036   -0.5064   -1.9608 C   0  0  0  0  0  0  0  0  0  0  0  0
    6.6161   -0.8064   -2.3890 C   0  0  0  0  0  0  0  0  0  0  0  0
    7.5122   -1.6794   -1.1060 S   0  0  0  0  0  6  0  0  0  0  0  0
    6.4954   -3.0818   -0.7004 C   0  0  0  0  0  0  0  0  0  0  0  0
    7.6000   -0.8363    0.0726 O   0  0  0  0  0  0  0  0  0  0  0  0
    8.7246   -2.2003   -1.7136 O   0  0  0  0  0  0  0  0  0  0  0  0
    4.1297   -1.2268   -2.5032 C   0  0  0  0  0  0  0  0  0  0  0  0
    2.8190   -0.9509   -2.1054 C   0  0  0  0  0  0  0  0  0  0  0  0
    2.2057    1.3965    4.7907 H   0  0  0  0  0  0  0  0  0  0  0  0
    0.5527    0.8443    5.0849 H   0  0  0  0  0  0  0  0  0  0  0  0
    0.8964    2.5819    4.7213 H   0  0  0  0  0  0  0  0  0  0  0  0
   -1.3476    1.9801    4.2885 H   0  0  0  0  0  0  0  0  0  0  0  0
   -3.4624    2.1718    3.0778 H   0  0  0  0  0  0  0  0  0  0  0  0
   -4.6400   -1.7369    0.6276 H   0  0  0  0  0  0  0  0  0  0  0  0
   -3.2163   -0.8633    0.1256 H   0  0  0  0  0  0  0  0  0  0  0  0
   -4.2915   -2.0880   -1.7704 H   0  0  0  0  0  0  0  0  0  0  0  0
   -4.2197   -0.3617   -2.0787 H   0  0  0  0  0  0  0  0  0  0  0  0
   -6.4317   -1.1540   -2.7083 H   0  0  0  0  0  0  0  0  0  0  0  0
   -6.6460   -1.9667   -1.1594 H   0  0  0  0  0  0  0  0  0  0  0  0
   -7.8933    0.1378   -1.1321 H   0  0  0  0  0  0  0  0  0  0  0  0
   -6.4710    1.0482   -1.6319 H   0  0  0  0  0  0  0  0  0  0  0  0
   -6.8397    1.2614    0.8246 H   0  0  0  0  0  0  0  0  0  0  0  0
   -6.8160   -0.4762    1.0100 H   0  0  0  0  0  0  0  0  0  0  0  0
   -1.5141    1.1304   -0.6125 H   0  0  0  0  0  0  0  0  0  0  0  0
    1.7573    0.7649    1.1546 H   0  0  0  0  0  0  0  0  0  0  0  0
    3.4560    1.6040    0.0645 H   0  0  0  0  0  0  0  0  0  0  0  0
    5.7502    1.1008   -0.6105 H   0  0  0  0  0  0  0  0  0  0  0  0
    6.6393   -1.4326   -3.2869 H   0  0  0  0  0  0  0  0  0  0  0  0
    7.1618    0.1175   -2.6064 H   0  0  0  0  0  0  0  0  0  0  0  0
    6.2755   -3.6349   -1.6154 H   0  0  0  0  0  0  0  0  0  0  0  0
    7.0581   -3.7161   -0.0117 H   0  0  0  0  0  0  0  0  0  0  0  0
    5.5796   -2.7415   -0.2155 H   0  0  0  0  0  0  0  0  0  0  0  0
    4.2963   -2.0042   -3.2470 H   0  0  0  0  0  0  0  0  0  0  0  0
    1.9949   -1.5148   -2.5399 H   0  0  0  0  0  0  0  0  0  0  0  0
  1  2  1  0
  2  3  1  0
  3  4  2  0
  4  5  1  0
  5  6  2  0
  6  7  1  0
  7  8  2  0
  7  9  2  0
  7 10  1  0
 10 11  1  0
 11 12  1  0
 12 13  1  0
 13 14  1  0
 14 15  1  0
  6 16  1  0
 16 17  2  0
 17 18  1  0
 18 19  1  0
 19 20  2  0
 19 21  1  0
 21 22  2  0
 22 23  1  0
 23 24  2  0
 24 25  1  0
 25 26  1  0
 26 27  1  0
 26 28  2  0
 26 29  2  0
 24 30  1  0
 30 31  2  0
 17  3  1  0
 31 21  1  0
 15 10  1  0
  1 32  1  0
  1 33  1  0
  1 34  1  0
  4 35  1  0
  5 36  1  0
 11 37  1  0
 11 38  1  0
 12 39  1  0
 12 40  1  0
 13 41  1  0
 13 42  1  0
 14 43  1  0
 14 44  1  0
 15 45  1  0
 15 46  1  0
 16 47  1  0
 18 48  1  0
 22 49  1  0
 23 50  1  0
 25 51  1  0
 25 52  1  0
 27 53  1  0
 27 54  1  0
 27 55  1  0
 30 56  1  0
 31 57  1  0
M  END
$$$$
