
     RDKit          3D

 47 49  0  0  0  0  0  0  0  0999 V2000
    7.7554    0.1138   -2.5299 C   0  0  0  0  0  0  0  0  0  0  0  0
    6.6746    0.3126   -1.4824 C   0  0  0  0  0  0  0  0  0  0  0  0
    5.4882   -0.3295   -1.9466 O   0  0  0  0  0  0  0  0  0  0  0  0
    4.3866   -0.2585   -1.1402 C   0  0  0  0  0  0  0  0  0  0  0  0
    4.3157    0.3683    0.1025 C   0  0  0  0  0  0  0  0  0  0  0  0
    3.1174    0.3671    0.8299 C   0  0  0  0  0  0  0  0  0  0  0  0
    1.9728   -0.2526    0.3156 C   0  0  0  0  0  0  0  0  0  0  0  0
    0.7414   -0.2514    1.0488 N   0  0  0  0  0  0  0  0  0  0  0  0
    0.6022   -0.2620    2.4361 C   0  0  0  0  0  0  0  0  0  0  0  0
    1.6407   -0.2209    3.2694 O   0  0  0  0  0  0  0  0  0  0  0  0
   -0.7363   -0.4020    2.7313 C   0  0  0  0  0  0  0  0  0  0  0  0
   -1.4630   -0.4407    1.5190 C   0  0  0  0  0  0  0  0  0  0  0  0
   -2.8241   -0.5453    1.4068 N   0  0  0  0  0  0  0  0  0  0  0  0
   -3.6657   -0.5856    2.5997 C   0  0  0  0  0  0  0  0  0  0  0  0
   -3.4537   -1.0684    0.1839 C   0  0  0  0  0  0  0  0  0  0  0  0
   -4.4455   -0.0838   -0.4045 C   0  0  0  0  0  0  0  0  0  0  0  0
   -4.0848    1.2526   -0.6321 C   0  0  0  0  0  0  0  0  0  0  0  0
   -4.9928    2.1505   -1.1952 C   0  0  0  0  0  0  0  0  0  0  0  0
   -6.2709    1.7211   -1.5461 C   0  0  0  0  0  0  0  0  0  0  0  0
   -6.6398    0.3935   -1.3380 C   0  0  0  0  0  0  0  0  0  0  0  0
   -5.7317   -0.5055   -0.7743 C   0  0  0  0  0  0  0  0  0  0  0  0
   -0.5468   -0.2560    0.4952 C   0  0  0  0  0  0  0  0  0  0  0  0
   -0.7814   -0.0378   -0.8046 O   0  0  0  0  0  0  0  0  0  0  0  0
    2.0515   -0.8940   -0.9279 C   0  0  0  0  0  0  0  0  0  0  0  0
    3.2509   -0.8917   -1.6467 C   0  0  0  0  0  0  0  0  0  0  0  0
    7.4410    0.5307   -3.4925 H   0  0  0  0  0  0  0  0  0  0  0  0
    8.6884    0.5956   -2.2238 H   0  0  0  0  0  0  0  0  0  0  0  0
    7.9444   -0.9529   -2.6908 H   0  0  0  0  0  0  0  0  0  0  0  0
    6.4987    1.3865   -1.3498 H   0  0  0  0  0  0  0  0  0  0  0  0
    7.0054   -0.1349   -0.5381 H   0  0  0  0  0  0  0  0  0  0  0  0
    5.1717    0.8712    0.5398 H   0  0  0  0  0  0  0  0  0  0  0  0
    3.0997    0.8887    1.7831 H   0  0  0  0  0  0  0  0  0  0  0  0
    1.2911   -0.3023    4.1745 H   0  0  0  0  0  0  0  0  0  0  0  0
   -1.1420   -0.4779    3.7297 H   0  0  0  0  0  0  0  0  0  0  0  0
   -3.4423    0.2541    3.2670 H   0  0  0  0  0  0  0  0  0  0  0  0
   -4.7296   -0.5120    2.3492 H   0  0  0  0  0  0  0  0  0  0  0  0
   -3.5168   -1.5244    3.1443 H   0  0  0  0  0  0  0  0  0  0  0  0
   -3.9721   -2.0021    0.4416 H   0  0  0  0  0  0  0  0  0  0  0  0
   -2.7407   -1.3522   -0.5959 H   0  0  0  0  0  0  0  0  0  0  0  0
   -3.0872    1.5939   -0.3619 H   0  0  0  0  0  0  0  0  0  0  0  0
   -4.6993    3.1837   -1.3596 H   0  0  0  0  0  0  0  0  0  0  0  0
   -6.9773    2.4204   -1.9849 H   0  0  0  0  0  0  0  0  0  0  0  0
   -7.6346    0.0568   -1.6173 H   0  0  0  0  0  0  0  0  0  0  0  0
   -6.0354   -1.5389   -0.6246 H   0  0  0  0  0  0  0  0  0  0  0  0
   -0.0367    0.4705   -1.1712 H   0  0  0  0  0  0  0  0  0  0  0  0
    1.2094   -1.4468   -1.3391 H   0  0  0  0  0  0  0  0  0  0  0  0
    3.3034   -1.4012   -2.6062 H   0  0  0  0  0  0  0  0  0  0  0  0
  1  2  1  0
  2  3  1  0
  3  4  1  0
  4  5  2  0
  5  6  1  0
  6  7  2  0
  7  8  1  0
  8  9  1  0
  9 10  1  0
  9 11  2  0
 11 12  1  0
 12 13  1  0
 13 14  1  0
 13 15  1  0
 15 16  1  0
 16 17  2  0
 17 18  1  0
 18 19  2  0
 19 20  1  0
 20 21  2  0
 12 22  2  0
 22 23  1  0
  7 24  1  0
 24 25  2  0
 25  4  1  0
 22  8  1  0
 21 16  1  0
  1 26  1  0
  1 27  1  0
  1 28  1  0
  2 29  1  0
  2 30  1  0
  5 31  1  0
  6 32  1  0
 10 33  1  0
 11 34  1  0
 14 35  1  0
 14 36  1  0
 14 37  1  0
 15 38  1  0
 15 39  1  0
 17 40  1  0
 18 41  1  0
 19 42  1  0
 20 43  1  0
 21 44  1  0
 23 45  1  0
 24 46  1  0
 25 47  1  0
M  END
$$$$
