
     RDKit          3D

 41 42  0  0  0  0  0  0  0  0999 V2000
   -7.1810   -1.8643    3.1301 C   0  0  0  0  0  0  0  0  0  0  0  0
   -6.9780   -1.5838    1.7511 O   0  0  0  0  0  0  0  0  0  0  0  0
   -5.8566   -0.8713    1.4261 C   0  0  0  0  0  0  0  0  0  0  0  0
   -4.9275   -0.3468    2.3237 C   0  0  0  0  0  0  0  0  0  0  0  0
   -3.8199    0.3682    1.8536 C   0  0  0  0  0  0  0  0  0  0  0  0
   -3.6268    0.5696    0.4803 C   0  0  0  0  0  0  0  0  0  0  0  0
   -2.4296    1.3418   -0.0211 C   0  0  0  0  0  0  0  0  0  0  0  0
   -1.1236    0.5747    0.0099 C   0  0  0  0  0  0  0  0  0  0  0  0
   -0.9491   -0.5239    0.5219 O   0  0  0  0  0  0  0  0  0  0  0  0
   -0.1725    1.3494   -0.6237 O   0  0  0  0  0  0  0  0  0  0  0  0
    1.0840    0.7193   -0.5543 N   0  0  0  0  0  0  0  0  0  0  0  0
    2.0020    1.4066   -1.1672 C   0  0  0  0  0  0  0  0  0  0  0  0
    1.7480    2.5909   -1.8238 N   0  0  0  0  0  0  0  0  0  0  0  0
    3.3996    0.8618   -1.1668 C   0  0  0  0  0  0  0  0  0  0  0  0
    4.4912    1.6880   -1.4519 C   0  0  0  0  0  0  0  0  0  0  0  0
    5.7854    1.1587   -1.4544 C   0  0  0  0  0  0  0  0  0  0  0  0
    6.0072   -0.1913   -1.1687 C   0  0  0  0  0  0  0  0  0  0  0  0
    7.3193   -0.5745   -1.2070 O   0  0  0  0  0  0  0  0  0  0  0  0
    7.6006   -1.9327   -0.8921 C   0  0  0  0  0  0  0  0  0  0  0  0
    4.9197   -1.0137   -0.8743 C   0  0  0  0  0  0  0  0  0  0  0  0
    3.6217   -0.4887   -0.8707 C   0  0  0  0  0  0  0  0  0  0  0  0
   -4.5594    0.0355   -0.4163 C   0  0  0  0  0  0  0  0  0  0  0  0
   -5.6655   -0.6750    0.0570 C   0  0  0  0  0  0  0  0  0  0  0  0
   -8.0961   -2.4578    3.2191 H   0  0  0  0  0  0  0  0  0  0  0  0
   -7.3258   -0.9422    3.7026 H   0  0  0  0  0  0  0  0  0  0  0  0
   -6.3575   -2.4593    3.5387 H   0  0  0  0  0  0  0  0  0  0  0  0
   -5.0292   -0.4787    3.3954 H   0  0  0  0  0  0  0  0  0  0  0  0
   -3.1003    0.7565    2.5719 H   0  0  0  0  0  0  0  0  0  0  0  0
   -2.6144    1.6616   -1.0541 H   0  0  0  0  0  0  0  0  0  0  0  0
   -2.3124    2.2468    0.5872 H   0  0  0  0  0  0  0  0  0  0  0  0
    0.7564    2.7384   -1.9737 H   0  0  0  0  0  0  0  0  0  0  0  0
    2.2826    2.7364   -2.6733 H   0  0  0  0  0  0  0  0  0  0  0  0
    4.3577    2.7474   -1.6490 H   0  0  0  0  0  0  0  0  0  0  0  0
    6.6317    1.8064   -1.6720 H   0  0  0  0  0  0  0  0  0  0  0  0
    7.2936   -2.1730    0.1311 H   0  0  0  0  0  0  0  0  0  0  0  0
    8.6840   -2.0729   -0.9560 H   0  0  0  0  0  0  0  0  0  0  0  0
    7.1342   -2.6099   -1.6152 H   0  0  0  0  0  0  0  0  0  0  0  0
    5.0413   -2.0662   -0.6406 H   0  0  0  0  0  0  0  0  0  0  0  0
    2.7849   -1.1443   -0.6354 H   0  0  0  0  0  0  0  0  0  0  0  0
   -4.4369    0.1622   -1.4892 H   0  0  0  0  0  0  0  0  0  0  0  0
   -6.3833   -1.0857   -0.6489 H   0  0  0  0  0  0  0  0  0  0  0  0
  1  2  1  0
  2  3  1  0
  3  4  2  0
  4  5  1  0
  5  6  2  0
  6  7  1  0
  7  8  1  0
  8  9  2  0
  8 10  1  0
 10 11  1  0
 11 12  2  3
 12 13  1  0
 12 14  1  0
 14 15  2  0
 15 16  1  0
 16 17  2  0
 17 18  1  0
 18 19  1  0
 17 20  1  0
 20 21  2  0
  6 22  1  0
 22 23  2  0
 23  3  1  0
 21 14  1  0
  1 24  1  0
  1 25  1  0
  1 26  1  0
  4 27  1  0
  5 28  1  0
  7 29  1  0
  7 30  1  0
 13 31  1  0
 13 32  1  0
 15 33  1  0
 16 34  1  0
 19 35  1  0
 19 36  1  0
 19 37  1  0
 20 38  1  0
 21 39  1  0
 22 40  1  0
 23 41  1  0
M  END
$$$$
