
     RDKit          3D

 42 44  0  0  0  0  0  0  0  0999 V2000
   -6.9539    0.1349    1.4754 C   0  0  0  0  0  0  0  0  0  0  0  0
   -5.5919    0.1096    0.8463 C   0  0  0  0  0  0  0  0  0  0  0  0
   -4.9366    1.3041    0.5295 C   0  0  0  0  0  0  0  0  0  0  0  0
   -3.6478    1.2992   -0.0281 C   0  0  0  0  0  0  0  0  0  0  0  0
   -2.9874    2.6138   -0.3505 C   0  0  0  0  0  0  0  0  0  0  0  0
   -3.0076    0.0646   -0.2739 C   0  0  0  0  0  0  0  0  0  0  0  0
   -1.6826    0.0390   -0.8731 C   0  0  0  0  0  0  0  0  0  0  0  0
   -1.4783    0.0356   -2.2381 C   0  0  0  0  0  0  0  0  0  0  0  0
    0.2046    0.0009   -2.5565 S   0  0  0  0  0  0  0  0  0  0  0  0
    0.5158   -0.0085   -0.8817 C   0  0  0  0  0  0  0  0  0  0  0  0
    1.7782   -0.0359   -0.3472 N   0  0  0  0  0  0  0  0  0  0  0  0
    2.9662   -0.0595   -1.0326 C   0  0  0  0  0  0  0  0  0  0  0  0
    3.1341   -0.0612   -2.2445 O   0  0  0  0  0  0  0  0  0  0  0  0
    4.1332   -0.0852   -0.1022 C   0  0  0  0  0  0  0  0  0  0  0  0
    5.3780   -0.1106   -0.6039 C   0  0  0  0  0  0  0  0  0  0  0  0
    6.5693   -0.1366    0.1858 C   0  0  0  0  0  0  0  0  0  0  0  0
    7.8720   -0.1630   -0.2923 C   0  0  0  0  0  0  0  0  0  0  0  0
    8.8566   -0.1851    0.7371 C   0  0  0  0  0  0  0  0  0  0  0  0
    8.2866   -0.1752    1.9871 C   0  0  0  0  0  0  0  0  0  0  0  0
    6.5829   -0.1396    1.9111 S   0  0  0  0  0  0  0  0  0  0  0  0
   -0.5377    0.0120   -0.0992 N   0  0  0  0  0  0  0  0  0  0  0  0
   -3.6483   -1.1462    0.0693 C   0  0  0  0  0  0  0  0  0  0  0  0
   -2.9864   -2.4818   -0.1460 C   0  0  0  0  0  0  0  0  0  0  0  0
   -4.9360   -1.1063    0.6281 C   0  0  0  0  0  0  0  0  0  0  0  0
   -7.5268    1.0029    1.1323 H   0  0  0  0  0  0  0  0  0  0  0  0
   -6.8618    0.1796    2.5650 H   0  0  0  0  0  0  0  0  0  0  0  0
   -7.5262   -0.7585    1.2044 H   0  0  0  0  0  0  0  0  0  0  0  0
   -5.4360    2.2520    0.7233 H   0  0  0  0  0  0  0  0  0  0  0  0
   -3.5911    3.4605   -0.0060 H   0  0  0  0  0  0  0  0  0  0  0  0
   -2.0148    2.6886    0.1465 H   0  0  0  0  0  0  0  0  0  0  0  0
   -2.8575    2.7197   -1.4321 H   0  0  0  0  0  0  0  0  0  0  0  0
   -2.2088    0.0513   -3.0341 H   0  0  0  0  0  0  0  0  0  0  0  0
    1.7646   -0.0370    0.6622 H   0  0  0  0  0  0  0  0  0  0  0  0
    3.9309   -0.0823    0.9602 H   0  0  0  0  0  0  0  0  0  0  0  0
    5.5127   -0.1120   -1.6854 H   0  0  0  0  0  0  0  0  0  0  0  0
    8.1108   -0.1663   -1.3498 H   0  0  0  0  0  0  0  0  0  0  0  0
    9.9260   -0.2071    0.5665 H   0  0  0  0  0  0  0  0  0  0  0  0
    8.7894   -0.1871    2.9444 H   0  0  0  0  0  0  0  0  0  0  0  0
   -2.0387   -2.5327    0.3997 H   0  0  0  0  0  0  0  0  0  0  0  0
   -3.6139   -3.3033    0.2163 H   0  0  0  0  0  0  0  0  0  0  0  0
   -2.8072   -2.6521   -1.2123 H   0  0  0  0  0  0  0  0  0  0  0  0
   -5.4345   -2.0356    0.8990 H   0  0  0  0  0  0  0  0  0  0  0  0
  1  2  1  0
  2  3  2  0
  3  4  1  0
  4  5  1  0
  4  6  2  0
  6  7  1  0
  7  8  2  0
  8  9  1  0
  9 10  1  0
 10 11  1  0
 11 12  1  0
 12 13  2  0
 12 14  1  0
 14 15  2  3
 15 16  1  0
 16 17  2  0
 17 18  1  0
 18 19  2  0
 19 20  1  0
 10 21  2  0
  6 22  1  0
 22 23  1  0
 22 24  2  0
 24  2  1  0
 21  7  1  0
 20 16  1  0
  1 25  1  0
  1 26  1  0
  1 27  1  0
  3 28  1  0
  5 29  1  0
  5 30  1  0
  5 31  1  0
  8 32  1  0
 11 33  1  0
 14 34  1  0
 15 35  1  0
 17 36  1  0
 18 37  1  0
 19 38  1  0
 23 39  1  0
 23 40  1  0
 23 41  1  0
 24 42  1  0
M  END
$$$$
