
     RDKit          3D

 57 60  0  0  0  0  0  0  0  0999 V2000
    7.9582    3.3375    0.4248 C   0  0  0  0  0  0  0  0  0  0  0  0
    6.7619    2.4097    0.5930 C   0  0  0  0  0  0  0  0  0  0  0  0
    6.1245    1.9719   -0.7374 C   0  0  0  0  0  0  0  0  0  0  0  0
    7.0918    1.1743   -1.6142 C   0  0  0  0  0  0  0  0  0  0  0  0
    4.9402    1.1595   -0.4643 N   0  0  0  0  0  0  0  0  0  0  0  0
    3.7152    1.7471   -0.2002 C   0  0  0  0  0  0  0  0  0  0  0  0
    3.5036    2.9449   -0.3211 O   0  0  0  0  0  0  0  0  0  0  0  0
    2.6460    0.8469    0.3147 C   0  0  0  0  0  0  0  0  0  0  0  0
    2.6270   -0.5253    0.0437 C   0  0  0  0  0  0  0  0  0  0  0  0
    1.6269   -1.3336    0.5913 C   0  0  0  0  0  0  0  0  0  0  0  0
    0.6282   -0.7842    1.4076 C   0  0  0  0  0  0  0  0  0  0  0  0
   -0.4283   -1.6601    2.0333 C   0  0  0  0  0  0  0  0  0  0  0  0
   -1.7179   -2.1971    0.8756 S   0  0  0  0  0  0  0  0  0  0  0  0
   -2.8989   -0.9437    1.0658 C   0  0  0  0  0  0  0  0  0  0  0  0
   -2.6466    0.2752    1.4713 N   0  0  0  0  0  0  0  0  0  0  0  0
   -3.8574    0.9144    1.4850 C   0  0  0  0  0  0  0  0  0  0  0  0
   -4.1595    2.2285    1.8260 C   0  0  0  0  0  0  0  0  0  0  0  0
   -5.4980    2.5729    1.7591 C   0  0  0  0  0  0  0  0  0  0  0  0
   -6.4972    1.7351    1.3951 N   0  0  0  0  0  0  0  0  0  0  0  0
   -6.1998    0.4656    1.0537 C   0  0  0  0  0  0  0  0  0  0  0  0
   -4.8753    0.0560    1.0966 C   0  0  0  0  0  0  0  0  0  0  0  0
   -4.2326   -1.1278    0.8081 N   0  0  0  0  0  0  0  0  0  0  0  0
   -4.8867   -2.3622    0.3924 C   0  0  0  0  0  0  0  0  0  0  0  0
   -4.7614   -2.6491   -1.0881 C   0  0  0  0  0  0  0  0  0  0  0  0
   -4.4610   -3.9565   -1.5104 C   0  0  0  0  0  0  0  0  0  0  0  0
   -4.4111   -4.2734   -2.8711 C   0  0  0  0  0  0  0  0  0  0  0  0
   -4.6652   -3.2894   -3.8115 C   0  0  0  0  0  0  0  0  0  0  0  0
   -4.6331   -3.5970   -5.1152 F   0  0  0  0  0  0  0  0  0  0  0  0
   -4.9625   -1.9921   -3.4208 C   0  0  0  0  0  0  0  0  0  0  0  0
   -5.0156   -1.6707   -2.0622 C   0  0  0  0  0  0  0  0  0  0  0  0
    0.6313    0.5966    1.6402 C   0  0  0  0  0  0  0  0  0  0  0  0
    1.6307    1.4058    1.0978 C   0  0  0  0  0  0  0  0  0  0  0  0
    8.2812    3.7110    1.4023 H   0  0  0  0  0  0  0  0  0  0  0  0
    7.7112    4.1978   -0.2013 H   0  0  0  0  0  0  0  0  0  0  0  0
    8.8054    2.8144   -0.0184 H   0  0  0  0  0  0  0  0  0  0  0  0
    7.0673    1.5218    1.1680 H   0  0  0  0  0  0  0  0  0  0  0  0
    6.0082    2.9256    1.2080 H   0  0  0  0  0  0  0  0  0  0  0  0
    5.8078    2.8649   -1.2896 H   0  0  0  0  0  0  0  0  0  0  0  0
    7.9481    1.7829   -1.9257 H   0  0  0  0  0  0  0  0  0  0  0  0
    6.5921    0.8237   -2.5197 H   0  0  0  0  0  0  0  0  0  0  0  0
    7.4691    0.2923   -1.0813 H   0  0  0  0  0  0  0  0  0  0  0  0
    5.1009    0.2274   -0.1239 H   0  0  0  0  0  0  0  0  0  0  0  0
    3.3686   -0.9824   -0.6068 H   0  0  0  0  0  0  0  0  0  0  0  0
    1.6284   -2.3990    0.3733 H   0  0  0  0  0  0  0  0  0  0  0  0
   -0.8728   -1.1789    2.9094 H   0  0  0  0  0  0  0  0  0  0  0  0
    0.0612   -2.5613    2.4159 H   0  0  0  0  0  0  0  0  0  0  0  0
   -3.3941    2.9297    2.1189 H   0  0  0  0  0  0  0  0  0  0  0  0
   -5.8204    3.5783    2.0114 H   0  0  0  0  0  0  0  0  0  0  0  0
   -7.0304   -0.1667    0.7555 H   0  0  0  0  0  0  0  0  0  0  0  0
   -4.4630   -3.1730    0.9965 H   0  0  0  0  0  0  0  0  0  0  0  0
   -5.9492   -2.3054    0.6540 H   0  0  0  0  0  0  0  0  0  0  0  0
   -4.2675   -4.7427   -0.7864 H   0  0  0  0  0  0  0  0  0  0  0  0
   -4.1824   -5.2810   -3.1995 H   0  0  0  0  0  0  0  0  0  0  0  0
   -5.1531   -1.2350   -4.1804 H   0  0  0  0  0  0  0  0  0  0  0  0
   -5.2637   -0.6507   -1.7814 H   0  0  0  0  0  0  0  0  0  0  0  0
   -0.1493    1.0530    2.2460 H   0  0  0  0  0  0  0  0  0  0  0  0
    1.6191    2.4736    1.2966 H   0  0  0  0  0  0  0  0  0  0  0  0
  1  2  1  0
  2  3  1  0
  3  4  1  0
  3  5  1  0
  5  6  1  0
  6  7  2  0
  6  8  1  0
  8  9  2  0
  9 10  1  0
 10 11  2  0
 11 12  1  0
 12 13  1  0
 13 14  1  0
 14 15  2  0
 15 16  1  0
 16 17  2  0
 17 18  1  0
 18 19  2  0
 19 20  1  0
 20 21  2  0
 21 22  1  0
 22 23  1  0
 23 24  1  0
 24 25  2  0
 25 26  1  0
 26 27  2  0
 27 28  1  0
 27 29  1  0
 29 30  2  0
 11 31  1  0
 31 32  2  0
 32  8  1  0
 22 14  1  0
 30 24  1  0
 21 16  1  0
  1 33  1  0
  1 34  1  0
  1 35  1  0
  2 36  1  0
  2 37  1  0
  3 38  1  0
  4 39  1  0
  4 40  1  0
  4 41  1  0
  5 42  1  0
  9 43  1  0
 10 44  1  0
 12 45  1  0
 12 46  1  0
 17 47  1  0
 18 48  1  0
 20 49  1  0
 23 50  1  0
 23 51  1  0
 25 52  1  0
 26 53  1  0
 29 54  1  0
 30 55  1  0
 31 56  1  0
 32 57  1  0
M  END
$$$$
