
     RDKit          3D

 71 75  0  0  0  0  0  0  0  0999 V2000
   -4.0486    5.4143   -0.5408 C   0  0  0  0  0  0  0  0  0  0  0  0
   -3.5759    4.9085    0.7014 O   0  0  0  0  0  0  0  0  0  0  0  0
   -2.9637    3.6864    0.6735 C   0  0  0  0  0  0  0  0  0  0  0  0
   -2.4608    3.2557    1.9010 C   0  0  0  0  0  0  0  0  0  0  0  0
   -1.8163    2.0206    2.0141 C   0  0  0  0  0  0  0  0  0  0  0  0
   -1.6689    1.1792    0.8999 C   0  0  0  0  0  0  0  0  0  0  0  0
   -0.9635   -0.1668    1.0673 C   0  0  0  0  0  0  0  0  0  0  0  0
   -1.6340   -1.3589    0.3297 C   0  0  0  0  0  0  0  0  0  0  0  0
   -3.0064   -1.7058    0.9372 C   0  0  0  0  0  0  0  0  0  0  0  0
   -3.6916   -2.7739    0.1940 N   0  0  0  0  0  0  0  0  0  0  0  0
   -3.1059   -4.1162    0.3984 C   0  0  0  0  0  0  0  0  0  0  0  0
   -3.9189   -5.0061    1.3534 C   0  0  0  0  0  0  0  0  0  0  0  0
   -5.2719   -5.2154    0.9258 O   0  0  0  0  0  0  0  0  0  0  0  0
   -5.7911   -4.1207    0.1560 C   0  0  0  0  0  0  0  0  0  0  0  0
   -5.1354   -2.7813    0.5185 C   0  0  0  0  0  0  0  0  0  0  0  0
    0.5474   -0.0611    0.8190 C   0  0  0  0  0  0  0  0  0  0  0  0
    1.4348    0.0241    1.9050 C   0  0  0  0  0  0  0  0  0  0  0  0
    0.9230   -0.0298    3.1781 O   0  0  0  0  0  0  0  0  0  0  0  0
    1.4115    1.0096    4.0268 C   0  0  0  0  0  0  0  0  0  0  0  0
    2.8169    0.0752    1.6994 C   0  0  0  0  0  0  0  0  0  0  0  0
    3.3488    0.1154    0.4053 C   0  0  0  0  0  0  0  0  0  0  0  0
    4.7058    0.1052    0.2094 O   0  0  0  0  0  0  0  0  0  0  0  0
    5.4443    0.9880    1.0486 C   0  0  0  0  0  0  0  0  0  0  0  0
    2.4991    0.0735   -0.7144 C   0  0  0  0  0  0  0  0  0  0  0  0
    2.9728    0.1279   -2.1199 C   0  0  0  0  0  0  0  0  0  0  0  0
    4.3675    0.2680   -2.5898 C   0  0  0  0  0  0  0  0  0  0  0  0
    4.9297    1.5413   -2.7572 C   0  0  0  0  0  0  0  0  0  0  0  0
    6.2374    1.6763   -3.2269 C   0  0  0  0  0  0  0  0  0  0  0  0
    6.9882    0.5425   -3.5340 C   0  0  0  0  0  0  0  0  0  0  0  0
    6.4364   -0.7274   -3.3688 C   0  0  0  0  0  0  0  0  0  0  0  0
    5.1289   -0.8667   -2.8994 C   0  0  0  0  0  0  0  0  0  0  0  0
    2.0687    0.0771   -3.1111 C   0  0  0  0  0  0  0  0  0  0  0  0
    0.6284   -0.0308   -2.8832 C   0  0  0  0  0  0  0  0  0  0  0  0
   -0.1618   -0.0786   -3.8185 O   0  0  0  0  0  0  0  0  0  0  0  0
    0.2196   -0.0701   -1.5678 O   0  0  0  0  0  0  0  0  0  0  0  0
    1.1154   -0.0170   -0.4741 C   0  0  0  0  0  0  0  0  0  0  0  0
   -2.1753    1.6249   -0.3293 C   0  0  0  0  0  0  0  0  0  0  0  0
   -2.8140    2.8669   -0.4432 C   0  0  0  0  0  0  0  0  0  0  0  0
   -4.8116    4.7577   -0.9760 H   0  0  0  0  0  0  0  0  0  0  0  0
   -4.5165    6.3852   -0.3488 H   0  0  0  0  0  0  0  0  0  0  0  0
   -3.2186    5.5755   -1.2399 H   0  0  0  0  0  0  0  0  0  0  0  0
   -2.5727    3.8868    2.7793 H   0  0  0  0  0  0  0  0  0  0  0  0
   -1.4377    1.7158    2.9870 H   0  0  0  0  0  0  0  0  0  0  0  0
   -1.0930   -0.4356    2.1249 H   0  0  0  0  0  0  0  0  0  0  0  0
   -1.7647   -1.1601   -0.7390 H   0  0  0  0  0  0  0  0  0  0  0  0
   -0.9706   -2.2296    0.4024 H   0  0  0  0  0  0  0  0  0  0  0  0
   -3.6284   -0.8028    0.9025 H   0  0  0  0  0  0  0  0  0  0  0  0
   -2.8982   -1.9808    1.9948 H   0  0  0  0  0  0  0  0  0  0  0  0
   -3.0825   -4.6019   -0.5856 H   0  0  0  0  0  0  0  0  0  0  0  0
   -2.0689   -4.0711    0.7453 H   0  0  0  0  0  0  0  0  0  0  0  0
   -3.9419   -4.5713    2.3602 H   0  0  0  0  0  0  0  0  0  0  0  0
   -3.4479   -5.9910    1.4378 H   0  0  0  0  0  0  0  0  0  0  0  0
   -6.8696   -4.0761    0.3442 H   0  0  0  0  0  0  0  0  0  0  0  0
   -5.6559   -4.3552   -0.9084 H   0  0  0  0  0  0  0  0  0  0  0  0
   -5.6273   -1.9693   -0.0284 H   0  0  0  0  0  0  0  0  0  0  0  0
   -5.2850   -2.6086    1.5921 H   0  0  0  0  0  0  0  0  0  0  0  0
    2.3911    0.7437    4.4404 H   0  0  0  0  0  0  0  0  0  0  0  0
    0.7107    1.1119    4.8629 H   0  0  0  0  0  0  0  0  0  0  0  0
    1.4573    1.9752    3.5071 H   0  0  0  0  0  0  0  0  0  0  0  0
    3.4821    0.0374    2.5560 H   0  0  0  0  0  0  0  0  0  0  0  0
    4.9430    1.9552    1.1693 H   0  0  0  0  0  0  0  0  0  0  0  0
    5.6344    0.5238    2.0211 H   0  0  0  0  0  0  0  0  0  0  0  0
    6.4113    1.1700    0.5712 H   0  0  0  0  0  0  0  0  0  0  0  0
    4.3531    2.4317   -2.5201 H   0  0  0  0  0  0  0  0  0  0  0  0
    6.6698    2.6654   -3.3556 H   0  0  0  0  0  0  0  0  0  0  0  0
    8.0054    0.6486   -3.9026 H   0  0  0  0  0  0  0  0  0  0  0  0
    7.0235   -1.6107   -3.6040 H   0  0  0  0  0  0  0  0  0  0  0  0
    4.7111   -1.8623   -2.7699 H   0  0  0  0  0  0  0  0  0  0  0  0
    2.3527    0.1182   -4.1576 H   0  0  0  0  0  0  0  0  0  0  0  0
   -2.0889    1.0145   -1.2253 H   0  0  0  0  0  0  0  0  0  0  0  0
   -3.1865    3.1556   -1.4203 H   0  0  0  0  0  0  0  0  0  0  0  0
  1  2  1  0
  2  3  1  0
  3  4  2  0
  4  5  1  0
  5  6  2  0
  6  7  1  0
  7  8  1  0
  8  9  1  0
  9 10  1  0
 10 11  1  0
 11 12  1  0
 12 13  1  0
 13 14  1  0
 14 15  1  0
  7 16  1  0
 16 17  2  0
 17 18  1  0
 18 19  1  0
 17 20  1  0
 20 21  2  0
 21 22  1  0
 22 23  1  0
 21 24  1  0
 24 25  1  0
 25 26  1  0
 26 27  2  0
 27 28  1  0
 28 29  2  0
 29 30  1  0
 30 31  2  0
 25 32  2  0
 32 33  1  0
 33 34  2  0
 33 35  1  0
 35 36  1  0
  6 37  1  0
 37 38  2  0
 38  3  1  0
 15 10  1  0
 36 16  1  0
 36 24  2  0
 31 26  1  0
  1 39  1  0
  1 40  1  0
  1 41  1  0
  4 42  1  0
  5 43  1  0
  7 44  1  0
  8 45  1  0
  8 46  1  0
  9 47  1  0
  9 48  1  0
 11 49  1  0
 11 50  1  0
 12 51  1  0
 12 52  1  0
 14 53  1  0
 14 54  1  0
 15 55  1  0
 15 56  1  0
 19 57  1  0
 19 58  1  0
 19 59  1  0
 20 60  1  0
 23 61  1  0
 23 62  1  0
 23 63  1  0
 27 64  1  0
 28 65  1  0
 29 66  1  0
 30 67  1  0
 31 68  1  0
 32 69  1  0
 37 70  1  0
 38 71  1  0
M  END
$$$$
