
     RDKit          3D

 45 47  0  0  0  0  0  0  0  0999 V2000
    7.8572   -1.2468   -0.6885 C   0  0  0  0  0  0  0  0  0  0  0  0
    6.8680   -0.4304    0.0914 C   0  0  0  0  0  0  0  0  0  0  0  0
    7.3119    0.5166    1.0229 C   0  0  0  0  0  0  0  0  0  0  0  0
    6.3974    1.2855    1.7436 C   0  0  0  0  0  0  0  0  0  0  0  0
    5.0292    1.1293    1.5254 C   0  0  0  0  0  0  0  0  0  0  0  0
    4.5717    0.2122    0.5727 C   0  0  0  0  0  0  0  0  0  0  0  0
    3.1044    0.0872    0.3646 C   0  0  0  0  0  0  0  0  0  0  0  0
    2.3264    0.3046    1.2896 O   0  0  0  0  0  0  0  0  0  0  0  0
    2.6942   -0.2356   -0.9230 N   0  0  0  0  0  0  0  0  0  0  0  0
    1.4117   -0.4729   -1.4031 C   0  0  0  0  0  0  0  0  0  0  0  0
    1.3158   -0.8110   -3.0353 S   0  0  0  0  0  0  0  0  0  0  0  0
    0.4237   -0.3883   -0.4518 N   0  0  0  0  0  0  0  0  0  0  0  0
   -0.9746   -0.5829   -0.4682 C   0  0  0  0  0  0  0  0  0  0  0  0
   -1.6453   -0.3108    0.7336 C   0  0  0  0  0  0  0  0  0  0  0  0
   -3.0308   -0.4665    0.8447 C   0  0  0  0  0  0  0  0  0  0  0  0
   -3.7835   -0.9014   -0.2497 C   0  0  0  0  0  0  0  0  0  0  0  0
   -5.2811   -1.0741   -0.1414 C   0  0  0  0  0  0  0  0  0  0  0  0
   -6.0376    0.2106    0.1023 C   0  0  0  0  0  0  0  0  0  0  0  0
   -6.8146    0.3759    1.2525 C   0  0  0  0  0  0  0  0  0  0  0  0
   -7.5004    1.5685    1.4276 C   0  0  0  0  0  0  0  0  0  0  0  0
   -7.4680    2.5917    0.5482 N   0  0  0  0  0  0  0  0  0  0  0  0
   -6.7131    2.4134   -0.5567 C   0  0  0  0  0  0  0  0  0  0  0  0
   -5.9941    1.2585   -0.8230 C   0  0  0  0  0  0  0  0  0  0  0  0
   -3.1166   -1.1827   -1.4469 C   0  0  0  0  0  0  0  0  0  0  0  0
   -1.7270   -1.0256   -1.5531 C   0  0  0  0  0  0  0  0  0  0  0  0
    5.4916   -0.5733   -0.1371 C   0  0  0  0  0  0  0  0  0  0  0  0
    8.1175   -0.7306   -1.6176 H   0  0  0  0  0  0  0  0  0  0  0  0
    7.4440   -2.2310   -0.9330 H   0  0  0  0  0  0  0  0  0  0  0  0
    8.7707   -1.4137   -0.1082 H   0  0  0  0  0  0  0  0  0  0  0  0
    8.3769    0.6535    1.2020 H   0  0  0  0  0  0  0  0  0  0  0  0
    6.7515    2.0066    2.4766 H   0  0  0  0  0  0  0  0  0  0  0  0
    4.3221    1.7296    2.0947 H   0  0  0  0  0  0  0  0  0  0  0  0
    3.3954   -0.2797   -1.6495 H   0  0  0  0  0  0  0  0  0  0  0  0
    0.7850   -0.0935    0.4579 H   0  0  0  0  0  0  0  0  0  0  0  0
   -1.0952    0.0346    1.6068 H   0  0  0  0  0  0  0  0  0  0  0  0
   -3.5153   -0.2382    1.7915 H   0  0  0  0  0  0  0  0  0  0  0  0
   -5.4816   -1.7950    0.6622 H   0  0  0  0  0  0  0  0  0  0  0  0
   -5.6807   -1.5360   -1.0537 H   0  0  0  0  0  0  0  0  0  0  0  0
   -6.8892   -0.4036    2.0033 H   0  0  0  0  0  0  0  0  0  0  0  0
   -8.1137    1.7361    2.3083 H   0  0  0  0  0  0  0  0  0  0  0  0
   -6.6992    3.2511   -1.2480 H   0  0  0  0  0  0  0  0  0  0  0  0
   -5.4061    1.1849   -1.7321 H   0  0  0  0  0  0  0  0  0  0  0  0
   -3.6698   -1.5305   -2.3170 H   0  0  0  0  0  0  0  0  0  0  0  0
   -1.2816   -1.2735   -2.5067 H   0  0  0  0  0  0  0  0  0  0  0  0
    5.1527   -1.3228   -0.8479 H   0  0  0  0  0  0  0  0  0  0  0  0
  1  2  1  0
  2  3  2  0
  3  4  1  0
  4  5  2  0
  5  6  1  0
  6  7  1  0
  7  8  2  0
  7  9  1  0
  9 10  1  0
 10 11  2  0
 10 12  1  0
 12 13  1  0
 13 14  2  0
 14 15  1  0
 15 16  2  0
 16 17  1  0
 17 18  1  0
 18 19  2  0
 19 20  1  0
 20 21  2  0
 21 22  1  0
 22 23  2  0
 16 24  1  0
 24 25  2  0
  6 26  2  0
 26  2  1  0
 25 13  1  0
 23 18  1  0
  1 27  1  0
  1 28  1  0
  1 29  1  0
  3 30  1  0
  4 31  1  0
  5 32  1  0
  9 33  1  0
 12 34  1  0
 14 35  1  0
 15 36  1  0
 17 37  1  0
 17 38  1  0
 19 39  1  0
 20 40  1  0
 22 41  1  0
 23 42  1  0
 24 43  1  0
 25 44  1  0
 26 45  1  0
M  END
$$$$
