
     RDKit          3D

 46 48  0  0  0  0  0  0  0  0999 V2000
    5.2217   -1.8898   -0.1873 C   0  0  0  0  0  0  0  0  0  0  0  0
    4.1965   -1.1592   -1.0338 C   0  0  0  0  0  0  0  0  0  0  0  0
    3.3498   -0.3565   -0.1990 O   0  0  0  0  0  0  0  0  0  0  0  0
    2.2638   -0.9857    0.3468 C   0  0  0  0  0  0  0  0  0  0  0  0
    1.9865   -2.1621    0.1330 O   0  0  0  0  0  0  0  0  0  0  0  0
    1.4421   -0.0264    1.2332 C   0  0  0  0  0  0  0  0  0  0  0  0
    2.2257    0.0032    2.5652 C   0  0  0  0  0  0  0  0  0  0  0  0
    2.3639   -1.2277    3.1177 F   0  0  0  0  0  0  0  0  0  0  0  0
    1.5999    0.7775    3.4923 F   0  0  0  0  0  0  0  0  0  0  0  0
    3.4765    0.5112    2.4262 F   0  0  0  0  0  0  0  0  0  0  0  0
    1.3874    1.3084    0.6057 N   0  0  0  0  0  0  0  0  0  0  0  0
    0.4329    1.4566   -0.2364 C   0  0  0  0  0  0  0  0  0  0  0  0
    0.2874    2.6582   -1.0836 C   0  0  0  0  0  0  0  0  0  0  0  0
    1.1408    3.7498   -0.9006 C   0  0  0  0  0  0  0  0  0  0  0  0
    0.9980    4.8792   -1.7047 C   0  0  0  0  0  0  0  0  0  0  0  0
    0.0040    4.8784   -2.6699 C   0  0  0  0  0  0  0  0  0  0  0  0
   -0.8362    3.8413   -2.8788 N   0  0  0  0  0  0  0  0  0  0  0  0
   -0.6743    2.7549   -2.0826 C   0  0  0  0  0  0  0  0  0  0  0  0
   -0.5604    0.5796   -0.4539 O   0  0  0  0  0  0  0  0  0  0  0  0
   -0.7715   -0.3180    0.5344 C   0  0  0  0  0  0  0  0  0  0  0  0
   -2.0233   -0.8926    0.4870 N   0  0  0  0  0  0  0  0  0  0  0  0
   -2.3524   -2.0017    1.3904 C   0  0  0  0  0  0  0  0  0  0  0  0
   -3.3078   -2.9822    0.7174 C   0  0  0  0  0  0  0  0  0  0  0  0
   -4.6138   -2.3135    0.2962 C   0  0  0  0  0  0  0  0  0  0  0  0
   -4.4455   -0.8211    0.0256 C   0  0  0  0  0  0  0  0  0  0  0  0
   -3.0455   -0.4850   -0.4780 C   0  0  0  0  0  0  0  0  0  0  0  0
    0.1002   -0.5917    1.4323 N   0  0  0  0  0  0  0  0  0  0  0  0
    4.7361   -2.5779    0.5118 H   0  0  0  0  0  0  0  0  0  0  0  0
    5.7989   -1.1802    0.4145 H   0  0  0  0  0  0  0  0  0  0  0  0
    5.9099   -2.4600   -0.8175 H   0  0  0  0  0  0  0  0  0  0  0  0
    4.7064   -0.4768   -1.7217 H   0  0  0  0  0  0  0  0  0  0  0  0
    3.6104   -1.8539   -1.6461 H   0  0  0  0  0  0  0  0  0  0  0  0
    1.9141    3.7289   -0.1360 H   0  0  0  0  0  0  0  0  0  0  0  0
    1.6474    5.7390   -1.5795 H   0  0  0  0  0  0  0  0  0  0  0  0
   -0.1464    5.7362   -3.3199 H   0  0  0  0  0  0  0  0  0  0  0  0
   -1.3676    1.9468   -2.2960 H   0  0  0  0  0  0  0  0  0  0  0  0
   -1.4508   -2.5557    1.6772 H   0  0  0  0  0  0  0  0  0  0  0  0
   -2.7966   -1.6011    2.3092 H   0  0  0  0  0  0  0  0  0  0  0  0
   -3.5216   -3.8250    1.3843 H   0  0  0  0  0  0  0  0  0  0  0  0
   -2.8203   -3.4028   -0.1720 H   0  0  0  0  0  0  0  0  0  0  0  0
   -4.9979   -2.8167   -0.5993 H   0  0  0  0  0  0  0  0  0  0  0  0
   -5.3739   -2.4498    1.0748 H   0  0  0  0  0  0  0  0  0  0  0  0
   -4.6348   -0.2667    0.9542 H   0  0  0  0  0  0  0  0  0  0  0  0
   -5.2002   -0.4883   -0.6960 H   0  0  0  0  0  0  0  0  0  0  0  0
   -3.0028    0.5971   -0.6473 H   0  0  0  0  0  0  0  0  0  0  0  0
   -2.8567   -0.9784   -1.4387 H   0  0  0  0  0  0  0  0  0  0  0  0
  1  2  1  0
  2  3  1  0
  3  4  1  0
  4  5  2  0
  4  6  1  0
  6  7  1  0
  7  8  1  0
  7  9  1  0
  7 10  1  0
  6 11  1  0
 11 12  2  0
 12 13  1  0
 13 14  2  0
 14 15  1  0
 15 16  2  0
 16 17  1  0
 17 18  2  0
 12 19  1  0
 19 20  1  0
 20 21  1  0
 21 22  1  0
 22 23  1  0
 23 24  1  0
 24 25  1  0
 25 26  1  0
 20 27  2  0
 27  6  1  0
 18 13  1  0
 26 21  1  0
  1 28  1  0
  1 29  1  0
  1 30  1  0
  2 31  1  0
  2 32  1  0
 14 33  1  0
 15 34  1  0
 16 35  1  0
 18 36  1  0
 22 37  1  0
 22 38  1  0
 23 39  1  0
 23 40  1  0
 24 41  1  0
 24 42  1  0
 25 43  1  0
 25 44  1  0
 26 45  1  0
 26 46  1  0
M  END
$$$$
