
     RDKit          3D

 45 47  0  0  0  0  0  0  0  0999 V2000
   -4.4834    1.0831    2.0699 C   0  0  0  0  0  0  0  0  0  0  0  0
   -3.3093    0.2002    1.6579 C   0  0  0  0  0  0  0  0  0  0  0  0
   -3.4489   -0.3000    0.2683 N   0  0  0  0  0  0  0  0  0  0  0  0
   -4.4096   -1.4236    0.2198 C   0  0  0  0  0  0  0  0  0  0  0  0
   -4.9244   -1.6757   -1.1946 C   0  0  0  0  0  0  0  0  0  0  0  0
   -2.1165   -0.7420   -0.2309 C   0  0  0  0  0  0  0  0  0  0  0  0
   -1.2092    0.4082   -0.6357 C   0  0  0  0  0  0  0  0  0  0  0  0
   -1.7084    1.5742   -1.2422 C   0  0  0  0  0  0  0  0  0  0  0  0
   -3.0490    1.7732   -1.4298 O   0  0  0  0  0  0  0  0  0  0  0  0
   -0.8667    2.5955   -1.6775 C   0  0  0  0  0  0  0  0  0  0  0  0
    0.5100    2.4723   -1.5155 C   0  0  0  0  0  0  0  0  0  0  0  0
    1.0348    1.3186   -0.9259 C   0  0  0  0  0  0  0  0  0  0  0  0
    2.4943    1.1748   -0.7602 C   0  0  0  0  0  0  0  0  0  0  0  0
    3.2534    2.0697   -1.1139 O   0  0  0  0  0  0  0  0  0  0  0  0
    2.9761   -0.0963   -0.1527 C   0  0  0  0  0  0  0  0  0  0  0  0
    4.4056   -0.3721    0.0842 C   0  0  0  0  0  0  0  0  0  0  0  0
    4.9864   -1.5825   -0.3275 C   0  0  0  0  0  0  0  0  0  0  0  0
    6.3390   -1.8421   -0.0913 C   0  0  0  0  0  0  0  0  0  0  0  0
    7.1286   -0.8945    0.5557 C   0  0  0  0  0  0  0  0  0  0  0  0
    6.5685    0.3142    0.9625 C   0  0  0  0  0  0  0  0  0  0  0  0
    5.2160    0.5741    0.7270 C   0  0  0  0  0  0  0  0  0  0  0  0
    2.0401   -0.9871    0.2084 C   0  0  0  0  0  0  0  0  0  0  0  0
    0.6815   -0.8624    0.0634 O   0  0  0  0  0  0  0  0  0  0  0  0
    0.1876    0.2918   -0.4978 C   0  0  0  0  0  0  0  0  0  0  0  0
   -5.4214    0.5252    2.1354 H   0  0  0  0  0  0  0  0  0  0  0  0
   -4.6215    1.9080    1.3629 H   0  0  0  0  0  0  0  0  0  0  0  0
   -4.2919    1.5184    3.0564 H   0  0  0  0  0  0  0  0  0  0  0  0
   -2.4113    0.8235    1.7477 H   0  0  0  0  0  0  0  0  0  0  0  0
   -3.1880   -0.6280    2.3674 H   0  0  0  0  0  0  0  0  0  0  0  0
   -5.2921   -1.1987    0.8281 H   0  0  0  0  0  0  0  0  0  0  0  0
   -3.9709   -2.3403    0.6337 H   0  0  0  0  0  0  0  0  0  0  0  0
   -5.3537   -0.7642   -1.6241 H   0  0  0  0  0  0  0  0  0  0  0  0
   -5.7116   -2.4368   -1.1727 H   0  0  0  0  0  0  0  0  0  0  0  0
   -4.1404   -2.0364   -1.8659 H   0  0  0  0  0  0  0  0  0  0  0  0
   -2.2246   -1.3516   -1.1352 H   0  0  0  0  0  0  0  0  0  0  0  0
   -1.6428   -1.3809    0.5249 H   0  0  0  0  0  0  0  0  0  0  0  0
   -3.5120    1.0875   -0.8972 H   0  0  0  0  0  0  0  0  0  0  0  0
   -1.2871    3.4851   -2.1394 H   0  0  0  0  0  0  0  0  0  0  0  0
    1.1683    3.2698   -1.8530 H   0  0  0  0  0  0  0  0  0  0  0  0
    4.3954   -2.3318   -0.8495 H   0  0  0  0  0  0  0  0  0  0  0  0
    6.7774   -2.7812   -0.4193 H   0  0  0  0  0  0  0  0  0  0  0  0
    8.1820   -1.0932    0.7350 H   0  0  0  0  0  0  0  0  0  0  0  0
    7.1841    1.0610    1.4573 H   0  0  0  0  0  0  0  0  0  0  0  0
    4.8027    1.5298    1.0445 H   0  0  0  0  0  0  0  0  0  0  0  0
    2.2634   -1.9365    0.6811 H   0  0  0  0  0  0  0  0  0  0  0  0
  1  2  1  0
  2  3  1  0
  3  4  1  0
  4  5  1  0
  3  6  1  0
  6  7  1  0
  7  8  2  0
  8  9  1  0
  8 10  1  0
 10 11  2  0
 11 12  1  0
 12 13  1  0
 13 14  2  0
 13 15  1  0
 15 16  1  0
 16 17  2  0
 17 18  1  0
 18 19  2  0
 19 20  1  0
 20 21  2  0
 15 22  2  0
 22 23  1  0
 23 24  1  0
 24  7  1  0
 24 12  2  0
 21 16  1  0
  1 25  1  0
  1 26  1  0
  1 27  1  0
  2 28  1  0
  2 29  1  0
  4 30  1  0
  4 31  1  0
  5 32  1  0
  5 33  1  0
  5 34  1  0
  6 35  1  0
  6 36  1  0
  9 37  1  0
 10 38  1  0
 11 39  1  0
 17 40  1  0
 18 41  1  0
 19 42  1  0
 20 43  1  0
 21 44  1  0
 22 45  1  0
M  END
$$$$
