
     RDKit          3D

 48 51  0  0  0  0  0  0  0  0999 V2000
    4.2894    2.4457   -0.9004 C   0  0  0  0  0  0  0  0  0  0  0  0
    3.4942    1.2758   -0.3246 C   0  0  0  0  0  0  0  0  0  0  0  0
    3.8893    1.0309    1.1331 C   0  0  0  0  0  0  0  0  0  0  0  0
    3.7037    0.0173   -1.1771 C   0  0  0  0  0  0  0  0  0  0  0  0
    2.9057   -1.0754   -0.6969 O   0  0  0  0  0  0  0  0  0  0  0  0
    1.6374   -1.1314   -1.1828 C   0  0  0  0  0  0  0  0  0  0  0  0
    1.1303   -0.3518   -1.9724 O   0  0  0  0  0  0  0  0  0  0  0  0
    0.9602   -2.3387   -0.6434 C   0  0  0  0  0  0  0  0  0  0  0  0
    1.6738   -3.5518   -0.6788 C   0  0  0  0  0  0  0  0  0  0  0  0
    1.0439   -4.7582   -0.3704 C   0  0  0  0  0  0  0  0  0  0  0  0
   -0.3089   -4.7695   -0.0446 C   0  0  0  0  0  0  0  0  0  0  0  0
   -1.0301   -3.5743   -0.0056 C   0  0  0  0  0  0  0  0  0  0  0  0
   -0.3991   -2.3491   -0.2844 C   0  0  0  0  0  0  0  0  0  0  0  0
   -1.1555   -1.1490   -0.1374 N   0  0  0  0  0  0  0  0  0  0  0  0
   -2.4972   -0.9624   -0.5344 C   0  0  0  0  0  0  0  0  0  0  0  0
   -3.2061   -1.9032   -1.1521 O   0  0  0  0  0  0  0  0  0  0  0  0
   -2.8251    0.3225   -0.2149 C   0  0  0  0  0  0  0  0  0  0  0  0
   -1.7283    0.9290    0.4226 C   0  0  0  0  0  0  0  0  0  0  0  0
   -0.7173    0.0197    0.5186 C   0  0  0  0  0  0  0  0  0  0  0  0
    0.4580    0.0989    1.1347 O   0  0  0  0  0  0  0  0  0  0  0  0
   -2.1383    2.3214    0.7836 C   0  0  0  0  0  0  0  0  0  0  0  0
   -3.2120    2.2302    1.8986 C   0  0  0  0  0  0  0  0  0  0  0  0
   -4.4306    1.5607    1.1824 C   0  0  0  0  0  0  0  0  0  0  0  0
   -3.9240    1.3368   -0.2661 C   0  0  0  0  0  0  0  0  0  0  0  0
   -3.0701    2.6369   -0.4326 C   0  0  0  0  0  0  0  0  0  0  0  0
    5.3641    2.2340   -0.9029 H   0  0  0  0  0  0  0  0  0  0  0  0
    4.1246    3.3550   -0.3127 H   0  0  0  0  0  0  0  0  0  0  0  0
    3.9823    2.6542   -1.9307 H   0  0  0  0  0  0  0  0  0  0  0  0
    2.4306    1.5419   -0.3373 H   0  0  0  0  0  0  0  0  0  0  0  0
    4.9474    0.7603    1.2167 H   0  0  0  0  0  0  0  0  0  0  0  0
    3.7221    1.9302    1.7354 H   0  0  0  0  0  0  0  0  0  0  0  0
    3.2983    0.2225    1.5748 H   0  0  0  0  0  0  0  0  0  0  0  0
    3.4942    0.2112   -2.2365 H   0  0  0  0  0  0  0  0  0  0  0  0
    4.7492   -0.3077   -1.1227 H   0  0  0  0  0  0  0  0  0  0  0  0
    2.7192   -3.5660   -0.9795 H   0  0  0  0  0  0  0  0  0  0  0  0
    1.6039   -5.6892   -0.4047 H   0  0  0  0  0  0  0  0  0  0  0  0
   -0.8061   -5.7082    0.1870 H   0  0  0  0  0  0  0  0  0  0  0  0
   -2.0782   -3.6106    0.2839 H   0  0  0  0  0  0  0  0  0  0  0  0
   -4.0553   -1.4985   -1.4007 H   0  0  0  0  0  0  0  0  0  0  0  0
    0.5332    1.0053    1.4803 H   0  0  0  0  0  0  0  0  0  0  0  0
   -1.3278    3.0291    0.9562 H   0  0  0  0  0  0  0  0  0  0  0  0
   -2.8779    1.6353    2.7556 H   0  0  0  0  0  0  0  0  0  0  0  0
   -3.4925    3.2279    2.2545 H   0  0  0  0  0  0  0  0  0  0  0  0
   -4.7182    0.6262    1.6762 H   0  0  0  0  0  0  0  0  0  0  0  0
   -5.2894    2.2411    1.1959 H   0  0  0  0  0  0  0  0  0  0  0  0
   -4.6919    1.1732   -1.0217 H   0  0  0  0  0  0  0  0  0  0  0  0
   -2.5254    2.6637   -1.3847 H   0  0  0  0  0  0  0  0  0  0  0  0
   -3.6499    3.5583   -0.3105 H   0  0  0  0  0  0  0  0  0  0  0  0
  1  2  1  0
  2  3  1  0
  2  4  1  0
  4  5  1  0
  5  6  1  0
  6  7  2  0
  6  8  1  0
  8  9  2  0
  9 10  1  0
 10 11  2  0
 11 12  1  0
 12 13  2  0
 13 14  1  0
 14 15  1  0
 15 16  1  0
 15 17  2  0
 17 18  1  0
 18 19  2  0
 19 20  1  0
 18 21  1  0
 21 22  1  0
 22 23  1  0
 23 24  1  0
 24 25  1  0
 13  8  1  0
 19 14  1  0
 25 21  1  0
 24 17  1  0
  1 26  1  0
  1 27  1  0
  1 28  1  0
  2 29  1  0
  3 30  1  0
  3 31  1  0
  3 32  1  0
  4 33  1  0
  4 34  1  0
  9 35  1  0
 10 36  1  0
 11 37  1  0
 12 38  1  0
 16 39  1  0
 20 40  1  0
 21 41  1  0
 22 42  1  0
 22 43  1  0
 23 44  1  0
 23 45  1  0
 24 46  1  0
 25 47  1  0
 25 48  1  0
M  END
$$$$
