
     RDKit          3D

 66 68  0  0  0  0  0  0  0  0999 V2000
   -7.2786   -2.5120    3.0216 C   0  0  0  0  0  0  0  0  0  0  0  0
   -5.7954   -2.7958    2.8663 C   0  0  0  0  0  0  0  0  0  0  0  0
   -5.2320   -1.9061    1.9014 O   0  0  0  0  0  0  0  0  0  0  0  0
   -4.3724   -0.9422    2.3694 C   0  0  0  0  0  0  0  0  0  0  0  0
   -4.5468   -0.2963    3.5992 C   0  0  0  0  0  0  0  0  0  0  0  0
   -3.6411    0.6789    4.0183 C   0  0  0  0  0  0  0  0  0  0  0  0
   -2.5601    1.0199    3.2109 C   0  0  0  0  0  0  0  0  0  0  0  0
   -2.3928    0.3988    1.9724 C   0  0  0  0  0  0  0  0  0  0  0  0
   -3.3110   -0.5633    1.5228 C   0  0  0  0  0  0  0  0  0  0  0  0
   -3.1261   -1.2268    0.2175 C   0  0  0  0  0  0  0  0  0  0  0  0
   -2.9139   -0.6818   -0.9923 C   0  0  0  0  0  0  0  0  0  0  0  0
   -2.8645    0.7165   -1.2592 C   0  0  0  0  0  0  0  0  0  0  0  0
   -3.6569    1.6339   -0.6034 O   0  0  0  0  0  0  0  0  0  0  0  0
   -3.4258    2.9094   -1.0619 N   0  0  0  0  0  0  0  0  0  0  0  0
   -2.5028    2.7950   -2.0208 C   0  0  0  0  0  0  0  0  0  0  0  0
   -2.0539    4.0128   -2.7362 C   0  0  0  0  0  0  0  0  0  0  0  0
   -2.1090    1.4446   -2.1678 C   0  0  0  0  0  0  0  0  0  0  0  0
   -0.9058    0.8378   -3.2278 S   0  0  0  0  0  6  0  0  0  0  0  0
   -0.6146    1.9317   -4.1271 O   0  0  0  0  0  0  0  0  0  0  0  0
   -1.4499   -0.4097   -3.7190 O   0  0  0  0  0  0  0  0  0  0  0  0
    0.4934    0.5088   -2.3307 N   0  0  0  0  0  0  0  0  0  0  0  0
    1.2866    1.6680   -1.8641 C   0  0  0  0  0  0  0  0  0  0  0  0
    1.9699    1.3937   -0.5252 C   0  0  0  0  0  0  0  0  0  0  0  0
    2.7596    0.0735   -0.5137 C   0  0  0  0  0  0  0  0  0  0  0  0
    4.1232    0.2548   -1.1959 C   0  0  0  0  0  0  0  0  0  0  0  0
    4.3259    1.2249   -1.9297 O   0  0  0  0  0  0  0  0  0  0  0  0
    5.1035   -0.7170   -0.9943 N   0  0  0  0  0  0  0  0  0  0  0  0
    5.0661   -1.7341    0.0614 C   0  0  0  0  0  0  0  0  0  0  0  0
    5.5285   -1.2126    1.4138 C   0  0  0  0  0  0  0  0  0  0  0  0
    6.3574   -0.5632   -1.7394 C   0  0  0  0  0  0  0  0  0  0  0  0
    7.3291    0.4200   -1.1064 C   0  0  0  0  0  0  0  0  0  0  0  0
    1.9660   -1.0641   -1.1819 C   0  0  0  0  0  0  0  0  0  0  0  0
    0.5185   -0.6866   -1.4775 C   0  0  0  0  0  0  0  0  0  0  0  0
   -7.7908   -2.6105    2.0583 H   0  0  0  0  0  0  0  0  0  0  0  0
   -7.4532   -1.4883    3.3681 H   0  0  0  0  0  0  0  0  0  0  0  0
   -7.7354   -3.2061    3.7315 H   0  0  0  0  0  0  0  0  0  0  0  0
   -5.6704   -3.8107    2.4700 H   0  0  0  0  0  0  0  0  0  0  0  0
   -5.2741   -2.7783    3.8307 H   0  0  0  0  0  0  0  0  0  0  0  0
   -5.3930   -0.5263    4.2411 H   0  0  0  0  0  0  0  0  0  0  0  0
   -3.7856    1.1794    4.9732 H   0  0  0  0  0  0  0  0  0  0  0  0
   -1.8573    1.7820    3.5391 H   0  0  0  0  0  0  0  0  0  0  0  0
   -1.5452    0.6866    1.3561 H   0  0  0  0  0  0  0  0  0  0  0  0
   -3.1994   -2.3124    0.2740 H   0  0  0  0  0  0  0  0  0  0  0  0
   -2.7963   -1.3580   -1.8362 H   0  0  0  0  0  0  0  0  0  0  0  0
   -0.9716    4.1448   -2.6451 H   0  0  0  0  0  0  0  0  0  0  0  0
   -2.3179    3.9564   -3.7967 H   0  0  0  0  0  0  0  0  0  0  0  0
   -2.5271    4.9131   -2.3287 H   0  0  0  0  0  0  0  0  0  0  0  0
    2.0220    1.9070   -2.6386 H   0  0  0  0  0  0  0  0  0  0  0  0
    0.6485    2.5493   -1.7410 H   0  0  0  0  0  0  0  0  0  0  0  0
    2.6196    2.2385   -0.2658 H   0  0  0  0  0  0  0  0  0  0  0  0
    1.2032    1.3515    0.2602 H   0  0  0  0  0  0  0  0  0  0  0  0
    2.9376   -0.1688    0.5402 H   0  0  0  0  0  0  0  0  0  0  0  0
    4.0490   -2.1144    0.1669 H   0  0  0  0  0  0  0  0  0  0  0  0
    5.6804   -2.5871   -0.2472 H   0  0  0  0  0  0  0  0  0  0  0  0
    5.3599   -1.9692    2.1872 H   0  0  0  0  0  0  0  0  0  0  0  0
    4.9917   -0.3034    1.7011 H   0  0  0  0  0  0  0  0  0  0  0  0
    6.5965   -0.9818    1.4079 H   0  0  0  0  0  0  0  0  0  0  0  0
    6.8288   -1.5446   -1.8559 H   0  0  0  0  0  0  0  0  0  0  0  0
    6.1151   -0.2144   -2.7501 H   0  0  0  0  0  0  0  0  0  0  0  0
    7.7375    0.0293   -0.1727 H   0  0  0  0  0  0  0  0  0  0  0  0
    6.8493    1.3766   -0.8880 H   0  0  0  0  0  0  0  0  0  0  0  0
    8.1716    0.6040   -1.7797 H   0  0  0  0  0  0  0  0  0  0  0  0
    2.4513   -1.3785   -2.1159 H   0  0  0  0  0  0  0  0  0  0  0  0
    1.9624   -1.9431   -0.5260 H   0  0  0  0  0  0  0  0  0  0  0  0
   -0.0237   -0.5011   -0.5446 H   0  0  0  0  0  0  0  0  0  0  0  0
    0.0422   -1.5329   -1.9837 H   0  0  0  0  0  0  0  0  0  0  0  0
  1  2  1  0
  2  3  1  0
  3  4  1  0
  4  5  2  0
  5  6  1  0
  6  7  2  0
  7  8  1  0
  8  9  2  0
  9 10  1  0
 10 11  2  3
 11 12  1  0
 12 13  1  0
 13 14  1  0
 14 15  2  0
 15 16  1  0
 15 17  1  0
 17 18  1  0
 18 19  2  0
 18 20  2  0
 18 21  1  0
 21 22  1  0
 22 23  1  0
 23 24  1  0
 24 25  1  0
 25 26  2  0
 25 27  1  0
 27 28  1  0
 28 29  1  0
 27 30  1  0
 30 31  1  0
 24 32  1  0
 32 33  1  0
  9  4  1  0
 17 12  2  0
 33 21  1  0
  1 34  1  0
  1 35  1  0
  1 36  1  0
  2 37  1  0
  2 38  1  0
  5 39  1  0
  6 40  1  0
  7 41  1  0
  8 42  1  0
 10 43  1  0
 11 44  1  0
 16 45  1  0
 16 46  1  0
 16 47  1  0
 22 48  1  0
 22 49  1  0
 23 50  1  0
 23 51  1  0
 24 52  1  0
 28 53  1  0
 28 54  1  0
 29 55  1  0
 29 56  1  0
 29 57  1  0
 30 58  1  0
 30 59  1  0
 31 60  1  0
 31 61  1  0
 31 62  1  0
 32 63  1  0
 32 64  1  0
 33 65  1  0
 33 66  1  0
M  END
$$$$
