
     RDKit          3D

 52 55  0  0  0  0  0  0  0  0999 V2000
   -4.0786    1.5535   -1.4772 C   0  0  0  0  0  0  0  0  0  0  0  0
   -3.6707    1.2621   -0.1427 O   0  0  0  0  0  0  0  0  0  0  0  0
   -4.6336    1.5358    0.8108 C   0  0  0  0  0  0  0  0  0  0  0  0
   -5.7842    2.1260    0.3933 N   0  0  0  0  0  0  0  0  0  0  0  0
   -6.7227    2.3867    1.3283 C   0  0  0  0  0  0  0  0  0  0  0  0
   -6.5697    2.0925    2.6702 C   0  0  0  0  0  0  0  0  0  0  0  0
   -5.3806    1.4944    3.0788 C   0  0  0  0  0  0  0  0  0  0  0  0
   -4.3776    1.2030    2.1428 C   0  0  0  0  0  0  0  0  0  0  0  0
   -3.1313    0.5563    2.6469 C   0  0  0  0  0  0  0  0  0  0  0  0
   -3.0365    0.2540    3.8343 O   0  0  0  0  0  0  0  0  0  0  0  0
   -2.1145    0.3274    1.7517 N   0  0  0  0  0  0  0  0  0  0  0  0
   -0.8402   -0.2255    2.1577 C   0  0  0  0  0  0  0  0  0  0  0  0
    0.0366    0.8494    2.8415 C   0  0  0  0  0  0  0  0  0  0  0  0
    1.5162    0.4340    2.8897 C   0  0  0  0  0  0  0  0  0  0  0  0
    2.1075    0.2446    1.4779 C   0  0  0  0  0  0  0  0  0  0  0  0
    1.1718   -0.5466    0.6284 C   0  0  0  0  0  0  0  0  0  0  0  0
   -0.1564   -0.7718    0.9484 C   0  0  0  0  0  0  0  0  0  0  0  0
   -0.6126   -1.6517   -0.0379 C   0  0  0  0  0  0  0  0  0  0  0  0
    0.3249   -1.9368   -0.9368 N   0  0  0  0  0  0  0  0  0  0  0  0
    1.4252   -1.2155   -0.5628 N   0  0  0  0  0  0  0  0  0  0  0  0
    2.5905   -1.2526   -1.3921 C   0  0  0  0  0  0  0  0  0  0  0  0
    3.6641   -0.3709   -1.2288 C   0  0  0  0  0  0  0  0  0  0  0  0
    4.7857   -0.4394   -2.0723 C   0  0  0  0  0  0  0  0  0  0  0  0
    5.9478    0.4912   -1.8716 C   0  0  0  0  0  0  0  0  0  0  0  0
    4.8380   -1.4130   -3.0754 C   0  0  0  0  0  0  0  0  0  0  0  0
    3.7704   -2.2943   -3.2676 C   0  0  0  0  0  0  0  0  0  0  0  0
    3.7991   -3.3155   -4.3671 C   0  0  0  0  0  0  0  0  0  0  0  0
    2.6494   -2.2009   -2.4306 C   0  0  0  0  0  0  0  0  0  0  0  0
   -3.2677    1.2475   -2.1442 H   0  0  0  0  0  0  0  0  0  0  0  0
   -4.2411    2.6285   -1.6142 H   0  0  0  0  0  0  0  0  0  0  0  0
   -4.9696    0.9806   -1.7553 H   0  0  0  0  0  0  0  0  0  0  0  0
   -7.6318    2.8537    0.9574 H   0  0  0  0  0  0  0  0  0  0  0  0
   -7.3542    2.3220    3.3828 H   0  0  0  0  0  0  0  0  0  0  0  0
   -5.2376    1.2535    4.1310 H   0  0  0  0  0  0  0  0  0  0  0  0
   -2.2077    0.6818    0.8044 H   0  0  0  0  0  0  0  0  0  0  0  0
   -1.0189   -1.0454    2.8658 H   0  0  0  0  0  0  0  0  0  0  0  0
   -0.0442    1.8040    2.3042 H   0  0  0  0  0  0  0  0  0  0  0  0
   -0.3306    1.0356    3.8577 H   0  0  0  0  0  0  0  0  0  0  0  0
    2.0995    1.1860    3.4336 H   0  0  0  0  0  0  0  0  0  0  0  0
    1.6033   -0.5062    3.4487 H   0  0  0  0  0  0  0  0  0  0  0  0
    2.2606    1.2327    1.0279 H   0  0  0  0  0  0  0  0  0  0  0  0
    3.0763   -0.2553    1.5747 H   0  0  0  0  0  0  0  0  0  0  0  0
   -1.5903   -2.1061   -0.1368 H   0  0  0  0  0  0  0  0  0  0  0  0
    3.6519    0.4137   -0.4849 H   0  0  0  0  0  0  0  0  0  0  0  0
    6.3932    0.7654   -2.8331 H   0  0  0  0  0  0  0  0  0  0  0  0
    5.6300    1.4198   -1.3847 H   0  0  0  0  0  0  0  0  0  0  0  0
    6.7090    0.0119   -1.2496 H   0  0  0  0  0  0  0  0  0  0  0  0
    5.7133   -1.4770   -3.7193 H   0  0  0  0  0  0  0  0  0  0  0  0
    4.7885   -3.3767   -4.8322 H   0  0  0  0  0  0  0  0  0  0  0  0
    3.0719   -3.0539   -5.1423 H   0  0  0  0  0  0  0  0  0  0  0  0
    3.5603   -4.3066   -3.9686 H   0  0  0  0  0  0  0  0  0  0  0  0
    1.8176   -2.8862   -2.5980 H   0  0  0  0  0  0  0  0  0  0  0  0
  1  2  1  0
  2  3  1  0
  3  4  2  0
  4  5  1  0
  5  6  2  0
  6  7  1  0
  7  8  2  0
  8  9  1  0
  9 10  2  0
  9 11  1  0
 11 12  1  0
 12 13  1  0
 13 14  1  0
 14 15  1  0
 15 16  1  0
 16 17  2  0
 17 18  1  0
 18 19  2  0
 19 20  1  0
 20 21  1  0
 21 22  2  0
 22 23  1  0
 23 24  1  0
 23 25  2  0
 25 26  1  0
 26 27  1  0
 26 28  2  0
  8  3  1  0
 17 12  1  0
 28 21  1  0
 20 16  1  0
  1 29  1  0
  1 30  1  0
  1 31  1  0
  5 32  1  0
  6 33  1  0
  7 34  1  0
 11 35  1  0
 12 36  1  0
 13 37  1  0
 13 38  1  0
 14 39  1  0
 14 40  1  0
 15 41  1  0
 15 42  1  0
 18 43  1  0
 22 44  1  0
 24 45  1  0
 24 46  1  0
 24 47  1  0
 25 48  1  0
 27 49  1  0
 27 50  1  0
 27 51  1  0
 28 52  1  0
M  END
$$$$
