
     RDKit          3D

 48 50  0  0  0  0  0  0  0  0999 V2000
    8.6541   -1.2338   -0.6547 C   0  0  0  0  0  0  0  0  0  0  0  0
    7.1598   -1.0881   -0.8785 C   0  0  0  0  0  0  0  0  0  0  0  0
    6.4765   -0.3908    0.2912 C   0  0  0  0  0  0  0  0  0  0  0  0
    5.0765   -0.2976   -0.0056 O   0  0  0  0  0  0  0  0  0  0  0  0
    4.3429    0.3082    0.9617 C   0  0  0  0  0  0  0  0  0  0  0  0
    4.7766    0.7540    2.0120 O   0  0  0  0  0  0  0  0  0  0  0  0
    2.9073    0.3625    0.5723 C   0  0  0  0  0  0  0  0  0  0  0  0
    2.4333   -0.1628   -0.6348 C   0  0  0  0  0  0  0  0  0  0  0  0
    1.0713   -0.0841   -0.9491 C   0  0  0  0  0  0  0  0  0  0  0  0
    0.1640    0.5192   -0.0684 C   0  0  0  0  0  0  0  0  0  0  0  0
   -1.1881    0.5497   -0.4641 N   0  0  0  0  0  0  0  0  0  0  0  0
   -2.2564    1.1178    0.2107 C   0  0  0  0  0  0  0  0  0  0  0  0
   -2.1879    1.7663    1.2484 O   0  0  0  0  0  0  0  0  0  0  0  0
   -3.5763    0.9304   -0.5326 C   0  0  0  0  0  0  0  0  0  0  0  0
   -4.8382    1.3998    0.2310 C   0  0  0  0  0  0  0  0  0  0  0  0
   -5.0345    0.6365    1.5581 C   0  0  0  0  0  0  0  0  0  0  0  0
   -5.4338   -0.7730    1.1038 C   0  0  0  0  0  0  0  0  0  0  0  0
   -5.3995   -0.6554   -0.4273 C   0  0  0  0  0  0  0  0  0  0  0  0
   -5.9323    0.7661   -0.6315 C   0  0  0  0  0  0  0  0  0  0  0  0
   -3.9186   -0.5400   -0.8676 C   0  0  0  0  0  0  0  0  0  0  0  0
   -3.7443   -0.8157   -2.3416 C   0  0  0  0  0  0  0  0  0  0  0  0
   -4.5754   -1.2284   -3.1290 O   0  0  0  0  0  0  0  0  0  0  0  0
   -2.4744   -0.5891   -2.7503 O   0  0  0  0  0  0  0  0  0  0  0  0
    0.6400    1.0394    1.1357 C   0  0  0  0  0  0  0  0  0  0  0  0
    2.0021    0.9628    1.4543 C   0  0  0  0  0  0  0  0  0  0  0  0
    9.1185   -1.7369   -1.5087 H   0  0  0  0  0  0  0  0  0  0  0  0
    8.8605   -1.8266    0.2421 H   0  0  0  0  0  0  0  0  0  0  0  0
    9.1303   -0.2552   -0.5370 H   0  0  0  0  0  0  0  0  0  0  0  0
    6.9745   -0.5251   -1.8011 H   0  0  0  0  0  0  0  0  0  0  0  0
    6.7082   -2.0755   -1.0324 H   0  0  0  0  0  0  0  0  0  0  0  0
    6.6176   -0.9709    1.2108 H   0  0  0  0  0  0  0  0  0  0  0  0
    6.8901    0.6158    0.4241 H   0  0  0  0  0  0  0  0  0  0  0  0
    3.1093   -0.6368   -1.3420 H   0  0  0  0  0  0  0  0  0  0  0  0
    0.7326   -0.5019   -1.8942 H   0  0  0  0  0  0  0  0  0  0  0  0
   -1.3941    0.1306   -1.3692 H   0  0  0  0  0  0  0  0  0  0  0  0
   -3.4932    1.5327   -1.4495 H   0  0  0  0  0  0  0  0  0  0  0  0
   -4.9024    2.4847    0.3415 H   0  0  0  0  0  0  0  0  0  0  0  0
   -5.8507    1.0840    2.1376 H   0  0  0  0  0  0  0  0  0  0  0  0
   -4.1489    0.6189    2.1970 H   0  0  0  0  0  0  0  0  0  0  0  0
   -4.7520   -1.5393    1.4858 H   0  0  0  0  0  0  0  0  0  0  0  0
   -6.4443   -1.0110    1.4551 H   0  0  0  0  0  0  0  0  0  0  0  0
   -5.9707   -1.4376   -0.9323 H   0  0  0  0  0  0  0  0  0  0  0  0
   -6.9400    0.9116   -0.2275 H   0  0  0  0  0  0  0  0  0  0  0  0
   -5.9091    1.0942   -1.6758 H   0  0  0  0  0  0  0  0  0  0  0  0
   -3.2995   -1.2669   -0.3279 H   0  0  0  0  0  0  0  0  0  0  0  0
   -2.5094   -0.8325   -3.7040 H   0  0  0  0  0  0  0  0  0  0  0  0
   -0.0205    1.5125    1.8562 H   0  0  0  0  0  0  0  0  0  0  0  0
    2.3483    1.3774    2.3999 H   0  0  0  0  0  0  0  0  0  0  0  0
  1  2  1  0
  2  3  1  0
  3  4  1  0
  4  5  1  0
  5  6  2  0
  5  7  1  0
  7  8  2  0
  8  9  1  0
  9 10  2  0
 10 11  1  0
 11 12  1  0
 12 13  2  0
 12 14  1  0
 14 15  1  0
 15 16  1  0
 16 17  1  0
 17 18  1  0
 18 19  1  0
 18 20  1  0
 20 21  1  0
 21 22  2  0
 21 23  1  0
 10 24  1  0
 24 25  2  0
 25  7  1  0
 20 14  1  0
 19 15  1  0
  1 26  1  0
  1 27  1  0
  1 28  1  0
  2 29  1  0
  2 30  1  0
  3 31  1  0
  3 32  1  0
  8 33  1  0
  9 34  1  0
 11 35  1  0
 14 36  1  0
 15 37  1  0
 16 38  1  0
 16 39  1  0
 17 40  1  0
 17 41  1  0
 18 42  1  0
 19 43  1  0
 19 44  1  0
 20 45  1  0
 23 46  1  0
 24 47  1  0
 25 48  1  0
M  END
$$$$
