
     RDKit          3D

 36 37  0  0  0  0  0  0  0  0999 V2000
   -6.6875    1.0057   -1.1791 C   0  0  0  0  0  0  0  0  0  0  0  0
   -5.2162    1.2960   -1.0161 C   0  0  0  0  0  0  0  0  0  0  0  0
   -4.7246    2.3212   -1.4737 O   0  0  0  0  0  0  0  0  0  0  0  0
   -4.5575    0.2836   -0.3419 N   0  0  0  0  0  0  0  0  0  0  0  0
   -3.1870    0.2173   -0.0196 C   0  0  0  0  0  0  0  0  0  0  0  0
   -2.7450   -0.9159    0.6711 C   0  0  0  0  0  0  0  0  0  0  0  0
   -1.3985   -1.0616    1.0314 C   0  0  0  0  0  0  0  0  0  0  0  0
   -0.4698   -0.0758    0.7055 C   0  0  0  0  0  0  0  0  0  0  0  0
    0.8996   -0.1390    1.0304 N   0  0  0  0  0  0  0  0  0  0  0  0
    1.5748   -1.1733    1.6573 C   0  0  0  0  0  0  0  0  0  0  0  0
    1.0849   -2.2274    2.0534 O   0  0  0  0  0  0  0  0  0  0  0  0
    3.0515   -0.8769    1.8870 C   0  0  0  0  0  0  0  0  0  0  0  0
    3.8056   -0.4776    0.6383 C   0  0  0  0  0  0  0  0  0  0  0  0
    4.4688    0.7580    0.5724 C   0  0  0  0  0  0  0  0  0  0  0  0
    5.1631    1.1230   -0.5820 C   0  0  0  0  0  0  0  0  0  0  0  0
    5.1997    0.2537   -1.6656 C   0  0  0  0  0  0  0  0  0  0  0  0
    5.8669    0.6070   -2.7719 F   0  0  0  0  0  0  0  0  0  0  0  0
    4.5567   -0.9766   -1.6170 C   0  0  0  0  0  0  0  0  0  0  0  0
    3.8623   -1.3455   -0.4644 C   0  0  0  0  0  0  0  0  0  0  0  0
   -0.9118    1.0578    0.0157 C   0  0  0  0  0  0  0  0  0  0  0  0
   -2.2583    1.2037   -0.3443 C   0  0  0  0  0  0  0  0  0  0  0  0
   -6.8307    0.3110   -2.0109 H   0  0  0  0  0  0  0  0  0  0  0  0
   -7.2215    1.9369   -1.3890 H   0  0  0  0  0  0  0  0  0  0  0  0
   -7.1017    0.5756   -0.2625 H   0  0  0  0  0  0  0  0  0  0  0  0
   -5.1182   -0.5060   -0.0473 H   0  0  0  0  0  0  0  0  0  0  0  0
   -3.4363   -1.7093    0.9441 H   0  0  0  0  0  0  0  0  0  0  0  0
   -1.1132   -1.9605    1.5687 H   0  0  0  0  0  0  0  0  0  0  0  0
    1.4622    0.6443    0.7193 H   0  0  0  0  0  0  0  0  0  0  0  0
    3.5281   -1.7703    2.3087 H   0  0  0  0  0  0  0  0  0  0  0  0
    3.1154   -0.0924    2.6509 H   0  0  0  0  0  0  0  0  0  0  0  0
    4.4559    1.4424    1.4184 H   0  0  0  0  0  0  0  0  0  0  0  0
    5.6799    2.0758   -0.6426 H   0  0  0  0  0  0  0  0  0  0  0  0
    4.6019   -1.6411   -2.4741 H   0  0  0  0  0  0  0  0  0  0  0  0
    3.3648   -2.3140   -0.4323 H   0  0  0  0  0  0  0  0  0  0  0  0
   -0.2200    1.8504   -0.2587 H   0  0  0  0  0  0  0  0  0  0  0  0
   -2.5443    2.1034   -0.8799 H   0  0  0  0  0  0  0  0  0  0  0  0
  1  2  1  0
  2  3  2  0
  2  4  1  0
  4  5  1  0
  5  6  2  0
  6  7  1  0
  7  8  2  0
  8  9  1  0
  9 10  1  0
 10 11  2  0
 10 12  1  0
 12 13  1  0
 13 14  2  0
 14 15  1  0
 15 16  2  0
 16 17  1  0
 16 18  1  0
 18 19  2  0
  8 20  1  0
 20 21  2  0
 21  5  1  0
 19 13  1  0
  1 22  1  0
  1 23  1  0
  1 24  1  0
  4 25  1  0
  6 26  1  0
  7 27  1  0
  9 28  1  0
 12 29  1  0
 12 30  1  0
 14 31  1  0
 15 32  1  0
 18 33  1  0
 19 34  1  0
 20 35  1  0
 21 36  1  0
M  END
$$$$
