
     RDKit          3D

 58 62  0  0  0  0  0  0  0  0999 V2000
   -7.4114   -1.2456   -1.5185 C   0  0  0  0  0  0  0  0  0  0  0  0
   -7.1576   -0.2152   -0.5719 O   0  0  0  0  0  0  0  0  0  0  0  0
   -5.8503    0.1298   -0.3665 C   0  0  0  0  0  0  0  0  0  0  0  0
   -4.7422   -0.4444   -0.9912 C   0  0  0  0  0  0  0  0  0  0  0  0
   -3.4512    0.0044   -0.6874 C   0  0  0  0  0  0  0  0  0  0  0  0
   -3.2626    1.0228    0.2553 C   0  0  0  0  0  0  0  0  0  0  0  0
   -1.8985    1.5227    0.5889 C   0  0  0  0  0  0  0  0  0  0  0  0
   -1.7391    2.7873    0.7769 N   0  0  0  0  0  0  0  0  0  0  0  0
   -0.3956    3.2820    1.0686 C   0  0  0  0  0  0  0  0  0  0  0  0
    0.4862    3.1976   -0.1744 C   0  0  0  0  0  0  0  0  0  0  0  0
    0.8074    4.2264   -0.7805 O   0  0  0  0  0  0  0  0  0  0  0  0
    0.9638    1.9341   -0.5462 N   0  0  0  0  0  0  0  0  0  0  0  0
    2.1024    1.9379   -1.4647 C   0  0  0  0  0  0  0  0  0  0  0  0
    3.4410    2.0229   -0.7205 C   0  0  0  0  0  0  0  0  0  0  0  0
    3.5503    2.3754    0.4524 O   0  0  0  0  0  0  0  0  0  0  0  0
    4.5226    1.6900   -1.5140 N   0  0  0  0  0  0  0  0  0  0  0  0
    5.8547    1.5554   -0.9687 C   0  0  0  0  0  0  0  0  0  0  0  0
    6.3487    0.1939   -1.3016 C   0  0  0  0  0  0  0  0  0  0  0  0
    7.2144   -0.2979   -2.2607 C   0  0  0  0  0  0  0  0  0  0  0  0
    7.2501   -1.7035   -2.0874 C   0  0  0  0  0  0  0  0  0  0  0  0
    6.4112   -1.9788   -1.0308 C   0  0  0  0  0  0  0  0  0  0  0  0
    5.8564   -0.8358   -0.5514 O   0  0  0  0  0  0  0  0  0  0  0  0
    0.4445    0.7857    0.0682 C   0  0  0  0  0  0  0  0  0  0  0  0
    1.4202   -0.6188    0.0935 S   0  0  0  0  0  0  0  0  0  0  0  0
    0.3181   -1.4574    1.0658 C   0  0  0  0  0  0  0  0  0  0  0  0
   -0.8271   -0.7275    1.3181 C   0  0  0  0  0  0  0  0  0  0  0  0
   -0.7945    0.5624    0.6572 C   0  0  0  0  0  0  0  0  0  0  0  0
   -1.9292   -1.2869    2.1785 C   0  0  0  0  0  0  0  0  0  0  0  0
   -1.4412   -2.4635    3.0383 C   0  0  0  0  0  0  0  0  0  0  0  0
   -0.6382   -3.4661    2.1996 C   0  0  0  0  0  0  0  0  0  0  0  0
    0.6219   -2.8242    1.6007 C   0  0  0  0  0  0  0  0  0  0  0  0
   -4.3731    1.6133    0.8648 C   0  0  0  0  0  0  0  0  0  0  0  0
   -5.6582    1.1609    0.5572 C   0  0  0  0  0  0  0  0  0  0  0  0
   -6.9656   -2.1929   -1.1978 H   0  0  0  0  0  0  0  0  0  0  0  0
   -7.0618   -0.9617   -2.5168 H   0  0  0  0  0  0  0  0  0  0  0  0
   -8.4948   -1.3896   -1.5740 H   0  0  0  0  0  0  0  0  0  0  0  0
   -4.8466   -1.2384   -1.7232 H   0  0  0  0  0  0  0  0  0  0  0  0
   -2.6037   -0.4442   -1.2000 H   0  0  0  0  0  0  0  0  0  0  0  0
   -0.4736    4.3387    1.3491 H   0  0  0  0  0  0  0  0  0  0  0  0
    0.0711    2.7796    1.9239 H   0  0  0  0  0  0  0  0  0  0  0  0
    2.0705    1.0415   -2.0947 H   0  0  0  0  0  0  0  0  0  0  0  0
    2.0486    2.7992   -2.1404 H   0  0  0  0  0  0  0  0  0  0  0  0
    4.3670    1.3631   -2.4568 H   0  0  0  0  0  0  0  0  0  0  0  0
    5.8683    1.7220    0.1129 H   0  0  0  0  0  0  0  0  0  0  0  0
    6.4791    2.3172   -1.4475 H   0  0  0  0  0  0  0  0  0  0  0  0
    7.7458    0.2849   -3.0029 H   0  0  0  0  0  0  0  0  0  0  0  0
    7.8165   -2.4274   -2.6591 H   0  0  0  0  0  0  0  0  0  0  0  0
    6.1104   -2.8885   -0.5280 H   0  0  0  0  0  0  0  0  0  0  0  0
   -2.7407   -1.6420    1.5350 H   0  0  0  0  0  0  0  0  0  0  0  0
   -2.3360   -0.5063    2.8314 H   0  0  0  0  0  0  0  0  0  0  0  0
   -0.8143   -2.0912    3.8583 H   0  0  0  0  0  0  0  0  0  0  0  0
   -2.3029   -2.9637    3.4939 H   0  0  0  0  0  0  0  0  0  0  0  0
   -0.3547   -4.3294    2.8123 H   0  0  0  0  0  0  0  0  0  0  0  0
   -1.2748   -3.8414    1.3886 H   0  0  0  0  0  0  0  0  0  0  0  0
    1.0180   -3.4733    0.8108 H   0  0  0  0  0  0  0  0  0  0  0  0
    1.3923   -2.7416    2.3788 H   0  0  0  0  0  0  0  0  0  0  0  0
   -4.2437    2.4241    1.5782 H   0  0  0  0  0  0  0  0  0  0  0  0
   -6.5183    1.6220    1.0371 H   0  0  0  0  0  0  0  0  0  0  0  0
  1  2  1  0
  2  3  1  0
  3  4  2  0
  4  5  1  0
  5  6  2  0
  6  7  1  0
  7  8  2  0
  8  9  1  0
  9 10  1  0
 10 11  2  0
 10 12  1  0
 12 13  1  0
 13 14  1  0
 14 15  2  0
 14 16  1  0
 16 17  1  0
 17 18  1  0
 18 19  2  0
 19 20  1  0
 20 21  2  0
 21 22  1  0
 12 23  1  0
 23 24  1  0
 24 25  1  0
 25 26  2  0
 26 27  1  0
 26 28  1  0
 28 29  1  0
 29 30  1  0
 30 31  1  0
  6 32  1  0
 32 33  2  0
 33  3  1  0
 27  7  1  0
 22 18  1  0
 27 23  2  0
 31 25  1  0
  1 34  1  0
  1 35  1  0
  1 36  1  0
  4 37  1  0
  5 38  1  0
  9 39  1  0
  9 40  1  0
 13 41  1  0
 13 42  1  0
 16 43  1  0
 17 44  1  0
 17 45  1  0
 19 46  1  0
 20 47  1  0
 21 48  1  0
 28 49  1  0
 28 50  1  0
 29 51  1  0
 29 52  1  0
 30 53  1  0
 30 54  1  0
 31 55  1  0
 31 56  1  0
 32 57  1  0
 33 58  1  0
M  END
$$$$
