
     RDKit          3D

 45 47  0  0  0  0  0  0  0  0999 V2000
    7.0736   -0.3329    2.3051 N   0  0  0  0  0  0  0  0  0  0  0  0
    5.9148   -0.2946    2.3577 C   0  0  0  0  0  0  0  0  0  0  0  0
    4.4900   -0.2388    2.4030 C   0  0  0  0  0  0  0  0  0  0  0  0
    3.8822   -0.6241    3.6345 C   0  0  0  0  0  0  0  0  0  0  0  0
    3.3784   -0.9350    4.6329 N   0  0  0  0  0  0  0  0  0  0  0  0
    3.7665    0.1807    1.3327 C   0  0  0  0  0  0  0  0  0  0  0  0
    2.3015    0.2650    1.3452 C   0  0  0  0  0  0  0  0  0  0  0  0
    1.5688    0.7023    0.3033 C   0  0  0  0  0  0  0  0  0  0  0  0
    0.1205    0.6300    0.3411 C   0  0  0  0  0  0  0  0  0  0  0  0
   -0.6335    0.4070   -0.7558 C   0  0  0  0  0  0  0  0  0  0  0  0
   -2.0385    0.2673   -0.7378 N   0  0  0  0  0  0  0  0  0  0  0  0
   -2.7689   -0.3264   -1.8730 C   0  0  0  0  0  0  0  0  0  0  0  0
   -4.1216   -0.9530   -1.5331 C   0  0  0  0  0  0  0  0  0  0  0  0
   -4.0944   -1.8920   -0.3285 C   0  0  0  0  0  0  0  0  0  0  0  0
   -4.3080   -1.1631    0.9970 C   0  0  0  0  0  0  0  0  0  0  0  0
   -3.1838   -0.2093    1.3942 C   0  0  0  0  0  0  0  0  0  0  0  0
   -2.8618    0.8459    0.3376 C   0  0  0  0  0  0  0  0  0  0  0  0
    0.1016    0.2496   -2.0809 C   0  0  0  0  0  0  0  0  0  0  0  0
    1.2974    1.1918   -2.1992 C   0  0  0  0  0  0  0  0  0  0  0  0
    2.2133    1.2053   -0.9673 C   0  0  0  0  0  0  0  0  0  0  0  0
    3.5199    0.4428   -1.2063 C   0  0  0  0  0  0  0  0  0  0  0  0
    4.4326    0.5788    0.0181 C   0  0  0  0  0  0  0  0  0  0  0  0
    1.7732   -0.0950    2.2279 H   0  0  0  0  0  0  0  0  0  0  0  0
   -0.3409    0.6646    1.3229 H   0  0  0  0  0  0  0  0  0  0  0  0
   -2.1568   -1.1200   -2.3202 H   0  0  0  0  0  0  0  0  0  0  0  0
   -2.9181    0.4406   -2.6424 H   0  0  0  0  0  0  0  0  0  0  0  0
   -4.4445   -1.5261   -2.4120 H   0  0  0  0  0  0  0  0  0  0  0  0
   -4.8826   -0.1758   -1.3945 H   0  0  0  0  0  0  0  0  0  0  0  0
   -4.9127   -2.6142   -0.4416 H   0  0  0  0  0  0  0  0  0  0  0  0
   -3.1651   -2.4732   -0.3053 H   0  0  0  0  0  0  0  0  0  0  0  0
   -5.2545   -0.6092    0.9584 H   0  0  0  0  0  0  0  0  0  0  0  0
   -4.4234   -1.9097    1.7924 H   0  0  0  0  0  0  0  0  0  0  0  0
   -3.4890    0.3020    2.3155 H   0  0  0  0  0  0  0  0  0  0  0  0
   -2.2891   -0.7926    1.6426 H   0  0  0  0  0  0  0  0  0  0  0  0
   -3.7768    1.2960   -0.0654 H   0  0  0  0  0  0  0  0  0  0  0  0
   -2.3301    1.6802    0.8118 H   0  0  0  0  0  0  0  0  0  0  0  0
    0.4259   -0.7930   -2.1881 H   0  0  0  0  0  0  0  0  0  0  0  0
   -0.5566    0.4709   -2.9280 H   0  0  0  0  0  0  0  0  0  0  0  0
    0.9070    2.2100   -2.3411 H   0  0  0  0  0  0  0  0  0  0  0  0
    1.8608    0.9639   -3.1120 H   0  0  0  0  0  0  0  0  0  0  0  0
    2.4805    2.2596   -0.7979 H   0  0  0  0  0  0  0  0  0  0  0  0
    4.0390    0.8432   -2.0856 H   0  0  0  0  0  0  0  0  0  0  0  0
    3.3164   -0.6174   -1.4078 H   0  0  0  0  0  0  0  0  0  0  0  0
    4.7597    1.6238    0.1016 H   0  0  0  0  0  0  0  0  0  0  0  0
    5.3270   -0.0258   -0.1721 H   0  0  0  0  0  0  0  0  0  0  0  0
  1  2  3  0
  2  3  1  0
  3  4  1  0
  4  5  3  0
  3  6  2  3
  6  7  1  0
  7  8  2  0
  8  9  1  0
  9 10  2  0
 10 11  1  0
 11 12  1  0
 12 13  1  0
 13 14  1  0
 14 15  1  0
 15 16  1  0
 16 17  1  0
 10 18  1  0
 18 19  1  0
 19 20  1  0
 20 21  1  0
 21 22  1  0
 22  6  1  0
 20  8  1  0
 17 11  1  0
  7 23  1  0
  9 24  1  0
 12 25  1  0
 12 26  1  0
 13 27  1  0
 13 28  1  0
 14 29  1  0
 14 30  1  0
 15 31  1  0
 15 32  1  0
 16 33  1  0
 16 34  1  0
 17 35  1  0
 17 36  1  0
 18 37  1  0
 18 38  1  0
 19 39  1  0
 19 40  1  0
 20 41  1  0
 21 42  1  0
 21 43  1  0
 22 44  1  0
 22 45  1  0
M  END
$$$$
