
     RDKit          3D

 41 43  0  0  0  0  0  0  0  0999 V2000
   -2.1650    0.9079   -0.6906 O   0  0  0  0  0  0  0  0  0  0  0  0
   -3.0053    0.3064   -0.0337 C   0  0  0  0  0  0  0  0  0  0  0  0
   -2.8111   -0.8420    0.7125 N   0  0  0  0  0  0  0  0  0  0  0  0
   -1.5943   -1.5179    0.9469 C   0  0  0  0  0  0  0  0  0  0  0  0
   -1.6633   -2.7217    1.6518 C   0  0  0  0  0  0  0  0  0  0  0  0
   -0.5027   -3.4409    1.9287 C   0  0  0  0  0  0  0  0  0  0  0  0
    0.7412   -2.9660    1.5038 C   0  0  0  0  0  0  0  0  0  0  0  0
    0.8390   -1.7706    0.7957 C   0  0  0  0  0  0  0  0  0  0  0  0
    2.0392   -1.1877    0.3242 N   0  0  0  0  0  0  0  0  0  0  0  0
    3.3479   -1.6044    0.2858 C   0  0  0  0  0  0  0  0  0  0  0  0
    4.0306   -3.0611    0.7380 S   0  0  0  0  0  0  0  0  0  0  0  0
    4.2466   -0.6729   -0.2149 N   0  0  0  0  0  0  0  0  0  0  0  0
    4.0241    0.6162   -0.6946 C   0  0  0  0  0  0  0  0  0  0  0  0
    2.8824    1.0717   -0.7681 O   0  0  0  0  0  0  0  0  0  0  0  0
    5.2238    1.3418   -1.1031 C   0  0  0  0  0  0  0  0  0  0  0  0
    6.5661    1.0492   -0.9199 C   0  0  0  0  0  0  0  0  0  0  0  0
    7.4277    2.0364   -1.4867 C   0  0  0  0  0  0  0  0  0  0  0  0
    6.7225    3.0562   -2.0809 C   0  0  0  0  0  0  0  0  0  0  0  0
    5.0362    2.8269   -1.9514 S   0  0  0  0  0  0  0  0  0  0  0  0
   -0.3424   -1.0506    0.5319 C   0  0  0  0  0  0  0  0  0  0  0  0
   -4.4085    0.8087   -0.0517 C   0  0  0  0  0  0  0  0  0  0  0  0
   -5.2306    0.7400    1.0814 C   0  0  0  0  0  0  0  0  0  0  0  0
   -6.5399    1.2227    1.0221 C   0  0  0  0  0  0  0  0  0  0  0  0
   -7.0269    1.7804   -0.1604 C   0  0  0  0  0  0  0  0  0  0  0  0
   -6.2054    1.8674   -1.2842 C   0  0  0  0  0  0  0  0  0  0  0  0
   -4.8960    1.3878   -1.2297 C   0  0  0  0  0  0  0  0  0  0  0  0
   -3.6396   -1.2961    1.0733 H   0  0  0  0  0  0  0  0  0  0  0  0
   -2.6151   -3.1176    1.9946 H   0  0  0  0  0  0  0  0  0  0  0  0
   -0.5608   -4.3755    2.4813 H   0  0  0  0  0  0  0  0  0  0  0  0
    1.6050   -3.5602    1.7674 H   0  0  0  0  0  0  0  0  0  0  0  0
    1.8999   -0.2712   -0.1098 H   0  0  0  0  0  0  0  0  0  0  0  0
    5.1911   -1.0246   -0.2332 H   0  0  0  0  0  0  0  0  0  0  0  0
    6.9423    0.1790   -0.3973 H   0  0  0  0  0  0  0  0  0  0  0  0
    8.5103    2.0014   -1.4553 H   0  0  0  0  0  0  0  0  0  0  0  0
    7.1149    3.9306   -2.5825 H   0  0  0  0  0  0  0  0  0  0  0  0
   -0.2667   -0.1108   -0.0076 H   0  0  0  0  0  0  0  0  0  0  0  0
   -4.8578    0.3454    2.0225 H   0  0  0  0  0  0  0  0  0  0  0  0
   -7.1780    1.1764    1.9014 H   0  0  0  0  0  0  0  0  0  0  0  0
   -8.0451    2.1601   -0.2033 H   0  0  0  0  0  0  0  0  0  0  0  0
   -6.5812    2.3141   -2.2015 H   0  0  0  0  0  0  0  0  0  0  0  0
   -4.2549    1.4649   -2.1059 H   0  0  0  0  0  0  0  0  0  0  0  0
  1  2  2  0
  2  3  1  0
  3  4  1  0
  4  5  2  0
  5  6  1  0
  6  7  2  0
  7  8  1  0
  8  9  1  0
  9 10  1  0
 10 11  2  0
 10 12  1  0
 12 13  1  0
 13 14  2  0
 13 15  1  0
 15 16  2  0
 16 17  1  0
 17 18  2  0
 18 19  1  0
  8 20  2  0
  2 21  1  0
 21 22  2  0
 22 23  1  0
 23 24  2  0
 24 25  1  0
 25 26  2  0
 20  4  1  0
 26 21  1  0
 19 15  1  0
  3 27  1  0
  5 28  1  0
  6 29  1  0
  7 30  1  0
  9 31  1  0
 12 32  1  0
 16 33  1  0
 17 34  1  0
 18 35  1  0
 20 36  1  0
 22 37  1  0
 23 38  1  0
 24 39  1  0
 25 40  1  0
 26 41  1  0
M  END
$$$$
