
     RDKit          3D

 59 62  0  0  0  0  0  0  0  0999 V2000
    2.2861   -0.5404   -3.4487 O   0  0  0  0  0  0  0  0  0  0  0  0
    1.3576   -0.3430   -2.6668 C   0  0  0  0  0  0  0  0  0  0  0  0
    0.1094   -0.1452   -3.1792 N   0  0  0  0  0  0  0  0  0  0  0  0
   -0.9868    0.2979   -2.5011 C   0  0  0  0  0  0  0  0  0  0  0  0
   -1.9749    0.7011   -3.1088 O   0  0  0  0  0  0  0  0  0  0  0  0
   -0.9154    0.1672   -0.9961 C   0  0  0  0  0  0  0  0  0  0  0  0
   -1.8774    1.1812   -0.3234 C   0  0  0  0  0  0  0  0  0  0  0  0
   -1.5901    2.6548   -0.6631 C   0  0  0  0  0  0  0  0  0  0  0  0
   -2.5506    3.5733    0.0485 C   0  0  0  0  0  0  0  0  0  0  0  0
   -3.7648    3.9322   -0.5416 C   0  0  0  0  0  0  0  0  0  0  0  0
   -4.6234    4.7639    0.1606 C   0  0  0  0  0  0  0  0  0  0  0  0
   -4.3603    5.2498    1.3926 N   0  0  0  0  0  0  0  0  0  0  0  0
   -3.1839    4.8859    1.9465 C   0  0  0  0  0  0  0  0  0  0  0  0
   -2.2599    4.0598    1.3252 C   0  0  0  0  0  0  0  0  0  0  0  0
   -1.3460   -1.2983   -0.6771 C   0  0  0  0  0  0  0  0  0  0  0  0
   -1.4582   -1.6363    0.8172 C   0  0  0  0  0  0  0  0  0  0  0  0
   -1.6962   -3.1108    1.0250 C   0  0  0  0  0  0  0  0  0  0  0  0
   -2.9774   -3.6534    0.8963 C   0  0  0  0  0  0  0  0  0  0  0  0
   -3.1420   -5.0184    1.0756 C   0  0  0  0  0  0  0  0  0  0  0  0
   -2.1322   -5.8655    1.3662 N   0  0  0  0  0  0  0  0  0  0  0  0
   -0.9029   -5.3218    1.4868 C   0  0  0  0  0  0  0  0  0  0  0  0
   -0.6367   -3.9706    1.3254 C   0  0  0  0  0  0  0  0  0  0  0  0
    0.5176    0.3457   -0.5080 C   0  0  0  0  0  0  0  0  0  0  0  0
    0.7547    0.9288    0.5500 O   0  0  0  0  0  0  0  0  0  0  0  0
    1.5019   -0.2442   -1.2923 N   0  0  0  0  0  0  0  0  0  0  0  0
    2.8753   -0.3766   -0.7639 C   0  0  0  0  0  0  0  0  0  0  0  0
    2.9407   -1.1495    0.5668 C   0  0  0  0  0  0  0  0  0  0  0  0
    4.3840   -1.3166    1.0396 C   0  0  0  0  0  0  0  0  0  0  0  0
    5.1010    0.0270    1.1378 C   0  0  0  0  0  0  0  0  0  0  0  0
    5.0430    0.7967   -0.1791 C   0  0  0  0  0  0  0  0  0  0  0  0
    3.6072    0.9735   -0.6707 C   0  0  0  0  0  0  0  0  0  0  0  0
    0.0611   -0.0998   -4.1883 H   0  0  0  0  0  0  0  0  0  0  0  0
   -2.9122    0.9452   -0.6081 H   0  0  0  0  0  0  0  0  0  0  0  0
   -1.8322    1.0711    0.7678 H   0  0  0  0  0  0  0  0  0  0  0  0
   -1.6644    2.8359   -1.7411 H   0  0  0  0  0  0  0  0  0  0  0  0
   -0.5658    2.9301   -0.3868 H   0  0  0  0  0  0  0  0  0  0  0  0
   -4.0416    3.5735   -1.5278 H   0  0  0  0  0  0  0  0  0  0  0  0
   -5.5758    5.0691   -0.2633 H   0  0  0  0  0  0  0  0  0  0  0  0
   -2.9957    5.2875    2.9380 H   0  0  0  0  0  0  0  0  0  0  0  0
   -1.3346    3.8025    1.8307 H   0  0  0  0  0  0  0  0  0  0  0  0
   -0.6422   -2.0016   -1.1448 H   0  0  0  0  0  0  0  0  0  0  0  0
   -2.3143   -1.5001   -1.1577 H   0  0  0  0  0  0  0  0  0  0  0  0
   -0.5493   -1.3421    1.3541 H   0  0  0  0  0  0  0  0  0  0  0  0
   -2.2831   -1.0819    1.2800 H   0  0  0  0  0  0  0  0  0  0  0  0
   -3.8352   -3.0316    0.6622 H   0  0  0  0  0  0  0  0  0  0  0  0
   -4.1213   -5.4799    0.9862 H   0  0  0  0  0  0  0  0  0  0  0  0
   -0.1087   -6.0239    1.7241 H   0  0  0  0  0  0  0  0  0  0  0  0
    0.3781   -3.6040    1.4368 H   0  0  0  0  0  0  0  0  0  0  0  0
    3.4375   -0.9891   -1.4825 H   0  0  0  0  0  0  0  0  0  0  0  0
    2.4798   -2.1371    0.4433 H   0  0  0  0  0  0  0  0  0  0  0  0
    2.3766   -0.6409    1.3555 H   0  0  0  0  0  0  0  0  0  0  0  0
    4.9239   -1.9699    0.3434 H   0  0  0  0  0  0  0  0  0  0  0  0
    4.3957   -1.8135    2.0165 H   0  0  0  0  0  0  0  0  0  0  0  0
    4.6412    0.6280    1.9320 H   0  0  0  0  0  0  0  0  0  0  0  0
    6.1465   -0.1341    1.4238 H   0  0  0  0  0  0  0  0  0  0  0  0
    5.5120    1.7790   -0.0527 H   0  0  0  0  0  0  0  0  0  0  0  0
    5.6249    0.2615   -0.9397 H   0  0  0  0  0  0  0  0  0  0  0  0
    3.6174    1.4638   -1.6516 H   0  0  0  0  0  0  0  0  0  0  0  0
    3.0825    1.6539    0.0093 H   0  0  0  0  0  0  0  0  0  0  0  0
  1  2  2  0
  2  3  1  0
  3  4  1  0
  4  5  2  0
  4  6  1  0
  6  7  1  0
  7  8  1  0
  8  9  1  0
  9 10  2  0
 10 11  1  0
 11 12  2  0
 12 13  1  0
 13 14  2  0
  6 15  1  0
 15 16  1  0
 16 17  1  0
 17 18  2  0
 18 19  1  0
 19 20  2  0
 20 21  1  0
 21 22  2  0
  6 23  1  0
 23 24  2  0
 23 25  1  0
 25 26  1  0
 26 27  1  0
 27 28  1  0
 28 29  1  0
 29 30  1  0
 30 31  1  0
 25  2  1  0
 31 26  1  0
 14  9  1  0
 22 17  1  0
  3 32  1  0
  7 33  1  0
  7 34  1  0
  8 35  1  0
  8 36  1  0
 10 37  1  0
 11 38  1  0
 13 39  1  0
 14 40  1  0
 15 41  1  0
 15 42  1  0
 16 43  1  0
 16 44  1  0
 18 45  1  0
 19 46  1  0
 21 47  1  0
 22 48  1  0
 26 49  1  0
 27 50  1  0
 27 51  1  0
 28 52  1  0
 28 53  1  0
 29 54  1  0
 29 55  1  0
 30 56  1  0
 30 57  1  0
 31 58  1  0
 31 59  1  0
M  END
$$$$
