
     RDKit          3D

 67 70  0  0  0  0  0  0  0  0999 V2000
   -3.8201   -0.7565    2.0251 C   0  0  0  0  0  0  0  0  0  0  0  0
   -2.5899   -0.1841    2.4752 O   0  0  0  0  0  0  0  0  0  0  0  0
   -2.3583    1.0377    1.8878 C   0  0  0  0  0  0  0  0  0  0  0  0
   -3.2238    2.1044    2.1734 C   0  0  0  0  0  0  0  0  0  0  0  0
   -3.0150    3.3606    1.6032 C   0  0  0  0  0  0  0  0  0  0  0  0
   -3.8142    4.4544    1.8227 O   0  0  0  0  0  0  0  0  0  0  0  0
   -4.9230    4.2973    2.6996 C   0  0  0  0  0  0  0  0  0  0  0  0
   -1.9219    3.5435    0.7405 C   0  0  0  0  0  0  0  0  0  0  0  0
   -1.6512    4.8270    0.0923 C   0  0  0  0  0  0  0  0  0  0  0  0
   -0.6160    4.9696   -0.7382 C   0  0  0  0  0  0  0  0  0  0  0  0
    0.2947    3.8603   -1.0411 C   0  0  0  0  0  0  0  0  0  0  0  0
    1.2273    4.0006   -1.8230 O   0  0  0  0  0  0  0  0  0  0  0  0
    0.0336    2.6606   -0.3991 O   0  0  0  0  0  0  0  0  0  0  0  0
   -1.0518    2.4684    0.4904 C   0  0  0  0  0  0  0  0  0  0  0  0
   -1.2219    1.1993    1.0729 C   0  0  0  0  0  0  0  0  0  0  0  0
   -0.2815    0.0094    0.8428 C   0  0  0  0  0  0  0  0  0  0  0  0
    1.2304    0.3528    0.7747 C   0  0  0  0  0  0  0  0  0  0  0  0
    2.1171   -0.8893    0.9809 C   0  0  0  0  0  0  0  0  0  0  0  0
    3.5433   -0.5549    1.1342 N   0  0  0  0  0  0  0  0  0  0  0  0
    4.1633   -0.0674   -0.0997 C   0  0  0  0  0  0  0  0  0  0  0  0
    5.5542    0.5089    0.1985 C   0  0  0  0  0  0  0  0  0  0  0  0
    6.3138   -0.2650    1.2774 C   0  0  0  0  0  0  0  0  0  0  0  0
    5.7898   -1.6874    1.3926 C   0  0  0  0  0  0  0  0  0  0  0  0
    4.2823   -1.7086    1.6811 C   0  0  0  0  0  0  0  0  0  0  0  0
   -0.7323   -0.8650   -0.3239 C   0  0  0  0  0  0  0  0  0  0  0  0
   -1.2461   -2.1426   -0.0848 C   0  0  0  0  0  0  0  0  0  0  0  0
   -1.6659   -2.9631   -1.1428 C   0  0  0  0  0  0  0  0  0  0  0  0
   -1.5844   -2.5596   -2.4859 C   0  0  0  0  0  0  0  0  0  0  0  0
   -2.0204   -3.3798   -3.5354 N   0  0  0  0  0  0  0  0  0  0  0  0
   -1.7179   -2.9897   -4.9112 C   0  0  0  0  0  0  0  0  0  0  0  0
   -2.1200   -4.8192   -3.2982 C   0  0  0  0  0  0  0  0  0  0  0  0
   -1.0800   -1.2660   -2.7009 C   0  0  0  0  0  0  0  0  0  0  0  0
   -0.6561   -0.4370   -1.6501 C   0  0  0  0  0  0  0  0  0  0  0  0
   -4.6662   -0.3291    2.5723 H   0  0  0  0  0  0  0  0  0  0  0  0
   -3.7876   -1.8287    2.2411 H   0  0  0  0  0  0  0  0  0  0  0  0
   -3.9604   -0.6324    0.9450 H   0  0  0  0  0  0  0  0  0  0  0  0
   -4.0458    1.9257    2.8570 H   0  0  0  0  0  0  0  0  0  0  0  0
   -5.4402    5.2599    2.7597 H   0  0  0  0  0  0  0  0  0  0  0  0
   -5.6340    3.5621    2.3083 H   0  0  0  0  0  0  0  0  0  0  0  0
   -4.5936    4.0333    3.7101 H   0  0  0  0  0  0  0  0  0  0  0  0
   -2.3101    5.6644    0.2979 H   0  0  0  0  0  0  0  0  0  0  0  0
   -0.4011    5.9103   -1.2291 H   0  0  0  0  0  0  0  0  0  0  0  0
   -0.3597   -0.6013    1.7538 H   0  0  0  0  0  0  0  0  0  0  0  0
    1.4667    1.0873    1.5562 H   0  0  0  0  0  0  0  0  0  0  0  0
    1.4796    0.8088   -0.1872 H   0  0  0  0  0  0  0  0  0  0  0  0
    1.9797   -1.6010    0.1573 H   0  0  0  0  0  0  0  0  0  0  0  0
    1.7785   -1.3895    1.8978 H   0  0  0  0  0  0  0  0  0  0  0  0
    4.2364   -0.8744   -0.8407 H   0  0  0  0  0  0  0  0  0  0  0  0
    3.5784    0.7319   -0.5655 H   0  0  0  0  0  0  0  0  0  0  0  0
    6.1365    0.5118   -0.7309 H   0  0  0  0  0  0  0  0  0  0  0  0
    5.4676    1.5562    0.5138 H   0  0  0  0  0  0  0  0  0  0  0  0
    7.3868   -0.2643    1.0559 H   0  0  0  0  0  0  0  0  0  0  0  0
    6.1923    0.2430    2.2424 H   0  0  0  0  0  0  0  0  0  0  0  0
    5.9895   -2.2184    0.4530 H   0  0  0  0  0  0  0  0  0  0  0  0
    6.3257   -2.2263    2.1821 H   0  0  0  0  0  0  0  0  0  0  0  0
    3.8857   -2.6568    1.2944 H   0  0  0  0  0  0  0  0  0  0  0  0
    4.1293   -1.7204    2.7672 H   0  0  0  0  0  0  0  0  0  0  0  0
   -1.3329   -2.5180    0.9327 H   0  0  0  0  0  0  0  0  0  0  0  0
   -2.0692   -3.9348   -0.8759 H   0  0  0  0  0  0  0  0  0  0  0  0
   -0.6363   -2.9545   -5.0830 H   0  0  0  0  0  0  0  0  0  0  0  0
   -2.1443   -3.7025   -5.6263 H   0  0  0  0  0  0  0  0  0  0  0  0
   -2.1628   -2.0192   -5.1563 H   0  0  0  0  0  0  0  0  0  0  0  0
   -1.1602   -5.2326   -2.9688 H   0  0  0  0  0  0  0  0  0  0  0  0
   -2.8933   -5.0466   -2.5568 H   0  0  0  0  0  0  0  0  0  0  0  0
   -2.4127   -5.3533   -4.2093 H   0  0  0  0  0  0  0  0  0  0  0  0
   -0.9948   -0.8573   -3.7031 H   0  0  0  0  0  0  0  0  0  0  0  0
   -0.2659    0.5473   -1.8955 H   0  0  0  0  0  0  0  0  0  0  0  0
  1  2  1  0
  2  3  1  0
  3  4  2  0
  4  5  1  0
  5  6  1  0
  6  7  1  0
  5  8  2  0
  8  9  1  0
  9 10  2  0
 10 11  1  0
 11 12  2  0
 11 13  1  0
 13 14  1  0
 14 15  2  0
 15 16  1  0
 16 17  1  0
 17 18  1  0
 18 19  1  0
 19 20  1  0
 20 21  1  0
 21 22  1  0
 22 23  1  0
 23 24  1  0
 16 25  1  0
 25 26  2  0
 26 27  1  0
 27 28  2  0
 28 29  1  0
 29 30  1  0
 29 31  1  0
 28 32  1  0
 32 33  2  0
 15  3  1  0
 24 19  1  0
 33 25  1  0
 14  8  1  0
  1 34  1  0
  1 35  1  0
  1 36  1  0
  4 37  1  0
  7 38  1  0
  7 39  1  0
  7 40  1  0
  9 41  1  0
 10 42  1  0
 16 43  1  0
 17 44  1  0
 17 45  1  0
 18 46  1  0
 18 47  1  0
 20 48  1  0
 20 49  1  0
 21 50  1  0
 21 51  1  0
 22 52  1  0
 22 53  1  0
 23 54  1  0
 23 55  1  0
 24 56  1  0
 24 57  1  0
 26 58  1  0
 27 59  1  0
 30 60  1  0
 30 61  1  0
 30 62  1  0
 31 63  1  0
 31 64  1  0
 31 65  1  0
 32 66  1  0
 33 67  1  0
M  END
$$$$
