
     RDKit          3D

 45 47  0  0  0  0  0  0  0  0999 V2000
    5.5337   -0.0159   -3.1486 C   0  0  0  0  0  0  0  0  0  0  0  0
    4.7961   -1.3200   -2.9527 C   0  0  0  0  0  0  0  0  0  0  0  0
    4.4270   -1.9713   -4.0097 N   0  0  0  0  0  0  0  0  0  0  0  0
    4.4756   -1.7256   -1.5277 C   0  0  0  0  0  0  0  0  0  0  0  0
    4.2848   -3.1675   -1.3809 C   0  0  0  0  0  0  0  0  0  0  0  0
    4.1117   -4.3126   -1.3149 N   0  0  0  0  0  0  0  0  0  0  0  0
    3.2743   -0.9654   -1.0151 C   0  0  0  0  0  0  0  0  0  0  0  0
    3.4189   -0.0696   -0.1767 O   0  0  0  0  0  0  0  0  0  0  0  0
    1.9092   -1.2731   -1.6441 C   0  0  0  0  0  0  0  0  0  0  0  0
    0.8300   -0.6120   -0.9831 O   0  0  0  0  0  0  0  0  0  0  0  0
    0.5669   -1.1097    0.2540 C   0  0  0  0  0  0  0  0  0  0  0  0
    1.1180   -2.0693    0.7643 O   0  0  0  0  0  0  0  0  0  0  0  0
   -0.4818   -0.2871    0.8950 C   0  0  0  0  0  0  0  0  0  0  0  0
   -1.6251    0.0108    0.1473 C   0  0  0  0  0  0  0  0  0  0  0  0
   -2.6316    0.7536    0.7394 C   0  0  0  0  0  0  0  0  0  0  0  0
   -3.8800    1.1239    0.0410 C   0  0  0  0  0  0  0  0  0  0  0  0
   -3.9158    1.3811   -1.3433 C   0  0  0  0  0  0  0  0  0  0  0  0
   -5.1072    1.7278   -1.9900 C   0  0  0  0  0  0  0  0  0  0  0  0
   -6.2911    1.8291   -1.2646 C   0  0  0  0  0  0  0  0  0  0  0  0
   -6.2763    1.5887    0.1056 C   0  0  0  0  0  0  0  0  0  0  0  0
   -7.8794    1.7309    1.0983 Br  0  0  0  0  0  0  0  0  0  0  0  0
   -5.0888    1.2430    0.7532 C   0  0  0  0  0  0  0  0  0  0  0  0
   -2.5311    1.1765    2.0220 N   0  0  0  0  0  0  0  0  0  0  0  0
   -1.4317    0.8946    2.7413 C   0  0  0  0  0  0  0  0  0  0  0  0
   -1.3685    1.3616    4.0476 C   0  0  0  0  0  0  0  0  0  0  0  0
   -0.2620    1.1262    4.8657 C   0  0  0  0  0  0  0  0  0  0  0  0
    0.8154    0.4077    4.3704 C   0  0  0  0  0  0  0  0  0  0  0  0
    0.7759   -0.0729    3.0627 C   0  0  0  0  0  0  0  0  0  0  0  0
   -0.3498    0.1562    2.2291 C   0  0  0  0  0  0  0  0  0  0  0  0
    5.7848    0.1309   -4.2028 H   0  0  0  0  0  0  0  0  0  0  0  0
    4.9030    0.8117   -2.8135 H   0  0  0  0  0  0  0  0  0  0  0  0
    6.4563   -0.0266   -2.5621 H   0  0  0  0  0  0  0  0  0  0  0  0
    3.9427   -2.8582   -3.8217 H   0  0  0  0  0  0  0  0  0  0  0  0
    5.3337   -1.4363   -0.9071 H   0  0  0  0  0  0  0  0  0  0  0  0
    1.7210   -2.3511   -1.6729 H   0  0  0  0  0  0  0  0  0  0  0  0
    1.9246   -0.9055   -2.6747 H   0  0  0  0  0  0  0  0  0  0  0  0
   -1.7281   -0.3577   -0.8677 H   0  0  0  0  0  0  0  0  0  0  0  0
   -3.0065    1.3356   -1.9392 H   0  0  0  0  0  0  0  0  0  0  0  0
   -5.1076    1.9255   -3.0592 H   0  0  0  0  0  0  0  0  0  0  0  0
   -7.2130    2.1006   -1.7716 H   0  0  0  0  0  0  0  0  0  0  0  0
   -5.0968    1.0608    1.8270 H   0  0  0  0  0  0  0  0  0  0  0  0
   -2.2080    1.9309    4.4415 H   0  0  0  0  0  0  0  0  0  0  0  0
   -0.2469    1.5078    5.8832 H   0  0  0  0  0  0  0  0  0  0  0  0
    1.6853    0.2202    4.9948 H   0  0  0  0  0  0  0  0  0  0  0  0
    1.6383   -0.6284    2.6980 H   0  0  0  0  0  0  0  0  0  0  0  0
  1  2  1  0
  2  3  2  3
  2  4  1  0
  4  5  1  0
  5  6  3  0
  4  7  1  0
  7  8  2  0
  7  9  1  0
  9 10  1  0
 10 11  1  0
 11 12  2  0
 11 13  1  0
 13 14  2  0
 14 15  1  0
 15 16  1  0
 16 17  2  0
 17 18  1  0
 18 19  2  0
 19 20  1  0
 20 21  1  0
 20 22  2  0
 15 23  2  0
 23 24  1  0
 24 25  2  0
 25 26  1  0
 26 27  2  0
 27 28  1  0
 28 29  2  0
 29 13  1  0
 22 16  1  0
 29 24  1  0
  1 30  1  0
  1 31  1  0
  1 32  1  0
  3 33  1  0
  4 34  1  0
  9 35  1  0
  9 36  1  0
 14 37  1  0
 17 38  1  0
 18 39  1  0
 19 40  1  0
 22 41  1  0
 25 42  1  0
 26 43  1  0
 27 44  1  0
 28 45  1  0
M  END
$$$$
