
     RDKit          3D

 49 52  0  0  0  0  0  0  0  0999 V2000
    1.9216    0.9949   -3.6616 N   0  0  0  0  0  0  0  0  0  0  0  0
    1.4121    0.4403   -2.7752 C   0  0  0  0  0  0  0  0  0  0  0  0
    0.7077   -0.2927   -1.7113 C   0  0  0  0  0  0  0  0  0  0  0  0
    1.5899   -0.5429   -0.4931 C   0  0  0  0  0  0  0  0  0  0  0  0
    2.7842   -0.2556   -0.4391 O   0  0  0  0  0  0  0  0  0  0  0  0
    0.9543   -1.2065    0.5477 N   0  0  0  0  0  0  0  0  0  0  0  0
    1.6739   -1.6706    1.7124 C   0  0  0  0  0  0  0  0  0  0  0  0
    1.9880   -3.1381    1.5876 C   0  0  0  0  0  0  0  0  0  0  0  0
    3.1168   -3.5594    0.8698 C   0  0  0  0  0  0  0  0  0  0  0  0
    3.3995   -4.9184    0.7276 C   0  0  0  0  0  0  0  0  0  0  0  0
    2.5544   -5.8695    1.2960 C   0  0  0  0  0  0  0  0  0  0  0  0
    1.4248   -5.4632    2.0043 C   0  0  0  0  0  0  0  0  0  0  0  0
    1.1396   -4.1040    2.1473 C   0  0  0  0  0  0  0  0  0  0  0  0
   -0.6069    0.3572   -1.3401 C   0  0  0  0  0  0  0  0  0  0  0  0
   -1.7299   -0.3978   -1.5264 N   0  0  0  0  0  0  0  0  0  0  0  0
   -2.9056    0.1663   -1.1971 C   0  0  0  0  0  0  0  0  0  0  0  0
   -4.0858   -0.5432   -1.3840 C   0  0  0  0  0  0  0  0  0  0  0  0
   -5.3243    0.0080   -1.0527 C   0  0  0  0  0  0  0  0  0  0  0  0
   -5.3832    1.2909   -0.5247 C   0  0  0  0  0  0  0  0  0  0  0  0
   -4.2030    2.0107   -0.3329 C   0  0  0  0  0  0  0  0  0  0  0  0
   -2.9647    1.4715   -0.6597 C   0  0  0  0  0  0  0  0  0  0  0  0
   -1.8502    2.1975   -0.4543 N   0  0  0  0  0  0  0  0  0  0  0  0
   -0.6628    1.6457   -0.7902 C   0  0  0  0  0  0  0  0  0  0  0  0
    0.5198    2.3718   -0.5797 N   0  0  0  0  0  0  0  0  0  0  0  0
    0.7081    2.7272    0.8429 C   0  0  0  0  0  0  0  0  0  0  0  0
    1.2723    4.1422    0.8172 C   0  0  0  0  0  0  0  0  0  0  0  0
    0.5353    4.7559   -0.3556 C   0  0  0  0  0  0  0  0  0  0  0  0
    0.5384    3.6218   -1.3741 C   0  0  0  0  0  0  0  0  0  0  0  0
    0.4855   -1.2924   -2.1128 H   0  0  0  0  0  0  0  0  0  0  0  0
    0.0264   -1.5867    0.3972 H   0  0  0  0  0  0  0  0  0  0  0  0
    1.0335   -1.4900    2.5828 H   0  0  0  0  0  0  0  0  0  0  0  0
    2.5928   -1.0930    1.8619 H   0  0  0  0  0  0  0  0  0  0  0  0
    3.7804   -2.8248    0.4150 H   0  0  0  0  0  0  0  0  0  0  0  0
    4.2787   -5.2334    0.1715 H   0  0  0  0  0  0  0  0  0  0  0  0
    2.7759   -6.9277    1.1850 H   0  0  0  0  0  0  0  0  0  0  0  0
    0.7654   -6.2065    2.4450 H   0  0  0  0  0  0  0  0  0  0  0  0
    0.2522   -3.8049    2.7002 H   0  0  0  0  0  0  0  0  0  0  0  0
   -4.0393   -1.5464   -1.8010 H   0  0  0  0  0  0  0  0  0  0  0  0
   -6.2356   -0.5637   -1.2101 H   0  0  0  0  0  0  0  0  0  0  0  0
   -6.3407    1.7347   -0.2635 H   0  0  0  0  0  0  0  0  0  0  0  0
   -4.2472    3.0160    0.0795 H   0  0  0  0  0  0  0  0  0  0  0  0
    1.4068    2.0332    1.3216 H   0  0  0  0  0  0  0  0  0  0  0  0
   -0.2266    2.7178    1.4182 H   0  0  0  0  0  0  0  0  0  0  0  0
    2.3507    4.1198    0.6195 H   0  0  0  0  0  0  0  0  0  0  0  0
    1.1034    4.6783    1.7551 H   0  0  0  0  0  0  0  0  0  0  0  0
    1.0171    5.6609   -0.7355 H   0  0  0  0  0  0  0  0  0  0  0  0
   -0.4930    5.0060   -0.0686 H   0  0  0  0  0  0  0  0  0  0  0  0
   -0.2850    3.7199   -2.0919 H   0  0  0  0  0  0  0  0  0  0  0  0
    1.4744    3.6426   -1.9449 H   0  0  0  0  0  0  0  0  0  0  0  0
  1  2  3  0
  2  3  1  0
  3  4  1  0
  4  5  2  0
  4  6  1  0
  6  7  1  0
  7  8  1  0
  8  9  2  0
  9 10  1  0
 10 11  2  0
 11 12  1  0
 12 13  2  0
  3 14  1  0
 14 15  2  0
 15 16  1  0
 16 17  2  0
 17 18  1  0
 18 19  2  0
 19 20  1  0
 20 21  2  0
 21 22  1  0
 22 23  2  0
 23 24  1  0
 24 25  1  0
 25 26  1  0
 26 27  1  0
 27 28  1  0
 13  8  1  0
 23 14  1  0
 28 24  1  0
 21 16  1  0
  3 29  1  0
  6 30  1  0
  7 31  1  0
  7 32  1  0
  9 33  1  0
 10 34  1  0
 11 35  1  0
 12 36  1  0
 13 37  1  0
 17 38  1  0
 18 39  1  0
 19 40  1  0
 20 41  1  0
 25 42  1  0
 25 43  1  0
 26 44  1  0
 26 45  1  0
 27 46  1  0
 27 47  1  0
 28 48  1  0
 28 49  1  0
M  END
$$$$
