
     RDKit          3D

 49 51  0  0  0  0  0  0  0  0999 V2000
   -3.0618    2.8997    1.2961 C   0  0  0  0  0  0  0  0  0  0  0  0
   -2.9559    1.6101    0.4918 C   0  0  0  0  0  0  0  0  0  0  0  0
   -1.5028    1.1496    0.2722 C   0  0  0  0  0  0  0  0  0  0  0  0
   -0.7246    0.8712    1.5612 C   0  0  0  0  0  0  0  0  0  0  0  0
   -1.3812    0.0354   -0.7134 N   0  0  0  0  0  0  0  0  0  0  0  0
   -0.6791    0.1622   -1.9301 C   0  0  0  0  0  0  0  0  0  0  0  0
   -0.7862   -0.7010   -2.8104 O   0  0  0  0  0  0  0  0  0  0  0  0
    0.1830    1.3719   -2.2093 C   0  0  0  0  0  0  0  0  0  0  0  0
    1.3426    1.4210   -1.3549 N   0  0  0  0  0  0  0  0  0  0  0  0
    1.6040    2.4955   -0.5912 N   0  0  0  0  0  0  0  0  0  0  0  0
    2.7436    2.2055    0.0186 N   0  0  0  0  0  0  0  0  0  0  0  0
    3.1357    0.9643   -0.4307 C   0  0  0  0  0  0  0  0  0  0  0  0
    4.3559    0.3065    0.0184 C   0  0  0  0  0  0  0  0  0  0  0  0
    5.2076    0.9396    0.9391 C   0  0  0  0  0  0  0  0  0  0  0  0
    6.3777    0.3098    1.3727 C   0  0  0  0  0  0  0  0  0  0  0  0
    6.6980   -0.9523    0.8875 C   0  0  0  0  0  0  0  0  0  0  0  0
    7.8194   -1.5542    1.3040 F   0  0  0  0  0  0  0  0  0  0  0  0
    5.8715   -1.5980   -0.0234 C   0  0  0  0  0  0  0  0  0  0  0  0
    4.7014   -0.9697   -0.4582 C   0  0  0  0  0  0  0  0  0  0  0  0
    2.2657    0.4438   -1.3145 N   0  0  0  0  0  0  0  0  0  0  0  0
   -2.0960   -1.2550   -0.5424 C   0  0  0  0  0  0  0  0  0  0  0  0
   -3.4582   -1.2910   -1.2600 C   0  0  0  0  0  0  0  0  0  0  0  0
   -4.0037   -2.6946   -1.0288 C   0  0  0  0  0  0  0  0  0  0  0  0
   -3.5149   -3.1166    0.6362 S   0  0  0  0  0  6  0  0  0  0  0  0
   -4.6409   -2.8949    1.5199 O   0  0  0  0  0  0  0  0  0  0  0  0
   -2.7908   -4.3695    0.6071 O   0  0  0  0  0  0  0  0  0  0  0  0
   -2.3491   -1.7829    0.8679 C   0  0  0  0  0  0  0  0  0  0  0  0
   -4.1061    3.2243    1.3480 H   0  0  0  0  0  0  0  0  0  0  0  0
   -2.7060    2.7611    2.3213 H   0  0  0  0  0  0  0  0  0  0  0  0
   -2.4813    3.7030    0.8317 H   0  0  0  0  0  0  0  0  0  0  0  0
   -3.4266    1.7766   -0.4852 H   0  0  0  0  0  0  0  0  0  0  0  0
   -3.5487    0.8438    0.9970 H   0  0  0  0  0  0  0  0  0  0  0  0
   -1.0128    2.0186   -0.1671 H   0  0  0  0  0  0  0  0  0  0  0  0
   -0.5121    1.8060    2.0911 H   0  0  0  0  0  0  0  0  0  0  0  0
    0.2352    0.3896    1.3474 H   0  0  0  0  0  0  0  0  0  0  0  0
   -1.2734    0.2319    2.2555 H   0  0  0  0  0  0  0  0  0  0  0  0
   -0.3929    2.2974   -2.1262 H   0  0  0  0  0  0  0  0  0  0  0  0
    0.5556    1.3164   -3.2387 H   0  0  0  0  0  0  0  0  0  0  0  0
    4.9683    1.9285    1.3261 H   0  0  0  0  0  0  0  0  0  0  0  0
    7.0385    0.7959    2.0836 H   0  0  0  0  0  0  0  0  0  0  0  0
    6.1401   -2.5837   -0.3902 H   0  0  0  0  0  0  0  0  0  0  0  0
    4.0599   -1.4835   -1.1726 H   0  0  0  0  0  0  0  0  0  0  0  0
   -1.4658   -2.0155   -1.0279 H   0  0  0  0  0  0  0  0  0  0  0  0
   -4.1432   -0.5531   -0.8296 H   0  0  0  0  0  0  0  0  0  0  0  0
   -3.3794   -1.0749   -2.3298 H   0  0  0  0  0  0  0  0  0  0  0  0
   -3.5382   -3.4148   -1.7079 H   0  0  0  0  0  0  0  0  0  0  0  0
   -5.0907   -2.7421   -1.1200 H   0  0  0  0  0  0  0  0  0  0  0  0
   -2.8386   -1.0658    1.5254 H   0  0  0  0  0  0  0  0  0  0  0  0
   -1.4427   -2.1659    1.3425 H   0  0  0  0  0  0  0  0  0  0  0  0
  1  2  1  0
  2  3  1  0
  3  4  1  0
  3  5  1  0
  5  6  1  0
  6  7  2  0
  6  8  1  0
  8  9  1  0
  9 10  1  0
 10 11  2  0
 11 12  1  0
 12 13  1  0
 13 14  2  0
 14 15  1  0
 15 16  2  0
 16 17  1  0
 16 18  1  0
 18 19  2  0
 12 20  2  0
  5 21  1  0
 21 22  1  0
 22 23  1  0
 23 24  1  0
 24 25  2  0
 24 26  2  0
 24 27  1  0
 20  9  1  0
 27 21  1  0
 19 13  1  0
  1 28  1  0
  1 29  1  0
  1 30  1  0
  2 31  1  0
  2 32  1  0
  3 33  1  0
  4 34  1  0
  4 35  1  0
  4 36  1  0
  8 37  1  0
  8 38  1  0
 14 39  1  0
 15 40  1  0
 18 41  1  0
 19 42  1  0
 21 43  1  0
 22 44  1  0
 22 45  1  0
 23 46  1  0
 23 47  1  0
 27 48  1  0
 27 49  1  0
M  END
$$$$
