
     RDKit          3D

 62 65  0  0  0  0  0  0  0  0999 V2000
   10.1449   -2.1677    0.4339 C   0  0  0  0  0  0  0  0  0  0  0  0
    9.0052   -3.0079    0.9789 C   0  0  0  0  0  0  0  0  0  0  0  0
    7.7681   -2.2877    0.8805 O   0  0  0  0  0  0  0  0  0  0  0  0
    7.1048   -2.3990   -0.3019 C   0  0  0  0  0  0  0  0  0  0  0  0
    7.5010   -3.0619   -1.2525 O   0  0  0  0  0  0  0  0  0  0  0  0
    5.9271   -1.6798   -0.3062 N   0  0  0  0  0  0  0  0  0  0  0  0
    5.0596   -1.7131   -1.4790 C   0  0  0  0  0  0  0  0  0  0  0  0
    3.5741   -1.6689   -1.0977 C   0  0  0  0  0  0  0  0  0  0  0  0
    3.2393   -0.5607   -0.1925 N   0  0  0  0  0  0  0  0  0  0  0  0
    1.9425   -0.1318    0.0786 C   0  0  0  0  0  0  0  0  0  0  0  0
    1.7239    0.8209    0.8280 O   0  0  0  0  0  0  0  0  0  0  0  0
    0.7998   -0.9016   -0.6083 C   0  0  0  0  0  0  0  0  0  0  0  0
   -0.5104   -0.5608   -0.1746 O   0  0  0  0  0  0  0  0  0  0  0  0
   -1.1770    0.4194   -0.8608 C   0  0  0  0  0  0  0  0  0  0  0  0
   -0.5520    1.4273   -1.6022 C   0  0  0  0  0  0  0  0  0  0  0  0
   -1.3105    2.3812   -2.2836 C   0  0  0  0  0  0  0  0  0  0  0  0
   -2.7006    2.3388   -2.2239 C   0  0  0  0  0  0  0  0  0  0  0  0
   -3.3377    1.3537   -1.4616 C   0  0  0  0  0  0  0  0  0  0  0  0
   -2.5792    0.3986   -0.7605 C   0  0  0  0  0  0  0  0  0  0  0  0
   -3.2978   -0.6670    0.0255 C   0  0  0  0  0  0  0  0  0  0  0  0
   -4.6195   -0.1298    0.5582 C   0  0  0  0  0  0  0  0  0  0  0  0
   -5.4233    0.4711   -0.4983 N   0  0  0  0  0  0  0  0  0  0  0  0
   -6.8715    0.5098   -0.3215 C   0  0  0  0  0  0  0  0  0  0  0  0
   -7.3059    1.4480    0.7744 C   0  0  0  0  0  0  0  0  0  0  0  0
   -7.3422    2.8342    0.5639 C   0  0  0  0  0  0  0  0  0  0  0  0
   -7.7338    3.6976    1.5903 C   0  0  0  0  0  0  0  0  0  0  0  0
   -8.0908    3.1869    2.8383 C   0  0  0  0  0  0  0  0  0  0  0  0
   -8.0543    1.8117    3.0603 C   0  0  0  0  0  0  0  0  0  0  0  0
   -7.6629    0.9574    2.0328 C   0  0  0  0  0  0  0  0  0  0  0  0
   -7.6248   -0.3617    2.2722 F   0  0  0  0  0  0  0  0  0  0  0  0
   -4.8301    1.3254   -1.4243 C   0  0  0  0  0  0  0  0  0  0  0  0
   -5.4691    2.0329   -2.1984 O   0  0  0  0  0  0  0  0  0  0  0  0
    4.3619    0.1050    0.4794 C   0  0  0  0  0  0  0  0  0  0  0  0
    5.4931   -0.8683    0.8334 C   0  0  0  0  0  0  0  0  0  0  0  0
   11.1013   -2.6829    0.5602 H   0  0  0  0  0  0  0  0  0  0  0  0
   10.0016   -1.9531   -0.6299 H   0  0  0  0  0  0  0  0  0  0  0  0
   10.1919   -1.2031    0.9496 H   0  0  0  0  0  0  0  0  0  0  0  0
    8.9441   -3.9791    0.4748 H   0  0  0  0  0  0  0  0  0  0  0  0
    9.1732   -3.2090    2.0421 H   0  0  0  0  0  0  0  0  0  0  0  0
    5.2631   -2.6018   -2.0855 H   0  0  0  0  0  0  0  0  0  0  0  0
    5.3162   -0.8353   -2.0845 H   0  0  0  0  0  0  0  0  0  0  0  0
    3.2983   -2.5930   -0.5758 H   0  0  0  0  0  0  0  0  0  0  0  0
    2.9631   -1.5984   -2.0024 H   0  0  0  0  0  0  0  0  0  0  0  0
    0.9276   -1.9597   -0.3531 H   0  0  0  0  0  0  0  0  0  0  0  0
    0.8907   -0.8220   -1.6978 H   0  0  0  0  0  0  0  0  0  0  0  0
    0.5288    1.5128   -1.6510 H   0  0  0  0  0  0  0  0  0  0  0  0
   -0.8161    3.1612   -2.8574 H   0  0  0  0  0  0  0  0  0  0  0  0
   -3.2869    3.0793   -2.7642 H   0  0  0  0  0  0  0  0  0  0  0  0
   -3.4746   -1.5237   -0.6362 H   0  0  0  0  0  0  0  0  0  0  0  0
   -2.6986   -1.0115    0.8753 H   0  0  0  0  0  0  0  0  0  0  0  0
   -5.1825   -0.9501    1.0168 H   0  0  0  0  0  0  0  0  0  0  0  0
   -4.4435    0.6393    1.3204 H   0  0  0  0  0  0  0  0  0  0  0  0
   -7.3549    0.8094   -1.2595 H   0  0  0  0  0  0  0  0  0  0  0  0
   -7.2135   -0.5129   -0.1225 H   0  0  0  0  0  0  0  0  0  0  0  0
   -7.0618    3.2464   -0.4047 H   0  0  0  0  0  0  0  0  0  0  0  0
   -7.7574    4.7704    1.4134 H   0  0  0  0  0  0  0  0  0  0  0  0
   -8.3940    3.8605    3.6357 H   0  0  0  0  0  0  0  0  0  0  0  0
   -8.3256    1.3995    4.0268 H   0  0  0  0  0  0  0  0  0  0  0  0
    4.7307    0.8685   -0.2164 H   0  0  0  0  0  0  0  0  0  0  0  0
    4.0242    0.6211    1.3840 H   0  0  0  0  0  0  0  0  0  0  0  0
    6.3493   -0.3161    1.2358 H   0  0  0  0  0  0  0  0  0  0  0  0
    5.1533   -1.5689    1.6057 H   0  0  0  0  0  0  0  0  0  0  0  0
  1  2  1  0
  2  3  1  0
  3  4  1  0
  4  5  2  0
  4  6  1  0
  6  7  1  0
  7  8  1  0
  8  9  1  0
  9 10  1  0
 10 11  2  0
 10 12  1  0
 12 13  1  0
 13 14  1  0
 14 15  2  0
 15 16  1  0
 16 17  2  0
 17 18  1  0
 18 19  2  0
 19 20  1  0
 20 21  1  0
 21 22  1  0
 22 23  1  0
 23 24  1  0
 24 25  2  0
 25 26  1  0
 26 27  2  0
 27 28  1  0
 28 29  2  0
 29 30  1  0
 22 31  1  0
 31 32  2  0
  9 33  1  0
 33 34  1  0
 34  6  1  0
 19 14  1  0
 29 24  1  0
 31 18  1  0
  1 35  1  0
  1 36  1  0
  1 37  1  0
  2 38  1  0
  2 39  1  0
  7 40  1  0
  7 41  1  0
  8 42  1  0
  8 43  1  0
 12 44  1  0
 12 45  1  0
 15 46  1  0
 16 47  1  0
 17 48  1  0
 20 49  1  0
 20 50  1  0
 21 51  1  0
 21 52  1  0
 23 53  1  0
 23 54  1  0
 25 55  1  0
 26 56  1  0
 27 57  1  0
 28 58  1  0
 33 59  1  0
 33 60  1  0
 34 61  1  0
 34 62  1  0
M  END
$$$$
