
     RDKit          3D

 44 45  0  0  0  0  0  0  0  0999 V2000
    3.5939   -0.8682   -4.8265 C   0  0  0  0  0  0  0  0  0  0  0  0
    2.4944   -1.5492   -4.0263 C   0  0  0  0  0  0  0  0  0  0  0  0
    1.6468   -0.5768   -3.2036 C   0  0  0  0  0  0  0  0  0  0  0  0
    2.4356    0.1225   -2.0919 C   0  0  0  0  0  0  0  0  0  0  0  0
    1.5370    0.9471   -1.2563 N   0  0  0  0  0  0  0  0  0  0  0  0
    1.2546    2.2722   -1.8258 C   0  0  0  0  0  0  0  0  0  0  0  0
    0.7599    0.4020   -0.2100 C   0  0  0  0  0  0  0  0  0  0  0  0
   -0.3628    0.9809    0.2697 C   0  0  0  0  0  0  0  0  0  0  0  0
   -1.2081    0.4205    1.3145 C   0  0  0  0  0  0  0  0  0  0  0  0
   -2.2306    1.1285    1.8316 C   0  0  0  0  0  0  0  0  0  0  0  0
   -3.1348    0.6198    2.8700 C   0  0  0  0  0  0  0  0  0  0  0  0
   -4.0724    1.3918    3.4770 C   0  0  0  0  0  0  0  0  0  0  0  0
   -4.9542    0.8559    4.4617 C   0  0  0  0  0  0  0  0  0  0  0  0
   -5.6667    0.4066    5.2601 N   0  0  0  0  0  0  0  0  0  0  0  0
   -4.2422    2.7732    3.1644 C   0  0  0  0  0  0  0  0  0  0  0  0
   -4.3738    3.8957    2.8997 N   0  0  0  0  0  0  0  0  0  0  0  0
   -2.9448   -0.8556    3.2021 C   0  0  0  0  0  0  0  0  0  0  0  0
   -1.4750   -1.2700    3.1586 C   0  0  0  0  0  0  0  0  0  0  0  0
   -0.8747   -0.9797    1.7783 C   0  0  0  0  0  0  0  0  0  0  0  0
    0.6387   -1.1903    1.7969 C   0  0  0  0  0  0  0  0  0  0  0  0
    1.2474   -0.8963    0.4241 C   0  0  0  0  0  0  0  0  0  0  0  0
    4.3489   -0.4225   -4.1725 H   0  0  0  0  0  0  0  0  0  0  0  0
    4.1000   -1.5987   -5.4659 H   0  0  0  0  0  0  0  0  0  0  0  0
    3.1837   -0.0826   -5.4688 H   0  0  0  0  0  0  0  0  0  0  0  0
    2.9368   -2.3068   -3.3690 H   0  0  0  0  0  0  0  0  0  0  0  0
    1.8350   -2.0806   -4.7229 H   0  0  0  0  0  0  0  0  0  0  0  0
    0.8134   -1.1384   -2.7639 H   0  0  0  0  0  0  0  0  0  0  0  0
    1.1962    0.1704   -3.8685 H   0  0  0  0  0  0  0  0  0  0  0  0
    2.9720   -0.6164   -1.4883 H   0  0  0  0  0  0  0  0  0  0  0  0
    3.2163    0.7592   -2.5243 H   0  0  0  0  0  0  0  0  0  0  0  0
    0.3285    2.2477   -2.4099 H   0  0  0  0  0  0  0  0  0  0  0  0
    1.1613    3.0230   -1.0337 H   0  0  0  0  0  0  0  0  0  0  0  0
    2.0609    2.6117   -2.4850 H   0  0  0  0  0  0  0  0  0  0  0  0
   -0.7002    1.9234   -0.1513 H   0  0  0  0  0  0  0  0  0  0  0  0
   -2.3959    2.1394    1.4601 H   0  0  0  0  0  0  0  0  0  0  0  0
   -3.5147   -1.4542    2.4794 H   0  0  0  0  0  0  0  0  0  0  0  0
   -3.3298   -1.1049    4.1966 H   0  0  0  0  0  0  0  0  0  0  0  0
   -0.9208   -0.7342    3.9412 H   0  0  0  0  0  0  0  0  0  0  0  0
   -1.3872   -2.3397    3.3840 H   0  0  0  0  0  0  0  0  0  0  0  0
   -1.3143   -1.6831    1.0562 H   0  0  0  0  0  0  0  0  0  0  0  0
    1.1035   -0.5345    2.5460 H   0  0  0  0  0  0  0  0  0  0  0  0
    0.8787   -2.2201    2.0878 H   0  0  0  0  0  0  0  0  0  0  0  0
    1.0249   -1.7271   -0.2569 H   0  0  0  0  0  0  0  0  0  0  0  0
    2.3346   -0.8616    0.5610 H   0  0  0  0  0  0  0  0  0  0  0  0
  1  2  1  0
  2  3  1  0
  3  4  1  0
  4  5  1  0
  5  6  1  0
  5  7  1  0
  7  8  2  0
  8  9  1  0
  9 10  2  0
 10 11  1  0
 11 12  2  3
 12 13  1  0
 13 14  3  0
 12 15  1  0
 15 16  3  0
 11 17  1  0
 17 18  1  0
 18 19  1  0
 19 20  1  0
 20 21  1  0
 21  7  1  0
 19  9  1  0
  1 22  1  0
  1 23  1  0
  1 24  1  0
  2 25  1  0
  2 26  1  0
  3 27  1  0
  3 28  1  0
  4 29  1  0
  4 30  1  0
  6 31  1  0
  6 32  1  0
  6 33  1  0
  8 34  1  0
 10 35  1  0
 17 36  1  0
 17 37  1  0
 18 38  1  0
 18 39  1  0
 19 40  1  0
 20 41  1  0
 20 42  1  0
 21 43  1  0
 21 44  1  0
M  END
$$$$
