
     RDKit          3D

 77 83  0  0  0  0  0  0  0  0999 V2000
   -7.2242    0.5153   -0.6329 C   0  0  0  0  0  0  0  0  0  0  0  0
   -6.7640   -0.9287   -0.8886 C   0  0  0  0  0  0  0  0  0  0  0  0
   -7.1258   -1.3102   -2.3278 C   0  0  0  0  0  0  0  0  0  0  0  0
   -7.4416   -1.8447    0.1364 C   0  0  0  0  0  0  0  0  0  0  0  0
   -5.3271   -0.8932   -0.7003 O   0  0  0  0  0  0  0  0  0  0  0  0
   -4.5700   -2.0104   -0.8433 C   0  0  0  0  0  0  0  0  0  0  0  0
   -5.0146   -3.1161   -1.1256 O   0  0  0  0  0  0  0  0  0  0  0  0
   -3.2245   -1.7609   -0.6306 N   0  0  0  0  0  0  0  0  0  0  0  0
   -2.2695   -2.8292   -0.9694 C   0  0  0  0  0  0  0  0  0  0  0  0
   -0.8770   -2.6745   -0.3067 C   0  0  0  0  0  0  0  0  0  0  0  0
   -0.4121   -1.3139   -0.5066 N   0  0  0  0  0  0  0  0  0  0  0  0
   -1.3541   -0.3425    0.1363 C   0  0  2  0  0  0  0  0  0  0  0  0
   -2.6920   -0.3806   -0.5933 C   0  0  0  0  0  0  0  0  0  0  0  0
   -0.5347    0.8819    0.0733 C   0  0  0  0  0  0  0  0  0  0  0  0
    0.8240    0.5464   -0.0404 C   0  0  0  0  0  0  0  0  0  0  0  0
    1.5587    1.7014   -0.0388 C   0  0  0  0  0  0  0  0  0  0  0  0
    2.8735    1.8389   -0.1989 O   0  0  0  0  0  0  0  0  0  0  0  0
    0.6470    2.7687    0.0890 N   0  0  0  0  0  0  0  0  0  0  0  0
    0.9861    4.1525    0.1377 C   0  0  0  0  0  0  0  0  0  0  0  0
    0.1897    5.0933   -0.5288 C   0  0  0  0  0  0  0  0  0  0  0  0
    0.5270    6.4469   -0.4827 C   0  0  0  0  0  0  0  0  0  0  0  0
    1.6522    6.8644    0.2277 C   0  0  0  0  0  0  0  0  0  0  0  0
    2.4453    5.9303    0.8932 C   0  0  0  0  0  0  0  0  0  0  0  0
    2.1169    4.5745    0.8498 C   0  0  0  0  0  0  0  0  0  0  0  0
   -0.6565    2.2381    0.1724 C   0  0  0  0  0  0  0  0  0  0  0  0
   -1.7613    2.9480    0.3944 O   0  0  0  0  0  0  0  0  0  0  0  0
    0.9757   -0.9301   -0.1456 C   0  0  1  0  0  0  0  0  0  0  0  0
    1.5248   -1.5710    1.1531 C   0  0  0  0  0  0  0  0  0  0  0  0
    0.9977   -1.5820    2.2589 O   0  0  0  0  0  0  0  0  0  0  0  0
    2.7545   -2.1613    0.8147 N   0  0  0  0  0  0  0  0  0  0  0  0
    3.6245   -2.7925    1.7787 C   0  0  0  0  0  0  0  0  0  0  0  0
    4.7037   -1.8654    2.2900 C   0  0  0  0  0  0  0  0  0  0  0  0
    4.3691   -0.7429    3.0633 C   0  0  0  0  0  0  0  0  0  0  0  0
    5.3610    0.1196    3.5317 C   0  0  0  0  0  0  0  0  0  0  0  0
    6.6990   -0.1300    3.2342 C   0  0  0  0  0  0  0  0  0  0  0  0
    7.0465   -1.2443    2.4727 C   0  0  0  0  0  0  0  0  0  0  0  0
    6.0553   -2.1092    2.0046 C   0  0  0  0  0  0  0  0  0  0  0  0
    3.0481   -1.9785   -0.5472 C   0  0  0  0  0  0  0  0  0  0  0  0
    4.1504   -2.4149   -1.2600 C   0  0  0  0  0  0  0  0  0  0  0  0
    4.2033   -2.1322   -2.6285 C   0  0  0  0  0  0  0  0  0  0  0  0
    3.1641   -1.4285   -3.2589 C   0  0  0  0  0  0  0  0  0  0  0  0
    2.0570   -0.9923   -2.5294 C   0  0  0  0  0  0  0  0  0  0  0  0
    2.0149   -1.2665   -1.1692 C   0  0  0  0  0  0  0  0  0  0  0  0
   -8.3064    0.6250   -0.7565 H   0  0  0  0  0  0  0  0  0  0  0  0
   -6.7250    1.2105   -1.3173 H   0  0  0  0  0  0  0  0  0  0  0  0
   -6.9565    0.8358    0.3803 H   0  0  0  0  0  0  0  0  0  0  0  0
   -6.5593   -0.7049   -3.0442 H   0  0  0  0  0  0  0  0  0  0  0  0
   -8.1948   -1.1703   -2.5207 H   0  0  0  0  0  0  0  0  0  0  0  0
   -6.8890   -2.3561   -2.5450 H   0  0  0  0  0  0  0  0  0  0  0  0
   -7.2023   -2.8988   -0.0335 H   0  0  0  0  0  0  0  0  0  0  0  0
   -8.5318   -1.7448    0.0997 H   0  0  0  0  0  0  0  0  0  0  0  0
   -7.1047   -1.6069    1.1518 H   0  0  0  0  0  0  0  0  0  0  0  0
   -2.6943   -3.8024   -0.6999 H   0  0  0  0  0  0  0  0  0  0  0  0
   -2.1603   -2.8147   -2.0615 H   0  0  0  0  0  0  0  0  0  0  0  0
   -0.9519   -2.9174    0.7599 H   0  0  0  0  0  0  0  0  0  0  0  0
   -0.1909   -3.3945   -0.7658 H   0  0  0  0  0  0  0  0  0  0  0  0
   -1.5044   -0.6108    1.1921 H   0  0  0  0  0  0  0  0  0  0  0  0
   -2.5975   -0.0414   -1.6327 H   0  0  0  0  0  0  0  0  0  0  0  0
   -3.4042    0.2879   -0.0979 H   0  0  0  0  0  0  0  0  0  0  0  0
    3.0641    2.7275   -0.5475 H   0  0  0  0  0  0  0  0  0  0  0  0
   -0.6686    4.7905   -1.1252 H   0  0  0  0  0  0  0  0  0  0  0  0
   -0.0820    7.1772   -1.0103 H   0  0  0  0  0  0  0  0  0  0  0  0
    1.9116    7.9198    0.2621 H   0  0  0  0  0  0  0  0  0  0  0  0
    3.3161    6.2610    1.4558 H   0  0  0  0  0  0  0  0  0  0  0  0
    2.7280    3.8722    1.4142 H   0  0  0  0  0  0  0  0  0  0  0  0
   -1.5154    3.8111    0.7734 H   0  0  0  0  0  0  0  0  0  0  0  0
    4.0556   -3.6960    1.3323 H   0  0  0  0  0  0  0  0  0  0  0  0
    3.0276   -3.1290    2.6353 H   0  0  0  0  0  0  0  0  0  0  0  0
    3.3278   -0.5336    3.3042 H   0  0  0  0  0  0  0  0  0  0  0  0
    5.0855    0.9866    4.1261 H   0  0  0  0  0  0  0  0  0  0  0  0
    7.4701    0.5437    3.5970 H   0  0  0  0  0  0  0  0  0  0  0  0
    8.0914   -1.4386    2.2412 H   0  0  0  0  0  0  0  0  0  0  0  0
    6.3480   -2.9733    1.4127 H   0  0  0  0  0  0  0  0  0  0  0  0
    4.9580   -2.9629   -0.7913 H   0  0  0  0  0  0  0  0  0  0  0  0
    5.0592   -2.4608   -3.2136 H   0  0  0  0  0  0  0  0  0  0  0  0
    3.2243   -1.2189   -4.3241 H   0  0  0  0  0  0  0  0  0  0  0  0
    1.2507   -0.4464   -3.0099 H   0  0  0  0  0  0  0  0  0  0  0  0
  1  2  1  0
  2  3  1  0
  2  4  1  0
  2  5  1  0
  5  6  1  0
  6  7  2  0
  6  8  1  0
  8  9  1  0
  9 10  1  0
 10 11  1  0
 11 12  1  0
 12 13  1  0
 12 14  1  0
 14 15  1  0
 15 16  2  0
 16 17  1  0
 16 18  1  0
 18 19  1  0
 19 20  2  0
 20 21  1  0
 21 22  2  0
 22 23  1  0
 23 24  2  0
 18 25  1  0
 25 26  1  0
 15 27  1  0
 27 28  1  0
 28 29  2  0
 28 30  1  0
 30 31  1  0
 31 32  1  0
 32 33  2  0
 33 34  1  0
 34 35  2  0
 35 36  1  0
 36 37  2  0
 30 38  1  0
 38 39  2  0
 39 40  1  0
 40 41  2  0
 41 42  1  0
 42 43  2  0
 13  8  1  0
 25 14  2  0
 43 27  1  0
 27 11  1  6
 37 32  1  0
 43 38  1  0
 24 19  1  0
  1 44  1  0
  1 45  1  0
  1 46  1  0
  3 47  1  0
  3 48  1  0
  3 49  1  0
  4 50  1  0
  4 51  1  0
  4 52  1  0
  9 53  1  0
  9 54  1  0
 10 55  1  0
 10 56  1  0
 12 57  1  1
 13 58  1  0
 13 59  1  0
 17 60  1  0
 20 61  1  0
 21 62  1  0
 22 63  1  0
 23 64  1  0
 24 65  1  0
 26 66  1  0
 31 67  1  0
 31 68  1  0
 33 69  1  0
 34 70  1  0
 35 71  1  0
 36 72  1  0
 37 73  1  0
 39 74  1  0
 40 75  1  0
 41 76  1  0
 42 77  1  0
M  END
$$$$
