
     RDKit          3D

 61 65  0  0  0  0  0  0  0  0999 V2000
    3.4107    3.8155    2.8914 C   0  0  0  0  0  0  0  0  0  0  0  0
    2.6224    4.1950    1.7702 O   0  0  0  0  0  0  0  0  0  0  0  0
    2.3662    3.2279    0.8394 C   0  0  0  0  0  0  0  0  0  0  0  0
    2.8604    1.9259    0.8505 C   0  0  0  0  0  0  0  0  0  0  0  0
    2.5135    1.0293   -0.1686 C   0  0  0  0  0  0  0  0  0  0  0  0
    1.6566    1.4132   -1.2093 C   0  0  0  0  0  0  0  0  0  0  0  0
    1.2291    0.4884   -2.3344 C   0  0  0  0  0  0  0  0  0  0  0  0
    1.7378   -0.8750   -2.2731 N   0  0  0  0  0  0  0  0  0  0  0  0
    2.9607   -1.1219   -2.9103 C   0  0  0  0  0  0  0  0  0  0  0  0
    3.5974   -0.2531   -3.5148 O   0  0  0  0  0  0  0  0  0  0  0  0
    3.5597   -2.5240   -2.7394 C   0  0  0  0  0  0  0  0  0  0  0  0
    4.4715   -2.5650   -1.5183 C   0  0  0  0  0  0  0  0  0  0  0  0
    2.5332   -3.5521   -2.6644 N   0  0  0  0  0  0  0  0  0  0  0  0
    1.4694   -3.2634   -1.8156 C   0  0  0  0  0  0  0  0  0  0  0  0
    0.9116   -4.3464   -1.2556 N   0  0  0  0  0  0  0  0  0  0  0  0
   -0.1560   -4.1206   -0.4946 C   0  0  0  0  0  0  0  0  0  0  0  0
   -0.7010   -2.9280   -0.2477 N   0  0  0  0  0  0  0  0  0  0  0  0
   -0.1251   -1.8435   -0.8160 C   0  0  0  0  0  0  0  0  0  0  0  0
   -0.7271   -0.5972   -0.5286 N   0  0  0  0  0  0  0  0  0  0  0  0
   -0.7168   -0.3427    0.9399 C   0  0  0  0  0  0  0  0  0  0  0  0
   -1.4001    1.0089    1.2656 C   0  0  0  0  0  0  0  0  0  0  0  0
   -2.7742    1.0849    0.7100 N   0  0  0  0  0  0  0  0  0  0  0  0
   -3.8686    0.6327    1.4517 C   0  0  0  0  0  0  0  0  0  0  0  0
   -5.1767    0.9358    1.0321 C   0  0  0  0  0  0  0  0  0  0  0  0
   -6.3055    0.5174    1.7464 C   0  0  0  0  0  0  0  0  0  0  0  0
   -6.1541   -0.2115    2.9182 C   0  0  0  0  0  0  0  0  0  0  0  0
   -4.8755   -0.5069    3.3751 C   0  0  0  0  0  0  0  0  0  0  0  0
   -3.7518   -0.0823    2.6532 C   0  0  0  0  0  0  0  0  0  0  0  0
   -2.7875    0.7882   -0.7467 C   0  0  0  0  0  0  0  0  0  0  0  0
   -2.1258   -0.5801   -1.0432 C   0  0  0  0  0  0  0  0  0  0  0  0
    1.0130   -1.9496   -1.6329 C   0  0  0  0  0  0  0  0  0  0  0  0
    1.1782    2.7320   -1.2170 C   0  0  0  0  0  0  0  0  0  0  0  0
    1.5303    3.6267   -0.2037 C   0  0  0  0  0  0  0  0  0  0  0  0
    2.9130    3.0314    3.4734 H   0  0  0  0  0  0  0  0  0  0  0  0
    4.4141    3.5025    2.5849 H   0  0  0  0  0  0  0  0  0  0  0  0
    3.5179    4.6925    3.5378 H   0  0  0  0  0  0  0  0  0  0  0  0
    3.5233    1.5726    1.6338 H   0  0  0  0  0  0  0  0  0  0  0  0
    2.9226    0.0246   -0.1289 H   0  0  0  0  0  0  0  0  0  0  0  0
    1.5964    0.9451   -3.2639 H   0  0  0  0  0  0  0  0  0  0  0  0
    0.1428    0.4815   -2.4553 H   0  0  0  0  0  0  0  0  0  0  0  0
    4.1560   -2.7275   -3.6357 H   0  0  0  0  0  0  0  0  0  0  0  0
    3.9249   -2.3688   -0.5896 H   0  0  0  0  0  0  0  0  0  0  0  0
    5.2585   -1.8075   -1.5981 H   0  0  0  0  0  0  0  0  0  0  0  0
    4.9496   -3.5461   -1.4223 H   0  0  0  0  0  0  0  0  0  0  0  0
    2.8337   -4.5108   -2.5229 H   0  0  0  0  0  0  0  0  0  0  0  0
   -0.6277   -4.9818   -0.0358 H   0  0  0  0  0  0  0  0  0  0  0  0
   -1.2336   -1.1460    1.4793 H   0  0  0  0  0  0  0  0  0  0  0  0
    0.3161   -0.3118    1.3052 H   0  0  0  0  0  0  0  0  0  0  0  0
   -0.8185    1.8171    0.8078 H   0  0  0  0  0  0  0  0  0  0  0  0
   -1.3823    1.2103    2.3424 H   0  0  0  0  0  0  0  0  0  0  0  0
   -5.3368    1.5452    0.1469 H   0  0  0  0  0  0  0  0  0  0  0  0
   -7.2984    0.7765    1.3886 H   0  0  0  0  0  0  0  0  0  0  0  0
   -7.0267   -0.5346    3.4790 H   0  0  0  0  0  0  0  0  0  0  0  0
   -4.7435   -1.0666    4.2975 H   0  0  0  0  0  0  0  0  0  0  0  0
   -2.7816   -0.3442    3.0613 H   0  0  0  0  0  0  0  0  0  0  0  0
   -3.7916    0.8078   -1.1818 H   0  0  0  0  0  0  0  0  0  0  0  0
   -2.2193    1.5781   -1.2551 H   0  0  0  0  0  0  0  0  0  0  0  0
   -2.1202   -0.7361   -2.1294 H   0  0  0  0  0  0  0  0  0  0  0  0
   -2.7292   -1.3769   -0.5873 H   0  0  0  0  0  0  0  0  0  0  0  0
    0.5203    3.0728   -2.0144 H   0  0  0  0  0  0  0  0  0  0  0  0
    1.1443    4.6424   -0.2266 H   0  0  0  0  0  0  0  0  0  0  0  0
  1  2  1  0
  2  3  1  0
  3  4  2  0
  4  5  1  0
  5  6  2  0
  6  7  1  0
  7  8  1  0
  8  9  1  0
  9 10  2  0
  9 11  1  0
 11 12  1  0
 11 13  1  0
 13 14  1  0
 14 15  2  0
 15 16  1  0
 16 17  2  0
 17 18  1  0
 18 19  1  0
 19 20  1  0
 20 21  1  0
 21 22  1  0
 22 23  1  0
 23 24  2  0
 24 25  1  0
 25 26  2  0
 26 27  1  0
 27 28  2  0
 22 29  1  0
 29 30  1  0
 18 31  2  0
  6 32  1  0
 32 33  2  0
 33  3  1  0
 31  8  1  0
 31 14  1  0
 30 19  1  0
 28 23  1  0
  1 34  1  0
  1 35  1  0
  1 36  1  0
  4 37  1  0
  5 38  1  0
  7 39  1  0
  7 40  1  0
 11 41  1  0
 12 42  1  0
 12 43  1  0
 12 44  1  0
 13 45  1  0
 16 46  1  0
 20 47  1  0
 20 48  1  0
 21 49  1  0
 21 50  1  0
 24 51  1  0
 25 52  1  0
 26 53  1  0
 27 54  1  0
 28 55  1  0
 29 56  1  0
 29 57  1  0
 30 58  1  0
 30 59  1  0
 32 60  1  0
 33 61  1  0
M  END
$$$$
