
     RDKit          3D

 48 50  0  0  0  0  0  0  0  0999 V2000
    2.7834    1.2781    1.2831 C   0  0  0  0  0  0  0  0  0  0  0  0
    1.4734    1.0483    1.1053 C   0  0  0  0  0  0  0  0  0  0  0  0
    0.3743    1.7526    1.7672 C   0  0  0  0  0  0  0  0  0  0  0  0
    0.3732    2.7622    2.8356 C   0  0  0  0  0  0  0  0  0  0  0  0
   -0.6344    3.3980    3.1319 O   0  0  0  0  0  0  0  0  0  0  0  0
    1.5670    2.8634    3.4637 O   0  0  0  0  0  0  0  0  0  0  0  0
    1.5905    3.8099    4.5332 C   0  0  0  0  0  0  0  0  0  0  0  0
   -0.7869    1.3227    1.2344 C   0  0  0  0  0  0  0  0  0  0  0  0
   -2.0566    1.7206    1.5479 O   0  0  0  0  0  0  0  0  0  0  0  0
   -0.5317    0.2857    0.2345 C   0  0  0  0  0  0  0  0  0  0  0  0
   -1.4423   -0.4259   -0.4588 C   0  0  0  0  0  0  0  0  0  0  0  0
   -2.9015   -0.2962   -0.4235 C   0  0  0  0  0  0  0  0  0  0  0  0
   -3.6700   -1.2879    0.1965 C   0  0  0  0  0  0  0  0  0  0  0  0
   -5.0628   -1.1912    0.2090 C   0  0  0  0  0  0  0  0  0  0  0  0
   -5.6830   -0.1067   -0.4002 C   0  0  0  0  0  0  0  0  0  0  0  0
   -7.0451   -0.0502   -0.3630 O   0  0  0  0  0  0  0  0  0  0  0  0
   -4.9343    0.8852   -1.0263 C   0  0  0  0  0  0  0  0  0  0  0  0
   -3.5406    0.7866   -1.0404 C   0  0  0  0  0  0  0  0  0  0  0  0
    0.8711    0.1508    0.2025 N   0  0  0  0  0  0  0  0  0  0  0  0
    1.5829   -0.7186   -0.6668 C   0  0  0  0  0  0  0  0  0  0  0  0
    1.4514   -0.6106   -2.0599 C   0  0  0  0  0  0  0  0  0  0  0  0
    2.1376   -1.4751   -2.9231 C   0  0  0  0  0  0  0  0  0  0  0  0
    2.0032   -1.3248   -4.4095 C   0  0  0  0  0  0  0  0  0  0  0  0
    2.9921   -2.4427   -2.3814 C   0  0  0  0  0  0  0  0  0  0  0  0
    3.1533   -2.5617   -0.9958 C   0  0  0  0  0  0  0  0  0  0  0  0
    4.0340   -3.6316   -0.4218 C   0  0  0  0  0  0  0  0  0  0  0  0
    2.4349   -1.7067   -0.1496 C   0  0  0  0  0  0  0  0  0  0  0  0
    3.5316    0.7384    0.7123 H   0  0  0  0  0  0  0  0  0  0  0  0
    3.1699    2.0173    1.9725 H   0  0  0  0  0  0  0  0  0  0  0  0
    0.8832    3.5202    5.3166 H   0  0  0  0  0  0  0  0  0  0  0  0
    2.5973    3.8135    4.9598 H   0  0  0  0  0  0  0  0  0  0  0  0
    1.3683    4.8149    4.1610 H   0  0  0  0  0  0  0  0  0  0  0  0
   -1.9946    2.4385    2.2121 H   0  0  0  0  0  0  0  0  0  0  0  0
   -1.1082   -1.2176   -1.1242 H   0  0  0  0  0  0  0  0  0  0  0  0
   -3.1899   -2.1362    0.6775 H   0  0  0  0  0  0  0  0  0  0  0  0
   -5.6596   -1.9573    0.6946 H   0  0  0  0  0  0  0  0  0  0  0  0
   -7.3289    0.7726   -0.7934 H   0  0  0  0  0  0  0  0  0  0  0  0
   -5.4095    1.7362   -1.5024 H   0  0  0  0  0  0  0  0  0  0  0  0
   -2.9536    1.5633   -1.5239 H   0  0  0  0  0  0  0  0  0  0  0  0
    0.8102    0.1650   -2.4738 H   0  0  0  0  0  0  0  0  0  0  0  0
    1.0058   -0.9597   -4.6763 H   0  0  0  0  0  0  0  0  0  0  0  0
    2.1417   -2.2869   -4.9139 H   0  0  0  0  0  0  0  0  0  0  0  0
    2.7508   -0.6184   -4.7831 H   0  0  0  0  0  0  0  0  0  0  0  0
    3.5368   -3.1114   -3.0457 H   0  0  0  0  0  0  0  0  0  0  0  0
    4.8685   -3.8539   -1.0952 H   0  0  0  0  0  0  0  0  0  0  0  0
    4.4644   -3.3123    0.5332 H   0  0  0  0  0  0  0  0  0  0  0  0
    3.4552   -4.5463   -0.2613 H   0  0  0  0  0  0  0  0  0  0  0  0
    2.5276   -1.8143    0.9292 H   0  0  0  0  0  0  0  0  0  0  0  0
  1  2  2  0
  2  3  1  0
  3  4  1  0
  4  5  2  0
  4  6  1  0
  6  7  1  0
  3  8  2  0
  8  9  1  0
  8 10  1  0
 10 11  2  3
 11 12  1  0
 12 13  2  0
 13 14  1  0
 14 15  2  0
 15 16  1  0
 15 17  1  0
 17 18  2  0
 10 19  1  0
 19 20  1  0
 20 21  2  0
 21 22  1  0
 22 23  1  0
 22 24  2  0
 24 25  1  0
 25 26  1  0
 25 27  2  0
 19  2  1  0
 27 20  1  0
 18 12  1  0
  1 28  1  0
  1 29  1  0
  7 30  1  0
  7 31  1  0
  7 32  1  0
  9 33  1  0
 11 34  1  0
 13 35  1  0
 14 36  1  0
 16 37  1  0
 17 38  1  0
 18 39  1  0
 21 40  1  0
 23 41  1  0
 23 42  1  0
 23 43  1  0
 24 44  1  0
 26 45  1  0
 26 46  1  0
 26 47  1  0
 27 48  1  0
M  END
$$$$
