
     RDKit          3D

 48 52  0  0  0  0  0  0  0  0999 V2000
    5.5010   -0.9597   -1.3697 C   0  0  0  0  0  0  0  0  0  0  0  0
    4.2019   -0.5988   -0.7140 C   0  0  0  0  0  0  0  0  0  0  0  0
    4.1421   -0.3714    0.6641 C   0  0  0  0  0  0  0  0  0  0  0  0
    2.9255   -0.0661    1.2809 C   0  0  0  0  0  0  0  0  0  0  0  0
    1.7357    0.0059    0.5384 C   0  0  0  0  0  0  0  0  0  0  0  0
    0.4398    0.3420    1.2491 C   0  0  0  0  0  0  0  0  0  0  0  0
    0.0851    1.7282    0.8735 C   0  0  0  0  0  0  0  0  0  0  0  0
   -1.1541    1.7779    0.2219 C   0  0  0  0  0  0  0  0  0  0  0  0
   -1.3662    3.0613   -0.1999 C   0  0  0  0  0  0  0  0  0  0  0  0
   -2.3051    3.5832   -0.9784 O   0  0  0  0  0  0  0  0  0  0  0  0
   -0.3335    3.8227    0.3191 N   0  0  0  0  0  0  0  0  0  0  0  0
   -0.2153    5.2549    0.1606 C   0  0  0  0  0  0  0  0  0  0  0  0
    0.5781    3.0033    0.9747 C   0  0  0  0  0  0  0  0  0  0  0  0
    1.6916    3.4332    1.5558 O   0  0  0  0  0  0  0  0  0  0  0  0
   -1.7959    0.4458    0.1554 C   0  0  0  0  0  0  0  0  0  0  0  0
   -2.2004    0.0503   -1.2555 C   0  0  0  0  0  0  0  0  0  0  0  0
   -2.4232    0.8782   -2.1481 O   0  0  0  0  0  0  0  0  0  0  0  0
   -2.5358   -1.2504   -1.5093 N   0  0  0  0  0  0  0  0  0  0  0  0
   -2.7175   -2.3118   -0.6035 C   0  0  0  0  0  0  0  0  0  0  0  0
   -3.6329   -3.2898   -1.0438 C   0  0  0  0  0  0  0  0  0  0  0  0
   -3.9833   -4.3785   -0.2444 C   0  0  0  0  0  0  0  0  0  0  0  0
   -3.4105   -4.5211    1.0092 C   0  0  0  0  0  0  0  0  0  0  0  0
   -2.4718   -3.5867    1.4440 C   0  0  0  0  0  0  0  0  0  0  0  0
   -2.1032   -2.4788    0.6482 C   0  0  0  0  0  0  0  0  0  0  0  0
   -0.9572   -1.6850    1.1761 C   0  0  0  0  0  0  0  0  0  0  0  0
   -0.2164   -2.2105    2.0067 O   0  0  0  0  0  0  0  0  0  0  0  0
   -0.7362   -0.4088    0.7237 N   0  0  0  0  0  0  0  0  0  0  0  0
    1.8051   -0.2341   -0.8448 C   0  0  0  0  0  0  0  0  0  0  0  0
    3.0220   -0.5388   -1.4617 C   0  0  0  0  0  0  0  0  0  0  0  0
    5.5241   -0.6129   -2.4082 H   0  0  0  0  0  0  0  0  0  0  0  0
    5.6383   -2.0452   -1.3560 H   0  0  0  0  0  0  0  0  0  0  0  0
    6.3438   -0.4895   -0.8522 H   0  0  0  0  0  0  0  0  0  0  0  0
    5.0429   -0.4281    1.2706 H   0  0  0  0  0  0  0  0  0  0  0  0
    2.9095    0.1163    2.3535 H   0  0  0  0  0  0  0  0  0  0  0  0
    0.5021    0.2119    2.3353 H   0  0  0  0  0  0  0  0  0  0  0  0
   -2.6772    2.8397   -1.4998 H   0  0  0  0  0  0  0  0  0  0  0  0
   -0.0129    5.6969    1.1398 H   0  0  0  0  0  0  0  0  0  0  0  0
   -1.1444    5.6715   -0.2344 H   0  0  0  0  0  0  0  0  0  0  0  0
    0.6082    5.4541   -0.5297 H   0  0  0  0  0  0  0  0  0  0  0  0
    1.8418    4.3663    1.3376 H   0  0  0  0  0  0  0  0  0  0  0  0
   -2.6764    0.4051    0.8073 H   0  0  0  0  0  0  0  0  0  0  0  0
   -2.9375   -1.3497   -2.4352 H   0  0  0  0  0  0  0  0  0  0  0  0
   -4.1125   -3.2024   -2.0175 H   0  0  0  0  0  0  0  0  0  0  0  0
   -4.7028   -5.1108   -0.6027 H   0  0  0  0  0  0  0  0  0  0  0  0
   -3.6686   -5.3682    1.6401 H   0  0  0  0  0  0  0  0  0  0  0  0
   -1.9969   -3.7446    2.4129 H   0  0  0  0  0  0  0  0  0  0  0  0
    0.9090   -0.1815   -1.4572 H   0  0  0  0  0  0  0  0  0  0  0  0
    3.0403   -0.7257   -2.5327 H   0  0  0  0  0  0  0  0  0  0  0  0
  1  2  1  0
  2  3  2  0
  3  4  1  0
  4  5  2  0
  5  6  1  0
  6  7  1  0
  7  8  1  0
  8  9  2  0
  9 10  1  0
  9 11  1  0
 11 12  1  0
 11 13  1  0
 13 14  1  0
  8 15  1  0
 15 16  1  0
 16 17  2  0
 16 18  1  0
 18 19  1  0
 19 20  2  0
 20 21  1  0
 21 22  2  0
 22 23  1  0
 23 24  2  0
 24 25  1  0
 25 26  2  0
 25 27  1  0
  5 28  1  0
 28 29  2  0
 29  2  1  0
 27  6  1  0
 13  7  2  0
 27 15  1  0
 24 19  1  0
  1 30  1  0
  1 31  1  0
  1 32  1  0
  3 33  1  0
  4 34  1  0
  6 35  1  0
 10 36  1  0
 12 37  1  0
 12 38  1  0
 12 39  1  0
 14 40  1  0
 15 41  1  0
 18 42  1  0
 20 43  1  0
 21 44  1  0
 22 45  1  0
 23 46  1  0
 28 47  1  0
 29 48  1  0
M  END
$$$$
