
     RDKit          3D

 61 63  0  0  0  0  0  0  0  0999 V2000
   -6.9522    2.6258   -0.1982 C   0  0  0  0  0  0  0  0  0  0  0  0
   -5.6544    1.8394   -0.0811 C   0  0  0  0  0  0  0  0  0  0  0  0
   -5.7665    0.4778   -0.7812 C   0  0  0  0  0  0  0  0  0  0  0  0
   -4.5398   -0.3304   -0.6076 N   0  0  0  0  0  0  0  0  0  0  0  0
   -4.8334   -1.7676   -0.7806 C   0  0  0  0  0  0  0  0  0  0  0  0
   -4.9671   -2.4968    0.5648 C   0  0  0  0  0  0  0  0  0  0  0  0
   -6.1904   -2.1074    1.3807 C   0  0  0  0  0  0  0  0  0  0  0  0
   -3.4965    0.1183   -1.5693 C   0  0  0  0  0  0  0  0  0  0  0  0
   -2.0820   -0.3506   -1.1725 C   0  0  0  0  0  0  0  0  0  0  0  0
   -1.8413   -0.0749    0.2555 N   0  0  0  0  0  0  0  0  0  0  0  0
   -1.0920    1.3643    0.6827 S   0  0  0  0  0  6  0  0  0  0  0  0
   -1.2773    1.5226    2.1081 O   0  0  0  0  0  0  0  0  0  0  0  0
   -1.4923    2.3858   -0.2598 O   0  0  0  0  0  0  0  0  0  0  0  0
    0.6187    0.9676    0.4096 C   0  0  0  0  0  0  0  0  0  0  0  0
    1.3077    1.5598   -0.6612 C   0  0  0  0  0  0  0  0  0  0  0  0
    2.6523    1.2486   -0.8889 C   0  0  0  0  0  0  0  0  0  0  0  0
    3.2809    0.3486   -0.0427 C   0  0  0  0  0  0  0  0  0  0  0  0
    2.5887   -0.2306    1.0250 C   0  0  0  0  0  0  0  0  0  0  0  0
    1.2579    0.0747    1.2756 C   0  0  0  0  0  0  0  0  0  0  0  0
    3.4718   -1.1404    1.8168 C   0  0  0  0  0  0  0  0  0  0  0  0
    4.7629   -1.1312    0.9883 C   0  0  0  0  0  0  0  0  0  0  0  0
    4.6022   -0.1355   -0.0830 N   0  0  0  0  0  0  0  0  0  0  0  0
    5.5825    0.2319   -1.0030 C   0  0  0  0  0  0  0  0  0  0  0  0
    5.3975    1.0885   -1.8748 O   0  0  0  0  0  0  0  0  0  0  0  0
    6.9389   -0.5304   -0.8832 C   0  0  0  0  0  0  0  0  0  0  0  0
    8.0069   -0.2720   -1.9851 C   0  0  0  0  0  0  0  0  0  0  0  0
    8.6648    0.7462   -1.0393 C   0  0  0  0  0  0  0  0  0  0  0  0
    7.9821    0.0145    0.1294 C   0  0  0  0  0  0  0  0  0  0  0  0
   -6.8308    3.6194    0.2419 H   0  0  0  0  0  0  0  0  0  0  0  0
   -7.7663    2.1179    0.3265 H   0  0  0  0  0  0  0  0  0  0  0  0
   -7.2432    2.7522   -1.2454 H   0  0  0  0  0  0  0  0  0  0  0  0
   -5.4170    1.6956    0.9801 H   0  0  0  0  0  0  0  0  0  0  0  0
   -4.8482    2.4400   -0.5139 H   0  0  0  0  0  0  0  0  0  0  0  0
   -5.9968    0.6105   -1.8479 H   0  0  0  0  0  0  0  0  0  0  0  0
   -6.6298   -0.0407   -0.3472 H   0  0  0  0  0  0  0  0  0  0  0  0
   -4.0218   -2.2709   -1.3194 H   0  0  0  0  0  0  0  0  0  0  0  0
   -5.7259   -1.9316   -1.4001 H   0  0  0  0  0  0  0  0  0  0  0  0
   -4.0639   -2.3394    1.1670 H   0  0  0  0  0  0  0  0  0  0  0  0
   -5.0216   -3.5730    0.3602 H   0  0  0  0  0  0  0  0  0  0  0  0
   -6.1391   -1.0671    1.7155 H   0  0  0  0  0  0  0  0  0  0  0  0
   -7.1056   -2.2512    0.7950 H   0  0  0  0  0  0  0  0  0  0  0  0
   -6.2608   -2.7382    2.2737 H   0  0  0  0  0  0  0  0  0  0  0  0
   -3.7302   -0.2139   -2.5884 H   0  0  0  0  0  0  0  0  0  0  0  0
   -3.4682    1.2122   -1.6060 H   0  0  0  0  0  0  0  0  0  0  0  0
   -1.3239    0.1193   -1.8078 H   0  0  0  0  0  0  0  0  0  0  0  0
   -1.9780   -1.4307   -1.3194 H   0  0  0  0  0  0  0  0  0  0  0  0
   -2.6510   -0.2751    0.8512 H   0  0  0  0  0  0  0  0  0  0  0  0
    0.8058    2.2611   -1.3240 H   0  0  0  0  0  0  0  0  0  0  0  0
    3.1723    1.7142   -1.7201 H   0  0  0  0  0  0  0  0  0  0  0  0
    0.7254   -0.3710    2.1110 H   0  0  0  0  0  0  0  0  0  0  0  0
    3.0553   -2.1497    1.8948 H   0  0  0  0  0  0  0  0  0  0  0  0
    3.6453   -0.7321    2.8179 H   0  0  0  0  0  0  0  0  0  0  0  0
    4.9379   -2.1112    0.5296 H   0  0  0  0  0  0  0  0  0  0  0  0
    5.6332   -0.8822    1.6045 H   0  0  0  0  0  0  0  0  0  0  0  0
    6.7685   -1.6111   -0.7748 H   0  0  0  0  0  0  0  0  0  0  0  0
    7.6474    0.1354   -2.9340 H   0  0  0  0  0  0  0  0  0  0  0  0
    8.6316   -1.1469   -2.1978 H   0  0  0  0  0  0  0  0  0  0  0  0
    8.3117    1.7737   -1.1819 H   0  0  0  0  0  0  0  0  0  0  0  0
    9.7569    0.7429   -1.0309 H   0  0  0  0  0  0  0  0  0  0  0  0
    8.5995   -0.7691    0.5837 H   0  0  0  0  0  0  0  0  0  0  0  0
    7.6005    0.6644    0.9211 H   0  0  0  0  0  0  0  0  0  0  0  0
  1  2  1  0
  2  3  1  0
  3  4  1  0
  4  5  1  0
  5  6  1  0
  6  7  1  0
  4  8  1  0
  8  9  1  0
  9 10  1  0
 10 11  1  0
 11 12  2  0
 11 13  2  0
 11 14  1  0
 14 15  2  0
 15 16  1  0
 16 17  2  0
 17 18  1  0
 18 19  2  0
 18 20  1  0
 20 21  1  0
 21 22  1  0
 22 23  1  0
 23 24  2  0
 23 25  1  0
 25 26  1  0
 26 27  1  0
 27 28  1  0
 19 14  1  0
 28 25  1  0
 22 17  1  0
  1 29  1  0
  1 30  1  0
  1 31  1  0
  2 32  1  0
  2 33  1  0
  3 34  1  0
  3 35  1  0
  5 36  1  0
  5 37  1  0
  6 38  1  0
  6 39  1  0
  7 40  1  0
  7 41  1  0
  7 42  1  0
  8 43  1  0
  8 44  1  0
  9 45  1  0
  9 46  1  0
 10 47  1  0
 15 48  1  0
 16 49  1  0
 19 50  1  0
 20 51  1  0
 20 52  1  0
 21 53  1  0
 21 54  1  0
 25 55  1  0
 26 56  1  0
 26 57  1  0
 27 58  1  0
 27 59  1  0
 28 60  1  0
 28 61  1  0
M  END
$$$$
