
     RDKit          3D

 52 54  0  0  0  0  0  0  0  0999 V2000
    2.6195    0.0174    0.5372 O   0  0  0  0  0  0  0  0  0  0  0  0
    3.2153    0.1782   -0.5241 C   0  0  0  0  0  0  0  0  0  0  0  0
    4.7226    0.1428   -0.6592 C   0  0  0  0  0  0  0  0  0  0  0  0
    5.4019    0.0115    0.7018 C   0  0  0  0  0  0  0  0  0  0  0  0
    6.9035   -0.0388    0.5685 C   0  0  0  0  0  0  0  0  0  0  0  0
    7.6473    1.1443    0.4698 C   0  0  0  0  0  0  0  0  0  0  0  0
    9.0359    1.0964    0.3327 C   0  0  0  0  0  0  0  0  0  0  0  0
    9.6916   -0.1333    0.2937 C   0  0  0  0  0  0  0  0  0  0  0  0
    8.9599   -1.3157    0.3875 C   0  0  0  0  0  0  0  0  0  0  0  0
    7.5714   -1.2701    0.5205 C   0  0  0  0  0  0  0  0  0  0  0  0
    2.5695    0.3776   -1.7379 N   0  0  0  0  0  0  0  0  0  0  0  0
    1.2096    0.5105   -1.9982 C   0  0  0  0  0  0  0  0  0  0  0  0
    0.7997    0.6662   -3.6096 S   0  0  0  0  0  0  0  0  0  0  0  0
    0.4127    0.4839   -0.8775 N   0  0  0  0  0  0  0  0  0  0  0  0
   -0.9728    0.6423   -0.6537 C   0  0  0  0  0  0  0  0  0  0  0  0
   -1.9279    0.9678   -1.6195 C   0  0  0  0  0  0  0  0  0  0  0  0
   -3.2781    1.1086   -1.2731 C   0  0  0  0  0  0  0  0  0  0  0  0
   -3.6793    0.9228    0.0506 C   0  0  0  0  0  0  0  0  0  0  0  0
   -5.3896    1.1324    0.4758 S   0  0  0  0  0  6  0  0  0  0  0  0
   -5.8570    2.3248   -0.1970 O   0  0  0  0  0  0  0  0  0  0  0  0
   -5.5205    0.9878    1.9108 O   0  0  0  0  0  0  0  0  0  0  0  0
   -6.1276   -0.2148   -0.2567 N   0  0  0  0  0  0  0  0  0  0  0  0
   -7.6167   -0.1174   -0.3948 C   0  0  0  0  0  0  0  0  0  0  0  0
   -8.3229   -0.5286    0.9014 C   0  0  0  0  0  0  0  0  0  0  0  0
   -7.9597   -1.8689    1.2740 O   0  0  0  0  0  0  0  0  0  0  0  0
   -6.5461   -1.9589    1.5050 C   0  0  0  0  0  0  0  0  0  0  0  0
   -5.7493   -1.5715    0.2537 C   0  0  0  0  0  0  0  0  0  0  0  0
   -2.7426    0.6128    1.0339 C   0  0  0  0  0  0  0  0  0  0  0  0
   -1.3988    0.4709    0.6758 C   0  0  0  0  0  0  0  0  0  0  0  0
    5.0479    1.0634   -1.1596 H   0  0  0  0  0  0  0  0  0  0  0  0
    4.9903   -0.7035   -1.3036 H   0  0  0  0  0  0  0  0  0  0  0  0
    5.0487   -0.8893    1.2207 H   0  0  0  0  0  0  0  0  0  0  0  0
    5.1236    0.8524    1.3510 H   0  0  0  0  0  0  0  0  0  0  0  0
    7.1514    2.1122    0.5032 H   0  0  0  0  0  0  0  0  0  0  0  0
    9.6074    2.0185    0.2628 H   0  0  0  0  0  0  0  0  0  0  0  0
   10.7729   -0.1687    0.1925 H   0  0  0  0  0  0  0  0  0  0  0  0
    9.4724   -2.2751    0.3643 H   0  0  0  0  0  0  0  0  0  0  0  0
    7.0153   -2.2019    0.5946 H   0  0  0  0  0  0  0  0  0  0  0  0
    3.1411    0.4316   -2.5716 H   0  0  0  0  0  0  0  0  0  0  0  0
    0.9434    0.2911   -0.0261 H   0  0  0  0  0  0  0  0  0  0  0  0
   -1.6721    1.1401   -2.6568 H   0  0  0  0  0  0  0  0  0  0  0  0
   -4.0064    1.3718   -2.0374 H   0  0  0  0  0  0  0  0  0  0  0  0
   -7.9097   -0.7951   -1.2067 H   0  0  0  0  0  0  0  0  0  0  0  0
   -7.9175    0.8891   -0.6993 H   0  0  0  0  0  0  0  0  0  0  0  0
   -9.4067   -0.5141    0.7455 H   0  0  0  0  0  0  0  0  0  0  0  0
   -8.0917    0.1509    1.7276 H   0  0  0  0  0  0  0  0  0  0  0  0
   -6.2869   -1.3442    2.3726 H   0  0  0  0  0  0  0  0  0  0  0  0
   -6.3248   -2.9984    1.7689 H   0  0  0  0  0  0  0  0  0  0  0  0
   -4.6745   -1.6404    0.4355 H   0  0  0  0  0  0  0  0  0  0  0  0
   -5.9759   -2.2823   -0.5511 H   0  0  0  0  0  0  0  0  0  0  0  0
   -3.0389    0.4844    2.0724 H   0  0  0  0  0  0  0  0  0  0  0  0
   -0.6806    0.2267    1.4563 H   0  0  0  0  0  0  0  0  0  0  0  0
  1  2  2  0
  2  3  1  0
  3  4  1  0
  4  5  1  0
  5  6  2  0
  6  7  1  0
  7  8  2  0
  8  9  1  0
  9 10  2  0
  2 11  1  0
 11 12  1  0
 12 13  2  0
 12 14  1  0
 14 15  1  0
 15 16  2  0
 16 17  1  0
 17 18  2  0
 18 19  1  0
 19 20  2  0
 19 21  2  0
 19 22  1  0
 22 23  1  0
 23 24  1  0
 24 25  1  0
 25 26  1  0
 26 27  1  0
 18 28  1  0
 28 29  2  0
 10  5  1  0
 29 15  1  0
 27 22  1  0
  3 30  1  0
  3 31  1  0
  4 32  1  0
  4 33  1  0
  6 34  1  0
  7 35  1  0
  8 36  1  0
  9 37  1  0
 10 38  1  0
 11 39  1  0
 14 40  1  0
 16 41  1  0
 17 42  1  0
 23 43  1  0
 23 44  1  0
 24 45  1  0
 24 46  1  0
 26 47  1  0
 26 48  1  0
 27 49  1  0
 27 50  1  0
 28 51  1  0
 29 52  1  0
M  END
$$$$
