
     RDKit          3D

 45 47  0  0  0  0  0  0  0  0999 V2000
    2.3726    1.4560   -0.9463 O   0  0  0  0  0  0  0  0  0  0  0  0
    2.0684    0.4987   -0.2380 C   0  0  0  0  0  0  0  0  0  0  0  0
    2.9775   -0.4835    0.1080 N   0  0  0  0  0  0  0  0  0  0  0  0
    4.3288   -0.2299   -0.2116 N   0  0  0  0  0  0  0  0  0  0  0  0
    5.2845   -0.5866    0.7312 C   0  0  0  0  0  0  0  0  0  0  0  0
    4.9599   -1.2812    1.6979 O   0  0  0  0  0  0  0  0  0  0  0  0
    6.6247   -0.0726    0.4827 C   0  0  0  0  0  0  0  0  0  0  0  0
    7.1429    0.5839   -0.6217 C   0  0  0  0  0  0  0  0  0  0  0  0
    8.5190    0.9267   -0.4622 C   0  0  0  0  0  0  0  0  0  0  0  0
    9.0134    0.5186    0.7546 C   0  0  0  0  0  0  0  0  0  0  0  0
    7.8278   -0.2746    1.6934 S   0  0  0  0  0  0  0  0  0  0  0  0
    0.6928    0.3634    0.3153 C   0  0  0  0  0  0  0  0  0  0  0  0
   -0.0992    1.5176    0.4081 C   0  0  0  0  0  0  0  0  0  0  0  0
   -1.3989    1.4443    0.9144 C   0  0  0  0  0  0  0  0  0  0  0  0
   -1.9176    0.2064    1.3039 C   0  0  0  0  0  0  0  0  0  0  0  0
   -3.5675    0.1101    1.9780 S   0  0  0  0  0  6  0  0  0  0  0  0
   -3.8917    1.4159    2.5119 O   0  0  0  0  0  0  0  0  0  0  0  0
   -3.6186   -1.0741    2.8094 O   0  0  0  0  0  0  0  0  0  0  0  0
   -4.5255   -0.1610    0.6055 N   0  0  0  0  0  0  0  0  0  0  0  0
   -4.4959   -1.5158    0.0096 C   0  0  0  0  0  0  0  0  0  0  0  0
   -5.4511   -1.5883   -1.1759 C   0  0  0  0  0  0  0  0  0  0  0  0
   -5.0517   -0.6107   -2.2802 C   0  0  0  0  0  0  0  0  0  0  0  0
   -4.3036    0.6076   -1.7415 C   0  0  0  0  0  0  0  0  0  0  0  0
   -4.7492    0.9667   -0.3299 C   0  0  0  0  0  0  0  0  0  0  0  0
   -1.1322   -0.9489    1.2284 C   0  0  0  0  0  0  0  0  0  0  0  0
    0.1696   -0.8721    0.7235 C   0  0  0  0  0  0  0  0  0  0  0  0
    2.8413   -1.0626    0.9375 H   0  0  0  0  0  0  0  0  0  0  0  0
    4.4771    0.5634   -0.8325 H   0  0  0  0  0  0  0  0  0  0  0  0
    6.5783    0.8104   -1.5178 H   0  0  0  0  0  0  0  0  0  0  0  0
    9.1156    1.4432   -1.2047 H   0  0  0  0  0  0  0  0  0  0  0  0
   10.0166    0.6439    1.1392 H   0  0  0  0  0  0  0  0  0  0  0  0
    0.3001    2.4817    0.0959 H   0  0  0  0  0  0  0  0  0  0  0  0
   -1.9922    2.3518    1.0052 H   0  0  0  0  0  0  0  0  0  0  0  0
   -4.8133   -2.2480    0.7595 H   0  0  0  0  0  0  0  0  0  0  0  0
   -3.4824   -1.7705   -0.3162 H   0  0  0  0  0  0  0  0  0  0  0  0
   -5.4845   -2.6070   -1.5782 H   0  0  0  0  0  0  0  0  0  0  0  0
   -6.4677   -1.3506   -0.8366 H   0  0  0  0  0  0  0  0  0  0  0  0
   -4.4189   -1.1170   -3.0189 H   0  0  0  0  0  0  0  0  0  0  0  0
   -5.9542   -0.2913   -2.8152 H   0  0  0  0  0  0  0  0  0  0  0  0
   -3.2269    0.3948   -1.7385 H   0  0  0  0  0  0  0  0  0  0  0  0
   -4.4519    1.4586   -2.4156 H   0  0  0  0  0  0  0  0  0  0  0  0
   -5.8181    1.2107   -0.3184 H   0  0  0  0  0  0  0  0  0  0  0  0
   -4.2210    1.8684   -0.0072 H   0  0  0  0  0  0  0  0  0  0  0  0
   -1.5263   -1.9087    1.5577 H   0  0  0  0  0  0  0  0  0  0  0  0
    0.7495   -1.7879    0.6431 H   0  0  0  0  0  0  0  0  0  0  0  0
  1  2  2  0
  2  3  1  0
  3  4  1  0
  4  5  1  0
  5  6  2  0
  5  7  1  0
  7  8  2  0
  8  9  1  0
  9 10  2  0
 10 11  1  0
  2 12  1  0
 12 13  2  0
 13 14  1  0
 14 15  2  0
 15 16  1  0
 16 17  2  0
 16 18  2  0
 16 19  1  0
 19 20  1  0
 20 21  1  0
 21 22  1  0
 22 23  1  0
 23 24  1  0
 15 25  1  0
 25 26  2  0
 11  7  1  0
 26 12  1  0
 24 19  1  0
  3 27  1  0
  4 28  1  0
  8 29  1  0
  9 30  1  0
 10 31  1  0
 13 32  1  0
 14 33  1  0
 20 34  1  0
 20 35  1  0
 21 36  1  0
 21 37  1  0
 22 38  1  0
 22 39  1  0
 23 40  1  0
 23 41  1  0
 24 42  1  0
 24 43  1  0
 25 44  1  0
 26 45  1  0
M  END
$$$$
