
     RDKit          3D

 41 42  0  0  0  0  0  0  0  0999 V2000
   -3.9373   -0.6552    2.4305 C   0  0  0  0  0  0  0  0  0  0  0  0
   -3.7534   -0.4769    0.9302 C   0  0  0  0  0  0  0  0  0  0  0  0
   -2.5779    0.3692    0.6429 N   0  0  0  0  0  0  0  0  0  0  0  0
   -2.8897    1.8130    0.6096 C   0  0  0  0  0  0  0  0  0  0  0  0
   -3.1885    2.2718   -0.8103 C   0  0  0  0  0  0  0  0  0  0  0  0
   -1.2915   -0.1547    0.3716 C   0  0  0  0  0  0  0  0  0  0  0  0
   -0.2247    0.6038    0.0334 C   0  0  0  0  0  0  0  0  0  0  0  0
    1.0961    0.0916   -0.3055 C   0  0  0  0  0  0  0  0  0  0  0  0
    2.1359    0.9279   -0.4898 C   0  0  0  0  0  0  0  0  0  0  0  0
    3.4880    0.4850   -0.8509 C   0  0  0  0  0  0  0  0  0  0  0  0
    4.5530    1.3258   -0.9005 C   0  0  0  0  0  0  0  0  0  0  0  0
    5.8474    0.8658   -1.2841 C   0  0  0  0  0  0  0  0  0  0  0  0
    6.8951    0.4785   -1.5994 N   0  0  0  0  0  0  0  0  0  0  0  0
    4.4452    2.7130   -0.5858 C   0  0  0  0  0  0  0  0  0  0  0  0
    4.3456    3.8410   -0.3306 N   0  0  0  0  0  0  0  0  0  0  0  0
    3.5972   -0.9990   -1.1812 C   0  0  0  0  0  0  0  0  0  0  0  0
    2.6914   -1.8532   -0.2959 C   0  0  0  0  0  0  0  0  0  0  0  0
    1.2310   -1.4083   -0.4334 C   0  0  0  0  0  0  0  0  0  0  0  0
    0.3559   -2.1116    0.6022 C   0  0  0  0  0  0  0  0  0  0  0  0
   -1.1022   -1.6666    0.4723 C   0  0  0  0  0  0  0  0  0  0  0  0
   -4.8017   -1.2958    2.6315 H   0  0  0  0  0  0  0  0  0  0  0  0
   -4.1071    0.3062    2.9258 H   0  0  0  0  0  0  0  0  0  0  0  0
   -3.0584   -1.1136    2.8937 H   0  0  0  0  0  0  0  0  0  0  0  0
   -4.6577   -0.0179    0.5113 H   0  0  0  0  0  0  0  0  0  0  0  0
   -3.6744   -1.4529    0.4396 H   0  0  0  0  0  0  0  0  0  0  0  0
   -2.0732    2.4014    1.0424 H   0  0  0  0  0  0  0  0  0  0  0  0
   -3.7621    2.0281    1.2391 H   0  0  0  0  0  0  0  0  0  0  0  0
   -4.0376    1.7233   -1.2311 H   0  0  0  0  0  0  0  0  0  0  0  0
   -2.3321    2.1176   -1.4737 H   0  0  0  0  0  0  0  0  0  0  0  0
   -3.4353    3.3380   -0.8185 H   0  0  0  0  0  0  0  0  0  0  0  0
   -0.3274    1.6829   -0.0178 H   0  0  0  0  0  0  0  0  0  0  0  0
    1.9657    1.9964   -0.3607 H   0  0  0  0  0  0  0  0  0  0  0  0
    4.6206   -1.3708   -1.0642 H   0  0  0  0  0  0  0  0  0  0  0  0
    3.3223   -1.1453   -2.2341 H   0  0  0  0  0  0  0  0  0  0  0  0
    3.0221   -1.7755    0.7487 H   0  0  0  0  0  0  0  0  0  0  0  0
    2.7866   -2.9080   -0.5808 H   0  0  0  0  0  0  0  0  0  0  0  0
    0.8777   -1.6902   -1.4360 H   0  0  0  0  0  0  0  0  0  0  0  0
    0.7134   -1.8888    1.6169 H   0  0  0  0  0  0  0  0  0  0  0  0
    0.4161   -3.1996    0.4782 H   0  0  0  0  0  0  0  0  0  0  0  0
   -1.5438   -2.1308   -0.4187 H   0  0  0  0  0  0  0  0  0  0  0  0
   -1.6302   -2.0654    1.3445 H   0  0  0  0  0  0  0  0  0  0  0  0
  1  2  1  0
  2  3  1  0
  3  4  1  0
  4  5  1  0
  3  6  1  0
  6  7  2  0
  7  8  1  0
  8  9  2  0
  9 10  1  0
 10 11  2  3
 11 12  1  0
 12 13  3  0
 11 14  1  0
 14 15  3  0
 10 16  1  0
 16 17  1  0
 17 18  1  0
 18 19  1  0
 19 20  1  0
 20  6  1  0
 18  8  1  0
  1 21  1  0
  1 22  1  0
  1 23  1  0
  2 24  1  0
  2 25  1  0
  4 26  1  0
  4 27  1  0
  5 28  1  0
  5 29  1  0
  5 30  1  0
  7 31  1  0
  9 32  1  0
 16 33  1  0
 16 34  1  0
 17 35  1  0
 17 36  1  0
 18 37  1  0
 19 38  1  0
 19 39  1  0
 20 40  1  0
 20 41  1  0
M  END
$$$$
