
     RDKit          3D

 46 50  0  0  0  0  0  0  0  0999 V2000
   -1.4217    1.9009    2.2809 O   0  0  0  0  0  0  0  0  0  0  0  0
   -1.3619    1.3672    1.1784 C   0  0  0  0  0  0  0  0  0  0  0  0
   -2.2174    1.8597    0.0822 C   0  0  0  0  0  0  0  0  0  0  0  0
   -2.9222    3.0600    0.2163 C   0  0  0  0  0  0  0  0  0  0  0  0
   -3.6855    3.5223   -0.8526 C   0  0  0  0  0  0  0  0  0  0  0  0
   -4.5521    5.0006   -0.7085 Cl  0  0  0  0  0  0  0  0  0  0  0  0
   -3.7465    2.7992   -2.0445 C   0  0  0  0  0  0  0  0  0  0  0  0
   -3.0461    1.5967   -2.1665 C   0  0  0  0  0  0  0  0  0  0  0  0
   -2.2906    1.1185   -1.0967 C   0  0  0  0  0  0  0  0  0  0  0  0
   -1.6587   -0.0775   -1.2921 O   0  0  0  0  0  0  0  0  0  0  0  0
   -1.1861   -0.7614   -0.0982 C   0  0  0  0  0  0  0  0  0  0  0  0
   -0.2883   -1.9104   -0.6424 C   0  0  0  0  0  0  0  0  0  0  0  0
   -0.3820   -3.1721    0.2068 C   0  0  0  0  0  0  0  0  0  0  0  0
   -1.7299   -3.7398    0.1801 N   0  0  0  0  0  0  0  0  0  0  0  0
   -2.7913   -2.7428    0.0673 C   0  0  0  0  0  0  0  0  0  0  0  0
   -2.4001   -1.3905    0.6558 C   0  0  0  0  0  0  0  0  0  0  0  0
   -0.4054    0.2394    0.8038 C   0  0  0  0  0  0  0  0  0  0  0  0
    0.8301    0.8823    0.1806 C   0  0  0  0  0  0  0  0  0  0  0  0
    1.8911    0.1532    0.9284 C   0  0  0  0  0  0  0  0  0  0  0  0
    3.3223    0.2554    0.5587 C   0  0  0  0  0  0  0  0  0  0  0  0
    3.7559    1.1126   -0.4592 C   0  0  0  0  0  0  0  0  0  0  0  0
    5.1131    1.1805   -0.7852 C   0  0  0  0  0  0  0  0  0  0  0  0
    6.0392    0.3970   -0.0977 C   0  0  0  0  0  0  0  0  0  0  0  0
    5.6128   -0.4553    0.9191 C   0  0  0  0  0  0  0  0  0  0  0  0
    4.2580   -0.5262    1.2480 C   0  0  0  0  0  0  0  0  0  0  0  0
    1.4631   -0.5728    1.9101 N   0  0  0  0  0  0  0  0  0  0  0  0
    0.0628   -0.4061    1.9911 O   0  0  0  0  0  0  0  0  0  0  0  0
   -2.8676    3.6295    1.1416 H   0  0  0  0  0  0  0  0  0  0  0  0
   -4.3408    3.1635   -2.8794 H   0  0  0  0  0  0  0  0  0  0  0  0
   -3.1022    1.0280   -3.0921 H   0  0  0  0  0  0  0  0  0  0  0  0
   -0.5837   -2.1574   -1.6727 H   0  0  0  0  0  0  0  0  0  0  0  0
    0.7586   -1.6081   -0.7295 H   0  0  0  0  0  0  0  0  0  0  0  0
   -0.0882   -2.9620    1.2409 H   0  0  0  0  0  0  0  0  0  0  0  0
    0.3174   -3.9247   -0.1726 H   0  0  0  0  0  0  0  0  0  0  0  0
   -1.8650   -4.3080    1.0174 H   0  0  0  0  0  0  0  0  0  0  0  0
   -3.6883   -3.1206    0.5711 H   0  0  0  0  0  0  0  0  0  0  0  0
   -3.0594   -2.6245   -0.9894 H   0  0  0  0  0  0  0  0  0  0  0  0
   -2.1684   -1.5328    1.7189 H   0  0  0  0  0  0  0  0  0  0  0  0
   -3.2796   -0.7386    0.6122 H   0  0  0  0  0  0  0  0  0  0  0  0
    0.9194    1.9523    0.3988 H   0  0  0  0  0  0  0  0  0  0  0  0
    0.9034    0.7283   -0.8988 H   0  0  0  0  0  0  0  0  0  0  0  0
    3.0626    1.7417   -1.0088 H   0  0  0  0  0  0  0  0  0  0  0  0
    5.4504    1.8478   -1.5749 H   0  0  0  0  0  0  0  0  0  0  0  0
    7.0951    0.4528   -0.3520 H   0  0  0  0  0  0  0  0  0  0  0  0
    6.3341   -1.0640    1.4589 H   0  0  0  0  0  0  0  0  0  0  0  0
    3.9397   -1.1937    2.0466 H   0  0  0  0  0  0  0  0  0  0  0  0
  1  2  2  0
  2  3  1  0
  3  4  2  0
  4  5  1  0
  5  6  1  0
  5  7  2  0
  7  8  1  0
  8  9  2  0
  9 10  1  0
 10 11  1  0
 11 12  1  0
 12 13  1  0
 13 14  1  0
 14 15  1  0
 15 16  1  0
 11 17  1  0
 17 18  1  0
 18 19  1  0
 19 20  1  0
 20 21  2  0
 21 22  1  0
 22 23  2  0
 23 24  1  0
 24 25  2  0
 19 26  2  0
 26 27  1  0
 17  2  1  0
 25 20  1  0
  9  3  1  0
 16 11  1  0
 27 17  1  0
  4 28  1  0
  7 29  1  0
  8 30  1  0
 12 31  1  0
 12 32  1  0
 13 33  1  0
 13 34  1  0
 14 35  1  0
 15 36  1  0
 15 37  1  0
 16 38  1  0
 16 39  1  0
 18 40  1  0
 18 41  1  0
 21 42  1  0
 22 43  1  0
 23 44  1  0
 24 45  1  0
 25 46  1  0
M  END
$$$$
