
     RDKit          3D

 42 43  0  0  0  0  0  0  0  0999 V2000
   -5.0505    0.0007    3.0223 C   0  0  0  0  0  0  0  0  0  0  0  0
   -3.6061   -0.0392    3.5276 C   0  0  0  0  0  0  0  0  0  0  0  0
   -3.4241   -1.1435    4.5721 C   0  0  0  0  0  0  0  0  0  0  0  0
   -2.6201   -0.1838    2.3821 C   0  0  0  0  0  0  0  0  0  0  0  0
   -2.6083   -1.3167    1.5559 C   0  0  0  0  0  0  0  0  0  0  0  0
   -1.6931   -1.4317    0.5024 C   0  0  0  0  0  0  0  0  0  0  0  0
   -0.7749   -0.4127    0.2570 C   0  0  0  0  0  0  0  0  0  0  0  0
    0.1658   -0.3967   -0.7352 O   0  0  0  0  0  0  0  0  0  0  0  0
    0.1909   -1.5178   -1.6167 C   0  0  0  0  0  0  0  0  0  0  0  0
    1.2633   -1.3383   -2.6920 C   0  0  0  0  0  0  0  0  0  0  0  0
    1.6293   -2.2653   -3.4100 O   0  0  0  0  0  0  0  0  0  0  0  0
    1.7476   -0.0520   -2.8019 N   0  0  0  0  0  0  0  0  0  0  0  0
    2.8516    0.2846   -3.6823 C   0  0  0  0  0  0  0  0  0  0  0  0
    4.2033   -0.0405   -3.0508 C   0  0  0  0  0  0  0  0  0  0  0  0
    4.4828    1.1359   -2.1197 C   0  0  0  0  0  0  0  0  0  0  0  0
    3.7080    2.3226   -2.6934 C   0  0  0  0  0  0  0  0  0  0  0  0
    2.9454    1.7905   -3.9057 C   0  0  0  0  0  0  0  0  0  0  0  0
   -0.7791    0.7172    1.0761 C   0  0  0  0  0  0  0  0  0  0  0  0
   -1.6915    0.8333    2.1282 C   0  0  0  0  0  0  0  0  0  0  0  0
   -5.1852    0.7996    2.2847 H   0  0  0  0  0  0  0  0  0  0  0  0
   -5.7427    0.1887    3.8501 H   0  0  0  0  0  0  0  0  0  0  0  0
   -5.3455   -0.9426    2.5500 H   0  0  0  0  0  0  0  0  0  0  0  0
   -3.4150    0.9164    4.0339 H   0  0  0  0  0  0  0  0  0  0  0  0
   -2.3928   -1.1668    4.9418 H   0  0  0  0  0  0  0  0  0  0  0  0
   -4.0838   -0.9738    5.4300 H   0  0  0  0  0  0  0  0  0  0  0  0
   -3.6557   -2.1342    4.1661 H   0  0  0  0  0  0  0  0  0  0  0  0
   -3.3151   -2.1267    1.7240 H   0  0  0  0  0  0  0  0  0  0  0  0
   -1.7297   -2.3322   -0.1019 H   0  0  0  0  0  0  0  0  0  0  0  0
   -0.7688   -1.6218   -2.1354 H   0  0  0  0  0  0  0  0  0  0  0  0
    0.4420   -2.4266   -1.0579 H   0  0  0  0  0  0  0  0  0  0  0  0
    1.5097    0.5723   -2.0362 H   0  0  0  0  0  0  0  0  0  0  0  0
    2.7159   -0.2548   -4.6258 H   0  0  0  0  0  0  0  0  0  0  0  0
    4.9751   -0.0743   -3.8298 H   0  0  0  0  0  0  0  0  0  0  0  0
    4.2213   -0.9959   -2.5173 H   0  0  0  0  0  0  0  0  0  0  0  0
    4.1245    0.9140   -1.1076 H   0  0  0  0  0  0  0  0  0  0  0  0
    5.5551    1.3443   -2.0491 H   0  0  0  0  0  0  0  0  0  0  0  0
    4.3752    3.1431   -2.9768 H   0  0  0  0  0  0  0  0  0  0  0  0
    3.0125    2.7122   -1.9410 H   0  0  0  0  0  0  0  0  0  0  0  0
    3.5286    1.9923   -4.8127 H   0  0  0  0  0  0  0  0  0  0  0  0
    1.9700    2.2743   -4.0190 H   0  0  0  0  0  0  0  0  0  0  0  0
   -0.0667    1.5184    0.8967 H   0  0  0  0  0  0  0  0  0  0  0  0
   -1.6687    1.7277    2.7468 H   0  0  0  0  0  0  0  0  0  0  0  0
  1  2  1  0
  2  3  1  0
  2  4  1  0
  4  5  2  0
  5  6  1  0
  6  7  2  0
  7  8  1  0
  8  9  1  0
  9 10  1  0
 10 11  2  0
 10 12  1  0
 12 13  1  0
 13 14  1  0
 14 15  1  0
 15 16  1  0
 16 17  1  0
  7 18  1  0
 18 19  2  0
 19  4  1  0
 17 13  1  0
  1 20  1  0
  1 21  1  0
  1 22  1  0
  2 23  1  0
  3 24  1  0
  3 25  1  0
  3 26  1  0
  5 27  1  0
  6 28  1  0
  9 29  1  0
  9 30  1  0
 12 31  1  0
 13 32  1  0
 14 33  1  0
 14 34  1  0
 15 35  1  0
 15 36  1  0
 16 37  1  0
 16 38  1  0
 17 39  1  0
 17 40  1  0
 18 41  1  0
 19 42  1  0
M  END
$$$$
