
     RDKit          3D

 33 34  0  0  0  0  0  0  0  0999 V2000
    1.3782   -4.1161    0.1177 O   0  0  0  0  0  0  0  0  0  0  0  0
    0.7713   -3.0513    0.0962 C   0  0  0  0  0  0  0  0  0  0  0  0
   -0.7494   -3.0148   -0.0510 C   0  0  0  0  0  0  0  0  0  0  0  0
   -1.2285   -1.6744   -0.2410 O   0  0  0  0  0  0  0  0  0  0  0  0
   -2.5810   -1.5985   -0.3284 C   0  0  0  0  0  0  0  0  0  0  0  0
   -3.3544   -2.5361   -0.2336 O   0  0  0  0  0  0  0  0  0  0  0  0
   -3.0233   -0.2010   -0.5255 C   0  0  0  0  0  0  0  0  0  0  0  0
   -4.3828    0.1112   -0.4247 C   0  0  0  0  0  0  0  0  0  0  0  0
   -4.8016    1.4297   -0.6028 C   0  0  0  0  0  0  0  0  0  0  0  0
   -3.8385    2.3862   -0.8761 C   0  0  0  0  0  0  0  0  0  0  0  0
   -4.2648    4.0300   -1.1010 Cl  0  0  0  0  0  0  0  0  0  0  0  0
   -2.5187    2.1243   -0.9854 N   0  0  0  0  0  0  0  0  0  0  0  0
   -2.1419    0.8337   -0.8146 C   0  0  0  0  0  0  0  0  0  0  0  0
    1.3212   -1.7944    0.2862 N   0  0  0  0  0  0  0  0  0  0  0  0
    2.6564   -1.4738    0.1301 C   0  0  0  0  0  0  0  0  0  0  0  0
    3.5603   -2.2581   -0.1225 O   0  0  0  0  0  0  0  0  0  0  0  0
    2.9675   -0.0205    0.2402 C   0  0  0  0  0  0  0  0  0  0  0  0
    2.2589    0.8261    1.1044 C   0  0  0  0  0  0  0  0  0  0  0  0
    2.5725    2.1860    1.1584 C   0  0  0  0  0  0  0  0  0  0  0  0
    3.5957    2.7003    0.3618 C   0  0  0  0  0  0  0  0  0  0  0  0
    4.3166    1.8572   -0.4833 C   0  0  0  0  0  0  0  0  0  0  0  0
    4.0073    0.4977   -0.5415 C   0  0  0  0  0  0  0  0  0  0  0  0
   -1.0148   -3.6214   -0.9240 H   0  0  0  0  0  0  0  0  0  0  0  0
   -1.1791   -3.4374    0.8643 H   0  0  0  0  0  0  0  0  0  0  0  0
   -5.1150   -0.6647   -0.2080 H   0  0  0  0  0  0  0  0  0  0  0  0
   -5.8504    1.6959   -0.5283 H   0  0  0  0  0  0  0  0  0  0  0  0
   -1.0748    0.6695   -0.9306 H   0  0  0  0  0  0  0  0  0  0  0  0
    0.6569   -1.0344    0.2658 H   0  0  0  0  0  0  0  0  0  0  0  0
    1.4860    0.4438    1.7649 H   0  0  0  0  0  0  0  0  0  0  0  0
    2.0285    2.8462    1.8304 H   0  0  0  0  0  0  0  0  0  0  0  0
    3.8412    3.7590    0.4085 H   0  0  0  0  0  0  0  0  0  0  0  0
    5.1229    2.2568   -1.0938 H   0  0  0  0  0  0  0  0  0  0  0  0
    4.5775   -0.1569   -1.1986 H   0  0  0  0  0  0  0  0  0  0  0  0
  1  2  2  0
  2  3  1  0
  3  4  1  0
  4  5  1  0
  5  6  2  0
  5  7  1  0
  7  8  2  0
  8  9  1  0
  9 10  2  0
 10 11  1  0
 10 12  1  0
 12 13  2  0
  2 14  1  0
 14 15  1  0
 15 16  2  0
 15 17  1  0
 17 18  2  0
 18 19  1  0
 19 20  2  0
 20 21  1  0
 21 22  2  0
 13  7  1  0
 22 17  1  0
  3 23  1  0
  3 24  1  0
  8 25  1  0
  9 26  1  0
 13 27  1  0
 14 28  1  0
 18 29  1  0
 19 30  1  0
 20 31  1  0
 21 32  1  0
 22 33  1  0
M  END
$$$$
