
     RDKit          3D

 38 41  0  0  0  0  0  0  0  0999 V2000
    6.4275    0.9584   -0.5551 C   0  0  0  0  0  0  0  0  0  0  0  0
    5.5552   -0.1491   -0.2359 N   0  0  0  0  0  0  0  0  0  0  0  0
    4.2199    0.0152   -0.3631 C   0  0  0  0  0  0  0  0  0  0  0  0
    3.6041    1.1744   -0.4656 N   0  0  0  0  0  0  0  0  0  0  0  0
    2.2640    0.9535   -0.5637 C   0  0  0  0  0  0  0  0  0  0  0  0
    1.3558    1.9733   -0.6845 N   0  0  0  0  0  0  0  0  0  0  0  0
    0.0099    1.7230   -0.8035 C   0  0  0  0  0  0  0  0  0  0  0  0
   -0.8017    2.6252   -0.9816 O   0  0  0  0  0  0  0  0  0  0  0  0
   -0.4323    0.2844   -0.7363 C   0  0  0  0  0  0  0  0  0  0  0  0
    0.4727   -0.7066   -0.6548 C   0  0  0  0  0  0  0  0  0  0  0  0
    1.8347   -0.3520   -0.5547 C   0  0  0  0  0  0  0  0  0  0  0  0
    3.1840   -1.3750   -0.4064 S   0  0  0  0  0  0  0  0  0  0  0  0
    0.1463   -2.0680   -0.6175 O   0  0  0  0  0  0  0  0  0  0  0  0
   -1.1238   -2.4421   -0.9106 C   0  0  0  0  0  0  0  0  0  0  0  0
   -1.4242   -3.6860   -0.7509 N   0  0  0  0  0  0  0  0  0  0  0  0
   -2.0672   -1.4130   -1.4812 C   0  0  0  0  0  0  0  0  0  0  0  0
   -3.4697   -1.8536   -1.4927 C   0  0  0  0  0  0  0  0  0  0  0  0
   -4.5910   -2.1502   -1.5499 N   0  0  0  0  0  0  0  0  0  0  0  0
   -1.9001   -0.0336   -0.8131 C   0  0  0  0  0  0  0  0  0  0  0  0
   -2.5673    0.1552    0.5494 C   0  0  0  0  0  0  0  0  0  0  0  0
   -3.3022    1.3314    0.7842 C   0  0  0  0  0  0  0  0  0  0  0  0
   -3.9188    1.5624    2.0151 C   0  0  0  0  0  0  0  0  0  0  0  0
   -3.8077    0.6246    3.0361 C   0  0  0  0  0  0  0  0  0  0  0  0
   -3.0748   -0.5401    2.8276 C   0  0  0  0  0  0  0  0  0  0  0  0
   -2.4542   -0.7730    1.5969 C   0  0  0  0  0  0  0  0  0  0  0  0
    6.1827    1.8463    0.0376 H   0  0  0  0  0  0  0  0  0  0  0  0
    7.4626    0.6845   -0.3283 H   0  0  0  0  0  0  0  0  0  0  0  0
    6.3694    1.2091   -1.6195 H   0  0  0  0  0  0  0  0  0  0  0  0
    5.9277   -1.0705   -0.4367 H   0  0  0  0  0  0  0  0  0  0  0  0
    1.6961    2.9240   -0.7124 H   0  0  0  0  0  0  0  0  0  0  0  0
   -0.5976   -4.1727   -0.3814 H   0  0  0  0  0  0  0  0  0  0  0  0
   -1.7589   -1.3157   -2.5342 H   0  0  0  0  0  0  0  0  0  0  0  0
   -2.3728    0.6772   -1.5077 H   0  0  0  0  0  0  0  0  0  0  0  0
   -3.3964    2.0897    0.0073 H   0  0  0  0  0  0  0  0  0  0  0  0
   -4.4849    2.4766    2.1744 H   0  0  0  0  0  0  0  0  0  0  0  0
   -4.2905    0.8016    3.9934 H   0  0  0  0  0  0  0  0  0  0  0  0
   -2.9869   -1.2728    3.6264 H   0  0  0  0  0  0  0  0  0  0  0  0
   -1.8897   -1.6945    1.4930 H   0  0  0  0  0  0  0  0  0  0  0  0
  1  2  1  0
  2  3  1  0
  3  4  2  0
  4  5  1  0
  5  6  1  0
  6  7  1  0
  7  8  2  0
  7  9  1  0
  9 10  2  0
 10 11  1  0
 11 12  1  0
 10 13  1  0
 13 14  1  0
 14 15  2  3
 14 16  1  0
 16 17  1  0
 17 18  3  0
 16 19  1  0
 19 20  1  0
 20 21  2  0
 21 22  1  0
 22 23  2  0
 23 24  1  0
 24 25  2  0
 12  3  1  0
 25 20  1  0
 11  5  2  0
 19  9  1  0
  1 26  1  0
  1 27  1  0
  1 28  1  0
  2 29  1  0
  6 30  1  0
 15 31  1  0
 16 32  1  0
 19 33  1  0
 21 34  1  0
 22 35  1  0
 23 36  1  0
 24 37  1  0
 25 38  1  0
M  END
$$$$
