
     RDKit          3D

 58 61  0  0  0  0  0  0  0  0999 V2000
    8.8669    0.0032    1.9116 C   0  0  0  0  0  0  0  0  0  0  0  0
    7.7847   -0.1217    0.8805 C   0  0  0  0  0  0  0  0  0  0  0  0
    7.7627    0.7300   -0.2299 C   0  0  0  0  0  0  0  0  0  0  0  0
    6.7397    0.6349   -1.1770 C   0  0  0  0  0  0  0  0  0  0  0  0
    5.7181   -0.3118   -1.0270 C   0  0  0  0  0  0  0  0  0  0  0  0
    4.5973   -0.4057   -2.0294 C   0  0  0  0  0  0  0  0  0  0  0  0
    3.4394    0.3266   -1.5675 N   0  0  0  0  0  0  0  0  0  0  0  0
    2.3660   -0.3076   -0.9802 C   0  0  0  0  0  0  0  0  0  0  0  0
    2.2615   -1.5276   -0.9152 O   0  0  0  0  0  0  0  0  0  0  0  0
    1.3159    0.6573   -0.4238 C   0  0  0  0  0  0  0  0  0  0  0  0
    0.6267    1.4436   -1.5552 C   0  0  0  0  0  0  0  0  0  0  0  0
   -0.7454    0.8685   -1.8941 C   0  0  0  0  0  0  0  0  0  0  0  0
   -1.7107    0.9435   -0.6956 C   0  0  0  0  0  0  0  0  0  0  0  0
   -2.8750   -0.0441   -0.9066 C   0  0  0  0  0  0  0  0  0  0  0  0
   -3.9949    0.2865   -0.0342 N   0  0  0  0  0  0  0  0  0  0  0  0
   -5.2253   -0.3586    0.0004 C   0  0  0  0  0  0  0  0  0  0  0  0
   -5.5850   -1.1616   -1.0508 N   0  0  0  0  0  0  0  0  0  0  0  0
   -6.7584   -1.8595   -1.1663 C   0  0  0  0  0  0  0  0  0  0  0  0
   -6.9963   -2.7646   -2.5602 S   0  0  0  0  0  0  0  0  0  0  0  0
   -7.6658   -1.7855   -0.1483 N   0  0  0  0  0  0  0  0  0  0  0  0
   -7.3686   -1.0336    0.8630 C   0  0  0  0  0  0  0  0  0  0  0  0
   -8.3435   -0.9408    1.9866 C   0  0  0  0  0  0  0  0  0  0  0  0
   -8.0935   -0.1695    3.0526 C   0  0  0  0  0  0  0  0  0  0  0  0
   -6.8880    0.6128    3.1650 C   0  0  0  0  0  0  0  0  0  0  0  0
   -5.9479    0.5878    2.2091 C   0  0  0  0  0  0  0  0  0  0  0  0
   -6.1074   -0.2328    1.0190 C   0  0  0  0  0  0  0  0  0  0  0  0
   -0.9820    0.7187    0.6464 C   0  0  0  0  0  0  0  0  0  0  0  0
    0.3079   -0.0774    0.4773 C   0  0  0  0  0  0  0  0  0  0  0  0
    5.7301   -1.1479    0.0974 C   0  0  0  0  0  0  0  0  0  0  0  0
    6.7527   -1.0519    1.0437 C   0  0  0  0  0  0  0  0  0  0  0  0
    9.0341   -0.9513    2.4221 H   0  0  0  0  0  0  0  0  0  0  0  0
    9.8146    0.2937    1.4473 H   0  0  0  0  0  0  0  0  0  0  0  0
    8.5899    0.7568    2.6549 H   0  0  0  0  0  0  0  0  0  0  0  0
    8.5457    1.4732   -0.3649 H   0  0  0  0  0  0  0  0  0  0  0  0
    6.7487    1.3057   -2.0329 H   0  0  0  0  0  0  0  0  0  0  0  0
    4.9006    0.0373   -2.9840 H   0  0  0  0  0  0  0  0  0  0  0  0
    4.3473   -1.4545   -2.2241 H   0  0  0  0  0  0  0  0  0  0  0  0
    3.5515    1.3215   -1.4277 H   0  0  0  0  0  0  0  0  0  0  0  0
    1.8627    1.3779    0.2007 H   0  0  0  0  0  0  0  0  0  0  0  0
    0.5008    2.4871   -1.2381 H   0  0  0  0  0  0  0  0  0  0  0  0
    1.2381    1.4696   -2.4642 H   0  0  0  0  0  0  0  0  0  0  0  0
   -0.6252   -0.1704   -2.2280 H   0  0  0  0  0  0  0  0  0  0  0  0
   -1.1769    1.4178   -2.7396 H   0  0  0  0  0  0  0  0  0  0  0  0
   -2.1320    1.9586   -0.6671 H   0  0  0  0  0  0  0  0  0  0  0  0
   -3.2066    0.0171   -1.9485 H   0  0  0  0  0  0  0  0  0  0  0  0
   -2.5435   -1.0712   -0.7173 H   0  0  0  0  0  0  0  0  0  0  0  0
   -3.7156    0.6647    0.8645 H   0  0  0  0  0  0  0  0  0  0  0  0
   -4.9571   -1.2456   -1.8350 H   0  0  0  0  0  0  0  0  0  0  0  0
   -9.2513   -1.5247    1.8956 H   0  0  0  0  0  0  0  0  0  0  0  0
   -8.8112   -0.1107    3.8662 H   0  0  0  0  0  0  0  0  0  0  0  0
   -6.7662    1.2325    4.0490 H   0  0  0  0  0  0  0  0  0  0  0  0
   -5.0638    1.2025    2.3240 H   0  0  0  0  0  0  0  0  0  0  0  0
   -0.7346    1.6958    1.0827 H   0  0  0  0  0  0  0  0  0  0  0  0
   -1.6273    0.2156    1.3755 H   0  0  0  0  0  0  0  0  0  0  0  0
    0.0591   -1.0675    0.0762 H   0  0  0  0  0  0  0  0  0  0  0  0
    0.7653   -0.2543    1.4580 H   0  0  0  0  0  0  0  0  0  0  0  0
    4.9346   -1.8780    0.2421 H   0  0  0  0  0  0  0  0  0  0  0  0
    6.7365   -1.7105    1.9092 H   0  0  0  0  0  0  0  0  0  0  0  0
  1  2  1  0
  2  3  2  0
  3  4  1  0
  4  5  2  0
  5  6  1  0
  6  7  1  0
  7  8  1  0
  8  9  2  0
  8 10  1  0
 10 11  1  0
 11 12  1  0
 12 13  1  0
 13 14  1  0
 14 15  1  0
 15 16  1  0
 16 17  1  0
 17 18  1  0
 18 19  2  0
 18 20  1  0
 20 21  2  0
 21 22  1  0
 22 23  2  0
 23 24  1  0
 24 25  2  0
 25 26  1  0
 13 27  1  0
 27 28  1  0
  5 29  1  0
 29 30  2  0
 30  2  1  0
 28 10  1  0
 26 16  2  0
 26 21  1  0
  1 31  1  0
  1 32  1  0
  1 33  1  0
  3 34  1  0
  4 35  1  0
  6 36  1  0
  6 37  1  0
  7 38  1  0
 10 39  1  0
 11 40  1  0
 11 41  1  0
 12 42  1  0
 12 43  1  0
 13 44  1  0
 14 45  1  0
 14 46  1  0
 15 47  1  0
 17 48  1  0
 22 49  1  0
 23 50  1  0
 24 51  1  0
 25 52  1  0
 27 53  1  0
 27 54  1  0
 28 55  1  0
 28 56  1  0
 29 57  1  0
 30 58  1  0
M  END
$$$$
