
     RDKit          3D

 36 38  0  0  0  0  0  0  0  0999 V2000
   -2.6567    0.4264   -3.3166 C   0  0  0  0  0  0  0  0  0  0  0  0
   -2.3995    0.1737   -1.8731 C   0  0  0  0  0  0  0  0  0  0  0  0
   -3.1644    0.5339   -0.7815 C   0  0  0  0  0  0  0  0  0  0  0  0
   -2.5287    0.0497    0.3903 C   0  0  0  0  0  0  0  0  0  0  0  0
   -2.8432    0.1121    1.7624 C   0  0  0  0  0  0  0  0  0  0  0  0
   -1.9956   -0.4968    2.6930 C   0  0  0  0  0  0  0  0  0  0  0  0
   -0.8532   -1.1691    2.2724 C   0  0  0  0  0  0  0  0  0  0  0  0
   -0.5233   -1.2463    0.9160 C   0  0  0  0  0  0  0  0  0  0  0  0
   -1.3709   -0.6182   -0.0133 C   0  0  0  0  0  0  0  0  0  0  0  0
   -1.2922   -0.4967   -1.3914 N   0  0  0  0  0  0  0  0  0  0  0  0
   -0.1720   -0.9670   -2.2008 C   0  0  0  0  0  0  0  0  0  0  0  0
    0.8690    0.1329   -2.4350 C   0  0  0  0  0  0  0  0  0  0  0  0
    1.5176    0.5841   -1.2153 N   0  0  0  0  0  0  0  0  0  0  0  0
    2.5341   -0.1521   -0.6318 C   0  0  0  0  0  0  0  0  0  0  0  0
    3.0128   -1.1288   -1.2044 O   0  0  0  0  0  0  0  0  0  0  0  0
    2.9407    0.2935    0.6884 C   0  0  0  0  0  0  0  0  0  0  0  0
    2.5474    1.3440    1.5019 C   0  0  0  0  0  0  0  0  0  0  0  0
    3.3052    1.2476    2.6961 C   0  0  0  0  0  0  0  0  0  0  0  0
    4.1166    0.1487    2.5461 C   0  0  0  0  0  0  0  0  0  0  0  0
    5.3618   -0.4825    3.8373 Br  0  0  0  0  0  0  0  0  0  0  0  0
    3.9046   -0.4334    1.3387 O   0  0  0  0  0  0  0  0  0  0  0  0
   -3.5896    0.9833   -3.4537 H   0  0  0  0  0  0  0  0  0  0  0  0
   -1.8498    1.0154   -3.7620 H   0  0  0  0  0  0  0  0  0  0  0  0
   -2.7491   -0.5169   -3.8639 H   0  0  0  0  0  0  0  0  0  0  0  0
   -4.0970    1.0819   -0.8219 H   0  0  0  0  0  0  0  0  0  0  0  0
   -3.7410    0.6241    2.0960 H   0  0  0  0  0  0  0  0  0  0  0  0
   -2.2394   -0.4530    3.7515 H   0  0  0  0  0  0  0  0  0  0  0  0
   -0.2090   -1.6492    3.0060 H   0  0  0  0  0  0  0  0  0  0  0  0
    0.3645   -1.7888    0.6059 H   0  0  0  0  0  0  0  0  0  0  0  0
    0.2665   -1.8388   -1.7051 H   0  0  0  0  0  0  0  0  0  0  0  0
   -0.5774   -1.3160   -3.1563 H   0  0  0  0  0  0  0  0  0  0  0  0
    0.4109    1.0172   -2.8895 H   0  0  0  0  0  0  0  0  0  0  0  0
    1.6372   -0.2365   -3.1233 H   0  0  0  0  0  0  0  0  0  0  0  0
    1.0001    1.2306   -0.6343 H   0  0  0  0  0  0  0  0  0  0  0  0
    1.8016    2.0920    1.2734 H   0  0  0  0  0  0  0  0  0  0  0  0
    3.2616    1.8988    3.5578 H   0  0  0  0  0  0  0  0  0  0  0  0
  1  2  1  0
  2  3  2  0
  3  4  1  0
  4  5  2  0
  5  6  1  0
  6  7  2  0
  7  8  1  0
  8  9  2  0
  9 10  1  0
 10 11  1  0
 11 12  1  0
 12 13  1  0
 13 14  1  0
 14 15  2  0
 14 16  1  0
 16 17  2  0
 17 18  1  0
 18 19  2  0
 19 20  1  0
 19 21  1  0
 10  2  1  0
 21 16  1  0
  9  4  1  0
  1 22  1  0
  1 23  1  0
  1 24  1  0
  3 25  1  0
  5 26  1  0
  6 27  1  0
  7 28  1  0
  8 29  1  0
 11 30  1  0
 11 31  1  0
 12 32  1  0
 12 33  1  0
 13 34  1  0
 17 35  1  0
 18 36  1  0
M  END
$$$$
