
     RDKit          3D

 47 50  0  0  0  0  0  0  0  0999 V2000
   -6.3659   -0.0672   -0.4911 C   0  0  0  0  0  0  0  0  0  0  0  0
   -5.7371    1.0296    0.3745 C   0  0  0  0  0  0  0  0  0  0  0  0
   -5.0311    2.1024   -0.4802 C   0  0  0  0  0  0  0  0  0  0  0  0
   -3.8084    1.5603   -1.2379 C   0  0  0  0  0  0  0  0  0  0  0  0
   -2.9340    0.7004   -0.3670 C   0  0  0  0  0  0  0  0  0  0  0  0
   -3.4067    0.1988    0.8327 C   0  0  0  0  0  0  0  0  0  0  0  0
   -2.2406   -0.6997    1.6714 S   0  0  0  0  0  0  0  0  0  0  0  0
   -1.0694   -0.4273    0.4784 C   0  0  0  0  0  0  0  0  0  0  0  0
    0.2244   -0.9023    0.6166 N   0  0  0  0  0  0  0  0  0  0  0  0
    0.7694   -1.6382    1.6522 C   0  0  0  0  0  0  0  0  0  0  0  0
    0.1803   -2.0537    2.6436 O   0  0  0  0  0  0  0  0  0  0  0  0
    2.1865   -1.8961    1.4473 C   0  0  0  0  0  0  0  0  0  0  0  0
    3.1156   -2.5550    2.2296 C   0  0  0  0  0  0  0  0  0  0  0  0
    4.3498   -2.4945    1.5397 C   0  0  0  0  0  0  0  0  0  0  0  0
    4.1097   -1.8013    0.3716 C   0  0  0  0  0  0  0  0  0  0  0  0
    4.9655   -1.3966   -0.7705 C   0  0  0  0  0  0  0  0  0  0  0  0
    5.8854   -0.3412   -0.3706 N   0  0  0  0  0  0  0  0  0  0  0  0
    5.5975    0.9929   -0.2551 C   0  0  0  0  0  0  0  0  0  0  0  0
    6.7704    1.5844    0.1292 C   0  0  0  0  0  0  0  0  0  0  0  0
    7.0933    3.3866    0.4841 Br  0  0  0  0  0  0  0  0  0  0  0  0
    7.7136    0.5530    0.2098 C   0  0  0  0  0  0  0  0  0  0  0  0
    7.1817   -0.6338   -0.1052 N   0  0  0  0  0  0  0  0  0  0  0  0
    2.7960   -1.4401    0.3059 O   0  0  0  0  0  0  0  0  0  0  0  0
   -1.5590    0.2978   -0.6049 C   0  0  0  0  0  0  0  0  0  0  0  0
   -0.7093    0.5890   -1.7622 C   0  0  0  0  0  0  0  0  0  0  0  0
   -1.3424    0.8315   -2.9469 N   0  0  0  0  0  0  0  0  0  0  0  0
    0.5186    0.5516   -1.7227 O   0  0  0  0  0  0  0  0  0  0  0  0
   -4.7674    0.4375    1.4187 C   0  0  0  0  0  0  0  0  0  0  0  0
   -5.6151   -0.6581   -1.0248 H   0  0  0  0  0  0  0  0  0  0  0  0
   -7.0451    0.3679   -1.2317 H   0  0  0  0  0  0  0  0  0  0  0  0
   -6.9491   -0.7560    0.1296 H   0  0  0  0  0  0  0  0  0  0  0  0
   -6.5589    1.5142    0.9175 H   0  0  0  0  0  0  0  0  0  0  0  0
   -4.7072    2.9164    0.1822 H   0  0  0  0  0  0  0  0  0  0  0  0
   -5.7357    2.5443   -1.1947 H   0  0  0  0  0  0  0  0  0  0  0  0
   -3.2356    2.4076   -1.6309 H   0  0  0  0  0  0  0  0  0  0  0  0
   -4.1526    0.9679   -2.0933 H   0  0  0  0  0  0  0  0  0  0  0  0
    0.8704   -0.6376   -0.1280 H   0  0  0  0  0  0  0  0  0  0  0  0
    2.9129   -3.0137    3.1883 H   0  0  0  0  0  0  0  0  0  0  0  0
    5.3039   -2.8961    1.8565 H   0  0  0  0  0  0  0  0  0  0  0  0
    5.5567   -2.2427   -1.1366 H   0  0  0  0  0  0  0  0  0  0  0  0
    4.3713   -1.0099   -1.6055 H   0  0  0  0  0  0  0  0  0  0  0  0
    4.6064    1.3827   -0.4409 H   0  0  0  0  0  0  0  0  0  0  0  0
    8.7600    0.6050    0.4803 H   0  0  0  0  0  0  0  0  0  0  0  0
   -0.7405    0.8606   -3.7592 H   0  0  0  0  0  0  0  0  0  0  0  0
   -2.2873    0.5087   -3.0896 H   0  0  0  0  0  0  0  0  0  0  0  0
   -4.6605    1.1548    2.2435 H   0  0  0  0  0  0  0  0  0  0  0  0
   -5.1804   -0.4848    1.8438 H   0  0  0  0  0  0  0  0  0  0  0  0
  1  2  1  0
  2  3  1  0
  3  4  1  0
  4  5  1  0
  5  6  2  0
  6  7  1  0
  7  8  1  0
  8  9  1  0
  9 10  1  0
 10 11  2  0
 10 12  1  0
 12 13  2  0
 13 14  1  0
 14 15  2  0
 15 16  1  0
 16 17  1  0
 17 18  1  0
 18 19  2  0
 19 20  1  0
 19 21  1  0
 21 22  2  0
 15 23  1  0
  8 24  2  0
 24 25  1  0
 25 26  1  0
 25 27  2  0
  6 28  1  0
 28  2  1  0
 24  5  1  0
 23 12  1  0
 22 17  1  0
  1 29  1  0
  1 30  1  0
  1 31  1  0
  2 32  1  0
  3 33  1  0
  3 34  1  0
  4 35  1  0
  4 36  1  0
  9 37  1  0
 13 38  1  0
 14 39  1  0
 16 40  1  0
 16 41  1  0
 18 42  1  0
 21 43  1  0
 26 44  1  0
 26 45  1  0
 28 46  1  0
 28 47  1  0
M  END
$$$$
