
     RDKit          3D

 80 86  0  0  0  0  0  0  0  0999 V2000
   -5.4080   -0.7689    0.9648 C   0  0  0  0  0  0  0  0  0  0  0  0
   -4.0603   -0.1592    1.2156 C   0  0  0  0  0  0  0  0  0  0  0  0
   -3.7635    0.4414    2.4645 C   0  0  0  0  0  0  0  0  0  0  0  0
   -4.9147    0.5155    3.7604 Cl  0  0  0  0  0  0  0  0  0  0  0  0
   -2.5143    1.0252    2.7326 C   0  0  0  0  0  0  0  0  0  0  0  0
   -1.5173    1.0294    1.7687 C   0  0  0  0  0  0  0  0  0  0  0  0
   -1.7876    0.4412    0.5381 C   0  0  0  0  0  0  0  0  0  0  0  0
   -3.0428   -0.1389    0.2475 C   0  0  0  0  0  0  0  0  0  0  0  0
   -3.0145   -0.6063   -1.0930 N   0  0  0  0  0  0  0  0  0  0  0  0
   -4.0658   -1.2559   -1.8403 C   0  0  0  0  0  0  0  0  0  0  0  0
   -4.1857   -2.7478   -1.6078 C   0  0  0  0  0  0  0  0  0  0  0  0
   -3.0614   -3.5643   -1.4150 C   0  0  0  0  0  0  0  0  0  0  0  0
   -3.2018   -4.9421   -1.2349 C   0  0  0  0  0  0  0  0  0  0  0  0
   -4.4659   -5.5253   -1.2628 C   0  0  0  0  0  0  0  0  0  0  0  0
   -5.5905   -4.7333   -1.4805 C   0  0  0  0  0  0  0  0  0  0  0  0
   -5.4509   -3.3559   -1.6615 C   0  0  0  0  0  0  0  0  0  0  0  0
   -1.7775   -0.3330   -1.7172 C   0  0  0  0  0  0  0  0  0  0  0  0
   -1.4847   -0.5998   -2.8771 O   0  0  0  0  0  0  0  0  0  0  0  0
   -0.8777    0.3233   -0.6575 C   0  0  1  0  0  0  0  0  0  0  0  0
   -0.4293    1.6868   -1.0068 C   0  0  0  0  0  0  0  0  0  0  0  0
    0.9616    1.7797   -0.9884 C   0  0  0  0  0  0  0  0  0  0  0  0
    1.3263    3.0642   -1.2832 C   0  0  0  0  0  0  0  0  0  0  0  0
    2.5482    3.5931   -1.2585 O   0  0  0  0  0  0  0  0  0  0  0  0
    0.1415    3.7727   -1.5606 N   0  0  0  0  0  0  0  0  0  0  0  0
    0.0547    5.1428   -1.9434 C   0  0  0  0  0  0  0  0  0  0  0  0
    0.9935    5.6856   -2.8308 C   0  0  0  0  0  0  0  0  0  0  0  0
    0.9008    7.0268   -3.2065 C   0  0  0  0  0  0  0  0  0  0  0  0
   -0.1216    7.8271   -2.6987 C   0  0  0  0  0  0  0  0  0  0  0  0
   -1.0571    7.2900   -1.8154 C   0  0  0  0  0  0  0  0  0  0  0  0
   -0.9737    5.9490   -1.4376 C   0  0  0  0  0  0  0  0  0  0  0  0
   -0.9464    2.8944   -1.3942 C   0  0  0  0  0  0  0  0  0  0  0  0
   -2.2179    3.1993   -1.6485 O   0  0  0  0  0  0  0  0  0  0  0  0
    1.5964    0.4904   -0.6516 C   0  0  1  0  0  0  0  0  0  0  0  0
    2.5034    0.5199    0.5913 C   0  0  0  0  0  0  0  0  0  0  0  0
    2.8990   -0.8283    1.0142 N   0  0  0  0  0  0  0  0  0  0  0  0
    4.1275   -1.0275    1.6074 C   0  0  0  0  0  0  0  0  0  0  0  0
    4.9024   -0.1212    1.8813 O   0  0  0  0  0  0  0  0  0  0  0  0
    4.3665   -2.3434    1.8420 O   0  0  0  0  0  0  0  0  0  0  0  0
    5.6118   -2.7842    2.4405 C   0  0  0  0  0  0  0  0  0  0  0  0
    5.4840   -4.3135    2.5167 C   0  0  0  0  0  0  0  0  0  0  0  0
    5.7721   -2.2356    3.8624 C   0  0  0  0  0  0  0  0  0  0  0  0
    6.8115   -2.4388    1.5515 C   0  0  0  0  0  0  0  0  0  0  0  0
    1.9672   -1.9222    0.7204 C   0  0  0  0  0  0  0  0  0  0  0  0
    0.5214   -1.4206    0.5451 C   0  0  0  0  0  0  0  0  0  0  0  0
    0.4116   -0.4270   -0.5175 N   0  0  0  0  0  0  0  0  0  0  0  0
   -6.0702   -0.7544    1.8330 H   0  0  0  0  0  0  0  0  0  0  0  0
   -5.9340   -0.2224    0.1781 H   0  0  0  0  0  0  0  0  0  0  0  0
   -5.3010   -1.8226    0.7049 H   0  0  0  0  0  0  0  0  0  0  0  0
   -2.3199    1.4827    3.7003 H   0  0  0  0  0  0  0  0  0  0  0  0
   -0.5538    1.4859    1.9742 H   0  0  0  0  0  0  0  0  0  0  0  0
   -5.0093   -0.7395   -1.6491 H   0  0  0  0  0  0  0  0  0  0  0  0
   -3.8767   -1.1198   -2.9129 H   0  0  0  0  0  0  0  0  0  0  0  0
   -2.0609   -3.1388   -1.4146 H   0  0  0  0  0  0  0  0  0  0  0  0
   -2.3210   -5.5607   -1.0833 H   0  0  0  0  0  0  0  0  0  0  0  0
   -4.5729   -6.5981   -1.1261 H   0  0  0  0  0  0  0  0  0  0  0  0
   -6.5765   -5.1896   -1.5159 H   0  0  0  0  0  0  0  0  0  0  0  0
   -6.3415   -2.7572   -1.8410 H   0  0  0  0  0  0  0  0  0  0  0  0
    2.4787    4.5608   -1.1720 H   0  0  0  0  0  0  0  0  0  0  0  0
    1.7729    5.0716   -3.2789 H   0  0  0  0  0  0  0  0  0  0  0  0
    1.6201    7.4460   -3.9064 H   0  0  0  0  0  0  0  0  0  0  0  0
   -0.1905    8.8716   -2.9931 H   0  0  0  0  0  0  0  0  0  0  0  0
   -1.8475    7.9201   -1.4143 H   0  0  0  0  0  0  0  0  0  0  0  0
   -1.6921    5.5658   -0.7152 H   0  0  0  0  0  0  0  0  0  0  0  0
   -2.2427    3.9410   -2.2803 H   0  0  0  0  0  0  0  0  0  0  0  0
    2.1809    0.1349   -1.5099 H   0  0  0  0  0  0  0  0  0  0  0  0
    1.9845    0.9769    1.4440 H   0  0  0  0  0  0  0  0  0  0  0  0
    3.3942    1.1294    0.3982 H   0  0  0  0  0  0  0  0  0  0  0  0
    4.6122   -4.6028    3.1151 H   0  0  0  0  0  0  0  0  0  0  0  0
    5.3289   -4.7412    1.5192 H   0  0  0  0  0  0  0  0  0  0  0  0
    6.3742   -4.7757    2.9567 H   0  0  0  0  0  0  0  0  0  0  0  0
    5.9363   -1.1542    3.8681 H   0  0  0  0  0  0  0  0  0  0  0  0
    6.6231   -2.6983    4.3740 H   0  0  0  0  0  0  0  0  0  0  0  0
    4.8683   -2.4192    4.4542 H   0  0  0  0  0  0  0  0  0  0  0  0
    7.7269   -2.9207    1.9124 H   0  0  0  0  0  0  0  0  0  0  0  0
    6.6340   -2.7570    0.5181 H   0  0  0  0  0  0  0  0  0  0  0  0
    7.0012   -1.3623    1.5207 H   0  0  0  0  0  0  0  0  0  0  0  0
    2.0031   -2.6616    1.5276 H   0  0  0  0  0  0  0  0  0  0  0  0
    2.3180   -2.4120   -0.1958 H   0  0  0  0  0  0  0  0  0  0  0  0
   -0.1306   -2.2722    0.3223 H   0  0  0  0  0  0  0  0  0  0  0  0
    0.2131   -1.0112    1.5122 H   0  0  0  0  0  0  0  0  0  0  0  0
  1  2  1  0
  2  3  2  0
  3  4  1  0
  3  5  1  0
  5  6  2  0
  6  7  1  0
  7  8  2  0
  8  9  1  0
  9 10  1  0
 10 11  1  0
 11 12  2  0
 12 13  1  0
 13 14  2  0
 14 15  1  0
 15 16  2  0
  9 17  1  0
 17 18  2  0
 17 19  1  0
 19 20  1  0
 20 21  1  0
 21 22  2  0
 22 23  1  0
 22 24  1  0
 24 25  1  0
 25 26  2  0
 26 27  1  0
 27 28  2  0
 28 29  1  0
 29 30  2  0
 24 31  1  0
 31 32  1  0
 21 33  1  0
 33 34  1  0
 34 35  1  0
 35 36  1  0
 36 37  2  0
 36 38  1  0
 38 39  1  0
 39 40  1  0
 39 41  1  0
 39 42  1  0
 35 43  1  0
 43 44  1  0
 44 45  1  0
  8  2  1  0
 16 11  1  0
 19 45  1  1
 19  7  1  0
 31 20  2  0
 45 33  1  0
 30 25  1  0
  1 46  1  0
  1 47  1  0
  1 48  1  0
  5 49  1  0
  6 50  1  0
 10 51  1  0
 10 52  1  0
 12 53  1  0
 13 54  1  0
 14 55  1  0
 15 56  1  0
 16 57  1  0
 23 58  1  0
 26 59  1  0
 27 60  1  0
 28 61  1  0
 29 62  1  0
 30 63  1  0
 32 64  1  0
 33 65  1  6
 34 66  1  0
 34 67  1  0
 40 68  1  0
 40 69  1  0
 40 70  1  0
 41 71  1  0
 41 72  1  0
 41 73  1  0
 42 74  1  0
 42 75  1  0
 42 76  1  0
 43 77  1  0
 43 78  1  0
 44 79  1  0
 44 80  1  0
M  END
$$$$
