
     RDKit          3D

 46 49  0  0  0  0  0  0  0  0999 V2000
    6.0288    0.5812    2.3188 N   0  0  0  0  0  0  0  0  0  0  0  0
    5.8823   -0.8117    1.3818 S   0  0  0  0  0  6  0  0  0  0  0  0
    6.0250   -1.9161    2.3024 O   0  0  0  0  0  0  0  0  0  0  0  0
    6.7229   -0.6555    0.2188 O   0  0  0  0  0  0  0  0  0  0  0  0
    4.1898   -0.7136    0.8705 C   0  0  0  0  0  0  0  0  0  0  0  0
    3.8593    0.0059   -0.2764 C   0  0  0  0  0  0  0  0  0  0  0  0
    2.5209    0.0870   -0.6802 C   0  0  0  0  0  0  0  0  0  0  0  0
    1.4921   -0.5453    0.0387 C   0  0  0  0  0  0  0  0  0  0  0  0
    0.1543   -0.4685   -0.3449 N   0  0  0  0  0  0  0  0  0  0  0  0
   -0.8127   -1.1311    0.3559 N   0  0  0  0  0  0  0  0  0  0  0  0
   -1.9072   -1.0642   -0.3396 C   0  0  0  0  0  0  0  0  0  0  0  0
   -3.1891   -1.6550    0.1120 C   0  0  0  0  0  0  0  0  0  0  0  0
   -4.3292   -1.6401   -0.7002 C   0  0  0  0  0  0  0  0  0  0  0  0
   -5.5235   -2.2060   -0.2419 C   0  0  0  0  0  0  0  0  0  0  0  0
   -5.5768   -2.7863    1.0248 C   0  0  0  0  0  0  0  0  0  0  0  0
   -7.1929   -3.5495    1.6392 Br  0  0  0  0  0  0  0  0  0  0  0  0
   -4.4473   -2.8081    1.8396 C   0  0  0  0  0  0  0  0  0  0  0  0
   -3.2539   -2.2429    1.3826 C   0  0  0  0  0  0  0  0  0  0  0  0
   -1.7777   -0.3676   -1.6660 C   0  0  0  0  0  0  0  0  0  0  0  0
   -0.3598    0.1945   -1.5454 C   0  0  0  0  0  0  0  0  0  0  0  0
   -0.3821    1.7133   -1.4281 C   0  0  0  0  0  0  0  0  0  0  0  0
   -0.6580    2.3617   -0.2101 C   0  0  0  0  0  0  0  0  0  0  0  0
   -0.6941    3.7550   -0.1374 C   0  0  0  0  0  0  0  0  0  0  0  0
   -0.4616    4.5067   -1.2813 C   0  0  0  0  0  0  0  0  0  0  0  0
   -0.4970    5.8437   -1.2120 F   0  0  0  0  0  0  0  0  0  0  0  0
   -0.1949    3.8919   -2.4983 C   0  0  0  0  0  0  0  0  0  0  0  0
   -0.1579    2.4982   -2.5740 C   0  0  0  0  0  0  0  0  0  0  0  0
    1.8693   -1.2722    1.1846 C   0  0  0  0  0  0  0  0  0  0  0  0
    3.2015   -1.3662    1.6013 C   0  0  0  0  0  0  0  0  0  0  0  0
    5.2191    1.1968    2.2480 H   0  0  0  0  0  0  0  0  0  0  0  0
    6.2134    0.3070    3.2853 H   0  0  0  0  0  0  0  0  0  0  0  0
    4.6295    0.5040   -0.8621 H   0  0  0  0  0  0  0  0  0  0  0  0
    2.3028    0.6625   -1.5750 H   0  0  0  0  0  0  0  0  0  0  0  0
   -4.3154   -1.1992   -1.6925 H   0  0  0  0  0  0  0  0  0  0  0  0
   -6.4043   -2.1902   -0.8793 H   0  0  0  0  0  0  0  0  0  0  0  0
   -4.4818   -3.2604    2.8275 H   0  0  0  0  0  0  0  0  0  0  0  0
   -2.3756   -2.2650    2.0254 H   0  0  0  0  0  0  0  0  0  0  0  0
   -2.5506    0.3923   -1.8093 H   0  0  0  0  0  0  0  0  0  0  0  0
   -1.8364   -1.1164   -2.4632 H   0  0  0  0  0  0  0  0  0  0  0  0
    0.2228   -0.1039   -2.4264 H   0  0  0  0  0  0  0  0  0  0  0  0
   -0.8373    1.7805    0.6938 H   0  0  0  0  0  0  0  0  0  0  0  0
   -0.9004    4.2551    0.8035 H   0  0  0  0  0  0  0  0  0  0  0  0
   -0.0181    4.5017   -3.3787 H   0  0  0  0  0  0  0  0  0  0  0  0
    0.0498    2.0298   -3.5341 H   0  0  0  0  0  0  0  0  0  0  0  0
    1.1062   -1.7854    1.7675 H   0  0  0  0  0  0  0  0  0  0  0  0
    3.4459   -1.9484    2.4865 H   0  0  0  0  0  0  0  0  0  0  0  0
  1  2  1  0
  2  3  2  0
  2  4  2  0
  2  5  1  0
  5  6  2  0
  6  7  1  0
  7  8  2  0
  8  9  1  0
  9 10  1  0
 10 11  2  0
 11 12  1  0
 12 13  2  0
 13 14  1  0
 14 15  2  0
 15 16  1  0
 15 17  1  0
 17 18  2  0
 11 19  1  0
 19 20  1  0
 20 21  1  0
 21 22  2  0
 22 23  1  0
 23 24  2  0
 24 25  1  0
 24 26  1  0
 26 27  2  0
  8 28  1  0
 28 29  2  0
 29  5  1  0
 20  9  1  0
 27 21  1  0
 18 12  1  0
  1 30  1  0
  1 31  1  0
  6 32  1  0
  7 33  1  0
 13 34  1  0
 14 35  1  0
 17 36  1  0
 18 37  1  0
 19 38  1  0
 19 39  1  0
 20 40  1  0
 22 41  1  0
 23 42  1  0
 26 43  1  0
 27 44  1  0
 28 45  1  0
 29 46  1  0
M  END
$$$$
