
     RDKit          3D

 55 56  0  0  0  0  0  0  0  0999 V2000
   -4.3013   -0.4105   -0.0943 C   0  0  0  0  0  0  0  0  0  0  0  0
   -4.6800    0.6409    0.9538 C   0  0  0  0  0  0  0  0  0  0  0  0
   -3.6090    1.6056    1.1403 N   0  0  0  0  0  0  0  0  0  0  0  0
   -2.4642    1.3059    1.8425 C   0  0  0  0  0  0  0  0  0  0  0  0
   -2.2834    0.2320    2.4056 O   0  0  0  0  0  0  0  0  0  0  0  0
   -1.4811    2.4553    1.8977 C   0  0  0  0  0  0  0  0  0  0  0  0
   -0.0603    2.0246    2.2401 C   0  0  0  0  0  0  0  0  0  0  0  0
    0.8657    1.4299    0.7779 S   0  0  0  0  0  0  0  0  0  0  0  0
    0.4081   -0.3415    0.8218 C   0  0  0  0  0  0  0  0  0  0  0  0
    1.3168   -1.1568   -0.0911 C   0  0  0  0  0  0  0  0  0  0  0  0
    2.6900   -1.3999    0.5054 C   0  0  0  0  0  0  0  0  0  0  0  0
    2.9192   -1.3849    1.7099 O   0  0  0  0  0  0  0  0  0  0  0  0
    3.6424   -1.7095   -0.4409 N   0  0  0  0  0  0  0  0  0  0  0  0
    5.0359   -1.9261   -0.0871 C   0  0  0  0  0  0  0  0  0  0  0  0
    5.2444   -3.3010    0.5561 C   0  0  0  0  0  0  0  0  0  0  0  0
    5.9015   -1.7107   -1.3175 C   0  0  0  0  0  0  0  0  0  0  0  0
    6.5825   -0.4933   -1.4784 C   0  0  0  0  0  0  0  0  0  0  0  0
    7.3587   -0.2540   -2.6137 C   0  0  0  0  0  0  0  0  0  0  0  0
    7.4590   -1.2242   -3.6077 C   0  0  0  0  0  0  0  0  0  0  0  0
    6.7798   -2.4321   -3.4701 C   0  0  0  0  0  0  0  0  0  0  0  0
    6.0012   -2.6723   -2.3362 C   0  0  0  0  0  0  0  0  0  0  0  0
   -5.9656    1.3816    0.6292 C   0  0  0  0  0  0  0  0  0  0  0  0
   -6.8732    1.6671    1.6628 C   0  0  0  0  0  0  0  0  0  0  0  0
   -8.0521    2.3692    1.4058 C   0  0  0  0  0  0  0  0  0  0  0  0
   -8.3381    2.8033    0.1137 C   0  0  0  0  0  0  0  0  0  0  0  0
   -7.4412    2.5429   -0.9195 C   0  0  0  0  0  0  0  0  0  0  0  0
   -6.2596    1.8431   -0.6636 C   0  0  0  0  0  0  0  0  0  0  0  0
   -3.4529   -1.0117    0.2496 H   0  0  0  0  0  0  0  0  0  0  0  0
   -4.0017    0.0452   -1.0443 H   0  0  0  0  0  0  0  0  0  0  0  0
   -5.1367   -1.0921   -0.2885 H   0  0  0  0  0  0  0  0  0  0  0  0
   -4.8131    0.1051    1.9030 H   0  0  0  0  0  0  0  0  0  0  0  0
   -3.6932    2.5003    0.6754 H   0  0  0  0  0  0  0  0  0  0  0  0
   -1.5066    3.0246    0.9613 H   0  0  0  0  0  0  0  0  0  0  0  0
   -1.8432    3.1222    2.6904 H   0  0  0  0  0  0  0  0  0  0  0  0
    0.4868    2.9029    2.6002 H   0  0  0  0  0  0  0  0  0  0  0  0
   -0.0233    1.2803    3.0418 H   0  0  0  0  0  0  0  0  0  0  0  0
    0.4496   -0.7116    1.8507 H   0  0  0  0  0  0  0  0  0  0  0  0
   -0.6196   -0.4294    0.4585 H   0  0  0  0  0  0  0  0  0  0  0  0
    0.8683   -2.1468   -0.2409 H   0  0  0  0  0  0  0  0  0  0  0  0
    1.4044   -0.6888   -1.0791 H   0  0  0  0  0  0  0  0  0  0  0  0
    3.4215   -1.5858   -1.4200 H   0  0  0  0  0  0  0  0  0  0  0  0
    5.3036   -1.1760    0.6685 H   0  0  0  0  0  0  0  0  0  0  0  0
    4.7017   -3.3756    1.5045 H   0  0  0  0  0  0  0  0  0  0  0  0
    6.3048   -3.4813    0.7633 H   0  0  0  0  0  0  0  0  0  0  0  0
    4.8781   -4.1127   -0.0817 H   0  0  0  0  0  0  0  0  0  0  0  0
    6.5089    0.2814   -0.7172 H   0  0  0  0  0  0  0  0  0  0  0  0
    7.8826    0.6917   -2.7222 H   0  0  0  0  0  0  0  0  0  0  0  0
    8.0638   -1.0376   -4.4907 H   0  0  0  0  0  0  0  0  0  0  0  0
    6.8540   -3.1878   -4.2479 H   0  0  0  0  0  0  0  0  0  0  0  0
    5.4710   -3.6181   -2.2592 H   0  0  0  0  0  0  0  0  0  0  0  0
   -6.6639    1.3425    2.6807 H   0  0  0  0  0  0  0  0  0  0  0  0
   -8.7482    2.5761    2.2142 H   0  0  0  0  0  0  0  0  0  0  0  0
   -9.2568    3.3471   -0.0878 H   0  0  0  0  0  0  0  0  0  0  0  0
   -7.6617    2.8869   -1.9269 H   0  0  0  0  0  0  0  0  0  0  0  0
   -5.5744    1.6644   -1.4884 H   0  0  0  0  0  0  0  0  0  0  0  0
  1  2  1  0
  2  3  1  0
  3  4  1  0
  4  5  2  0
  4  6  1  0
  6  7  1  0
  7  8  1  0
  8  9  1  0
  9 10  1  0
 10 11  1  0
 11 12  2  0
 11 13  1  0
 13 14  1  0
 14 15  1  0
 14 16  1  0
 16 17  2  0
 17 18  1  0
 18 19  2  0
 19 20  1  0
 20 21  2  0
  2 22  1  0
 22 23  2  0
 23 24  1  0
 24 25  2  0
 25 26  1  0
 26 27  2  0
 21 16  1  0
 27 22  1  0
  1 28  1  0
  1 29  1  0
  1 30  1  0
  2 31  1  0
  3 32  1  0
  6 33  1  0
  6 34  1  0
  7 35  1  0
  7 36  1  0
  9 37  1  0
  9 38  1  0
 10 39  1  0
 10 40  1  0
 13 41  1  0
 14 42  1  0
 15 43  1  0
 15 44  1  0
 15 45  1  0
 17 46  1  0
 18 47  1  0
 19 48  1  0
 20 49  1  0
 21 50  1  0
 23 51  1  0
 24 52  1  0
 25 53  1  0
 26 54  1  0
 27 55  1  0
M  END
$$$$
