
     RDKit          3D

 39 40  0  0  0  0  0  0  0  0999 V2000
    6.6065    1.6855    1.3094 C   0  0  0  0  0  0  0  0  0  0  0  0
    5.8942    0.6868    0.5786 O   0  0  0  0  0  0  0  0  0  0  0  0
    4.9645    1.1864   -0.2712 C   0  0  0  0  0  0  0  0  0  0  0  0
    4.7192    2.3716   -0.4355 O   0  0  0  0  0  0  0  0  0  0  0  0
    4.3438    0.1549   -0.9023 N   0  0  0  0  0  0  0  0  0  0  0  0
    3.2036    0.3434   -1.7599 C   0  0  0  0  0  0  0  0  0  0  0  0
    1.9189    0.0745   -1.0169 C   0  0  0  0  0  0  0  0  0  0  0  0
    1.3635    1.0642   -0.1889 C   0  0  0  0  0  0  0  0  0  0  0  0
    0.1894    0.8180    0.5243 C   0  0  0  0  0  0  0  0  0  0  0  0
   -0.4335   -0.4257    0.4073 C   0  0  0  0  0  0  0  0  0  0  0  0
   -1.9265   -0.7657    1.3037 S   0  0  0  0  0  6  0  0  0  0  0  0
   -1.7365   -2.0219    1.9965 O   0  0  0  0  0  0  0  0  0  0  0  0
   -2.3319    0.4323    2.0086 O   0  0  0  0  0  0  0  0  0  0  0  0
   -3.0599   -1.0179    0.0539 N   0  0  0  0  0  0  0  0  0  0  0  0
   -3.3786    0.1821   -0.7892 C   0  0  0  0  0  0  0  0  0  0  0  0
   -4.7668    0.7368   -0.4567 C   0  0  0  0  0  0  0  0  0  0  0  0
   -5.8197   -0.2052   -0.7074 O   0  0  0  0  0  0  0  0  0  0  0  0
   -5.4208   -1.5687   -0.5062 C   0  0  0  0  0  0  0  0  0  0  0  0
   -4.2981   -1.7228    0.5233 C   0  0  0  0  0  0  0  0  0  0  0  0
    0.1119   -1.4272   -0.4005 C   0  0  0  0  0  0  0  0  0  0  0  0
    1.2875   -1.1756   -1.1093 C   0  0  0  0  0  0  0  0  0  0  0  0
    5.9209    2.2655    1.9352 H   0  0  0  0  0  0  0  0  0  0  0  0
    7.3253    1.1804    1.9606 H   0  0  0  0  0  0  0  0  0  0  0  0
    7.1583    2.3401    0.6273 H   0  0  0  0  0  0  0  0  0  0  0  0
    4.5694   -0.7673   -0.5600 H   0  0  0  0  0  0  0  0  0  0  0  0
    3.1941    1.3582   -2.1739 H   0  0  0  0  0  0  0  0  0  0  0  0
    3.3101   -0.3493   -2.6020 H   0  0  0  0  0  0  0  0  0  0  0  0
    1.8554    2.0319   -0.0910 H   0  0  0  0  0  0  0  0  0  0  0  0
   -0.2226    1.5931    1.1665 H   0  0  0  0  0  0  0  0  0  0  0  0
   -2.6276    0.9683   -0.6714 H   0  0  0  0  0  0  0  0  0  0  0  0
   -3.3423   -0.1435   -1.8357 H   0  0  0  0  0  0  0  0  0  0  0  0
   -4.9730    1.6239   -1.0639 H   0  0  0  0  0  0  0  0  0  0  0  0
   -4.8265    1.0392    0.5950 H   0  0  0  0  0  0  0  0  0  0  0  0
   -6.3072   -2.1253   -0.1862 H   0  0  0  0  0  0  0  0  0  0  0  0
   -5.1122   -1.9733   -1.4772 H   0  0  0  0  0  0  0  0  0  0  0  0
   -4.0683   -2.7847    0.6580 H   0  0  0  0  0  0  0  0  0  0  0  0
   -4.6237   -1.3014    1.4816 H   0  0  0  0  0  0  0  0  0  0  0  0
   -0.3714   -2.3992   -0.4737 H   0  0  0  0  0  0  0  0  0  0  0  0
    1.7103   -1.9622   -1.7311 H   0  0  0  0  0  0  0  0  0  0  0  0
  1  2  1  0
  2  3  1  0
  3  4  2  0
  3  5  1  0
  5  6  1  0
  6  7  1  0
  7  8  2  0
  8  9  1  0
  9 10  2  0
 10 11  1  0
 11 12  2  0
 11 13  2  0
 11 14  1  0
 14 15  1  0
 15 16  1  0
 16 17  1  0
 17 18  1  0
 18 19  1  0
 10 20  1  0
 20 21  2  0
 21  7  1  0
 19 14  1  0
  1 22  1  0
  1 23  1  0
  1 24  1  0
  5 25  1  0
  6 26  1  0
  6 27  1  0
  8 28  1  0
  9 29  1  0
 15 30  1  0
 15 31  1  0
 16 32  1  0
 16 33  1  0
 18 34  1  0
 18 35  1  0
 19 36  1  0
 19 37  1  0
 20 38  1  0
 21 39  1  0
M  END
$$$$
