
     RDKit          3D

 36 37  0  0  0  0  0  0  0  0999 V2000
    4.7076    2.0934   -0.4319 C   0  0  0  0  0  0  0  0  0  0  0  0
    4.5521    0.6822   -0.3457 O   0  0  0  0  0  0  0  0  0  0  0  0
    3.2911    0.2102   -0.1032 C   0  0  0  0  0  0  0  0  0  0  0  0
    2.1472    0.9857    0.0715 C   0  0  0  0  0  0  0  0  0  0  0  0
    0.9112    0.3747    0.3128 C   0  0  0  0  0  0  0  0  0  0  0  0
    0.8058   -1.0171    0.3662 C   0  0  0  0  0  0  0  0  0  0  0  0
   -0.4043   -1.7023    0.6211 N   0  0  0  0  0  0  0  0  0  0  0  0
   -1.7158   -1.3015    0.6169 C   0  0  0  0  0  0  0  0  0  0  0  0
   -2.8040   -2.3176    1.3833 S   0  0  0  0  0  0  0  0  0  0  0  0
   -1.9918   -0.1744   -0.1144 N   0  0  0  0  0  0  0  0  0  0  0  0
   -3.1227    0.6682   -0.1461 C   0  0  0  0  0  0  0  0  0  0  0  0
   -4.0431    0.7850    0.8960 C   0  0  0  0  0  0  0  0  0  0  0  0
   -5.1204    1.6721    0.7963 C   0  0  0  0  0  0  0  0  0  0  0  0
   -5.2776    2.4614   -0.3401 C   0  0  0  0  0  0  0  0  0  0  0  0
   -4.3514    2.3722   -1.3749 C   0  0  0  0  0  0  0  0  0  0  0  0
   -3.2755    1.4863   -1.2739 C   0  0  0  0  0  0  0  0  0  0  0  0
    1.9684   -1.8025    0.2264 C   0  0  0  0  0  0  0  0  0  0  0  0
    1.7817   -3.1608    0.3398 O   0  0  0  0  0  0  0  0  0  0  0  0
    2.9340   -3.9865    0.2225 C   0  0  0  0  0  0  0  0  0  0  0  0
    3.1975   -1.1826   -0.0187 C   0  0  0  0  0  0  0  0  0  0  0  0
    5.7629    2.3017   -0.6329 H   0  0  0  0  0  0  0  0  0  0  0  0
    4.4471    2.5773    0.5152 H   0  0  0  0  0  0  0  0  0  0  0  0
    4.1229    2.5051   -1.2612 H   0  0  0  0  0  0  0  0  0  0  0  0
    2.1805    2.0700    0.0438 H   0  0  0  0  0  0  0  0  0  0  0  0
    0.0596    1.0191    0.5072 H   0  0  0  0  0  0  0  0  0  0  0  0
   -0.2696   -2.6707    0.9064 H   0  0  0  0  0  0  0  0  0  0  0  0
   -1.3450   -0.0513   -0.8837 H   0  0  0  0  0  0  0  0  0  0  0  0
   -3.9356    0.2233    1.8174 H   0  0  0  0  0  0  0  0  0  0  0  0
   -5.8319    1.7487    1.6148 H   0  0  0  0  0  0  0  0  0  0  0  0
   -6.1164    3.1484   -0.4144 H   0  0  0  0  0  0  0  0  0  0  0  0
   -4.4656    2.9903   -2.2615 H   0  0  0  0  0  0  0  0  0  0  0  0
   -2.5679    1.4345   -2.0973 H   0  0  0  0  0  0  0  0  0  0  0  0
    3.3838   -3.8966   -0.7716 H   0  0  0  0  0  0  0  0  0  0  0  0
    2.6141   -5.0253    0.3496 H   0  0  0  0  0  0  0  0  0  0  0  0
    3.6614   -3.7641    1.0101 H   0  0  0  0  0  0  0  0  0  0  0  0
    4.1096   -1.7564   -0.1459 H   0  0  0  0  0  0  0  0  0  0  0  0
  1  2  1  0
  2  3  1  0
  3  4  2  0
  4  5  1  0
  5  6  2  0
  6  7  1  0
  7  8  1  0
  8  9  2  0
  8 10  1  0
 10 11  1  0
 11 12  2  0
 12 13  1  0
 13 14  2  0
 14 15  1  0
 15 16  2  0
  6 17  1  0
 17 18  1  0
 18 19  1  0
 17 20  2  0
 20  3  1  0
 16 11  1  0
  1 21  1  0
  1 22  1  0
  1 23  1  0
  4 24  1  0
  5 25  1  0
  7 26  1  0
 10 27  1  0
 12 28  1  0
 13 29  1  0
 14 30  1  0
 15 31  1  0
 16 32  1  0
 19 33  1  0
 19 34  1  0
 19 35  1  0
 20 36  1  0
M  END
$$$$
