
     RDKit          3D

 45 46  0  0  0  0  0  0  0  0999 V2000
    7.4897   -1.2195    1.4349 C   0  0  0  0  0  0  0  0  0  0  0  0
    6.9753    0.2075    1.5003 C   0  0  0  0  0  0  0  0  0  0  0  0
    5.9083    0.4507    0.5455 N   0  0  0  0  0  0  0  0  0  0  0  0
    6.2372    0.9259   -0.6716 N   0  0  0  0  0  0  0  0  0  0  0  0
    5.0639    1.0639   -1.2869 C   0  0  0  0  0  0  0  0  0  0  0  0
    3.9724    0.6842   -0.4775 C   0  0  0  0  0  0  0  0  0  0  0  0
    2.5745    0.7315   -0.8493 C   0  0  0  0  0  0  0  0  0  0  0  0
    1.6678    0.3989    0.0121 N   0  0  0  0  0  0  0  0  0  0  0  0
    0.3524    0.4228   -0.3780 N   0  0  0  0  0  0  0  0  0  0  0  0
   -0.1264    0.0993   -1.6432 C   0  0  0  0  0  0  0  0  0  0  0  0
    0.5590   -0.0892   -2.6465 O   0  0  0  0  0  0  0  0  0  0  0  0
   -1.6528    0.0208   -1.7003 C   0  0  0  0  0  0  0  0  0  0  0  0
   -2.2179    0.0149   -0.3921 O   0  0  0  0  0  0  0  0  0  0  0  0
   -3.5825   -0.0372   -0.3069 C   0  0  0  0  0  0  0  0  0  0  0  0
   -4.0842   -0.0177    0.9975 C   0  0  0  0  0  0  0  0  0  0  0  0
   -5.4614   -0.0807    1.2413 C   0  0  0  0  0  0  0  0  0  0  0  0
   -5.9873   -0.0331    2.6452 C   0  0  0  0  0  0  0  0  0  0  0  0
   -6.3413   -0.1340    0.1549 C   0  0  0  0  0  0  0  0  0  0  0  0
   -5.8556   -0.1405   -1.1587 C   0  0  0  0  0  0  0  0  0  0  0  0
   -6.8066   -0.2421   -2.3157 C   0  0  0  0  0  0  0  0  0  0  0  0
   -4.4705   -0.1074   -1.3815 C   0  0  0  0  0  0  0  0  0  0  0  0
    4.5556    0.2692    0.7131 C   0  0  0  0  0  0  0  0  0  0  0  0
    3.9346   -0.2650    1.9541 C   0  0  0  0  0  0  0  0  0  0  0  0
    8.2949   -1.3665    2.1612 H   0  0  0  0  0  0  0  0  0  0  0  0
    7.8815   -1.4516    0.4389 H   0  0  0  0  0  0  0  0  0  0  0  0
    6.6950   -1.9396    1.6556 H   0  0  0  0  0  0  0  0  0  0  0  0
    6.6007    0.4476    2.5002 H   0  0  0  0  0  0  0  0  0  0  0  0
    7.7843    0.9138    1.2809 H   0  0  0  0  0  0  0  0  0  0  0  0
    5.0496    1.4402   -2.3020 H   0  0  0  0  0  0  0  0  0  0  0  0
    2.3566    1.0973   -1.8660 H   0  0  0  0  0  0  0  0  0  0  0  0
   -0.3122    0.3047    0.3866 H   0  0  0  0  0  0  0  0  0  0  0  0
   -1.9974    0.8963   -2.2626 H   0  0  0  0  0  0  0  0  0  0  0  0
   -1.9062   -0.9099   -2.2211 H   0  0  0  0  0  0  0  0  0  0  0  0
   -3.3899    0.0420    1.8329 H   0  0  0  0  0  0  0  0  0  0  0  0
   -5.2819   -0.4968    3.3426 H   0  0  0  0  0  0  0  0  0  0  0  0
   -6.1530    1.0055    2.9475 H   0  0  0  0  0  0  0  0  0  0  0  0
   -6.9319   -0.5810    2.7275 H   0  0  0  0  0  0  0  0  0  0  0  0
   -7.4146   -0.1717    0.3329 H   0  0  0  0  0  0  0  0  0  0  0  0
   -7.7689    0.2211   -2.0734 H   0  0  0  0  0  0  0  0  0  0  0  0
   -6.9741   -1.2931   -2.5705 H   0  0  0  0  0  0  0  0  0  0  0  0
   -6.4093    0.2772   -3.1941 H   0  0  0  0  0  0  0  0  0  0  0  0
   -4.1166   -0.1350   -2.4072 H   0  0  0  0  0  0  0  0  0  0  0  0
    4.6640   -0.7097    2.6359 H   0  0  0  0  0  0  0  0  0  0  0  0
    3.4153    0.5353    2.4908 H   0  0  0  0  0  0  0  0  0  0  0  0
    3.2095   -1.0493    1.7141 H   0  0  0  0  0  0  0  0  0  0  0  0
  1  2  1  0
  2  3  1  0
  3  4  1  0
  4  5  2  0
  5  6  1  0
  6  7  1  0
  7  8  2  3
  8  9  1  0
  9 10  1  0
 10 11  2  0
 10 12  1  0
 12 13  1  0
 13 14  1  0
 14 15  2  0
 15 16  1  0
 16 17  1  0
 16 18  2  0
 18 19  1  0
 19 20  1  0
 19 21  2  0
  6 22  2  0
 22 23  1  0
 22  3  1  0
 21 14  1  0
  1 24  1  0
  1 25  1  0
  1 26  1  0
  2 27  1  0
  2 28  1  0
  5 29  1  0
  7 30  1  0
  9 31  1  0
 12 32  1  0
 12 33  1  0
 15 34  1  0
 17 35  1  0
 17 36  1  0
 17 37  1  0
 18 38  1  0
 20 39  1  0
 20 40  1  0
 20 41  1  0
 21 42  1  0
 23 43  1  0
 23 44  1  0
 23 45  1  0
M  END
$$$$
