
     RDKit          3D

 44 47  0  0  0  0  0  0  0  0999 V2000
    6.4616   -0.1563   -0.2023 C   0  0  0  0  0  0  0  0  0  0  0  0
    5.4256   -0.1997    0.9108 C   0  0  0  0  0  0  0  0  0  0  0  0
    4.0285   -0.1801    0.3686 C   0  0  0  0  0  0  0  0  0  0  0  0
    3.2463   -1.2512   -0.0171 C   0  0  0  0  0  0  0  0  0  0  0  0
    1.9633   -0.8355   -0.4803 C   0  0  0  0  0  0  0  0  0  0  0  0
    0.8635   -1.6362   -0.9731 C   0  0  0  0  0  0  0  0  0  0  0  0
    0.9597   -2.8577   -1.0587 O   0  0  0  0  0  0  0  0  0  0  0  0
   -0.2707   -0.9051   -1.3438 N   0  0  0  0  0  0  0  0  0  0  0  0
   -1.3828   -1.6808   -1.8994 C   0  0  0  0  0  0  0  0  0  0  0  0
   -2.5239   -1.9194   -0.9325 C   0  0  0  0  0  0  0  0  0  0  0  0
   -3.8472   -1.6758   -1.3351 C   0  0  0  0  0  0  0  0  0  0  0  0
   -4.9128   -1.9117   -0.4645 C   0  0  0  0  0  0  0  0  0  0  0  0
   -4.6708   -2.4031    0.8156 C   0  0  0  0  0  0  0  0  0  0  0  0
   -3.3649   -2.6648    1.2229 C   0  0  0  0  0  0  0  0  0  0  0  0
   -2.2980   -2.4320    0.3527 C   0  0  0  0  0  0  0  0  0  0  0  0
   -0.2872    0.4839   -1.2122 C   0  0  0  0  0  0  0  0  0  0  0  0
   -1.7474    1.3521   -1.6624 S   0  0  0  0  0  0  0  0  0  0  0  0
   -1.9748    2.4371   -0.2295 C   0  0  0  0  0  0  0  0  0  0  0  0
   -1.2346    3.7516   -0.3386 C   0  0  0  0  0  0  0  0  0  0  0  0
   -1.0932    4.1491    1.1103 C   0  0  0  0  0  0  0  0  0  0  0  0
   -0.9867    2.9292    1.8447 O   0  0  0  0  0  0  0  0  0  0  0  0
   -1.4802    1.8980    1.0901 C   0  0  0  0  0  0  0  0  0  0  0  0
   -1.5426    0.7445    1.4848 O   0  0  0  0  0  0  0  0  0  0  0  0
    0.7029    1.2143   -0.7999 N   0  0  0  0  0  0  0  0  0  0  0  0
    1.8059    0.5256   -0.4346 C   0  0  0  0  0  0  0  0  0  0  0  0
    3.1965    1.3065    0.1650 S   0  0  0  0  0  0  0  0  0  0  0  0
    6.3697    0.7592   -0.7965 H   0  0  0  0  0  0  0  0  0  0  0  0
    6.3513   -1.0092   -0.8807 H   0  0  0  0  0  0  0  0  0  0  0  0
    7.4714   -0.1868    0.2191 H   0  0  0  0  0  0  0  0  0  0  0  0
    5.5870    0.6420    1.5949 H   0  0  0  0  0  0  0  0  0  0  0  0
    5.5707   -1.1121    1.5020 H   0  0  0  0  0  0  0  0  0  0  0  0
    3.5719   -2.2844    0.0287 H   0  0  0  0  0  0  0  0  0  0  0  0
   -1.7445   -1.1656   -2.7971 H   0  0  0  0  0  0  0  0  0  0  0  0
   -1.0360   -2.6604   -2.2500 H   0  0  0  0  0  0  0  0  0  0  0  0
   -4.0597   -1.2940   -2.3315 H   0  0  0  0  0  0  0  0  0  0  0  0
   -5.9318   -1.7122   -0.7853 H   0  0  0  0  0  0  0  0  0  0  0  0
   -5.4981   -2.5839    1.4965 H   0  0  0  0  0  0  0  0  0  0  0  0
   -3.1725   -3.0479    2.2219 H   0  0  0  0  0  0  0  0  0  0  0  0
   -1.2894   -2.6512    0.6961 H   0  0  0  0  0  0  0  0  0  0  0  0
   -3.0485    2.6272   -0.1160 H   0  0  0  0  0  0  0  0  0  0  0  0
   -1.7695    4.5049   -0.9250 H   0  0  0  0  0  0  0  0  0  0  0  0
   -0.2377    3.6354   -0.7778 H   0  0  0  0  0  0  0  0  0  0  0  0
   -0.2013    4.7594    1.2801 H   0  0  0  0  0  0  0  0  0  0  0  0
   -1.9691    4.6969    1.4740 H   0  0  0  0  0  0  0  0  0  0  0  0
  1  2  1  0
  2  3  1  0
  3  4  2  0
  4  5  1  0
  5  6  1  0
  6  7  2  0
  6  8  1  0
  8  9  1  0
  9 10  1  0
 10 11  2  0
 11 12  1  0
 12 13  2  0
 13 14  1  0
 14 15  2  0
  8 16  1  0
 16 17  1  0
 17 18  1  0
 18 19  1  0
 19 20  1  0
 20 21  1  0
 21 22  1  0
 22 23  2  0
 16 24  2  0
 24 25  1  0
 25 26  1  0
 26  3  1  0
 25  5  2  0
 15 10  1  0
 22 18  1  0
  1 27  1  0
  1 28  1  0
  1 29  1  0
  2 30  1  0
  2 31  1  0
  4 32  1  0
  9 33  1  0
  9 34  1  0
 11 35  1  0
 12 36  1  0
 13 37  1  0
 14 38  1  0
 15 39  1  0
 18 40  1  0
 19 41  1  0
 19 42  1  0
 20 43  1  0
 20 44  1  0
M  END
$$$$
