
     RDKit          3D

 36 37  0  0  0  0  0  0  0  0999 V2000
    1.2311   -2.8169   -1.6567 O   0  0  0  0  0  0  0  0  0  0  0  0
    0.8358   -2.3694   -0.5829 C   0  0  0  0  0  0  0  0  0  0  0  0
   -0.3097   -3.0151    0.1968 C   0  0  0  0  0  0  0  0  0  0  0  0
   -1.5648   -2.3859   -0.0681 O   0  0  0  0  0  0  0  0  0  0  0  0
   -1.7761   -1.2448    0.6257 C   0  0  0  0  0  0  0  0  0  0  0  0
   -1.0307   -0.7243    1.4364 O   0  0  0  0  0  0  0  0  0  0  0  0
   -3.0608   -0.6844    0.2101 C   0  0  0  0  0  0  0  0  0  0  0  0
   -3.0940    0.3439   -0.7366 C   0  0  0  0  0  0  0  0  0  0  0  0
   -1.6624    0.9672   -1.4760 Cl  0  0  0  0  0  0  0  0  0  0  0  0
   -4.3203    0.8933   -1.1225 C   0  0  0  0  0  0  0  0  0  0  0  0
   -5.5079    0.4198   -0.5630 C   0  0  0  0  0  0  0  0  0  0  0  0
   -5.4723   -0.6038    0.3846 C   0  0  0  0  0  0  0  0  0  0  0  0
   -4.2492   -1.1567    0.7753 C   0  0  0  0  0  0  0  0  0  0  0  0
   -4.2729   -2.4099    1.9640 Cl  0  0  0  0  0  0  0  0  0  0  0  0
    1.3811   -1.2565    0.0209 N   0  0  0  0  0  0  0  0  0  0  0  0
    2.3231   -0.4137   -0.6934 C   0  0  0  0  0  0  0  0  0  0  0  0
    3.0590    0.5305    0.2549 C   0  0  0  0  0  0  0  0  0  0  0  0
    4.0877    1.4003   -0.4476 C   0  0  0  0  0  0  0  0  0  0  0  0
    4.1711    2.5829    0.4841 C   0  0  0  0  0  0  0  0  0  0  0  0
    2.7289    2.7463    0.9144 C   0  0  0  0  0  0  0  0  0  0  0  0
    2.1299    1.4432    0.8767 O   0  0  0  0  0  0  0  0  0  0  0  0
   -0.0846   -3.0273    1.2708 H   0  0  0  0  0  0  0  0  0  0  0  0
   -0.3873   -4.0615   -0.1178 H   0  0  0  0  0  0  0  0  0  0  0  0
   -4.3569    1.6917   -1.8609 H   0  0  0  0  0  0  0  0  0  0  0  0
   -6.4608    0.8497   -0.8644 H   0  0  0  0  0  0  0  0  0  0  0  0
   -6.4030   -0.9641    0.8188 H   0  0  0  0  0  0  0  0  0  0  0  0
    0.8094   -0.7855    0.7263 H   0  0  0  0  0  0  0  0  0  0  0  0
    3.0319   -1.0497   -1.2351 H   0  0  0  0  0  0  0  0  0  0  0  0
    1.7378    0.1518   -1.4277 H   0  0  0  0  0  0  0  0  0  0  0  0
    3.5330   -0.0399    1.0637 H   0  0  0  0  0  0  0  0  0  0  0  0
    3.7202    1.7300   -1.4274 H   0  0  0  0  0  0  0  0  0  0  0  0
    5.0451    0.8923   -0.5940 H   0  0  0  0  0  0  0  0  0  0  0  0
    4.5819    3.4825    0.0183 H   0  0  0  0  0  0  0  0  0  0  0  0
    4.7931    2.3313    1.3508 H   0  0  0  0  0  0  0  0  0  0  0  0
    2.6363    3.1658    1.9200 H   0  0  0  0  0  0  0  0  0  0  0  0
    2.1772    3.3871    0.2176 H   0  0  0  0  0  0  0  0  0  0  0  0
  1  2  2  0
  2  3  1  0
  3  4  1  0
  4  5  1  0
  5  6  2  0
  5  7  1  0
  7  8  2  0
  8  9  1  0
  8 10  1  0
 10 11  2  0
 11 12  1  0
 12 13  2  0
 13 14  1  0
  2 15  1  0
 15 16  1  0
 16 17  1  0
 17 18  1  0
 18 19  1  0
 19 20  1  0
 20 21  1  0
 13  7  1  0
 21 17  1  0
  3 22  1  0
  3 23  1  0
 10 24  1  0
 11 25  1  0
 12 26  1  0
 15 27  1  0
 16 28  1  0
 16 29  1  0
 17 30  1  0
 18 31  1  0
 18 32  1  0
 19 33  1  0
 19 34  1  0
 20 35  1  0
 20 36  1  0
M  END
$$$$
