
     RDKit          3D

 49 52  0  0  0  0  0  0  0  0999 V2000
   -3.4956   -5.1039    0.0042 C   0  0  0  0  0  0  0  0  0  0  0  0
   -3.4092   -4.3712   -1.2109 O   0  0  0  0  0  0  0  0  0  0  0  0
   -2.7454   -3.1763   -1.1652 C   0  0  0  0  0  0  0  0  0  0  0  0
   -2.1726   -2.5974   -0.0339 C   0  0  0  0  0  0  0  0  0  0  0  0
   -1.5204   -1.3613   -0.1272 C   0  0  0  0  0  0  0  0  0  0  0  0
   -1.4230   -0.6842   -1.3535 C   0  0  0  0  0  0  0  0  0  0  0  0
   -0.7282    0.6760   -1.4677 C   0  0  0  0  0  0  0  0  0  0  0  0
    0.6169    0.6138   -0.8550 N   0  0  0  0  0  0  0  0  0  0  0  0
    0.7876    1.2010    0.2784 C   0  0  0  0  0  0  0  0  0  0  0  0
    1.9355    1.1978    1.0313 N   0  0  0  0  0  0  0  0  0  0  0  0
    3.1655    0.5482    0.7956 C   0  0  0  0  0  0  0  0  0  0  0  0
    3.4740   -0.1644   -0.3662 C   0  0  0  0  0  0  0  0  0  0  0  0
    4.7304   -0.7590   -0.5443 C   0  0  0  0  0  0  0  0  0  0  0  0
    5.7163   -0.6528    0.4391 C   0  0  0  0  0  0  0  0  0  0  0  0
    7.0706   -1.2602    0.2275 C   0  0  0  0  0  0  0  0  0  0  0  0
    5.4351    0.0827    1.5911 C   0  0  0  0  0  0  0  0  0  0  0  0
    4.1778    0.6733    1.7638 C   0  0  0  0  0  0  0  0  0  0  0  0
   -0.2092    1.9281    0.8545 N   0  0  0  0  0  0  0  0  0  0  0  0
   -1.3601    2.3005    0.2402 C   0  0  0  0  0  0  0  0  0  0  0  0
   -2.1416    3.1748    0.8005 N   0  0  0  0  0  0  0  0  0  0  0  0
   -3.2633    3.5585    0.1101 C   0  0  0  0  0  0  0  0  0  0  0  0
   -4.1542    4.5358    0.8217 C   0  0  0  0  0  0  0  0  0  0  0  0
   -3.5584    3.1213   -1.1193 C   0  0  0  0  0  0  0  0  0  0  0  0
   -2.6520    2.1568   -1.7630 C   0  0  0  0  0  0  0  0  0  0  0  0
   -2.8830    1.7976   -2.9141 O   0  0  0  0  0  0  0  0  0  0  0  0
   -1.5921    1.7455   -0.9902 N   0  0  0  0  0  0  0  0  0  0  0  0
   -2.0083   -1.2750   -2.4831 C   0  0  0  0  0  0  0  0  0  0  0  0
   -2.6611   -2.5071   -2.3868 C   0  0  0  0  0  0  0  0  0  0  0  0
   -4.0573   -4.5480    0.7619 H   0  0  0  0  0  0  0  0  0  0  0  0
   -2.5013   -5.3791    0.3712 H   0  0  0  0  0  0  0  0  0  0  0  0
   -4.0418   -6.0293   -0.2017 H   0  0  0  0  0  0  0  0  0  0  0  0
   -2.2127   -3.0784    0.9374 H   0  0  0  0  0  0  0  0  0  0  0  0
   -1.0800   -0.9354    0.7704 H   0  0  0  0  0  0  0  0  0  0  0  0
   -0.5511    0.8711   -2.5337 H   0  0  0  0  0  0  0  0  0  0  0  0
    1.8605    1.5429    1.9769 H   0  0  0  0  0  0  0  0  0  0  0  0
    2.7505   -0.2791   -1.1677 H   0  0  0  0  0  0  0  0  0  0  0  0
    4.9274   -1.3041   -1.4655 H   0  0  0  0  0  0  0  0  0  0  0  0
    6.9948   -2.1918   -0.3437 H   0  0  0  0  0  0  0  0  0  0  0  0
    7.7134   -0.5609   -0.3166 H   0  0  0  0  0  0  0  0  0  0  0  0
    7.5447   -1.5032    1.1843 H   0  0  0  0  0  0  0  0  0  0  0  0
    6.1917    0.2060    2.3627 H   0  0  0  0  0  0  0  0  0  0  0  0
    4.0031    1.2419    2.6737 H   0  0  0  0  0  0  0  0  0  0  0  0
   -0.0133    2.4704    1.6808 H   0  0  0  0  0  0  0  0  0  0  0  0
   -4.5132    4.1056    1.7624 H   0  0  0  0  0  0  0  0  0  0  0  0
   -3.6040    5.4548    1.0491 H   0  0  0  0  0  0  0  0  0  0  0  0
   -5.0298    4.8091    0.2234 H   0  0  0  0  0  0  0  0  0  0  0  0
   -4.4323    3.4283   -1.6769 H   0  0  0  0  0  0  0  0  0  0  0  0
   -1.9709   -0.7734   -3.4487 H   0  0  0  0  0  0  0  0  0  0  0  0
   -3.1105   -2.9461   -3.2741 H   0  0  0  0  0  0  0  0  0  0  0  0
  1  2  1  0
  2  3  1  0
  3  4  2  0
  4  5  1  0
  5  6  2  0
  6  7  1  0
  7  8  1  0
  8  9  2  0
  9 10  1  0
 10 11  1  0
 11 12  2  0
 12 13  1  0
 13 14  2  0
 14 15  1  0
 14 16  1  0
 16 17  2  0
  9 18  1  0
 18 19  1  0
 19 20  2  0
 20 21  1  0
 21 22  1  0
 21 23  2  0
 23 24  1  0
 24 25  2  0
 24 26  1  0
  6 27  1  0
 27 28  2  0
 28  3  1  0
 26  7  1  0
 17 11  1  0
 26 19  1  0
  1 29  1  0
  1 30  1  0
  1 31  1  0
  4 32  1  0
  5 33  1  0
  7 34  1  0
 10 35  1  0
 12 36  1  0
 13 37  1  0
 15 38  1  0
 15 39  1  0
 15 40  1  0
 16 41  1  0
 17 42  1  0
 18 43  1  0
 22 44  1  0
 22 45  1  0
 22 46  1  0
 23 47  1  0
 27 48  1  0
 28 49  1  0
M  END
$$$$
