
     RDKit          3D

 50 54  0  0  0  0  0  0  0  0999 V2000
    6.0995    3.7107    2.0057 F   0  0  0  0  0  0  0  0  0  0  0  0
    5.2504    2.9239    1.3315 C   0  0  0  0  0  0  0  0  0  0  0  0
    5.5459    1.5757    1.1726 C   0  0  0  0  0  0  0  0  0  0  0  0
    4.6608    0.7575    0.4698 C   0  0  0  0  0  0  0  0  0  0  0  0
    3.4747    1.2857   -0.0692 C   0  0  0  0  0  0  0  0  0  0  0  0
    2.5211    0.4019   -0.8494 C   0  0  0  0  0  0  0  0  0  0  0  0
    2.1443   -0.8302   -0.1370 N   0  0  0  0  0  0  0  0  0  0  0  0
    1.2896   -0.5678    1.0448 C   0  0  0  0  0  0  0  0  0  0  0  0
   -0.2292   -0.4928    0.7611 C   0  0  0  0  0  0  0  0  0  0  0  0
   -0.7246   -1.6806    0.0275 N   0  0  0  0  0  0  0  0  0  0  0  0
   -1.7982   -2.3159    0.6654 C   0  0  0  0  0  0  0  0  0  0  0  0
   -1.6006   -3.5487    1.1984 N   0  0  0  0  0  0  0  0  0  0  0  0
   -2.5976   -4.1538    1.8559 C   0  0  0  0  0  0  0  0  0  0  0  0
   -3.8264   -3.6897    2.0652 N   0  0  0  0  0  0  0  0  0  0  0  0
   -4.0200   -2.4896    1.4961 C   0  0  0  0  0  0  0  0  0  0  0  0
   -5.5414   -1.7371    1.6333 S   0  0  0  0  0  0  0  0  0  0  0  0
   -5.0348   -0.4155    0.6864 C   0  0  0  0  0  0  0  0  0  0  0  0
   -3.7167   -0.5271    0.2801 C   0  0  0  0  0  0  0  0  0  0  0  0
   -3.1541    0.4976   -0.5928 C   0  0  0  0  0  0  0  0  0  0  0  0
   -3.1025    1.8357   -0.1777 C   0  0  0  0  0  0  0  0  0  0  0  0
   -2.5664    2.8138   -1.0188 C   0  0  0  0  0  0  0  0  0  0  0  0
   -2.0819    2.4623   -2.2780 C   0  0  0  0  0  0  0  0  0  0  0  0
   -2.1334    1.1340   -2.6992 C   0  0  0  0  0  0  0  0  0  0  0  0
   -2.6700    0.1544   -1.8610 C   0  0  0  0  0  0  0  0  0  0  0  0
   -3.0948   -1.7438    0.7758 C   0  0  0  0  0  0  0  0  0  0  0  0
    0.3353   -2.5946   -0.4389 C   0  0  0  0  0  0  0  0  0  0  0  0
    1.4740   -1.7673   -1.0747 C   0  0  0  0  0  0  0  0  0  0  0  0
    3.2012    2.6531    0.0958 C   0  0  0  0  0  0  0  0  0  0  0  0
    4.0883    3.4700    0.7991 C   0  0  0  0  0  0  0  0  0  0  0  0
    6.4596    1.1704    1.5944 H   0  0  0  0  0  0  0  0  0  0  0  0
    4.8888   -0.2998    0.3469 H   0  0  0  0  0  0  0  0  0  0  0  0
    1.6252    0.9686   -1.1355 H   0  0  0  0  0  0  0  0  0  0  0  0
    3.0400    0.1454   -1.7830 H   0  0  0  0  0  0  0  0  0  0  0  0
    1.6025    0.3385    1.5763 H   0  0  0  0  0  0  0  0  0  0  0  0
    1.4644   -1.3849    1.7579 H   0  0  0  0  0  0  0  0  0  0  0  0
   -0.4168    0.3950    0.1497 H   0  0  0  0  0  0  0  0  0  0  0  0
   -0.7511   -0.3468    1.7154 H   0  0  0  0  0  0  0  0  0  0  0  0
   -2.3742   -5.1322    2.2684 H   0  0  0  0  0  0  0  0  0  0  0  0
   -5.7365    0.3756    0.4560 H   0  0  0  0  0  0  0  0  0  0  0  0
   -3.4711    2.1250    0.8034 H   0  0  0  0  0  0  0  0  0  0  0  0
   -2.5276    3.8500   -0.6914 H   0  0  0  0  0  0  0  0  0  0  0  0
   -1.6669    3.2239   -2.9333 H   0  0  0  0  0  0  0  0  0  0  0  0
   -1.7563    0.8584   -3.6809 H   0  0  0  0  0  0  0  0  0  0  0  0
   -2.6981   -0.8792   -2.1994 H   0  0  0  0  0  0  0  0  0  0  0  0
    0.7444   -3.2036    0.3783 H   0  0  0  0  0  0  0  0  0  0  0  0
   -0.0725   -3.2746   -1.1970 H   0  0  0  0  0  0  0  0  0  0  0  0
    2.2326   -2.4460   -1.4806 H   0  0  0  0  0  0  0  0  0  0  0  0
    1.0434   -1.2212   -1.9257 H   0  0  0  0  0  0  0  0  0  0  0  0
    2.2957    3.0888   -0.3208 H   0  0  0  0  0  0  0  0  0  0  0  0
    3.8822    4.5270    0.9331 H   0  0  0  0  0  0  0  0  0  0  0  0
  1  2  1  0
  2  3  2  0
  3  4  1  0
  4  5  2  0
  5  6  1  0
  6  7  1  0
  7  8  1  0
  8  9  1  0
  9 10  1  0
 10 11  1  0
 11 12  2  0
 12 13  1  0
 13 14  2  0
 14 15  1  0
 15 16  1  0
 16 17  1  0
 17 18  2  0
 18 19  1  0
 19 20  2  0
 20 21  1  0
 21 22  2  0
 22 23  1  0
 23 24  2  0
 18 25  1  0
 10 26  1  0
 26 27  1  0
  5 28  1  0
 28 29  2  0
 29  2  1  0
 27  7  1  0
 25 11  1  0
 25 15  2  0
 24 19  1  0
  3 30  1  0
  4 31  1  0
  6 32  1  0
  6 33  1  0
  8 34  1  0
  8 35  1  0
  9 36  1  0
  9 37  1  0
 13 38  1  0
 17 39  1  0
 20 40  1  0
 21 41  1  0
 22 42  1  0
 23 43  1  0
 24 44  1  0
 26 45  1  0
 26 46  1  0
 27 47  1  0
 27 48  1  0
 28 49  1  0
 29 50  1  0
M  END
$$$$
