
     RDKit          3D

 52 55  0  0  0  0  0  0  0  0999 V2000
   -7.5727   -1.8433   -2.2310 C   0  0  0  0  0  0  0  0  0  0  0  0
   -6.2864   -2.3406   -2.5892 O   0  0  0  0  0  0  0  0  0  0  0  0
   -5.3247   -2.3253   -1.6181 C   0  0  0  0  0  0  0  0  0  0  0  0
   -4.1038   -2.8912   -1.9960 C   0  0  0  0  0  0  0  0  0  0  0  0
   -3.0321   -2.9415   -1.1009 C   0  0  0  0  0  0  0  0  0  0  0  0
   -3.1659   -2.4110    0.1856 C   0  0  0  0  0  0  0  0  0  0  0  0
   -2.0650   -2.4561    1.1544 C   0  0  0  0  0  0  0  0  0  0  0  0
   -0.8691   -1.8614    1.0282 C   0  0  0  0  0  0  0  0  0  0  0  0
   -0.3137   -0.9093   -0.2860 S   0  0  0  0  0  0  0  0  0  0  0  0
    1.1504   -0.4568    0.5723 C   0  0  0  0  0  0  0  0  0  0  0  0
    1.9085    0.5833    0.1543 C   0  0  0  0  0  0  0  0  0  0  0  0
    2.9415    1.2078    0.9007 C   0  0  0  0  0  0  0  0  0  0  0  0
    3.7605    1.7710    1.5001 N   0  0  0  0  0  0  0  0  0  0  0  0
    1.6166    1.2228   -1.1556 C   0  0  0  0  0  0  0  0  0  0  0  0
    1.9255    0.6717   -2.2056 O   0  0  0  0  0  0  0  0  0  0  0  0
    0.9997    2.4472   -1.0699 N   0  0  0  0  0  0  0  0  0  0  0  0
    0.7777    3.2560   -2.2488 C   0  0  0  0  0  0  0  0  0  0  0  0
    1.9338    4.1698   -2.4058 C   0  0  0  0  0  0  0  0  0  0  0  0
    3.0665    4.1344   -3.1929 C   0  0  0  0  0  0  0  0  0  0  0  0
    3.8123    5.2947   -2.8711 C   0  0  0  0  0  0  0  0  0  0  0  0
    3.0897    5.9611   -1.9094 C   0  0  0  0  0  0  0  0  0  0  0  0
    1.9463    5.2863   -1.6188 O   0  0  0  0  0  0  0  0  0  0  0  0
    1.2871   -1.2064    1.7484 N   0  0  0  0  0  0  0  0  0  0  0  0
    2.4894   -1.3892    2.5055 C   0  0  0  0  0  0  0  0  0  0  0  0
    3.7174   -1.5960    1.8569 C   0  0  0  0  0  0  0  0  0  0  0  0
    4.8888   -1.7926    2.5937 C   0  0  0  0  0  0  0  0  0  0  0  0
    4.8457   -1.7982    3.9853 C   0  0  0  0  0  0  0  0  0  0  0  0
    3.6314   -1.6193    4.6419 C   0  0  0  0  0  0  0  0  0  0  0  0
    2.4596   -1.4239    3.9065 C   0  0  0  0  0  0  0  0  0  0  0  0
    0.1621   -1.9827    2.0934 C   0  0  0  0  0  0  0  0  0  0  0  0
    0.0038   -2.6951    3.0773 O   0  0  0  0  0  0  0  0  0  0  0  0
   -4.3925   -1.8545    0.5676 C   0  0  0  0  0  0  0  0  0  0  0  0
   -5.4660   -1.8070   -0.3307 C   0  0  0  0  0  0  0  0  0  0  0  0
   -7.5298   -0.7740   -1.9873 H   0  0  0  0  0  0  0  0  0  0  0  0
   -8.2293   -1.9606   -3.0989 H   0  0  0  0  0  0  0  0  0  0  0  0
   -8.0058   -2.4229   -1.4069 H   0  0  0  0  0  0  0  0  0  0  0  0
   -3.9856   -3.3003   -2.9968 H   0  0  0  0  0  0  0  0  0  0  0  0
   -2.0982   -3.3982   -1.4214 H   0  0  0  0  0  0  0  0  0  0  0  0
   -2.2893   -3.0216    2.0586 H   0  0  0  0  0  0  0  0  0  0  0  0
    0.9086    2.9192   -0.1820 H   0  0  0  0  0  0  0  0  0  0  0  0
    0.6543    2.6213   -3.1314 H   0  0  0  0  0  0  0  0  0  0  0  0
   -0.1451    3.8221   -2.0943 H   0  0  0  0  0  0  0  0  0  0  0  0
    3.3198    3.3580   -3.9020 H   0  0  0  0  0  0  0  0  0  0  0  0
    4.7621    5.6039   -3.2852 H   0  0  0  0  0  0  0  0  0  0  0  0
    3.2421    6.8793   -1.3584 H   0  0  0  0  0  0  0  0  0  0  0  0
    3.7822   -1.6425    0.7726 H   0  0  0  0  0  0  0  0  0  0  0  0
    5.8340   -1.9478    2.0797 H   0  0  0  0  0  0  0  0  0  0  0  0
    5.7564   -1.9487    4.5583 H   0  0  0  0  0  0  0  0  0  0  0  0
    3.5927   -1.6325    5.7285 H   0  0  0  0  0  0  0  0  0  0  0  0
    1.5277   -1.2827    4.4491 H   0  0  0  0  0  0  0  0  0  0  0  0
   -4.5246   -1.4460    1.5676 H   0  0  0  0  0  0  0  0  0  0  0  0
   -6.3950   -1.3580    0.0080 H   0  0  0  0  0  0  0  0  0  0  0  0
  1  2  1  0
  2  3  1  0
  3  4  2  0
  4  5  1  0
  5  6  2  0
  6  7  1  0
  7  8  2  3
  8  9  1  0
  9 10  1  0
 10 11  2  3
 11 12  1  0
 12 13  3  0
 11 14  1  0
 14 15  2  0
 14 16  1  0
 16 17  1  0
 17 18  1  0
 18 19  2  0
 19 20  1  0
 20 21  2  0
 21 22  1  0
 10 23  1  0
 23 24  1  0
 24 25  2  0
 25 26  1  0
 26 27  2  0
 27 28  1  0
 28 29  2  0
 23 30  1  0
 30 31  2  0
  6 32  1  0
 32 33  2  0
 33  3  1  0
 30  8  1  0
 22 18  1  0
 29 24  1  0
  1 34  1  0
  1 35  1  0
  1 36  1  0
  4 37  1  0
  5 38  1  0
  7 39  1  0
 16 40  1  0
 17 41  1  0
 17 42  1  0
 19 43  1  0
 20 44  1  0
 21 45  1  0
 25 46  1  0
 26 47  1  0
 27 48  1  0
 28 49  1  0
 29 50  1  0
 32 51  1  0
 33 52  1  0
M  END
$$$$
