
     RDKit          3D

 36 38  0  0  0  0  0  0  0  0999 V2000
    6.0579   -0.6585   -3.6658 Br  0  0  0  0  0  0  0  0  0  0  0  0
    4.8568   -0.6127   -2.2075 C   0  0  0  0  0  0  0  0  0  0  0  0
    3.4998   -0.8384   -2.4213 C   0  0  0  0  0  0  0  0  0  0  0  0
    2.6141   -0.8024   -1.3402 C   0  0  0  0  0  0  0  0  0  0  0  0
    3.0757   -0.5465   -0.0394 C   0  0  0  0  0  0  0  0  0  0  0  0
    2.1205   -0.5140    1.0638 C   0  0  0  0  0  0  0  0  0  0  0  0
    2.4346   -0.7839    2.3793 C   0  0  0  0  0  0  0  0  0  0  0  0
    1.0338   -0.6583    3.3548 S   0  0  0  0  0  0  0  0  0  0  0  0
    0.0937   -0.2462    1.9625 C   0  0  0  0  0  0  0  0  0  0  0  0
   -1.2325   -0.0205    2.1396 N   0  0  0  0  0  0  0  0  0  0  0  0
   -1.8797    0.6525    1.2402 C   0  0  0  0  0  0  0  0  0  0  0  0
   -3.3768    0.8227    1.4853 C   0  0  0  0  0  0  0  0  0  0  0  0
   -4.2478    0.0099    0.5202 C   0  0  0  0  0  0  0  0  0  0  0  0
   -3.5437   -0.5868   -0.7005 C   0  0  0  0  0  0  0  0  0  0  0  0
   -2.9155    0.4210   -1.6692 C   0  0  0  0  0  0  0  0  0  0  0  0
   -2.1946    1.6082   -1.0371 C   0  0  0  0  0  0  0  0  0  0  0  0
   -1.3741    1.2083    0.0826 N   0  0  0  0  0  0  0  0  0  0  0  0
    0.7846   -0.2217    0.8364 N   0  0  0  0  0  0  0  0  0  0  0  0
    4.4458   -0.3160    0.1551 C   0  0  0  0  0  0  0  0  0  0  0  0
    5.3343   -0.3502   -0.9254 C   0  0  0  0  0  0  0  0  0  0  0  0
    3.1196   -1.0427   -3.4185 H   0  0  0  0  0  0  0  0  0  0  0  0
    1.5554   -0.9836   -1.5182 H   0  0  0  0  0  0  0  0  0  0  0  0
    3.3834   -1.0568    2.8164 H   0  0  0  0  0  0  0  0  0  0  0  0
   -3.6147    0.5425    2.5187 H   0  0  0  0  0  0  0  0  0  0  0  0
   -3.6183    1.8890    1.4001 H   0  0  0  0  0  0  0  0  0  0  0  0
   -4.6956   -0.8189    1.0838 H   0  0  0  0  0  0  0  0  0  0  0  0
   -5.0902    0.6310    0.1912 H   0  0  0  0  0  0  0  0  0  0  0  0
   -4.2656   -1.1951   -1.2603 H   0  0  0  0  0  0  0  0  0  0  0  0
   -2.7728   -1.2915   -0.3629 H   0  0  0  0  0  0  0  0  0  0  0  0
   -2.2123   -0.1249   -2.3114 H   0  0  0  0  0  0  0  0  0  0  0  0
   -3.6942    0.8104   -2.3368 H   0  0  0  0  0  0  0  0  0  0  0  0
   -1.5616    2.0904   -1.7905 H   0  0  0  0  0  0  0  0  0  0  0  0
   -2.9184    2.3689   -0.7236 H   0  0  0  0  0  0  0  0  0  0  0  0
   -0.4361    0.8727   -0.1497 H   0  0  0  0  0  0  0  0  0  0  0  0
    4.8424   -0.0913    1.1420 H   0  0  0  0  0  0  0  0  0  0  0  0
    6.3920   -0.1666   -0.7552 H   0  0  0  0  0  0  0  0  0  0  0  0
  1  2  1  0
  2  3  2  0
  3  4  1  0
  4  5  2  0
  5  6  1  0
  6  7  2  0
  7  8  1  0
  8  9  1  0
  9 10  1  0
 10 11  2  3
 11 12  1  0
 12 13  1  0
 13 14  1  0
 14 15  1  0
 15 16  1  0
 16 17  1  0
  9 18  2  0
  5 19  1  0
 19 20  2  0
 20  2  1  0
 18  6  1  0
 17 11  1  0
  3 21  1  0
  4 22  1  0
  7 23  1  0
 12 24  1  0
 12 25  1  0
 13 26  1  0
 13 27  1  0
 14 28  1  0
 14 29  1  0
 15 30  1  0
 15 31  1  0
 16 32  1  0
 16 33  1  0
 17 34  1  0
 19 35  1  0
 20 36  1  0
M  END
$$$$
