
     RDKit          3D

 45 47  0  0  0  0  0  0  0  0999 V2000
    7.5947   -0.9318    0.7636 C   0  0  0  0  0  0  0  0  0  0  0  0
    7.1630    0.4331    0.2563 C   0  0  0  0  0  0  0  0  0  0  0  0
    6.0945    0.9512    1.0463 O   0  0  0  0  0  0  0  0  0  0  0  0
    4.8082    0.6776    0.6787 C   0  0  0  0  0  0  0  0  0  0  0  0
    4.4005   -0.2011   -0.3213 C   0  0  0  0  0  0  0  0  0  0  0  0
    3.0361   -0.3865   -0.5833 C   0  0  0  0  0  0  0  0  0  0  0  0
    2.0619    0.3028    0.1485 C   0  0  0  0  0  0  0  0  0  0  0  0
    0.7138    0.0521   -0.1724 N   0  0  0  0  0  0  0  0  0  0  0  0
   -0.4016    0.6982    0.3145 C   0  0  0  0  0  0  0  0  0  0  0  0
   -0.4233    1.6686    1.0587 O   0  0  0  0  0  0  0  0  0  0  0  0
   -1.5508    0.1091   -0.1709 N   0  0  0  0  0  0  0  0  0  0  0  0
   -2.8652    0.5974    0.2320 C   0  0  0  0  0  0  0  0  0  0  0  0
   -3.2418    1.8725   -0.5402 C   0  0  0  0  0  0  0  0  0  0  0  0
   -3.6002    1.5472   -1.9872 C   0  0  0  0  0  0  0  0  0  0  0  0
   -4.8211    0.6332   -2.0461 C   0  0  0  0  0  0  0  0  0  0  0  0
   -4.7675   -0.5137   -1.0665 C   0  0  0  0  0  0  0  0  0  0  0  0
   -5.6702   -1.5774   -1.2206 C   0  0  0  0  0  0  0  0  0  0  0  0
   -5.6900   -2.6332   -0.3096 C   0  0  0  0  0  0  0  0  0  0  0  0
   -4.8149   -2.6349    0.7721 C   0  0  0  0  0  0  0  0  0  0  0  0
   -3.9186   -1.5808    0.9422 C   0  0  0  0  0  0  0  0  0  0  0  0
   -3.8864   -0.5093    0.0315 C   0  0  0  0  0  0  0  0  0  0  0  0
    2.4734    1.1728    1.1558 C   0  0  0  0  0  0  0  0  0  0  0  0
    3.8366    1.3560    1.4165 C   0  0  0  0  0  0  0  0  0  0  0  0
    6.7879   -1.6654    0.6759 H   0  0  0  0  0  0  0  0  0  0  0  0
    7.8607   -0.8792    1.8246 H   0  0  0  0  0  0  0  0  0  0  0  0
    8.4596   -1.2967    0.2023 H   0  0  0  0  0  0  0  0  0  0  0  0
    8.0023    1.1275    0.3779 H   0  0  0  0  0  0  0  0  0  0  0  0
    6.9318    0.4277   -0.8146 H   0  0  0  0  0  0  0  0  0  0  0  0
    5.1115   -0.7672   -0.9124 H   0  0  0  0  0  0  0  0  0  0  0  0
    2.7510   -1.0802   -1.3699 H   0  0  0  0  0  0  0  0  0  0  0  0
    0.5417   -0.5781   -0.9405 H   0  0  0  0  0  0  0  0  0  0  0  0
   -1.4890   -0.8781   -0.3685 H   0  0  0  0  0  0  0  0  0  0  0  0
   -2.8242    0.8493    1.2999 H   0  0  0  0  0  0  0  0  0  0  0  0
   -2.4224    2.5998   -0.5201 H   0  0  0  0  0  0  0  0  0  0  0  0
   -4.1039    2.3517   -0.0577 H   0  0  0  0  0  0  0  0  0  0  0  0
   -2.7488    1.0655   -2.4838 H   0  0  0  0  0  0  0  0  0  0  0  0
   -3.8078    2.4704   -2.5401 H   0  0  0  0  0  0  0  0  0  0  0  0
   -4.9228    0.2468   -3.0673 H   0  0  0  0  0  0  0  0  0  0  0  0
   -5.7205    1.2220   -1.8252 H   0  0  0  0  0  0  0  0  0  0  0  0
   -6.3703   -1.5838   -2.0536 H   0  0  0  0  0  0  0  0  0  0  0  0
   -6.3945   -3.4503   -0.4409 H   0  0  0  0  0  0  0  0  0  0  0  0
   -4.8330   -3.4545    1.4857 H   0  0  0  0  0  0  0  0  0  0  0  0
   -3.2411   -1.5933    1.7944 H   0  0  0  0  0  0  0  0  0  0  0  0
    1.7614    1.7227    1.7632 H   0  0  0  0  0  0  0  0  0  0  0  0
    4.1396    2.0397    2.2062 H   0  0  0  0  0  0  0  0  0  0  0  0
  1  2  1  0
  2  3  1  0
  3  4  1  0
  4  5  2  0
  5  6  1  0
  6  7  2  0
  7  8  1  0
  8  9  1  0
  9 10  2  0
  9 11  1  0
 11 12  1  0
 12 13  1  0
 13 14  1  0
 14 15  1  0
 15 16  1  0
 16 17  2  0
 17 18  1  0
 18 19  2  0
 19 20  1  0
 20 21  2  0
  7 22  1  0
 22 23  2  0
 23  4  1  0
 21 12  1  0
 21 16  1  0
  1 24  1  0
  1 25  1  0
  1 26  1  0
  2 27  1  0
  2 28  1  0
  5 29  1  0
  6 30  1  0
  8 31  1  0
 11 32  1  0
 12 33  1  0
 13 34  1  0
 13 35  1  0
 14 36  1  0
 14 37  1  0
 15 38  1  0
 15 39  1  0
 17 40  1  0
 18 41  1  0
 19 42  1  0
 20 43  1  0
 22 44  1  0
 23 45  1  0
M  END
$$$$
