
     RDKit          3D

 72 76  0  0  0  0  0  0  0  0999 V2000
    8.4090   -0.4055    0.4646 C   0  0  0  0  0  0  0  0  0  0  0  0
    7.7553   -0.4015    1.8509 C   0  0  0  0  0  0  0  0  0  0  0  0
    8.4263   -1.4826    2.7122 C   0  0  0  0  0  0  0  0  0  0  0  0
    7.9124    0.9512    2.5548 C   0  0  0  0  0  0  0  0  0  0  0  0
    6.3621   -0.8002    1.7797 O   0  0  0  0  0  0  0  0  0  0  0  0
    5.4685   -0.0596    1.0857 C   0  0  0  0  0  0  0  0  0  0  0  0
    5.7021    0.9704    0.4751 O   0  0  0  0  0  0  0  0  0  0  0  0
    4.2455   -0.6496    1.1864 N   0  0  0  0  0  0  0  0  0  0  0  0
    3.0487   -0.0823    0.6108 C   0  0  0  0  0  0  0  0  0  0  0  0
    2.4488    0.9947    1.5144 C   0  0  0  0  0  0  0  0  0  0  0  0
    1.2159    1.6723    0.9097 C   0  0  0  0  0  0  0  0  0  0  0  0
    0.0013    0.7413    0.8209 C   0  0  0  0  0  0  0  0  0  0  0  0
   -1.2589    1.4588    0.3162 C   0  0  1  0  0  0  0  0  0  0  0  0
   -1.0998    1.9400   -1.1022 N   0  0  0  0  0  0  0  0  0  0  0  0
   -2.3288    1.5716   -1.8850 C   0  0  0  0  0  0  0  0  0  0  0  0
   -1.9641    0.9781   -3.2736 C   0  0  0  0  0  0  0  0  0  0  0  0
   -1.1794    0.0737   -3.5186 O   0  0  0  0  0  0  0  0  0  0  0  0
   -2.6819    1.7015   -4.2268 N   0  0  0  0  0  0  0  0  0  0  0  0
   -3.4044    2.7303   -3.6354 C   0  0  0  0  0  0  0  0  0  0  0  0
   -4.1849    3.6682   -4.2782 C   0  0  0  0  0  0  0  0  0  0  0  0
   -4.8144    4.6303   -3.4853 C   0  0  0  0  0  0  0  0  0  0  0  0
   -4.6465    4.6347   -2.0884 C   0  0  0  0  0  0  0  0  0  0  0  0
   -3.8477    3.6752   -1.4587 C   0  0  0  0  0  0  0  0  0  0  0  0
   -3.2307    2.7162   -2.2469 C   0  0  0  0  0  0  0  0  0  0  0  0
   -3.0634    0.6520   -1.0055 C   0  0  0  0  0  0  0  0  0  0  0  0
   -2.4480    0.5813    0.2491 C   0  0  0  0  0  0  0  0  0  0  0  0
   -3.1782   -0.2624    1.0445 C   0  0  0  0  0  0  0  0  0  0  0  0
   -3.0497   -0.6281    2.3135 O   0  0  0  0  0  0  0  0  0  0  0  0
   -4.2063   -0.7533    0.2535 N   0  0  0  0  0  0  0  0  0  0  0  0
   -5.2193   -1.7026    0.6967 C   0  0  0  0  0  0  0  0  0  0  0  0
   -4.7815   -3.1300    0.4753 C   0  0  0  0  0  0  0  0  0  0  0  0
   -4.1390   -3.8457    1.4961 C   0  0  0  0  0  0  0  0  0  0  0  0
   -3.7260   -5.1626    1.2874 C   0  0  0  0  0  0  0  0  0  0  0  0
   -3.9457   -5.7760    0.0556 C   0  0  0  0  0  0  0  0  0  0  0  0
   -4.5748   -5.0726   -0.9698 C   0  0  0  0  0  0  0  0  0  0  0  0
   -4.9889   -3.7560   -0.7625 C   0  0  0  0  0  0  0  0  0  0  0  0
   -4.1685   -0.1591   -0.9984 C   0  0  0  0  0  0  0  0  0  0  0  0
   -5.0939   -0.4154   -1.9147 O   0  0  0  0  0  0  0  0  0  0  0  0
    8.2117   -1.3497   -0.0555 H   0  0  0  0  0  0  0  0  0  0  0  0
    9.4932   -0.2662    0.5352 H   0  0  0  0  0  0  0  0  0  0  0  0
    8.0183    0.3921   -0.1744 H   0  0  0  0  0  0  0  0  0  0  0  0
    8.3025   -2.4736    2.2602 H   0  0  0  0  0  0  0  0  0  0  0  0
    7.9610   -1.5349    3.7036 H   0  0  0  0  0  0  0  0  0  0  0  0
    9.4970   -1.2931    2.8423 H   0  0  0  0  0  0  0  0  0  0  0  0
    8.9652    1.1740    2.7592 H   0  0  0  0  0  0  0  0  0  0  0  0
    7.3628    0.9623    3.5028 H   0  0  0  0  0  0  0  0  0  0  0  0
    7.5155    1.7741    1.9528 H   0  0  0  0  0  0  0  0  0  0  0  0
    4.1967   -1.4705    1.7728 H   0  0  0  0  0  0  0  0  0  0  0  0
    2.3485   -0.9099    0.4645 H   0  0  0  0  0  0  0  0  0  0  0  0
    3.2950    0.3387   -0.3704 H   0  0  0  0  0  0  0  0  0  0  0  0
    2.1978    0.5635    2.4916 H   0  0  0  0  0  0  0  0  0  0  0  0
    3.2045    1.7670    1.7066 H   0  0  0  0  0  0  0  0  0  0  0  0
    1.4699    2.0679   -0.0804 H   0  0  0  0  0  0  0  0  0  0  0  0
    0.9556    2.5334    1.5377 H   0  0  0  0  0  0  0  0  0  0  0  0
    0.2266   -0.1127    0.1697 H   0  0  0  0  0  0  0  0  0  0  0  0
   -0.1945    0.3221    1.8160 H   0  0  0  0  0  0  0  0  0  0  0  0
   -1.4812    2.3262    0.9492 H   0  0  0  0  0  0  0  0  0  0  0  0
   -0.3526    1.3797   -1.5201 H   0  0  0  0  0  0  0  0  0  0  0  0
   -2.5948    1.5346   -5.2182 H   0  0  0  0  0  0  0  0  0  0  0  0
   -4.3074    3.6709   -5.3551 H   0  0  0  0  0  0  0  0  0  0  0  0
   -5.4381    5.3905   -3.9509 H   0  0  0  0  0  0  0  0  0  0  0  0
   -5.1423    5.3969   -1.4907 H   0  0  0  0  0  0  0  0  0  0  0  0
   -3.7162    3.6822   -0.3811 H   0  0  0  0  0  0  0  0  0  0  0  0
   -2.2734   -0.1668    2.6736 H   0  0  0  0  0  0  0  0  0  0  0  0
   -5.4264   -1.5127    1.7565 H   0  0  0  0  0  0  0  0  0  0  0  0
   -6.1517   -1.4937    0.1596 H   0  0  0  0  0  0  0  0  0  0  0  0
   -3.9496   -3.3736    2.4581 H   0  0  0  0  0  0  0  0  0  0  0  0
   -3.2278   -5.7072    2.0848 H   0  0  0  0  0  0  0  0  0  0  0  0
   -3.6204   -6.7998   -0.1080 H   0  0  0  0  0  0  0  0  0  0  0  0
   -4.7378   -5.5460   -1.9342 H   0  0  0  0  0  0  0  0  0  0  0  0
   -5.4673   -3.2132   -1.5756 H   0  0  0  0  0  0  0  0  0  0  0  0
   -4.9119    0.1508   -2.6854 H   0  0  0  0  0  0  0  0  0  0  0  0
  1  2  1  0
  2  3  1  0
  2  4  1  0
  2  5  1  0
  5  6  1  0
  6  7  2  0
  6  8  1  0
  8  9  1  0
  9 10  1  0
 10 11  1  0
 11 12  1  0
 12 13  1  0
 13 14  1  0
 14 15  1  0
 15 16  1  0
 16 17  2  0
 16 18  1  0
 18 19  1  0
 19 20  2  0
 20 21  1  0
 21 22  2  0
 22 23  1  0
 23 24  2  0
 15 25  1  0
 25 26  1  0
 26 27  2  0
 27 28  1  0
 27 29  1  0
 29 30  1  0
 30 31  1  0
 31 32  2  0
 32 33  1  0
 33 34  2  0
 34 35  1  0
 35 36  2  0
 29 37  1  0
 37 38  1  0
 26 13  1  0
 36 31  1  0
 24 15  1  0
 37 25  2  0
 24 19  1  0
  1 39  1  0
  1 40  1  0
  1 41  1  0
  3 42  1  0
  3 43  1  0
  3 44  1  0
  4 45  1  0
  4 46  1  0
  4 47  1  0
  8 48  1  0
  9 49  1  0
  9 50  1  0
 10 51  1  0
 10 52  1  0
 11 53  1  0
 11 54  1  0
 12 55  1  0
 12 56  1  0
 13 57  1  1
 14 58  1  0
 18 59  1  0
 20 60  1  0
 21 61  1  0
 22 62  1  0
 23 63  1  0
 28 64  1  0
 30 65  1  0
 30 66  1  0
 32 67  1  0
 33 68  1  0
 34 69  1  0
 35 70  1  0
 36 71  1  0
 38 72  1  0
M  END
$$$$
