
     RDKit          3D

 54 59  0  0  0  0  0  0  0  0999 V2000
    4.4704   -2.3582   -1.5936 C   0  0  0  0  0  0  0  0  0  0  0  0
    4.8040   -1.0301   -0.9708 C   0  0  0  0  0  0  0  0  0  0  0  0
    5.5821   -0.1048   -1.6832 C   0  0  0  0  0  0  0  0  0  0  0  0
    5.8956    1.1329   -1.1262 C   0  0  0  0  0  0  0  0  0  0  0  0
    5.4347    1.4552    0.1463 C   0  0  0  0  0  0  0  0  0  0  0  0
    4.6592    0.5421    0.8661 C   0  0  0  0  0  0  0  0  0  0  0  0
    4.3361   -0.7016    0.3159 C   0  0  0  0  0  0  0  0  0  0  0  0
    3.5912   -1.6709    0.9334 O   0  0  0  0  0  0  0  0  0  0  0  0
    2.9295   -1.3624    2.1675 C   0  0  0  0  0  0  0  0  0  0  0  0
    1.7010   -0.5249    2.0022 C   0  0  0  0  0  0  0  0  0  0  0  0
    0.6209   -0.9431    1.2546 N   0  0  0  0  0  0  0  0  0  0  0  0
   -0.2222    0.0635    1.3362 C   0  0  0  0  0  0  0  0  0  0  0  0
   -1.5184    0.3279    0.7865 C   0  0  0  0  0  0  0  0  0  0  0  0
   -2.0478    1.5528    1.0853 C   0  0  0  0  0  0  0  0  0  0  0  0
   -1.4395    2.5086    1.8986 N   0  0  0  0  0  0  0  0  0  0  0  0
   -0.2702    2.2365    2.3927 C   0  0  0  0  0  0  0  0  0  0  0  0
    0.3371    1.0330    2.1142 N   0  0  0  0  0  0  0  0  0  0  0  0
    1.5515    0.6805    2.5787 N   0  0  0  0  0  0  0  0  0  0  0  0
   -3.3513    1.9532    0.4833 C   0  0  0  0  0  0  0  0  0  0  0  0
   -3.7668    3.2952    0.4744 C   0  0  0  0  0  0  0  0  0  0  0  0
   -4.9926    3.6678   -0.0825 C   0  0  0  0  0  0  0  0  0  0  0  0
   -5.8276    2.7017   -0.6336 C   0  0  0  0  0  0  0  0  0  0  0  0
   -5.4364    1.3649   -0.6295 C   0  0  0  0  0  0  0  0  0  0  0  0
   -4.1989    0.9901   -0.0840 C   0  0  0  0  0  0  0  0  0  0  0  0
   -3.7989   -0.4565   -0.0395 C   0  0  0  0  0  0  0  0  0  0  0  0
   -2.2657   -0.6613   -0.1352 C   0  0  0  0  0  0  0  0  0  0  0  0
   -1.7652   -0.4723   -1.5965 C   0  0  0  0  0  0  0  0  0  0  0  0
   -1.6328   -1.8760   -2.1707 C   0  0  0  0  0  0  0  0  0  0  0  0
   -1.1423   -2.6861   -0.9868 C   0  0  0  0  0  0  0  0  0  0  0  0
   -1.9931   -2.1687    0.1672 C   0  0  0  0  0  0  0  0  0  0  0  0
    4.8613   -3.1748   -0.9780 H   0  0  0  0  0  0  0  0  0  0  0  0
    3.3858   -2.4663   -1.6969 H   0  0  0  0  0  0  0  0  0  0  0  0
    4.9101   -2.4560   -2.5917 H   0  0  0  0  0  0  0  0  0  0  0  0
    5.9469   -0.3450   -2.6792 H   0  0  0  0  0  0  0  0  0  0  0  0
    6.4981    1.8443   -1.6847 H   0  0  0  0  0  0  0  0  0  0  0  0
    5.6782    2.4204    0.5830 H   0  0  0  0  0  0  0  0  0  0  0  0
    4.3267    0.8414    1.8542 H   0  0  0  0  0  0  0  0  0  0  0  0
    3.6307   -0.9419    2.8978 H   0  0  0  0  0  0  0  0  0  0  0  0
    2.6141   -2.3246    2.5888 H   0  0  0  0  0  0  0  0  0  0  0  0
    0.2570    2.9560    3.0380 H   0  0  0  0  0  0  0  0  0  0  0  0
   -3.1332    4.0682    0.9043 H   0  0  0  0  0  0  0  0  0  0  0  0
   -5.2932    4.7121   -0.0793 H   0  0  0  0  0  0  0  0  0  0  0  0
   -6.7848    2.9885   -1.0610 H   0  0  0  0  0  0  0  0  0  0  0  0
   -6.1013    0.6151   -1.0521 H   0  0  0  0  0  0  0  0  0  0  0  0
   -4.1755   -0.8672    0.9077 H   0  0  0  0  0  0  0  0  0  0  0  0
   -4.2974   -1.0063   -0.8487 H   0  0  0  0  0  0  0  0  0  0  0  0
   -0.7796    0.0109   -1.6212 H   0  0  0  0  0  0  0  0  0  0  0  0
   -2.4358    0.1407   -2.2080 H   0  0  0  0  0  0  0  0  0  0  0  0
   -0.9400   -1.9135   -3.0162 H   0  0  0  0  0  0  0  0  0  0  0  0
   -2.6086   -2.2433   -2.5094 H   0  0  0  0  0  0  0  0  0  0  0  0
   -1.2674   -3.7619   -1.1406 H   0  0  0  0  0  0  0  0  0  0  0  0
   -0.0798   -2.4909   -0.8057 H   0  0  0  0  0  0  0  0  0  0  0  0
   -2.9313   -2.7398    0.1753 H   0  0  0  0  0  0  0  0  0  0  0  0
   -1.5243   -2.3552    1.1377 H   0  0  0  0  0  0  0  0  0  0  0  0
  1  2  1  0
  2  3  2  0
  3  4  1  0
  4  5  2  0
  5  6  1  0
  6  7  2  0
  7  8  1  0
  8  9  1  0
  9 10  1  0
 10 11  1  0
 11 12  2  0
 12 13  1  0
 13 14  2  0
 14 15  1  0
 15 16  2  0
 16 17  1  0
 17 18  1  0
 14 19  1  0
 19 20  2  0
 20 21  1  0
 21 22  2  0
 22 23  1  0
 23 24  2  0
 24 25  1  0
 25 26  1  0
 26 27  1  0
 27 28  1  0
 28 29  1  0
 29 30  1  0
  7  2  1  0
 18 10  2  0
 24 19  1  0
 30 26  1  0
 17 12  1  0
 26 13  1  0
  1 31  1  0
  1 32  1  0
  1 33  1  0
  3 34  1  0
  4 35  1  0
  5 36  1  0
  6 37  1  0
  9 38  1  0
  9 39  1  0
 16 40  1  0
 20 41  1  0
 21 42  1  0
 22 43  1  0
 23 44  1  0
 25 45  1  0
 25 46  1  0
 27 47  1  0
 27 48  1  0
 28 49  1  0
 28 50  1  0
 29 51  1  0
 29 52  1  0
 30 53  1  0
 30 54  1  0
M  END
$$$$
