
     RDKit          3D

 53 56  0  0  0  0  0  0  0  0999 V2000
    6.4674    1.1496   -2.1348 C   0  0  0  0  0  0  0  0  0  0  0  0
    6.6018    0.0979   -1.1841 O   0  0  0  0  0  0  0  0  0  0  0  0
    5.5925    0.1255   -0.1714 C   0  0  0  0  0  0  0  0  0  0  0  0
    4.3038   -0.5384   -0.6517 C   0  0  0  0  0  0  0  0  0  0  0  0
    3.2411   -0.4852    0.3424 N   0  0  0  0  0  0  0  0  0  0  0  0
    2.9984   -1.4611    1.2825 C   0  0  0  0  0  0  0  0  0  0  0  0
    3.8185   -2.6948    1.4410 C   0  0  0  0  0  0  0  0  0  0  0  0
    1.8877   -1.0696    1.9960 C   0  0  0  0  0  0  0  0  0  0  0  0
    1.4156    0.1690    1.4746 C   0  0  0  0  0  0  0  0  0  0  0  0
    0.2143    0.8636    1.9727 C   0  0  0  0  0  0  0  0  0  0  0  0
   -0.1999    0.6189    3.1085 O   0  0  0  0  0  0  0  0  0  0  0  0
   -0.4828    1.8881    1.0927 C   0  0  0  0  0  0  0  0  0  0  0  0
   -2.3005    1.7775    1.1972 S   0  0  0  0  0  0  0  0  0  0  0  0
   -2.5731    0.2689    0.3105 C   0  0  0  0  0  0  0  0  0  0  0  0
   -1.5195   -0.5023   -0.0181 N   0  0  0  0  0  0  0  0  0  0  0  0
   -1.7313   -1.6442   -0.6949 C   0  0  0  0  0  0  0  0  0  0  0  0
   -0.5236   -2.4841   -0.9819 C   0  0  0  0  0  0  0  0  0  0  0  0
   -2.9140   -2.1016   -1.1182 N   0  0  0  0  0  0  0  0  0  0  0  0
   -3.9391   -1.3013   -0.7879 C   0  0  0  0  0  0  0  0  0  0  0  0
   -5.5407   -1.7106   -1.2660 S   0  0  0  0  0  0  0  0  0  0  0  0
   -6.1289   -0.3194   -0.5514 C   0  0  0  0  0  0  0  0  0  0  0  0
   -5.1708    0.4519    0.0469 C   0  0  0  0  0  0  0  0  0  0  0  0
   -3.8638   -0.1033   -0.0764 C   0  0  0  0  0  0  0  0  0  0  0  0
   -5.7714    1.6807    0.6316 C   0  0  0  0  0  0  0  0  0  0  0  0
   -7.3010    1.3747    0.5727 C   0  0  0  0  0  0  0  0  0  0  0  0
   -7.4974    0.2421   -0.4797 C   0  0  0  0  0  0  0  0  0  0  0  0
    2.3129    0.5387    0.4725 C   0  0  0  0  0  0  0  0  0  0  0  0
    2.3681    1.7740   -0.3636 C   0  0  0  0  0  0  0  0  0  0  0  0
    6.5543    2.1232   -1.6436 H   0  0  0  0  0  0  0  0  0  0  0  0
    7.2753    1.0534   -2.8660 H   0  0  0  0  0  0  0  0  0  0  0  0
    5.5118    1.0802   -2.6645 H   0  0  0  0  0  0  0  0  0  0  0  0
    5.4271    1.1523    0.1737 H   0  0  0  0  0  0  0  0  0  0  0  0
    5.9887   -0.4299    0.6846 H   0  0  0  0  0  0  0  0  0  0  0  0
    3.9237   -0.0811   -1.5703 H   0  0  0  0  0  0  0  0  0  0  0  0
    4.4894   -1.5875   -0.9114 H   0  0  0  0  0  0  0  0  0  0  0  0
    3.4846   -3.2711    2.3130 H   0  0  0  0  0  0  0  0  0  0  0  0
    4.8766   -2.4506    1.5869 H   0  0  0  0  0  0  0  0  0  0  0  0
    3.7202   -3.3374    0.5604 H   0  0  0  0  0  0  0  0  0  0  0  0
    1.4308   -1.6260    2.8064 H   0  0  0  0  0  0  0  0  0  0  0  0
   -0.1753    2.8834    1.4273 H   0  0  0  0  0  0  0  0  0  0  0  0
   -0.2093    1.7800    0.0429 H   0  0  0  0  0  0  0  0  0  0  0  0
   -0.1781   -2.9572   -0.0596 H   0  0  0  0  0  0  0  0  0  0  0  0
   -0.7526   -3.2671   -1.7102 H   0  0  0  0  0  0  0  0  0  0  0  0
    0.2804   -1.8625   -1.3851 H   0  0  0  0  0  0  0  0  0  0  0  0
   -5.4552    1.8647    1.6620 H   0  0  0  0  0  0  0  0  0  0  0  0
   -5.5334    2.5533    0.0142 H   0  0  0  0  0  0  0  0  0  0  0  0
   -7.6321    1.0120    1.5569 H   0  0  0  0  0  0  0  0  0  0  0  0
   -7.8910    2.2672    0.3366 H   0  0  0  0  0  0  0  0  0  0  0  0
   -8.2460   -0.4812   -0.1503 H   0  0  0  0  0  0  0  0  0  0  0  0
   -7.7891    0.6646   -1.4473 H   0  0  0  0  0  0  0  0  0  0  0  0
    2.0490    2.6443    0.2201 H   0  0  0  0  0  0  0  0  0  0  0  0
    1.7109    1.6696   -1.2350 H   0  0  0  0  0  0  0  0  0  0  0  0
    3.3749    1.9984   -0.7240 H   0  0  0  0  0  0  0  0  0  0  0  0
  1  2  1  0
  2  3  1  0
  3  4  1  0
  4  5  1  0
  5  6  1  0
  6  7  1  0
  6  8  2  0
  8  9  1  0
  9 10  1  0
 10 11  2  0
 10 12  1  0
 12 13  1  0
 13 14  1  0
 14 15  2  0
 15 16  1  0
 16 17  1  0
 16 18  2  0
 18 19  1  0
 19 20  1  0
 20 21  1  0
 21 22  2  0
 22 23  1  0
 22 24  1  0
 24 25  1  0
 25 26  1  0
  9 27  2  0
 27 28  1  0
 27  5  1  0
 23 14  1  0
 23 19  2  0
 26 21  1  0
  1 29  1  0
  1 30  1  0
  1 31  1  0
  3 32  1  0
  3 33  1  0
  4 34  1  0
  4 35  1  0
  7 36  1  0
  7 37  1  0
  7 38  1  0
  8 39  1  0
 12 40  1  0
 12 41  1  0
 17 42  1  0
 17 43  1  0
 17 44  1  0
 24 45  1  0
 24 46  1  0
 25 47  1  0
 25 48  1  0
 26 49  1  0
 26 50  1  0
 28 51  1  0
 28 52  1  0
 28 53  1  0
M  END
$$$$
