
     RDKit          3D

 38 40  0  0  0  0  0  0  0  0999 V2000
   -4.4823    1.4078   -0.4671 C   0  0  0  0  0  0  0  0  0  0  0  0
   -4.4292    0.1985    0.2783 O   0  0  0  0  0  0  0  0  0  0  0  0
   -3.1887   -0.3711    0.4325 C   0  0  0  0  0  0  0  0  0  0  0  0
   -1.9880    0.1023   -0.1006 C   0  0  0  0  0  0  0  0  0  0  0  0
   -0.7721   -0.5817    0.1268 C   0  0  0  0  0  0  0  0  0  0  0  0
   -0.7799   -1.7531    0.9149 C   0  0  0  0  0  0  0  0  0  0  0  0
   -1.9827   -2.2164    1.4637 C   0  0  0  0  0  0  0  0  0  0  0  0
   -3.1654   -1.5320    1.2094 C   0  0  0  0  0  0  0  0  0  0  0  0
   -4.3236   -2.0174    1.7565 O   0  0  0  0  0  0  0  0  0  0  0  0
    0.5028   -2.4829    1.2229 C   0  0  0  0  0  0  0  0  0  0  0  0
    1.5664   -2.1805    0.1744 C   0  0  0  0  0  0  0  0  0  0  0  0
    1.7222   -0.7375    0.0101 N   0  0  0  0  0  0  0  0  0  0  0  0
    2.9256   -0.1428    0.4131 C   0  0  0  0  0  0  0  0  0  0  0  0
    3.7644   -0.8158    1.0193 O   0  0  0  0  0  0  0  0  0  0  0  0
    3.2033    1.2592    0.1248 C   0  0  0  0  0  0  0  0  0  0  0  0
    4.2013    2.0759    0.6410 C   0  0  0  0  0  0  0  0  0  0  0  0
    4.0821    3.3330    0.0008 C   0  0  0  0  0  0  0  0  0  0  0  0
    3.0398    3.2092   -0.8857 C   0  0  0  0  0  0  0  0  0  0  0  0
    2.5059    1.9631   -0.8235 O   0  0  0  0  0  0  0  0  0  0  0  0
    0.5261   -0.0251   -0.4709 C   0  0  0  0  0  0  0  0  0  0  0  0
    0.4798   -0.0573   -2.0064 C   0  0  0  0  0  0  0  0  0  0  0  0
   -5.5293    1.7361   -0.4900 H   0  0  0  0  0  0  0  0  0  0  0  0
   -4.1578    1.2497   -1.5042 H   0  0  0  0  0  0  0  0  0  0  0  0
   -3.8918    2.1955    0.0179 H   0  0  0  0  0  0  0  0  0  0  0  0
   -1.9663    1.0098   -0.6963 H   0  0  0  0  0  0  0  0  0  0  0  0
   -2.0052   -3.1070    2.0869 H   0  0  0  0  0  0  0  0  0  0  0  0
   -5.0187   -1.3949    1.4664 H   0  0  0  0  0  0  0  0  0  0  0  0
    0.3254   -3.5634    1.2522 H   0  0  0  0  0  0  0  0  0  0  0  0
    0.8519   -2.1670    2.2131 H   0  0  0  0  0  0  0  0  0  0  0  0
    2.5086   -2.6611    0.4523 H   0  0  0  0  0  0  0  0  0  0  0  0
    1.2780   -2.5965   -0.7986 H   0  0  0  0  0  0  0  0  0  0  0  0
    4.9320    1.7728    1.3815 H   0  0  0  0  0  0  0  0  0  0  0  0
    4.6962    4.2100    0.1480 H   0  0  0  0  0  0  0  0  0  0  0  0
    2.5863    3.8751   -1.6060 H   0  0  0  0  0  0  0  0  0  0  0  0
    0.5757    1.0111   -0.1243 H   0  0  0  0  0  0  0  0  0  0  0  0
    1.4258    0.2832   -2.4412 H   0  0  0  0  0  0  0  0  0  0  0  0
    0.2994   -1.0732   -2.3829 H   0  0  0  0  0  0  0  0  0  0  0  0
   -0.3184    0.5845   -2.3986 H   0  0  0  0  0  0  0  0  0  0  0  0
  1  2  1  0
  2  3  1  0
  3  4  2  0
  4  5  1  0
  5  6  2  0
  6  7  1  0
  7  8  2  0
  8  9  1  0
  6 10  1  0
 10 11  1  0
 11 12  1  0
 12 13  1  0
 13 14  2  0
 13 15  1  0
 15 16  2  0
 16 17  1  0
 17 18  2  0
 18 19  1  0
 12 20  1  0
 20 21  1  0
  8  3  1  0
 19 15  1  0
 20  5  1  0
  1 22  1  0
  1 23  1  0
  1 24  1  0
  4 25  1  0
  7 26  1  0
  9 27  1  0
 10 28  1  0
 10 29  1  0
 11 30  1  0
 11 31  1  0
 16 32  1  0
 17 33  1  0
 18 34  1  0
 20 35  1  0
 21 36  1  0
 21 37  1  0
 21 38  1  0
M  END
$$$$
