
     RDKit          3D

 60 64  0  0  0  0  0  0  0  0999 V2000
    3.1274    0.2180    2.1859 O   0  0  0  0  0  0  0  0  0  0  0  0
    2.8429   -0.0505    1.0256 C   0  0  0  0  0  0  0  0  0  0  0  0
    3.7148   -0.2160   -0.0338 N   0  0  0  0  0  0  0  0  0  0  0  0
    5.1135   -0.0277   -0.0216 C   0  0  0  0  0  0  0  0  0  0  0  0
    5.8236    0.4787    1.0692 C   0  0  0  0  0  0  0  0  0  0  0  0
    7.2138    0.6411    1.0016 C   0  0  0  0  0  0  0  0  0  0  0  0
    7.9070    0.2958   -0.1610 C   0  0  0  0  0  0  0  0  0  0  0  0
    9.3813    0.4546   -0.2469 C   0  0  0  0  0  0  0  0  0  0  0  0
   10.0143    0.3476   -1.3903 N   0  0  0  0  0  0  0  0  0  0  0  0
   11.4445    0.5813   -1.0517 C   0  0  0  0  0  0  0  0  0  0  0  0
   11.5449    0.4911    0.4712 C   0  0  0  0  0  0  0  0  0  0  0  0
   10.1671    0.6933    0.8585 N   0  0  0  0  0  0  0  0  0  0  0  0
    7.2001   -0.1978   -1.2600 C   0  0  0  0  0  0  0  0  0  0  0  0
    5.8123   -0.3577   -1.1896 C   0  0  0  0  0  0  0  0  0  0  0  0
    1.4055   -0.2638    0.6976 C   0  0  0  0  0  0  0  0  0  0  0  0
    0.5809   -0.8609    1.6658 C   0  0  0  0  0  0  0  0  0  0  0  0
   -0.7765   -1.0801    1.4076 C   0  0  0  0  0  0  0  0  0  0  0  0
   -1.3232   -0.6784    0.1842 C   0  0  0  0  0  0  0  0  0  0  0  0
   -2.7307   -1.0125   -0.0873 C   0  0  0  0  0  0  0  0  0  0  0  0
   -2.9550   -2.1461   -0.4837 O   0  0  0  0  0  0  0  0  0  0  0  0
   -3.6161    0.0088    0.1753 N   0  0  0  0  0  0  0  0  0  0  0  0
   -5.0187   -0.0254    0.0284 C   0  0  0  0  0  0  0  0  0  0  0  0
   -5.7182    1.1575    0.2970 C   0  0  0  0  0  0  0  0  0  0  0  0
   -7.1108    1.2058    0.1766 C   0  0  0  0  0  0  0  0  0  0  0  0
   -7.8231    0.0684   -0.2113 C   0  0  0  0  0  0  0  0  0  0  0  0
   -9.3026    0.1329   -0.3301 C   0  0  0  0  0  0  0  0  0  0  0  0
   -9.9435    1.2750   -0.2668 N   0  0  0  0  0  0  0  0  0  0  0  0
  -11.3760    0.9125   -0.4412 C   0  0  0  0  0  0  0  0  0  0  0  0
  -11.4593   -0.6022   -0.2585 C   0  0  0  0  0  0  0  0  0  0  0  0
  -10.0846   -0.9909   -0.4816 N   0  0  0  0  0  0  0  0  0  0  0  0
   -7.1295   -1.1122   -0.4899 C   0  0  0  0  0  0  0  0  0  0  0  0
   -5.7343   -1.1575   -0.3672 C   0  0  0  0  0  0  0  0  0  0  0  0
   -0.5013   -0.0727   -0.7659 C   0  0  0  0  0  0  0  0  0  0  0  0
   -1.0468    0.3682   -2.0299 N   0  0  0  0  0  4  0  0  0  0  0  0
   -0.5361   -0.1029   -3.0522 O   0  0  0  0  0  0  0  0  0  0  0  0
   -1.9309    1.2319   -1.9841 O   0  0  0  0  0  1  0  0  0  0  0  0
    0.8621    0.1474   -0.5251 C   0  0  0  0  0  0  0  0  0  0  0  0
    3.3394   -0.5859   -0.8976 H   0  0  0  0  0  0  0  0  0  0  0  0
    5.3251    0.7708    1.9886 H   0  0  0  0  0  0  0  0  0  0  0  0
    7.7327    1.0587    1.8590 H   0  0  0  0  0  0  0  0  0  0  0  0
   11.7351    1.5754   -1.4090 H   0  0  0  0  0  0  0  0  0  0  0  0
   12.0817   -0.1636   -1.5378 H   0  0  0  0  0  0  0  0  0  0  0  0
   11.8819   -0.5035    0.7821 H   0  0  0  0  0  0  0  0  0  0  0  0
   12.2115    1.2488    0.8925 H   0  0  0  0  0  0  0  0  0  0  0  0
    9.8786    0.2514    1.7232 H   0  0  0  0  0  0  0  0  0  0  0  0
    7.7271   -0.4614   -2.1751 H   0  0  0  0  0  0  0  0  0  0  0  0
    5.2953   -0.7464   -2.0630 H   0  0  0  0  0  0  0  0  0  0  0  0
    1.0034   -1.1728    2.6219 H   0  0  0  0  0  0  0  0  0  0  0  0
   -1.3955   -1.5806    2.1515 H   0  0  0  0  0  0  0  0  0  0  0  0
   -3.2303    0.9067    0.4460 H   0  0  0  0  0  0  0  0  0  0  0  0
   -5.1953    2.0626    0.5955 H   0  0  0  0  0  0  0  0  0  0  0  0
   -7.6368    2.1356    0.3831 H   0  0  0  0  0  0  0  0  0  0  0  0
  -11.6968    1.2085   -1.4465 H   0  0  0  0  0  0  0  0  0  0  0  0
  -11.9979    1.4366    0.2909 H   0  0  0  0  0  0  0  0  0  0  0  0
  -12.1447   -1.0724   -0.9683 H   0  0  0  0  0  0  0  0  0  0  0  0
  -11.7619   -0.8557    0.7624 H   0  0  0  0  0  0  0  0  0  0  0  0
   -9.7751   -1.8230    0.0065 H   0  0  0  0  0  0  0  0  0  0  0  0
   -7.6526   -2.0028   -0.8251 H   0  0  0  0  0  0  0  0  0  0  0  0
   -5.2370   -2.0948   -0.5972 H   0  0  0  0  0  0  0  0  0  0  0  0
    1.4734    0.6532   -1.2697 H   0  0  0  0  0  0  0  0  0  0  0  0
  1  2  2  0
  2  3  1  0
  3  4  1  0
  4  5  2  0
  5  6  1  0
  6  7  2  0
  7  8  1  0
  8  9  2  0
  9 10  1  0
 10 11  1  0
 11 12  1  0
  7 13  1  0
 13 14  2  0
  2 15  1  0
 15 16  2  0
 16 17  1  0
 17 18  2  0
 18 19  1  0
 19 20  2  0
 19 21  1  0
 21 22  1  0
 22 23  2  0
 23 24  1  0
 24 25  2  0
 25 26  1  0
 26 27  2  0
 27 28  1  0
 28 29  1  0
 29 30  1  0
 25 31  1  0
 31 32  2  0
 18 33  1  0
 33 34  1  0
 34 35  2  0
 34 36  1  0
 33 37  2  0
 14  4  1  0
 37 15  1  0
 12  8  1  0
 32 22  1  0
 30 26  1  0
  3 38  1  0
  5 39  1  0
  6 40  1  0
 10 41  1  0
 10 42  1  0
 11 43  1  0
 11 44  1  0
 12 45  1  0
 13 46  1  0
 14 47  1  0
 16 48  1  0
 17 49  1  0
 21 50  1  0
 23 51  1  0
 24 52  1  0
 28 53  1  0
 28 54  1  0
 29 55  1  0
 29 56  1  0
 30 57  1  0
 31 58  1  0
 32 59  1  0
 37 60  1  0
M  CHG  2  34   1  36  -1
M  END
$$$$
