
     RDKit          3D

 48 51  0  0  0  0  0  0  0  0999 V2000
   -7.3048   -2.9699   -0.4680 C   0  0  0  0  0  0  0  0  0  0  0  0
   -6.2958   -1.8596   -0.3993 C   0  0  0  0  0  0  0  0  0  0  0  0
   -6.7273   -0.5563   -0.1836 C   0  0  0  0  0  0  0  0  0  0  0  0
   -5.8002    0.4985   -0.1205 C   0  0  0  0  0  0  0  0  0  0  0  0
   -6.3102    1.8951    0.1014 C   0  0  0  0  0  0  0  0  0  0  0  0
   -4.4242    0.1630   -0.2641 C   0  0  0  0  0  0  0  0  0  0  0  0
   -3.1980    0.9253   -0.2413 C   0  0  0  0  0  0  0  0  0  0  0  0
   -3.1375    2.2646   -0.0347 N   0  0  0  0  0  0  0  0  0  0  0  0
   -2.0642    0.1586   -0.4586 C   0  0  0  0  0  0  0  0  0  0  0  0
   -0.6749    0.6048   -0.4920 C   0  0  0  0  0  0  0  0  0  0  0  0
   -0.3356    1.7667   -0.2497 O   0  0  0  0  0  0  0  0  0  0  0  0
    0.2698   -0.3677   -0.8264 N   0  0  0  0  0  0  0  0  0  0  0  0
    1.6363   -0.1368   -0.5173 N   0  0  0  0  0  0  0  0  0  0  0  0
    2.3002    0.8283   -1.3867 C   0  0  0  0  0  0  0  0  0  0  0  0
    3.8163    0.6232   -1.3042 C   0  0  0  0  0  0  0  0  0  0  0  0
    4.5182    0.8268   -2.2927 O   0  0  0  0  0  0  0  0  0  0  0  0
    4.2714    0.2506   -0.0238 N   0  0  0  0  0  0  0  0  0  0  0  0
    5.6480   -0.0400    0.2651 C   0  0  0  0  0  0  0  0  0  0  0  0
    6.6951    0.5201   -0.4808 C   0  0  0  0  0  0  0  0  0  0  0  0
    8.0350    0.2346   -0.1836 C   0  0  0  0  0  0  0  0  0  0  0  0
    8.3574   -0.6263    0.8609 C   0  0  0  0  0  0  0  0  0  0  0  0
    7.3376   -1.2084    1.6045 C   0  0  0  0  0  0  0  0  0  0  0  0
    6.0057   -0.9191    1.3038 C   0  0  0  0  0  0  0  0  0  0  0  0
    5.0658   -1.5738    2.0034 F   0  0  0  0  0  0  0  0  0  0  0  0
    3.3414    0.4449    1.1036 C   0  0  0  0  0  0  0  0  0  0  0  0
    2.0026   -0.2253    0.8255 C   0  0  0  0  0  0  0  0  0  0  0  0
    1.2773   -0.6864    1.7032 O   0  0  0  0  0  0  0  0  0  0  0  0
   -2.4737   -1.4886   -0.6764 S   0  0  0  0  0  0  0  0  0  0  0  0
   -4.1332   -1.1804   -0.4843 C   0  0  0  0  0  0  0  0  0  0  0  0
   -5.0062   -2.2042   -0.5595 N   0  0  0  0  0  0  0  0  0  0  0  0
   -6.8137   -3.9339   -0.6362 H   0  0  0  0  0  0  0  0  0  0  0  0
   -8.0034   -2.7950   -1.2921 H   0  0  0  0  0  0  0  0  0  0  0  0
   -7.8632   -3.0318    0.4713 H   0  0  0  0  0  0  0  0  0  0  0  0
   -7.7902   -0.3572   -0.0693 H   0  0  0  0  0  0  0  0  0  0  0  0
   -7.4019    1.9432    0.0279 H   0  0  0  0  0  0  0  0  0  0  0  0
   -5.9050    2.5732   -0.6558 H   0  0  0  0  0  0  0  0  0  0  0  0
   -6.0241    2.2441    1.0982 H   0  0  0  0  0  0  0  0  0  0  0  0
   -2.2228    2.6999    0.1185 H   0  0  0  0  0  0  0  0  0  0  0  0
   -3.8758    2.7568    0.4559 H   0  0  0  0  0  0  0  0  0  0  0  0
   -0.0263   -1.3372   -0.7351 H   0  0  0  0  0  0  0  0  0  0  0  0
    1.9764    0.6592   -2.4188 H   0  0  0  0  0  0  0  0  0  0  0  0
    2.0715    1.8510   -1.0720 H   0  0  0  0  0  0  0  0  0  0  0  0
    6.5063    1.2194   -1.2906 H   0  0  0  0  0  0  0  0  0  0  0  0
    8.8252    0.6917   -0.7755 H   0  0  0  0  0  0  0  0  0  0  0  0
    9.3970   -0.8497    1.0858 H   0  0  0  0  0  0  0  0  0  0  0  0
    7.5650   -1.9018    2.4084 H   0  0  0  0  0  0  0  0  0  0  0  0
    3.7300    0.0832    2.0553 H   0  0  0  0  0  0  0  0  0  0  0  0
    3.1626    1.5225    1.2070 H   0  0  0  0  0  0  0  0  0  0  0  0
  1  2  1  0
  2  3  2  0
  3  4  1  0
  4  5  1  0
  4  6  2  0
  6  7  1  0
  7  8  1  0
  7  9  2  0
  9 10  1  0
 10 11  2  0
 10 12  1  0
 12 13  1  0
 13 14  1  0
 14 15  1  0
 15 16  2  0
 15 17  1  0
 17 18  1  0
 18 19  2  0
 19 20  1  0
 20 21  2  0
 21 22  1  0
 22 23  2  0
 23 24  1  0
 17 25  1  0
 25 26  1  0
 26 27  2  0
  9 28  1  0
 28 29  1  0
 29 30  2  0
 30  2  1  0
 29  6  1  0
 26 13  1  0
 23 18  1  0
  1 31  1  0
  1 32  1  0
  1 33  1  0
  3 34  1  0
  5 35  1  0
  5 36  1  0
  5 37  1  0
  8 38  1  0
  8 39  1  0
 12 40  1  0
 14 41  1  0
 14 42  1  0
 19 43  1  0
 20 44  1  0
 21 45  1  0
 22 46  1  0
 25 47  1  0
 25 48  1  0
M  END
$$$$
