
     RDKit          3D

 54 56  0  0  0  0  0  0  0  0999 V2000
   -3.8138    1.3153    3.4480 C   0  0  0  0  0  0  0  0  0  0  0  0
   -3.3027   -0.0722    3.1096 C   0  0  0  0  0  0  0  0  0  0  0  0
   -2.2293    0.0144    2.1609 O   0  0  0  0  0  0  0  0  0  0  0  0
   -2.5987    0.1018    0.8498 C   0  0  0  0  0  0  0  0  0  0  0  0
   -3.7612    0.0895    0.4607 O   0  0  0  0  0  0  0  0  0  0  0  0
   -1.4515    0.1968   -0.0408 C   0  0  0  0  0  0  0  0  0  0  0  0
   -1.4112    1.0917   -1.1030 C   0  0  0  0  0  0  0  0  0  0  0  0
   -2.3087    2.0364   -1.4927 N   0  0  0  0  0  0  0  0  0  0  0  0
   -3.2952    1.5972   -2.2053 C   0  0  0  0  0  0  0  0  0  0  0  0
   -4.3147    2.3601   -2.7337 N   0  0  0  0  0  0  0  0  0  0  0  0
   -4.4389    3.7577   -2.3386 C   0  0  0  0  0  0  0  0  0  0  0  0
   -5.5463    1.7182   -3.1672 C   0  0  0  0  0  0  0  0  0  0  0  0
    0.0876    1.0000   -1.9351 S   0  0  0  0  0  0  0  0  0  0  0  0
    0.6801   -0.2539   -0.9380 C   0  0  0  0  0  0  0  0  0  0  0  0
    1.9818   -0.8382   -1.2014 C   0  0  0  0  0  0  0  0  0  0  0  0
    2.8372   -0.2958   -2.0137 N   0  0  0  0  0  0  0  0  0  0  0  0
    3.9997   -1.0106   -2.1395 N   0  0  0  0  0  0  0  0  0  0  0  0
    5.1512   -0.4891   -1.4790 C   0  0  0  0  0  0  0  0  0  0  0  0
    6.4240   -0.9045   -1.9067 C   0  0  0  0  0  0  0  0  0  0  0  0
    7.5800   -0.4667   -1.2553 C   0  0  0  0  0  0  0  0  0  0  0  0
    7.4783    0.3777   -0.1513 C   0  0  0  0  0  0  0  0  0  0  0  0
    6.2233    0.7583    0.3175 C   0  0  0  0  0  0  0  0  0  0  0  0
    5.0672    0.3181   -0.3366 C   0  0  0  0  0  0  0  0  0  0  0  0
   -0.2299   -0.5782    0.0569 C   0  0  0  0  0  0  0  0  0  0  0  0
    0.0600   -1.6041    1.0492 C   0  0  0  0  0  0  0  0  0  0  0  0
   -0.6496   -2.8114    1.0407 C   0  0  0  0  0  0  0  0  0  0  0  0
   -0.3726   -3.7908    1.9980 C   0  0  0  0  0  0  0  0  0  0  0  0
    0.6077   -3.5610    2.9633 C   0  0  0  0  0  0  0  0  0  0  0  0
    0.9476   -4.7689    4.1392 Cl  0  0  0  0  0  0  0  0  0  0  0  0
    1.3133   -2.3587    2.9826 C   0  0  0  0  0  0  0  0  0  0  0  0
    1.0372   -1.3778    2.0282 C   0  0  0  0  0  0  0  0  0  0  0  0
   -4.2300    1.8082    2.5630 H   0  0  0  0  0  0  0  0  0  0  0  0
   -4.5905    1.2647    4.2167 H   0  0  0  0  0  0  0  0  0  0  0  0
   -2.9951    1.9489    3.8102 H   0  0  0  0  0  0  0  0  0  0  0  0
   -4.1081   -0.7184    2.7417 H   0  0  0  0  0  0  0  0  0  0  0  0
   -2.8972   -0.5444    4.0114 H   0  0  0  0  0  0  0  0  0  0  0  0
   -3.3955    0.5247   -2.4663 H   0  0  0  0  0  0  0  0  0  0  0  0
   -4.9260    3.8355   -1.3600 H   0  0  0  0  0  0  0  0  0  0  0  0
   -3.4621    4.2471   -2.2799 H   0  0  0  0  0  0  0  0  0  0  0  0
   -5.0326    4.3167   -3.0686 H   0  0  0  0  0  0  0  0  0  0  0  0
   -5.3319    0.8201   -3.7560 H   0  0  0  0  0  0  0  0  0  0  0  0
   -6.1499    1.4280   -2.3005 H   0  0  0  0  0  0  0  0  0  0  0  0
   -6.1397    2.3904   -3.7959 H   0  0  0  0  0  0  0  0  0  0  0  0
    2.2415   -1.7727   -0.6701 H   0  0  0  0  0  0  0  0  0  0  0  0
    4.2548   -1.1494   -3.1221 H   0  0  0  0  0  0  0  0  0  0  0  0
    6.5241   -1.5679   -2.7617 H   0  0  0  0  0  0  0  0  0  0  0  0
    8.5570   -0.7805   -1.6131 H   0  0  0  0  0  0  0  0  0  0  0  0
    8.3768    0.7234    0.3538 H   0  0  0  0  0  0  0  0  0  0  0  0
    6.1418    1.3866    1.1988 H   0  0  0  0  0  0  0  0  0  0  0  0
    4.1001    0.6258    0.0488 H   0  0  0  0  0  0  0  0  0  0  0  0
   -1.4232   -2.9975    0.2998 H   0  0  0  0  0  0  0  0  0  0  0  0
   -0.9274   -4.7243    1.9889 H   0  0  0  0  0  0  0  0  0  0  0  0
    2.0756   -2.1774    3.7360 H   0  0  0  0  0  0  0  0  0  0  0  0
    1.5856   -0.4391    2.0584 H   0  0  0  0  0  0  0  0  0  0  0  0
  1  2  1  0
  2  3  1  0
  3  4  1  0
  4  5  2  0
  4  6  1  0
  6  7  2  0
  7  8  1  0
  8  9  2  3
  9 10  1  0
 10 11  1  0
 10 12  1  0
  7 13  1  0
 13 14  1  0
 14 15  1  0
 15 16  2  3
 16 17  1  0
 17 18  1  0
 18 19  2  0
 19 20  1  0
 20 21  2  0
 21 22  1  0
 22 23  2  0
 14 24  2  0
 24 25  1  0
 25 26  2  0
 26 27  1  0
 27 28  2  0
 28 29  1  0
 28 30  1  0
 30 31  2  0
 24  6  1  0
 31 25  1  0
 23 18  1  0
  1 32  1  0
  1 33  1  0
  1 34  1  0
  2 35  1  0
  2 36  1  0
  9 37  1  0
 11 38  1  0
 11 39  1  0
 11 40  1  0
 12 41  1  0
 12 42  1  0
 12 43  1  0
 15 44  1  0
 17 45  1  0
 19 46  1  0
 20 47  1  0
 21 48  1  0
 22 49  1  0
 23 50  1  0
 26 51  1  0
 27 52  1  0
 30 53  1  0
 31 54  1  0
M  END
$$$$
