
     RDKit          3D

 50 51  0  0  0  0  0  0  0  0999 V2000
    8.2168   -1.2723    3.1864 C   0  0  0  0  0  0  0  0  0  0  0  0
    7.2473   -0.6432    2.3474 O   0  0  0  0  0  0  0  0  0  0  0  0
    7.4184   -0.8936    1.0250 C   0  0  0  0  0  0  0  0  0  0  0  0
    8.2989   -1.5851    0.5370 O   0  0  0  0  0  0  0  0  0  0  0  0
    6.3751   -0.2041    0.2178 C   0  0  0  0  0  0  0  0  0  0  0  0
    5.3654    0.5737    0.7978 C   0  0  0  0  0  0  0  0  0  0  0  0
    4.4098    1.1987   -0.0088 C   0  0  0  0  0  0  0  0  0  0  0  0
    4.4511    1.0616   -1.4040 C   0  0  0  0  0  0  0  0  0  0  0  0
    3.4002    1.7196   -2.2615 C   0  0  0  0  0  0  0  0  0  0  0  0
    2.2056    0.9078   -2.3157 N   0  0  0  0  0  0  0  0  0  0  0  0
    1.1147    1.1680   -1.5081 C   0  0  0  0  0  0  0  0  0  0  0  0
    1.0463    2.1451   -0.7682 O   0  0  0  0  0  0  0  0  0  0  0  0
    0.0081    0.1219   -1.6351 C   0  0  0  0  0  0  0  0  0  0  0  0
   -1.1340    0.4781   -0.8606 O   0  0  0  0  0  0  0  0  0  0  0  0
   -2.1514   -0.4210   -0.9403 C   0  0  0  0  0  0  0  0  0  0  0  0
   -2.1191   -1.4521   -1.5968 O   0  0  0  0  0  0  0  0  0  0  0  0
   -3.3127    0.0537   -0.0984 C   0  0  0  0  0  0  0  0  0  0  0  0
   -4.5075   -0.8954   -0.1909 C   0  0  0  0  0  0  0  0  0  0  0  0
   -5.6747   -0.4602    0.6962 C   0  0  0  0  0  0  0  0  0  0  0  0
   -6.3025    0.8764    0.3019 C   0  0  0  0  0  0  0  0  0  0  0  0
   -7.7048    0.8458    0.9075 C   0  0  0  0  0  0  0  0  0  0  0  0
   -8.0071   -0.6186    1.2213 C   0  0  0  0  0  0  0  0  0  0  0  0
   -6.8632   -1.4152    0.6088 C   0  0  0  0  0  0  0  0  0  0  0  0
    5.4579    0.2757   -1.9802 C   0  0  0  0  0  0  0  0  0  0  0  0
    6.4143   -0.3497   -1.1753 C   0  0  0  0  0  0  0  0  0  0  0  0
    8.1845   -2.3595    3.0641 H   0  0  0  0  0  0  0  0  0  0  0  0
    7.9718   -1.0339    4.2250 H   0  0  0  0  0  0  0  0  0  0  0  0
    9.2176   -0.8864    2.9689 H   0  0  0  0  0  0  0  0  0  0  0  0
    5.3055    0.7024    1.8758 H   0  0  0  0  0  0  0  0  0  0  0  0
    3.6250    1.7950    0.4569 H   0  0  0  0  0  0  0  0  0  0  0  0
    3.1750    2.7236   -1.8846 H   0  0  0  0  0  0  0  0  0  0  0  0
    3.7624    1.8333   -3.2892 H   0  0  0  0  0  0  0  0  0  0  0  0
    2.2752    0.0085   -2.7730 H   0  0  0  0  0  0  0  0  0  0  0  0
   -0.2713    0.0509   -2.6930 H   0  0  0  0  0  0  0  0  0  0  0  0
    0.4109   -0.8348   -1.2819 H   0  0  0  0  0  0  0  0  0  0  0  0
   -2.9741    0.1244    0.9410 H   0  0  0  0  0  0  0  0  0  0  0  0
   -3.5973    1.0505   -0.4519 H   0  0  0  0  0  0  0  0  0  0  0  0
   -4.1936   -1.9050    0.1035 H   0  0  0  0  0  0  0  0  0  0  0  0
   -4.8348   -0.9694   -1.2359 H   0  0  0  0  0  0  0  0  0  0  0  0
   -5.3377   -0.4049    1.7403 H   0  0  0  0  0  0  0  0  0  0  0  0
   -5.7254    1.7313    0.6689 H   0  0  0  0  0  0  0  0  0  0  0  0
   -6.3756    0.9659   -0.7891 H   0  0  0  0  0  0  0  0  0  0  0  0
   -7.7479    1.4444    1.8241 H   0  0  0  0  0  0  0  0  0  0  0  0
   -8.4365    1.2651    0.2086 H   0  0  0  0  0  0  0  0  0  0  0  0
   -8.0286   -0.7655    2.3078 H   0  0  0  0  0  0  0  0  0  0  0  0
   -8.9786   -0.9323    0.8267 H   0  0  0  0  0  0  0  0  0  0  0  0
   -6.6854   -2.3535    1.1435 H   0  0  0  0  0  0  0  0  0  0  0  0
   -7.0952   -1.6580   -0.4354 H   0  0  0  0  0  0  0  0  0  0  0  0
    5.5089    0.1455   -3.0592 H   0  0  0  0  0  0  0  0  0  0  0  0
    7.1922   -0.9532   -1.6403 H   0  0  0  0  0  0  0  0  0  0  0  0
  1  2  1  0
  2  3  1  0
  3  4  2  0
  3  5  1  0
  5  6  2  0
  6  7  1  0
  7  8  2  0
  8  9  1  0
  9 10  1  0
 10 11  1  0
 11 12  2  0
 11 13  1  0
 13 14  1  0
 14 15  1  0
 15 16  2  0
 15 17  1  0
 17 18  1  0
 18 19  1  0
 19 20  1  0
 20 21  1  0
 21 22  1  0
 22 23  1  0
  8 24  1  0
 24 25  2  0
 25  5  1  0
 23 19  1  0
  1 26  1  0
  1 27  1  0
  1 28  1  0
  6 29  1  0
  7 30  1  0
  9 31  1  0
  9 32  1  0
 10 33  1  0
 13 34  1  0
 13 35  1  0
 17 36  1  0
 17 37  1  0
 18 38  1  0
 18 39  1  0
 19 40  1  0
 20 41  1  0
 20 42  1  0
 21 43  1  0
 21 44  1  0
 22 45  1  0
 22 46  1  0
 23 47  1  0
 23 48  1  0
 24 49  1  0
 25 50  1  0
M  END
$$$$
