
     RDKit          3D

 49 52  0  0  0  0  0  0  0  0999 V2000
    7.9306    1.0555   -0.2630 C   0  0  0  0  0  0  0  0  0  0  0  0
    7.4044   -0.2453    0.1503 N   0  0  0  0  0  0  0  0  0  0  0  0
    8.1610   -0.9174    1.2057 C   0  0  0  0  0  0  0  0  0  0  0  0
    6.0210   -0.4614    0.0734 C   0  0  0  0  0  0  0  0  0  0  0  0
    5.3943   -1.5396    0.7226 C   0  0  0  0  0  0  0  0  0  0  0  0
    4.0118   -1.7679    0.6372 C   0  0  0  0  0  0  0  0  0  0  0  0
    3.1974   -0.9199   -0.1102 C   0  0  0  0  0  0  0  0  0  0  0  0
    1.7659   -1.2115   -0.2229 C   0  0  0  0  0  0  0  0  0  0  0  0
    0.7467   -0.3978    0.0890 C   0  0  0  0  0  0  0  0  0  0  0  0
   -0.6314   -0.7457   -0.0451 C   0  0  0  0  0  0  0  0  0  0  0  0
   -1.3188    0.3151    0.3743 C   0  0  0  0  0  0  0  0  0  0  0  0
   -2.7793    0.4793    0.4495 C   0  0  0  0  0  0  0  0  0  0  0  0
   -3.3351    1.4965    1.2422 C   0  0  0  0  0  0  0  0  0  0  0  0
   -4.7194    1.6721    1.3315 C   0  0  0  0  0  0  0  0  0  0  0  0
   -5.5758    0.8409    0.6110 C   0  0  0  0  0  0  0  0  0  0  0  0
   -5.0413   -0.1771   -0.1923 C   0  0  0  0  0  0  0  0  0  0  0  0
   -3.6533   -0.3561   -0.2649 C   0  0  0  0  0  0  0  0  0  0  0  0
   -5.9993   -1.0843   -0.9179 C   0  0  0  0  0  0  0  0  0  0  0  0
   -7.1370   -0.2860   -1.5569 C   0  0  0  0  0  0  0  0  0  0  0  0
   -7.7275    0.8209   -0.6700 C   0  0  0  0  0  0  0  0  0  0  0  0
   -7.0726    0.9639    0.7052 C   0  0  0  0  0  0  0  0  0  0  0  0
   -0.5246    1.3963    0.8068 O   0  0  0  0  0  0  0  0  0  0  0  0
    0.7838    0.9874    0.6449 C   0  0  0  0  0  0  0  0  0  0  0  0
    1.7582    1.6634    0.9183 O   0  0  0  0  0  0  0  0  0  0  0  0
    3.7936    0.1368   -0.7923 C   0  0  0  0  0  0  0  0  0  0  0  0
    5.1771    0.3569   -0.6984 C   0  0  0  0  0  0  0  0  0  0  0  0
    7.4938    1.8657    0.3315 H   0  0  0  0  0  0  0  0  0  0  0  0
    7.7481    1.2378   -1.3274 H   0  0  0  0  0  0  0  0  0  0  0  0
    9.0181    1.1014   -0.1352 H   0  0  0  0  0  0  0  0  0  0  0  0
    9.2233   -0.6512    1.1623 H   0  0  0  0  0  0  0  0  0  0  0  0
    7.7902   -0.6368    2.1977 H   0  0  0  0  0  0  0  0  0  0  0  0
    8.1221   -2.0059    1.0908 H   0  0  0  0  0  0  0  0  0  0  0  0
    5.9676   -2.2426    1.3184 H   0  0  0  0  0  0  0  0  0  0  0  0
    3.5879   -2.6175    1.1670 H   0  0  0  0  0  0  0  0  0  0  0  0
    1.5539   -2.2140   -0.5905 H   0  0  0  0  0  0  0  0  0  0  0  0
   -1.0132   -1.6860   -0.4052 H   0  0  0  0  0  0  0  0  0  0  0  0
   -2.6933    2.1644    1.8141 H   0  0  0  0  0  0  0  0  0  0  0  0
   -5.1171    2.4601    1.9662 H   0  0  0  0  0  0  0  0  0  0  0  0
   -3.2644   -1.1515   -0.8952 H   0  0  0  0  0  0  0  0  0  0  0  0
   -5.4817   -1.6567   -1.6965 H   0  0  0  0  0  0  0  0  0  0  0  0
   -6.4043   -1.8084   -0.2001 H   0  0  0  0  0  0  0  0  0  0  0  0
   -6.7637    0.1815   -2.4782 H   0  0  0  0  0  0  0  0  0  0  0  0
   -7.9311   -0.9729   -1.8731 H   0  0  0  0  0  0  0  0  0  0  0  0
   -8.8052    0.6617   -0.5440 H   0  0  0  0  0  0  0  0  0  0  0  0
   -7.6290    1.7738   -1.2075 H   0  0  0  0  0  0  0  0  0  0  0  0
   -7.3589    1.9284    1.1406 H   0  0  0  0  0  0  0  0  0  0  0  0
   -7.4432    0.1827    1.3804 H   0  0  0  0  0  0  0  0  0  0  0  0
    3.1982    0.8107   -1.4032 H   0  0  0  0  0  0  0  0  0  0  0  0
    5.5714    1.2002   -1.2565 H   0  0  0  0  0  0  0  0  0  0  0  0
  1  2  1  0
  2  3  1  0
  2  4  1  0
  4  5  2  0
  5  6  1  0
  6  7  2  0
  7  8  1  0
  8  9  2  3
  9 10  1  0
 10 11  2  0
 11 12  1  0
 12 13  2  0
 13 14  1  0
 14 15  2  0
 15 16  1  0
 16 17  2  0
 16 18  1  0
 18 19  1  0
 19 20  1  0
 20 21  1  0
 11 22  1  0
 22 23  1  0
 23 24  2  0
  7 25  1  0
 25 26  2  0
 26  4  1  0
 23  9  1  0
 17 12  1  0
 21 15  1  0
  1 27  1  0
  1 28  1  0
  1 29  1  0
  3 30  1  0
  3 31  1  0
  3 32  1  0
  5 33  1  0
  6 34  1  0
  8 35  1  0
 10 36  1  0
 13 37  1  0
 14 38  1  0
 17 39  1  0
 18 40  1  0
 18 41  1  0
 19 42  1  0
 19 43  1  0
 20 44  1  0
 20 45  1  0
 21 46  1  0
 21 47  1  0
 25 48  1  0
 26 49  1  0
M  END
$$$$
