
     RDKit          3D

 92 93  0  0  0  0  0  0  0  0999 V2000
   11.6617    1.5899   -1.8611 C   0  0  0  0  0  0  0  0  0  0  0  0
   11.2843    1.5733   -0.3875 C   0  0  0  0  0  0  0  0  0  0  0  0
    9.8030    1.8602   -0.1291 C   0  0  0  0  0  0  0  0  0  0  0  0
    8.8083    0.8917   -0.7768 C   0  0  0  0  0  0  0  0  0  0  0  0
    9.0254   -0.5715   -0.3727 C   0  0  0  0  0  0  0  0  0  0  0  0
    7.8911   -1.4854   -0.8552 C   0  0  0  0  0  0  0  0  0  0  0  0
    6.8769   -1.8675    0.2308 C   0  0  0  0  0  0  0  0  0  0  0  0
    6.1545   -0.6775    0.8592 C   0  0  0  0  0  0  0  0  0  0  0  0
    5.1039   -1.0853    1.9006 C   0  0  0  0  0  0  0  0  0  0  0  0
    3.9386   -1.9331    1.3774 C   0  0  0  0  0  0  0  0  0  0  0  0
    3.1070   -1.2355    0.2971 C   0  0  0  0  0  0  0  0  0  0  0  0
    1.9934   -2.1531   -0.2113 C   0  0  0  0  0  0  0  0  0  0  0  0
    1.1452   -1.5106   -1.3117 C   0  0  0  0  0  0  0  0  0  0  0  0
    0.2789   -0.3242   -0.8742 C   0  0  0  0  0  0  0  0  0  0  0  0
   -0.7271   -0.6876    0.2195 C   0  0  0  0  0  0  0  0  0  0  0  0
   -1.7752    0.4124    0.3923 C   0  0  0  0  0  0  0  0  0  0  0  0
   -2.8443    0.0774    1.4483 N   0  0  0  0  0  4  0  0  0  0  0  0
   -2.2249    0.0106    2.8434 C   0  0  0  0  0  0  0  0  0  0  0  0
   -3.8489    1.2416    1.4648 C   0  0  0  0  0  0  0  0  0  0  0  0
   -3.5845   -1.2669    1.1895 C   0  0  0  0  0  0  0  0  0  0  0  0
   -4.2062   -1.4476   -0.2156 C   0  0  0  0  0  0  0  0  0  0  0  0
   -5.3988   -0.6108   -0.3936 N   0  0  0  0  0  0  0  0  0  0  0  0
   -6.6727   -1.2424   -0.0036 C   0  0  0  0  0  0  0  0  0  0  0  0
   -7.7349   -0.2041    0.2985 C   0  0  0  0  0  0  0  0  0  0  0  0
   -8.7296    0.0904   -0.6446 C   0  0  0  0  0  0  0  0  0  0  0  0
   -9.6949    1.0622   -0.3747 C   0  0  0  0  0  0  0  0  0  0  0  0
   -9.6961    1.7523    0.8387 C   0  0  0  0  0  0  0  0  0  0  0  0
  -10.6951    2.6764    0.9652 O   0  0  0  0  0  0  0  0  0  0  0  0
  -10.8003    3.3493    2.2149 C   0  0  0  0  0  0  0  0  0  0  0  0
   -8.7168    1.4597    1.7876 C   0  0  0  0  0  0  0  0  0  0  0  0
   -7.7425    0.4897    1.5181 C   0  0  0  0  0  0  0  0  0  0  0  0
   -5.4166   -0.1386   -1.7199 C   0  0  0  0  0  0  0  0  0  0  0  0
   -4.5627    0.8602   -2.0131 N   0  0  0  0  0  0  0  0  0  0  0  0
   -4.6249    1.3728   -3.2604 C   0  0  0  0  0  0  0  0  0  0  0  0
   -5.4737    0.9113   -4.2327 C   0  0  0  0  0  0  0  0  0  0  0  0
   -6.2530   -0.1548   -3.8621 C   0  0  0  0  0  0  0  0  0  0  0  0
   -6.2353   -0.6887   -2.6249 N   0  0  0  0  0  0  0  0  0  0  0  0
   11.3720    2.5341   -2.3284 H   0  0  0  0  0  0  0  0  0  0  0  0
   12.7432    1.4796   -1.9768 H   0  0  0  0  0  0  0  0  0  0  0  0
   11.1842    0.7719   -2.4097 H   0  0  0  0  0  0  0  0  0  0  0  0
   11.8776    2.3352    0.1352 H   0  0  0  0  0  0  0  0  0  0  0  0
   11.5661    0.6114    0.0503 H   0  0  0  0  0  0  0  0  0  0  0  0
    9.6336    1.8638    0.9557 H   0  0  0  0  0  0  0  0  0  0  0  0
    9.5714    2.8764   -0.4732 H   0  0  0  0  0  0  0  0  0  0  0  0
    7.7991    1.2109   -0.4953 H   0  0  0  0  0  0  0  0  0  0  0  0
    8.8598    0.9800   -1.8703 H   0  0  0  0  0  0  0  0  0  0  0  0
    9.9579   -0.9222   -0.8317 H   0  0  0  0  0  0  0  0  0  0  0  0
    9.1602   -0.6582    0.7124 H   0  0  0  0  0  0  0  0  0  0  0  0
    8.3380   -2.4217   -1.2169 H   0  0  0  0  0  0  0  0  0  0  0  0
    7.3713   -1.0420   -1.7143 H   0  0  0  0  0  0  0  0  0  0  0  0
    6.1483   -2.5428   -0.2285 H   0  0  0  0  0  0  0  0  0  0  0  0
    7.3841   -2.4444    1.0150 H   0  0  0  0  0  0  0  0  0  0  0  0
    5.6964   -0.0606    0.0788 H   0  0  0  0  0  0  0  0  0  0  0  0
    6.8877   -0.0409    1.3675 H   0  0  0  0  0  0  0  0  0  0  0  0
    4.7014   -0.1726    2.3581 H   0  0  0  0  0  0  0  0  0  0  0  0
    5.5978   -1.6392    2.7095 H   0  0  0  0  0  0  0  0  0  0  0  0
    3.2842   -2.1733    2.2273 H   0  0  0  0  0  0  0  0  0  0  0  0
    4.3188   -2.8914    1.0000 H   0  0  0  0  0  0  0  0  0  0  0  0
    2.6845   -0.3137    0.7101 H   0  0  0  0  0  0  0  0  0  0  0  0
    3.7411   -0.9514   -0.5497 H   0  0  0  0  0  0  0  0  0  0  0  0
    1.3582   -2.4789    0.6211 H   0  0  0  0  0  0  0  0  0  0  0  0
    2.4471   -3.0624   -0.6262 H   0  0  0  0  0  0  0  0  0  0  0  0
    1.8001   -1.1812   -2.1272 H   0  0  0  0  0  0  0  0  0  0  0  0
    0.4907   -2.2807   -1.7401 H   0  0  0  0  0  0  0  0  0  0  0  0
   -0.2647    0.0342   -1.7568 H   0  0  0  0  0  0  0  0  0  0  0  0
    0.9053    0.5105   -0.5388 H   0  0  0  0  0  0  0  0  0  0  0  0
   -0.1919   -0.8494    1.1601 H   0  0  0  0  0  0  0  0  0  0  0  0
   -1.2097   -1.6297   -0.0517 H   0  0  0  0  0  0  0  0  0  0  0  0
   -1.2971    1.3469    0.7075 H   0  0  0  0  0  0  0  0  0  0  0  0
   -2.2919    0.6083   -0.5527 H   0  0  0  0  0  0  0  0  0  0  0  0
   -1.5616   -0.8543    2.8994 H   0  0  0  0  0  0  0  0  0  0  0  0
   -1.6680    0.9331    3.0232 H   0  0  0  0  0  0  0  0  0  0  0  0
   -3.0347   -0.0973    3.5722 H   0  0  0  0  0  0  0  0  0  0  0  0
   -4.1867    1.4494    0.4526 H   0  0  0  0  0  0  0  0  0  0  0  0
   -3.3364    2.1230    1.8618 H   0  0  0  0  0  0  0  0  0  0  0  0
   -4.6826    0.9681    2.1151 H   0  0  0  0  0  0  0  0  0  0  0  0
   -4.3508   -1.3557    1.9689 H   0  0  0  0  0  0  0  0  0  0  0  0
   -2.8517   -2.0616    1.3607 H   0  0  0  0  0  0  0  0  0  0  0  0
   -4.4884   -2.5022   -0.3323 H   0  0  0  0  0  0  0  0  0  0  0  0
   -3.4354   -1.2721   -0.9771 H   0  0  0  0  0  0  0  0  0  0  0  0
   -6.5180   -1.8139    0.9222 H   0  0  0  0  0  0  0  0  0  0  0  0
   -7.0306   -1.9860   -0.7284 H   0  0  0  0  0  0  0  0  0  0  0  0
   -8.7613   -0.4314   -1.5989 H   0  0  0  0  0  0  0  0  0  0  0  0
  -10.4561    1.2838   -1.1211 H   0  0  0  0  0  0  0  0  0  0  0  0
   -9.9142    3.9680    2.4035 H   0  0  0  0  0  0  0  0  0  0  0  0
  -11.6669    4.0169    2.1619 H   0  0  0  0  0  0  0  0  0  0  0  0
  -10.9713    2.6406    3.0345 H   0  0  0  0  0  0  0  0  0  0  0  0
   -8.6886    1.9701    2.7467 H   0  0  0  0  0  0  0  0  0  0  0  0
   -6.9930    0.2715    2.2755 H   0  0  0  0  0  0  0  0  0  0  0  0
   -3.9595    2.2114   -3.4541 H   0  0  0  0  0  0  0  0  0  0  0  0
   -5.5237    1.3447   -5.2219 H   0  0  0  0  0  0  0  0  0  0  0  0
   -6.9581   -0.6094   -4.5539 H   0  0  0  0  0  0  0  0  0  0  0  0
  1  2  1  0
  2  3  1  0
  3  4  1  0
  4  5  1  0
  5  6  1  0
  6  7  1  0
  7  8  1  0
  8  9  1  0
  9 10  1  0
 10 11  1  0
 11 12  1  0
 12 13  1  0
 13 14  1  0
 14 15  1  0
 15 16  1  0
 16 17  1  0
 17 18  1  0
 17 19  1  0
 17 20  1  0
 20 21  1  0
 21 22  1  0
 22 23  1  0
 23 24  1  0
 24 25  2  0
 25 26  1  0
 26 27  2  0
 27 28  1  0
 28 29  1  0
 27 30  1  0
 30 31  2  0
 22 32  1  0
 32 33  2  0
 33 34  1  0
 34 35  2  0
 35 36  1  0
 36 37  2  0
 31 24  1  0
 37 32  1  0
  1 38  1  0
  1 39  1  0
  1 40  1  0
  2 41  1  0
  2 42  1  0
  3 43  1  0
  3 44  1  0
  4 45  1  0
  4 46  1  0
  5 47  1  0
  5 48  1  0
  6 49  1  0
  6 50  1  0
  7 51  1  0
  7 52  1  0
  8 53  1  0
  8 54  1  0
  9 55  1  0
  9 56  1  0
 10 57  1  0
 10 58  1  0
 11 59  1  0
 11 60  1  0
 12 61  1  0
 12 62  1  0
 13 63  1  0
 13 64  1  0
 14 65  1  0
 14 66  1  0
 15 67  1  0
 15 68  1  0
 16 69  1  0
 16 70  1  0
 18 71  1  0
 18 72  1  0
 18 73  1  0
 19 74  1  0
 19 75  1  0
 19 76  1  0
 20 77  1  0
 20 78  1  0
 21 79  1  0
 21 80  1  0
 23 81  1  0
 23 82  1  0
 25 83  1  0
 26 84  1  0
 29 85  1  0
 29 86  1  0
 29 87  1  0
 30 88  1  0
 31 89  1  0
 34 90  1  0
 35 91  1  0
 36 92  1  0
M  CHG  1  17   1
M  END
$$$$
