
     RDKit          3D

 62 63  0  0  0  0  0  0  0  0999 V2000
   -7.0916    0.4906    0.9938 C   0  0  0  0  0  0  0  0  0  0  0  0
   -5.8501   -0.4224    0.8960 C   0  0  0  0  0  0  0  0  0  0  0  0
   -6.3136   -1.7544    0.2710 C   0  0  0  0  0  0  0  0  0  0  0  0
   -5.3589   -0.6780    2.3353 C   0  0  0  0  0  0  0  0  0  0  0  0
   -4.7031    0.1766    0.0619 C   0  0  0  0  0  0  0  0  0  0  0  0
   -4.7799    1.4520   -0.5239 C   0  0  0  0  0  0  0  0  0  0  0  0
   -3.7215    1.9678   -1.2751 C   0  0  0  0  0  0  0  0  0  0  0  0
   -2.5616    1.2167   -1.4429 C   0  0  0  0  0  0  0  0  0  0  0  0
   -1.5161    1.6993   -2.1909 O   0  0  0  0  0  0  0  0  0  0  0  0
   -0.9150    2.8612   -1.5899 C   0  0  0  0  0  0  0  0  0  0  0  0
    0.5949    2.6334   -1.5347 C   0  0  0  0  0  0  0  0  0  0  0  0
    0.8495    1.6505   -0.5264 O   0  0  0  0  0  0  0  0  0  0  0  0
    2.1209    1.1405   -0.4371 C   0  0  0  0  0  0  0  0  0  0  0  0
    3.2147    1.5925   -1.1734 C   0  0  0  0  0  0  0  0  0  0  0  0
    4.4674    0.9846   -1.0252 C   0  0  0  0  0  0  0  0  0  0  0  0
    4.6622   -0.0842   -0.1380 C   0  0  0  0  0  0  0  0  0  0  0  0
    6.0240   -0.7810    0.0423 C   0  0  0  0  0  0  0  0  0  0  0  0
    7.1443   -0.1987   -0.8492 C   0  0  0  0  0  0  0  0  0  0  0  0
    6.4904   -0.6427    1.5080 C   0  0  0  0  0  0  0  0  0  0  0  0
    5.8930   -2.2791   -0.3123 C   0  0  0  0  0  0  0  0  0  0  0  0
    3.5460   -0.5165    0.6099 C   0  0  0  0  0  0  0  0  0  0  0  0
    2.2880    0.0820    0.4750 C   0  0  0  0  0  0  0  0  0  0  0  0
    1.1521   -0.3224    1.2134 N   0  0  0  0  0  0  0  0  0  0  0  0
    1.0510   -1.3436    2.1250 C   0  0  0  0  0  0  0  0  0  0  0  0
    1.9125   -2.1314    2.4903 O   0  0  0  0  0  0  0  0  0  0  0  0
   -2.4553   -0.0694   -0.8989 C   0  0  0  0  0  0  0  0  0  0  0  0
   -1.2661   -0.7841   -1.1556 N   0  0  0  0  0  0  0  0  0  0  0  0
   -0.9081   -2.0263   -0.6946 C   0  0  0  0  0  0  0  0  0  0  0  0
   -1.5042   -2.7508    0.0883 O   0  0  0  0  0  0  0  0  0  0  0  0
   -3.5198   -0.5697   -0.1431 C   0  0  0  0  0  0  0  0  0  0  0  0
   -7.8802    0.0215    1.5936 H   0  0  0  0  0  0  0  0  0  0  0  0
   -6.8542    1.4480    1.4706 H   0  0  0  0  0  0  0  0  0  0  0  0
   -7.5179    0.6967    0.0056 H   0  0  0  0  0  0  0  0  0  0  0  0
   -5.5257   -2.5138    0.2745 H   0  0  0  0  0  0  0  0  0  0  0  0
   -6.6286   -1.6146   -0.7676 H   0  0  0  0  0  0  0  0  0  0  0  0
   -7.1598   -2.1733    0.8226 H   0  0  0  0  0  0  0  0  0  0  0  0
   -4.5387   -1.4032    2.3713 H   0  0  0  0  0  0  0  0  0  0  0  0
   -4.9998    0.2488    2.7975 H   0  0  0  0  0  0  0  0  0  0  0  0
   -6.1646   -1.0729    2.9627 H   0  0  0  0  0  0  0  0  0  0  0  0
   -5.6658    2.0725   -0.4179 H   0  0  0  0  0  0  0  0  0  0  0  0
   -3.8159    2.9471   -1.7335 H   0  0  0  0  0  0  0  0  0  0  0  0
   -1.2938    3.0571   -0.5780 H   0  0  0  0  0  0  0  0  0  0  0  0
   -1.1423    3.7203   -2.2300 H   0  0  0  0  0  0  0  0  0  0  0  0
    1.0969    3.5671   -1.2651 H   0  0  0  0  0  0  0  0  0  0  0  0
    0.9418    2.2743   -2.5105 H   0  0  0  0  0  0  0  0  0  0  0  0
    3.1363    2.4186   -1.8726 H   0  0  0  0  0  0  0  0  0  0  0  0
    5.2840    1.3757   -1.6268 H   0  0  0  0  0  0  0  0  0  0  0  0
    6.9014   -0.2934   -1.9136 H   0  0  0  0  0  0  0  0  0  0  0  0
    7.3234    0.8608   -0.6318 H   0  0  0  0  0  0  0  0  0  0  0  0
    8.0924   -0.7245   -0.6863 H   0  0  0  0  0  0  0  0  0  0  0  0
    7.4735   -1.1062    1.6545 H   0  0  0  0  0  0  0  0  0  0  0  0
    6.5698    0.4118    1.7978 H   0  0  0  0  0  0  0  0  0  0  0  0
    5.8019   -1.1261    2.2095 H   0  0  0  0  0  0  0  0  0  0  0  0
    6.8584   -2.7906   -0.2271 H   0  0  0  0  0  0  0  0  0  0  0  0
    5.5358   -2.4103   -1.3406 H   0  0  0  0  0  0  0  0  0  0  0  0
    5.1945   -2.8026    0.3486 H   0  0  0  0  0  0  0  0  0  0  0  0
    3.6773   -1.3362    1.3099 H   0  0  0  0  0  0  0  0  0  0  0  0
    0.3079    0.2122    1.0247 H   0  0  0  0  0  0  0  0  0  0  0  0
    0.0261   -1.3998    2.5302 H   0  0  0  0  0  0  0  0  0  0  0  0
   -0.6008   -0.3018   -1.7531 H   0  0  0  0  0  0  0  0  0  0  0  0
    0.0697   -2.3261   -1.1102 H   0  0  0  0  0  0  0  0  0  0  0  0
   -3.4488   -1.5622    0.2920 H   0  0  0  0  0  0  0  0  0  0  0  0
  1  2  1  0
  2  3  1  0
  2  4  1  0
  2  5  1  0
  5  6  2  0
  6  7  1  0
  7  8  2  0
  8  9  1  0
  9 10  1  0
 10 11  1  0
 11 12  1  0
 12 13  1  0
 13 14  2  0
 14 15  1  0
 15 16  2  0
 16 17  1  0
 17 18  1  0
 17 19  1  0
 17 20  1  0
 16 21  1  0
 21 22  2  0
 22 23  1  0
 23 24  1  0
 24 25  2  0
  8 26  1  0
 26 27  1  0
 27 28  1  0
 28 29  2  0
 26 30  2  0
 30  5  1  0
 22 13  1  0
  1 31  1  0
  1 32  1  0
  1 33  1  0
  3 34  1  0
  3 35  1  0
  3 36  1  0
  4 37  1  0
  4 38  1  0
  4 39  1  0
  6 40  1  0
  7 41  1  0
 10 42  1  0
 10 43  1  0
 11 44  1  0
 11 45  1  0
 14 46  1  0
 15 47  1  0
 18 48  1  0
 18 49  1  0
 18 50  1  0
 19 51  1  0
 19 52  1  0
 19 53  1  0
 20 54  1  0
 20 55  1  0
 20 56  1  0
 21 57  1  0
 23 58  1  0
 24 59  1  0
 27 60  1  0
 28 61  1  0
 30 62  1  0
M  END
$$$$
