
     RDKit          3D

 22 22  0  0  0  0  0  0  0  0999 V2000
    3.0247    1.1697   -0.0051 C   0  0  0  0  0  0  0  0  0  0  0  0
    1.5408    0.9364   -0.0630 C   0  0  0  0  0  0  0  0  0  0  0  0
    0.7978    2.0122   -0.4323 N   0  0  0  0  0  0  0  0  0  0  0  0
   -0.5337    1.8368   -0.5746 C   0  0  0  0  0  0  0  0  0  0  0  0
   -1.1743    0.6323   -0.3543 C   0  0  0  0  0  0  0  0  0  0  0  0
   -2.6076    0.5817   -0.6578 C   0  0  0  0  0  0  0  0  0  0  0  0
   -3.4135    1.4642   -0.4343 O   0  0  0  0  0  0  0  0  0  0  0  0
   -2.9298   -0.5239   -1.3507 O   0  0  0  0  0  0  0  0  0  0  0  0
   -0.4116   -0.4498    0.0927 C   0  0  0  0  0  0  0  0  0  0  0  0
   -1.0612   -1.7099    0.5134 C   0  0  0  0  0  0  0  0  0  0  0  0
   -0.6145   -2.8355    0.3920 O   0  0  0  0  0  0  0  0  0  0  0  0
   -2.1813   -1.4779    1.2237 O   0  0  0  0  0  0  0  0  0  0  0  0
    0.9866   -0.3203    0.2457 C   0  0  0  0  0  0  0  0  0  0  0  0
    1.8149   -1.4258    0.5075 N   0  0  0  0  0  0  0  0  0  0  0  0
    3.2684    2.1975   -0.2946 H   0  0  0  0  0  0  0  0  0  0  0  0
    3.3954    1.0118    1.0124 H   0  0  0  0  0  0  0  0  0  0  0  0
    3.5451    0.4965   -0.6933 H   0  0  0  0  0  0  0  0  0  0  0  0
   -1.0786    2.7194   -0.9024 H   0  0  0  0  0  0  0  0  0  0  0  0
   -3.8881   -0.4270   -1.5353 H   0  0  0  0  0  0  0  0  0  0  0  0
   -2.4893   -2.3707    1.4877 H   0  0  0  0  0  0  0  0  0  0  0  0
    1.3347   -2.2755    0.8114 H   0  0  0  0  0  0  0  0  0  0  0  0
    2.6752   -1.2422    1.0113 H   0  0  0  0  0  0  0  0  0  0  0  0
  1  2  1  0
  2  3  2  0
  3  4  1  0
  4  5  2  0
  5  6  1  0
  6  7  2  0
  6  8  1  0
  5  9  1  0
  9 10  1  0
 10 11  2  0
 10 12  1  0
  9 13  2  0
 13 14  1  0
 13  2  1  0
  1 15  1  0
  1 16  1  0
  1 17  1  0
  4 18  1  0
  8 19  1  0
 12 20  1  0
 14 21  1  0
 14 22  1  0
M  END
$$$$
