
     RDKit          3D

 52 54  0  0  0  0  0  0  0  0999 V2000
    4.4549    1.3455   -3.0648 C   0  0  0  0  0  0  0  0  0  0  0  0
    3.5725    2.2288   -2.1874 C   0  0  0  0  0  0  0  0  0  0  0  0
    4.2835    2.7099   -0.9038 C   0  0  0  0  0  0  0  0  0  0  0  0
    4.9088    1.6271   -0.0080 C   0  0  0  0  0  0  0  0  0  0  0  0
    3.9320    0.6476    0.5954 C   0  0  0  0  0  0  0  0  0  0  0  0
    4.0205   -0.7194    0.2967 C   0  0  0  0  0  0  0  0  0  0  0  0
    3.0932   -1.6213    0.8214 C   0  0  0  0  0  0  0  0  0  0  0  0
    2.0747   -1.1686    1.6571 C   0  0  0  0  0  0  0  0  0  0  0  0
    1.9886    0.1842    1.9775 C   0  0  0  0  0  0  0  0  0  0  0  0
    2.9149    1.0874    1.4541 C   0  0  0  0  0  0  0  0  0  0  0  0
    2.3146    1.5531   -1.8986 N   0  0  0  0  0  0  0  0  0  0  0  0
    1.1752    2.2657   -1.5780 C   0  0  0  0  0  0  0  0  0  0  0  0
    1.0921    3.4860   -1.6672 O   0  0  0  0  0  0  0  0  0  0  0  0
    0.0258    1.4761   -1.0485 C   0  0  0  0  0  0  0  0  0  0  0  0
   -0.9240    2.1341   -0.2604 C   0  0  0  0  0  0  0  0  0  0  0  0
   -2.0065    1.4300    0.2772 C   0  0  0  0  0  0  0  0  0  0  0  0
   -2.1608    0.0599    0.0314 C   0  0  0  0  0  0  0  0  0  0  0  0
   -3.2719   -0.5783    0.6215 N   0  0  0  0  0  0  0  0  0  0  0  0
   -3.6480   -1.9026    0.4860 C   0  0  0  0  0  0  0  0  0  0  0  0
   -3.1139   -2.7527   -0.2154 O   0  0  0  0  0  0  0  0  0  0  0  0
   -4.8559   -2.2945    1.2651 C   0  0  0  0  0  0  0  0  0  0  0  0
   -5.7403   -3.2242    0.7018 C   0  0  0  0  0  0  0  0  0  0  0  0
   -6.8825   -3.6193    1.3999 C   0  0  0  0  0  0  0  0  0  0  0  0
   -7.1394   -3.0954    2.6668 C   0  0  0  0  0  0  0  0  0  0  0  0
   -6.2473   -2.1854    3.2338 C   0  0  0  0  0  0  0  0  0  0  0  0
   -6.5880   -1.4944    4.9609 Br  0  0  0  0  0  0  0  0  0  0  0  0
   -5.1030   -1.7828    2.5449 C   0  0  0  0  0  0  0  0  0  0  0  0
   -1.2194   -0.5905   -0.7682 C   0  0  0  0  0  0  0  0  0  0  0  0
   -0.1359    0.1124   -1.3124 C   0  0  0  0  0  0  0  0  0  0  0  0
    4.6604    0.3774   -2.5977 H   0  0  0  0  0  0  0  0  0  0  0  0
    3.9580    1.1397   -4.0196 H   0  0  0  0  0  0  0  0  0  0  0  0
    5.4093    1.8362   -3.2807 H   0  0  0  0  0  0  0  0  0  0  0  0
    3.3253    3.1262   -2.7694 H   0  0  0  0  0  0  0  0  0  0  0  0
    3.5904    3.3200   -0.3113 H   0  0  0  0  0  0  0  0  0  0  0  0
    5.0943    3.3865   -1.2057 H   0  0  0  0  0  0  0  0  0  0  0  0
    5.6863    1.0919   -0.5662 H   0  0  0  0  0  0  0  0  0  0  0  0
    5.4356    2.1204    0.8197 H   0  0  0  0  0  0  0  0  0  0  0  0
    4.8090   -1.0924   -0.3534 H   0  0  0  0  0  0  0  0  0  0  0  0
    3.1656   -2.6787    0.5796 H   0  0  0  0  0  0  0  0  0  0  0  0
    1.3491   -1.8702    2.0610 H   0  0  0  0  0  0  0  0  0  0  0  0
    1.1952    0.5381    2.6306 H   0  0  0  0  0  0  0  0  0  0  0  0
    2.8281    2.1414    1.7096 H   0  0  0  0  0  0  0  0  0  0  0  0
    2.3846    0.6163   -1.5210 H   0  0  0  0  0  0  0  0  0  0  0  0
   -0.8199    3.1982   -0.0571 H   0  0  0  0  0  0  0  0  0  0  0  0
   -2.7220    1.9733    0.8889 H   0  0  0  0  0  0  0  0  0  0  0  0
   -3.8877    0.0245    1.1514 H   0  0  0  0  0  0  0  0  0  0  0  0
   -5.5391   -3.6410   -0.2840 H   0  0  0  0  0  0  0  0  0  0  0  0
   -7.5679   -4.3384    0.9573 H   0  0  0  0  0  0  0  0  0  0  0  0
   -8.0297   -3.4100    3.2061 H   0  0  0  0  0  0  0  0  0  0  0  0
   -4.4009   -1.1026    3.0181 H   0  0  0  0  0  0  0  0  0  0  0  0
   -1.2980   -1.6494   -0.9948 H   0  0  0  0  0  0  0  0  0  0  0  0
    0.5595   -0.4261   -1.9495 H   0  0  0  0  0  0  0  0  0  0  0  0
  1  2  1  0
  2  3  1  0
  3  4  1  0
  4  5  1  0
  5  6  2  0
  6  7  1  0
  7  8  2  0
  8  9  1  0
  9 10  2  0
  2 11  1  0
 11 12  1  0
 12 13  2  0
 12 14  1  0
 14 15  2  0
 15 16  1  0
 16 17  2  0
 17 18  1  0
 18 19  1  0
 19 20  2  0
 19 21  1  0
 21 22  2  0
 22 23  1  0
 23 24  2  0
 24 25  1  0
 25 26  1  0
 25 27  2  0
 17 28  1  0
 28 29  2  0
 10  5  1  0
 29 14  1  0
 27 21  1  0
  1 30  1  0
  1 31  1  0
  1 32  1  0
  2 33  1  0
  3 34  1  0
  3 35  1  0
  4 36  1  0
  4 37  1  0
  6 38  1  0
  7 39  1  0
  8 40  1  0
  9 41  1  0
 10 42  1  0
 11 43  1  0
 15 44  1  0
 16 45  1  0
 18 46  1  0
 22 47  1  0
 23 48  1  0
 24 49  1  0
 27 50  1  0
 28 51  1  0
 29 52  1  0
M  END
$$$$
