
     RDKit          3D

 48 51  0  0  0  0  0  0  0  0999 V2000
    3.5427    4.3759    0.4635 C   0  0  0  0  0  0  0  0  0  0  0  0
    3.9455    3.1815    1.2462 C   0  0  0  0  0  0  0  0  0  0  0  0
    3.3110    2.7260    2.3051 N   0  0  0  0  0  0  0  0  0  0  0  0
    3.9222    1.6021    2.8297 N   0  0  0  0  0  0  0  0  0  0  0  0
    4.9747    1.2359    2.1298 C   0  0  0  0  0  0  0  0  0  0  0  0
    5.9433   -0.1454    2.5886 S   0  0  0  0  0  0  0  0  0  0  0  0
    5.7509   -1.2135    1.1314 C   0  0  0  0  0  0  0  0  0  0  0  0
    4.3401   -1.7407    1.0054 C   0  0  0  0  0  0  0  0  0  0  0  0
    4.0279   -2.9737    1.4305 C   0  0  0  0  0  0  0  0  0  0  0  0
    2.6389   -3.4233    1.2881 C   0  0  0  0  0  0  0  0  0  0  0  0
    2.2934   -4.5452    1.6380 O   0  0  0  0  0  0  0  0  0  0  0  0
    1.7961   -2.5063    0.7429 N   0  0  0  0  0  0  0  0  0  0  0  0
    2.1937   -1.2698    0.3125 C   0  0  0  0  0  0  0  0  0  0  0  0
    1.2866   -0.4183   -0.2302 N   0  0  0  0  0  0  0  0  0  0  0  0
   -0.0804   -0.5691   -0.3791 C   0  0  0  0  0  0  0  0  0  0  0  0
   -0.6732   -1.7292   -0.0542 N   0  0  0  0  0  0  0  0  0  0  0  0
   -2.0121   -1.8207   -0.2183 C   0  0  0  0  0  0  0  0  0  0  0  0
   -2.6200   -3.1393    0.1675 C   0  0  0  0  0  0  0  0  0  0  0  0
   -2.7858   -0.7650   -0.7113 C   0  0  0  0  0  0  0  0  0  0  0  0
   -4.1893   -0.7942   -0.9059 C   0  0  0  0  0  0  0  0  0  0  0  0
   -4.8806    0.3175   -1.4065 C   0  0  0  0  0  0  0  0  0  0  0  0
   -6.3709    0.2441   -1.5941 C   0  0  0  0  0  0  0  0  0  0  0  0
   -4.1562    1.4777   -1.7163 C   0  0  0  0  0  0  0  0  0  0  0  0
   -4.8315    2.7093   -2.2545 C   0  0  0  0  0  0  0  0  0  0  0  0
   -2.7637    1.4870   -1.5170 C   0  0  0  0  0  0  0  0  0  0  0  0
   -2.0678    0.3911   -1.0221 C   0  0  0  0  0  0  0  0  0  0  0  0
   -0.7415    0.4889   -0.8636 N   0  0  0  0  0  0  0  0  0  0  0  0
    3.4358   -0.8898    0.4085 N   0  0  0  0  0  0  0  0  0  0  0  0
    5.3360    2.2719    0.8107 S   0  0  0  0  0  0  0  0  0  0  0  0
    3.3701    4.1152   -0.5855 H   0  0  0  0  0  0  0  0  0  0  0  0
    4.3147    5.1506    0.5115 H   0  0  0  0  0  0  0  0  0  0  0  0
    2.6147    4.7999    0.8610 H   0  0  0  0  0  0  0  0  0  0  0  0
    6.0492   -0.6844    0.2197 H   0  0  0  0  0  0  0  0  0  0  0  0
    6.4584   -2.0430    1.2449 H   0  0  0  0  0  0  0  0  0  0  0  0
    4.7285   -3.6552    1.8918 H   0  0  0  0  0  0  0  0  0  0  0  0
    0.8208   -2.7606    0.6372 H   0  0  0  0  0  0  0  0  0  0  0  0
    1.6019    0.5103   -0.4579 H   0  0  0  0  0  0  0  0  0  0  0  0
   -3.1066   -3.6036   -0.6959 H   0  0  0  0  0  0  0  0  0  0  0  0
   -1.8508   -3.8306    0.5283 H   0  0  0  0  0  0  0  0  0  0  0  0
   -3.3497   -3.0034    0.9718 H   0  0  0  0  0  0  0  0  0  0  0  0
   -4.7494   -1.6950   -0.6626 H   0  0  0  0  0  0  0  0  0  0  0  0
   -6.8699    0.9883   -0.9655 H   0  0  0  0  0  0  0  0  0  0  0  0
   -6.7637   -0.7396   -1.3156 H   0  0  0  0  0  0  0  0  0  0  0  0
   -6.6317    0.4167   -2.6430 H   0  0  0  0  0  0  0  0  0  0  0  0
   -5.3219    2.4877   -3.2076 H   0  0  0  0  0  0  0  0  0  0  0  0
   -5.5725    3.0800   -1.5394 H   0  0  0  0  0  0  0  0  0  0  0  0
   -4.1135    3.5167   -2.4335 H   0  0  0  0  0  0  0  0  0  0  0  0
   -2.1945    2.3846   -1.7543 H   0  0  0  0  0  0  0  0  0  0  0  0
  1  2  1  0
  2  3  2  0
  3  4  1  0
  4  5  2  0
  5  6  1  0
  6  7  1  0
  7  8  1  0
  8  9  2  0
  9 10  1  0
 10 11  2  0
 10 12  1  0
 12 13  1  0
 13 14  1  0
 14 15  1  0
 15 16  2  0
 16 17  1  0
 17 18  1  0
 17 19  2  0
 19 20  1  0
 20 21  2  0
 21 22  1  0
 21 23  1  0
 23 24  1  0
 23 25  2  0
 25 26  1  0
 26 27  2  0
 13 28  2  0
  5 29  1  0
 29  2  1  0
 28  8  1  0
 27 15  1  0
 26 19  1  0
  1 30  1  0
  1 31  1  0
  1 32  1  0
  7 33  1  0
  7 34  1  0
  9 35  1  0
 12 36  1  0
 14 37  1  0
 18 38  1  0
 18 39  1  0
 18 40  1  0
 20 41  1  0
 22 42  1  0
 22 43  1  0
 22 44  1  0
 24 45  1  0
 24 46  1  0
 24 47  1  0
 25 48  1  0
M  END
$$$$
