
     RDKit          3D

 52 55  0  0  0  0  0  0  0  0999 V2000
    0.0020    1.1838   -4.6076 C   0  0  0  0  0  0  0  0  0  0  0  0
    1.1166    0.8945   -3.6321 C   0  0  0  0  0  0  0  0  0  0  0  0
    2.2865    1.0189   -3.9733 O   0  0  0  0  0  0  0  0  0  0  0  0
    0.6187    0.5309   -2.3965 N   0  0  0  0  0  0  0  0  0  0  0  0
    1.3265    0.1570   -1.2662 C   0  0  0  0  0  0  0  0  0  0  0  0
    3.0133    0.0180   -1.2880 S   0  0  0  0  0  0  0  0  0  0  0  0
    3.0552   -0.5548    0.3037 C   0  0  0  0  0  0  0  0  0  0  0  0
    1.8016   -0.6140    0.8823 C   0  0  0  0  0  0  0  0  0  0  0  0
    0.7625   -0.1711   -0.0334 C   0  0  0  0  0  0  0  0  0  0  0  0
   -0.7245   -0.1135    0.3303 C   0  0  0  0  0  0  0  0  0  0  0  0
   -0.9242    1.3032    0.8834 C   0  0  0  0  0  0  0  0  0  0  0  0
   -0.8885    2.4540    0.0742 C   0  0  0  0  0  0  0  0  0  0  0  0
   -1.0884    3.7264    0.6187 C   0  0  0  0  0  0  0  0  0  0  0  0
   -1.3356    3.8666    1.9804 C   0  0  0  0  0  0  0  0  0  0  0  0
   -1.5864    5.4310    2.6496 Cl  0  0  0  0  0  0  0  0  0  0  0  0
   -1.3878    2.7454    2.8025 C   0  0  0  0  0  0  0  0  0  0  0  0
   -1.1866    1.4739    2.2575 C   0  0  0  0  0  0  0  0  0  0  0  0
   -1.5904   -0.4657   -0.8315 N   0  0  0  0  0  0  0  0  0  0  0  0
   -3.0361   -0.2483   -0.5561 C   0  0  0  0  0  0  0  0  0  0  0  0
   -3.7734   -1.4992   -0.0552 C   0  0  0  0  0  0  0  0  0  0  0  0
   -3.7409   -2.5802   -0.9942 O   0  0  0  0  0  0  0  0  0  0  0  0
   -2.6094   -2.5303   -1.8710 C   0  0  0  0  0  0  0  0  0  0  0  0
   -1.3803   -1.9028   -1.1972 C   0  0  0  0  0  0  0  0  0  0  0  0
    1.6206   -1.1204    2.2869 C   0  0  0  0  0  0  0  0  0  0  0  0
    2.9414   -1.1525    3.0709 C   0  0  0  0  0  0  0  0  0  0  0  0
    4.0819   -1.7464    2.2356 C   0  0  0  0  0  0  0  0  0  0  0  0
    4.3455   -0.9134    0.9738 C   0  0  0  0  0  0  0  0  0  0  0  0
   -0.4391    2.1576   -4.3789 H   0  0  0  0  0  0  0  0  0  0  0  0
   -0.7665    0.4071   -4.5540 H   0  0  0  0  0  0  0  0  0  0  0  0
    0.4013    1.1992   -5.6257 H   0  0  0  0  0  0  0  0  0  0  0  0
   -0.3912    0.4781   -2.2788 H   0  0  0  0  0  0  0  0  0  0  0  0
   -0.9235   -0.8289    1.1399 H   0  0  0  0  0  0  0  0  0  0  0  0
   -0.7043    2.3774   -0.9928 H   0  0  0  0  0  0  0  0  0  0  0  0
   -1.0473    4.6000   -0.0267 H   0  0  0  0  0  0  0  0  0  0  0  0
   -1.5840    2.8525    3.8661 H   0  0  0  0  0  0  0  0  0  0  0  0
   -1.2387    0.6129    2.9208 H   0  0  0  0  0  0  0  0  0  0  0  0
   -3.4887    0.0552   -1.5092 H   0  0  0  0  0  0  0  0  0  0  0  0
   -3.2218    0.5826    0.1301 H   0  0  0  0  0  0  0  0  0  0  0  0
   -4.8259   -1.2641    0.1338 H   0  0  0  0  0  0  0  0  0  0  0  0
   -3.3444   -1.8518    0.8898 H   0  0  0  0  0  0  0  0  0  0  0  0
   -2.3874   -3.5576   -2.1773 H   0  0  0  0  0  0  0  0  0  0  0  0
   -2.8905   -1.9757   -2.7740 H   0  0  0  0  0  0  0  0  0  0  0  0
   -1.1573   -2.4990   -0.3022 H   0  0  0  0  0  0  0  0  0  0  0  0
   -0.5270   -1.9888   -1.8769 H   0  0  0  0  0  0  0  0  0  0  0  0
    0.9046   -0.5008    2.8337 H   0  0  0  0  0  0  0  0  0  0  0  0
    1.2050   -2.1346    2.2358 H   0  0  0  0  0  0  0  0  0  0  0  0
    2.8065   -1.7352    3.9891 H   0  0  0  0  0  0  0  0  0  0  0  0
    3.2123   -0.1332    3.3751 H   0  0  0  0  0  0  0  0  0  0  0  0
    4.9972   -1.8027    2.8352 H   0  0  0  0  0  0  0  0  0  0  0  0
    3.8212   -2.7740    1.9512 H   0  0  0  0  0  0  0  0  0  0  0  0
    4.9992   -1.4764    0.2977 H   0  0  0  0  0  0  0  0  0  0  0  0
    4.8703    0.0094    1.2508 H   0  0  0  0  0  0  0  0  0  0  0  0
  1  2  1  0
  2  3  2  0
  2  4  1  0
  4  5  1  0
  5  6  1  0
  6  7  1  0
  7  8  2  0
  8  9  1  0
  9 10  1  0
 10 11  1  0
 11 12  2  0
 12 13  1  0
 13 14  2  0
 14 15  1  0
 14 16  1  0
 16 17  2  0
 10 18  1  0
 18 19  1  0
 19 20  1  0
 20 21  1  0
 21 22  1  0
 22 23  1  0
  8 24  1  0
 24 25  1  0
 25 26  1  0
 26 27  1  0
  9  5  2  0
 17 11  1  0
 23 18  1  0
 27  7  1  0
  1 28  1  0
  1 29  1  0
  1 30  1  0
  4 31  1  0
 10 32  1  0
 12 33  1  0
 13 34  1  0
 16 35  1  0
 17 36  1  0
 19 37  1  0
 19 38  1  0
 20 39  1  0
 20 40  1  0
 22 41  1  0
 22 42  1  0
 23 43  1  0
 23 44  1  0
 24 45  1  0
 24 46  1  0
 25 47  1  0
 25 48  1  0
 26 49  1  0
 26 50  1  0
 27 51  1  0
 27 52  1  0
M  END
$$$$
