
     RDKit          3D

 71 75  0  0  0  0  0  0  0  0999 V2000
   -2.5904    3.1382    5.4521 C   0  0  0  0  0  0  0  0  0  0  0  0
   -2.7380    3.6594    4.1365 O   0  0  0  0  0  0  0  0  0  0  0  0
   -2.3613    2.8432    3.1062 C   0  0  0  0  0  0  0  0  0  0  0  0
   -1.8547    1.5504    3.2247 C   0  0  0  0  0  0  0  0  0  0  0  0
   -1.5190    0.8141    2.0809 C   0  0  0  0  0  0  0  0  0  0  0  0
   -1.6759    1.3567    0.7977 C   0  0  0  0  0  0  0  0  0  0  0  0
   -1.3177    0.5860   -0.4722 C   0  0  0  0  0  0  0  0  0  0  0  0
   -1.8973   -0.8532   -0.5342 C   0  0  0  0  0  0  0  0  0  0  0  0
   -3.4316   -0.8488   -0.6665 C   0  0  0  0  0  0  0  0  0  0  0  0
   -4.0139   -2.2023   -0.6337 N   0  0  0  0  0  0  0  0  0  0  0  0
   -5.4896   -2.1166   -0.5423 C   0  0  0  0  0  0  0  0  0  0  0  0
   -6.1376   -3.5101   -0.5557 C   0  0  0  0  0  0  0  0  0  0  0  0
   -5.7853   -4.2297   -1.7452 O   0  0  0  0  0  0  0  0  0  0  0  0
   -4.3603   -4.3732   -1.8172 C   0  0  0  0  0  0  0  0  0  0  0  0
   -3.6598   -3.0031   -1.8264 C   0  0  0  0  0  0  0  0  0  0  0  0
    0.1788    0.6731   -0.8052 C   0  0  0  0  0  0  0  0  0  0  0  0
    0.6357    1.6258   -1.7318 C   0  0  0  0  0  0  0  0  0  0  0  0
   -0.2785    2.4445   -2.3494 O   0  0  0  0  0  0  0  0  0  0  0  0
    0.0368    3.8284   -2.1956 C   0  0  0  0  0  0  0  0  0  0  0  0
    1.9843    1.6896   -2.0948 C   0  0  0  0  0  0  0  0  0  0  0  0
    2.9279    0.8538   -1.4877 C   0  0  0  0  0  0  0  0  0  0  0  0
    4.2373    0.8882   -1.8947 O   0  0  0  0  0  0  0  0  0  0  0  0
    4.8045    2.1956   -1.9293 C   0  0  0  0  0  0  0  0  0  0  0  0
    2.5291   -0.0900   -0.5251 C   0  0  0  0  0  0  0  0  0  0  0  0
    3.4619   -1.0049    0.1779 C   0  0  0  0  0  0  0  0  0  0  0  0
    4.9283   -1.0889    0.0132 C   0  0  0  0  0  0  0  0  0  0  0  0
    5.4863   -1.9415   -0.9476 C   0  0  0  0  0  0  0  0  0  0  0  0
    6.8730   -2.0377   -1.0781 C   0  0  0  0  0  0  0  0  0  0  0  0
    7.7083   -1.2879   -0.2504 C   0  0  0  0  0  0  0  0  0  0  0  0
    7.1605   -0.4397    0.7107 C   0  0  0  0  0  0  0  0  0  0  0  0
    5.7747   -0.3394    0.8433 C   0  0  0  0  0  0  0  0  0  0  0  0
    2.9713   -1.8531    1.0955 C   0  0  0  0  0  0  0  0  0  0  0  0
    1.5545   -1.9264    1.4472 C   0  0  0  0  0  0  0  0  0  0  0  0
    1.1534   -2.6935    2.3135 O   0  0  0  0  0  0  0  0  0  0  0  0
    0.7102   -1.0821    0.7579 O   0  0  0  0  0  0  0  0  0  0  0  0
    1.1584   -0.1532   -0.2093 C   0  0  0  0  0  0  0  0  0  0  0  0
   -2.1806    2.6632    0.6930 C   0  0  0  0  0  0  0  0  0  0  0  0
   -2.5212    3.3937    1.8345 C   0  0  0  0  0  0  0  0  0  0  0  0
   -2.9476    3.8987    6.1543 H   0  0  0  0  0  0  0  0  0  0  0  0
   -3.2015    2.2396    5.5938 H   0  0  0  0  0  0  0  0  0  0  0  0
   -1.5366    2.9423    5.6819 H   0  0  0  0  0  0  0  0  0  0  0  0
   -1.7119    1.0776    4.1909 H   0  0  0  0  0  0  0  0  0  0  0  0
   -1.1379   -0.1956    2.2178 H   0  0  0  0  0  0  0  0  0  0  0  0
   -1.8465    1.0934   -1.2908 H   0  0  0  0  0  0  0  0  0  0  0  0
   -1.6265   -1.4419    0.3478 H   0  0  0  0  0  0  0  0  0  0  0  0
   -1.4609   -1.3603   -1.4031 H   0  0  0  0  0  0  0  0  0  0  0  0
   -3.8449   -0.2774    0.1734 H   0  0  0  0  0  0  0  0  0  0  0  0
   -3.7265   -0.3237   -1.5847 H   0  0  0  0  0  0  0  0  0  0  0  0
   -5.8821   -1.5352   -1.3878 H   0  0  0  0  0  0  0  0  0  0  0  0
   -5.7768   -1.6052    0.3840 H   0  0  0  0  0  0  0  0  0  0  0  0
   -5.8409   -4.0944    0.3237 H   0  0  0  0  0  0  0  0  0  0  0  0
   -7.2276   -3.4128   -0.5370 H   0  0  0  0  0  0  0  0  0  0  0  0
   -4.1278   -4.9139   -2.7409 H   0  0  0  0  0  0  0  0  0  0  0  0
   -4.0160   -4.9896   -0.9770 H   0  0  0  0  0  0  0  0  0  0  0  0
   -3.9479   -2.4621   -2.7382 H   0  0  0  0  0  0  0  0  0  0  0  0
   -2.5800   -3.1819   -1.8633 H   0  0  0  0  0  0  0  0  0  0  0  0
   -0.8701    4.4034   -2.4082 H   0  0  0  0  0  0  0  0  0  0  0  0
    0.8028    4.1349   -2.9142 H   0  0  0  0  0  0  0  0  0  0  0  0
    0.3479    4.0622   -1.1703 H   0  0  0  0  0  0  0  0  0  0  0  0
    2.2906    2.3653   -2.8872 H   0  0  0  0  0  0  0  0  0  0  0  0
    4.4827    2.8070   -1.0773 H   0  0  0  0  0  0  0  0  0  0  0  0
    5.8924    2.0902   -1.8727 H   0  0  0  0  0  0  0  0  0  0  0  0
    4.5645    2.6927   -2.8754 H   0  0  0  0  0  0  0  0  0  0  0  0
    4.8460   -2.5274   -1.6024 H   0  0  0  0  0  0  0  0  0  0  0  0
    7.3016   -2.6980   -1.8265 H   0  0  0  0  0  0  0  0  0  0  0  0
    8.7876   -1.3668   -0.3526 H   0  0  0  0  0  0  0  0  0  0  0  0
    7.8126    0.1422    1.3570 H   0  0  0  0  0  0  0  0  0  0  0  0
    5.3590    0.3253    1.5967 H   0  0  0  0  0  0  0  0  0  0  0  0
    3.6036   -2.5403    1.6485 H   0  0  0  0  0  0  0  0  0  0  0  0
   -2.3231    3.1231   -0.2832 H   0  0  0  0  0  0  0  0  0  0  0  0
   -2.9207    4.4000    1.7301 H   0  0  0  0  0  0  0  0  0  0  0  0
  1  2  1  0
  2  3  1  0
  3  4  2  0
  4  5  1  0
  5  6  2  0
  6  7  1  0
  7  8  1  0
  8  9  1  0
  9 10  1  0
 10 11  1  0
 11 12  1  0
 12 13  1  0
 13 14  1  0
 14 15  1  0
  7 16  1  0
 16 17  2  0
 17 18  1  0
 18 19  1  0
 17 20  1  0
 20 21  2  0
 21 22  1  0
 22 23  1  0
 21 24  1  0
 24 25  1  0
 25 26  1  0
 26 27  2  0
 27 28  1  0
 28 29  2  0
 29 30  1  0
 30 31  2  0
 25 32  2  0
 32 33  1  0
 33 34  2  0
 33 35  1  0
 35 36  1  0
  6 37  1  0
 37 38  2  0
 38  3  1  0
 15 10  1  0
 36 16  1  0
 36 24  2  0
 31 26  1  0
  1 39  1  0
  1 40  1  0
  1 41  1  0
  4 42  1  0
  5 43  1  0
  7 44  1  0
  8 45  1  0
  8 46  1  0
  9 47  1  0
  9 48  1  0
 11 49  1  0
 11 50  1  0
 12 51  1  0
 12 52  1  0
 14 53  1  0
 14 54  1  0
 15 55  1  0
 15 56  1  0
 19 57  1  0
 19 58  1  0
 19 59  1  0
 20 60  1  0
 23 61  1  0
 23 62  1  0
 23 63  1  0
 27 64  1  0
 28 65  1  0
 29 66  1  0
 30 67  1  0
 31 68  1  0
 32 69  1  0
 37 70  1  0
 38 71  1  0
M  END
$$$$
