
     RDKit          3D

 42 44  0  0  0  0  0  0  0  0999 V2000
   -4.9577    2.2444    5.0364 C   0  0  0  0  0  0  0  0  0  0  0  0
   -4.0220    1.0465    4.9756 C   0  0  0  0  0  0  0  0  0  0  0  0
   -3.2610    0.9307    3.6463 C   0  0  0  0  0  0  0  0  0  0  0  0
   -2.3116    2.1059    3.3948 C   0  0  0  0  0  0  0  0  0  0  0  0
   -1.4760    1.9173    2.1496 C   0  0  0  0  0  0  0  0  0  0  0  0
   -0.3423    1.0936    2.1733 C   0  0  0  0  0  0  0  0  0  0  0  0
    0.4332    0.9202    1.0227 C   0  0  0  0  0  0  0  0  0  0  0  0
    0.0985    1.5746   -0.1686 C   0  0  0  0  0  0  0  0  0  0  0  0
    0.9389    1.4005   -1.3444 C   0  0  0  0  0  0  0  0  0  0  0  0
    1.1893    2.4010   -2.2732 C   0  0  0  0  0  0  0  0  0  0  0  0
    2.2287    1.8200   -3.5014 S   0  0  0  0  0  0  0  0  0  0  0  0
    2.3417    0.2901   -2.6848 C   0  0  0  0  0  0  0  0  0  0  0  0
    3.1523   -0.7577   -3.2345 C   0  0  0  0  0  0  0  0  0  0  0  0
    4.5160   -0.4683   -3.5522 C   0  0  0  0  0  0  0  0  0  0  0  0
    5.6069   -0.1742   -3.7961 N   0  0  0  0  0  0  0  0  0  0  0  0
    2.5669   -1.9712   -3.3909 C   0  0  0  0  0  0  0  0  0  0  0  0
    3.1998   -3.1230   -3.9477 C   0  0  0  0  0  0  0  0  0  0  0  0
    2.6837   -4.4114   -4.0641 C   0  0  0  0  0  0  0  0  0  0  0  0
    3.6657   -5.2170   -4.7016 C   0  0  0  0  0  0  0  0  0  0  0  0
    4.7267   -4.3806   -4.9702 C   0  0  0  0  0  0  0  0  0  0  0  0
    4.4584   -3.1374   -4.5127 O   0  0  0  0  0  0  0  0  0  0  0  0
    1.5971    0.2106   -1.5968 N   0  0  0  0  0  0  0  0  0  0  0  0
   -1.0451    2.3837   -0.1975 C   0  0  0  0  0  0  0  0  0  0  0  0
   -1.8295    2.5495    0.9516 C   0  0  0  0  0  0  0  0  0  0  0  0
   -5.5150    2.2324    5.9810 H   0  0  0  0  0  0  0  0  0  0  0  0
   -5.6838    2.2454    4.2088 H   0  0  0  0  0  0  0  0  0  0  0  0
   -4.4001    3.1882    4.9900 H   0  0  0  0  0  0  0  0  0  0  0  0
   -4.6136    0.1343    5.1278 H   0  0  0  0  0  0  0  0  0  0  0  0
   -3.3061    1.0947    5.8049 H   0  0  0  0  0  0  0  0  0  0  0  0
   -3.9728    0.8471    2.8147 H   0  0  0  0  0  0  0  0  0  0  0  0
   -2.6877   -0.0051    3.6657 H   0  0  0  0  0  0  0  0  0  0  0  0
   -1.6456    2.2387    4.2546 H   0  0  0  0  0  0  0  0  0  0  0  0
   -2.8722    3.0367    3.3048 H   0  0  0  0  0  0  0  0  0  0  0  0
   -0.0519    0.5848    3.0906 H   0  0  0  0  0  0  0  0  0  0  0  0
    1.3075    0.2751    1.0651 H   0  0  0  0  0  0  0  0  0  0  0  0
    0.8381    3.4227   -2.2855 H   0  0  0  0  0  0  0  0  0  0  0  0
    1.5231   -2.0991   -3.0992 H   0  0  0  0  0  0  0  0  0  0  0  0
    1.6939   -4.7335   -3.7286 H   0  0  0  0  0  0  0  0  0  0  0  0
    3.6021   -6.2701   -4.9552 H   0  0  0  0  0  0  0  0  0  0  0  0
    5.6965   -4.5129   -5.4438 H   0  0  0  0  0  0  0  0  0  0  0  0
   -1.3565    2.8833   -1.1121 H   0  0  0  0  0  0  0  0  0  0  0  0
   -2.7144    3.1823    0.9026 H   0  0  0  0  0  0  0  0  0  0  0  0
  1  2  1  0
  2  3  1  0
  3  4  1  0
  4  5  1  0
  5  6  2  0
  6  7  1  0
  7  8  2  0
  8  9  1  0
  9 10  2  0
 10 11  1  0
 11 12  1  0
 12 13  1  0
 13 14  1  0
 14 15  3  0
 13 16  2  3
 16 17  1  0
 17 18  2  0
 18 19  1  0
 19 20  2  0
 20 21  1  0
 12 22  2  0
  8 23  1  0
 23 24  2  0
 24  5  1  0
 22  9  1  0
 21 17  1  0
  1 25  1  0
  1 26  1  0
  1 27  1  0
  2 28  1  0
  2 29  1  0
  3 30  1  0
  3 31  1  0
  4 32  1  0
  4 33  1  0
  6 34  1  0
  7 35  1  0
 10 36  1  0
 16 37  1  0
 18 38  1  0
 19 39  1  0
 20 40  1  0
 23 41  1  0
 24 42  1  0
M  END
$$$$
