
     RDKit          3D

 36 38  0  0  0  0  0  0  0  0999 V2000
    5.8979   -0.0015    0.4900 C   0  0  0  0  0  0  0  0  0  0  0  0
    4.4496   -0.3629    0.3320 C   0  0  0  0  0  0  0  0  0  0  0  0
    3.8732   -0.4316   -0.9441 C   0  0  0  0  0  0  0  0  0  0  0  0
    2.5203   -0.7386   -1.0926 C   0  0  0  0  0  0  0  0  0  0  0  0
    1.7380   -0.9634    0.0428 C   0  0  0  0  0  0  0  0  0  0  0  0
    0.0197   -1.3472   -0.1622 S   0  0  0  0  0  6  0  0  0  0  0  0
   -0.0757   -2.4160   -1.1319 O   0  0  0  0  0  0  0  0  0  0  0  0
   -0.5934   -1.4642    1.1433 O   0  0  0  0  0  0  0  0  0  0  0  0
   -0.6005    0.0718   -0.8828 N   0  0  0  0  0  0  0  0  0  0  0  0
   -0.6335    1.2587    0.0304 C   0  0  0  0  0  0  0  0  0  0  0  0
   -1.9160    1.5088    0.8250 C   0  0  0  0  0  0  0  0  0  0  0  0
   -1.9672    2.3993    1.6748 O   0  0  0  0  0  0  0  0  0  0  0  0
   -3.0256    0.7843    0.4721 N   0  0  0  0  0  0  0  0  0  0  0  0
   -4.3677    1.1294    0.8520 C   0  0  0  0  0  0  0  0  0  0  0  0
   -5.2015    0.1364    0.0660 C   0  0  0  0  0  0  0  0  0  0  0  0
   -4.3541   -0.2572   -1.0368 O   0  0  0  0  0  0  0  0  0  0  0  0
   -3.0299   -0.2865   -0.4868 C   0  0  0  0  0  0  0  0  0  0  0  0
   -1.9364   -0.1183   -1.5441 C   0  0  0  0  0  0  0  0  0  0  0  0
    2.2950   -0.8927    1.3211 C   0  0  0  0  0  0  0  0  0  0  0  0
    3.6491   -0.5844    1.4617 C   0  0  0  0  0  0  0  0  0  0  0  0
    6.3210   -0.4669    1.3864 H   0  0  0  0  0  0  0  0  0  0  0  0
    6.0053    1.0846    0.5704 H   0  0  0  0  0  0  0  0  0  0  0  0
    6.4839   -0.3533   -0.3655 H   0  0  0  0  0  0  0  0  0  0  0  0
    4.4785   -0.2504   -1.8302 H   0  0  0  0  0  0  0  0  0  0  0  0
    2.0830   -0.8012   -2.0866 H   0  0  0  0  0  0  0  0  0  0  0  0
   -0.4738    2.1435   -0.5988 H   0  0  0  0  0  0  0  0  0  0  0  0
    0.1999    1.2284    0.7388 H   0  0  0  0  0  0  0  0  0  0  0  0
   -4.5085    1.0588    1.9339 H   0  0  0  0  0  0  0  0  0  0  0  0
   -4.5608    2.1590    0.5326 H   0  0  0  0  0  0  0  0  0  0  0  0
   -6.1353    0.5621   -0.3101 H   0  0  0  0  0  0  0  0  0  0  0  0
   -5.4276   -0.7576    0.6580 H   0  0  0  0  0  0  0  0  0  0  0  0
   -2.9162   -1.2316    0.0560 H   0  0  0  0  0  0  0  0  0  0  0  0
   -1.9191   -0.9672   -2.2354 H   0  0  0  0  0  0  0  0  0  0  0  0
   -2.1407    0.7613   -2.1685 H   0  0  0  0  0  0  0  0  0  0  0  0
    1.6898   -1.0718    2.2070 H   0  0  0  0  0  0  0  0  0  0  0  0
    4.0794   -0.5217    2.4594 H   0  0  0  0  0  0  0  0  0  0  0  0
  1  2  1  0
  2  3  2  0
  3  4  1  0
  4  5  2  0
  5  6  1  0
  6  7  2  0
  6  8  2  0
  6  9  1  0
  9 10  1  0
 10 11  1  0
 11 12  2  0
 11 13  1  0
 13 14  1  0
 14 15  1  0
 15 16  1  0
 16 17  1  0
 17 18  1  0
  5 19  1  0
 19 20  2  0
 20  2  1  0
 18  9  1  0
 17 13  1  0
  1 21  1  0
  1 22  1  0
  1 23  1  0
  3 24  1  0
  4 25  1  0
 10 26  1  0
 10 27  1  0
 14 28  1  0
 14 29  1  0
 15 30  1  0
 15 31  1  0
 17 32  1  0
 18 33  1  0
 18 34  1  0
 19 35  1  0
 20 36  1  0
M  END
$$$$
