
     RDKit          3D

 38 40  0  0  0  0  0  0  0  0999 V2000
   -5.1683    3.2872    1.8656 C   0  0  0  0  0  0  0  0  0  0  0  0
   -5.3753    2.5353    0.6765 O   0  0  0  0  0  0  0  0  0  0  0  0
   -4.4642    1.5553    0.3991 C   0  0  0  0  0  0  0  0  0  0  0  0
   -4.7030    0.8496   -0.7786 C   0  0  0  0  0  0  0  0  0  0  0  0
   -3.8452   -0.1803   -1.1779 C   0  0  0  0  0  0  0  0  0  0  0  0
   -2.7280   -0.5345   -0.4082 C   0  0  0  0  0  0  0  0  0  0  0  0
   -1.8887   -1.5539   -0.8923 N   0  0  0  0  0  0  0  0  0  0  0  0
   -0.6010   -1.8529   -0.6006 C   0  0  0  0  0  0  0  0  0  0  0  0
   -0.1491   -3.0826   -0.7236 N   0  0  0  0  0  0  0  0  0  0  0  0
    1.1838   -3.1307   -0.4307 C   0  0  0  0  0  0  0  0  0  0  0  0
    1.7859   -4.3286   -0.4745 N   0  0  0  0  0  0  0  0  0  0  0  0
    1.7950   -1.9355   -0.1285 C   0  0  0  0  0  0  0  0  0  0  0  0
    3.1722   -1.7050    0.2510 C   0  0  0  0  0  0  0  0  0  0  0  0
    3.8647   -2.5613    0.8041 O   0  0  0  0  0  0  0  0  0  0  0  0
    3.8299   -0.3984   -0.0232 C   0  0  0  0  0  0  0  0  0  0  0  0
    4.6462    0.1629    0.9701 C   0  0  0  0  0  0  0  0  0  0  0  0
    5.2933    1.3775    0.7364 C   0  0  0  0  0  0  0  0  0  0  0  0
    5.1331    2.0149   -0.4894 C   0  0  0  0  0  0  0  0  0  0  0  0
    5.7554    3.1792   -0.7127 F   0  0  0  0  0  0  0  0  0  0  0  0
    4.3442    1.4577   -1.4911 C   0  0  0  0  0  0  0  0  0  0  0  0
    3.6945    0.2425   -1.2638 C   0  0  0  0  0  0  0  0  0  0  0  0
    0.6130   -0.6978   -0.1763 S   0  0  0  0  0  0  0  0  0  0  0  0
   -2.4977    0.1847    0.7688 C   0  0  0  0  0  0  0  0  0  0  0  0
   -3.3574    1.2172    1.1735 C   0  0  0  0  0  0  0  0  0  0  0  0
   -4.2186    3.8311    1.8287 H   0  0  0  0  0  0  0  0  0  0  0  0
   -5.9723    4.0259    1.9382 H   0  0  0  0  0  0  0  0  0  0  0  0
   -5.2237    2.6467    2.7521 H   0  0  0  0  0  0  0  0  0  0  0  0
   -5.5609    1.1051   -1.3957 H   0  0  0  0  0  0  0  0  0  0  0  0
   -4.0531   -0.6981   -2.1115 H   0  0  0  0  0  0  0  0  0  0  0  0
   -2.4069   -2.3255   -1.2994 H   0  0  0  0  0  0  0  0  0  0  0  0
    1.1865   -5.1469   -0.4495 H   0  0  0  0  0  0  0  0  0  0  0  0
    2.6601   -4.4575    0.0346 H   0  0  0  0  0  0  0  0  0  0  0  0
    4.7800   -0.3454    1.9232 H   0  0  0  0  0  0  0  0  0  0  0  0
    5.9245    1.8260    1.4974 H   0  0  0  0  0  0  0  0  0  0  0  0
    4.2476    1.9695   -2.4440 H   0  0  0  0  0  0  0  0  0  0  0  0
    3.1022   -0.1983   -2.0624 H   0  0  0  0  0  0  0  0  0  0  0  0
   -1.6674   -0.0649    1.4224 H   0  0  0  0  0  0  0  0  0  0  0  0
   -3.1314    1.7297    2.1026 H   0  0  0  0  0  0  0  0  0  0  0  0
  1  2  1  0
  2  3  1  0
  3  4  2  0
  4  5  1  0
  5  6  2  0
  6  7  1  0
  7  8  1  0
  8  9  2  0
  9 10  1  0
 10 11  1  0
 10 12  2  0
 12 13  1  0
 13 14  2  0
 13 15  1  0
 15 16  2  0
 16 17  1  0
 17 18  2  0
 18 19  1  0
 18 20  1  0
 20 21  2  0
 12 22  1  0
  6 23  1  0
 23 24  2  0
 24  3  1  0
 22  8  1  0
 21 15  1  0
  1 25  1  0
  1 26  1  0
  1 27  1  0
  4 28  1  0
  5 29  1  0
  7 30  1  0
 11 31  1  0
 11 32  1  0
 16 33  1  0
 17 34  1  0
 20 35  1  0
 21 36  1  0
 23 37  1  0
 24 38  1  0
M  END
$$$$
