
     RDKit          3D

 38 41  0  0  0  0  0  0  0  0999 V2000
    6.0800    1.8804   -1.4850 C   0  0  0  0  0  0  0  0  0  0  0  0
    5.2849    0.8111   -2.0460 N   0  0  0  0  0  0  0  0  0  0  0  0
    4.0988    0.5141   -1.4695 C   0  0  0  0  0  0  0  0  0  0  0  0
    3.7277    0.8842   -0.2618 N   0  0  0  0  0  0  0  0  0  0  0  0
    2.4764    0.4045   -0.0208 C   0  0  0  0  0  0  0  0  0  0  0  0
    1.8252    0.6063    1.1658 N   0  0  0  0  0  0  0  0  0  0  0  0
    0.5885    0.0583    1.4064 C   0  0  0  0  0  0  0  0  0  0  0  0
    0.0899    0.1074    2.5250 O   0  0  0  0  0  0  0  0  0  0  0  0
   -0.1054   -0.6372    0.2556 C   0  0  0  0  0  0  0  0  0  0  0  0
    0.5797   -0.8744   -0.8827 C   0  0  0  0  0  0  0  0  0  0  0  0
    1.8754   -0.3297   -1.0126 C   0  0  0  0  0  0  0  0  0  0  0  0
    2.9324   -0.4274   -2.3412 S   0  0  0  0  0  0  0  0  0  0  0  0
    0.1374   -1.7143   -1.9157 O   0  0  0  0  0  0  0  0  0  0  0  0
   -1.0977   -2.2515   -1.7945 C   0  0  0  0  0  0  0  0  0  0  0  0
   -1.3665   -3.3409   -2.4315 N   0  0  0  0  0  0  0  0  0  0  0  0
   -2.1195   -1.5235   -0.9701 C   0  0  0  0  0  0  0  0  0  0  0  0
   -2.5474   -0.3538   -1.7571 C   0  0  0  0  0  0  0  0  0  0  0  0
   -2.8475    0.5759   -2.3845 N   0  0  0  0  0  0  0  0  0  0  0  0
   -1.5101   -1.1764    0.4068 C   0  0  0  0  0  0  0  0  0  0  0  0
   -2.4996   -0.3493    1.2245 C   0  0  0  0  0  0  0  0  0  0  0  0
   -2.6106    1.0450    1.0906 C   0  0  0  0  0  0  0  0  0  0  0  0
   -3.5579    1.7589    1.8277 C   0  0  0  0  0  0  0  0  0  0  0  0
   -4.4082    1.0935    2.7065 C   0  0  0  0  0  0  0  0  0  0  0  0
   -4.3133   -0.2877    2.8505 C   0  0  0  0  0  0  0  0  0  0  0  0
   -3.3686   -1.0050    2.1140 C   0  0  0  0  0  0  0  0  0  0  0  0
    6.3060    1.7011   -0.4283 H   0  0  0  0  0  0  0  0  0  0  0  0
    7.0323    1.9460   -2.0203 H   0  0  0  0  0  0  0  0  0  0  0  0
    5.5687    2.8437   -1.5851 H   0  0  0  0  0  0  0  0  0  0  0  0
    5.3387    0.7139   -3.0540 H   0  0  0  0  0  0  0  0  0  0  0  0
    2.3138    1.0826    1.9108 H   0  0  0  0  0  0  0  0  0  0  0  0
   -0.5212   -3.6238   -2.9452 H   0  0  0  0  0  0  0  0  0  0  0  0
   -2.9847   -2.1838   -0.8251 H   0  0  0  0  0  0  0  0  0  0  0  0
   -1.3714   -2.1266    0.9473 H   0  0  0  0  0  0  0  0  0  0  0  0
   -1.9654    1.6005    0.4130 H   0  0  0  0  0  0  0  0  0  0  0  0
   -3.6304    2.8378    1.7149 H   0  0  0  0  0  0  0  0  0  0  0  0
   -5.1417    1.6525    3.2813 H   0  0  0  0  0  0  0  0  0  0  0  0
   -4.9735   -0.8071    3.5403 H   0  0  0  0  0  0  0  0  0  0  0  0
   -3.3155   -2.0833    2.2502 H   0  0  0  0  0  0  0  0  0  0  0  0
  1  2  1  0
  2  3  1  0
  3  4  2  0
  4  5  1  0
  5  6  1  0
  6  7  1  0
  7  8  2  0
  7  9  1  0
  9 10  2  0
 10 11  1  0
 11 12  1  0
 10 13  1  0
 13 14  1  0
 14 15  2  3
 14 16  1  0
 16 17  1  0
 17 18  3  0
 16 19  1  0
 19 20  1  0
 20 21  2  0
 21 22  1  0
 22 23  2  0
 23 24  1  0
 24 25  2  0
 12  3  1  0
 25 20  1  0
 11  5  2  0
 19  9  1  0
  1 26  1  0
  1 27  1  0
  1 28  1  0
  2 29  1  0
  6 30  1  0
 15 31  1  0
 16 32  1  0
 19 33  1  0
 21 34  1  0
 22 35  1  0
 23 36  1  0
 24 37  1  0
 25 38  1  0
M  END
$$$$
