
     RDKit          3D

 50 52  0  0  0  0  0  0  0  0999 V2000
    9.2458   -1.1557    0.9170 C   0  0  0  0  0  0  0  0  0  0  0  0
    8.7112    0.2667    0.9433 C   0  0  0  0  0  0  0  0  0  0  0  0
    7.3564    0.3552    0.3222 C   0  0  0  0  0  0  0  0  0  0  0  0
    6.2241    0.1488    0.9634 N   0  0  0  0  0  0  0  0  0  0  0  0
    5.1245    0.3066    0.1398 N   0  0  0  0  0  0  0  0  0  0  0  0
    5.4756    0.6337   -1.0812 C   0  0  0  0  0  0  0  0  0  0  0  0
    4.5104    0.8090   -2.1414 N   0  0  0  0  0  0  0  0  0  0  0  0
    3.5268    2.1521   -1.9180 S   0  0  0  0  0  6  0  0  0  0  0  0
    4.0825    3.0410   -0.9213 O   0  0  0  0  0  0  0  0  0  0  0  0
    3.2471    2.6396   -3.2548 O   0  0  0  0  0  0  0  0  0  0  0  0
    2.0380    1.4258   -1.2872 C   0  0  0  0  0  0  0  0  0  0  0  0
    1.8547    1.3095    0.0895 C   0  0  0  0  0  0  0  0  0  0  0  0
    0.6620    0.7683    0.5793 C   0  0  0  0  0  0  0  0  0  0  0  0
   -0.3542    0.3366   -0.2905 C   0  0  0  0  0  0  0  0  0  0  0  0
   -1.5149   -0.1834    0.3219 N   0  0  0  0  0  0  0  0  0  0  0  0
   -2.6245   -0.8430   -0.1544 C   0  0  0  0  0  0  0  0  0  0  0  0
   -2.9549   -1.4138   -1.6883 S   0  0  0  0  0  0  0  0  0  0  0  0
   -3.6067   -1.0833    0.7965 N   0  0  0  0  0  0  0  0  0  0  0  0
   -3.6429   -0.7056    2.1218 C   0  0  0  0  0  0  0  0  0  0  0  0
   -2.6831   -0.2340    2.7290 O   0  0  0  0  0  0  0  0  0  0  0  0
   -4.8985   -1.0008    2.8626 C   0  0  0  0  0  0  0  0  0  0  0  0
   -6.1683   -1.0124    2.4243 C   0  0  0  0  0  0  0  0  0  0  0  0
   -6.6383   -0.7150    1.0709 C   0  0  0  0  0  0  0  0  0  0  0  0
   -7.2769   -1.7161    0.3301 C   0  0  0  0  0  0  0  0  0  0  0  0
   -7.6972   -1.4630   -0.9773 C   0  0  0  0  0  0  0  0  0  0  0  0
   -7.4896   -0.2071   -1.5461 C   0  0  0  0  0  0  0  0  0  0  0  0
   -6.8698    0.7996   -0.8070 C   0  0  0  0  0  0  0  0  0  0  0  0
   -6.4472    0.5490    0.4996 C   0  0  0  0  0  0  0  0  0  0  0  0
   -0.1588    0.4830   -1.6649 C   0  0  0  0  0  0  0  0  0  0  0  0
    1.0305    1.0282   -2.1663 C   0  0  0  0  0  0  0  0  0  0  0  0
    7.1580    0.7314   -1.3465 S   0  0  0  0  0  0  0  0  0  0  0  0
    9.3630   -1.5190   -0.1097 H   0  0  0  0  0  0  0  0  0  0  0  0
   10.2222   -1.2056    1.4079 H   0  0  0  0  0  0  0  0  0  0  0  0
    8.5681   -1.8429    1.4350 H   0  0  0  0  0  0  0  0  0  0  0  0
    8.6468    0.6062    1.9839 H   0  0  0  0  0  0  0  0  0  0  0  0
    9.4172    0.9361    0.4379 H   0  0  0  0  0  0  0  0  0  0  0  0
    4.8920    0.8028   -3.0833 H   0  0  0  0  0  0  0  0  0  0  0  0
    2.6279    1.6282    0.7862 H   0  0  0  0  0  0  0  0  0  0  0  0
    0.5417    0.6802    1.6584 H   0  0  0  0  0  0  0  0  0  0  0  0
   -1.5216   -0.0903    1.3392 H   0  0  0  0  0  0  0  0  0  0  0  0
   -4.4214   -1.5400    0.4104 H   0  0  0  0  0  0  0  0  0  0  0  0
   -4.7162   -1.1808    3.9212 H   0  0  0  0  0  0  0  0  0  0  0  0
   -6.9619   -1.2494    3.1313 H   0  0  0  0  0  0  0  0  0  0  0  0
   -7.4439   -2.7033    0.7589 H   0  0  0  0  0  0  0  0  0  0  0  0
   -8.1813   -2.2466   -1.5553 H   0  0  0  0  0  0  0  0  0  0  0  0
   -7.8115   -0.0116   -2.5662 H   0  0  0  0  0  0  0  0  0  0  0  0
   -6.7105    1.7803   -1.2505 H   0  0  0  0  0  0  0  0  0  0  0  0
   -5.9644    1.3467    1.0601 H   0  0  0  0  0  0  0  0  0  0  0  0
   -0.9175    0.2158   -2.3895 H   0  0  0  0  0  0  0  0  0  0  0  0
    1.1497    1.1423   -3.2420 H   0  0  0  0  0  0  0  0  0  0  0  0
  1  2  1  0
  2  3  1  0
  3  4  2  0
  4  5  1  0
  5  6  2  0
  6  7  1  0
  7  8  1  0
  8  9  2  0
  8 10  2  0
  8 11  1  0
 11 12  2  0
 12 13  1  0
 13 14  2  0
 14 15  1  0
 15 16  1  0
 16 17  2  0
 16 18  1  0
 18 19  1  0
 19 20  2  0
 19 21  1  0
 21 22  2  3
 22 23  1  0
 23 24  2  0
 24 25  1  0
 25 26  2  0
 26 27  1  0
 27 28  2  0
 14 29  1  0
 29 30  2  0
  6 31  1  0
 31  3  1  0
 30 11  1  0
 28 23  1  0
  1 32  1  0
  1 33  1  0
  1 34  1  0
  2 35  1  0
  2 36  1  0
  7 37  1  0
 12 38  1  0
 13 39  1  0
 15 40  1  0
 18 41  1  0
 21 42  1  0
 22 43  1  0
 24 44  1  0
 25 45  1  0
 26 46  1  0
 27 47  1  0
 28 48  1  0
 29 49  1  0
 30 50  1  0
M  END
$$$$
