
     RDKit          3D

 33 35  0  0  0  0  0  0  0  0999 V2000
    2.9185   -2.5686   -3.9490 N   0  0  0  0  0  0  0  0  0  0  0  0
    2.6199   -2.0945   -2.9326 C   0  0  0  0  0  0  0  0  0  0  0  0
    2.2922   -1.4505   -1.7059 C   0  0  0  0  0  0  0  0  0  0  0  0
    3.1457   -0.5534   -1.1779 C   0  0  0  0  0  0  0  0  0  0  0  0
    2.9663    0.1115    0.0651 C   0  0  0  0  0  0  0  0  0  0  0  0
    2.5371   -0.3580    1.3025 C   0  0  0  0  0  0  0  0  0  0  0  0
    2.5362    0.7316    2.2054 C   0  0  0  0  0  0  0  0  0  0  0  0
    2.9807    1.8113    1.4885 C   0  0  0  0  0  0  0  0  0  0  0  0
    3.2459    1.4513    0.2099 O   0  0  0  0  0  0  0  0  0  0  0  0
    0.9975   -1.8507   -1.0803 C   0  0  0  0  0  0  0  0  0  0  0  0
    0.7803   -3.0361   -0.8639 O   0  0  0  0  0  0  0  0  0  0  0  0
    0.1583   -0.7820   -0.8209 N   0  0  0  0  0  0  0  0  0  0  0  0
   -1.1284   -0.8060   -0.2189 C   0  0  0  0  0  0  0  0  0  0  0  0
   -1.7944   -2.0112    0.0261 C   0  0  0  0  0  0  0  0  0  0  0  0
   -3.0612   -2.0146    0.5990 C   0  0  0  0  0  0  0  0  0  0  0  0
   -3.6736   -0.8110    0.9325 C   0  0  0  0  0  0  0  0  0  0  0  0
   -3.0532    0.4064    0.7140 C   0  0  0  0  0  0  0  0  0  0  0  0
   -3.7260    1.5121    1.0773 N   0  0  0  0  0  0  0  0  0  0  0  0
   -3.1425    2.7112    0.8878 C   0  0  0  0  0  0  0  0  0  0  0  0
   -1.8878    2.8673    0.3441 C   0  0  0  0  0  0  0  0  0  0  0  0
   -1.1941    1.7208   -0.0319 C   0  0  0  0  0  0  0  0  0  0  0  0
   -1.7609    0.4316    0.1343 C   0  0  0  0  0  0  0  0  0  0  0  0
    4.0454   -0.2806   -1.7272 H   0  0  0  0  0  0  0  0  0  0  0  0
    2.2544   -1.3783    1.5313 H   0  0  0  0  0  0  0  0  0  0  0  0
    2.2547    0.7248    3.2495 H   0  0  0  0  0  0  0  0  0  0  0  0
    3.1592    2.8500    1.7307 H   0  0  0  0  0  0  0  0  0  0  0  0
    0.5243    0.1339   -1.0378 H   0  0  0  0  0  0  0  0  0  0  0  0
   -1.3643   -2.9736   -0.2322 H   0  0  0  0  0  0  0  0  0  0  0  0
   -3.5746   -2.9554    0.7810 H   0  0  0  0  0  0  0  0  0  0  0  0
   -4.6659   -0.8234    1.3783 H   0  0  0  0  0  0  0  0  0  0  0  0
   -3.7325    3.5682    1.1992 H   0  0  0  0  0  0  0  0  0  0  0  0
   -1.4560    3.8535    0.2168 H   0  0  0  0  0  0  0  0  0  0  0  0
   -0.2011    1.8621   -0.4449 H   0  0  0  0  0  0  0  0  0  0  0  0
  1  2  3  0
  2  3  1  0
  3  4  2  3
  4  5  1  0
  5  6  2  0
  6  7  1  0
  7  8  2  0
  8  9  1  0
  3 10  1  0
 10 11  2  0
 10 12  1  0
 12 13  1  0
 13 14  2  0
 14 15  1  0
 15 16  2  0
 16 17  1  0
 17 18  2  0
 18 19  1  0
 19 20  2  0
 20 21  1  0
 21 22  2  0
  9  5  1  0
 22 13  1  0
 22 17  1  0
  4 23  1  0
  6 24  1  0
  7 25  1  0
  8 26  1  0
 12 27  1  0
 14 28  1  0
 15 29  1  0
 16 30  1  0
 19 31  1  0
 20 32  1  0
 21 33  1  0
M  END
$$$$
