
     RDKit          3D

 40 41  0  0  0  0  0  0  0  0999 V2000
    5.0480    2.3518   -0.9770 C   0  0  0  0  0  0  0  0  0  0  0  0
    4.7180    0.9110   -0.6390 C   0  0  0  0  0  0  0  0  0  0  0  0
    3.3041    0.8145   -0.4394 O   0  0  0  0  0  0  0  0  0  0  0  0
    2.8591   -0.4413   -0.1375 C   0  0  0  0  0  0  0  0  0  0  0  0
    3.6040   -1.4099   -0.0268 O   0  0  0  0  0  0  0  0  0  0  0  0
    1.4088   -0.5105    0.0665 C   0  0  0  0  0  0  0  0  0  0  0  0
    0.4644    0.4910   -0.1682 C   0  0  0  0  0  0  0  0  0  0  0  0
    0.6425    1.8608   -0.7368 C   0  0  0  0  0  0  0  0  0  0  0  0
   -0.7693    0.0052    0.2274 N   0  0  0  0  0  0  0  0  0  0  0  0
   -2.0057    0.7803    0.3025 C   0  0  0  0  0  0  0  0  0  0  0  0
   -2.6346    0.7430   -0.9690 O   0  0  0  0  0  0  0  0  0  0  0  0
   -3.6834    1.7004   -1.1244 C   0  0  0  0  0  0  0  0  0  0  0  0
   -4.8302    1.5679   -0.1165 C   0  0  0  0  0  0  0  0  0  0  0  0
   -5.4004    0.2669   -0.1757 O   0  0  0  0  0  0  0  0  0  0  0  0
   -0.6661   -1.3203    0.6041 C   0  0  0  0  0  0  0  0  0  0  0  0
   -1.6494   -2.2437    1.0043 C   0  0  0  0  0  0  0  0  0  0  0  0
   -1.2433   -3.5317    1.3607 C   0  0  0  0  0  0  0  0  0  0  0  0
    0.0955   -3.8825    1.3149 C   0  0  0  0  0  0  0  0  0  0  0  0
    0.4312   -5.1560    1.6758 O   0  0  0  0  0  0  0  0  0  0  0  0
    1.0705   -2.9712    0.9082 C   0  0  0  0  0  0  0  0  0  0  0  0
    0.6860   -1.6611    0.5361 C   0  0  0  0  0  0  0  0  0  0  0  0
    4.7314    3.0194   -0.1688 H   0  0  0  0  0  0  0  0  0  0  0  0
    4.5134    2.6682   -1.8787 H   0  0  0  0  0  0  0  0  0  0  0  0
    6.1219    2.4785   -1.1399 H   0  0  0  0  0  0  0  0  0  0  0  0
    5.2424    0.6170    0.2771 H   0  0  0  0  0  0  0  0  0  0  0  0
    5.0217    0.2591   -1.4657 H   0  0  0  0  0  0  0  0  0  0  0  0
   -0.2959    2.2958   -1.0912 H   0  0  0  0  0  0  0  0  0  0  0  0
    1.3128    1.8363   -1.6019 H   0  0  0  0  0  0  0  0  0  0  0  0
    1.0664    2.5307    0.0178 H   0  0  0  0  0  0  0  0  0  0  0  0
   -1.7485    1.8027    0.6003 H   0  0  0  0  0  0  0  0  0  0  0  0
   -2.6455    0.3396    1.0723 H   0  0  0  0  0  0  0  0  0  0  0  0
   -4.0797    1.5522   -2.1346 H   0  0  0  0  0  0  0  0  0  0  0  0
   -3.2552    2.7082   -1.0823 H   0  0  0  0  0  0  0  0  0  0  0  0
   -4.4828    1.7395    0.9062 H   0  0  0  0  0  0  0  0  0  0  0  0
   -5.6105    2.3004   -0.3459 H   0  0  0  0  0  0  0  0  0  0  0  0
   -6.1625    0.2514    0.4279 H   0  0  0  0  0  0  0  0  0  0  0  0
   -2.7029   -1.9814    1.0251 H   0  0  0  0  0  0  0  0  0  0  0  0
   -1.9831   -4.2651    1.6698 H   0  0  0  0  0  0  0  0  0  0  0  0
    1.3898   -5.2609    1.5562 H   0  0  0  0  0  0  0  0  0  0  0  0
    2.1168   -3.2562    0.8658 H   0  0  0  0  0  0  0  0  0  0  0  0
  1  2  1  0
  2  3  1  0
  3  4  1  0
  4  5  2  0
  4  6  1  0
  6  7  2  0
  7  8  1  0
  7  9  1  0
  9 10  1  0
 10 11  1  0
 11 12  1  0
 12 13  1  0
 13 14  1  0
  9 15  1  0
 15 16  2  0
 16 17  1  0
 17 18  2  0
 18 19  1  0
 18 20  1  0
 20 21  2  0
 21  6  1  0
 21 15  1  0
  1 22  1  0
  1 23  1  0
  1 24  1  0
  2 25  1  0
  2 26  1  0
  8 27  1  0
  8 28  1  0
  8 29  1  0
 10 30  1  0
 10 31  1  0
 12 32  1  0
 12 33  1  0
 13 34  1  0
 13 35  1  0
 14 36  1  0
 16 37  1  0
 17 38  1  0
 19 39  1  0
 20 40  1  0
M  END
$$$$
