
     RDKit          3D

 45 47  0  0  0  0  0  0  0  0999 V2000
    5.0249   -1.6612    0.3863 O   0  0  0  0  0  0  0  0  0  0  0  0
    3.8242   -1.4264    0.4642 C   0  0  0  0  0  0  0  0  0  0  0  0
    2.8926   -2.1457    1.4394 C   0  0  0  0  0  0  0  0  0  0  0  0
    1.5063   -1.6986    1.3932 N   0  0  0  0  0  0  0  0  0  0  0  0
    1.1103   -0.6111    2.1448 C   0  0  0  0  0  0  0  0  0  0  0  0
    1.8437   -0.0523    2.9519 O   0  0  0  0  0  0  0  0  0  0  0  0
   -0.2627   -0.0948    1.8880 C   0  0  0  0  0  0  0  0  0  0  0  0
   -0.5304    1.2504    2.1595 C   0  0  0  0  0  0  0  0  0  0  0  0
   -1.8062    1.7757    1.9291 C   0  0  0  0  0  0  0  0  0  0  0  0
   -2.8427    0.9692    1.4315 C   0  0  0  0  0  0  0  0  0  0  0  0
   -4.1859    1.5224    1.1918 C   0  0  0  0  0  0  0  0  0  0  0  0
   -4.8162    1.3796   -0.0559 C   0  0  0  0  0  0  0  0  0  0  0  0
   -6.0912    1.9047   -0.2839 C   0  0  0  0  0  0  0  0  0  0  0  0
   -6.7589    2.5812    0.7337 C   0  0  0  0  0  0  0  0  0  0  0  0
   -6.1529    2.7335    1.9780 C   0  0  0  0  0  0  0  0  0  0  0  0
   -4.8774    2.2088    2.2041 C   0  0  0  0  0  0  0  0  0  0  0  0
   -2.5623   -0.3844    1.1784 C   0  0  0  0  0  0  0  0  0  0  0  0
   -1.2876   -0.9161    1.4069 C   0  0  0  0  0  0  0  0  0  0  0  0
    3.1473   -0.5484   -0.3272 O   0  0  0  0  0  0  0  0  0  0  0  0
    3.9313    0.1570   -1.2942 C   0  0  0  0  0  0  0  0  0  0  0  0
    3.7639   -0.5095   -2.6356 C   0  0  0  0  0  0  0  0  0  0  0  0
    4.6936   -1.4639   -3.0737 C   0  0  0  0  0  0  0  0  0  0  0  0
    4.5260   -2.1021   -4.3047 C   0  0  0  0  0  0  0  0  0  0  0  0
    3.4242   -1.7941   -5.0994 C   0  0  0  0  0  0  0  0  0  0  0  0
    3.2153   -2.5822   -6.6146 Cl  0  0  0  0  0  0  0  0  0  0  0  0
    2.4864   -0.8560   -4.6727 C   0  0  0  0  0  0  0  0  0  0  0  0
    2.6533   -0.2181   -3.4414 C   0  0  0  0  0  0  0  0  0  0  0  0
    2.8862   -3.2071    1.1745 H   0  0  0  0  0  0  0  0  0  0  0  0
    3.2858   -2.0167    2.4523 H   0  0  0  0  0  0  0  0  0  0  0  0
    1.0004   -1.8863    0.5378 H   0  0  0  0  0  0  0  0  0  0  0  0
    0.2541    1.8971    2.5482 H   0  0  0  0  0  0  0  0  0  0  0  0
   -1.9840    2.8298    2.1355 H   0  0  0  0  0  0  0  0  0  0  0  0
   -4.3088    0.8649   -0.8691 H   0  0  0  0  0  0  0  0  0  0  0  0
   -6.5603    1.7869   -1.2572 H   0  0  0  0  0  0  0  0  0  0  0  0
   -7.7505    2.9895    0.5573 H   0  0  0  0  0  0  0  0  0  0  0  0
   -6.6722    3.2583    2.7756 H   0  0  0  0  0  0  0  0  0  0  0  0
   -4.4279    2.3299    3.1879 H   0  0  0  0  0  0  0  0  0  0  0  0
   -3.3507   -1.0440    0.8191 H   0  0  0  0  0  0  0  0  0  0  0  0
   -1.1251   -1.9759    1.2327 H   0  0  0  0  0  0  0  0  0  0  0  0
    3.5515    1.1843   -1.3410 H   0  0  0  0  0  0  0  0  0  0  0  0
    4.9883    0.2390   -1.0132 H   0  0  0  0  0  0  0  0  0  0  0  0
    5.5526   -1.7180   -2.4537 H   0  0  0  0  0  0  0  0  0  0  0  0
    5.2553   -2.8376   -4.6336 H   0  0  0  0  0  0  0  0  0  0  0  0
    1.6247   -0.6190   -5.2910 H   0  0  0  0  0  0  0  0  0  0  0  0
    1.9118    0.5072   -3.1123 H   0  0  0  0  0  0  0  0  0  0  0  0
  1  2  2  0
  2  3  1  0
  3  4  1  0
  4  5  1  0
  5  6  2  0
  5  7  1  0
  7  8  2  0
  8  9  1  0
  9 10  2  0
 10 11  1  0
 11 12  2  0
 12 13  1  0
 13 14  2  0
 14 15  1  0
 15 16  2  0
 10 17  1  0
 17 18  2  0
  2 19  1  0
 19 20  1  0
 20 21  1  0
 21 22  2  0
 22 23  1  0
 23 24  2  0
 24 25  1  0
 24 26  1  0
 26 27  2  0
 18  7  1  0
 27 21  1  0
 16 11  1  0
  3 28  1  0
  3 29  1  0
  4 30  1  0
  8 31  1  0
  9 32  1  0
 12 33  1  0
 13 34  1  0
 14 35  1  0
 15 36  1  0
 16 37  1  0
 17 38  1  0
 18 39  1  0
 20 40  1  0
 20 41  1  0
 22 42  1  0
 23 43  1  0
 26 44  1  0
 27 45  1  0
M  END
$$$$
