
     RDKit          3D

 36 37  0  0  0  0  0  0  0  0999 V2000
    5.7542    0.0726   -0.7626 C   0  0  0  0  0  0  0  0  0  0  0  0
    4.3606   -0.0058   -0.3655 N   0  0  0  0  0  0  0  0  0  0  0  0
    3.3633   -0.6760   -1.0519 C   0  0  0  0  0  0  0  0  0  0  0  0
    3.6450   -1.5396   -2.4659 S   0  0  0  0  0  0  0  0  0  0  0  0
    2.1063   -0.5421   -0.4396 N   0  0  0  0  0  0  0  0  0  0  0  0
    1.9666   -0.4894    1.0216 C   0  0  0  0  0  0  0  0  0  0  0  0
    0.8974    0.5201    1.4290 C   0  0  0  0  0  0  0  0  0  0  0  0
   -0.3963    0.2822    0.6929 C   0  0  0  0  0  0  0  0  0  0  0  0
   -1.5992    0.7886    1.2089 C   0  0  0  0  0  0  0  0  0  0  0  0
   -2.8069    0.5982    0.5283 C   0  0  0  0  0  0  0  0  0  0  0  0
   -4.0258    1.0538    0.9674 O   0  0  0  0  0  0  0  0  0  0  0  0
   -4.0612    1.7716    2.1918 C   0  0  0  0  0  0  0  0  0  0  0  0
   -2.8123   -0.1025   -0.6930 C   0  0  0  0  0  0  0  0  0  0  0  0
   -4.0367   -0.2514   -1.2971 O   0  0  0  0  0  0  0  0  0  0  0  0
   -4.0809   -0.9311   -2.5430 C   0  0  0  0  0  0  0  0  0  0  0  0
   -1.6092   -0.5947   -1.2120 C   0  0  0  0  0  0  0  0  0  0  0  0
   -0.3941   -0.3995   -0.5335 C   0  0  0  0  0  0  0  0  0  0  0  0
    0.8792   -0.9592   -1.1345 C   0  0  0  0  0  0  0  0  0  0  0  0
    5.8351    0.6656   -1.6775 H   0  0  0  0  0  0  0  0  0  0  0  0
    6.1579   -0.9297   -0.9264 H   0  0  0  0  0  0  0  0  0  0  0  0
    6.3099    0.5618    0.0412 H   0  0  0  0  0  0  0  0  0  0  0  0
    4.0234    0.7975    0.1461 H   0  0  0  0  0  0  0  0  0  0  0  0
    2.9082   -0.2540    1.5248 H   0  0  0  0  0  0  0  0  0  0  0  0
    1.6905   -1.4999    1.3516 H   0  0  0  0  0  0  0  0  0  0  0  0
    1.2403    1.5364    1.1997 H   0  0  0  0  0  0  0  0  0  0  0  0
    0.7357    0.4508    2.5109 H   0  0  0  0  0  0  0  0  0  0  0  0
   -1.5661    1.3298    2.1489 H   0  0  0  0  0  0  0  0  0  0  0  0
   -3.7298    1.1456    3.0268 H   0  0  0  0  0  0  0  0  0  0  0  0
   -3.4720    2.6923    2.1276 H   0  0  0  0  0  0  0  0  0  0  0  0
   -5.1005    2.0559    2.3829 H   0  0  0  0  0  0  0  0  0  0  0  0
   -5.1223   -0.9467   -2.8787 H   0  0  0  0  0  0  0  0  0  0  0  0
   -3.7507   -1.9698   -2.4382 H   0  0  0  0  0  0  0  0  0  0  0  0
   -3.4953   -0.4032   -3.3028 H   0  0  0  0  0  0  0  0  0  0  0  0
   -1.5868   -1.1365   -2.1526 H   0  0  0  0  0  0  0  0  0  0  0  0
    0.9386   -0.6370   -2.1801 H   0  0  0  0  0  0  0  0  0  0  0  0
    0.8340   -2.0547   -1.0991 H   0  0  0  0  0  0  0  0  0  0  0  0
  1  2  1  0
  2  3  1  0
  3  4  2  0
  3  5  1  0
  5  6  1  0
  6  7  1  0
  7  8  1  0
  8  9  2  0
  9 10  1  0
 10 11  1  0
 11 12  1  0
 10 13  2  0
 13 14  1  0
 14 15  1  0
 13 16  1  0
 16 17  2  0
 17 18  1  0
 18  5  1  0
 17  8  1  0
  1 19  1  0
  1 20  1  0
  1 21  1  0
  2 22  1  0
  6 23  1  0
  6 24  1  0
  7 25  1  0
  7 26  1  0
  9 27  1  0
 12 28  1  0
 12 29  1  0
 12 30  1  0
 15 31  1  0
 15 32  1  0
 15 33  1  0
 16 34  1  0
 18 35  1  0
 18 36  1  0
M  END
$$$$
