
     RDKit          3D

 59 63  0  0  0  0  0  0  0  0999 V2000
   -7.5881   -2.1534   -1.6200 C   0  0  0  0  0  0  0  0  0  0  0  0
   -6.6427   -1.5458   -0.6266 C   0  0  0  0  0  0  0  0  0  0  0  0
   -5.5634   -2.2861   -0.1322 C   0  0  0  0  0  0  0  0  0  0  0  0
   -4.7010   -1.7330    0.8167 C   0  0  0  0  0  0  0  0  0  0  0  0
   -4.9114   -0.4349    1.3003 C   0  0  0  0  0  0  0  0  0  0  0  0
   -3.9604    0.1658    2.3022 C   0  0  0  0  0  0  0  0  0  0  0  0
   -2.8084    0.7312    1.6374 N   0  0  0  0  0  0  0  0  0  0  0  0
   -1.6280    0.0340    1.5207 C   0  0  0  0  0  0  0  0  0  0  0  0
   -1.4427   -1.0413    2.0800 O   0  0  0  0  0  0  0  0  0  0  0  0
   -0.6324    0.6669    0.6864 C   0  0  0  0  0  0  0  0  0  0  0  0
   -0.5152    1.9794    0.2583 C   0  0  0  0  0  0  0  0  0  0  0  0
    0.6749    2.0577   -0.5122 C   0  0  0  0  0  0  0  0  0  0  0  0
    1.2608    3.2281   -1.1780 C   0  0  0  0  0  0  0  0  0  0  0  0
    0.7512    4.5187   -0.9694 C   0  0  0  0  0  0  0  0  0  0  0  0
    1.3208    5.6247   -1.6093 C   0  0  0  0  0  0  0  0  0  0  0  0
    2.4070    5.4558   -2.4648 C   0  0  0  0  0  0  0  0  0  0  0  0
    2.9262    4.1825   -2.6817 C   0  0  0  0  0  0  0  0  0  0  0  0
    2.3571    3.0776   -2.0426 C   0  0  0  0  0  0  0  0  0  0  0  0
    1.2593    0.8528   -0.5668 N   0  0  0  0  0  0  0  0  0  0  0  0
    0.4654    0.0378    0.1537 N   0  0  0  0  0  0  0  0  0  0  0  0
    0.8335   -1.3631    0.2409 C   0  0  0  0  0  0  0  0  0  0  0  0
    1.6878   -1.6825    1.4666 C   0  0  0  0  0  0  0  0  0  0  0  0
    3.0901   -1.1085    1.4408 C   0  0  0  0  0  0  0  0  0  0  0  0
    3.7832   -2.2559    0.7897 C   0  0  0  0  0  0  0  0  0  0  0  0
    5.1169   -2.1292    0.1723 C   0  0  0  0  0  0  0  0  0  0  0  0
    5.7018   -3.2308   -0.4561 C   0  0  0  0  0  0  0  0  0  0  0  0
    6.9635   -3.1044   -1.0331 C   0  0  0  0  0  0  0  0  0  0  0  0
    7.5993   -1.8759   -0.9598 C   0  0  0  0  0  0  0  0  0  0  0  0
    7.0651   -0.7902   -0.3587 N   0  0  0  0  0  0  0  0  0  0  0  0
    5.8353   -0.9410    0.1938 C   0  0  0  0  0  0  0  0  0  0  0  0
    3.1265   -3.3725    0.8413 N   0  0  0  0  0  0  0  0  0  0  0  0
    1.9054   -3.1049    1.5083 O   0  0  0  0  0  0  0  0  0  0  0  0
   -5.9961    0.3029    0.8088 C   0  0  0  0  0  0  0  0  0  0  0  0
   -6.8590   -0.2518   -0.1399 C   0  0  0  0  0  0  0  0  0  0  0  0
   -8.0232   -1.3840   -2.2666 H   0  0  0  0  0  0  0  0  0  0  0  0
   -8.3959   -2.6746   -1.0973 H   0  0  0  0  0  0  0  0  0  0  0  0
   -7.0680   -2.8659   -2.2689 H   0  0  0  0  0  0  0  0  0  0  0  0
   -5.3839   -3.2996   -0.4845 H   0  0  0  0  0  0  0  0  0  0  0  0
   -3.8597   -2.3221    1.1794 H   0  0  0  0  0  0  0  0  0  0  0  0
   -3.6586   -0.5852    3.0409 H   0  0  0  0  0  0  0  0  0  0  0  0
   -4.4494    0.9790    2.8501 H   0  0  0  0  0  0  0  0  0  0  0  0
   -2.9824    1.4880    0.9938 H   0  0  0  0  0  0  0  0  0  0  0  0
   -1.1918    2.7886    0.4902 H   0  0  0  0  0  0  0  0  0  0  0  0
   -0.0891    4.6903   -0.3035 H   0  0  0  0  0  0  0  0  0  0  0  0
    0.9169    6.6191   -1.4370 H   0  0  0  0  0  0  0  0  0  0  0  0
    2.8499    6.3155   -2.9609 H   0  0  0  0  0  0  0  0  0  0  0  0
    3.7746    4.0442   -3.3471 H   0  0  0  0  0  0  0  0  0  0  0  0
    2.7775    2.0904   -2.2269 H   0  0  0  0  0  0  0  0  0  0  0  0
    1.3577   -1.6277   -0.6868 H   0  0  0  0  0  0  0  0  0  0  0  0
   -0.0822   -1.9641    0.2297 H   0  0  0  0  0  0  0  0  0  0  0  0
    1.1732   -1.3829    2.3854 H   0  0  0  0  0  0  0  0  0  0  0  0
    3.1857   -0.1660    0.9043 H   0  0  0  0  0  0  0  0  0  0  0  0
    3.4908   -1.0017    2.4545 H   0  0  0  0  0  0  0  0  0  0  0  0
    5.1827   -4.1857   -0.4982 H   0  0  0  0  0  0  0  0  0  0  0  0
    7.4377   -3.9456   -1.5266 H   0  0  0  0  0  0  0  0  0  0  0  0
    8.5841   -1.7280   -1.3945 H   0  0  0  0  0  0  0  0  0  0  0  0
    5.4558   -0.0400    0.6650 H   0  0  0  0  0  0  0  0  0  0  0  0
   -6.1825    1.3136    1.1643 H   0  0  0  0  0  0  0  0  0  0  0  0
   -7.7023    0.3339   -0.4990 H   0  0  0  0  0  0  0  0  0  0  0  0
  1  2  1  0
  2  3  2  0
  3  4  1  0
  4  5  2  0
  5  6  1  0
  6  7  1  0
  7  8  1  0
  8  9  2  0
  8 10  1  0
 10 11  2  0
 11 12  1  0
 12 13  1  0
 13 14  2  0
 14 15  1  0
 15 16  2  0
 16 17  1  0
 17 18  2  0
 12 19  2  0
 19 20  1  0
 20 21  1  0
 21 22  1  0
 22 23  1  0
 23 24  1  0
 24 25  1  0
 25 26  2  0
 26 27  1  0
 27 28  2  0
 28 29  1  0
 29 30  2  0
 24 31  2  0
 31 32  1  0
  5 33  1  0
 33 34  2  0
 34  2  1  0
 20 10  1  0
 32 22  1  0
 18 13  1  0
 30 25  1  0
  1 35  1  0
  1 36  1  0
  1 37  1  0
  3 38  1  0
  4 39  1  0
  6 40  1  0
  6 41  1  0
  7 42  1  0
 11 43  1  0
 14 44  1  0
 15 45  1  0
 16 46  1  0
 17 47  1  0
 18 48  1  0
 21 49  1  0
 21 50  1  0
 22 51  1  0
 23 52  1  0
 23 53  1  0
 26 54  1  0
 27 55  1  0
 28 56  1  0
 30 57  1  0
 33 58  1  0
 34 59  1  0
M  END
$$$$
