
     RDKit          3D

 37 38  0  0  0  0  0  0  0  0999 V2000
   -4.9831   -0.8451   -1.7722 C   0  0  0  0  0  0  0  0  0  0  0  0
   -3.9903   -0.5052   -0.7524 N   0  0  0  0  0  0  0  0  0  0  0  0
   -2.6931   -0.1894   -1.1496 C   0  0  0  0  0  0  0  0  0  0  0  0
   -2.3758   -0.3176   -2.4972 N   0  0  0  0  0  0  0  0  0  0  0  0
   -1.8006    0.2416   -0.2262 C   0  0  0  0  0  0  0  0  0  0  0  0
   -0.3663    0.5176   -0.6079 C   0  0  0  0  0  0  0  0  0  0  0  0
   -0.0512    0.6259   -1.7985 O   0  0  0  0  0  0  0  0  0  0  0  0
    0.6856    0.5941    0.4991 C   0  0  0  0  0  0  0  0  0  0  0  0
    1.9911    0.4079   -0.0559 O   0  0  0  0  0  0  0  0  0  0  0  0
    2.9976    0.4968    0.8489 C   0  0  0  0  0  0  0  0  0  0  0  0
    2.8575    0.7072    2.0455 O   0  0  0  0  0  0  0  0  0  0  0  0
    4.3267    0.3002    0.1945 C   0  0  0  0  0  0  0  0  0  0  0  0
    5.4770    0.4357    0.9667 C   0  0  0  0  0  0  0  0  0  0  0  0
    6.7133    0.2510    0.3537 C   0  0  0  0  0  0  0  0  0  0  0  0
    6.7617   -0.0613   -1.0008 C   0  0  0  0  0  0  0  0  0  0  0  0
    5.5669   -0.1792   -1.6930 C   0  0  0  0  0  0  0  0  0  0  0  0
    4.3526   -0.0091   -1.1292 N   0  0  0  0  0  0  0  0  0  0  0  0
   -2.2586    0.4184    1.1709 C   0  0  0  0  0  0  0  0  0  0  0  0
   -1.5667    1.0453    1.9712 O   0  0  0  0  0  0  0  0  0  0  0  0
   -3.4707   -0.1353    1.5096 N   0  0  0  0  0  0  0  0  0  0  0  0
   -3.8954   -0.0565    2.8956 C   0  0  0  0  0  0  0  0  0  0  0  0
   -4.4164   -0.5059    0.5720 C   0  0  0  0  0  0  0  0  0  0  0  0
   -5.5667   -0.8028    0.8997 O   0  0  0  0  0  0  0  0  0  0  0  0
   -5.9928   -0.9247   -1.3601 H   0  0  0  0  0  0  0  0  0  0  0  0
   -4.7216   -1.8109   -2.2165 H   0  0  0  0  0  0  0  0  0  0  0  0
   -5.0014   -0.0677   -2.5432 H   0  0  0  0  0  0  0  0  0  0  0  0
   -1.3900   -0.0916   -2.6950 H   0  0  0  0  0  0  0  0  0  0  0  0
   -2.6011   -1.2371   -2.8645 H   0  0  0  0  0  0  0  0  0  0  0  0
    0.5038   -0.2059    1.2244 H   0  0  0  0  0  0  0  0  0  0  0  0
    0.6304    1.5869    0.9576 H   0  0  0  0  0  0  0  0  0  0  0  0
    5.4141    0.6814    2.0224 H   0  0  0  0  0  0  0  0  0  0  0  0
    7.6304    0.3514    0.9279 H   0  0  0  0  0  0  0  0  0  0  0  0
    7.7096   -0.2092   -1.5070 H   0  0  0  0  0  0  0  0  0  0  0  0
    5.5552   -0.4208   -2.7525 H   0  0  0  0  0  0  0  0  0  0  0  0
   -4.5662   -0.8857    3.1407 H   0  0  0  0  0  0  0  0  0  0  0  0
   -4.4299    0.8877    3.0417 H   0  0  0  0  0  0  0  0  0  0  0  0
   -3.0358   -0.0884    3.5718 H   0  0  0  0  0  0  0  0  0  0  0  0
  1  2  1  0
  2  3  1  0
  3  4  1  0
  3  5  2  0
  5  6  1  0
  6  7  2  0
  6  8  1  0
  8  9  1  0
  9 10  1  0
 10 11  2  0
 10 12  1  0
 12 13  2  0
 13 14  1  0
 14 15  2  0
 15 16  1  0
 16 17  2  0
  5 18  1  0
 18 19  2  0
 18 20  1  0
 20 21  1  0
 20 22  1  0
 22 23  2  0
 22  2  1  0
 17 12  1  0
  1 24  1  0
  1 25  1  0
  1 26  1  0
  4 27  1  0
  4 28  1  0
  8 29  1  0
  8 30  1  0
 13 31  1  0
 14 32  1  0
 15 33  1  0
 16 34  1  0
 21 35  1  0
 21 36  1  0
 21 37  1  0
M  END
$$$$
