
     RDKit          3D

 52 54  0  0  0  0  0  0  0  0999 V2000
    3.4928    1.9925    1.9945 C   0  0  0  0  0  0  0  0  0  0  0  0
    3.2706    0.7082    1.1949 C   0  0  0  0  0  0  0  0  0  0  0  0
    3.9692    0.7390   -0.1731 C   0  0  0  0  0  0  0  0  0  0  0  0
    5.4965    0.7603   -0.0702 C   0  0  0  0  0  0  0  0  0  0  0  0
    6.1399    0.6862   -1.4335 C   0  0  0  0  0  0  0  0  0  0  0  0
    6.4234    1.8562   -2.1506 C   0  0  0  0  0  0  0  0  0  0  0  0
    7.0015    1.7852   -3.4190 C   0  0  0  0  0  0  0  0  0  0  0  0
    7.2969    0.5456   -3.9834 C   0  0  0  0  0  0  0  0  0  0  0  0
    7.0133   -0.6241   -3.2809 C   0  0  0  0  0  0  0  0  0  0  0  0
    6.4355   -0.5553   -2.0123 C   0  0  0  0  0  0  0  0  0  0  0  0
    1.8391    0.4904    1.0053 N   0  0  0  0  0  0  0  0  0  0  0  0
    1.0596   -0.1100    1.9730 C   0  0  0  0  0  0  0  0  0  0  0  0
    1.5088   -0.5630    3.0193 O   0  0  0  0  0  0  0  0  0  0  0  0
   -0.3952   -0.2183    1.6769 C   0  0  0  0  0  0  0  0  0  0  0  0
   -1.0728    0.7340    0.9095 C   0  0  0  0  0  0  0  0  0  0  0  0
   -2.4434    0.5872    0.6632 C   0  0  0  0  0  0  0  0  0  0  0  0
   -3.1555   -0.5021    1.1842 C   0  0  0  0  0  0  0  0  0  0  0  0
   -4.5311   -0.5763    0.8800 N   0  0  0  0  0  0  0  0  0  0  0  0
   -5.4403   -1.5143    1.3354 C   0  0  0  0  0  0  0  0  0  0  0  0
   -5.2310   -2.4178    2.1346 O   0  0  0  0  0  0  0  0  0  0  0  0
   -6.8226   -1.3543    0.8044 C   0  0  0  0  0  0  0  0  0  0  0  0
   -7.0603   -0.9667   -0.5221 C   0  0  0  0  0  0  0  0  0  0  0  0
   -8.3712   -0.8316   -0.9844 C   0  0  0  0  0  0  0  0  0  0  0  0
   -9.4433   -1.0900   -0.1292 C   0  0  0  0  0  0  0  0  0  0  0  0
   -9.2022   -1.4933    1.1843 C   0  0  0  0  0  0  0  0  0  0  0  0
  -10.6591   -1.8543    2.3336 Br  0  0  0  0  0  0  0  0  0  0  0  0
   -7.8987   -1.6327    1.6556 C   0  0  0  0  0  0  0  0  0  0  0  0
   -2.4751   -1.4417    1.9602 C   0  0  0  0  0  0  0  0  0  0  0  0
   -1.1051   -1.2975    2.2115 C   0  0  0  0  0  0  0  0  0  0  0  0
    3.1429    2.8689    1.4377 H   0  0  0  0  0  0  0  0  0  0  0  0
    4.5495    2.1380    2.2362 H   0  0  0  0  0  0  0  0  0  0  0  0
    2.9420    1.9658    2.9413 H   0  0  0  0  0  0  0  0  0  0  0  0
    3.6614   -0.1354    1.7770 H   0  0  0  0  0  0  0  0  0  0  0  0
    3.6598   -0.1462   -0.7461 H   0  0  0  0  0  0  0  0  0  0  0  0
    3.6196    1.6053   -0.7510 H   0  0  0  0  0  0  0  0  0  0  0  0
    5.8413    1.6704    0.4340 H   0  0  0  0  0  0  0  0  0  0  0  0
    5.8472   -0.0792    0.5431 H   0  0  0  0  0  0  0  0  0  0  0  0
    6.1970    2.8308   -1.7243 H   0  0  0  0  0  0  0  0  0  0  0  0
    7.2221    2.6974   -3.9670 H   0  0  0  0  0  0  0  0  0  0  0  0
    7.7479    0.4909   -4.9706 H   0  0  0  0  0  0  0  0  0  0  0  0
    7.2421   -1.5912   -3.7209 H   0  0  0  0  0  0  0  0  0  0  0  0
    6.2171   -1.4769   -1.4773 H   0  0  0  0  0  0  0  0  0  0  0  0
    1.4190    0.7993    0.1402 H   0  0  0  0  0  0  0  0  0  0  0  0
   -0.5617    1.6099    0.5214 H   0  0  0  0  0  0  0  0  0  0  0  0
   -2.9460    1.3449    0.0672 H   0  0  0  0  0  0  0  0  0  0  0  0
   -4.8976    0.1819    0.3200 H   0  0  0  0  0  0  0  0  0  0  0  0
   -6.2387   -0.7993   -1.2138 H   0  0  0  0  0  0  0  0  0  0  0  0
   -8.5594   -0.5371   -2.0145 H   0  0  0  0  0  0  0  0  0  0  0  0
  -10.4611   -0.9858   -0.4976 H   0  0  0  0  0  0  0  0  0  0  0  0
   -7.7114   -1.9546    2.6780 H   0  0  0  0  0  0  0  0  0  0  0  0
   -2.9788   -2.3024    2.3899 H   0  0  0  0  0  0  0  0  0  0  0  0
   -0.5946   -2.0372    2.8261 H   0  0  0  0  0  0  0  0  0  0  0  0
  1  2  1  0
  2  3  1  0
  3  4  1  0
  4  5  1  0
  5  6  2  0
  6  7  1  0
  7  8  2  0
  8  9  1  0
  9 10  2  0
  2 11  1  0
 11 12  1  0
 12 13  2  0
 12 14  1  0
 14 15  2  0
 15 16  1  0
 16 17  2  0
 17 18  1  0
 18 19  1  0
 19 20  2  0
 19 21  1  0
 21 22  2  0
 22 23  1  0
 23 24  2  0
 24 25  1  0
 25 26  1  0
 25 27  2  0
 17 28  1  0
 28 29  2  0
 10  5  1  0
 29 14  1  0
 27 21  1  0
  1 30  1  0
  1 31  1  0
  1 32  1  0
  2 33  1  0
  3 34  1  0
  3 35  1  0
  4 36  1  0
  4 37  1  0
  6 38  1  0
  7 39  1  0
  8 40  1  0
  9 41  1  0
 10 42  1  0
 11 43  1  0
 15 44  1  0
 16 45  1  0
 18 46  1  0
 22 47  1  0
 23 48  1  0
 24 49  1  0
 27 50  1  0
 28 51  1  0
 29 52  1  0
M  END
$$$$
