
     RDKit          3D

 52 55  0  0  0  0  0  0  0  0999 V2000
   -3.5605   -1.0178    2.8561 C   0  0  0  0  0  0  0  0  0  0  0  0
   -4.7064   -0.0238    2.7621 C   0  0  0  0  0  0  0  0  0  0  0  0
   -4.4761    1.1166    1.7636 C   0  0  0  0  0  0  0  0  0  0  0  0
   -4.6098    0.7289    0.2869 C   0  0  0  0  0  0  0  0  0  0  0  0
   -3.3993    0.0793   -0.2835 C   0  0  0  0  0  0  0  0  0  0  0  0
   -3.3522   -1.2042   -0.6012 N   0  0  0  0  0  0  0  0  0  0  0  0
   -2.0879   -1.5080   -1.0292 N   0  0  0  0  0  0  0  0  0  0  0  0
   -1.3876   -0.4004   -0.9729 C   0  0  0  0  0  0  0  0  0  0  0  0
   -0.0182   -0.1988   -1.3315 C   0  0  0  0  0  0  0  0  0  0  0  0
    0.7593   -1.3215   -1.6804 N   0  0  0  0  0  0  0  0  0  0  0  0
    1.6866   -1.2860   -2.8225 C   0  0  0  0  0  0  0  0  0  0  0  0
    1.0827   -2.5006   -0.5014 S   0  0  0  0  0  6  0  0  0  0  0  0
    1.1121   -3.7948   -1.1510 O   0  0  0  0  0  0  0  0  0  0  0  0
    0.2856   -2.2604    0.6823 O   0  0  0  0  0  0  0  0  0  0  0  0
    2.7606   -2.1022   -0.0358 C   0  0  0  0  0  0  0  0  0  0  0  0
    3.0037   -0.9455    0.7102 C   0  0  0  0  0  0  0  0  0  0  0  0
    4.3122   -0.6270    1.0756 C   0  0  0  0  0  0  0  0  0  0  0  0
    5.3748   -1.4679    0.7163 C   0  0  0  0  0  0  0  0  0  0  0  0
    6.7840   -1.1072    1.0865 C   0  0  0  0  0  0  0  0  0  0  0  0
    5.1146   -2.6239   -0.0331 C   0  0  0  0  0  0  0  0  0  0  0  0
    3.8087   -2.9491   -0.4032 C   0  0  0  0  0  0  0  0  0  0  0  0
    0.4966    0.9895   -1.4013 N   0  0  0  0  0  0  0  0  0  0  0  0
   -0.3131    2.0886   -1.0329 C   0  0  0  0  0  0  0  0  0  0  0  0
    0.2673    3.3580   -1.0921 C   0  0  0  0  0  0  0  0  0  0  0  0
   -0.4655    4.4920   -0.7454 C   0  0  0  0  0  0  0  0  0  0  0  0
   -1.7912    4.3641   -0.3376 C   0  0  0  0  0  0  0  0  0  0  0  0
   -2.3943    3.1048   -0.2709 C   0  0  0  0  0  0  0  0  0  0  0  0
   -1.6588    1.9677   -0.6097 C   0  0  0  0  0  0  0  0  0  0  0  0
   -2.1787    0.6534   -0.5909 N   0  0  0  0  0  0  0  0  0  0  0  0
   -3.7103   -1.6790    3.7160 H   0  0  0  0  0  0  0  0  0  0  0  0
   -3.5037   -1.6523    1.9694 H   0  0  0  0  0  0  0  0  0  0  0  0
   -2.6009   -0.5079    2.9861 H   0  0  0  0  0  0  0  0  0  0  0  0
   -4.8442    0.4230    3.7547 H   0  0  0  0  0  0  0  0  0  0  0  0
   -5.6371   -0.5530    2.5272 H   0  0  0  0  0  0  0  0  0  0  0  0
   -5.2430    1.8755    1.9674 H   0  0  0  0  0  0  0  0  0  0  0  0
   -3.5103    1.5911    1.9698 H   0  0  0  0  0  0  0  0  0  0  0  0
   -4.8695    1.6053   -0.3155 H   0  0  0  0  0  0  0  0  0  0  0  0
   -5.4644    0.0494    0.1723 H   0  0  0  0  0  0  0  0  0  0  0  0
    1.1770   -0.8558   -3.6910 H   0  0  0  0  0  0  0  0  0  0  0  0
    2.5609   -0.6696   -2.5949 H   0  0  0  0  0  0  0  0  0  0  0  0
    2.0134   -2.2885   -3.1121 H   0  0  0  0  0  0  0  0  0  0  0  0
    2.1866   -0.2928    1.0079 H   0  0  0  0  0  0  0  0  0  0  0  0
    4.4988    0.2786    1.6493 H   0  0  0  0  0  0  0  0  0  0  0  0
    7.3946   -2.0061    1.2223 H   0  0  0  0  0  0  0  0  0  0  0  0
    6.8101   -0.5518    2.0299 H   0  0  0  0  0  0  0  0  0  0  0  0
    7.2307   -0.4910    0.3002 H   0  0  0  0  0  0  0  0  0  0  0  0
    5.9299   -3.2825   -0.3265 H   0  0  0  0  0  0  0  0  0  0  0  0
    3.6213   -3.8574   -0.9716 H   0  0  0  0  0  0  0  0  0  0  0  0
    1.3012    3.4613   -1.4132 H   0  0  0  0  0  0  0  0  0  0  0  0
   -0.0021    5.4744   -0.7962 H   0  0  0  0  0  0  0  0  0  0  0  0
   -2.3609    5.2526   -0.0719 H   0  0  0  0  0  0  0  0  0  0  0  0
   -3.4273    3.0728    0.0456 H   0  0  0  0  0  0  0  0  0  0  0  0
  1  2  1  0
  2  3  1  0
  3  4  1  0
  4  5  1  0
  5  6  2  0
  6  7  1  0
  7  8  2  0
  8  9  1  0
  9 10  1  0
 10 11  1  0
 10 12  1  0
 12 13  2  0
 12 14  2  0
 12 15  1  0
 15 16  2  0
 16 17  1  0
 17 18  2  0
 18 19  1  0
 18 20  1  0
 20 21  2  0
  9 22  2  0
 22 23  1  0
 23 24  2  0
 24 25  1  0
 25 26  2  0
 26 27  1  0
 27 28  2  0
 28 29  1  0
 29  5  1  0
 29  8  1  0
 21 15  1  0
 28 23  1  0
  1 30  1  0
  1 31  1  0
  1 32  1  0
  2 33  1  0
  2 34  1  0
  3 35  1  0
  3 36  1  0
  4 37  1  0
  4 38  1  0
 11 39  1  0
 11 40  1  0
 11 41  1  0
 16 42  1  0
 17 43  1  0
 19 44  1  0
 19 45  1  0
 19 46  1  0
 20 47  1  0
 21 48  1  0
 24 49  1  0
 25 50  1  0
 26 51  1  0
 27 52  1  0
M  END
$$$$
