
     RDKit          3D

 42 44  0  0  0  0  0  0  0  0999 V2000
   -2.9164    3.3290   -2.2361 C   0  0  0  0  0  0  0  0  0  0  0  0
   -3.7351    2.5539   -1.2193 C   0  0  0  0  0  0  0  0  0  0  0  0
   -2.8802    1.5826   -0.6184 O   0  0  0  0  0  0  0  0  0  0  0  0
   -3.4449    0.7316    0.3060 C   0  0  0  0  0  0  0  0  0  0  0  0
   -4.7657    0.8089    0.7589 C   0  0  0  0  0  0  0  0  0  0  0  0
   -5.2321   -0.0972    1.7122 C   0  0  0  0  0  0  0  0  0  0  0  0
   -4.3798   -1.0713    2.2239 C   0  0  0  0  0  0  0  0  0  0  0  0
   -3.0584   -1.1546    1.7780 C   0  0  0  0  0  0  0  0  0  0  0  0
   -2.5851   -0.2743    0.8044 C   0  0  0  0  0  0  0  0  0  0  0  0
   -1.2581   -0.2711    0.3105 N   0  0  0  0  0  0  0  0  0  0  0  0
   -0.2597   -1.2328    0.2932 C   0  0  0  0  0  0  0  0  0  0  0  0
   -0.4207   -2.8718    0.5767 S   0  0  0  0  0  0  0  0  0  0  0  0
    0.9402   -0.6230   -0.0665 N   0  0  0  0  0  0  0  0  0  0  0  0
    2.2512   -1.2684   -0.1461 C   0  0  0  0  0  0  0  0  0  0  0  0
    2.9070   -1.4361    1.2421 C   0  0  0  0  0  0  0  0  0  0  0  0
    4.2369   -0.6742    1.0925 C   0  0  0  0  0  0  0  0  0  0  0  0
    5.1586   -1.4540    0.1389 C   0  0  0  0  0  0  0  0  0  0  0  0
    4.5054   -1.2309   -1.2334 C   0  0  0  0  0  0  0  0  0  0  0  0
    3.2718   -0.3759   -0.8920 C   0  0  0  0  0  0  0  0  0  0  0  0
    3.8215    0.5126    0.2269 C   0  0  0  0  0  0  0  0  0  0  0  0
   -2.0627    3.8159   -1.7531 H   0  0  0  0  0  0  0  0  0  0  0  0
   -2.5098    2.6552   -2.9977 H   0  0  0  0  0  0  0  0  0  0  0  0
   -3.5263    4.0917   -2.7282 H   0  0  0  0  0  0  0  0  0  0  0  0
   -4.5702    2.0633   -1.7324 H   0  0  0  0  0  0  0  0  0  0  0  0
   -4.1120    3.2488   -0.4602 H   0  0  0  0  0  0  0  0  0  0  0  0
   -5.4561    1.5619    0.3954 H   0  0  0  0  0  0  0  0  0  0  0  0
   -6.2589   -0.0366    2.0641 H   0  0  0  0  0  0  0  0  0  0  0  0
   -4.7377   -1.7662    2.9798 H   0  0  0  0  0  0  0  0  0  0  0  0
   -2.4179   -1.8988    2.2363 H   0  0  0  0  0  0  0  0  0  0  0  0
   -1.0927    0.5107   -0.3157 H   0  0  0  0  0  0  0  0  0  0  0  0
    0.9576    0.3748    0.0955 H   0  0  0  0  0  0  0  0  0  0  0  0
    2.1352   -2.2331   -0.6515 H   0  0  0  0  0  0  0  0  0  0  0  0
    2.2987   -0.9878    2.0364 H   0  0  0  0  0  0  0  0  0  0  0  0
    3.0683   -2.4905    1.4898 H   0  0  0  0  0  0  0  0  0  0  0  0
    4.7056   -0.4229    2.0459 H   0  0  0  0  0  0  0  0  0  0  0  0
    5.2262   -2.5161    0.3949 H   0  0  0  0  0  0  0  0  0  0  0  0
    6.1713   -1.0353    0.1456 H   0  0  0  0  0  0  0  0  0  0  0  0
    5.1890   -0.6819   -1.8910 H   0  0  0  0  0  0  0  0  0  0  0  0
    4.2446   -2.1737   -1.7244 H   0  0  0  0  0  0  0  0  0  0  0  0
    2.8605    0.1591   -1.7511 H   0  0  0  0  0  0  0  0  0  0  0  0
    3.0635    1.1465    0.6977 H   0  0  0  0  0  0  0  0  0  0  0  0
    4.6673    1.1316   -0.0911 H   0  0  0  0  0  0  0  0  0  0  0  0
  1  2  1  0
  2  3  1  0
  3  4  1  0
  4  5  2  0
  5  6  1  0
  6  7  2  0
  7  8  1  0
  8  9  2  0
  9 10  1  0
 10 11  1  0
 11 12  2  0
 11 13  1  0
 13 14  1  0
 14 15  1  0
 15 16  1  0
 16 17  1  0
 17 18  1  0
 18 19  1  0
 19 20  1  0
  9  4  1  0
 19 14  1  0
 20 16  1  0
  1 21  1  0
  1 22  1  0
  1 23  1  0
  2 24  1  0
  2 25  1  0
  5 26  1  0
  6 27  1  0
  7 28  1  0
  8 29  1  0
 10 30  1  0
 13 31  1  0
 14 32  1  0
 15 33  1  0
 15 34  1  0
 16 35  1  0
 17 36  1  0
 17 37  1  0
 18 38  1  0
 18 39  1  0
 19 40  1  0
 20 41  1  0
 20 42  1  0
M  END
$$$$
