
     RDKit          3D

 44 47  0  0  0  0  0  0  0  0999 V2000
   -6.6711    0.0436   -2.4587 C   0  0  0  0  0  0  0  0  0  0  0  0
   -5.8195    0.9123   -1.7224 O   0  0  0  0  0  0  0  0  0  0  0  0
   -4.6756    0.3670   -1.2087 C   0  0  0  0  0  0  0  0  0  0  0  0
   -4.2676   -0.9596   -1.3373 C   0  0  0  0  0  0  0  0  0  0  0  0
   -3.0668   -1.3879   -0.7580 C   0  0  0  0  0  0  0  0  0  0  0  0
   -2.2538   -0.4969   -0.0424 C   0  0  0  0  0  0  0  0  0  0  0  0
   -0.9584   -0.9860    0.5867 C   0  0  0  0  0  0  0  0  0  0  0  0
    0.2387   -0.1816    0.1307 C   0  0  0  0  0  0  0  0  0  0  0  0
    1.2657    0.1308    0.9414 C   0  0  0  0  0  0  0  0  0  0  0  0
    2.3897    0.9278    0.4148 C   0  0  0  0  0  0  0  0  0  0  0  0
    2.2966    2.3170    0.5110 C   0  0  0  0  0  0  0  0  0  0  0  0
    3.3374    3.0760    0.0190 C   0  0  0  0  0  0  0  0  0  0  0  0
    4.4412    2.5536   -0.5520 N   0  0  0  0  0  0  0  0  0  0  0  0
    4.5344    1.2190   -0.6550 C   0  0  0  0  0  0  0  0  0  0  0  0
    5.6704    0.6856   -1.2499 C   0  0  0  0  0  0  0  0  0  0  0  0
    5.8481   -0.6919   -1.4012 C   0  0  0  0  0  0  0  0  0  0  0  0
    4.8658   -1.5587   -0.9468 C   0  0  0  0  0  0  0  0  0  0  0  0
    5.0671   -3.2563   -1.1286 Cl  0  0  0  0  0  0  0  0  0  0  0  0
    3.7158   -1.0555   -0.3445 C   0  0  0  0  0  0  0  0  0  0  0  0
    3.5305    0.3405   -0.1874 C   0  0  0  0  0  0  0  0  0  0  0  0
    1.3662   -0.3036    2.3786 C   0  0  0  0  0  0  0  0  0  0  0  0
    0.2607   -1.2840    2.7298 C   0  0  0  0  0  0  0  0  0  0  0  0
    0.4320   -2.1826    3.5540 O   0  0  0  0  0  0  0  0  0  0  0  0
   -1.0916   -1.0304    2.1125 C   0  0  0  0  0  0  0  0  0  0  0  0
   -2.6742    0.8351    0.0835 C   0  0  0  0  0  0  0  0  0  0  0  0
   -3.8728    1.2588   -0.4960 C   0  0  0  0  0  0  0  0  0  0  0  0
   -7.5317    0.6280   -2.7982 H   0  0  0  0  0  0  0  0  0  0  0  0
   -6.1635   -0.3478   -3.3465 H   0  0  0  0  0  0  0  0  0  0  0  0
   -7.0479   -0.7681   -1.8277 H   0  0  0  0  0  0  0  0  0  0  0  0
   -4.8587   -1.6892   -1.8808 H   0  0  0  0  0  0  0  0  0  0  0  0
   -2.7744   -2.4299   -0.8731 H   0  0  0  0  0  0  0  0  0  0  0  0
   -0.7713   -2.0104    0.2332 H   0  0  0  0  0  0  0  0  0  0  0  0
    0.2485    0.1328   -0.9133 H   0  0  0  0  0  0  0  0  0  0  0  0
    1.4342    2.8015    0.9560 H   0  0  0  0  0  0  0  0  0  0  0  0
    3.3134    4.1610    0.0704 H   0  0  0  0  0  0  0  0  0  0  0  0
    6.4416    1.3645   -1.6082 H   0  0  0  0  0  0  0  0  0  0  0  0
    6.7506   -1.0709   -1.8727 H   0  0  0  0  0  0  0  0  0  0  0  0
    2.9585   -1.7540    0.0030 H   0  0  0  0  0  0  0  0  0  0  0  0
    1.2808    0.5589    3.0481 H   0  0  0  0  0  0  0  0  0  0  0  0
    2.3255   -0.8014    2.5597 H   0  0  0  0  0  0  0  0  0  0  0  0
   -1.7819   -1.8280    2.4117 H   0  0  0  0  0  0  0  0  0  0  0  0
   -1.4750   -0.0922    2.5316 H   0  0  0  0  0  0  0  0  0  0  0  0
   -2.0732    1.5578    0.6307 H   0  0  0  0  0  0  0  0  0  0  0  0
   -4.1845    2.2953   -0.3914 H   0  0  0  0  0  0  0  0  0  0  0  0
  1  2  1  0
  2  3  1  0
  3  4  2  0
  4  5  1  0
  5  6  2  0
  6  7  1  0
  7  8  1  0
  8  9  2  0
  9 10  1  0
 10 11  2  0
 11 12  1  0
 12 13  2  0
 13 14  1  0
 14 15  2  0
 15 16  1  0
 16 17  2  0
 17 18  1  0
 17 19  1  0
 19 20  2  0
  9 21  1  0
 21 22  1  0
 22 23  2  0
 22 24  1  0
  6 25  1  0
 25 26  2  0
 26  3  1  0
 24  7  1  0
 20 10  1  0
 20 14  1  0
  1 27  1  0
  1 28  1  0
  1 29  1  0
  4 30  1  0
  5 31  1  0
  7 32  1  0
  8 33  1  0
 11 34  1  0
 12 35  1  0
 15 36  1  0
 16 37  1  0
 19 38  1  0
 21 39  1  0
 21 40  1  0
 24 41  1  0
 24 42  1  0
 25 43  1  0
 26 44  1  0
M  END
$$$$
