
     RDKit          3D

 63 67  0  0  0  0  0  0  0  0999 V2000
   -5.1402    5.9979    2.0773 C   0  0  0  0  0  0  0  0  0  0  0  0
   -3.8030    5.7583    1.6567 O   0  0  0  0  0  0  0  0  0  0  0  0
   -3.5123    4.5000    1.2017 C   0  0  0  0  0  0  0  0  0  0  0  0
   -2.1899    4.3183    0.8144 C   0  0  0  0  0  0  0  0  0  0  0  0
   -1.7460    3.0841    0.3288 C   0  0  0  0  0  0  0  0  0  0  0  0
   -2.6392    1.9889    0.2229 C   0  0  0  0  0  0  0  0  0  0  0  0
   -2.4267    0.6357   -0.2410 C   0  0  0  0  0  0  0  0  0  0  0  0
   -1.1603    0.0825   -0.7077 C   0  0  0  0  0  0  0  0  0  0  0  0
   -0.1283   -0.1633    0.2037 C   0  0  0  0  0  0  0  0  0  0  0  0
    1.0941   -0.6873   -0.2325 C   0  0  0  0  0  0  0  0  0  0  0  0
    1.2943   -0.9672   -1.5843 C   0  0  0  0  0  0  0  0  0  0  0  0
    2.4306   -1.4735   -2.1499 O   0  0  0  0  0  0  0  0  0  0  0  0
    3.5451   -1.7793   -1.3067 C   0  0  0  0  0  0  0  0  0  0  0  0
    4.4166   -0.5315   -1.0772 C   0  0  0  0  0  0  0  0  0  0  0  0
    5.6493   -0.7937   -0.3135 N   0  0  0  0  0  0  0  0  0  0  0  0
    5.3604   -1.2559    1.0630 C   0  0  0  0  0  0  0  0  0  0  0  0
    6.5121   -0.9460    2.0315 C   0  0  0  0  0  0  0  0  0  0  0  0
    6.7326    0.4623    2.1870 O   0  0  0  0  0  0  0  0  0  0  0  0
    6.4158    1.2150    1.0079 C   0  0  0  0  0  0  0  0  0  0  0  0
    6.5337    0.3938   -0.2858 C   0  0  0  0  0  0  0  0  0  0  0  0
    0.2615   -0.7164   -2.4927 C   0  0  0  0  0  0  0  0  0  0  0  0
   -0.9601   -0.1930   -2.0619 C   0  0  0  0  0  0  0  0  0  0  0  0
   -3.5811   -0.1289   -0.1895 C   0  0  0  0  0  0  0  0  0  0  0  0
   -3.7995   -1.5375   -0.5504 C   0  0  0  0  0  0  0  0  0  0  0  0
   -4.4892   -1.8346   -1.7386 C   0  0  0  0  0  0  0  0  0  0  0  0
   -4.6960   -3.1566   -2.1286 C   0  0  0  0  0  0  0  0  0  0  0  0
   -4.2162   -4.1938   -1.3349 C   0  0  0  0  0  0  0  0  0  0  0  0
   -3.5283   -3.9140   -0.1506 C   0  0  0  0  0  0  0  0  0  0  0  0
   -3.3093   -2.5901    0.2500 C   0  0  0  0  0  0  0  0  0  0  0  0
   -2.6598   -2.2329    1.4055 O   0  0  0  0  0  0  0  0  0  0  0  0
   -1.9374   -3.2491    2.0863 C   0  0  0  0  0  0  0  0  0  0  0  0
   -4.9064    0.7709    0.4084 S   0  0  0  0  0  0  0  0  0  0  0  0
   -3.9634    2.1942    0.6123 C   0  0  0  0  0  0  0  0  0  0  0  0
   -4.4156    3.4395    1.1042 C   0  0  0  0  0  0  0  0  0  0  0  0
   -5.4085    5.3577    2.9241 H   0  0  0  0  0  0  0  0  0  0  0  0
   -5.2036    7.0375    2.4130 H   0  0  0  0  0  0  0  0  0  0  0  0
   -5.8434    5.8729    1.2473 H   0  0  0  0  0  0  0  0  0  0  0  0
   -1.4883    5.1462    0.8880 H   0  0  0  0  0  0  0  0  0  0  0  0
   -0.7071    2.9706    0.0289 H   0  0  0  0  0  0  0  0  0  0  0  0
   -0.2765    0.0421    1.2618 H   0  0  0  0  0  0  0  0  0  0  0  0
    1.8608   -0.8602    0.5136 H   0  0  0  0  0  0  0  0  0  0  0  0
    4.1398   -2.5255   -1.8477 H   0  0  0  0  0  0  0  0  0  0  0  0
    3.2266   -2.2688   -0.3801 H   0  0  0  0  0  0  0  0  0  0  0  0
    4.6824   -0.1456   -2.0707 H   0  0  0  0  0  0  0  0  0  0  0  0
    3.8284    0.2641   -0.6033 H   0  0  0  0  0  0  0  0  0  0  0  0
    5.1812   -2.3363    1.0489 H   0  0  0  0  0  0  0  0  0  0  0  0
    4.4565   -0.7656    1.4477 H   0  0  0  0  0  0  0  0  0  0  0  0
    6.2892   -1.3531    3.0231 H   0  0  0  0  0  0  0  0  0  0  0  0
    7.4468   -1.4084    1.6931 H   0  0  0  0  0  0  0  0  0  0  0  0
    5.4013    1.6140    1.1221 H   0  0  0  0  0  0  0  0  0  0  0  0
    7.0988    2.0699    0.9736 H   0  0  0  0  0  0  0  0  0  0  0  0
    6.3745    1.0390   -1.1578 H   0  0  0  0  0  0  0  0  0  0  0  0
    7.5639    0.0240   -0.3657 H   0  0  0  0  0  0  0  0  0  0  0  0
    0.4091   -0.9317   -3.5483 H   0  0  0  0  0  0  0  0  0  0  0  0
   -1.7473   -0.0051   -2.7874 H   0  0  0  0  0  0  0  0  0  0  0  0
   -4.8643   -1.0303   -2.3677 H   0  0  0  0  0  0  0  0  0  0  0  0
   -5.2307   -3.3752   -3.0491 H   0  0  0  0  0  0  0  0  0  0  0  0
   -4.3796   -5.2260   -1.6349 H   0  0  0  0  0  0  0  0  0  0  0  0
   -3.1831   -4.7540    0.4427 H   0  0  0  0  0  0  0  0  0  0  0  0
   -2.6182   -3.9792    2.5352 H   0  0  0  0  0  0  0  0  0  0  0  0
   -1.2124   -3.7358    1.4253 H   0  0  0  0  0  0  0  0  0  0  0  0
   -1.3785   -2.7739    2.8983 H   0  0  0  0  0  0  0  0  0  0  0  0
   -5.4552    3.5400    1.3934 H   0  0  0  0  0  0  0  0  0  0  0  0
  1  2  1  0
  2  3  1  0
  3  4  2  0
  4  5  1  0
  5  6  2  0
  6  7  1  0
  7  8  1  0
  8  9  2  0
  9 10  1  0
 10 11  2  0
 11 12  1  0
 12 13  1  0
 13 14  1  0
 14 15  1  0
 15 16  1  0
 16 17  1  0
 17 18  1  0
 18 19  1  0
 19 20  1  0
 11 21  1  0
 21 22  2  0
  7 23  2  0
 23 24  1  0
 24 25  2  0
 25 26  1  0
 26 27  2  0
 27 28  1  0
 28 29  2  0
 29 30  1  0
 30 31  1  0
 23 32  1  0
 32 33  1  0
 33 34  2  0
 34  3  1  0
 33  6  1  0
 22  8  1  0
 29 24  1  0
 20 15  1  0
  1 35  1  0
  1 36  1  0
  1 37  1  0
  4 38  1  0
  5 39  1  0
  9 40  1  0
 10 41  1  0
 13 42  1  0
 13 43  1  0
 14 44  1  0
 14 45  1  0
 16 46  1  0
 16 47  1  0
 17 48  1  0
 17 49  1  0
 19 50  1  0
 19 51  1  0
 20 52  1  0
 20 53  1  0
 21 54  1  0
 22 55  1  0
 25 56  1  0
 26 57  1  0
 27 58  1  0
 28 59  1  0
 31 60  1  0
 31 61  1  0
 31 62  1  0
 34 63  1  0
M  END
$$$$
