
     RDKit          3D

 44 46  0  0  0  0  0  0  0  0999 V2000
    8.6306   -0.3740   -1.2811 C   0  0  0  0  0  0  0  0  0  0  0  0
    7.9634   -0.3428   -0.0225 O   0  0  0  0  0  0  0  0  0  0  0  0
    6.5990   -0.2549   -0.0476 C   0  0  0  0  0  0  0  0  0  0  0  0
    5.9981   -0.1721    1.2102 C   0  0  0  0  0  0  0  0  0  0  0  0
    4.6080   -0.0764    1.3427 C   0  0  0  0  0  0  0  0  0  0  0  0
    3.7957   -0.0612    0.2073 C   0  0  0  0  0  0  0  0  0  0  0  0
    2.4294    0.0234    0.2288 O   0  0  0  0  0  0  0  0  0  0  0  0
    1.7931    0.2536    1.4820 C   0  0  0  0  0  0  0  0  0  0  0  0
    0.3468    0.3855    1.1983 C   0  0  0  0  0  0  0  0  0  0  0  0
   -0.5926   -0.4254    0.6114 C   0  0  0  0  0  0  0  0  0  0  0  0
   -1.7990    0.3242    0.6532 C   0  0  0  0  0  0  0  0  0  0  0  0
   -3.1174   -0.1326    0.1839 C   0  0  0  0  0  0  0  0  0  0  0  0
   -3.3495   -1.3414    0.1246 O   0  0  0  0  0  0  0  0  0  0  0  0
   -4.0970    0.8114   -0.1646 N   0  0  0  0  0  0  0  0  0  0  0  0
   -3.7908    2.2028   -0.4758 C   0  0  0  0  0  0  0  0  0  0  0  0
   -5.4913    0.3923   -0.3609 C   0  0  0  0  0  0  0  0  0  0  0  0
   -6.0978   -0.4082    0.7893 C   0  0  0  0  0  0  0  0  0  0  0  0
   -6.5326   -1.7117    0.1505 C   0  0  0  0  0  0  0  0  0  0  0  0
   -6.7551   -1.4154   -1.2311 O   0  0  0  0  0  0  0  0  0  0  0  0
   -5.7400   -0.4699   -1.5994 C   0  0  0  0  0  0  0  0  0  0  0  0
   -1.5929    1.5005    1.2748 N   0  0  0  0  0  0  0  0  0  0  0  0
   -0.2503    1.5397    1.5948 O   0  0  0  0  0  0  0  0  0  0  0  0
    4.4048   -0.1536   -1.0549 C   0  0  0  0  0  0  0  0  0  0  0  0
    3.4604   -0.1432   -2.5078 Cl  0  0  0  0  0  0  0  0  0  0  0  0
    5.7961   -0.2485   -1.1831 C   0  0  0  0  0  0  0  0  0  0  0  0
    8.3578   -1.2707   -1.8494 H   0  0  0  0  0  0  0  0  0  0  0  0
    9.7069   -0.4159   -1.0907 H   0  0  0  0  0  0  0  0  0  0  0  0
    8.4313    0.5365   -1.8581 H   0  0  0  0  0  0  0  0  0  0  0  0
    6.6224   -0.1856    2.1034 H   0  0  0  0  0  0  0  0  0  0  0  0
    4.2022   -0.0224    2.3467 H   0  0  0  0  0  0  0  0  0  0  0  0
    2.1753    1.1694    1.9470 H   0  0  0  0  0  0  0  0  0  0  0  0
    1.9499   -0.5996    2.1521 H   0  0  0  0  0  0  0  0  0  0  0  0
   -0.4423   -1.4129    0.2002 H   0  0  0  0  0  0  0  0  0  0  0  0
   -2.7472    2.3343   -0.7694 H   0  0  0  0  0  0  0  0  0  0  0  0
   -4.0283    2.8189    0.3965 H   0  0  0  0  0  0  0  0  0  0  0  0
   -4.4007    2.5236   -1.3270 H   0  0  0  0  0  0  0  0  0  0  0  0
   -6.0903    1.3088   -0.4518 H   0  0  0  0  0  0  0  0  0  0  0  0
   -6.9852    0.1198    1.1626 H   0  0  0  0  0  0  0  0  0  0  0  0
   -5.4415   -0.5658    1.6499 H   0  0  0  0  0  0  0  0  0  0  0  0
   -7.4504   -2.1076    0.5946 H   0  0  0  0  0  0  0  0  0  0  0  0
   -5.7538   -2.4785    0.2213 H   0  0  0  0  0  0  0  0  0  0  0  0
   -4.8538   -1.0246   -1.9259 H   0  0  0  0  0  0  0  0  0  0  0  0
   -6.0922    0.1260   -2.4471 H   0  0  0  0  0  0  0  0  0  0  0  0
    6.2208   -0.3211   -2.1779 H   0  0  0  0  0  0  0  0  0  0  0  0
  1  2  1  0
  2  3  1  0
  3  4  2  0
  4  5  1  0
  5  6  2  0
  6  7  1  0
  7  8  1  0
  8  9  1  0
  9 10  2  0
 10 11  1  0
 11 12  1  0
 12 13  2  0
 12 14  1  0
 14 15  1  0
 14 16  1  0
 16 17  1  0
 17 18  1  0
 18 19  1  0
 19 20  1  0
 11 21  2  0
 21 22  1  0
  6 23  1  0
 23 24  1  0
 23 25  2  0
 25  3  1  0
 22  9  1  0
 20 16  1  0
  1 26  1  0
  1 27  1  0
  1 28  1  0
  4 29  1  0
  5 30  1  0
  8 31  1  0
  8 32  1  0
 10 33  1  0
 15 34  1  0
 15 35  1  0
 15 36  1  0
 16 37  1  0
 17 38  1  0
 17 39  1  0
 18 40  1  0
 18 41  1  0
 20 42  1  0
 20 43  1  0
 25 44  1  0
M  END
$$$$
