
     RDKit          3D

 40 42  0  0  0  0  0  0  0  0999 V2000
    7.2286   -1.5970   -0.2173 C   0  0  0  0  0  0  0  0  0  0  0  0
    5.8182   -1.7037   -0.0675 O   0  0  0  0  0  0  0  0  0  0  0  0
    5.0744   -0.6159   -0.4365 C   0  0  0  0  0  0  0  0  0  0  0  0
    5.5703    0.5790   -0.9532 C   0  0  0  0  0  0  0  0  0  0  0  0
    4.6895    1.6084   -1.2899 C   0  0  0  0  0  0  0  0  0  0  0  0
    3.3123    1.4507   -1.1117 C   0  0  0  0  0  0  0  0  0  0  0  0
    2.8020    0.2621   -0.5924 C   0  0  0  0  0  0  0  0  0  0  0  0
    1.4280    0.0161   -0.3860 N   0  0  0  0  0  0  0  0  0  0  0  0
    0.3792    0.8990   -0.5697 C   0  0  0  0  0  0  0  0  0  0  0  0
    0.4578    2.0813   -0.8809 O   0  0  0  0  0  0  0  0  0  0  0  0
   -0.9715    0.3237   -0.3122 C   0  0  0  0  0  0  0  0  0  0  0  0
   -1.2901   -0.9913   -0.6656 C   0  0  0  0  0  0  0  0  0  0  0  0
   -2.5661   -1.4926   -0.4008 C   0  0  0  0  0  0  0  0  0  0  0  0
   -3.5385   -0.6895    0.2147 C   0  0  0  0  0  0  0  0  0  0  0  0
   -3.2333    0.6460    0.5351 C   0  0  0  0  0  0  0  0  0  0  0  0
   -1.9455    1.1401    0.2745 C   0  0  0  0  0  0  0  0  0  0  0  0
   -4.2405    1.5482    1.2060 C   0  0  0  0  0  0  0  0  0  0  0  0
   -5.6764    1.0408    1.0894 C   0  0  0  0  0  0  0  0  0  0  0  0
   -5.7475   -0.4405    1.4368 C   0  0  0  0  0  0  0  0  0  0  0  0
   -4.9165   -1.2599    0.4513 C   0  0  0  0  0  0  0  0  0  0  0  0
    3.6940   -0.7666   -0.2609 C   0  0  0  0  0  0  0  0  0  0  0  0
    7.5046   -1.4589   -1.2679 H   0  0  0  0  0  0  0  0  0  0  0  0
    7.6726   -2.5377    0.1223 H   0  0  0  0  0  0  0  0  0  0  0  0
    7.6325   -0.7936    0.4076 H   0  0  0  0  0  0  0  0  0  0  0  0
    6.6311    0.7435   -1.1078 H   0  0  0  0  0  0  0  0  0  0  0  0
    5.0734    2.5416   -1.6950 H   0  0  0  0  0  0  0  0  0  0  0  0
    2.6650    2.2756   -1.3925 H   0  0  0  0  0  0  0  0  0  0  0  0
    1.2017   -0.8896    0.0036 H   0  0  0  0  0  0  0  0  0  0  0  0
   -0.5704   -1.6272   -1.1736 H   0  0  0  0  0  0  0  0  0  0  0  0
   -2.8059   -2.5148   -0.6876 H   0  0  0  0  0  0  0  0  0  0  0  0
   -1.6957    2.1688    0.5312 H   0  0  0  0  0  0  0  0  0  0  0  0
   -4.1867    2.5543    0.7732 H   0  0  0  0  0  0  0  0  0  0  0  0
   -3.9699    1.6286    2.2664 H   0  0  0  0  0  0  0  0  0  0  0  0
   -6.0458    1.1964    0.0678 H   0  0  0  0  0  0  0  0  0  0  0  0
   -6.3258    1.6179    1.7571 H   0  0  0  0  0  0  0  0  0  0  0  0
   -5.3775   -0.5965    2.4581 H   0  0  0  0  0  0  0  0  0  0  0  0
   -6.7876   -0.7846    1.4157 H   0  0  0  0  0  0  0  0  0  0  0  0
   -5.4367   -1.3015   -0.5140 H   0  0  0  0  0  0  0  0  0  0  0  0
   -4.8349   -2.2864    0.8282 H   0  0  0  0  0  0  0  0  0  0  0  0
    3.3276   -1.7064    0.1439 H   0  0  0  0  0  0  0  0  0  0  0  0
  1  2  1  0
  2  3  1  0
  3  4  2  0
  4  5  1  0
  5  6  2  0
  6  7  1  0
  7  8  1  0
  8  9  1  0
  9 10  2  0
  9 11  1  0
 11 12  2  0
 12 13  1  0
 13 14  2  0
 14 15  1  0
 15 16  2  0
 15 17  1  0
 17 18  1  0
 18 19  1  0
 19 20  1  0
  7 21  2  0
 21  3  1  0
 16 11  1  0
 20 14  1  0
  1 22  1  0
  1 23  1  0
  1 24  1  0
  4 25  1  0
  5 26  1  0
  6 27  1  0
  8 28  1  0
 12 29  1  0
 13 30  1  0
 16 31  1  0
 17 32  1  0
 17 33  1  0
 18 34  1  0
 18 35  1  0
 19 36  1  0
 19 37  1  0
 20 38  1  0
 20 39  1  0
 21 40  1  0
M  END
$$$$
