
     RDKit          3D

 47 49  0  0  0  0  0  0  0  0999 V2000
    7.9697    1.6730   -0.4156 C   0  0  0  0  0  0  0  0  0  0  0  0
    6.7541    0.8314   -0.7606 C   0  0  0  0  0  0  0  0  0  0  0  0
    5.6961    1.2046    0.1201 O   0  0  0  0  0  0  0  0  0  0  0  0
    4.5033    0.5535   -0.0272 C   0  0  0  0  0  0  0  0  0  0  0  0
    3.5015    0.9620    0.8547 C   0  0  0  0  0  0  0  0  0  0  0  0
    2.2290    0.3814    0.8177 C   0  0  0  0  0  0  0  0  0  0  0  0
    1.9457   -0.6327   -0.1017 C   0  0  0  0  0  0  0  0  0  0  0  0
    0.6516   -1.2449   -0.1530 N   0  0  0  0  0  0  0  0  0  0  0  0
    0.3804   -2.5647   -0.5346 C   0  0  0  0  0  0  0  0  0  0  0  0
    1.3083   -3.5066   -0.7151 O   0  0  0  0  0  0  0  0  0  0  0  0
   -0.9855   -2.7172   -0.6278 C   0  0  0  0  0  0  0  0  0  0  0  0
   -1.5869   -1.5146   -0.2095 C   0  0  0  0  0  0  0  0  0  0  0  0
   -2.9260   -1.2388   -0.1162 N   0  0  0  0  0  0  0  0  0  0  0  0
   -3.8657   -2.3674   -0.0963 C   0  0  0  0  0  0  0  0  0  0  0  0
   -3.4395   -0.0628   -0.8517 C   0  0  0  0  0  0  0  0  0  0  0  0
   -4.3855    0.7847   -0.0201 C   0  0  0  0  0  0  0  0  0  0  0  0
   -5.2470    1.6795   -0.6764 C   0  0  0  0  0  0  0  0  0  0  0  0
   -6.1092    2.5049    0.0485 C   0  0  0  0  0  0  0  0  0  0  0  0
   -6.1162    2.4550    1.4401 C   0  0  0  0  0  0  0  0  0  0  0  0
   -5.2607    1.5819    2.1075 C   0  0  0  0  0  0  0  0  0  0  0  0
   -4.3978    0.7563    1.3834 C   0  0  0  0  0  0  0  0  0  0  0  0
   -0.5723   -0.6473    0.1544 C   0  0  0  0  0  0  0  0  0  0  0  0
   -0.6729    0.5779    0.6721 O   0  0  0  0  0  0  0  0  0  0  0  0
    2.9490   -1.0320   -0.9981 C   0  0  0  0  0  0  0  0  0  0  0  0
    4.2202   -0.4435   -0.9583 C   0  0  0  0  0  0  0  0  0  0  0  0
    7.7429    2.7390   -0.5209 H   0  0  0  0  0  0  0  0  0  0  0  0
    8.8130    1.4253   -1.0664 H   0  0  0  0  0  0  0  0  0  0  0  0
    8.2672    1.5117    0.6259 H   0  0  0  0  0  0  0  0  0  0  0  0
    7.0035   -0.2277   -0.6289 H   0  0  0  0  0  0  0  0  0  0  0  0
    6.4690    1.0251   -1.8011 H   0  0  0  0  0  0  0  0  0  0  0  0
    3.7114    1.7425    1.5827 H   0  0  0  0  0  0  0  0  0  0  0  0
    1.4933    0.7208    1.5412 H   0  0  0  0  0  0  0  0  0  0  0  0
    2.1009   -3.2582   -0.2057 H   0  0  0  0  0  0  0  0  0  0  0  0
   -1.4744   -3.6313   -0.9330 H   0  0  0  0  0  0  0  0  0  0  0  0
   -3.9247   -2.8480   -1.0794 H   0  0  0  0  0  0  0  0  0  0  0  0
   -4.8725   -2.0351    0.1789 H   0  0  0  0  0  0  0  0  0  0  0  0
   -3.5633   -3.1131    0.6478 H   0  0  0  0  0  0  0  0  0  0  0  0
   -2.6271    0.5914   -1.1932 H   0  0  0  0  0  0  0  0  0  0  0  0
   -3.9592   -0.4084   -1.7555 H   0  0  0  0  0  0  0  0  0  0  0  0
   -5.2508    1.7403   -1.7630 H   0  0  0  0  0  0  0  0  0  0  0  0
   -6.7731    3.1895   -0.4736 H   0  0  0  0  0  0  0  0  0  0  0  0
   -6.7861    3.0978    2.0049 H   0  0  0  0  0  0  0  0  0  0  0  0
   -5.2634    1.5419    3.1938 H   0  0  0  0  0  0  0  0  0  0  0  0
   -3.7417    0.0795    1.9275 H   0  0  0  0  0  0  0  0  0  0  0  0
   -1.6193    0.6865    0.8829 H   0  0  0  0  0  0  0  0  0  0  0  0
    2.7522   -1.7650   -1.7782 H   0  0  0  0  0  0  0  0  0  0  0  0
    4.9583   -0.7783   -1.6795 H   0  0  0  0  0  0  0  0  0  0  0  0
  1  2  1  0
  2  3  1  0
  3  4  1  0
  4  5  2  0
  5  6  1  0
  6  7  2  0
  7  8  1  0
  8  9  1  0
  9 10  1  0
  9 11  2  0
 11 12  1  0
 12 13  1  0
 13 14  1  0
 13 15  1  0
 15 16  1  0
 16 17  2  0
 17 18  1  0
 18 19  2  0
 19 20  1  0
 20 21  2  0
 12 22  2  0
 22 23  1  0
  7 24  1  0
 24 25  2  0
 25  4  1  0
 22  8  1  0
 21 16  1  0
  1 26  1  0
  1 27  1  0
  1 28  1  0
  2 29  1  0
  2 30  1  0
  5 31  1  0
  6 32  1  0
 10 33  1  0
 11 34  1  0
 14 35  1  0
 14 36  1  0
 14 37  1  0
 15 38  1  0
 15 39  1  0
 17 40  1  0
 18 41  1  0
 19 42  1  0
 20 43  1  0
 21 44  1  0
 23 45  1  0
 24 46  1  0
 25 47  1  0
M  END
$$$$
