
     RDKit          3D

 37 39  0  0  0  0  0  0  0  0999 V2000
   -1.1346    0.6668   -3.1771 O   0  0  0  0  0  0  0  0  0  0  0  0
   -1.5578    1.5380   -2.4361 C   0  0  0  0  0  0  0  0  0  0  0  0
   -2.5470    2.3584   -2.8438 O   0  0  0  0  0  0  0  0  0  0  0  0
   -1.0740    1.8790   -1.0570 C   0  0  0  0  0  0  0  0  0  0  0  0
   -0.3041    0.7103   -0.4151 C   0  0  0  0  0  0  0  0  0  0  0  0
   -1.2862   -0.3110    0.1606 C   0  0  0  0  0  0  0  0  0  0  0  0
   -1.8606   -1.2982   -0.6542 C   0  0  0  0  0  0  0  0  0  0  0  0
   -2.8079   -2.1829   -0.1370 C   0  0  0  0  0  0  0  0  0  0  0  0
   -3.1938   -2.0921    1.1982 C   0  0  0  0  0  0  0  0  0  0  0  0
   -2.6207   -1.1284    2.0254 C   0  0  0  0  0  0  0  0  0  0  0  0
   -1.6568   -0.2510    1.5159 C   0  0  0  0  0  0  0  0  0  0  0  0
   -0.9840    0.7648    2.3962 C   0  0  0  0  0  0  0  0  0  0  0  0
    0.4887    0.8459    2.0022 C   0  0  0  0  0  0  0  0  0  0  0  0
    0.6350    1.2988    0.6002 N   0  0  0  0  0  0  0  0  0  0  0  0
    2.2192    1.5932    0.0596 S   0  0  0  0  0  6  0  0  0  0  0  0
    2.9602    2.2362    1.1227 O   0  0  0  0  0  0  0  0  0  0  0  0
    2.1254    2.1907   -1.2567 O   0  0  0  0  0  0  0  0  0  0  0  0
    3.0147    0.0214   -0.2393 C   0  0  0  0  0  0  0  0  0  0  0  0
    3.1870   -0.7088   -1.4020 C   0  0  0  0  0  0  0  0  0  0  0  0
    3.8806   -1.9329   -1.1802 C   0  0  0  0  0  0  0  0  0  0  0  0
    4.2199   -2.0964    0.1441 C   0  0  0  0  0  0  0  0  0  0  0  0
    3.7038   -0.7797    1.1064 S   0  0  0  0  0  0  0  0  0  0  0  0
   -2.7475    2.0676   -3.7580 H   0  0  0  0  0  0  0  0  0  0  0  0
   -0.4393    2.7659   -1.1630 H   0  0  0  0  0  0  0  0  0  0  0  0
   -1.9336    2.1609   -0.4364 H   0  0  0  0  0  0  0  0  0  0  0  0
    0.2938    0.1760   -1.1631 H   0  0  0  0  0  0  0  0  0  0  0  0
   -1.5796   -1.3875   -1.7020 H   0  0  0  0  0  0  0  0  0  0  0  0
   -3.2496   -2.9406   -0.7795 H   0  0  0  0  0  0  0  0  0  0  0  0
   -3.9368   -2.7783    1.5966 H   0  0  0  0  0  0  0  0  0  0  0  0
   -2.9205   -1.0754    3.0694 H   0  0  0  0  0  0  0  0  0  0  0  0
   -1.4806    1.7348    2.2763 H   0  0  0  0  0  0  0  0  0  0  0  0
   -1.0586    0.4714    3.4495 H   0  0  0  0  0  0  0  0  0  0  0  0
    0.9622   -0.1328    2.1321 H   0  0  0  0  0  0  0  0  0  0  0  0
    0.9821    1.5608    2.6692 H   0  0  0  0  0  0  0  0  0  0  0  0
    2.8284   -0.3671   -2.3668 H   0  0  0  0  0  0  0  0  0  0  0  0
    4.1221   -2.6537   -1.9524 H   0  0  0  0  0  0  0  0  0  0  0  0
    4.7506   -2.9243    0.5950 H   0  0  0  0  0  0  0  0  0  0  0  0
  1  2  2  0
  2  3  1  0
  2  4  1  0
  4  5  1  0
  5  6  1  0
  6  7  2  0
  7  8  1  0
  8  9  2  0
  9 10  1  0
 10 11  2  0
 11 12  1  0
 12 13  1  0
 13 14  1  0
 14 15  1  0
 15 16  2  0
 15 17  2  0
 15 18  1  0
 18 19  2  0
 19 20  1  0
 20 21  2  0
 21 22  1  0
 14  5  1  0
 22 18  1  0
 11  6  1  0
  3 23  1  0
  4 24  1  0
  4 25  1  0
  5 26  1  0
  7 27  1  0
  8 28  1  0
  9 29  1  0
 10 30  1  0
 12 31  1  0
 12 32  1  0
 13 33  1  0
 13 34  1  0
 19 35  1  0
 20 36  1  0
 21 37  1  0
M  END
$$$$
