
     RDKit          3D

 61 65  0  0  0  0  0  0  0  0999 V2000
    3.6964    0.0344    0.8282 C   0  0  0  0  0  0  0  0  0  0  0  0
    3.6568   -0.4056   -0.5900 C   0  0  0  0  0  0  0  0  0  0  0  0
    2.5586   -0.8357   -1.3153 C   0  0  0  0  0  0  0  0  0  0  0  0
    1.1267   -0.9884   -0.8918 C   0  0  0  0  0  0  0  0  0  0  0  0
    0.3296    0.2980   -1.0926 C   0  0  0  0  0  0  0  0  0  0  0  0
   -0.9998    0.0902   -0.6021 O   0  0  0  0  0  0  0  0  0  0  0  0
   -1.8040    1.1901   -0.7059 C   0  0  0  0  0  0  0  0  0  0  0  0
   -1.4240    2.2659   -1.1497 O   0  0  0  0  0  0  0  0  0  0  0  0
   -3.2059    0.9020   -0.1747 C   0  0  0  0  0  0  0  0  0  0  0  0
   -3.1484    0.6497    1.3478 C   0  0  0  0  0  0  0  0  0  0  0  0
   -4.5566    0.3650    1.8961 C   0  0  0  0  0  0  0  0  0  0  0  0
   -5.1380   -0.8699    1.1884 C   0  0  0  0  0  0  0  0  0  0  0  0
   -5.2235   -0.6200   -0.3262 C   0  0  0  0  0  0  0  0  0  0  0  0
   -6.1273    0.5948   -0.5902 C   0  0  0  0  0  0  0  0  0  0  0  0
   -5.5571    1.8509    0.1067 C   0  0  0  0  0  0  0  0  0  0  0  0
   -6.4592    3.0589   -0.1597 C   0  0  0  0  0  0  0  0  0  0  0  0
   -5.4622    1.5777    1.6254 C   0  0  0  0  0  0  0  0  0  0  0  0
   -4.1334    2.1144   -0.4367 C   0  0  0  0  0  0  0  0  0  0  0  0
   -3.8152   -0.3347   -0.8738 C   0  0  0  0  0  0  0  0  0  0  0  0
    3.0278   -1.2234   -2.9222 S   0  0  0  0  0  0  0  0  0  0  0  0
    4.6564   -0.8222   -2.6069 C   0  0  0  0  0  0  0  0  0  0  0  0
    4.8243   -0.4340   -1.3531 N   0  0  0  0  0  4  0  0  0  0  0  0
    6.1595   -0.0471   -0.8724 C   0  0  0  0  0  0  0  0  0  0  0  0
    6.7032   -1.0683    0.0975 C   0  0  0  0  0  0  0  0  0  0  0  0
    6.7575   -2.4332   -0.2289 C   0  0  0  0  0  0  0  0  0  0  0  0
    7.2732   -3.3590    0.6799 C   0  0  0  0  0  0  0  0  0  0  0  0
    7.7501   -2.9341    1.9168 C   0  0  0  0  0  0  0  0  0  0  0  0
    7.7208   -1.5820    2.2465 C   0  0  0  0  0  0  0  0  0  0  0  0
    7.2059   -0.6523    1.3419 C   0  0  0  0  0  0  0  0  0  0  0  0
    4.1154   -0.7519    1.4630 H   0  0  0  0  0  0  0  0  0  0  0  0
    4.2843    0.9484    0.9509 H   0  0  0  0  0  0  0  0  0  0  0  0
    2.6910    0.2546    1.2014 H   0  0  0  0  0  0  0  0  0  0  0  0
    1.0805   -1.2860    0.1634 H   0  0  0  0  0  0  0  0  0  0  0  0
    0.6423   -1.8088   -1.4370 H   0  0  0  0  0  0  0  0  0  0  0  0
    0.2907    0.5583   -2.1573 H   0  0  0  0  0  0  0  0  0  0  0  0
    0.7986    1.1210   -0.5394 H   0  0  0  0  0  0  0  0  0  0  0  0
   -2.7148    1.5187    1.8601 H   0  0  0  0  0  0  0  0  0  0  0  0
   -2.4894   -0.1984    1.5743 H   0  0  0  0  0  0  0  0  0  0  0  0
   -4.5013    0.1802    2.9748 H   0  0  0  0  0  0  0  0  0  0  0  0
   -4.5103   -1.7468    1.3886 H   0  0  0  0  0  0  0  0  0  0  0  0
   -6.1349   -1.0948    1.5872 H   0  0  0  0  0  0  0  0  0  0  0  0
   -5.6396   -1.5037   -0.8229 H   0  0  0  0  0  0  0  0  0  0  0  0
   -7.1414    0.3861   -0.2257 H   0  0  0  0  0  0  0  0  0  0  0  0
   -6.2103    0.7643   -1.6716 H   0  0  0  0  0  0  0  0  0  0  0  0
   -7.4721    2.8879    0.2211 H   0  0  0  0  0  0  0  0  0  0  0  0
   -6.5367    3.2648   -1.2328 H   0  0  0  0  0  0  0  0  0  0  0  0
   -6.0676    3.9593    0.3259 H   0  0  0  0  0  0  0  0  0  0  0  0
   -6.4610    1.3916    2.0409 H   0  0  0  0  0  0  0  0  0  0  0  0
   -5.0641    2.4585    2.1457 H   0  0  0  0  0  0  0  0  0  0  0  0
   -3.7161    3.0154    0.0342 H   0  0  0  0  0  0  0  0  0  0  0  0
   -4.1759    2.3266   -1.5142 H   0  0  0  0  0  0  0  0  0  0  0  0
   -3.8584   -0.1737   -1.9590 H   0  0  0  0  0  0  0  0  0  0  0  0
   -3.1833   -1.2189   -0.7207 H   0  0  0  0  0  0  0  0  0  0  0  0
    5.4414   -0.8927   -3.3511 H   0  0  0  0  0  0  0  0  0  0  0  0
    6.0880    0.9481   -0.4189 H   0  0  0  0  0  0  0  0  0  0  0  0
    6.8554    0.0441   -1.7157 H   0  0  0  0  0  0  0  0  0  0  0  0
    6.4093   -2.8055   -1.1900 H   0  0  0  0  0  0  0  0  0  0  0  0
    7.3133   -4.4159    0.4234 H   0  0  0  0  0  0  0  0  0  0  0  0
    8.1564   -3.6572    2.6217 H   0  0  0  0  0  0  0  0  0  0  0  0
    8.1089   -1.2537    3.2094 H   0  0  0  0  0  0  0  0  0  0  0  0
    7.2094    0.3979    1.6286 H   0  0  0  0  0  0  0  0  0  0  0  0
  1  2  1  0
  2  3  2  0
  3  4  1  0
  4  5  1  0
  5  6  1  0
  6  7  1  0
  7  8  2  0
  7  9  1  0
  9 10  1  0
 10 11  1  0
 11 12  1  0
 12 13  1  0
 13 14  1  0
 14 15  1  0
 15 16  1  0
 15 17  1  0
 15 18  1  0
 13 19  1  0
  3 20  1  0
 20 21  1  0
 21 22  2  0
 22 23  1  0
 23 24  1  0
 24 25  2  0
 25 26  1  0
 26 27  2  0
 27 28  1  0
 28 29  2  0
 22  2  1  0
 29 24  1  0
 18  9  1  0
 19  9  1  0
 17 11  1  0
  1 30  1  0
  1 31  1  0
  1 32  1  0
  4 33  1  0
  4 34  1  0
  5 35  1  0
  5 36  1  0
 10 37  1  0
 10 38  1  0
 11 39  1  0
 12 40  1  0
 12 41  1  0
 13 42  1  0
 14 43  1  0
 14 44  1  0
 16 45  1  0
 16 46  1  0
 16 47  1  0
 17 48  1  0
 17 49  1  0
 18 50  1  0
 18 51  1  0
 19 52  1  0
 19 53  1  0
 21 54  1  0
 23 55  1  0
 23 56  1  0
 25 57  1  0
 26 58  1  0
 27 59  1  0
 28 60  1  0
 29 61  1  0
M  CHG  1  22   1
M  END
$$$$
