
     RDKit          3D

 28 29  0  0  0  0  0  0  0  0999 V2000
   -1.2040   -3.0341   -0.1431 O   0  0  0  0  0  0  0  0  0  0  0  0
   -1.6866   -1.9690    0.2405 C   0  0  0  0  0  0  0  0  0  0  0  0
   -3.1586   -1.8589    0.5555 C   0  0  0  0  0  0  0  0  0  0  0  0
   -3.7578   -0.6933   -0.0521 N   0  0  0  0  0  0  0  0  0  0  0  0
   -4.6082   -0.6426   -1.1095 C   0  0  0  0  0  0  0  0  0  0  0  0
   -4.9437    0.6061   -1.3379 N   0  0  0  0  0  0  0  0  0  0  0  0
   -4.2568    1.2953   -0.3807 C   0  0  0  0  0  0  0  0  0  0  0  0
   -3.5008    0.5450    0.4288 N   0  0  0  0  0  0  0  0  0  0  0  0
   -0.9688   -0.8073    0.4915 N   0  0  0  0  0  0  0  0  0  0  0  0
    0.3703   -0.7678    0.2523 N   0  0  0  0  0  0  0  0  0  0  0  0
    0.9275    0.3886    0.4192 C   0  0  0  0  0  0  0  0  0  0  0  0
    2.3731    0.5902    0.1963 C   0  0  0  0  0  0  0  0  0  0  0  0
    2.9169    1.8632    0.3950 C   0  0  0  0  0  0  0  0  0  0  0  0
    4.2834    2.0720    0.1886 C   0  0  0  0  0  0  0  0  0  0  0  0
    5.0960    1.0111   -0.2140 C   0  0  0  0  0  0  0  0  0  0  0  0
    6.7773    1.2737   -0.4664 Cl  0  0  0  0  0  0  0  0  0  0  0  0
    4.5556   -0.2588   -0.4129 C   0  0  0  0  0  0  0  0  0  0  0  0
    3.1903   -0.4714   -0.2076 C   0  0  0  0  0  0  0  0  0  0  0  0
   -3.3045   -1.7963    1.6385 H   0  0  0  0  0  0  0  0  0  0  0  0
   -3.6811   -2.7442    0.1788 H   0  0  0  0  0  0  0  0  0  0  0  0
   -4.9433   -1.5114   -1.6600 H   0  0  0  0  0  0  0  0  0  0  0  0
   -4.3074    2.3717   -0.2741 H   0  0  0  0  0  0  0  0  0  0  0  0
   -1.4740    0.0574    0.7016 H   0  0  0  0  0  0  0  0  0  0  0  0
    0.3458    1.2737    0.7353 H   0  0  0  0  0  0  0  0  0  0  0  0
    2.2929    2.6961    0.7081 H   0  0  0  0  0  0  0  0  0  0  0  0
    4.7086    3.0606    0.3423 H   0  0  0  0  0  0  0  0  0  0  0  0
    5.1873   -1.0858   -0.7267 H   0  0  0  0  0  0  0  0  0  0  0  0
    2.7703   -1.4637   -0.3638 H   0  0  0  0  0  0  0  0  0  0  0  0
  1  2  2  0
  2  3  1  0
  3  4  1  0
  4  5  1  0
  5  6  2  0
  6  7  1  0
  7  8  2  0
  2  9  1  0
  9 10  1  0
 10 11  2  3
 11 12  1  0
 12 13  2  0
 13 14  1  0
 14 15  2  0
 15 16  1  0
 15 17  1  0
 17 18  2  0
  8  4  1  0
 18 12  1  0
  3 19  1  0
  3 20  1  0
  5 21  1  0
  7 22  1  0
  9 23  1  0
 11 24  1  0
 13 25  1  0
 14 26  1  0
 17 27  1  0
 18 28  1  0
M  END
$$$$
