
     RDKit          3D

 56 59  0  0  0  0  0  0  0  0999 V2000
    3.3159   -4.9876    2.9801 C   0  0  0  0  0  0  0  0  0  0  0  0
    3.0050   -3.6064    3.1092 O   0  0  0  0  0  0  0  0  0  0  0  0
    2.9599   -2.8724    1.9575 C   0  0  0  0  0  0  0  0  0  0  0  0
    2.6122   -1.5322    2.1300 C   0  0  0  0  0  0  0  0  0  0  0  0
    2.5218   -0.6651    1.0351 C   0  0  0  0  0  0  0  0  0  0  0  0
    2.7932   -1.1278   -0.2511 C   0  0  0  0  0  0  0  0  0  0  0  0
    2.6479   -0.3487   -1.4339 N   0  0  0  0  0  0  0  0  0  0  0  0
    2.3096    1.2983   -1.4876 S   0  0  0  0  0  6  0  0  0  0  0  0
    2.4002    1.6339   -2.8957 O   0  0  0  0  0  0  0  0  0  0  0  0
    3.1465    1.9367   -0.4935 O   0  0  0  0  0  0  0  0  0  0  0  0
    0.5915    1.4297   -1.0359 C   0  0  0  0  0  0  0  0  0  0  0  0
   -0.2161    0.2781   -1.0574 C   0  0  0  0  0  0  0  0  0  0  0  0
   -1.5540    0.3306   -0.6574 C   0  0  0  0  0  0  0  0  0  0  0  0
   -2.2737   -0.8831   -0.6725 N   0  0  0  0  0  0  0  0  0  0  0  0
   -3.5774   -1.0972   -0.2690 C   0  0  0  0  0  0  0  0  0  0  0  0
   -4.3571   -0.2371    0.1278 O   0  0  0  0  0  0  0  0  0  0  0  0
   -4.0928   -2.4891   -0.3751 C   0  0  0  0  0  0  0  0  0  0  0  0
   -5.4669   -2.6518   -0.6084 C   0  0  0  0  0  0  0  0  0  0  0  0
   -6.0147   -3.9279   -0.7203 C   0  0  0  0  0  0  0  0  0  0  0  0
   -5.1696   -5.0144   -0.5923 C   0  0  0  0  0  0  0  0  0  0  0  0
   -3.8455   -4.9042   -0.3589 N   0  0  0  0  0  0  0  0  0  0  0  0
   -3.3399   -3.6499   -0.2441 C   0  0  0  0  0  0  0  0  0  0  0  0
   -1.6517   -3.6881    0.1023 Cl  0  0  0  0  0  0  0  0  0  0  0  0
   -2.0851    1.5544   -0.2672 C   0  0  0  0  0  0  0  0  0  0  0  0
   -1.2892    2.7070   -0.2774 C   0  0  0  0  0  0  0  0  0  0  0  0
    0.0624    2.6719   -0.6566 C   0  0  0  0  0  0  0  0  0  0  0  0
    0.8257    3.8332   -0.6961 N   0  0  0  0  0  0  0  0  0  0  0  0
    0.5102    4.7826   -1.7761 C   0  0  0  0  0  0  0  0  0  0  0  0
    0.4394    6.1460   -1.0922 C   0  0  0  0  0  0  0  0  0  0  0  0
    1.3400    5.9769    0.1186 C   0  0  0  0  0  0  0  0  0  0  0  0
    1.0142    4.5577    0.5679 C   0  0  0  0  0  0  0  0  0  0  0  0
    3.1348   -2.4732   -0.4230 C   0  0  0  0  0  0  0  0  0  0  0  0
    3.2227   -3.3414    0.6728 C   0  0  0  0  0  0  0  0  0  0  0  0
    4.3216   -5.1292    2.5706 H   0  0  0  0  0  0  0  0  0  0  0  0
    3.2990   -5.4292    3.9812 H   0  0  0  0  0  0  0  0  0  0  0  0
    2.5651   -5.5058    2.3745 H   0  0  0  0  0  0  0  0  0  0  0  0
    2.4059   -1.1543    3.1291 H   0  0  0  0  0  0  0  0  0  0  0  0
    2.2453    0.3661    1.2321 H   0  0  0  0  0  0  0  0  0  0  0  0
    3.0015   -0.7040   -2.3197 H   0  0  0  0  0  0  0  0  0  0  0  0
    0.2020   -0.6690   -1.3830 H   0  0  0  0  0  0  0  0  0  0  0  0
   -1.7423   -1.6929   -0.9718 H   0  0  0  0  0  0  0  0  0  0  0  0
   -6.1144   -1.7817   -0.7046 H   0  0  0  0  0  0  0  0  0  0  0  0
   -7.0755   -4.0668   -0.9015 H   0  0  0  0  0  0  0  0  0  0  0  0
   -5.5455   -6.0312   -0.6723 H   0  0  0  0  0  0  0  0  0  0  0  0
   -3.1194    1.6580    0.0445 H   0  0  0  0  0  0  0  0  0  0  0  0
   -1.7479    3.6503    0.0108 H   0  0  0  0  0  0  0  0  0  0  0  0
    1.3288    4.7647   -2.5045 H   0  0  0  0  0  0  0  0  0  0  0  0
   -0.4228    4.5623   -2.3078 H   0  0  0  0  0  0  0  0  0  0  0  0
    0.7579    6.9596   -1.7494 H   0  0  0  0  0  0  0  0  0  0  0  0
   -0.5886    6.3492   -0.7691 H   0  0  0  0  0  0  0  0  0  0  0  0
    1.1491    6.7189    0.8985 H   0  0  0  0  0  0  0  0  0  0  0  0
    2.3927    6.0492   -0.1799 H   0  0  0  0  0  0  0  0  0  0  0  0
    0.1077    4.5653    1.1850 H   0  0  0  0  0  0  0  0  0  0  0  0
    1.8319    4.1251    1.1535 H   0  0  0  0  0  0  0  0  0  0  0  0
    3.3338   -2.8694   -1.4155 H   0  0  0  0  0  0  0  0  0  0  0  0
    3.4950   -4.3745    0.4852 H   0  0  0  0  0  0  0  0  0  0  0  0
  1  2  1  0
  2  3  1  0
  3  4  2  0
  4  5  1  0
  5  6  2  0
  6  7  1  0
  7  8  1  0
  8  9  2  0
  8 10  2  0
  8 11  1  0
 11 12  2  0
 12 13  1  0
 13 14  1  0
 14 15  1  0
 15 16  2  0
 15 17  1  0
 17 18  2  0
 18 19  1  0
 19 20  2  0
 20 21  1  0
 21 22  2  0
 22 23  1  0
 13 24  2  0
 24 25  1  0
 25 26  2  0
 26 27  1  0
 27 28  1  0
 28 29  1  0
 29 30  1  0
 30 31  1  0
  6 32  1  0
 32 33  2  0
 33  3  1  0
 26 11  1  0
 31 27  1  0
 22 17  1  0
  1 34  1  0
  1 35  1  0
  1 36  1  0
  4 37  1  0
  5 38  1  0
  7 39  1  0
 12 40  1  0
 14 41  1  0
 18 42  1  0
 19 43  1  0
 20 44  1  0
 24 45  1  0
 25 46  1  0
 28 47  1  0
 28 48  1  0
 29 49  1  0
 29 50  1  0
 30 51  1  0
 30 52  1  0
 31 53  1  0
 31 54  1  0
 32 55  1  0
 33 56  1  0
M  END
$$$$
