
     RDKit          3D

 56 58  0  0  0  0  0  0  0  0999 V2000
   -9.0843    0.9208   -0.7208 C   0  0  0  0  0  0  0  0  0  0  0  0
   -8.1441    1.1585    0.3169 O   0  0  0  0  0  0  0  0  0  0  0  0
   -6.8199    0.9120    0.0460 C   0  0  0  0  0  0  0  0  0  0  0  0
   -6.3467    0.3686   -1.1528 C   0  0  0  0  0  0  0  0  0  0  0  0
   -4.9793    0.1374   -1.3368 C   0  0  0  0  0  0  0  0  0  0  0  0
   -4.0658    0.4540   -0.3276 C   0  0  0  0  0  0  0  0  0  0  0  0
   -2.5910    0.1871   -0.5054 C   0  0  0  0  0  0  0  0  0  0  0  0
   -2.1783   -1.1472    0.1249 C   0  0  0  0  0  0  0  0  0  0  0  0
   -0.7496   -1.3836    0.0253 N   0  0  0  0  0  0  0  0  0  0  0  0
    0.1300   -0.7622    0.8760 C   0  0  0  0  0  0  0  0  0  0  0  0
   -0.2222   -0.0040    1.7736 O   0  0  0  0  0  0  0  0  0  0  0  0
    1.5674   -1.0658    0.6267 C   0  0  0  0  0  0  0  0  0  0  0  0
    2.4816   -0.1932    1.0904 C   0  0  0  0  0  0  0  0  0  0  0  0
    3.9640   -0.3558    0.9379 C   0  0  0  0  0  0  0  0  0  0  0  0
    4.2767   -1.4300   -0.0411 N   0  0  0  0  0  0  0  0  0  0  0  0
    5.9445   -1.7610   -0.2094 S   0  0  0  0  0  6  0  0  0  0  0  0
    6.1020   -2.7818   -1.2243 O   0  0  0  0  0  0  0  0  0  0  0  0
    6.4934   -1.9376    1.1187 O   0  0  0  0  0  0  0  0  0  0  0  0
    6.5826   -0.2459   -0.8856 C   0  0  0  0  0  0  0  0  0  0  0  0
    6.3703    0.0363   -2.2417 C   0  0  0  0  0  0  0  0  0  0  0  0
    6.8910    1.2104   -2.7857 C   0  0  0  0  0  0  0  0  0  0  0  0
    7.6162    2.0810   -1.9759 C   0  0  0  0  0  0  0  0  0  0  0  0
    8.1161    3.2062   -2.5024 F   0  0  0  0  0  0  0  0  0  0  0  0
    7.8387    1.7980   -0.6293 C   0  0  0  0  0  0  0  0  0  0  0  0
    7.3246    0.6242   -0.0767 C   0  0  0  0  0  0  0  0  0  0  0  0
    3.4620   -2.6522    0.2095 C   0  0  0  0  0  0  0  0  0  0  0  0
    1.9875   -2.3332   -0.0577 C   0  0  0  0  0  0  0  0  0  0  0  0
   -4.5391    1.0008    0.8754 C   0  0  0  0  0  0  0  0  0  0  0  0
   -5.9075    1.2313    1.0716 C   0  0  0  0  0  0  0  0  0  0  0  0
   -6.4488    1.7597    2.2187 O   0  0  0  0  0  0  0  0  0  0  0  0
   -5.5589    2.0810    3.2794 C   0  0  0  0  0  0  0  0  0  0  0  0
   -9.1060   -0.1374   -1.0012 H   0  0  0  0  0  0  0  0  0  0  0  0
  -10.0776    1.1816   -0.3377 H   0  0  0  0  0  0  0  0  0  0  0  0
   -8.8855    1.5579   -1.5894 H   0  0  0  0  0  0  0  0  0  0  0  0
   -7.0185    0.1080   -1.9624 H   0  0  0  0  0  0  0  0  0  0  0  0
   -4.6360   -0.2917   -2.2756 H   0  0  0  0  0  0  0  0  0  0  0  0
   -2.0214    1.0168   -0.0678 H   0  0  0  0  0  0  0  0  0  0  0  0
   -2.3353    0.1907   -1.5732 H   0  0  0  0  0  0  0  0  0  0  0  0
   -2.4594   -1.1790    1.1846 H   0  0  0  0  0  0  0  0  0  0  0  0
   -2.6798   -1.9834   -0.3758 H   0  0  0  0  0  0  0  0  0  0  0  0
   -0.4091   -1.8965   -0.7743 H   0  0  0  0  0  0  0  0  0  0  0  0
    2.1597    0.7038    1.6174 H   0  0  0  0  0  0  0  0  0  0  0  0
    4.4011   -0.5720    1.9189 H   0  0  0  0  0  0  0  0  0  0  0  0
    4.3639    0.5939    0.5689 H   0  0  0  0  0  0  0  0  0  0  0  0
    5.8094   -0.6529   -2.8697 H   0  0  0  0  0  0  0  0  0  0  0  0
    6.7418    1.4515   -3.8346 H   0  0  0  0  0  0  0  0  0  0  0  0
    8.4135    2.4923   -0.0230 H   0  0  0  0  0  0  0  0  0  0  0  0
    7.5037    0.3974    0.9723 H   0  0  0  0  0  0  0  0  0  0  0  0
    3.6070   -2.9930    1.2435 H   0  0  0  0  0  0  0  0  0  0  0  0
    3.7615   -3.4642   -0.4620 H   0  0  0  0  0  0  0  0  0  0  0  0
    1.3796   -3.1802    0.2830 H   0  0  0  0  0  0  0  0  0  0  0  0
    1.8296   -2.2208   -1.1380 H   0  0  0  0  0  0  0  0  0  0  0  0
   -3.8127    1.2374    1.6489 H   0  0  0  0  0  0  0  0  0  0  0  0
   -5.0352    1.1897    3.6407 H   0  0  0  0  0  0  0  0  0  0  0  0
   -6.1545    2.4739    4.1094 H   0  0  0  0  0  0  0  0  0  0  0  0
   -4.8530    2.8622    2.9788 H   0  0  0  0  0  0  0  0  0  0  0  0
  1  2  1  0
  2  3  1  0
  3  4  2  0
  4  5  1  0
  5  6  2  0
  6  7  1  0
  7  8  1  0
  8  9  1  0
  9 10  1  0
 10 11  2  0
 10 12  1  0
 12 13  2  0
 13 14  1  0
 14 15  1  0
 15 16  1  0
 16 17  2  0
 16 18  2  0
 16 19  1  0
 19 20  2  0
 20 21  1  0
 21 22  2  0
 22 23  1  0
 22 24  1  0
 24 25  2  0
 15 26  1  0
 26 27  1  0
  6 28  1  0
 28 29  2  0
 29 30  1  0
 30 31  1  0
 29  3  1  0
 27 12  1  0
 25 19  1  0
  1 32  1  0
  1 33  1  0
  1 34  1  0
  4 35  1  0
  5 36  1  0
  7 37  1  0
  7 38  1  0
  8 39  1  0
  8 40  1  0
  9 41  1  0
 13 42  1  0
 14 43  1  0
 14 44  1  0
 20 45  1  0
 21 46  1  0
 24 47  1  0
 25 48  1  0
 26 49  1  0
 26 50  1  0
 27 51  1  0
 27 52  1  0
 28 53  1  0
 31 54  1  0
 31 55  1  0
 31 56  1  0
M  END
$$$$
