
     RDKit          3D

 39 40  0  0  0  0  0  0  0  0999 V2000
   -4.9862    0.5566    0.9696 C   0  0  0  0  0  0  0  0  0  0  0  0
   -3.9208    1.3003    0.1790 C   0  0  0  0  0  0  0  0  0  0  0  0
   -2.8676    0.3798   -0.4404 C   0  0  0  0  0  0  0  0  0  0  0  0
   -2.0119   -0.3476    0.5998 C   0  0  0  0  0  0  0  0  0  0  0  0
   -0.9688   -1.1130   -0.0465 N   0  0  0  0  0  0  0  0  0  0  0  0
   -1.0550   -2.3157   -0.6614 C   0  0  0  0  0  0  0  0  0  0  0  0
   -2.1363   -3.0868   -0.4517 N   0  0  0  0  0  0  0  0  0  0  0  0
   -0.0597   -2.6908   -1.4096 N   0  0  0  0  0  0  0  0  0  0  0  0
    0.8726   -1.5239   -1.3876 C   0  0  0  0  0  0  0  0  0  0  0  0
    0.3346   -0.5272   -0.3339 C   0  0  0  0  0  0  0  0  0  0  0  0
    1.2069   -0.4873    0.9320 C   0  0  0  0  0  0  0  0  0  0  0  0
    2.5021    0.2668    0.7336 C   0  0  0  0  0  0  0  0  0  0  0  0
    3.7181   -0.4224    0.6290 C   0  0  0  0  0  0  0  0  0  0  0  0
    4.9113    0.2753    0.4365 C   0  0  0  0  0  0  0  0  0  0  0  0
    4.8934    1.6616    0.3517 C   0  0  0  0  0  0  0  0  0  0  0  0
    6.0824    2.3022    0.1646 O   0  0  0  0  0  0  0  0  0  0  0  0
    3.6988    2.3659    0.4566 C   0  0  0  0  0  0  0  0  0  0  0  0
    2.5041    1.6676    0.6479 C   0  0  0  0  0  0  0  0  0  0  0  0
   -5.4637   -0.2149    0.3571 H   0  0  0  0  0  0  0  0  0  0  0  0
   -4.5663    0.0811    1.8606 H   0  0  0  0  0  0  0  0  0  0  0  0
   -5.7622    1.2539    1.3018 H   0  0  0  0  0  0  0  0  0  0  0  0
   -3.4359    2.0405    0.8261 H   0  0  0  0  0  0  0  0  0  0  0  0
   -4.4119    1.8580   -0.6274 H   0  0  0  0  0  0  0  0  0  0  0  0
   -3.3578   -0.3458   -1.1007 H   0  0  0  0  0  0  0  0  0  0  0  0
   -2.2178    0.9871   -1.0832 H   0  0  0  0  0  0  0  0  0  0  0  0
   -2.6289   -1.0105    1.2157 H   0  0  0  0  0  0  0  0  0  0  0  0
   -1.5722    0.3860    1.2850 H   0  0  0  0  0  0  0  0  0  0  0  0
   -3.0148   -2.5950   -0.5115 H   0  0  0  0  0  0  0  0  0  0  0  0
   -2.1194   -3.8876   -1.0743 H   0  0  0  0  0  0  0  0  0  0  0  0
    1.8872   -1.8726   -1.1757 H   0  0  0  0  0  0  0  0  0  0  0  0
    0.8731   -1.0636   -2.3825 H   0  0  0  0  0  0  0  0  0  0  0  0
    0.2291    0.4693   -0.7782 H   0  0  0  0  0  0  0  0  0  0  0  0
    0.6644   -0.0035    1.7544 H   0  0  0  0  0  0  0  0  0  0  0  0
    1.4126   -1.5060    1.2871 H   0  0  0  0  0  0  0  0  0  0  0  0
    3.7462   -1.5083    0.6953 H   0  0  0  0  0  0  0  0  0  0  0  0
    5.8518   -0.2622    0.3545 H   0  0  0  0  0  0  0  0  0  0  0  0
    5.9176    3.2584    0.1329 H   0  0  0  0  0  0  0  0  0  0  0  0
    3.6773    3.4492    0.3944 H   0  0  0  0  0  0  0  0  0  0  0  0
    1.5738    2.2249    0.7346 H   0  0  0  0  0  0  0  0  0  0  0  0
  1  2  1  0
  2  3  1  0
  3  4  1  0
  4  5  1  0
  5  6  1  0
  6  7  1  0
  6  8  2  0
  8  9  1  0
  9 10  1  0
 10 11  1  0
 11 12  1  0
 12 13  2  0
 13 14  1  0
 14 15  2  0
 15 16  1  0
 15 17  1  0
 17 18  2  0
 10  5  1  0
 18 12  1  0
  1 19  1  0
  1 20  1  0
  1 21  1  0
  2 22  1  0
  2 23  1  0
  3 24  1  0
  3 25  1  0
  4 26  1  0
  4 27  1  0
  7 28  1  0
  7 29  1  0
  9 30  1  0
  9 31  1  0
 10 32  1  0
 11 33  1  0
 11 34  1  0
 13 35  1  0
 14 36  1  0
 16 37  1  0
 17 38  1  0
 18 39  1  0
M  END
$$$$
