
     RDKit          3D

 57 60  0  0  0  0  0  0  0  0999 V2000
   -3.7827    2.6256   -1.6204 C   0  0  0  0  0  0  0  0  0  0  0  0
   -4.9501    1.7948   -1.2368 C   0  0  0  0  0  0  0  0  0  0  0  0
   -6.0843    1.8778   -1.9428 N   0  0  0  0  0  0  0  0  0  0  0  0
   -6.9622    0.9920   -1.3549 O   0  0  0  0  0  0  0  0  0  0  0  0
   -6.3590    0.3856   -0.3009 C   0  0  0  0  0  0  0  0  0  0  0  0
   -7.1791   -0.5941    0.4356 C   0  0  0  0  0  0  0  0  0  0  0  0
   -5.0662    0.8510   -0.1769 C   0  0  0  0  0  0  0  0  0  0  0  0
   -4.0516    0.4647    0.8398 C   0  0  0  0  0  0  0  0  0  0  0  0
   -2.7153    0.3805    0.3350 O   0  0  0  0  0  0  0  0  0  0  0  0
   -2.3750   -0.6479   -0.5004 C   0  0  0  0  0  0  0  0  0  0  0  0
   -3.1210   -1.8172   -0.6734 C   0  0  0  0  0  0  0  0  0  0  0  0
   -2.6947   -2.8048   -1.5697 C   0  0  0  0  0  0  0  0  0  0  0  0
   -1.5233   -2.6356   -2.3055 C   0  0  0  0  0  0  0  0  0  0  0  0
   -0.7657   -1.4799   -2.1394 C   0  0  0  0  0  0  0  0  0  0  0  0
   -1.1801   -0.5020   -1.2256 C   0  0  0  0  0  0  0  0  0  0  0  0
   -0.3463    0.7146   -1.1106 C   0  0  0  0  0  0  0  0  0  0  0  0
   -0.1959    1.3992   -2.1207 O   0  0  0  0  0  0  0  0  0  0  0  0
    0.2510    1.0124    0.1128 N   0  0  0  0  0  0  0  0  0  0  0  0
    1.1661    2.1531    0.1647 C   0  0  0  0  0  0  0  0  0  0  0  0
    2.6275    1.6908   -0.0073 C   0  0  0  0  0  0  0  0  0  0  0  0
    2.9584    0.6307    0.9919 N   0  0  0  0  0  0  0  0  0  0  0  0
    4.3296    0.3406    1.0743 C   0  0  0  0  0  0  0  0  0  0  0  0
    5.2315    1.3544    1.4383 C   0  0  0  0  0  0  0  0  0  0  0  0
    6.6044    1.1181    1.5501 C   0  0  0  0  0  0  0  0  0  0  0  0
    7.1126   -0.1524    1.3037 C   0  0  0  0  0  0  0  0  0  0  0  0
    6.2487   -1.1927    0.9443 C   0  0  0  0  0  0  0  0  0  0  0  0
    6.7764   -2.5835    0.7017 C   0  0  0  0  0  0  0  0  0  0  0  0
    8.0848   -2.6065    0.3218 F   0  0  0  0  0  0  0  0  0  0  0  0
    6.0966   -3.2487   -0.2748 F   0  0  0  0  0  0  0  0  0  0  0  0
    6.6959   -3.3692    1.8111 F   0  0  0  0  0  0  0  0  0  0  0  0
    4.8663   -0.9352    0.8465 C   0  0  0  0  0  0  0  0  0  0  0  0
    2.0028   -0.5051    0.9752 C   0  0  0  0  0  0  0  0  0  0  0  0
    0.5516    0.0001    1.1324 C   0  0  0  0  0  0  0  0  0  0  0  0
   -4.1003    3.5489   -2.1163 H   0  0  0  0  0  0  0  0  0  0  0  0
   -3.1362    2.0739   -2.3094 H   0  0  0  0  0  0  0  0  0  0  0  0
   -3.1944    2.9090   -0.7422 H   0  0  0  0  0  0  0  0  0  0  0  0
   -7.0368   -1.5960    0.0190 H   0  0  0  0  0  0  0  0  0  0  0  0
   -6.9019   -0.6192    1.4940 H   0  0  0  0  0  0  0  0  0  0  0  0
   -8.2429   -0.3438    0.3738 H   0  0  0  0  0  0  0  0  0  0  0  0
   -4.3178   -0.4537    1.3752 H   0  0  0  0  0  0  0  0  0  0  0  0
   -4.0348    1.2508    1.6049 H   0  0  0  0  0  0  0  0  0  0  0  0
   -4.0451   -1.9964   -0.1350 H   0  0  0  0  0  0  0  0  0  0  0  0
   -3.2901   -3.7056   -1.7040 H   0  0  0  0  0  0  0  0  0  0  0  0
   -1.2084   -3.3973   -3.0147 H   0  0  0  0  0  0  0  0  0  0  0  0
    0.1390   -1.3318   -2.7249 H   0  0  0  0  0  0  0  0  0  0  0  0
    1.0363    2.6311    1.1432 H   0  0  0  0  0  0  0  0  0  0  0  0
    0.9117    2.8930   -0.6012 H   0  0  0  0  0  0  0  0  0  0  0  0
    3.2708    2.5702    0.1021 H   0  0  0  0  0  0  0  0  0  0  0  0
    2.7743    1.2892   -1.0184 H   0  0  0  0  0  0  0  0  0  0  0  0
    4.8608    2.3498    1.6725 H   0  0  0  0  0  0  0  0  0  0  0  0
    7.2702    1.9269    1.8403 H   0  0  0  0  0  0  0  0  0  0  0  0
    8.1826   -0.3297    1.3977 H   0  0  0  0  0  0  0  0  0  0  0  0
    4.2188   -1.7624    0.5660 H   0  0  0  0  0  0  0  0  0  0  0  0
    2.2150   -1.1939    1.8016 H   0  0  0  0  0  0  0  0  0  0  0  0
    2.0899   -1.0523    0.0278 H   0  0  0  0  0  0  0  0  0  0  0  0
   -0.1344   -0.8476    1.0806 H   0  0  0  0  0  0  0  0  0  0  0  0
    0.4217    0.4756    2.1118 H   0  0  0  0  0  0  0  0  0  0  0  0
  1  2  1  0
  2  3  2  0
  3  4  1  0
  4  5  1  0
  5  6  1  0
  5  7  2  0
  7  8  1  0
  8  9  1  0
  9 10  1  0
 10 11  2  0
 11 12  1  0
 12 13  2  0
 13 14  1  0
 14 15  2  0
 15 16  1  0
 16 17  2  0
 16 18  1  0
 18 19  1  0
 19 20  1  0
 20 21  1  0
 21 22  1  0
 22 23  2  0
 23 24  1  0
 24 25  2  0
 25 26  1  0
 26 27  1  0
 27 28  1  0
 27 29  1  0
 27 30  1  0
 26 31  2  0
 21 32  1  0
 32 33  1  0
  7  2  1  0
 15 10  1  0
 33 18  1  0
 31 22  1  0
  1 34  1  0
  1 35  1  0
  1 36  1  0
  6 37  1  0
  6 38  1  0
  6 39  1  0
  8 40  1  0
  8 41  1  0
 11 42  1  0
 12 43  1  0
 13 44  1  0
 14 45  1  0
 19 46  1  0
 19 47  1  0
 20 48  1  0
 20 49  1  0
 23 50  1  0
 24 51  1  0
 25 52  1  0
 31 53  1  0
 32 54  1  0
 32 55  1  0
 33 56  1  0
 33 57  1  0
M  END
$$$$
