
     RDKit          3D

 56 59  0  0  0  0  0  0  0  0999 V2000
    5.1939    2.9107   -1.7091 C   0  0  0  0  0  0  0  0  0  0  0  0
    4.3634    1.9852   -2.5764 C   0  0  0  0  0  0  0  0  0  0  0  0
    4.5517    0.6242   -2.2107 O   0  0  0  0  0  0  0  0  0  0  0  0
    3.8885    0.1202   -1.1240 C   0  0  0  0  0  0  0  0  0  0  0  0
    2.9008    0.7808   -0.3901 C   0  0  0  0  0  0  0  0  0  0  0  0
    2.2926    0.1522    0.7100 C   0  0  0  0  0  0  0  0  0  0  0  0
    1.2615    0.8529    1.4777 C   0  0  0  0  0  0  0  0  0  0  0  0
   -0.0620    0.6978    1.3297 C   0  0  0  0  0  0  0  0  0  0  0  0
   -1.1966    1.5434    2.3012 S   0  0  0  0  0  0  0  0  0  0  0  0
   -2.5718    0.7193    1.5822 C   0  0  0  0  0  0  0  0  0  0  0  0
   -3.8013    0.8601    1.9602 N   0  0  0  0  0  0  0  0  0  0  0  0
   -4.1559    1.7316    2.9943 C   0  0  0  0  0  0  0  0  0  0  0  0
   -4.4640    1.2228    4.2541 C   0  0  0  0  0  0  0  0  0  0  0  0
   -4.8573    2.0761    5.2879 C   0  0  0  0  0  0  0  0  0  0  0  0
   -4.9554    3.4456    5.0599 C   0  0  0  0  0  0  0  0  0  0  0  0
   -4.6879    3.9586    3.7920 C   0  0  0  0  0  0  0  0  0  0  0  0
   -4.2942    3.1018    2.7626 C   0  0  0  0  0  0  0  0  0  0  0  0
   -2.1529   -0.1449    0.5810 N   0  0  0  0  0  0  0  0  0  0  0  0
   -3.0532   -0.9575   -0.1996 C   0  0  0  0  0  0  0  0  0  0  0  0
   -2.6385   -2.1894   -0.7385 C   0  0  0  0  0  0  0  0  0  0  0  0
   -3.5066   -2.9965   -1.4869 C   0  0  0  0  0  0  0  0  0  0  0  0
   -4.8145   -2.5862   -1.7206 C   0  0  0  0  0  0  0  0  0  0  0  0
   -5.2474   -1.3684   -1.2105 C   0  0  0  0  0  0  0  0  0  0  0  0
   -4.3780   -0.5667   -0.4569 C   0  0  0  0  0  0  0  0  0  0  0  0
   -0.7761   -0.1760    0.3524 C   0  0  0  0  0  0  0  0  0  0  0  0
   -0.1835   -0.7637   -0.5457 O   0  0  0  0  0  0  0  0  0  0  0  0
    2.6798   -1.1374    1.0842 C   0  0  0  0  0  0  0  0  0  0  0  0
    3.6650   -1.8020    0.3599 C   0  0  0  0  0  0  0  0  0  0  0  0
    4.2485   -1.1818   -0.7406 C   0  0  0  0  0  0  0  0  0  0  0  0
    5.2400   -1.8667   -1.3992 O   0  0  0  0  0  0  0  0  0  0  0  0
    4.7165   -2.4959   -2.5723 C   0  0  0  0  0  0  0  0  0  0  0  0
    4.6173   -4.0038   -2.3849 C   0  0  0  0  0  0  0  0  0  0  0  0
    4.8265   -4.6532   -1.3667 O   0  0  0  0  0  0  0  0  0  0  0  0
    4.2490   -4.6413   -3.5156 O   0  0  0  0  0  0  0  0  0  0  0  0
    6.2419    2.5817   -1.6786 H   0  0  0  0  0  0  0  0  0  0  0  0
    5.1560    3.9335   -2.0927 H   0  0  0  0  0  0  0  0  0  0  0  0
    4.8325    2.9185   -0.6796 H   0  0  0  0  0  0  0  0  0  0  0  0
    3.3087    2.2703   -2.6001 H   0  0  0  0  0  0  0  0  0  0  0  0
    4.7206    2.0698   -3.6067 H   0  0  0  0  0  0  0  0  0  0  0  0
    2.5822    1.7867   -0.6533 H   0  0  0  0  0  0  0  0  0  0  0  0
    1.6569    1.5342    2.2272 H   0  0  0  0  0  0  0  0  0  0  0  0
   -4.4150    0.1545    4.4266 H   0  0  0  0  0  0  0  0  0  0  0  0
   -5.0973    1.6697    6.2640 H   0  0  0  0  0  0  0  0  0  0  0  0
   -5.2689    4.1091    5.8610 H   0  0  0  0  0  0  0  0  0  0  0  0
   -4.8002    5.0214    3.6034 H   0  0  0  0  0  0  0  0  0  0  0  0
   -4.0996    3.5041    1.7751 H   0  0  0  0  0  0  0  0  0  0  0  0
   -1.6375   -2.5737   -0.5637 H   0  0  0  0  0  0  0  0  0  0  0  0
   -3.1524   -3.9442   -1.8870 H   0  0  0  0  0  0  0  0  0  0  0  0
   -5.4889   -3.2124   -2.3022 H   0  0  0  0  0  0  0  0  0  0  0  0
   -6.2657   -1.0318   -1.3939 H   0  0  0  0  0  0  0  0  0  0  0  0
   -4.7687    0.3867   -0.1099 H   0  0  0  0  0  0  0  0  0  0  0  0
    2.2181   -1.6321    1.9361 H   0  0  0  0  0  0  0  0  0  0  0  0
    3.9787   -2.7982    0.6515 H   0  0  0  0  0  0  0  0  0  0  0  0
    3.7266   -2.1164   -2.8722 H   0  0  0  0  0  0  0  0  0  0  0  0
    5.4280   -2.2984   -3.3800 H   0  0  0  0  0  0  0  0  0  0  0  0
    4.2462   -5.5851   -3.2507 H   0  0  0  0  0  0  0  0  0  0  0  0
  1  2  1  0
  2  3  1  0
  3  4  1  0
  4  5  2  0
  5  6  1  0
  6  7  1  0
  7  8  2  3
  8  9  1  0
  9 10  1  0
 10 11  2  3
 11 12  1  0
 12 13  2  0
 13 14  1  0
 14 15  2  0
 15 16  1  0
 16 17  2  0
 10 18  1  0
 18 19  1  0
 19 20  2  0
 20 21  1  0
 21 22  2  0
 22 23  1  0
 23 24  2  0
 18 25  1  0
 25 26  2  0
  6 27  2  0
 27 28  1  0
 28 29  2  0
 29 30  1  0
 30 31  1  0
 31 32  1  0
 32 33  2  0
 32 34  1  0
 29  4  1  0
 25  8  1  0
 17 12  1  0
 24 19  1  0
  1 35  1  0
  1 36  1  0
  1 37  1  0
  2 38  1  0
  2 39  1  0
  5 40  1  0
  7 41  1  0
 13 42  1  0
 14 43  1  0
 15 44  1  0
 16 45  1  0
 17 46  1  0
 20 47  1  0
 21 48  1  0
 22 49  1  0
 23 50  1  0
 24 51  1  0
 27 52  1  0
 28 53  1  0
 31 54  1  0
 31 55  1  0
 34 56  1  0
M  END
$$$$
