
     RDKit          3D

 38 40  0  0  0  0  0  0  0  0999 V2000
    0.0545   -1.2734   -3.1559 O   0  0  0  0  0  0  0  0  0  0  0  0
   -0.0643   -1.2156   -1.9332 C   0  0  0  0  0  0  0  0  0  0  0  0
   -1.3843   -1.6441   -1.2757 C   0  0  0  0  0  0  0  0  0  0  0  0
   -1.6520   -1.0327    0.0374 N   0  0  0  0  0  0  0  0  0  0  0  0
   -1.5157   -1.8396    1.1650 C   0  0  0  0  0  0  0  0  0  0  0  0
   -0.9848   -2.9500    1.1290 O   0  0  0  0  0  0  0  0  0  0  0  0
   -2.0806   -1.3095    2.4623 C   0  0  0  0  0  0  0  0  0  0  0  0
   -1.0564   -0.5092    3.2361 C   0  0  0  0  0  0  0  0  0  0  0  0
   -0.1082    0.6879    2.2483 S   0  0  0  0  0  0  0  0  0  0  0  0
   -1.3608    1.2205    1.0813 C   0  0  0  0  0  0  0  0  0  0  0  0
   -1.6529    2.5936    1.0813 C   0  0  0  0  0  0  0  0  0  0  0  0
   -2.5025    3.1411    0.1230 C   0  0  0  0  0  0  0  0  0  0  0  0
   -3.0513    2.3245   -0.8573 C   0  0  0  0  0  0  0  0  0  0  0  0
   -2.7595    0.9580   -0.8768 C   0  0  0  0  0  0  0  0  0  0  0  0
   -1.9265    0.3773    0.0946 C   0  0  0  0  0  0  0  0  0  0  0  0
    0.9372   -0.8983   -1.0342 N   0  0  0  0  0  0  0  0  0  0  0  0
    2.2565   -0.4930   -1.3121 C   0  0  0  0  0  0  0  0  0  0  0  0
    3.0884   -0.2335   -0.2124 C   0  0  0  0  0  0  0  0  0  0  0  0
    4.4100    0.1782   -0.4005 C   0  0  0  0  0  0  0  0  0  0  0  0
    4.9008    0.3304   -1.6897 C   0  0  0  0  0  0  0  0  0  0  0  0
    6.1673    0.7253   -1.8728 F   0  0  0  0  0  0  0  0  0  0  0  0
    4.0940    0.0785   -2.7909 C   0  0  0  0  0  0  0  0  0  0  0  0
    2.7705   -0.3332   -2.6023 C   0  0  0  0  0  0  0  0  0  0  0  0
   -1.3476   -2.7357   -1.1826 H   0  0  0  0  0  0  0  0  0  0  0  0
   -2.2083   -1.4268   -1.9609 H   0  0  0  0  0  0  0  0  0  0  0  0
   -2.4124   -2.1650    3.0636 H   0  0  0  0  0  0  0  0  0  0  0  0
   -2.9900   -0.7275    2.2731 H   0  0  0  0  0  0  0  0  0  0  0  0
   -1.5508    0.0282    4.0523 H   0  0  0  0  0  0  0  0  0  0  0  0
   -0.3274   -1.1862    3.6947 H   0  0  0  0  0  0  0  0  0  0  0  0
   -1.2007    3.2550    1.8183 H   0  0  0  0  0  0  0  0  0  0  0  0
   -2.7195    4.2066    0.1319 H   0  0  0  0  0  0  0  0  0  0  0  0
   -3.7085    2.7496   -1.6130 H   0  0  0  0  0  0  0  0  0  0  0  0
   -3.2354    0.3611   -1.6496 H   0  0  0  0  0  0  0  0  0  0  0  0
    0.6839   -0.9563   -0.0535 H   0  0  0  0  0  0  0  0  0  0  0  0
    2.7202   -0.3485    0.8040 H   0  0  0  0  0  0  0  0  0  0  0  0
    5.0549    0.3794    0.4485 H   0  0  0  0  0  0  0  0  0  0  0  0
    4.4942    0.2024   -3.7921 H   0  0  0  0  0  0  0  0  0  0  0  0
    2.1680   -0.5196   -3.4855 H   0  0  0  0  0  0  0  0  0  0  0  0
  1  2  2  0
  2  3  1  0
  3  4  1  0
  4  5  1  0
  5  6  2  0
  5  7  1  0
  7  8  1  0
  8  9  1  0
  9 10  1  0
 10 11  2  0
 11 12  1  0
 12 13  2  0
 13 14  1  0
 14 15  2  0
  2 16  1  0
 16 17  1  0
 17 18  2  0
 18 19  1  0
 19 20  2  0
 20 21  1  0
 20 22  1  0
 22 23  2  0
 15  4  1  0
 23 17  1  0
 15 10  1  0
  3 24  1  0
  3 25  1  0
  7 26  1  0
  7 27  1  0
  8 28  1  0
  8 29  1  0
 11 30  1  0
 12 31  1  0
 13 32  1  0
 14 33  1  0
 16 34  1  0
 18 35  1  0
 19 36  1  0
 22 37  1  0
 23 38  1  0
M  END
$$$$
