
     RDKit          3D

 46 49  0  0  0  0  0  0  0  0999 V2000
    5.8030   -1.4032   -0.3731 C   0  0  0  0  0  0  0  0  0  0  0  0
    4.6447   -1.0708   -0.9577 C   0  0  0  0  0  0  0  0  0  0  0  0
    3.3124   -1.0611   -0.2464 C   0  0  0  0  0  0  0  0  0  0  0  0
    2.2744   -1.9780   -0.9466 C   0  0  0  0  0  0  0  0  0  0  0  0
    0.9512   -1.3158   -1.0860 N   0  0  0  0  0  0  0  0  0  0  0  0
    1.1205   -0.1712   -2.0115 C   0  0  0  0  0  0  0  0  0  0  0  0
    2.1887    0.8154   -1.5131 C   0  0  0  0  0  0  0  0  0  0  0  0
    2.7052    0.3607   -0.1364 C   0  0  0  0  0  0  0  0  0  0  0  0
    1.4735    0.2640    0.7899 C   0  0  0  0  0  0  0  0  0  0  0  0
    0.5228   -0.8227    0.2504 C   0  0  0  0  0  0  0  0  0  0  0  0
   -0.9568   -0.5155    0.2460 C   0  0  0  0  0  0  0  0  0  0  0  0
   -1.8198   -1.5949    0.2617 N   0  0  0  0  0  0  0  0  0  0  0  0
   -3.1297   -1.1976    0.2879 C   0  0  0  0  0  0  0  0  0  0  0  0
   -4.3037   -1.9587    0.3381 C   0  0  0  0  0  0  0  0  0  0  0  0
   -5.5207   -1.2719    0.3332 C   0  0  0  0  0  0  0  0  0  0  0  0
   -5.5567    0.1184    0.2736 C   0  0  0  0  0  0  0  0  0  0  0  0
   -4.3704    0.8597    0.2189 C   0  0  0  0  0  0  0  0  0  0  0  0
   -3.1274    0.1903    0.2304 C   0  0  0  0  0  0  0  0  0  0  0  0
   -1.7554    0.6260    0.1815 C   0  0  0  0  0  0  0  0  0  0  0  0
   -1.3527    2.0641    0.0665 C   0  0  0  0  0  0  0  0  0  0  0  0
   -1.3488    2.7832    1.4128 C   0  0  0  0  0  0  0  0  0  0  0  0
   -0.8793    4.1173    1.2411 O   0  0  0  0  0  0  0  0  0  0  0  0
    6.7314   -1.3937   -0.9366 H   0  0  0  0  0  0  0  0  0  0  0  0
    5.8573   -1.6879    0.6731 H   0  0  0  0  0  0  0  0  0  0  0  0
    4.6560   -0.7950   -2.0106 H   0  0  0  0  0  0  0  0  0  0  0  0
    3.4605   -1.4401    0.7752 H   0  0  0  0  0  0  0  0  0  0  0  0
    2.1543   -2.9010   -0.3640 H   0  0  0  0  0  0  0  0  0  0  0  0
    2.6201   -2.3083   -1.9352 H   0  0  0  0  0  0  0  0  0  0  0  0
    0.1668    0.3469   -2.1643 H   0  0  0  0  0  0  0  0  0  0  0  0
    1.4000   -0.5440   -3.0053 H   0  0  0  0  0  0  0  0  0  0  0  0
    3.0097    0.8794   -2.2353 H   0  0  0  0  0  0  0  0  0  0  0  0
    1.7594    1.8212   -1.4376 H   0  0  0  0  0  0  0  0  0  0  0  0
    3.4299    1.0780    0.2647 H   0  0  0  0  0  0  0  0  0  0  0  0
    1.0151    1.2474    0.8805 H   0  0  0  0  0  0  0  0  0  0  0  0
    1.8012   -0.0100    1.8012 H   0  0  0  0  0  0  0  0  0  0  0  0
    0.6206   -1.6718    0.9465 H   0  0  0  0  0  0  0  0  0  0  0  0
   -1.5157   -2.5578    0.2339 H   0  0  0  0  0  0  0  0  0  0  0  0
   -4.2759   -3.0425    0.3754 H   0  0  0  0  0  0  0  0  0  0  0  0
   -6.4515   -1.8329    0.3705 H   0  0  0  0  0  0  0  0  0  0  0  0
   -6.5131    0.6350    0.2644 H   0  0  0  0  0  0  0  0  0  0  0  0
   -4.4128    1.9433    0.1648 H   0  0  0  0  0  0  0  0  0  0  0  0
   -2.0422    2.5862   -0.6105 H   0  0  0  0  0  0  0  0  0  0  0  0
   -0.3808    2.1653   -0.4242 H   0  0  0  0  0  0  0  0  0  0  0  0
   -2.3577    2.8251    1.8371 H   0  0  0  0  0  0  0  0  0  0  0  0
   -0.6962    2.2787    2.1326 H   0  0  0  0  0  0  0  0  0  0  0  0
   -0.9117    4.5409    2.1161 H   0  0  0  0  0  0  0  0  0  0  0  0
  1  2  2  0
  2  3  1  0
  3  4  1  0
  4  5  1  0
  5  6  1  0
  6  7  1  0
  7  8  1  0
  8  9  1  0
  9 10  1  0
 10 11  1  0
 11 12  1  0
 12 13  1  0
 13 14  2  0
 14 15  1  0
 15 16  2  0
 16 17  1  0
 17 18  2  0
 18 19  1  0
 19 20  1  0
 20 21  1  0
 21 22  1  0
  8  3  1  0
 19 11  2  0
 10  5  1  0
 18 13  1  0
  1 23  1  0
  1 24  1  0
  2 25  1  0
  3 26  1  0
  4 27  1  0
  4 28  1  0
  6 29  1  0
  6 30  1  0
  7 31  1  0
  7 32  1  0
  8 33  1  0
  9 34  1  0
  9 35  1  0
 10 36  1  0
 12 37  1  0
 14 38  1  0
 15 39  1  0
 16 40  1  0
 17 41  1  0
 20 42  1  0
 20 43  1  0
 21 44  1  0
 21 45  1  0
 22 46  1  0
M  END
$$$$
