
     RDKit          3D

 48 48  0  0  0  0  0  0  0  0999 V2000
   -8.4783   -0.4218    0.6157 C   0  0  0  0  0  0  0  0  0  0  0  0
   -6.9752   -0.5997    0.7688 C   0  0  0  0  0  0  0  0  0  0  0  0
   -6.2653   -0.5281   -0.5837 C   0  0  0  0  0  0  0  0  0  0  0  0
   -4.7634   -0.8148   -0.4989 C   0  0  0  0  0  0  0  0  0  0  0  0
   -3.9849    0.2450    0.2840 C   0  0  0  0  0  0  0  0  0  0  0  0
   -2.4789   -0.0291    0.2404 C   0  0  0  0  0  0  0  0  0  0  0  0
   -1.7003    1.0306    1.0231 C   0  0  0  0  0  0  0  0  0  0  0  0
   -0.1988    0.7434    1.1068 C   0  0  0  0  0  0  0  0  0  0  0  0
    0.5084    0.8074   -0.2463 C   0  0  0  0  0  0  0  0  0  0  0  0
    2.0140    0.6408   -0.1177 C   0  0  0  0  0  0  0  0  0  0  0  0
    2.5823    0.4702    0.9563 O   0  0  0  0  0  0  0  0  0  0  0  0
    2.6407    0.6879   -1.3684 N   0  0  0  0  0  0  0  0  0  0  0  0
    4.0004    0.8283   -1.4583 N   0  0  0  0  0  0  0  0  0  0  0  0
    4.7662   -0.1382   -1.0325 C   0  0  0  0  0  0  0  0  0  0  0  0
    4.2676   -1.4991   -0.5832 C   0  0  0  0  0  0  0  0  0  0  0  0
    6.2409    0.0893   -1.0174 C   0  0  0  0  0  0  0  0  0  0  0  0
    7.1104   -0.6655   -0.2274 C   0  0  0  0  0  0  0  0  0  0  0  0
    8.4786   -0.3972   -0.2626 C   0  0  0  0  0  0  0  0  0  0  0  0
    8.9318    0.6206   -1.0865 C   0  0  0  0  0  0  0  0  0  0  0  0
    8.1216    1.3751   -1.8583 N   0  0  0  0  0  0  0  0  0  0  0  0
    6.7937    1.0982   -1.7993 C   0  0  0  0  0  0  0  0  0  0  0  0
   -8.9041   -1.2066   -0.0176 H   0  0  0  0  0  0  0  0  0  0  0  0
   -8.7145    0.5484    0.1672 H   0  0  0  0  0  0  0  0  0  0  0  0
   -8.9673   -0.4725    1.5936 H   0  0  0  0  0  0  0  0  0  0  0  0
   -6.5978    0.1795    1.4393 H   0  0  0  0  0  0  0  0  0  0  0  0
   -6.7746   -1.5664    1.2448 H   0  0  0  0  0  0  0  0  0  0  0  0
   -6.4265    0.4583   -1.0354 H   0  0  0  0  0  0  0  0  0  0  0  0
   -6.7150   -1.2630   -1.2630 H   0  0  0  0  0  0  0  0  0  0  0  0
   -4.6021   -1.8016   -0.0480 H   0  0  0  0  0  0  0  0  0  0  0  0
   -4.3681   -0.8667   -1.5210 H   0  0  0  0  0  0  0  0  0  0  0  0
   -4.3160    0.2588    1.3283 H   0  0  0  0  0  0  0  0  0  0  0  0
   -4.1891    1.2371   -0.1363 H   0  0  0  0  0  0  0  0  0  0  0  0
   -2.2746   -1.0212    0.6607 H   0  0  0  0  0  0  0  0  0  0  0  0
   -2.1476   -0.0429   -0.8039 H   0  0  0  0  0  0  0  0  0  0  0  0
   -1.8614    2.0173    0.5721 H   0  0  0  0  0  0  0  0  0  0  0  0
   -2.0951    1.0829    2.0454 H   0  0  0  0  0  0  0  0  0  0  0  0
    0.2528    1.4787    1.7849 H   0  0  0  0  0  0  0  0  0  0  0  0
   -0.0350   -0.2397    1.5654 H   0  0  0  0  0  0  0  0  0  0  0  0
    0.3102    1.7749   -0.7222 H   0  0  0  0  0  0  0  0  0  0  0  0
    0.1410    0.0143   -0.9066 H   0  0  0  0  0  0  0  0  0  0  0  0
    2.1502    1.2449   -2.0631 H   0  0  0  0  0  0  0  0  0  0  0  0
    4.9608   -2.2840   -0.9009 H   0  0  0  0  0  0  0  0  0  0  0  0
    3.3000   -1.7374   -1.0321 H   0  0  0  0  0  0  0  0  0  0  0  0
    4.1800   -1.5222    0.5060 H   0  0  0  0  0  0  0  0  0  0  0  0
    6.7451   -1.4470    0.4316 H   0  0  0  0  0  0  0  0  0  0  0  0
    9.1747   -0.9655    0.3448 H   0  0  0  0  0  0  0  0  0  0  0  0
    9.9886    0.8658   -1.1457 H   0  0  0  0  0  0  0  0  0  0  0  0
    6.1740    1.7324   -2.4279 H   0  0  0  0  0  0  0  0  0  0  0  0
  1  2  1  0
  2  3  1  0
  3  4  1  0
  4  5  1  0
  5  6  1  0
  6  7  1  0
  7  8  1  0
  8  9  1  0
  9 10  1  0
 10 11  2  0
 10 12  1  0
 12 13  1  0
 13 14  2  3
 14 15  1  0
 14 16  1  0
 16 17  2  0
 17 18  1  0
 18 19  2  0
 19 20  1  0
 20 21  2  0
 21 16  1  0
  1 22  1  0
  1 23  1  0
  1 24  1  0
  2 25  1  0
  2 26  1  0
  3 27  1  0
  3 28  1  0
  4 29  1  0
  4 30  1  0
  5 31  1  0
  5 32  1  0
  6 33  1  0
  6 34  1  0
  7 35  1  0
  7 36  1  0
  8 37  1  0
  8 38  1  0
  9 39  1  0
  9 40  1  0
 12 41  1  0
 15 42  1  0
 15 43  1  0
 15 44  1  0
 17 45  1  0
 18 46  1  0
 19 47  1  0
 21 48  1  0
M  END
$$$$
