
     RDKit          3D

 39 41  0  0  0  0  0  0  0  0999 V2000
    0.2045   -2.1376    2.9210 S   0  0  0  0  0  0  0  0  0  0  0  0
   -0.0217   -1.1629    1.5699 C   0  0  0  0  0  0  0  0  0  0  0  0
    0.8927   -0.2047    1.1722 N   0  0  0  0  0  0  0  0  0  0  0  0
    2.1657    0.0884    1.8347 C   0  0  0  0  0  0  0  0  0  0  0  0
    3.0797    0.9575    0.9691 C   0  0  0  0  0  0  0  0  0  0  0  0
    3.5743    0.2594   -0.2893 C   0  0  0  0  0  0  0  0  0  0  0  0
    4.8621    0.9961   -0.5590 C   0  0  0  0  0  0  0  0  0  0  0  0
    5.3954    1.2136    0.8405 C   0  0  0  0  0  0  0  0  0  0  0  0
    4.2568    1.3399    1.7050 O   0  0  0  0  0  0  0  0  0  0  0  0
   -1.1474   -1.2285    0.7333 N   0  0  0  0  0  0  0  0  0  0  0  0
   -2.3700   -1.9454    1.1617 C   0  0  0  0  0  0  0  0  0  0  0  0
   -3.5418   -1.9271    0.1669 C   0  0  0  0  0  0  0  0  0  0  0  0
   -3.6284   -0.6169   -0.5671 C   0  0  0  0  0  0  0  0  0  0  0  0
   -4.8465   -0.0112   -0.8808 C   0  0  0  0  0  0  0  0  0  0  0  0
   -4.8601    1.1849   -1.5984 C   0  0  0  0  0  0  0  0  0  0  0  0
   -3.6624    1.7688   -2.0143 C   0  0  0  0  0  0  0  0  0  0  0  0
   -2.4429    1.1595   -1.7160 C   0  0  0  0  0  0  0  0  0  0  0  0
   -2.4208   -0.0335   -0.9885 C   0  0  0  0  0  0  0  0  0  0  0  0
   -1.1404   -0.7585   -0.6620 C   0  0  0  0  0  0  0  0  0  0  0  0
    0.4292    0.6212    0.8176 H   0  0  0  0  0  0  0  0  0  0  0  0
    2.6762   -0.8455    2.0953 H   0  0  0  0  0  0  0  0  0  0  0  0
    1.9432    0.6023    2.7774 H   0  0  0  0  0  0  0  0  0  0  0  0
    2.5609    1.8857    0.6971 H   0  0  0  0  0  0  0  0  0  0  0  0
    2.8612    0.3169   -1.1165 H   0  0  0  0  0  0  0  0  0  0  0  0
    3.7898   -0.7981   -0.0942 H   0  0  0  0  0  0  0  0  0  0  0  0
    5.5570    0.4481   -1.2005 H   0  0  0  0  0  0  0  0  0  0  0  0
    4.6457    1.9614   -1.0318 H   0  0  0  0  0  0  0  0  0  0  0  0
    5.9779    0.3510    1.1812 H   0  0  0  0  0  0  0  0  0  0  0  0
    6.0187    2.1088    0.9184 H   0  0  0  0  0  0  0  0  0  0  0  0
   -2.6928   -1.4767    2.1004 H   0  0  0  0  0  0  0  0  0  0  0  0
   -2.1163   -2.9881    1.3840 H   0  0  0  0  0  0  0  0  0  0  0  0
   -3.4033   -2.7206   -0.5785 H   0  0  0  0  0  0  0  0  0  0  0  0
   -4.4734   -2.1463    0.7012 H   0  0  0  0  0  0  0  0  0  0  0  0
   -5.7857   -0.4624   -0.5712 H   0  0  0  0  0  0  0  0  0  0  0  0
   -5.8072    1.6614   -1.8390 H   0  0  0  0  0  0  0  0  0  0  0  0
   -3.6815    2.6987   -2.5772 H   0  0  0  0  0  0  0  0  0  0  0  0
   -1.5191    1.6199   -2.0560 H   0  0  0  0  0  0  0  0  0  0  0  0
   -0.2741   -0.1337   -0.8913 H   0  0  0  0  0  0  0  0  0  0  0  0
   -1.0555   -1.6461   -1.3021 H   0  0  0  0  0  0  0  0  0  0  0  0
  1  2  2  0
  2  3  1  0
  3  4  1  0
  4  5  1  0
  5  6  1  0
  6  7  1  0
  7  8  1  0
  8  9  1  0
  2 10  1  0
 10 11  1  0
 11 12  1  0
 12 13  1  0
 13 14  2  0
 14 15  1  0
 15 16  2  0
 16 17  1  0
 17 18  2  0
 18 19  1  0
  9  5  1  0
 19 10  1  0
 18 13  1  0
  3 20  1  0
  4 21  1  0
  4 22  1  0
  5 23  1  0
  6 24  1  0
  6 25  1  0
  7 26  1  0
  7 27  1  0
  8 28  1  0
  8 29  1  0
 11 30  1  0
 11 31  1  0
 12 32  1  0
 12 33  1  0
 14 34  1  0
 15 35  1  0
 16 36  1  0
 17 37  1  0
 19 38  1  0
 19 39  1  0
M  END
$$$$
