
     RDKit          3D

 46 48  0  0  0  0  0  0  0  0999 V2000
   -0.7022   -1.8188    0.7697 O   0  0  0  0  0  0  0  0  0  0  0  0
   -0.5678   -0.7100    0.2657 C   0  0  0  0  0  0  0  0  0  0  0  0
    0.7979   -0.0904    0.0214 C   0  0  0  0  0  0  0  0  0  0  0  0
    1.9263   -1.0728    0.3483 C   0  0  0  0  0  0  0  0  0  0  0  0
    3.2570   -0.4812    0.0696 N   0  0  0  0  0  0  0  0  0  0  0  0
    4.2485   -1.5675   -0.0735 C   0  0  0  0  0  0  0  0  0  0  0  0
    5.5648   -1.1514   -0.7351 C   0  0  0  0  0  0  0  0  0  0  0  0
    6.3213   -0.0086   -0.0622 C   0  0  0  0  0  0  0  0  0  0  0  0
    5.6381    1.3381   -0.2684 C   0  0  0  0  0  0  0  0  0  0  0  0
    4.4713    1.6236    0.6726 C   0  0  0  0  0  0  0  0  0  0  0  0
    3.6592    0.4250    1.1609 C   0  0  0  0  0  0  0  0  0  0  0  0
   -1.5860    0.1427   -0.1339 N   0  0  0  0  0  0  0  0  0  0  0  0
   -2.9768   -0.0785   -0.0563 C   0  0  0  0  0  0  0  0  0  0  0  0
   -3.5566   -1.2411    0.4586 C   0  0  0  0  0  0  0  0  0  0  0  0
   -4.9486   -1.3807    0.5078 C   0  0  0  0  0  0  0  0  0  0  0  0
   -5.7692   -0.3575    0.0451 C   0  0  0  0  0  0  0  0  0  0  0  0
   -5.1991    0.7960   -0.4963 C   0  0  0  0  0  0  0  0  0  0  0  0
   -3.8115    0.9412   -0.5331 C   0  0  0  0  0  0  0  0  0  0  0  0
   -5.9401    1.8336   -1.0039 O   0  0  0  0  0  0  0  0  0  0  0  0
   -7.2996    1.4408   -1.2285 C   0  0  0  0  0  0  0  0  0  0  0  0
   -7.8409    0.6714   -0.0349 C   0  0  0  0  0  0  0  0  0  0  0  0
   -7.1219   -0.5540    0.1446 O   0  0  0  0  0  0  0  0  0  0  0  0
    0.8604    0.2053   -1.0333 H   0  0  0  0  0  0  0  0  0  0  0  0
    0.8652    0.8144    0.6348 H   0  0  0  0  0  0  0  0  0  0  0  0
    1.8620   -1.4258    1.3862 H   0  0  0  0  0  0  0  0  0  0  0  0
    1.7706   -1.9545   -0.2880 H   0  0  0  0  0  0  0  0  0  0  0  0
    4.4496   -2.0482    0.8933 H   0  0  0  0  0  0  0  0  0  0  0  0
    3.8347   -2.3541   -0.7186 H   0  0  0  0  0  0  0  0  0  0  0  0
    6.2211   -2.0311   -0.7528 H   0  0  0  0  0  0  0  0  0  0  0  0
    5.3760   -0.8955   -1.7858 H   0  0  0  0  0  0  0  0  0  0  0  0
    6.4837   -0.2145    1.0018 H   0  0  0  0  0  0  0  0  0  0  0  0
    7.3154    0.0452   -0.5239 H   0  0  0  0  0  0  0  0  0  0  0  0
    6.3791    2.1373   -0.1395 H   0  0  0  0  0  0  0  0  0  0  0  0
    5.2935    1.4201   -1.3071 H   0  0  0  0  0  0  0  0  0  0  0  0
    3.8016    2.3411    0.1808 H   0  0  0  0  0  0  0  0  0  0  0  0
    4.8604    2.1411    1.5594 H   0  0  0  0  0  0  0  0  0  0  0  0
    4.2052   -0.1095    1.9497 H   0  0  0  0  0  0  0  0  0  0  0  0
    2.7835    0.8434    1.6723 H   0  0  0  0  0  0  0  0  0  0  0  0
   -1.3014    1.0287   -0.5340 H   0  0  0  0  0  0  0  0  0  0  0  0
   -2.9546   -2.0618    0.8360 H   0  0  0  0  0  0  0  0  0  0  0  0
   -5.3863   -2.2866    0.9184 H   0  0  0  0  0  0  0  0  0  0  0  0
   -3.3971    1.8554   -0.9483 H   0  0  0  0  0  0  0  0  0  0  0  0
   -7.8852    2.3514   -1.3891 H   0  0  0  0  0  0  0  0  0  0  0  0
   -7.3417    0.8408   -2.1460 H   0  0  0  0  0  0  0  0  0  0  0  0
   -7.7659    1.2584    0.8890 H   0  0  0  0  0  0  0  0  0  0  0  0
   -8.8937    0.4180   -0.1936 H   0  0  0  0  0  0  0  0  0  0  0  0
  1  2  2  0
  2  3  1  0
  3  4  1  0
  4  5  1  0
  5  6  1  0
  6  7  1  0
  7  8  1  0
  8  9  1  0
  9 10  1  0
 10 11  1  0
  2 12  1  0
 12 13  1  0
 13 14  2  0
 14 15  1  0
 15 16  2  0
 16 17  1  0
 17 18  2  0
 17 19  1  0
 19 20  1  0
 20 21  1  0
 21 22  1  0
 11  5  1  0
 18 13  1  0
 22 16  1  0
  3 23  1  0
  3 24  1  0
  4 25  1  0
  4 26  1  0
  6 27  1  0
  6 28  1  0
  7 29  1  0
  7 30  1  0
  8 31  1  0
  8 32  1  0
  9 33  1  0
  9 34  1  0
 10 35  1  0
 10 36  1  0
 11 37  1  0
 11 38  1  0
 12 39  1  0
 14 40  1  0
 15 41  1  0
 18 42  1  0
 20 43  1  0
 20 44  1  0
 21 45  1  0
 21 46  1  0
M  END
$$$$
