
     RDKit          3D

 45 46  0  0  0  0  0  0  0  0999 V2000
    4.6841   -2.2276   -0.6270 C   0  0  0  0  0  0  0  0  0  0  0  0
    3.7454   -2.3594    0.5363 C   0  0  0  0  0  0  0  0  0  0  0  0
    4.1823   -2.9164    1.7433 C   0  0  0  0  0  0  0  0  0  0  0  0
    3.3172   -2.9903    2.8330 C   0  0  0  0  0  0  0  0  0  0  0  0
    2.0086   -2.5107    2.7223 C   0  0  0  0  0  0  0  0  0  0  0  0
    1.5493   -1.9603    1.5192 C   0  0  0  0  0  0  0  0  0  0  0  0
    0.2308   -1.4446    1.4967 N   0  0  0  0  0  0  0  0  0  0  0  0
   -0.6129   -1.1940    0.4210 C   0  0  0  0  0  0  0  0  0  0  0  0
   -0.6011   -2.1145   -0.9938 S   0  0  0  0  0  0  0  0  0  0  0  0
   -1.5192   -0.1302    0.6638 N   0  0  0  0  0  0  0  0  0  0  0  0
   -2.5964    0.2142   -0.2977 C   0  0  0  0  0  0  0  0  0  0  0  0
   -2.1780    1.2618   -1.3554 C   0  0  0  0  0  0  0  0  0  0  0  0
   -3.1041    1.4944   -2.4778 N   0  0  0  0  0  0  0  0  0  0  0  0
   -3.1783    0.3465   -3.3788 C   0  0  0  0  0  0  0  0  0  0  0  0
   -4.4351    1.9092   -2.0459 C   0  0  0  0  0  0  0  0  0  0  0  0
   -1.3396    0.8307    1.7706 C   0  0  0  0  0  0  0  0  0  0  0  0
   -0.2941    1.8752    1.4823 C   0  0  0  0  0  0  0  0  0  0  0  0
    0.7256    1.9034    0.5473 C   0  0  0  0  0  0  0  0  0  0  0  0
    1.5107    3.0932    0.6277 C   0  0  0  0  0  0  0  0  0  0  0  0
    1.0823    3.9320    1.6334 C   0  0  0  0  0  0  0  0  0  0  0  0
   -0.2656    3.2946    2.4640 S   0  0  0  0  0  0  0  0  0  0  0  0
    2.4329   -1.8637    0.4414 C   0  0  0  0  0  0  0  0  0  0  0  0
    4.1453   -2.3478   -1.5777 H   0  0  0  0  0  0  0  0  0  0  0  0
    5.4591   -3.0023   -0.5981 H   0  0  0  0  0  0  0  0  0  0  0  0
    5.1661   -1.2448   -0.6095 H   0  0  0  0  0  0  0  0  0  0  0  0
    5.2023   -3.2820    1.8452 H   0  0  0  0  0  0  0  0  0  0  0  0
    3.6629   -3.4196    3.7703 H   0  0  0  0  0  0  0  0  0  0  0  0
    1.3555   -2.5779    3.5872 H   0  0  0  0  0  0  0  0  0  0  0  0
   -0.2410   -1.4679    2.3863 H   0  0  0  0  0  0  0  0  0  0  0  0
   -2.9470   -0.7045   -0.7794 H   0  0  0  0  0  0  0  0  0  0  0  0
   -3.4565    0.5818    0.2776 H   0  0  0  0  0  0  0  0  0  0  0  0
   -1.1938    1.0046   -1.7656 H   0  0  0  0  0  0  0  0  0  0  0  0
   -2.0268    2.2236   -0.8504 H   0  0  0  0  0  0  0  0  0  0  0  0
   -3.6624   -0.5225   -2.9209 H   0  0  0  0  0  0  0  0  0  0  0  0
   -2.1765    0.0498   -3.7135 H   0  0  0  0  0  0  0  0  0  0  0  0
   -3.7442    0.6044   -4.2825 H   0  0  0  0  0  0  0  0  0  0  0  0
   -5.0529    2.1751   -2.9114 H   0  0  0  0  0  0  0  0  0  0  0  0
   -4.3745    2.8053   -1.4174 H   0  0  0  0  0  0  0  0  0  0  0  0
   -4.9619    1.1259   -1.4886 H   0  0  0  0  0  0  0  0  0  0  0  0
   -1.0697    0.2988    2.6921 H   0  0  0  0  0  0  0  0  0  0  0  0
   -2.3105    1.3100    1.9712 H   0  0  0  0  0  0  0  0  0  0  0  0
    0.9054    1.1115   -0.1758 H   0  0  0  0  0  0  0  0  0  0  0  0
    2.3485    3.3207   -0.0198 H   0  0  0  0  0  0  0  0  0  0  0  0
    1.4961    4.8921    1.9204 H   0  0  0  0  0  0  0  0  0  0  0  0
    2.1317   -1.3775   -0.4814 H   0  0  0  0  0  0  0  0  0  0  0  0
  1  2  1  0
  2  3  2  0
  3  4  1  0
  4  5  2  0
  5  6  1  0
  6  7  1  0
  7  8  1  0
  8  9  2  0
  8 10  1  0
 10 11  1  0
 11 12  1  0
 12 13  1  0
 13 14  1  0
 13 15  1  0
 10 16  1  0
 16 17  1  0
 17 18  2  0
 18 19  1  0
 19 20  2  0
 20 21  1  0
  6 22  2  0
 22  2  1  0
 21 17  1  0
  1 23  1  0
  1 24  1  0
  1 25  1  0
  3 26  1  0
  4 27  1  0
  5 28  1  0
  7 29  1  0
 11 30  1  0
 11 31  1  0
 12 32  1  0
 12 33  1  0
 14 34  1  0
 14 35  1  0
 14 36  1  0
 15 37  1  0
 15 38  1  0
 15 39  1  0
 16 40  1  0
 16 41  1  0
 18 42  1  0
 19 43  1  0
 20 44  1  0
 22 45  1  0
M  END
$$$$
