
     RDKit          3D

 43 45  0  0  0  0  0  0  0  0999 V2000
    3.5257   -0.7961    2.8181 C   0  0  0  0  0  0  0  0  0  0  0  0
    3.0068   -0.1758    1.5411 C   0  0  0  0  0  0  0  0  0  0  0  0
    3.3554   -0.8600    0.2535 C   0  0  0  0  0  0  0  0  0  0  0  0
    2.8333   -0.3322   -0.8715 C   0  0  0  0  0  0  0  0  0  0  0  0
    3.1001   -0.9881   -2.1966 C   0  0  0  0  0  0  0  0  0  0  0  0
    2.0481    0.8340   -0.7555 N   0  0  0  0  0  0  0  0  0  0  0  0
    1.3511    1.6343   -1.6442 C   0  0  0  0  0  0  0  0  0  0  0  0
    1.0442    1.2729   -3.3131 S   0  0  0  0  0  0  0  0  0  0  0  0
   -0.7172    0.7856   -3.2392 C   0  0  0  0  0  0  0  0  0  0  0  0
   -1.0190   -0.0276   -1.9810 C   0  0  0  0  0  0  0  0  0  0  0  0
   -0.6107   -1.1935   -1.9153 O   0  0  0  0  0  0  0  0  0  0  0  0
   -1.6752    0.5536   -0.9007 N   0  0  0  0  0  0  0  0  0  0  0  0
   -2.2482    1.9041   -0.8978 C   0  0  0  0  0  0  0  0  0  0  0  0
   -1.8140   -0.2673    0.3181 C   0  0  0  0  0  0  0  0  0  0  0  0
   -1.9665    0.5011    1.6432 C   0  0  0  0  0  0  0  0  0  0  0  0
   -2.1807   -0.5718    2.7080 C   0  0  0  0  0  0  0  0  0  0  0  0
   -3.2474   -1.7767    1.9336 S   0  0  0  0  0  6  0  0  0  0  0  0
   -2.6629   -3.0890    2.1040 O   0  0  0  0  0  0  0  0  0  0  0  0
   -4.6148   -1.4925    2.3071 O   0  0  0  0  0  0  0  0  0  0  0  0
   -3.0055   -1.2253    0.2523 C   0  0  0  0  0  0  0  0  0  0  0  0
    0.8274    2.6658   -1.0288 N   0  0  0  0  0  0  0  0  0  0  0  0
    1.1013    2.5414    0.3121 N   0  0  0  0  0  0  0  0  0  0  0  0
    1.8115    1.4370    0.4888 C   0  0  0  0  0  0  0  0  0  0  0  0
    2.2691    0.8920    1.6529 N   0  0  0  0  0  0  0  0  0  0  0  0
    4.2531   -1.5910    2.6205 H   0  0  0  0  0  0  0  0  0  0  0  0
    2.6879   -1.2245    3.3710 H   0  0  0  0  0  0  0  0  0  0  0  0
    4.0015   -0.0198    3.4283 H   0  0  0  0  0  0  0  0  0  0  0  0
    3.9723   -1.7604    0.2778 H   0  0  0  0  0  0  0  0  0  0  0  0
    3.6990   -1.8936   -2.0672 H   0  0  0  0  0  0  0  0  0  0  0  0
    2.1702   -1.3139   -2.6791 H   0  0  0  0  0  0  0  0  0  0  0  0
    3.6600   -0.3319   -2.8672 H   0  0  0  0  0  0  0  0  0  0  0  0
   -0.9028    0.1168   -4.1018 H   0  0  0  0  0  0  0  0  0  0  0  0
   -1.3754    1.6412   -3.4082 H   0  0  0  0  0  0  0  0  0  0  0  0
   -1.8153    2.4884   -0.0768 H   0  0  0  0  0  0  0  0  0  0  0  0
   -3.3269    1.8389   -0.7359 H   0  0  0  0  0  0  0  0  0  0  0  0
   -2.0576    2.4632   -1.8160 H   0  0  0  0  0  0  0  0  0  0  0  0
   -0.9028   -0.8697    0.4043 H   0  0  0  0  0  0  0  0  0  0  0  0
   -2.8374    1.1673    1.6172 H   0  0  0  0  0  0  0  0  0  0  0  0
   -1.0906    1.1125    1.8666 H   0  0  0  0  0  0  0  0  0  0  0  0
   -1.2429   -1.0735    2.9594 H   0  0  0  0  0  0  0  0  0  0  0  0
   -2.6576   -0.1797    3.6118 H   0  0  0  0  0  0  0  0  0  0  0  0
   -2.8308   -2.0858   -0.3957 H   0  0  0  0  0  0  0  0  0  0  0  0
   -3.9157   -0.7101   -0.0566 H   0  0  0  0  0  0  0  0  0  0  0  0
  1  2  1  0
  2  3  1  0
  3  4  2  0
  4  5  1  0
  4  6  1  0
  6  7  1  0
  7  8  1  0
  8  9  1  0
  9 10  1  0
 10 11  2  0
 10 12  1  0
 12 13  1  0
 12 14  1  0
 14 15  1  0
 15 16  1  0
 16 17  1  0
 17 18  2  0
 17 19  2  0
 17 20  1  0
  7 21  2  0
 21 22  1  0
 22 23  2  0
 23 24  1  0
 24  2  2  0
 23  6  1  0
 20 14  1  0
  1 25  1  0
  1 26  1  0
  1 27  1  0
  3 28  1  0
  5 29  1  0
  5 30  1  0
  5 31  1  0
  9 32  1  0
  9 33  1  0
 13 34  1  0
 13 35  1  0
 13 36  1  0
 14 37  1  0
 15 38  1  0
 15 39  1  0
 16 40  1  0
 16 41  1  0
 20 42  1  0
 20 43  1  0
M  END
$$$$
