
     RDKit          3D

 42 43  0  0  0  0  0  0  0  0999 V2000
   -5.2202    0.0995    3.7170 C   0  0  0  0  0  0  0  0  0  0  0  0
   -4.3737   -1.1603    3.5182 C   0  0  0  0  0  0  0  0  0  0  0  0
   -3.6616   -1.5493    4.8161 C   0  0  0  0  0  0  0  0  0  0  0  0
   -3.3931   -0.9981    2.3707 C   0  0  0  0  0  0  0  0  0  0  0  0
   -2.3812   -0.0273    2.3939 C   0  0  0  0  0  0  0  0  0  0  0  0
   -1.4862    0.1075    1.3251 C   0  0  0  0  0  0  0  0  0  0  0  0
   -1.5892   -0.7283    0.2147 C   0  0  0  0  0  0  0  0  0  0  0  0
   -0.7867   -0.7060   -0.8913 O   0  0  0  0  0  0  0  0  0  0  0  0
    0.2669    0.2437   -0.9096 C   0  0  0  0  0  0  0  0  0  0  0  0
    1.0824    0.1509   -2.2037 C   0  0  0  0  0  0  0  0  0  0  0  0
    0.8005   -0.5832   -3.1456 O   0  0  0  0  0  0  0  0  0  0  0  0
    2.1811    0.9982   -2.2163 N   0  0  0  0  0  0  0  0  0  0  0  0
    3.1241    0.9723   -3.3142 C   0  0  0  0  0  0  0  0  0  0  0  0
    4.0233    2.2022   -3.3417 C   0  0  0  0  0  0  0  0  0  0  0  0
    5.1619    1.7645   -4.2479 C   0  0  0  0  0  0  0  0  0  0  0  0
    5.3983    0.3002   -3.8900 C   0  0  0  0  0  0  0  0  0  0  0  0
    4.1124   -0.1926   -3.2232 C   0  0  0  0  0  0  0  0  0  0  0  0
   -2.5941   -1.6958    0.1842 C   0  0  0  0  0  0  0  0  0  0  0  0
   -3.4881   -1.8321    1.2494 C   0  0  0  0  0  0  0  0  0  0  0  0
   -4.6123    0.9579    4.0230 H   0  0  0  0  0  0  0  0  0  0  0  0
   -5.9775   -0.0641    4.4913 H   0  0  0  0  0  0  0  0  0  0  0  0
   -5.7402    0.3717    2.7917 H   0  0  0  0  0  0  0  0  0  0  0  0
   -5.0654   -1.9774    3.2733 H   0  0  0  0  0  0  0  0  0  0  0  0
   -3.0648   -2.4578    4.6781 H   0  0  0  0  0  0  0  0  0  0  0  0
   -4.3897   -1.7442    5.6109 H   0  0  0  0  0  0  0  0  0  0  0  0
   -2.9895   -0.7590    5.1679 H   0  0  0  0  0  0  0  0  0  0  0  0
   -2.2791    0.6383    3.2482 H   0  0  0  0  0  0  0  0  0  0  0  0
   -0.7256    0.8767    1.3969 H   0  0  0  0  0  0  0  0  0  0  0  0
   -0.1390    1.2613   -0.8573 H   0  0  0  0  0  0  0  0  0  0  0  0
    0.9536    0.0582   -0.0747 H   0  0  0  0  0  0  0  0  0  0  0  0
    2.4816    1.4067   -1.3408 H   0  0  0  0  0  0  0  0  0  0  0  0
    2.5658    0.9015   -4.2569 H   0  0  0  0  0  0  0  0  0  0  0  0
    4.4040    2.4383   -2.3402 H   0  0  0  0  0  0  0  0  0  0  0  0
    3.5056    3.0884   -3.7216 H   0  0  0  0  0  0  0  0  0  0  0  0
    6.0599    2.3745   -4.1135 H   0  0  0  0  0  0  0  0  0  0  0  0
    4.8557    1.8442   -5.2980 H   0  0  0  0  0  0  0  0  0  0  0  0
    6.2394    0.2051   -3.1933 H   0  0  0  0  0  0  0  0  0  0  0  0
    5.6434   -0.2878   -4.7809 H   0  0  0  0  0  0  0  0  0  0  0  0
    3.7203   -1.0905   -3.7130 H   0  0  0  0  0  0  0  0  0  0  0  0
    4.3184   -0.4599   -2.1791 H   0  0  0  0  0  0  0  0  0  0  0  0
   -2.6824   -2.3511   -0.6795 H   0  0  0  0  0  0  0  0  0  0  0  0
   -4.2588   -2.5972    1.1915 H   0  0  0  0  0  0  0  0  0  0  0  0
  1  2  1  0
  2  3  1  0
  2  4  1  0
  4  5  2  0
  5  6  1  0
  6  7  2  0
  7  8  1  0
  8  9  1  0
  9 10  1  0
 10 11  2  0
 10 12  1  0
 12 13  1  0
 13 14  1  0
 14 15  1  0
 15 16  1  0
 16 17  1  0
  7 18  1  0
 18 19  2  0
 19  4  1  0
 17 13  1  0
  1 20  1  0
  1 21  1  0
  1 22  1  0
  2 23  1  0
  3 24  1  0
  3 25  1  0
  3 26  1  0
  5 27  1  0
  6 28  1  0
  9 29  1  0
  9 30  1  0
 12 31  1  0
 13 32  1  0
 14 33  1  0
 14 34  1  0
 15 35  1  0
 15 36  1  0
 16 37  1  0
 16 38  1  0
 17 39  1  0
 17 40  1  0
 18 41  1  0
 19 42  1  0
M  END
$$$$
