
     RDKit          3D

 43 45  0  0  0  0  0  0  0  0999 V2000
    6.3427   -1.3947   -0.0448 C   0  0  0  0  0  0  0  0  0  0  0  0
    4.9702   -0.7775   -0.1461 C   0  0  0  0  0  0  0  0  0  0  0  0
    4.8726    0.5123   -0.8975 C   0  0  0  0  0  0  0  0  0  0  0  0
    3.6512    1.0739   -0.9911 C   0  0  0  0  0  0  0  0  0  0  0  0
    3.4717    2.3589   -1.7411 C   0  0  0  0  0  0  0  0  0  0  0  0
    2.5665    0.4105   -0.3835 N   0  0  0  0  0  0  0  0  0  0  0  0
    1.2127    0.6656   -0.2526 C   0  0  0  0  0  0  0  0  0  0  0  0
    0.3923    2.1002   -0.7665 S   0  0  0  0  0  0  0  0  0  0  0  0
   -0.9715    1.4347   -1.7635 C   0  0  0  0  0  0  0  0  0  0  0  0
   -1.8693    0.4410   -1.0395 C   0  0  0  0  0  0  0  0  0  0  0  0
   -1.9724   -0.7040   -1.4946 O   0  0  0  0  0  0  0  0  0  0  0  0
   -2.6019    0.8442    0.0745 N   0  0  0  0  0  0  0  0  0  0  0  0
   -2.7116    2.2290    0.5251 C   0  0  0  0  0  0  0  0  0  0  0  0
   -3.2874   -0.1586    0.9083 C   0  0  0  0  0  0  0  0  0  0  0  0
   -2.3667   -1.2492    1.4855 C   0  0  0  0  0  0  0  0  0  0  0  0
   -3.2763   -2.2024    2.2525 C   0  0  0  0  0  0  0  0  0  0  0  0
   -4.8354   -2.1996    1.3722 S   0  0  0  0  0  6  0  0  0  0  0  0
   -4.9926   -3.4455    0.6501 O   0  0  0  0  0  0  0  0  0  0  0  0
   -5.8591   -1.7034    2.2745 O   0  0  0  0  0  0  0  0  0  0  0  0
   -4.4369   -0.8976    0.2199 C   0  0  0  0  0  0  0  0  0  0  0  0
    0.6280   -0.2956    0.4207 N   0  0  0  0  0  0  0  0  0  0  0  0
    1.5819   -1.2210    0.7483 N   0  0  0  0  0  0  0  0  0  0  0  0
    2.7450   -0.8057    0.2880 C   0  0  0  0  0  0  0  0  0  0  0  0
    3.9703   -1.3959    0.4021 N   0  0  0  0  0  0  0  0  0  0  0  0
    7.0694   -0.6382    0.2691 H   0  0  0  0  0  0  0  0  0  0  0  0
    6.3414   -2.2077    0.6883 H   0  0  0  0  0  0  0  0  0  0  0  0
    6.6343   -1.7952   -1.0227 H   0  0  0  0  0  0  0  0  0  0  0  0
    5.7720    0.9316   -1.3302 H   0  0  0  0  0  0  0  0  0  0  0  0
    4.4090    2.6893   -2.2108 H   0  0  0  0  0  0  0  0  0  0  0  0
    2.7437    2.2384   -2.5515 H   0  0  0  0  0  0  0  0  0  0  0  0
    3.1523    3.1606   -1.0676 H   0  0  0  0  0  0  0  0  0  0  0  0
   -1.5821    2.2553   -2.1547 H   0  0  0  0  0  0  0  0  0  0  0  0
   -0.5336    0.9275   -2.6328 H   0  0  0  0  0  0  0  0  0  0  0  0
   -3.7614    2.4503    0.7354 H   0  0  0  0  0  0  0  0  0  0  0  0
   -2.1259    2.3449    1.4412 H   0  0  0  0  0  0  0  0  0  0  0  0
   -2.3718    2.9466   -0.2230 H   0  0  0  0  0  0  0  0  0  0  0  0
   -3.7095    0.3824    1.7718 H   0  0  0  0  0  0  0  0  0  0  0  0
   -1.8569   -1.8039    0.6908 H   0  0  0  0  0  0  0  0  0  0  0  0
   -1.5952   -0.8266    2.1372 H   0  0  0  0  0  0  0  0  0  0  0  0
   -2.8754   -3.2151    2.2996 H   0  0  0  0  0  0  0  0  0  0  0  0
   -3.4676   -1.8283    3.2637 H   0  0  0  0  0  0  0  0  0  0  0  0
   -4.1532   -1.3683   -0.7263 H   0  0  0  0  0  0  0  0  0  0  0  0
   -5.3138   -0.2631    0.0635 H   0  0  0  0  0  0  0  0  0  0  0  0
  1  2  1  0
  2  3  1  0
  3  4  2  0
  4  5  1  0
  4  6  1  0
  6  7  1  0
  7  8  1  0
  8  9  1  0
  9 10  1  0
 10 11  2  0
 10 12  1  0
 12 13  1  0
 12 14  1  0
 14 15  1  0
 15 16  1  0
 16 17  1  0
 17 18  2  0
 17 19  2  0
 17 20  1  0
  7 21  2  0
 21 22  1  0
 22 23  2  0
 23 24  1  0
 24  2  2  0
 23  6  1  0
 20 14  1  0
  1 25  1  0
  1 26  1  0
  1 27  1  0
  3 28  1  0
  5 29  1  0
  5 30  1  0
  5 31  1  0
  9 32  1  0
  9 33  1  0
 13 34  1  0
 13 35  1  0
 13 36  1  0
 14 37  1  0
 15 38  1  0
 15 39  1  0
 16 40  1  0
 16 41  1  0
 20 42  1  0
 20 43  1  0
M  END
$$$$
