
     RDKit          3D

 34 35  0  0  0  0  0  0  0  0999 V2000
   -3.5298   -0.5038    1.4673 C   0  0  0  0  0  0  0  0  0  0  0  0
   -2.5527   -0.3380    0.4459 O   0  0  0  0  0  0  0  0  0  0  0  0
   -2.9864   -0.3289   -0.8529 C   0  0  0  0  0  0  0  0  0  0  0  0
   -4.2421   -0.8106   -1.2478 C   0  0  0  0  0  0  0  0  0  0  0  0
   -4.6364   -0.7583   -2.5888 C   0  0  0  0  0  0  0  0  0  0  0  0
   -3.7799   -0.2245   -3.5461 C   0  0  0  0  0  0  0  0  0  0  0  0
   -4.2744   -0.1577   -5.1914 Cl  0  0  0  0  0  0  0  0  0  0  0  0
   -2.5259    0.2491   -3.1778 C   0  0  0  0  0  0  0  0  0  0  0  0
   -2.1161    0.1861   -1.8346 C   0  0  0  0  0  0  0  0  0  0  0  0
   -0.7602    0.7192   -1.5408 C   0  0  0  0  0  0  0  0  0  0  0  0
   -0.2613    1.6193   -2.2031 O   0  0  0  0  0  0  0  0  0  0  0  0
   -0.1919    0.0037   -0.5301 O   0  0  0  0  0  0  0  0  0  0  0  0
    1.1207    0.4525   -0.2870 N   0  0  0  0  0  0  0  0  0  0  0  0
    1.6058   -0.0896    0.7909 C   0  0  0  0  0  0  0  0  0  0  0  0
    0.8908   -0.9700    1.5739 N   0  0  0  0  0  0  0  0  0  0  0  0
    3.0098    0.2604    1.1842 C   0  0  0  0  0  0  0  0  0  0  0  0
    3.4752    0.0007    2.4806 C   0  0  0  0  0  0  0  0  0  0  0  0
    4.7882    0.3279    2.8339 C   0  0  0  0  0  0  0  0  0  0  0  0
    5.6340    0.9171    1.8950 C   0  0  0  0  0  0  0  0  0  0  0  0
    7.2487    1.3169    2.3336 Cl  0  0  0  0  0  0  0  0  0  0  0  0
    5.1784    1.1881    0.6064 C   0  0  0  0  0  0  0  0  0  0  0  0
    3.8662    0.8625    0.2517 C   0  0  0  0  0  0  0  0  0  0  0  0
   -3.0428   -0.3119    2.4282 H   0  0  0  0  0  0  0  0  0  0  0  0
   -4.3492    0.2148    1.3588 H   0  0  0  0  0  0  0  0  0  0  0  0
   -3.9038   -1.5323    1.4837 H   0  0  0  0  0  0  0  0  0  0  0  0
   -4.9405   -1.2388   -0.5350 H   0  0  0  0  0  0  0  0  0  0  0  0
   -5.6154   -1.1342   -2.8771 H   0  0  0  0  0  0  0  0  0  0  0  0
   -1.8599    0.6669   -3.9310 H   0  0  0  0  0  0  0  0  0  0  0  0
    1.4145   -1.7742    1.8998 H   0  0  0  0  0  0  0  0  0  0  0  0
    0.0257   -1.2460    1.1161 H   0  0  0  0  0  0  0  0  0  0  0  0
    2.8209   -0.4325    3.2318 H   0  0  0  0  0  0  0  0  0  0  0  0
    5.1408    0.1290    3.8426 H   0  0  0  0  0  0  0  0  0  0  0  0
    5.8327    1.6544   -0.1255 H   0  0  0  0  0  0  0  0  0  0  0  0
    3.5163    1.0828   -0.7555 H   0  0  0  0  0  0  0  0  0  0  0  0
  1  2  1  0
  2  3  1  0
  3  4  2  0
  4  5  1  0
  5  6  2  0
  6  7  1  0
  6  8  1  0
  8  9  2  0
  9 10  1  0
 10 11  2  0
 10 12  1  0
 12 13  1  0
 13 14  2  3
 14 15  1  0
 14 16  1  0
 16 17  2  0
 17 18  1  0
 18 19  2  0
 19 20  1  0
 19 21  1  0
 21 22  2  0
  9  3  1  0
 22 16  1  0
  1 23  1  0
  1 24  1  0
  1 25  1  0
  4 26  1  0
  5 27  1  0
  8 28  1  0
 15 29  1  0
 15 30  1  0
 17 31  1  0
 18 32  1  0
 21 33  1  0
 22 34  1  0
M  END
$$$$
