
     RDKit          3D

 41 41  0  0  0  0  0  0  0  0999 V2000
    4.5245   -2.0085    2.5731 C   0  0  0  0  0  0  0  0  0  0  0  0
    3.4344   -1.0536    2.1106 C   0  0  0  0  0  0  0  0  0  0  0  0
    2.9883   -1.3677    0.6820 C   0  0  0  0  0  0  0  0  0  0  0  0
    1.9768   -0.3606    0.1216 C   0  0  0  0  0  0  0  0  0  0  0  0
    0.6283   -0.3928    0.8496 C   0  0  0  0  0  0  0  0  0  0  0  0
   -0.4689    0.5260    0.2639 C   0  0  0  0  0  0  0  0  0  0  0  0
   -0.0610    1.9997    0.3033 C   0  0  0  0  0  0  0  0  0  0  0  0
   -1.2270    2.8707   -0.1246 C   0  0  0  0  0  0  0  0  0  0  0  0
   -1.4219    3.9709    0.5359 N   0  0  0  0  0  0  0  0  0  0  0  0
   -2.5106    4.6973    0.0400 O   0  0  0  0  0  0  0  0  0  0  0  0
   -2.0094    2.4060   -1.3073 C   0  0  0  0  0  0  0  0  0  0  0  0
   -1.8385    1.1694   -1.8091 C   0  0  0  0  0  0  0  0  0  0  0  0
   -2.5285    0.7709   -3.0880 C   0  0  0  0  0  0  0  0  0  0  0  0
   -0.9211    0.1323   -1.1658 C   0  0  0  0  0  0  0  0  0  0  0  0
   -1.5824   -1.2491   -1.1410 C   0  0  0  0  0  0  0  0  0  0  0  0
   -1.1707   -2.2067   -1.7856 O   0  0  0  0  0  0  0  0  0  0  0  0
   -2.6848   -1.2672   -0.3407 O   0  0  0  0  0  0  0  0  0  0  0  0
   -3.3511   -2.5288   -0.2934 C   0  0  0  0  0  0  0  0  0  0  0  0
    4.1717   -3.0446    2.5548 H   0  0  0  0  0  0  0  0  0  0  0  0
    5.4091   -1.9348    1.9324 H   0  0  0  0  0  0  0  0  0  0  0  0
    4.8271   -1.7704    3.5977 H   0  0  0  0  0  0  0  0  0  0  0  0
    3.8100   -0.0254    2.1668 H   0  0  0  0  0  0  0  0  0  0  0  0
    2.5876   -1.1306    2.8005 H   0  0  0  0  0  0  0  0  0  0  0  0
    2.5639   -2.3782    0.6392 H   0  0  0  0  0  0  0  0  0  0  0  0
    3.8676   -1.3677    0.0255 H   0  0  0  0  0  0  0  0  0  0  0  0
    2.4098    0.6447    0.1693 H   0  0  0  0  0  0  0  0  0  0  0  0
    1.8328   -0.5963   -0.9378 H   0  0  0  0  0  0  0  0  0  0  0  0
    0.2580   -1.4250    0.8741 H   0  0  0  0  0  0  0  0  0  0  0  0
    0.7798   -0.1018    1.8962 H   0  0  0  0  0  0  0  0  0  0  0  0
   -1.3340    0.4202    0.9360 H   0  0  0  0  0  0  0  0  0  0  0  0
    0.7772    2.2098   -0.3709 H   0  0  0  0  0  0  0  0  0  0  0  0
    0.2452    2.2814    1.3177 H   0  0  0  0  0  0  0  0  0  0  0  0
   -2.5328    5.4692    0.6358 H   0  0  0  0  0  0  0  0  0  0  0  0
   -2.6763    3.1274   -1.7658 H   0  0  0  0  0  0  0  0  0  0  0  0
   -1.7978    0.3926   -3.8104 H   0  0  0  0  0  0  0  0  0  0  0  0
   -3.2757   -0.0069   -2.9031 H   0  0  0  0  0  0  0  0  0  0  0  0
   -3.0439    1.6164   -3.5567 H   0  0  0  0  0  0  0  0  0  0  0  0
   -0.0448    0.0515   -1.8207 H   0  0  0  0  0  0  0  0  0  0  0  0
   -3.7148   -2.8073   -1.2875 H   0  0  0  0  0  0  0  0  0  0  0  0
   -2.6850   -3.2994    0.1070 H   0  0  0  0  0  0  0  0  0  0  0  0
   -4.2109   -2.4329    0.3753 H   0  0  0  0  0  0  0  0  0  0  0  0
  1  2  1  0
  2  3  1  0
  3  4  1  0
  4  5  1  0
  5  6  1  0
  6  7  1  0
  7  8  1  0
  8  9  2  3
  9 10  1  0
  8 11  1  0
 11 12  2  0
 12 13  1  0
 12 14  1  0
 14 15  1  0
 15 16  2  0
 15 17  1  0
 17 18  1  0
 14  6  1  0
  1 19  1  0
  1 20  1  0
  1 21  1  0
  2 22  1  0
  2 23  1  0
  3 24  1  0
  3 25  1  0
  4 26  1  0
  4 27  1  0
  5 28  1  0
  5 29  1  0
  6 30  1  0
  7 31  1  0
  7 32  1  0
 10 33  1  0
 11 34  1  0
 13 35  1  0
 13 36  1  0
 13 37  1  0
 14 38  1  0
 18 39  1  0
 18 40  1  0
 18 41  1  0
M  END
$$$$
