
     RDKit          3D

 42 44  0  0  0  0  0  0  0  0999 V2000
   -3.9013    4.0684    4.1970 C   0  0  0  0  0  0  0  0  0  0  0  0
   -3.8807    2.5728    4.4748 C   0  0  0  0  0  0  0  0  0  0  0  0
   -3.3205    1.7450    3.3163 C   0  0  0  0  0  0  0  0  0  0  0  0
   -1.8331    2.0004    3.0581 C   0  0  0  0  0  0  0  0  0  0  0  0
   -1.2938    1.0974    1.9757 C   0  0  0  0  0  0  0  0  0  0  0  0
   -0.8104   -0.1782    2.2881 C   0  0  0  0  0  0  0  0  0  0  0  0
   -0.3192   -1.0199    1.2833 C   0  0  0  0  0  0  0  0  0  0  0  0
   -0.3080   -0.6053   -0.0556 C   0  0  0  0  0  0  0  0  0  0  0  0
    0.2017   -1.4538   -1.1303 C   0  0  0  0  0  0  0  0  0  0  0  0
    0.3200   -2.8274   -1.0588 C   0  0  0  0  0  0  0  0  0  0  0  0
    0.9531   -3.4465   -2.5243 S   0  0  0  0  0  0  0  0  0  0  0  0
    1.0325   -1.8402   -3.1680 C   0  0  0  0  0  0  0  0  0  0  0  0
    1.5152   -1.6388   -4.4915 C   0  0  0  0  0  0  0  0  0  0  0  0
    0.5685   -1.6815   -5.5581 C   0  0  0  0  0  0  0  0  0  0  0  0
   -0.1834   -1.7184   -6.4422 N   0  0  0  0  0  0  0  0  0  0  0  0
    2.8139   -1.4301   -4.7789 C   0  0  0  0  0  0  0  0  0  0  0  0
    3.8886   -1.3525   -3.8488 C   0  0  0  0  0  0  0  0  0  0  0  0
    3.9766   -0.8333   -2.5610 C   0  0  0  0  0  0  0  0  0  0  0  0
    5.3065   -1.0025   -2.1060 C   0  0  0  0  0  0  0  0  0  0  0  0
    5.9790   -1.6024   -3.1374 C   0  0  0  0  0  0  0  0  0  0  0  0
    5.1476   -1.8036   -4.1868 O   0  0  0  0  0  0  0  0  0  0  0  0
    0.5989   -0.9060   -2.3435 N   0  0  0  0  0  0  0  0  0  0  0  0
   -0.7942    0.6736   -0.3617 C   0  0  0  0  0  0  0  0  0  0  0  0
   -1.2865    1.5148    0.6406 C   0  0  0  0  0  0  0  0  0  0  0  0
   -2.8898    4.4739    4.1084 H   0  0  0  0  0  0  0  0  0  0  0  0
   -4.4454    4.2888    3.2728 H   0  0  0  0  0  0  0  0  0  0  0  0
   -4.4001    4.5952    5.0170 H   0  0  0  0  0  0  0  0  0  0  0  0
   -4.9072    2.2414    4.6730 H   0  0  0  0  0  0  0  0  0  0  0  0
   -3.3033    2.3783    5.3858 H   0  0  0  0  0  0  0  0  0  0  0  0
   -3.4728    0.6832    3.5508 H   0  0  0  0  0  0  0  0  0  0  0  0
   -3.8997    1.9461    2.4058 H   0  0  0  0  0  0  0  0  0  0  0  0
   -1.2562    1.8453    3.9786 H   0  0  0  0  0  0  0  0  0  0  0  0
   -1.6642    3.0443    2.7674 H   0  0  0  0  0  0  0  0  0  0  0  0
   -0.8096   -0.5255    3.3195 H   0  0  0  0  0  0  0  0  0  0  0  0
    0.0629   -1.9942    1.5747 H   0  0  0  0  0  0  0  0  0  0  0  0
    0.0663   -3.4956   -0.2490 H   0  0  0  0  0  0  0  0  0  0  0  0
    3.1147   -1.3465   -5.8218 H   0  0  0  0  0  0  0  0  0  0  0  0
    3.1738   -0.3630   -2.0086 H   0  0  0  0  0  0  0  0  0  0  0  0
    5.7189   -0.7110   -1.1508 H   0  0  0  0  0  0  0  0  0  0  0  0
    7.0011   -1.9238   -3.2810 H   0  0  0  0  0  0  0  0  0  0  0  0
   -0.7963    1.0259   -1.3921 H   0  0  0  0  0  0  0  0  0  0  0  0
   -1.6643    2.4984    0.3685 H   0  0  0  0  0  0  0  0  0  0  0  0
  1  2  1  0
  2  3  1  0
  3  4  1  0
  4  5  1  0
  5  6  2  0
  6  7  1  0
  7  8  2  0
  8  9  1  0
  9 10  2  0
 10 11  1  0
 11 12  1  0
 12 13  1  0
 13 14  1  0
 14 15  3  0
 13 16  2  3
 16 17  1  0
 17 18  2  0
 18 19  1  0
 19 20  2  0
 20 21  1  0
 12 22  2  0
  8 23  1  0
 23 24  2  0
 24  5  1  0
 22  9  1  0
 21 17  1  0
  1 25  1  0
  1 26  1  0
  1 27  1  0
  2 28  1  0
  2 29  1  0
  3 30  1  0
  3 31  1  0
  4 32  1  0
  4 33  1  0
  6 34  1  0
  7 35  1  0
 10 36  1  0
 16 37  1  0
 18 38  1  0
 19 39  1  0
 20 40  1  0
 23 41  1  0
 24 42  1  0
M  END
$$$$
