
     RDKit          3D

 47 50  0  0  0  0  0  0  0  0999 V2000
    4.4633    2.1705   -1.1854 C   0  0  0  0  0  0  0  0  0  0  0  0
    4.7693    1.9783    0.1061 C   0  0  0  0  0  0  0  0  0  0  0  0
    4.6888    0.7092    0.9199 C   0  0  0  0  0  0  0  0  0  0  0  0
    4.1578   -0.4093    0.1533 N   0  0  0  0  0  0  0  0  0  0  0  0
    5.0636   -1.2393   -0.4748 C   0  0  0  0  0  0  0  0  0  0  0  0
    6.2834   -1.0835   -0.4520 O   0  0  0  0  0  0  0  0  0  0  0  0
    4.5533   -2.3002   -1.1597 N   0  0  0  0  0  0  0  0  0  0  0  0
    3.2438   -2.5602   -1.4203 C   0  0  0  0  0  0  0  0  0  0  0  0
    2.9235   -3.4604   -2.1896 O   0  0  0  0  0  0  0  0  0  0  0  0
    2.2767   -1.6800   -0.7272 C   0  0  0  0  0  0  0  0  0  0  0  0
    0.9742   -1.9280   -0.9755 C   0  0  0  0  0  0  0  0  0  0  0  0
   -0.1992   -1.2129   -0.4638 C   0  0  0  0  0  0  0  0  0  0  0  0
   -1.0855   -1.8699    0.3898 C   0  0  0  0  0  0  0  0  0  0  0  0
   -2.2425   -1.2251    0.8617 C   0  0  0  0  0  0  0  0  0  0  0  0
   -2.5466    0.0909    0.4540 C   0  0  0  0  0  0  0  0  0  0  0  0
   -1.6360    0.7521   -0.3973 C   0  0  0  0  0  0  0  0  0  0  0  0
   -0.4836    0.0935   -0.8619 C   0  0  0  0  0  0  0  0  0  0  0  0
   -1.8993    2.1588   -0.8732 C   0  0  0  0  0  0  0  0  0  0  0  0
   -2.9364    2.8660   -0.0147 C   0  0  0  0  0  0  0  0  0  0  0  0
   -4.1212    1.9409    0.2074 C   0  0  0  0  0  0  0  0  0  0  0  0
   -3.6927    0.7455    0.9304 N   0  0  0  0  0  0  0  0  0  0  0  0
   -4.7463   -0.0927    1.4987 C   0  0  0  0  0  0  0  0  0  0  0  0
   -4.1481   -1.0762    2.4907 C   0  0  0  0  0  0  0  0  0  0  0  0
   -3.1744   -1.9924    1.7658 C   0  0  0  0  0  0  0  0  0  0  0  0
    2.7822   -0.6120    0.1786 C   0  0  0  0  0  0  0  0  0  0  0  0
    2.0340    0.0321    0.9082 O   0  0  0  0  0  0  0  0  0  0  0  0
    4.5737    3.1542   -1.6334 H   0  0  0  0  0  0  0  0  0  0  0  0
    4.1026    1.3786   -1.8314 H   0  0  0  0  0  0  0  0  0  0  0  0
    5.1255    2.8404    0.6696 H   0  0  0  0  0  0  0  0  0  0  0  0
    4.0597    0.8955    1.7977 H   0  0  0  0  0  0  0  0  0  0  0  0
    5.6906    0.4681    1.2939 H   0  0  0  0  0  0  0  0  0  0  0  0
    5.2284   -2.8757   -1.6429 H   0  0  0  0  0  0  0  0  0  0  0  0
    0.6962   -2.7514   -1.6345 H   0  0  0  0  0  0  0  0  0  0  0  0
   -0.8816   -2.8926    0.6997 H   0  0  0  0  0  0  0  0  0  0  0  0
    0.1942    0.6168   -1.5324 H   0  0  0  0  0  0  0  0  0  0  0  0
   -0.9705    2.7416   -0.8627 H   0  0  0  0  0  0  0  0  0  0  0  0
   -2.2517    2.1099   -1.9112 H   0  0  0  0  0  0  0  0  0  0  0  0
   -3.2577    3.7931   -0.5025 H   0  0  0  0  0  0  0  0  0  0  0  0
   -2.4944    3.1418    0.9517 H   0  0  0  0  0  0  0  0  0  0  0  0
   -4.8784    2.4744    0.7940 H   0  0  0  0  0  0  0  0  0  0  0  0
   -4.5861    1.6616   -0.7467 H   0  0  0  0  0  0  0  0  0  0  0  0
   -5.2858   -0.6186    0.7002 H   0  0  0  0  0  0  0  0  0  0  0  0
   -5.4748    0.5364    2.0236 H   0  0  0  0  0  0  0  0  0  0  0  0
   -3.6240   -0.5294    3.2855 H   0  0  0  0  0  0  0  0  0  0  0  0
   -4.9361   -1.6692    2.9680 H   0  0  0  0  0  0  0  0  0  0  0  0
   -2.5998   -2.5598    2.5074 H   0  0  0  0  0  0  0  0  0  0  0  0
   -3.7321   -2.7117    1.1532 H   0  0  0  0  0  0  0  0  0  0  0  0
  1  2  2  0
  2  3  1  0
  3  4  1  0
  4  5  1  0
  5  6  2  0
  5  7  1  0
  7  8  1  0
  8  9  2  0
  8 10  1  0
 10 11  2  3
 11 12  1  0
 12 13  2  0
 13 14  1  0
 14 15  2  0
 15 16  1  0
 16 17  2  0
 16 18  1  0
 18 19  1  0
 19 20  1  0
 20 21  1  0
 21 22  1  0
 22 23  1  0
 23 24  1  0
 10 25  1  0
 25 26  2  0
 25  4  1  0
 17 12  1  0
 24 14  1  0
 21 15  1  0
  1 27  1  0
  1 28  1  0
  2 29  1  0
  3 30  1  0
  3 31  1  0
  7 32  1  0
 11 33  1  0
 13 34  1  0
 17 35  1  0
 18 36  1  0
 18 37  1  0
 19 38  1  0
 19 39  1  0
 20 40  1  0
 20 41  1  0
 22 42  1  0
 22 43  1  0
 23 44  1  0
 23 45  1  0
 24 46  1  0
 24 47  1  0
M  END
$$$$
