
     RDKit          3D

 35 37  0  0  0  0  0  0  0  0999 V2000
   -5.2935   -1.2417   -0.2818 C   0  0  0  0  0  0  0  0  0  0  0  0
   -3.8845   -1.4198   -0.3522 O   0  0  0  0  0  0  0  0  0  0  0  0
   -3.2962   -0.7647   -1.4778 C   0  0  0  0  0  0  0  0  0  0  0  0
   -2.8951    0.6853   -1.1562 C   0  0  0  0  0  0  0  0  0  0  0  0
   -1.8123    0.7631   -0.1591 N   0  0  0  0  0  0  0  0  0  0  0  0
   -2.0637    1.0815    1.1897 C   0  0  0  0  0  0  0  0  0  0  0  0
   -3.5374    1.5113    1.8740 S   0  0  0  0  0  0  0  0  0  0  0  0
   -0.9919    1.0647    2.0509 N   0  0  0  0  0  0  0  0  0  0  0  0
    0.2476    0.7608    1.5879 C   0  0  0  0  0  0  0  0  0  0  0  0
    1.5462    0.7416    2.6497 S   0  0  0  0  0  0  0  0  0  0  0  0
    2.5991    0.3077    1.3747 C   0  0  0  0  0  0  0  0  0  0  0  0
    1.9462    0.1989    0.1539 C   0  0  0  0  0  0  0  0  0  0  0  0
    0.5440    0.4606    0.2944 C   0  0  0  0  0  0  0  0  0  0  0  0
   -0.5315    0.4466   -0.6755 C   0  0  0  0  0  0  0  0  0  0  0  0
   -0.3256    0.1799   -1.8583 O   0  0  0  0  0  0  0  0  0  0  0  0
    2.6732   -0.1834   -1.1021 C   0  0  0  0  0  0  0  0  0  0  0  0
    4.1968   -0.0489   -0.9449 C   0  0  0  0  0  0  0  0  0  0  0  0
    4.6876   -0.6262    0.3906 C   0  0  0  0  0  0  0  0  0  0  0  0
    4.0670    0.1074    1.5897 C   0  0  0  0  0  0  0  0  0  0  0  0
   -5.7774   -1.7353   -1.1301 H   0  0  0  0  0  0  0  0  0  0  0  0
   -5.5602   -0.1816   -0.2671 H   0  0  0  0  0  0  0  0  0  0  0  0
   -5.6527   -1.7064    0.6403 H   0  0  0  0  0  0  0  0  0  0  0  0
   -3.9814   -0.7888   -2.3336 H   0  0  0  0  0  0  0  0  0  0  0  0
   -2.4165   -1.3524   -1.7577 H   0  0  0  0  0  0  0  0  0  0  0  0
   -2.5446    1.1642   -2.0789 H   0  0  0  0  0  0  0  0  0  0  0  0
   -3.7681    1.2531   -0.8287 H   0  0  0  0  0  0  0  0  0  0  0  0
   -1.1301    1.2807    3.0307 H   0  0  0  0  0  0  0  0  0  0  0  0
    2.3450    0.4404   -1.9408 H   0  0  0  0  0  0  0  0  0  0  0  0
    2.4238   -1.2235   -1.3456 H   0  0  0  0  0  0  0  0  0  0  0  0
    4.6953   -0.5566   -1.7783 H   0  0  0  0  0  0  0  0  0  0  0  0
    4.4785    1.0105   -1.0011 H   0  0  0  0  0  0  0  0  0  0  0  0
    4.4282   -1.6917    0.4368 H   0  0  0  0  0  0  0  0  0  0  0  0
    5.7799   -0.5601    0.4483 H   0  0  0  0  0  0  0  0  0  0  0  0
    4.5461    1.0875    1.7037 H   0  0  0  0  0  0  0  0  0  0  0  0
    4.2578   -0.4644    2.5049 H   0  0  0  0  0  0  0  0  0  0  0  0
  1  2  1  0
  2  3  1  0
  3  4  1  0
  4  5  1  0
  5  6  1  0
  6  7  2  0
  6  8  1  0
  8  9  1  0
  9 10  1  0
 10 11  1  0
 11 12  2  0
 12 13  1  0
 13 14  1  0
 14 15  2  0
 12 16  1  0
 16 17  1  0
 17 18  1  0
 18 19  1  0
 14  5  1  0
 13  9  2  0
 19 11  1  0
  1 20  1  0
  1 21  1  0
  1 22  1  0
  3 23  1  0
  3 24  1  0
  4 25  1  0
  4 26  1  0
  8 27  1  0
 16 28  1  0
 16 29  1  0
 17 30  1  0
 17 31  1  0
 18 32  1  0
 18 33  1  0
 19 34  1  0
 19 35  1  0
M  END
$$$$
