
     RDKit          3D

 62 65  0  0  0  0  0  0  0  0999 V2000
    2.4071    0.2760   -4.3060 C   0  0  0  0  0  0  0  0  0  0  0  0
    3.1306    0.1996   -2.9951 C   0  0  0  0  0  0  0  0  0  0  0  0
    4.3356   -0.4991   -2.8882 C   0  0  0  0  0  0  0  0  0  0  0  0
    5.0225   -0.5476   -1.6723 C   0  0  0  0  0  0  0  0  0  0  0  0
    4.5236    0.1143   -0.5457 C   0  0  0  0  0  0  0  0  0  0  0  0
    5.2487    0.0566    0.7748 C   0  0  0  0  0  0  0  0  0  0  0  0
    4.4484   -0.6388    1.7599 N   0  0  0  0  0  0  0  0  0  0  0  0
    4.0665   -0.0467    2.9376 C   0  0  0  0  0  0  0  0  0  0  0  0
    4.4805    1.0458    3.3189 O   0  0  0  0  0  0  0  0  0  0  0  0
    3.0836   -0.8664    3.7461 C   0  0  0  0  0  0  0  0  0  0  0  0
    1.9053   -0.0151    4.2154 C   0  0  0  0  0  0  0  0  0  0  0  0
    1.0262    0.4308    3.0869 C   0  0  0  0  0  0  0  0  0  0  0  0
    1.0065    1.7027    2.4631 C   0  0  0  0  0  0  0  0  0  0  0  0
    1.8246    2.9052    2.7727 C   0  0  0  0  0  0  0  0  0  0  0  0
    0.1406    1.7461    1.4486 N   0  0  0  0  0  0  0  0  0  0  0  0
   -0.4617    0.5258    1.4284 N   0  0  0  0  0  0  0  0  0  0  0  0
   -1.4910    0.2530    0.4755 C   0  0  0  0  0  0  0  0  0  0  0  0
   -1.8284    1.2101   -0.4672 C   0  0  0  0  0  0  0  0  0  0  0  0
   -2.8507    0.9317   -1.3768 C   0  0  0  0  0  0  0  0  0  0  0  0
   -3.5301   -0.2813   -1.3256 C   0  0  0  0  0  0  0  0  0  0  0  0
   -4.5817   -0.5432   -2.2272 N   0  0  0  0  0  0  0  0  0  0  0  0
   -5.6343    0.5049   -2.1915 C   0  0  0  0  0  0  0  0  0  0  0  0
   -6.9891   -0.0686   -2.6316 C   0  0  0  0  0  0  0  0  0  0  0  0
   -7.4507   -1.1333   -1.7882 O   0  0  0  0  0  0  0  0  0  0  0  0
   -6.3849   -1.9637   -1.2888 C   0  0  0  0  0  0  0  0  0  0  0  0
   -5.1222   -1.9213   -2.1613 C   0  0  0  0  0  0  0  0  0  0  0  0
   -3.1499   -1.1908   -0.4053 N   0  0  0  0  0  0  0  0  0  0  0  0
   -2.1341   -0.9301    0.4991 N   0  0  0  0  0  0  0  0  0  0  0  0
    0.0616   -0.3059    2.4128 C   0  0  0  0  0  0  0  0  0  0  0  0
   -0.3805   -1.7112    2.6270 C   0  0  0  0  0  0  0  0  0  0  0  0
    3.3283    0.8323   -0.6640 C   0  0  0  0  0  0  0  0  0  0  0  0
    2.6388    0.8756   -1.8757 C   0  0  0  0  0  0  0  0  0  0  0  0
    2.7459    1.1495   -4.8691 H   0  0  0  0  0  0  0  0  0  0  0  0
    2.5839   -0.6217   -4.9081 H   0  0  0  0  0  0  0  0  0  0  0  0
    1.3275    0.3536   -4.1492 H   0  0  0  0  0  0  0  0  0  0  0  0
    4.7479   -1.0130   -3.7525 H   0  0  0  0  0  0  0  0  0  0  0  0
    5.9523   -1.1038   -1.6160 H   0  0  0  0  0  0  0  0  0  0  0  0
    6.1828   -0.5073    0.6770 H   0  0  0  0  0  0  0  0  0  0  0  0
    5.5034    1.0695    1.1042 H   0  0  0  0  0  0  0  0  0  0  0  0
    3.9726   -1.4739    1.4485 H   0  0  0  0  0  0  0  0  0  0  0  0
    2.7314   -1.7256    3.1690 H   0  0  0  0  0  0  0  0  0  0  0  0
    3.6274   -1.2587    4.6104 H   0  0  0  0  0  0  0  0  0  0  0  0
    1.3044   -0.5989    4.9236 H   0  0  0  0  0  0  0  0  0  0  0  0
    2.2656    0.8553    4.7763 H   0  0  0  0  0  0  0  0  0  0  0  0
    2.7706    2.8697    2.2272 H   0  0  0  0  0  0  0  0  0  0  0  0
    2.0420    2.9785    3.8410 H   0  0  0  0  0  0  0  0  0  0  0  0
    1.3014    3.8216    2.4814 H   0  0  0  0  0  0  0  0  0  0  0  0
   -1.3145    2.1647   -0.5150 H   0  0  0  0  0  0  0  0  0  0  0  0
   -3.1010    1.6693   -2.1302 H   0  0  0  0  0  0  0  0  0  0  0  0
   -5.7493    0.8984   -1.1718 H   0  0  0  0  0  0  0  0  0  0  0  0
   -5.3548    1.3305   -2.8572 H   0  0  0  0  0  0  0  0  0  0  0  0
   -6.9368   -0.4457   -3.6557 H   0  0  0  0  0  0  0  0  0  0  0  0
   -7.7483    0.7132   -2.6147 H   0  0  0  0  0  0  0  0  0  0  0  0
   -6.1615   -1.6370   -0.2668 H   0  0  0  0  0  0  0  0  0  0  0  0
   -6.7722   -2.9855   -1.2293 H   0  0  0  0  0  0  0  0  0  0  0  0
   -5.3890   -2.2129   -3.1835 H   0  0  0  0  0  0  0  0  0  0  0  0
   -4.3869   -2.6573   -1.8232 H   0  0  0  0  0  0  0  0  0  0  0  0
   -0.2332   -2.3112    1.7243 H   0  0  0  0  0  0  0  0  0  0  0  0
    0.1945   -2.1880    3.4246 H   0  0  0  0  0  0  0  0  0  0  0  0
   -1.4324   -1.7491    2.9219 H   0  0  0  0  0  0  0  0  0  0  0  0
    2.9232    1.3645    0.1917 H   0  0  0  0  0  0  0  0  0  0  0  0
    1.7136    1.4414   -1.9347 H   0  0  0  0  0  0  0  0  0  0  0  0
  1  2  1  0
  2  3  2  0
  3  4  1  0
  4  5  2  0
  5  6  1  0
  6  7  1  0
  7  8  1  0
  8  9  2  0
  8 10  1  0
 10 11  1  0
 11 12  1  0
 12 13  1  0
 13 14  1  0
 13 15  2  0
 15 16  1  0
 16 17  1  0
 17 18  2  0
 18 19  1  0
 19 20  2  0
 20 21  1  0
 21 22  1  0
 22 23  1  0
 23 24  1  0
 24 25  1  0
 25 26  1  0
 20 27  1  0
 27 28  2  0
 16 29  1  0
 29 30  1  0
  5 31  1  0
 31 32  2  0
 32  2  1  0
 29 12  2  0
 28 17  1  0
 26 21  1  0
  1 33  1  0
  1 34  1  0
  1 35  1  0
  3 36  1  0
  4 37  1  0
  6 38  1  0
  6 39  1  0
  7 40  1  0
 10 41  1  0
 10 42  1  0
 11 43  1  0
 11 44  1  0
 14 45  1  0
 14 46  1  0
 14 47  1  0
 18 48  1  0
 19 49  1  0
 22 50  1  0
 22 51  1  0
 23 52  1  0
 23 53  1  0
 25 54  1  0
 25 55  1  0
 26 56  1  0
 26 57  1  0
 30 58  1  0
 30 59  1  0
 30 60  1  0
 31 61  1  0
 32 62  1  0
M  END
$$$$
