
     RDKit          3D

 60 64  0  0  0  0  0  0  0  0999 V2000
    3.3192    0.9422   -2.2367 O   0  0  0  0  0  0  0  0  0  0  0  0
    2.9010    0.7252   -1.1070 C   0  0  0  0  0  0  0  0  0  0  0  0
    3.6400    0.4254    0.0213 N   0  0  0  0  0  0  0  0  0  0  0  0
    5.0388    0.2572    0.1039 C   0  0  0  0  0  0  0  0  0  0  0  0
    5.8994    0.3154   -0.9941 C   0  0  0  0  0  0  0  0  0  0  0  0
    7.2796    0.1368   -0.8296 C   0  0  0  0  0  0  0  0  0  0  0  0
    7.8120   -0.1111    0.4379 C   0  0  0  0  0  0  0  0  0  0  0  0
    9.2719   -0.3090    0.6298 C   0  0  0  0  0  0  0  0  0  0  0  0
    9.8024   -0.3540    1.8282 N   0  0  0  0  0  0  0  0  0  0  0  0
   11.2586   -0.5483    1.5880 C   0  0  0  0  0  0  0  0  0  0  0  0
   11.4019   -0.9434    0.1184 C   0  0  0  0  0  0  0  0  0  0  0  0
   10.1431   -0.4824   -0.4226 N   0  0  0  0  0  0  0  0  0  0  0  0
    6.9561   -0.1655    1.5408 C   0  0  0  0  0  0  0  0  0  0  0  0
    5.5792    0.0160    1.3736 C   0  0  0  0  0  0  0  0  0  0  0  0
    1.4311    0.8151   -0.8909 C   0  0  0  0  0  0  0  0  0  0  0  0
    0.7560   -0.0823   -0.0481 C   0  0  0  0  0  0  0  0  0  0  0  0
   -0.6306    0.0157    0.1188 C   0  0  0  0  0  0  0  0  0  0  0  0
   -1.3517    1.0015   -0.5706 C   0  0  0  0  0  0  0  0  0  0  0  0
   -2.7975    1.1514   -0.3070 C   0  0  0  0  0  0  0  0  0  0  0  0
   -3.1735    2.2418    0.0974 O   0  0  0  0  0  0  0  0  0  0  0  0
   -3.5404    0.0122   -0.5366 N   0  0  0  0  0  0  0  0  0  0  0  0
   -4.9307   -0.1460   -0.3558 C   0  0  0  0  0  0  0  0  0  0  0  0
   -5.4798   -1.3924   -0.6830 C   0  0  0  0  0  0  0  0  0  0  0  0
   -6.8496   -1.6304   -0.5316 C   0  0  0  0  0  0  0  0  0  0  0  0
   -7.6890   -0.6241   -0.0472 C   0  0  0  0  0  0  0  0  0  0  0  0
   -9.1421   -0.8915    0.1070 C   0  0  0  0  0  0  0  0  0  0  0  0
   -9.6909   -1.9794   -0.3780 N   0  0  0  0  0  0  0  0  0  0  0  0
  -11.1341   -1.8577   -0.0342 C   0  0  0  0  0  0  0  0  0  0  0  0
  -11.2352   -0.7354    0.9985 C   0  0  0  0  0  0  0  0  0  0  0  0
   -9.9870   -0.0393    0.7826 N   0  0  0  0  0  0  0  0  0  0  0  0
   -7.1485    0.6237    0.2731 C   0  0  0  0  0  0  0  0  0  0  0  0
   -5.7751    0.8586    0.1216 C   0  0  0  0  0  0  0  0  0  0  0  0
   -0.6707    1.8804   -1.4166 C   0  0  0  0  0  0  0  0  0  0  0  0
   -1.3976    2.8635   -2.1971 N   0  0  0  0  0  4  0  0  0  0  0  0
   -0.9959    4.0332   -2.1423 O   0  0  0  0  0  0  0  0  0  0  0  0
   -2.3136    2.4410   -2.9149 O   0  0  0  0  0  1  0  0  0  0  0  0
    0.7159    1.7938   -1.5908 C   0  0  0  0  0  0  0  0  0  0  0  0
    3.1486    0.3869    0.9046 H   0  0  0  0  0  0  0  0  0  0  0  0
    5.5321    0.5061   -1.9979 H   0  0  0  0  0  0  0  0  0  0  0  0
    7.9220    0.2160   -1.7015 H   0  0  0  0  0  0  0  0  0  0  0  0
   11.6569   -1.3246    2.2484 H   0  0  0  0  0  0  0  0  0  0  0  0
   11.7814    0.3914    1.7988 H   0  0  0  0  0  0  0  0  0  0  0  0
   12.2608   -0.4673   -0.3622 H   0  0  0  0  0  0  0  0  0  0  0  0
   11.4821   -2.0307    0.0128 H   0  0  0  0  0  0  0  0  0  0  0  0
    9.7918   -0.9881   -1.2269 H   0  0  0  0  0  0  0  0  0  0  0  0
    7.3583   -0.3471    2.5354 H   0  0  0  0  0  0  0  0  0  0  0  0
    4.9443   -0.0313    2.2544 H   0  0  0  0  0  0  0  0  0  0  0  0
    1.2945   -0.8734    0.4705 H   0  0  0  0  0  0  0  0  0  0  0  0
   -1.1365   -0.6625    0.8042 H   0  0  0  0  0  0  0  0  0  0  0  0
   -3.0606   -0.7871   -0.9321 H   0  0  0  0  0  0  0  0  0  0  0  0
   -4.8574   -2.1967   -1.0659 H   0  0  0  0  0  0  0  0  0  0  0  0
   -7.2597   -2.6022   -0.7979 H   0  0  0  0  0  0  0  0  0  0  0  0
  -11.5158   -2.8024    0.3641 H   0  0  0  0  0  0  0  0  0  0  0  0
  -11.6948   -1.6116   -0.9430 H   0  0  0  0  0  0  0  0  0  0  0  0
  -12.1041   -0.0927    0.8334 H   0  0  0  0  0  0  0  0  0  0  0  0
  -11.2700   -1.1417    2.0148 H   0  0  0  0  0  0  0  0  0  0  0  0
   -9.6008    0.4466    1.5831 H   0  0  0  0  0  0  0  0  0  0  0  0
   -7.7808    1.4361    0.6186 H   0  0  0  0  0  0  0  0  0  0  0  0
   -5.4011    1.8465    0.3735 H   0  0  0  0  0  0  0  0  0  0  0  0
    1.2365    2.4719   -2.2664 H   0  0  0  0  0  0  0  0  0  0  0  0
  1  2  2  0
  2  3  1  0
  3  4  1  0
  4  5  2  0
  5  6  1  0
  6  7  2  0
  7  8  1  0
  8  9  2  0
  9 10  1  0
 10 11  1  0
 11 12  1  0
  7 13  1  0
 13 14  2  0
  2 15  1  0
 15 16  2  0
 16 17  1  0
 17 18  2  0
 18 19  1  0
 19 20  2  0
 19 21  1  0
 21 22  1  0
 22 23  2  0
 23 24  1  0
 24 25  2  0
 25 26  1  0
 26 27  2  0
 27 28  1  0
 28 29  1  0
 29 30  1  0
 25 31  1  0
 31 32  2  0
 18 33  1  0
 33 34  1  0
 34 35  2  0
 34 36  1  0
 33 37  2  0
 14  4  1  0
 37 15  1  0
 12  8  1  0
 32 22  1  0
 30 26  1  0
  3 38  1  0
  5 39  1  0
  6 40  1  0
 10 41  1  0
 10 42  1  0
 11 43  1  0
 11 44  1  0
 12 45  1  0
 13 46  1  0
 14 47  1  0
 16 48  1  0
 17 49  1  0
 21 50  1  0
 23 51  1  0
 24 52  1  0
 28 53  1  0
 28 54  1  0
 29 55  1  0
 29 56  1  0
 30 57  1  0
 31 58  1  0
 32 59  1  0
 37 60  1  0
M  CHG  2  34   1  36  -1
M  END
$$$$
