
     RDKit          3D

 57 58  0  0  0  0  0  0  0  0999 V2000
    8.6039   -2.6725    1.6492 C   0  0  0  0  0  0  0  0  0  0  0  0
    7.6166   -1.6580    2.2019 C   0  0  0  0  0  0  0  0  0  0  0  0
    7.1127   -0.6562    1.1630 C   0  0  0  0  0  0  0  0  0  0  0  0
    6.3274   -1.2968    0.0181 C   0  0  0  0  0  0  0  0  0  0  0  0
    5.8020   -0.2921   -0.8516 O   0  0  0  0  0  0  0  0  0  0  0  0
    4.5594    0.2114   -0.5879 C   0  0  0  0  0  0  0  0  0  0  0  0
    3.8096   -0.0083    0.5661 C   0  0  0  0  0  0  0  0  0  0  0  0
    2.5502    0.5836    0.7107 C   0  0  0  0  0  0  0  0  0  0  0  0
    2.0173    1.4126   -0.2905 C   0  0  0  0  0  0  0  0  0  0  0  0
    0.6298    1.9929   -0.0969 C   0  0  0  0  0  0  0  0  0  0  0  0
    0.4743    3.4306   -0.5893 C   0  0  0  0  0  0  0  0  0  0  0  0
   -0.3380    1.1285   -0.7492 N   0  0  0  0  0  0  0  0  0  0  0  0
   -1.5319    0.7955   -0.1704 C   0  0  0  0  0  0  0  0  0  0  0  0
   -1.8437    1.1048    0.9719 O   0  0  0  0  0  0  0  0  0  0  0  0
   -2.3979   -0.0790   -1.0549 C   0  0  0  0  0  0  0  0  0  0  0  0
   -3.8252   -0.1503   -0.5337 C   0  0  0  0  0  0  0  0  0  0  0  0
   -4.7766    1.2808   -1.0367 S   0  0  0  0  0  6  0  0  0  0  0  0
   -3.9735    2.4721   -0.8184 O   0  0  0  0  0  0  0  0  0  0  0  0
   -5.2924    1.0112   -2.3677 O   0  0  0  0  0  0  0  0  0  0  0  0
   -6.1494    1.3499    0.1151 C   0  0  0  0  0  0  0  0  0  0  0  0
   -6.8557    0.0223    0.2073 C   0  0  0  0  0  0  0  0  0  0  0  0
   -6.6796   -0.8013    1.3308 C   0  0  0  0  0  0  0  0  0  0  0  0
   -7.3261   -2.0351    1.4207 C   0  0  0  0  0  0  0  0  0  0  0  0
   -8.1693   -2.4568    0.3918 C   0  0  0  0  0  0  0  0  0  0  0  0
   -8.3557   -1.6471   -0.7227 C   0  0  0  0  0  0  0  0  0  0  0  0
   -9.3954   -2.1641   -1.9923 Cl  0  0  0  0  0  0  0  0  0  0  0  0
   -7.7056   -0.4155   -0.8193 C   0  0  0  0  0  0  0  0  0  0  0  0
    2.7732    1.6197   -1.4509 C   0  0  0  0  0  0  0  0  0  0  0  0
    4.0343    1.0304   -1.5913 C   0  0  0  0  0  0  0  0  0  0  0  0
    9.4283   -2.1744    1.1323 H   0  0  0  0  0  0  0  0  0  0  0  0
    8.1202   -3.3644    0.9539 H   0  0  0  0  0  0  0  0  0  0  0  0
    9.0269   -3.2645    2.4714 H   0  0  0  0  0  0  0  0  0  0  0  0
    6.7711   -2.1839    2.6499 H   0  0  0  0  0  0  0  0  0  0  0  0
    8.1047   -1.1016    3.0112 H   0  0  0  0  0  0  0  0  0  0  0  0
    7.9556   -0.0902    0.7477 H   0  0  0  0  0  0  0  0  0  0  0  0
    6.4902    0.0903    1.6731 H   0  0  0  0  0  0  0  0  0  0  0  0
    7.0116   -1.8945   -0.5928 H   0  0  0  0  0  0  0  0  0  0  0  0
    5.5515   -1.9911    0.3620 H   0  0  0  0  0  0  0  0  0  0  0  0
    4.1730   -0.6271    1.3794 H   0  0  0  0  0  0  0  0  0  0  0  0
    1.9812    0.3901    1.6178 H   0  0  0  0  0  0  0  0  0  0  0  0
    0.4167    2.0111    0.9786 H   0  0  0  0  0  0  0  0  0  0  0  0
    1.2269    4.0850   -0.1371 H   0  0  0  0  0  0  0  0  0  0  0  0
    0.5649    3.5041   -1.6782 H   0  0  0  0  0  0  0  0  0  0  0  0
   -0.5137    3.8192   -0.3262 H   0  0  0  0  0  0  0  0  0  0  0  0
   -0.1586    0.8759   -1.7118 H   0  0  0  0  0  0  0  0  0  0  0  0
   -1.9534   -1.0821   -1.0348 H   0  0  0  0  0  0  0  0  0  0  0  0
   -2.3700    0.2853   -2.0883 H   0  0  0  0  0  0  0  0  0  0  0  0
   -3.8581   -0.2122    0.5563 H   0  0  0  0  0  0  0  0  0  0  0  0
   -4.3327   -1.0252   -0.9505 H   0  0  0  0  0  0  0  0  0  0  0  0
   -6.8341    2.1289   -0.2286 H   0  0  0  0  0  0  0  0  0  0  0  0
   -5.7465    1.6550    1.0865 H   0  0  0  0  0  0  0  0  0  0  0  0
   -6.0347   -0.4923    2.1531 H   0  0  0  0  0  0  0  0  0  0  0  0
   -7.1797   -2.6638    2.2946 H   0  0  0  0  0  0  0  0  0  0  0  0
   -8.6730   -3.4168    0.4699 H   0  0  0  0  0  0  0  0  0  0  0  0
   -7.8631    0.2006   -1.7036 H   0  0  0  0  0  0  0  0  0  0  0  0
    2.3953    2.2328   -2.2671 H   0  0  0  0  0  0  0  0  0  0  0  0
    4.6048    1.1929   -2.5000 H   0  0  0  0  0  0  0  0  0  0  0  0
  1  2  1  0
  2  3  1  0
  3  4  1  0
  4  5  1  0
  5  6  1  0
  6  7  2  0
  7  8  1  0
  8  9  2  0
  9 10  1  0
 10 11  1  0
 10 12  1  0
 12 13  1  0
 13 14  2  0
 13 15  1  0
 15 16  1  0
 16 17  1  0
 17 18  2  0
 17 19  2  0
 17 20  1  0
 20 21  1  0
 21 22  2  0
 22 23  1  0
 23 24  2  0
 24 25  1  0
 25 26  1  0
 25 27  2  0
  9 28  1  0
 28 29  2  0
 29  6  1  0
 27 21  1  0
  1 30  1  0
  1 31  1  0
  1 32  1  0
  2 33  1  0
  2 34  1  0
  3 35  1  0
  3 36  1  0
  4 37  1  0
  4 38  1  0
  7 39  1  0
  8 40  1  0
 10 41  1  0
 11 42  1  0
 11 43  1  0
 11 44  1  0
 12 45  1  0
 15 46  1  0
 15 47  1  0
 16 48  1  0
 16 49  1  0
 20 50  1  0
 20 51  1  0
 22 52  1  0
 23 53  1  0
 24 54  1  0
 27 55  1  0
 28 56  1  0
 29 57  1  0
M  END
$$$$
