
     RDKit          3D

 53 56  0  0  0  0  0  0  0  0999 V2000
   -3.7383   -1.4390   -1.8401 C   0  0  0  0  0  0  0  0  0  0  0  0
   -4.1286   -0.7301   -0.5489 C   0  0  0  0  0  0  0  0  0  0  0  0
   -3.2345   -1.1265    0.6404 C   0  0  0  0  0  0  0  0  0  0  0  0
   -3.7108   -0.4726    1.9579 C   0  0  0  0  0  0  0  0  0  0  0  0
   -5.0189   -1.0211    2.4749 C   0  0  0  0  0  0  0  0  0  0  0  0
   -6.1970   -0.2669    2.3935 C   0  0  0  0  0  0  0  0  0  0  0  0
   -7.4023   -0.7865    2.8682 C   0  0  0  0  0  0  0  0  0  0  0  0
   -7.4405   -2.0605    3.4313 C   0  0  0  0  0  0  0  0  0  0  0  0
   -6.2736   -2.8175    3.5202 C   0  0  0  0  0  0  0  0  0  0  0  0
   -5.0680   -2.3009    3.0449 C   0  0  0  0  0  0  0  0  0  0  0  0
   -1.8454   -0.7479    0.3685 N   0  0  0  0  0  0  0  0  0  0  0  0
   -0.7961   -1.3789    1.0063 C   0  0  0  0  0  0  0  0  0  0  0  0
   -0.9410   -2.3098    1.7898 O   0  0  0  0  0  0  0  0  0  0  0  0
    0.5647   -0.8424    0.7262 C   0  0  0  0  0  0  0  0  0  0  0  0
    1.5456   -0.9850    1.7110 C   0  0  0  0  0  0  0  0  0  0  0  0
    2.8429   -0.5039    1.4994 C   0  0  0  0  0  0  0  0  0  0  0  0
    3.1666    0.1205    0.2788 C   0  0  0  0  0  0  0  0  0  0  0  0
    4.4005    0.6381   -0.0641 N   0  0  0  0  0  0  0  0  0  0  0  0
    4.3896    1.1555   -1.2745 C   0  0  0  0  0  0  0  0  0  0  0  0
    5.4972    1.7110   -1.8627 N   0  0  0  0  0  0  0  0  0  0  0  0
    6.6753    1.8628   -0.9810 C   0  0  0  0  0  0  0  0  0  0  0  0
    7.9254    2.1978   -1.8050 C   0  0  0  0  0  0  0  0  0  0  0  0
    7.7242    3.3689   -2.6099 O   0  0  0  0  0  0  0  0  0  0  0  0
    6.6414    3.1486   -3.5246 C   0  0  0  0  0  0  0  0  0  0  0  0
    5.3267    2.8484   -2.7874 C   0  0  0  0  0  0  0  0  0  0  0  0
    2.8555    1.0175   -2.0695 S   0  0  0  0  0  0  0  0  0  0  0  0
    2.1806    0.2399   -0.6961 C   0  0  0  0  0  0  0  0  0  0  0  0
    0.8710   -0.2360   -0.5021 C   0  0  0  0  0  0  0  0  0  0  0  0
   -2.7289   -1.1631   -2.1605 H   0  0  0  0  0  0  0  0  0  0  0  0
   -3.7773   -2.5258   -1.7176 H   0  0  0  0  0  0  0  0  0  0  0  0
   -4.4300   -1.1636   -2.6428 H   0  0  0  0  0  0  0  0  0  0  0  0
   -5.1737   -0.9784   -0.3331 H   0  0  0  0  0  0  0  0  0  0  0  0
   -4.0817    0.3536   -0.7114 H   0  0  0  0  0  0  0  0  0  0  0  0
   -3.2585   -2.2184    0.7496 H   0  0  0  0  0  0  0  0  0  0  0  0
   -3.7828    0.6148    1.8266 H   0  0  0  0  0  0  0  0  0  0  0  0
   -2.9582   -0.6136    2.7451 H   0  0  0  0  0  0  0  0  0  0  0  0
   -6.1854    0.7301    1.9589 H   0  0  0  0  0  0  0  0  0  0  0  0
   -8.3122   -0.1961    2.8009 H   0  0  0  0  0  0  0  0  0  0  0  0
   -8.3785   -2.4638    3.8024 H   0  0  0  0  0  0  0  0  0  0  0  0
   -6.3005   -3.8104    3.9624 H   0  0  0  0  0  0  0  0  0  0  0  0
   -4.1621   -2.9006    3.1244 H   0  0  0  0  0  0  0  0  0  0  0  0
   -1.6831    0.1588   -0.0490 H   0  0  0  0  0  0  0  0  0  0  0  0
    1.3059   -1.4727    2.6549 H   0  0  0  0  0  0  0  0  0  0  0  0
    3.6045   -0.6119    2.2659 H   0  0  0  0  0  0  0  0  0  0  0  0
    6.8732    0.9413   -0.4198 H   0  0  0  0  0  0  0  0  0  0  0  0
    6.4830    2.6729   -0.2657 H   0  0  0  0  0  0  0  0  0  0  0  0
    8.2043    1.3607   -2.4562 H   0  0  0  0  0  0  0  0  0  0  0  0
    8.7698    2.3949   -1.1369 H   0  0  0  0  0  0  0  0  0  0  0  0
    6.5278    4.0549   -4.1282 H   0  0  0  0  0  0  0  0  0  0  0  0
    6.9077    2.3282   -4.2027 H   0  0  0  0  0  0  0  0  0  0  0  0
    4.5620    2.6492   -3.5454 H   0  0  0  0  0  0  0  0  0  0  0  0
    5.0224    3.7317   -2.2119 H   0  0  0  0  0  0  0  0  0  0  0  0
    0.1400   -0.1564   -1.3000 H   0  0  0  0  0  0  0  0  0  0  0  0
  1  2  1  0
  2  3  1  0
  3  4  1  0
  4  5  1  0
  5  6  2  0
  6  7  1  0
  7  8  2  0
  8  9  1  0
  9 10  2  0
  3 11  1  0
 11 12  1  0
 12 13  2  0
 12 14  1  0
 14 15  2  0
 15 16  1  0
 16 17  2  0
 17 18  1  0
 18 19  2  0
 19 20  1  0
 20 21  1  0
 21 22  1  0
 22 23  1  0
 23 24  1  0
 24 25  1  0
 19 26  1  0
 26 27  1  0
 27 28  2  0
 10  5  1  0
 28 14  1  0
 27 17  1  0
 25 20  1  0
  1 29  1  0
  1 30  1  0
  1 31  1  0
  2 32  1  0
  2 33  1  0
  3 34  1  0
  4 35  1  0
  4 36  1  0
  6 37  1  0
  7 38  1  0
  8 39  1  0
  9 40  1  0
 10 41  1  0
 11 42  1  0
 15 43  1  0
 16 44  1  0
 21 45  1  0
 21 46  1  0
 22 47  1  0
 22 48  1  0
 24 49  1  0
 24 50  1  0
 25 51  1  0
 25 52  1  0
 28 53  1  0
M  END
$$$$
