
     RDKit          3D

 49 52  0  0  0  0  0  0  0  0999 V2000
    0.8064    0.4270    0.2851 O   0  0  0  0  0  0  0  0  0  0  0  0
    0.8123    0.9004   -0.8478 C   0  0  0  0  0  0  0  0  0  0  0  0
    2.1023    1.2074   -1.6218 C   0  0  0  0  0  0  0  0  0  0  0  0
    3.2775    1.1116   -0.7742 N   0  0  0  0  0  0  0  0  0  0  0  0
    3.9721   -0.0776   -0.8067 N   0  0  0  0  0  0  0  0  0  0  0  0
    4.9918   -0.2022   -0.0140 C   0  0  0  0  0  0  0  0  0  0  0  0
    5.7556   -1.4810   -0.0185 C   0  0  0  0  0  0  0  0  0  0  0  0
    5.0512   -2.6799   -0.2077 C   0  0  0  0  0  0  0  0  0  0  0  0
    5.7324   -3.8984   -0.2245 C   0  0  0  0  0  0  0  0  0  0  0  0
    7.1127   -3.9129   -0.0623 C   0  0  0  0  0  0  0  0  0  0  0  0
    7.7672   -5.0809   -0.0804 F   0  0  0  0  0  0  0  0  0  0  0  0
    7.8268   -2.7318    0.1117 C   0  0  0  0  0  0  0  0  0  0  0  0
    7.1498   -1.5096    0.1307 C   0  0  0  0  0  0  0  0  0  0  0  0
    5.4424    0.8451    0.9296 C   0  0  0  0  0  0  0  0  0  0  0  0
    4.7627    1.9927    0.9294 C   0  0  0  0  0  0  0  0  0  0  0  0
    3.6095    2.1900    0.0298 C   0  0  0  0  0  0  0  0  0  0  0  0
    3.0201    3.2680    0.0344 O   0  0  0  0  0  0  0  0  0  0  0  0
   -0.3185    1.1967   -1.6060 N   0  0  0  0  0  0  0  0  0  0  0  0
   -1.6691    1.0209   -1.2410 C   0  0  0  0  0  0  0  0  0  0  0  0
   -2.0879    0.4592   -0.0330 C   0  0  0  0  0  0  0  0  0  0  0  0
   -3.4520    0.3174    0.2558 C   0  0  0  0  0  0  0  0  0  0  0  0
   -4.4147    0.7471   -0.6628 C   0  0  0  0  0  0  0  0  0  0  0  0
   -5.8753    0.6180   -0.4033 C   0  0  0  0  0  0  0  0  0  0  0  0
   -6.6558    0.5161   -1.3442 O   0  0  0  0  0  0  0  0  0  0  0  0
   -6.2655    0.6591    0.9225 N   0  0  0  0  0  0  0  0  0  0  0  0
   -7.6393    0.5871    1.3075 C   0  0  0  0  0  0  0  0  0  0  0  0
   -8.2397   -0.7222    1.7373 C   0  0  0  0  0  0  0  0  0  0  0  0
   -8.0212    0.3669    2.7456 C   0  0  0  0  0  0  0  0  0  0  0  0
   -4.0007    1.2925   -1.8818 C   0  0  0  0  0  0  0  0  0  0  0  0
   -2.6380    1.4316   -2.1655 C   0  0  0  0  0  0  0  0  0  0  0  0
    2.1954    0.4956   -2.4496 H   0  0  0  0  0  0  0  0  0  0  0  0
    2.0383    2.2208   -2.0341 H   0  0  0  0  0  0  0  0  0  0  0  0
    3.9702   -2.6678   -0.3363 H   0  0  0  0  0  0  0  0  0  0  0  0
    5.1958   -4.8314   -0.3651 H   0  0  0  0  0  0  0  0  0  0  0  0
    8.9061   -2.7712    0.2224 H   0  0  0  0  0  0  0  0  0  0  0  0
    7.7255   -0.5945    0.2365 H   0  0  0  0  0  0  0  0  0  0  0  0
    6.2645    0.6713    1.6090 H   0  0  0  0  0  0  0  0  0  0  0  0
    5.0045    2.8142    1.5905 H   0  0  0  0  0  0  0  0  0  0  0  0
   -0.1598    1.6129   -2.5153 H   0  0  0  0  0  0  0  0  0  0  0  0
   -1.3771    0.1075    0.7089 H   0  0  0  0  0  0  0  0  0  0  0  0
   -3.7344   -0.1578    1.1909 H   0  0  0  0  0  0  0  0  0  0  0  0
   -5.5912    0.9275    1.6274 H   0  0  0  0  0  0  0  0  0  0  0  0
   -8.2795    1.2506    0.7288 H   0  0  0  0  0  0  0  0  0  0  0  0
   -7.5962   -1.5932    1.7727 H   0  0  0  0  0  0  0  0  0  0  0  0
   -9.2541   -0.9342    1.4198 H   0  0  0  0  0  0  0  0  0  0  0  0
   -8.8925    0.8908    3.1216 H   0  0  0  0  0  0  0  0  0  0  0  0
   -7.2388    0.2222    3.4805 H   0  0  0  0  0  0  0  0  0  0  0  0
   -4.7392    1.6136   -2.6143 H   0  0  0  0  0  0  0  0  0  0  0  0
   -2.3526    1.8649   -3.1208 H   0  0  0  0  0  0  0  0  0  0  0  0
  1  2  2  0
  2  3  1  0
  3  4  1  0
  4  5  1  0
  5  6  2  0
  6  7  1  0
  7  8  2  0
  8  9  1  0
  9 10  2  0
 10 11  1  0
 10 12  1  0
 12 13  2  0
  6 14  1  0
 14 15  2  0
 15 16  1  0
 16 17  2  0
  2 18  1  0
 18 19  1  0
 19 20  2  0
 20 21  1  0
 21 22  2  0
 22 23  1  0
 23 24  2  0
 23 25  1  0
 25 26  1  0
 26 27  1  0
 27 28  1  0
 22 29  1  0
 29 30  2  0
 16  4  1  0
 30 19  1  0
 13  7  1  0
 28 26  1  0
  3 31  1  0
  3 32  1  0
  8 33  1  0
  9 34  1  0
 12 35  1  0
 13 36  1  0
 14 37  1  0
 15 38  1  0
 18 39  1  0
 20 40  1  0
 21 41  1  0
 25 42  1  0
 26 43  1  0
 27 44  1  0
 27 45  1  0
 28 46  1  0
 28 47  1  0
 29 48  1  0
 30 49  1  0
M  END
$$$$
