
     RDKit          3D

 43 45  0  0  0  0  0  0  0  0999 V2000
    4.5924   -2.5118    0.0846 N   0  0  0  0  0  0  0  0  0  0  0  0
    4.0237   -1.5031    0.0065 C   0  0  0  0  0  0  0  0  0  0  0  0
    3.2854   -0.2976   -0.1046 C   0  0  0  0  0  0  0  0  0  0  0  0
    2.0422   -0.0746    0.3566 C   0  0  0  0  0  0  0  0  0  0  0  0
    1.1968   -1.0109    1.0172 C   0  0  0  0  0  0  0  0  0  0  0  0
    1.4361   -2.2119    1.6735 C   0  0  0  0  0  0  0  0  0  0  0  0
    0.1974   -2.7076    2.1530 C   0  0  0  0  0  0  0  0  0  0  0  0
   -0.7596   -1.7900    1.7860 C   0  0  0  0  0  0  0  0  0  0  0  0
   -2.2065   -1.6879    1.9643 C   0  0  0  0  0  0  0  0  0  0  0  0
   -2.9133   -0.5478    1.5440 C   0  0  0  0  0  0  0  0  0  0  0  0
   -4.2978   -0.4503    1.7167 C   0  0  0  0  0  0  0  0  0  0  0  0
   -4.9899   -1.5064    2.3092 C   0  0  0  0  0  0  0  0  0  0  0  0
   -6.7440   -1.3952    2.5442 S   0  0  0  0  0  6  0  0  0  0  0  0
   -7.3171   -2.1761    1.1665 N   0  0  0  0  0  0  0  0  0  0  0  0
   -7.1025   -2.1936    3.6914 O   0  0  0  0  0  0  0  0  0  0  0  0
   -7.1394   -0.0130    2.4009 O   0  0  0  0  0  0  0  0  0  0  0  0
   -4.3105   -2.6441    2.7473 C   0  0  0  0  0  0  0  0  0  0  0  0
   -2.9256   -2.7314    2.5706 C   0  0  0  0  0  0  0  0  0  0  0  0
   -0.1588   -0.7719    1.1074 O   0  0  0  0  0  0  0  0  0  0  0  0
    3.9706    0.8498   -0.7629 C   0  0  0  0  0  0  0  0  0  0  0  0
    5.0185    1.2740   -0.2931 O   0  0  0  0  0  0  0  0  0  0  0  0
    3.3099    1.3008   -1.8924 N   0  0  0  0  0  0  0  0  0  0  0  0
    3.6754    2.3852   -2.7186 C   0  0  0  0  0  0  0  0  0  0  0  0
    4.7677    3.2200   -2.4761 C   0  0  0  0  0  0  0  0  0  0  0  0
    5.0560    4.2793   -3.3430 C   0  0  0  0  0  0  0  0  0  0  0  0
    4.2564    4.5120   -4.4592 C   0  0  0  0  0  0  0  0  0  0  0  0
    3.1645    3.6862   -4.7098 C   0  0  0  0  0  0  0  0  0  0  0  0
    2.8750    2.6290   -3.8430 C   0  0  0  0  0  0  0  0  0  0  0  0
    1.5956    0.9092    0.2177 H   0  0  0  0  0  0  0  0  0  0  0  0
    2.3940   -2.6934    1.8179 H   0  0  0  0  0  0  0  0  0  0  0  0
    0.0380   -3.6206    2.7091 H   0  0  0  0  0  0  0  0  0  0  0  0
   -2.3861    0.2862    1.0836 H   0  0  0  0  0  0  0  0  0  0  0  0
   -4.8174    0.4499    1.3942 H   0  0  0  0  0  0  0  0  0  0  0  0
   -7.8383   -1.5044    0.5997 H   0  0  0  0  0  0  0  0  0  0  0  0
   -6.5855   -2.6418    0.6309 H   0  0  0  0  0  0  0  0  0  0  0  0
   -4.8457   -3.4597    3.2308 H   0  0  0  0  0  0  0  0  0  0  0  0
   -2.4161   -3.6268    2.9196 H   0  0  0  0  0  0  0  0  0  0  0  0
    2.4881    0.7892   -2.1911 H   0  0  0  0  0  0  0  0  0  0  0  0
    5.4194    3.0796   -1.6196 H   0  0  0  0  0  0  0  0  0  0  0  0
    5.9104    4.9217   -3.1420 H   0  0  0  0  0  0  0  0  0  0  0  0
    4.4853    5.3353   -5.1308 H   0  0  0  0  0  0  0  0  0  0  0  0
    2.5389    3.8637   -5.5806 H   0  0  0  0  0  0  0  0  0  0  0  0
    2.0164    2.0011   -4.0655 H   0  0  0  0  0  0  0  0  0  0  0  0
  1  2  3  0
  2  3  1  0
  3  4  2  3
  4  5  1  0
  5  6  2  0
  6  7  1  0
  7  8  2  0
  8  9  1  0
  9 10  2  0
 10 11  1  0
 11 12  2  0
 12 13  1  0
 13 14  1  0
 13 15  2  0
 13 16  2  0
 12 17  1  0
 17 18  2  0
  8 19  1  0
  3 20  1  0
 20 21  2  0
 20 22  1  0
 22 23  1  0
 23 24  2  0
 24 25  1  0
 25 26  2  0
 26 27  1  0
 27 28  2  0
 19  5  1  0
 28 23  1  0
 18  9  1  0
  4 29  1  0
  6 30  1  0
  7 31  1  0
 10 32  1  0
 11 33  1  0
 14 34  1  0
 14 35  1  0
 17 36  1  0
 18 37  1  0
 22 38  1  0
 24 39  1  0
 25 40  1  0
 26 41  1  0
 27 42  1  0
 28 43  1  0
M  END
$$$$
