
     RDKit          3D

 43 45  0  0  0  0  0  0  0  0999 V2000
    4.2995    1.1116    1.2101 C   0  0  0  0  0  0  0  0  0  0  0  0
    3.8753   -0.2212    1.8177 C   0  0  0  0  0  0  0  0  0  0  0  0
    2.8791   -0.0425    2.9597 C   0  0  0  0  0  0  0  0  0  0  0  0
    3.3034   -1.4223    0.5466 S   0  0  0  0  0  0  0  0  0  0  0  0
    1.6542   -0.8486    0.1853 C   0  0  0  0  0  0  0  0  0  0  0  0
    0.6059   -1.7380    0.2770 C   0  0  0  0  0  0  0  0  0  0  0  0
   -0.6547   -1.2699   -0.0319 C   0  0  0  0  0  0  0  0  0  0  0  0
   -1.7700   -2.0968    0.0642 N   0  0  0  0  0  0  0  0  0  0  0  0
   -3.0790   -1.4535   -0.1434 C   0  0  0  0  0  0  0  0  0  0  0  0
   -4.1935   -2.4906    0.0649 C   0  0  0  0  0  0  0  0  0  0  0  0
   -4.1267   -3.6082   -0.8356 O   0  0  0  0  0  0  0  0  0  0  0  0
   -2.8201   -3.8143   -1.3888 C   0  0  0  0  0  0  0  0  0  0  0  0
   -1.6768   -3.4900   -0.4116 C   0  0  0  0  0  0  0  0  0  0  0  0
   -0.8306    0.0140   -0.3848 N   0  0  0  0  0  0  0  0  0  0  0  0
    0.2501    0.8128   -0.4744 C   0  0  0  0  0  0  0  0  0  0  0  0
    0.0365    2.2131   -0.8955 C   0  0  0  0  0  0  0  0  0  0  0  0
    1.1177    3.0781   -1.1545 C   0  0  0  0  0  0  0  0  0  0  0  0
    0.9169    4.4041   -1.5525 C   0  0  0  0  0  0  0  0  0  0  0  0
   -0.3750    4.8983   -1.7023 C   0  0  0  0  0  0  0  0  0  0  0  0
   -1.4642    4.0684   -1.4561 C   0  0  0  0  0  0  0  0  0  0  0  0
   -1.2587    2.7430   -1.0584 C   0  0  0  0  0  0  0  0  0  0  0  0
    1.5042    0.4217   -0.2059 N   0  0  0  0  0  0  0  0  0  0  0  0
    4.8077    1.7222    1.9653 H   0  0  0  0  0  0  0  0  0  0  0  0
    5.0016    0.9702    0.3814 H   0  0  0  0  0  0  0  0  0  0  0  0
    3.4500    1.6971    0.8504 H   0  0  0  0  0  0  0  0  0  0  0  0
    4.7764   -0.6808    2.2415 H   0  0  0  0  0  0  0  0  0  0  0  0
    1.9710    0.4798    2.6424 H   0  0  0  0  0  0  0  0  0  0  0  0
    2.5924   -1.0063    3.3943 H   0  0  0  0  0  0  0  0  0  0  0  0
    3.3288    0.5549    3.7609 H   0  0  0  0  0  0  0  0  0  0  0  0
    0.7680   -2.7549    0.6075 H   0  0  0  0  0  0  0  0  0  0  0  0
   -3.1448   -1.0491   -1.1616 H   0  0  0  0  0  0  0  0  0  0  0  0
   -3.2207   -0.6346    0.5719 H   0  0  0  0  0  0  0  0  0  0  0  0
   -4.1529   -2.8908    1.0847 H   0  0  0  0  0  0  0  0  0  0  0  0
   -5.1746   -2.0229   -0.0647 H   0  0  0  0  0  0  0  0  0  0  0  0
   -2.7366   -3.2004   -2.2936 H   0  0  0  0  0  0  0  0  0  0  0  0
   -2.7585   -4.8616   -1.7018 H   0  0  0  0  0  0  0  0  0  0  0  0
   -1.7479   -4.1469    0.4630 H   0  0  0  0  0  0  0  0  0  0  0  0
   -0.7280   -3.6996   -0.9183 H   0  0  0  0  0  0  0  0  0  0  0  0
    2.1397    2.7168   -1.0511 H   0  0  0  0  0  0  0  0  0  0  0  0
    1.7723    5.0462   -1.7458 H   0  0  0  0  0  0  0  0  0  0  0  0
   -0.5326    5.9279   -2.0120 H   0  0  0  0  0  0  0  0  0  0  0  0
   -2.4759    4.4480   -1.5724 H   0  0  0  0  0  0  0  0  0  0  0  0
   -2.1291    2.1158   -0.8719 H   0  0  0  0  0  0  0  0  0  0  0  0
  1  2  1  0
  2  3  1  0
  2  4  1  0
  4  5  1  0
  5  6  2  0
  6  7  1  0
  7  8  1  0
  8  9  1  0
  9 10  1  0
 10 11  1  0
 11 12  1  0
 12 13  1  0
  7 14  2  0
 14 15  1  0
 15 16  1  0
 16 17  2  0
 17 18  1  0
 18 19  2  0
 19 20  1  0
 20 21  2  0
 15 22  2  0
 22  5  1  0
 13  8  1  0
 21 16  1  0
  1 23  1  0
  1 24  1  0
  1 25  1  0
  2 26  1  0
  3 27  1  0
  3 28  1  0
  3 29  1  0
  6 30  1  0
  9 31  1  0
  9 32  1  0
 10 33  1  0
 10 34  1  0
 12 35  1  0
 12 36  1  0
 13 37  1  0
 13 38  1  0
 17 39  1  0
 18 40  1  0
 19 41  1  0
 20 42  1  0
 21 43  1  0
M  END
$$$$
