
     RDKit          3D

 42 44  0  0  0  0  0  0  0  0999 V2000
   -2.7025    1.2035    1.7252 O   0  0  0  0  0  0  0  0  0  0  0  0
   -2.5648    0.3508    0.8446 C   0  0  0  0  0  0  0  0  0  0  0  0
   -3.7234   -0.6074    0.4697 C   0  0  0  0  0  0  0  0  0  0  0  0
   -4.5003   -0.0670   -0.7216 C   0  0  0  0  0  0  0  0  0  0  0  0
   -5.5597    0.7772   -0.0557 C   0  0  0  0  0  0  0  0  0  0  0  0
   -5.8569   -0.0065    1.2033 C   0  0  0  0  0  0  0  0  0  0  0  0
   -4.6797   -0.7566    1.5277 O   0  0  0  0  0  0  0  0  0  0  0  0
   -1.3762    0.2354    0.1295 N   0  0  0  0  0  0  0  0  0  0  0  0
   -0.2467    1.1025    0.4830 C   0  0  0  0  0  0  0  0  0  0  0  0
    1.0837    0.3408    0.4664 C   0  0  0  0  0  0  0  0  0  0  0  0
    1.3650   -0.3031   -0.8626 N   0  0  0  0  0  0  0  0  0  0  0  0
    2.6713    0.3642   -1.7386 S   0  0  0  0  0  6  0  0  0  0  0  0
    2.8275   -0.4009   -2.9569 O   0  0  0  0  0  0  0  0  0  0  0  0
    2.4660    1.7973   -1.7694 O   0  0  0  0  0  0  0  0  0  0  0  0
    4.0637    0.0039   -0.7012 C   0  0  0  0  0  0  0  0  0  0  0  0
    4.3865   -1.3317   -0.4423 C   0  0  0  0  0  0  0  0  0  0  0  0
    5.4762   -1.6266    0.3759 C   0  0  0  0  0  0  0  0  0  0  0  0
    6.2363   -0.5922    0.9255 C   0  0  0  0  0  0  0  0  0  0  0  0
    5.9130    0.7397    0.6572 C   0  0  0  0  0  0  0  0  0  0  0  0
    4.8246    1.0437   -0.1604 C   0  0  0  0  0  0  0  0  0  0  0  0
    0.1454   -0.4965   -1.7103 C   0  0  0  0  0  0  0  0  0  0  0  0
   -1.0926   -0.8088   -0.8605 C   0  0  0  0  0  0  0  0  0  0  0  0
   -3.3121   -1.6009    0.2704 H   0  0  0  0  0  0  0  0  0  0  0  0
   -4.9791   -0.8955   -1.2572 H   0  0  0  0  0  0  0  0  0  0  0  0
   -3.8997    0.5028   -1.4360 H   0  0  0  0  0  0  0  0  0  0  0  0
   -5.1476    1.7594    0.2037 H   0  0  0  0  0  0  0  0  0  0  0  0
   -6.4458    0.9382   -0.6756 H   0  0  0  0  0  0  0  0  0  0  0  0
   -6.6705   -0.7210    1.0401 H   0  0  0  0  0  0  0  0  0  0  0  0
   -6.1262    0.6389    2.0441 H   0  0  0  0  0  0  0  0  0  0  0  0
   -0.3955    1.5537    1.4690 H   0  0  0  0  0  0  0  0  0  0  0  0
   -0.2288    1.9158   -0.2522 H   0  0  0  0  0  0  0  0  0  0  0  0
    1.8892    1.0198    0.7617 H   0  0  0  0  0  0  0  0  0  0  0  0
    1.0623   -0.4637    1.2118 H   0  0  0  0  0  0  0  0  0  0  0  0
    3.7971   -2.1364   -0.8761 H   0  0  0  0  0  0  0  0  0  0  0  0
    5.7374   -2.6617    0.5829 H   0  0  0  0  0  0  0  0  0  0  0  0
    7.0879   -0.8249    1.5609 H   0  0  0  0  0  0  0  0  0  0  0  0
    6.5137    1.5401    1.0831 H   0  0  0  0  0  0  0  0  0  0  0  0
    4.5814    2.0827   -0.3705 H   0  0  0  0  0  0  0  0  0  0  0  0
    0.3232   -1.3310   -2.3972 H   0  0  0  0  0  0  0  0  0  0  0  0
   -0.0418    0.4079   -2.3019 H   0  0  0  0  0  0  0  0  0  0  0  0
   -1.9602   -0.9438   -1.5120 H   0  0  0  0  0  0  0  0  0  0  0  0
   -0.9415   -1.7419   -0.3046 H   0  0  0  0  0  0  0  0  0  0  0  0
  1  2  2  0
  2  3  1  0
  3  4  1  0
  4  5  1  0
  5  6  1  0
  6  7  1  0
  2  8  1  0
  8  9  1  0
  9 10  1  0
 10 11  1  0
 11 12  1  0
 12 13  2  0
 12 14  2  0
 12 15  1  0
 15 16  2  0
 16 17  1  0
 17 18  2  0
 18 19  1  0
 19 20  2  0
 11 21  1  0
 21 22  1  0
  7  3  1  0
 22  8  1  0
 20 15  1  0
  3 23  1  0
  4 24  1  0
  4 25  1  0
  5 26  1  0
  5 27  1  0
  6 28  1  0
  6 29  1  0
  9 30  1  0
  9 31  1  0
 10 32  1  0
 10 33  1  0
 16 34  1  0
 17 35  1  0
 18 36  1  0
 19 37  1  0
 20 38  1  0
 21 39  1  0
 21 40  1  0
 22 41  1  0
 22 42  1  0
M  END
$$$$
