
     RDKit          3D

 45 46  0  0  0  0  0  0  0  0999 V2000
   -3.6481   -3.1609    3.5078 C   0  0  0  0  0  0  0  0  0  0  0  0
   -3.5172   -2.4097    2.3005 O   0  0  0  0  0  0  0  0  0  0  0  0
   -2.4804   -1.5243    2.3069 C   0  0  0  0  0  0  0  0  0  0  0  0
   -1.7348   -1.3202    3.2597 O   0  0  0  0  0  0  0  0  0  0  0  0
   -2.4101   -0.7703    0.9775 C   0  0  0  0  0  0  0  0  0  0  0  0
   -3.3846    0.4120    1.0444 C   0  0  0  0  0  0  0  0  0  0  0  0
   -3.5811    1.0865   -0.2927 C   0  0  0  0  0  0  0  0  0  0  0  0
   -4.4974    0.5684   -1.2185 C   0  0  0  0  0  0  0  0  0  0  0  0
   -4.6676    1.1786   -2.4621 C   0  0  0  0  0  0  0  0  0  0  0  0
   -3.9224    2.3084   -2.7933 C   0  0  0  0  0  0  0  0  0  0  0  0
   -3.0059    2.8288   -1.8819 C   0  0  0  0  0  0  0  0  0  0  0  0
   -2.8348    2.2213   -0.6371 C   0  0  0  0  0  0  0  0  0  0  0  0
   -1.0247   -0.3288    0.7767 N   0  0  0  0  0  0  0  0  0  0  0  0
   -0.1085   -1.1588    0.1670 C   0  0  0  0  0  0  0  0  0  0  0  0
   -0.4074   -2.2354   -0.3371 O   0  0  0  0  0  0  0  0  0  0  0  0
    1.3046   -0.6239    0.2249 C   0  0  0  0  0  0  0  0  0  0  0  0
    2.2257   -1.4069   -0.7017 C   0  0  0  0  0  0  0  0  0  0  0  0
    3.6150   -1.0018   -0.5738 N   0  0  0  0  0  0  0  0  0  0  0  0
    4.0843    0.1885   -1.1030 C   0  0  0  0  0  0  0  0  0  0  0  0
    3.3244    0.9784   -1.6591 O   0  0  0  0  0  0  0  0  0  0  0  0
    5.5095    0.4175   -0.9381 C   0  0  0  0  0  0  0  0  0  0  0  0
    6.5351   -0.3177   -0.3646 C   0  0  0  0  0  0  0  0  0  0  0  0
    7.7232    0.4408   -0.5134 C   0  0  0  0  0  0  0  0  0  0  0  0
    7.3597    1.5925   -1.1661 C   0  0  0  0  0  0  0  0  0  0  0  0
    6.0294    1.5899   -1.4261 O   0  0  0  0  0  0  0  0  0  0  0  0
   -2.7403   -3.7416    3.6997 H   0  0  0  0  0  0  0  0  0  0  0  0
   -3.8695   -2.4965    4.3488 H   0  0  0  0  0  0  0  0  0  0  0  0
   -4.4837   -3.8555    3.3857 H   0  0  0  0  0  0  0  0  0  0  0  0
   -2.6763   -1.4643    0.1713 H   0  0  0  0  0  0  0  0  0  0  0  0
   -4.3655    0.0784    1.4091 H   0  0  0  0  0  0  0  0  0  0  0  0
   -3.0400    1.1514    1.7802 H   0  0  0  0  0  0  0  0  0  0  0  0
   -5.0833   -0.3165   -0.9800 H   0  0  0  0  0  0  0  0  0  0  0  0
   -5.3784    0.7694   -3.1752 H   0  0  0  0  0  0  0  0  0  0  0  0
   -4.0514    2.7802   -3.7638 H   0  0  0  0  0  0  0  0  0  0  0  0
   -2.4189    3.7056   -2.1432 H   0  0  0  0  0  0  0  0  0  0  0  0
   -2.1089    2.6376    0.0572 H   0  0  0  0  0  0  0  0  0  0  0  0
   -0.6593    0.3342    1.4504 H   0  0  0  0  0  0  0  0  0  0  0  0
    1.2957    0.4376   -0.0464 H   0  0  0  0  0  0  0  0  0  0  0  0
    1.6558   -0.7016    1.2607 H   0  0  0  0  0  0  0  0  0  0  0  0
    2.1897   -2.4784   -0.4757 H   0  0  0  0  0  0  0  0  0  0  0  0
    1.9190   -1.2762   -1.7461 H   0  0  0  0  0  0  0  0  0  0  0  0
    4.2610   -1.6483   -0.1468 H   0  0  0  0  0  0  0  0  0  0  0  0
    6.4493   -1.2861    0.1062 H   0  0  0  0  0  0  0  0  0  0  0  0
    8.7203    0.1806   -0.1866 H   0  0  0  0  0  0  0  0  0  0  0  0
    7.8985    2.4676   -1.5024 H   0  0  0  0  0  0  0  0  0  0  0  0
  1  2  1  0
  2  3  1  0
  3  4  2  0
  3  5  1  0
  5  6  1  0
  6  7  1  0
  7  8  2  0
  8  9  1  0
  9 10  2  0
 10 11  1  0
 11 12  2  0
  5 13  1  0
 13 14  1  0
 14 15  2  0
 14 16  1  0
 16 17  1  0
 17 18  1  0
 18 19  1  0
 19 20  2  0
 19 21  1  0
 21 22  2  0
 22 23  1  0
 23 24  2  0
 24 25  1  0
 12  7  1  0
 25 21  1  0
  1 26  1  0
  1 27  1  0
  1 28  1  0
  5 29  1  0
  6 30  1  0
  6 31  1  0
  8 32  1  0
  9 33  1  0
 10 34  1  0
 11 35  1  0
 12 36  1  0
 13 37  1  0
 16 38  1  0
 16 39  1  0
 17 40  1  0
 17 41  1  0
 18 42  1  0
 22 43  1  0
 23 44  1  0
 24 45  1  0
M  END
$$$$
