
     RDKit          3D

 44 46  0  0  0  0  0  0  0  0999 V2000
    4.1341    1.8048   -2.5376 C   0  0  0  0  0  0  0  0  0  0  0  0
    3.0898    1.4525   -1.5780 N   0  0  0  0  0  0  0  0  0  0  0  0
    2.0596    0.6073   -2.2161 C   0  0  0  0  0  0  0  0  0  0  0  0
    0.9512    0.1886   -1.2320 C   0  0  0  0  0  0  0  0  0  0  0  0
    1.4902   -0.4172   -0.0089 N   0  0  0  0  0  0  0  0  0  0  0  0
    0.7715   -1.2899    0.8025 C   0  0  0  0  0  0  0  0  0  0  0  0
    1.1218   -1.6261    1.9317 O   0  0  0  0  0  0  0  0  0  0  0  0
   -0.4584   -1.9053    0.2629 C   0  0  0  0  0  0  0  0  0  0  0  0
   -0.3002   -3.0912   -0.4706 C   0  0  0  0  0  0  0  0  0  0  0  0
   -1.4181   -3.7472   -0.9791 C   0  0  0  0  0  0  0  0  0  0  0  0
   -2.6891   -3.2285   -0.7450 C   0  0  0  0  0  0  0  0  0  0  0  0
   -2.8453   -2.0530   -0.0026 C   0  0  0  0  0  0  0  0  0  0  0  0
   -1.7336   -1.3601    0.5145 C   0  0  0  0  0  0  0  0  0  0  0  0
   -1.9455   -0.1316    1.3056 C   0  0  0  0  0  0  0  0  0  0  0  0
   -1.6646   -0.1615    2.6871 C   0  0  0  0  0  0  0  0  0  0  0  0
   -1.8773    0.9520    3.5029 C   0  0  0  0  0  0  0  0  0  0  0  0
   -2.3862    2.1247    2.9590 C   0  0  0  0  0  0  0  0  0  0  0  0
   -2.6790    2.1840    1.5977 C   0  0  0  0  0  0  0  0  0  0  0  0
   -2.4643    1.0673    0.7677 C   0  0  0  0  0  0  0  0  0  0  0  0
   -2.7629    1.2049   -0.6825 C   0  0  0  0  0  0  0  0  0  0  0  0
   -2.1912    0.6705   -1.6127 O   0  0  0  0  0  0  0  0  0  0  0  0
   -3.8106    2.0243   -0.8973 O   0  0  0  0  0  0  0  0  0  0  0  0
    2.5941    0.3213    0.6028 C   0  0  0  0  0  0  0  0  0  0  0  0
    3.6654    0.7340   -0.4221 C   0  0  0  0  0  0  0  0  0  0  0  0
    4.6488    0.9230   -2.9358 H   0  0  0  0  0  0  0  0  0  0  0  0
    4.8799    2.4572   -2.0701 H   0  0  0  0  0  0  0  0  0  0  0  0
    3.7092    2.3645   -3.3781 H   0  0  0  0  0  0  0  0  0  0  0  0
    1.5946    1.1535   -3.0455 H   0  0  0  0  0  0  0  0  0  0  0  0
    2.5201   -0.2976   -2.6353 H   0  0  0  0  0  0  0  0  0  0  0  0
    0.2704   -0.5008   -1.7372 H   0  0  0  0  0  0  0  0  0  0  0  0
    0.3761    1.0693   -0.9237 H   0  0  0  0  0  0  0  0  0  0  0  0
    0.6932   -3.5013   -0.6347 H   0  0  0  0  0  0  0  0  0  0  0  0
   -1.2996   -4.6651   -1.5489 H   0  0  0  0  0  0  0  0  0  0  0  0
   -3.5650   -3.7413   -1.1352 H   0  0  0  0  0  0  0  0  0  0  0  0
   -3.8521   -1.6787    0.1751 H   0  0  0  0  0  0  0  0  0  0  0  0
   -1.2664   -1.0696    3.1416 H   0  0  0  0  0  0  0  0  0  0  0  0
   -1.6413    0.8970    4.5630 H   0  0  0  0  0  0  0  0  0  0  0  0
   -2.5508    2.9933    3.5915 H   0  0  0  0  0  0  0  0  0  0  0  0
   -3.0681    3.1118    1.1837 H   0  0  0  0  0  0  0  0  0  0  0  0
   -3.9153    2.0208   -1.8717 H   0  0  0  0  0  0  0  0  0  0  0  0
    3.0596   -0.2796    1.3918 H   0  0  0  0  0  0  0  0  0  0  0  0
    2.1628    1.2103    1.0800 H   0  0  0  0  0  0  0  0  0  0  0  0
    4.1953   -0.1658   -0.7626 H   0  0  0  0  0  0  0  0  0  0  0  0
    4.3976    1.3744    0.0841 H   0  0  0  0  0  0  0  0  0  0  0  0
  1  2  1  0
  2  3  1  0
  3  4  1  0
  4  5  1  0
  5  6  1  0
  6  7  2  0
  6  8  1  0
  8  9  2  0
  9 10  1  0
 10 11  2  0
 11 12  1  0
 12 13  2  0
 13 14  1  0
 14 15  2  0
 15 16  1  0
 16 17  2  0
 17 18  1  0
 18 19  2  0
 19 20  1  0
 20 21  2  0
 20 22  1  0
  5 23  1  0
 23 24  1  0
 24  2  1  0
 13  8  1  0
 19 14  1  0
  1 25  1  0
  1 26  1  0
  1 27  1  0
  3 28  1  0
  3 29  1  0
  4 30  1  0
  4 31  1  0
  9 32  1  0
 10 33  1  0
 11 34  1  0
 12 35  1  0
 15 36  1  0
 16 37  1  0
 17 38  1  0
 18 39  1  0
 22 40  1  0
 23 41  1  0
 23 42  1  0
 24 43  1  0
 24 44  1  0
M  END
$$$$
