
     RDKit          3D

 37 37  0  0  0  0  0  0  0  0999 V2000
    3.8286    2.1588    0.9877 C   0  0  0  0  0  0  0  0  0  0  0  0
    3.9706    0.8232    1.7009 C   0  0  0  0  0  0  0  0  0  0  0  0
    2.6940   -0.0233    1.6970 C   0  0  0  0  0  0  0  0  0  0  0  0
    2.5809   -1.0173    0.5360 C   0  0  0  0  0  0  0  0  0  0  0  0
    2.3905   -0.4231   -0.8606 C   0  0  0  0  0  0  0  0  0  0  0  0
    1.1759    0.4937   -1.0344 C   0  0  0  0  0  0  0  0  0  0  0  0
   -0.1570   -0.2036   -0.7561 C   0  0  0  0  0  0  0  0  0  0  0  0
   -1.3387    0.7238   -1.0520 C   0  0  0  0  0  0  0  0  0  0  0  0
   -2.6116    0.0409   -0.7689 N   0  0  0  0  0  0  0  0  0  0  0  0
   -3.1857    0.0855    0.4956 C   0  0  0  0  0  0  0  0  0  0  0  0
   -4.3231   -0.5355    0.8352 C   0  0  0  0  0  0  0  0  0  0  0  0
   -5.0203   -1.3337   -0.2080 C   0  0  0  0  0  0  0  0  0  0  0  0
   -6.1262   -1.9675    0.0128 N   0  0  0  0  0  0  0  0  0  0  0  0
   -4.3924   -1.3886   -1.5509 C   0  0  0  0  0  0  0  0  0  0  0  0
   -3.2514   -0.7153   -1.7435 C   0  0  0  0  0  0  0  0  0  0  0  0
    2.9915    2.7347    1.3950 H   0  0  0  0  0  0  0  0  0  0  0  0
    4.7394    2.7518    1.1213 H   0  0  0  0  0  0  0  0  0  0  0  0
    3.6724    2.0367   -0.0857 H   0  0  0  0  0  0  0  0  0  0  0  0
    4.2313    1.0383    2.7449 H   0  0  0  0  0  0  0  0  0  0  0  0
    4.8115    0.2608    1.2797 H   0  0  0  0  0  0  0  0  0  0  0  0
    2.7004   -0.6220    2.6178 H   0  0  0  0  0  0  0  0  0  0  0  0
    1.8028    0.6103    1.7612 H   0  0  0  0  0  0  0  0  0  0  0  0
    3.4786   -1.6487    0.5220 H   0  0  0  0  0  0  0  0  0  0  0  0
    1.7478   -1.6985    0.7481 H   0  0  0  0  0  0  0  0  0  0  0  0
    2.3055   -1.2529   -1.5743 H   0  0  0  0  0  0  0  0  0  0  0  0
    3.2950    0.1218   -1.1514 H   0  0  0  0  0  0  0  0  0  0  0  0
    1.1769    0.8635   -2.0675 H   0  0  0  0  0  0  0  0  0  0  0  0
    1.2709    1.3761   -0.3925 H   0  0  0  0  0  0  0  0  0  0  0  0
   -0.2028   -0.5234    0.2912 H   0  0  0  0  0  0  0  0  0  0  0  0
   -0.2345   -1.1100   -1.3690 H   0  0  0  0  0  0  0  0  0  0  0  0
   -1.2609    1.6371   -0.4482 H   0  0  0  0  0  0  0  0  0  0  0  0
   -1.3116    1.0468   -2.1005 H   0  0  0  0  0  0  0  0  0  0  0  0
   -2.6379    0.6765    1.2239 H   0  0  0  0  0  0  0  0  0  0  0  0
   -4.7435   -0.4790    1.8283 H   0  0  0  0  0  0  0  0  0  0  0  0
   -6.4313   -1.8343    0.9808 H   0  0  0  0  0  0  0  0  0  0  0  0
   -4.8795   -1.9714   -2.3197 H   0  0  0  0  0  0  0  0  0  0  0  0
   -2.7561   -0.7320   -2.7100 H   0  0  0  0  0  0  0  0  0  0  0  0
  1  2  1  0
  2  3  1  0
  3  4  1  0
  4  5  1  0
  5  6  1  0
  6  7  1  0
  7  8  1  0
  8  9  1  0
  9 10  1  0
 10 11  2  0
 11 12  1  0
 12 13  2  3
 12 14  1  0
 14 15  2  0
 15  9  1  0
  1 16  1  0
  1 17  1  0
  1 18  1  0
  2 19  1  0
  2 20  1  0
  3 21  1  0
  3 22  1  0
  4 23  1  0
  4 24  1  0
  5 25  1  0
  5 26  1  0
  6 27  1  0
  6 28  1  0
  7 29  1  0
  7 30  1  0
  8 31  1  0
  8 32  1  0
 10 33  1  0
 11 34  1  0
 13 35  1  0
 14 36  1  0
 15 37  1  0
M  END
$$$$
