
     RDKit          3D

 51 55  0  0  0  0  0  0  0  0999 V2000
    3.2491   -2.4346    1.8864 C   0  0  0  0  0  0  0  0  0  0  0  0
    2.9553   -2.1423    0.4231 C   0  0  0  0  0  0  0  0  0  0  0  0
    2.5589   -0.7522    0.2352 N   0  0  0  0  0  0  0  0  0  0  0  0
    1.2533   -0.2487    0.2778 C   0  0  0  0  0  0  0  0  0  0  0  0
    0.1323   -0.9604    0.5120 C   0  0  0  0  0  0  0  0  0  0  0  0
   -1.2363   -0.4255    0.5766 C   0  0  0  0  0  0  0  0  0  0  0  0
   -1.6235    0.2248    1.7496 C   0  0  0  0  0  0  0  0  0  0  0  0
   -2.8991    0.7408    1.8692 C   0  0  0  0  0  0  0  0  0  0  0  0
   -3.7907    0.6061    0.8132 C   0  0  0  0  0  0  0  0  0  0  0  0
   -5.0852    1.1365    0.9315 C   0  0  0  0  0  0  0  0  0  0  0  0
   -6.0123    1.0168   -0.1068 C   0  0  0  0  0  0  0  0  0  0  0  0
   -7.3822    1.6197    0.0212 C   0  0  0  0  0  0  0  0  0  0  0  0
   -5.6244    0.3828   -1.2849 C   0  0  0  0  0  0  0  0  0  0  0  0
   -4.3366   -0.1513   -1.4156 C   0  0  0  0  0  0  0  0  0  0  0  0
   -3.3898   -0.0618   -0.3762 C   0  0  0  0  0  0  0  0  0  0  0  0
   -2.1146   -0.5788   -0.4613 N   0  0  0  0  0  4  0  0  0  0  0  0
   -1.6844   -1.3241   -1.6835 C   0  0  0  0  0  0  0  0  0  0  0  0
   -1.2028   -0.3634   -2.7536 C   0  0  0  0  0  0  0  0  0  0  0  0
    1.1414    1.4973   -0.0260 S   0  0  0  0  0  0  0  0  0  0  0  0
    2.9250    1.5557   -0.1591 C   0  0  0  0  0  0  0  0  0  0  0  0
    3.6222    2.7219   -0.4048 C   0  0  0  0  0  0  0  0  0  0  0  0
    5.0056    2.6636   -0.4790 C   0  0  0  0  0  0  0  0  0  0  0  0
    5.6597    1.4270   -0.2864 C   0  0  0  0  0  0  0  0  0  0  0  0
    7.3706    1.2060   -0.3368 S   0  0  0  0  0  0  0  0  0  0  0  0
    7.2390   -0.4478    0.0086 C   0  0  0  0  0  0  0  0  0  0  0  0
    5.9281   -0.8376    0.1526 C   0  0  0  0  0  0  0  0  0  0  0  0
    4.9695    0.2280   -0.0283 C   0  0  0  0  0  0  0  0  0  0  0  0
    3.5406    0.2791    0.0222 C   0  0  0  0  0  0  0  0  0  0  0  0
    4.0408   -1.7905    2.2803 H   0  0  0  0  0  0  0  0  0  0  0  0
    2.3586   -2.2757    2.5039 H   0  0  0  0  0  0  0  0  0  0  0  0
    3.5632   -3.4758    2.0086 H   0  0  0  0  0  0  0  0  0  0  0  0
    3.7933   -2.4123   -0.2236 H   0  0  0  0  0  0  0  0  0  0  0  0
    2.1527   -2.8118    0.0908 H   0  0  0  0  0  0  0  0  0  0  0  0
    0.1929   -2.0255    0.7123 H   0  0  0  0  0  0  0  0  0  0  0  0
   -0.9235    0.3404    2.5768 H   0  0  0  0  0  0  0  0  0  0  0  0
   -3.1838    1.2517    2.7887 H   0  0  0  0  0  0  0  0  0  0  0  0
   -5.3845    1.6541    1.8443 H   0  0  0  0  0  0  0  0  0  0  0  0
   -8.1106    1.0660   -0.5805 H   0  0  0  0  0  0  0  0  0  0  0  0
   -7.7270    1.5864    1.0600 H   0  0  0  0  0  0  0  0  0  0  0  0
   -7.3648    2.6612   -0.3140 H   0  0  0  0  0  0  0  0  0  0  0  0
   -6.3256    0.3014   -2.1159 H   0  0  0  0  0  0  0  0  0  0  0  0
   -4.1168   -0.6221   -2.3686 H   0  0  0  0  0  0  0  0  0  0  0  0
   -2.5210   -1.9391   -2.0281 H   0  0  0  0  0  0  0  0  0  0  0  0
   -0.9010   -2.0411   -1.4246 H   0  0  0  0  0  0  0  0  0  0  0  0
   -0.9338   -0.9150   -3.6597 H   0  0  0  0  0  0  0  0  0  0  0  0
   -0.3197    0.1889   -2.4246 H   0  0  0  0  0  0  0  0  0  0  0  0
   -1.9682    0.3712   -3.0191 H   0  0  0  0  0  0  0  0  0  0  0  0
    3.1095    3.6697   -0.5380 H   0  0  0  0  0  0  0  0  0  0  0  0
    5.5822    3.5654   -0.6733 H   0  0  0  0  0  0  0  0  0  0  0  0
    8.1257   -1.0616    0.0959 H   0  0  0  0  0  0  0  0  0  0  0  0
    5.6925   -1.8635    0.3905 H   0  0  0  0  0  0  0  0  0  0  0  0
  1  2  1  0
  2  3  1  0
  3  4  1  0
  4  5  2  3
  5  6  1  0
  6  7  2  0
  7  8  1  0
  8  9  2  0
  9 10  1  0
 10 11  2  0
 11 12  1  0
 11 13  1  0
 13 14  2  0
 14 15  1  0
 15 16  2  0
 16 17  1  0
 17 18  1  0
  4 19  1  0
 19 20  1  0
 20 21  2  0
 21 22  1  0
 22 23  2  0
 23 24  1  0
 24 25  1  0
 25 26  2  0
 26 27  1  0
 27 28  2  0
 28  3  1  0
 16  6  1  0
 28 20  1  0
 15  9  1  0
 27 23  1  0
  1 29  1  0
  1 30  1  0
  1 31  1  0
  2 32  1  0
  2 33  1  0
  5 34  1  0
  7 35  1  0
  8 36  1  0
 10 37  1  0
 12 38  1  0
 12 39  1  0
 12 40  1  0
 13 41  1  0
 14 42  1  0
 17 43  1  0
 17 44  1  0
 18 45  1  0
 18 46  1  0
 18 47  1  0
 21 48  1  0
 22 49  1  0
 25 50  1  0
 26 51  1  0
M  CHG  1  16   1
M  END
$$$$
