
     RDKit          3D

 51 54  0  0  0  0  0  0  0  0999 V2000
    2.6618   -2.0128   -1.5709 C   0  0  0  0  0  0  0  0  0  0  0  0
    2.7588   -0.4913   -1.3958 C   0  0  0  0  0  0  0  0  0  0  0  0
    1.6604    0.2077   -2.2252 C   0  0  0  0  0  0  0  0  0  0  0  0
    0.6460    0.5249   -1.1714 C   0  0  0  0  0  0  0  0  0  0  0  0
   -0.6460    0.9916   -1.3637 C   0  0  0  0  0  0  0  0  0  0  0  0
   -1.3948    1.3128   -0.2285 C   0  0  0  0  0  0  0  0  0  0  0  0
   -3.0618    1.9021   -0.4034 S   0  0  0  0  0  6  0  0  0  0  0  0
   -3.1365    3.1775    0.2756 O   0  0  0  0  0  0  0  0  0  0  0  0
   -3.4552    1.7633   -1.7907 O   0  0  0  0  0  0  0  0  0  0  0  0
   -3.9591    0.7578    0.4926 N   0  0  0  0  0  0  0  0  0  0  0  0
   -3.9371   -0.6432   -0.0160 C   0  0  0  0  0  0  0  0  0  0  0  0
   -5.2981   -1.0727   -0.5461 C   0  0  0  0  0  0  0  0  0  0  0  0
   -6.3755   -0.9927    0.5333 C   0  0  0  0  0  0  0  0  0  0  0  0
   -6.1100    0.1275    1.5370 C   0  0  0  0  0  0  0  0  0  0  0  0
   -5.2985    1.2545    0.9114 C   0  0  0  0  0  0  0  0  0  0  0  0
   -0.8524    1.1893    1.0622 C   0  0  0  0  0  0  0  0  0  0  0  0
    0.4556    0.7233    1.2331 C   0  0  0  0  0  0  0  0  0  0  0  0
    1.1924    0.3833    0.1091 C   0  0  0  0  0  0  0  0  0  0  0  0
    2.5158   -0.1015    0.0169 N   0  0  0  0  0  0  0  0  0  0  0  0
    3.4131   -0.2057    1.0780 C   0  0  0  0  0  0  0  0  0  0  0  0
    3.0866   -0.0019    2.2540 O   0  0  0  0  0  0  0  0  0  0  0  0
    4.8829   -0.5598    0.7047 C   0  0  0  0  0  0  0  0  0  0  0  0
    5.7871    0.6065    0.2102 C   0  0  0  0  0  0  0  0  0  0  0  0
    6.9562   -0.0664    0.9517 C   0  0  0  0  0  0  0  0  0  0  0  0
    5.9054   -0.7143    1.8710 C   0  0  0  0  0  0  0  0  0  0  0  0
    1.6691   -2.3849   -1.2926 H   0  0  0  0  0  0  0  0  0  0  0  0
    3.3867   -2.5438   -0.9489 H   0  0  0  0  0  0  0  0  0  0  0  0
    2.8471   -2.2908   -2.6137 H   0  0  0  0  0  0  0  0  0  0  0  0
    3.7511   -0.1561   -1.7133 H   0  0  0  0  0  0  0  0  0  0  0  0
    1.2563   -0.4209   -3.0241 H   0  0  0  0  0  0  0  0  0  0  0  0
    2.0399    1.1430   -2.6515 H   0  0  0  0  0  0  0  0  0  0  0  0
   -1.0530    1.1157   -2.3630 H   0  0  0  0  0  0  0  0  0  0  0  0
   -3.1894   -0.7701   -0.8052 H   0  0  0  0  0  0  0  0  0  0  0  0
   -3.6265   -1.2941    0.8102 H   0  0  0  0  0  0  0  0  0  0  0  0
   -5.5805   -0.4262   -1.3868 H   0  0  0  0  0  0  0  0  0  0  0  0
   -5.2479   -2.0940   -0.9402 H   0  0  0  0  0  0  0  0  0  0  0  0
   -7.3495   -0.8437    0.0521 H   0  0  0  0  0  0  0  0  0  0  0  0
   -6.4404   -1.9455    1.0722 H   0  0  0  0  0  0  0  0  0  0  0  0
   -5.5618   -0.2810    2.3958 H   0  0  0  0  0  0  0  0  0  0  0  0
   -7.0611    0.5099    1.9239 H   0  0  0  0  0  0  0  0  0  0  0  0
   -5.1630    2.0460    1.6566 H   0  0  0  0  0  0  0  0  0  0  0  0
   -5.8360    1.6754    0.0536 H   0  0  0  0  0  0  0  0  0  0  0  0
   -1.4455    1.4596    1.9339 H   0  0  0  0  0  0  0  0  0  0  0  0
    0.8606    0.6332    2.2354 H   0  0  0  0  0  0  0  0  0  0  0  0
    4.9477   -1.4330    0.0441 H   0  0  0  0  0  0  0  0  0  0  0  0
    5.9100    0.6895   -0.8727 H   0  0  0  0  0  0  0  0  0  0  0  0
    5.5134    1.5890    0.6124 H   0  0  0  0  0  0  0  0  0  0  0  0
    7.5107   -0.7866    0.3393 H   0  0  0  0  0  0  0  0  0  0  0  0
    7.6639    0.6091    1.4381 H   0  0  0  0  0  0  0  0  0  0  0  0
    5.6807   -0.1182    2.7631 H   0  0  0  0  0  0  0  0  0  0  0  0
    6.1205   -1.7414    2.1778 H   0  0  0  0  0  0  0  0  0  0  0  0
  1  2  1  0
  2  3  1  0
  3  4  1  0
  4  5  2  0
  5  6  1  0
  6  7  1  0
  7  8  2  0
  7  9  2  0
  7 10  1  0
 10 11  1  0
 11 12  1  0
 12 13  1  0
 13 14  1  0
 14 15  1  0
  6 16  2  0
 16 17  1  0
 17 18  2  0
 18 19  1  0
 19 20  1  0
 20 21  2  0
 20 22  1  0
 22 23  1  0
 23 24  1  0
 24 25  1  0
 19  2  1  0
 25 22  1  0
 18  4  1  0
 15 10  1  0
  1 26  1  0
  1 27  1  0
  1 28  1  0
  2 29  1  0
  3 30  1  0
  3 31  1  0
  5 32  1  0
 11 33  1  0
 11 34  1  0
 12 35  1  0
 12 36  1  0
 13 37  1  0
 13 38  1  0
 14 39  1  0
 14 40  1  0
 15 41  1  0
 15 42  1  0
 16 43  1  0
 17 44  1  0
 22 45  1  0
 23 46  1  0
 23 47  1  0
 24 48  1  0
 24 49  1  0
 25 50  1  0
 25 51  1  0
M  END
$$$$
