
     RDKit          3D

 64 64  0  0  0  0  0  0  0  0999 V2000
   -9.9844   -0.5299   -1.3082 C   0  0  0  0  0  0  0  0  0  0  0  0
   -9.2475   -0.3496    0.0086 C   0  0  0  0  0  0  0  0  0  0  0  0
   -7.7750   -0.7418   -0.1161 C   0  0  0  0  0  0  0  0  0  0  0  0
   -7.0347   -0.5425    1.2080 C   0  0  0  0  0  0  0  0  0  0  0  0
   -5.5863   -1.0397    1.1793 C   0  0  0  0  0  0  0  0  0  0  0  0
   -4.6767   -0.4028    0.1230 C   0  0  0  0  0  0  0  0  0  0  0  0
   -4.5223    1.1113    0.2852 C   0  0  0  0  0  0  0  0  0  0  0  0
   -3.6250    1.7514   -0.7801 C   0  0  0  0  0  0  0  0  0  0  0  0
   -2.1863    1.2285   -0.8567 C   0  0  0  0  0  0  0  0  0  0  0  0
   -1.3974    1.4235    0.4404 C   0  0  0  0  0  0  0  0  0  0  0  0
    0.0340    0.8784    0.3709 C   0  0  0  0  0  0  0  0  0  0  0  0
    0.9431    1.6685   -0.5743 C   0  0  0  0  0  0  0  0  0  0  0  0
    2.3715    1.1151   -0.6431 C   0  0  0  0  0  0  0  0  0  0  0  0
    3.1427    1.2576    0.6722 C   0  0  0  0  0  0  0  0  0  0  0  0
    4.6283    0.9134    0.5384 C   0  0  0  0  0  0  0  0  0  0  0  0
    4.8743   -0.5482    0.1803 C   0  0  0  0  0  0  0  0  0  0  0  0
    6.3359   -0.8126    0.1912 N   0  0  0  0  0  4  0  0  0  0  0  0
    7.0593   -0.6118   -0.9354 C   0  0  0  0  0  0  0  0  0  0  0  0
    8.4235   -0.8644   -0.9555 C   0  0  0  0  0  0  0  0  0  0  0  0
    9.0401   -1.3462    0.1938 C   0  0  0  0  0  0  0  0  0  0  0  0
   10.4885   -1.6309    0.2452 C   0  0  0  0  0  0  0  0  0  0  0  0
   11.2414   -2.1512   -0.6757 N   0  0  0  0  0  0  0  0  0  0  0  0
   10.5334   -2.5494   -1.8112 O   0  0  0  0  0  0  0  0  0  0  0  0
    8.2928   -1.5250    1.3532 C   0  0  0  0  0  0  0  0  0  0  0  0
    6.9296   -1.2575    1.3238 C   0  0  0  0  0  0  0  0  0  0  0  0
   -9.5469    0.0965   -2.0917 H   0  0  0  0  0  0  0  0  0  0  0  0
  -11.0356   -0.2471   -1.1943 H   0  0  0  0  0  0  0  0  0  0  0  0
   -9.9456   -1.5717   -1.6404 H   0  0  0  0  0  0  0  0  0  0  0  0
   -9.3301    0.6960    0.3261 H   0  0  0  0  0  0  0  0  0  0  0  0
   -9.7319   -0.9619    0.7780 H   0  0  0  0  0  0  0  0  0  0  0  0
   -7.7010   -1.7911   -0.4267 H   0  0  0  0  0  0  0  0  0  0  0  0
   -7.3092   -0.1356   -0.9013 H   0  0  0  0  0  0  0  0  0  0  0  0
   -7.5622   -1.0884    2.0005 H   0  0  0  0  0  0  0  0  0  0  0  0
   -7.0646    0.5149    1.4944 H   0  0  0  0  0  0  0  0  0  0  0  0
   -5.1448   -0.8786    2.1709 H   0  0  0  0  0  0  0  0  0  0  0  0
   -5.5908   -2.1252    1.0186 H   0  0  0  0  0  0  0  0  0  0  0  0
   -5.0464   -0.6356   -0.8820 H   0  0  0  0  0  0  0  0  0  0  0  0
   -3.6944   -0.8821    0.2091 H   0  0  0  0  0  0  0  0  0  0  0  0
   -5.5054    1.5906    0.2124 H   0  0  0  0  0  0  0  0  0  0  0  0
   -4.1420    1.3414    1.2868 H   0  0  0  0  0  0  0  0  0  0  0  0
   -4.0932    1.6127   -1.7628 H   0  0  0  0  0  0  0  0  0  0  0  0
   -3.5983    2.8342   -0.6038 H   0  0  0  0  0  0  0  0  0  0  0  0
   -1.6888    1.7635   -1.6734 H   0  0  0  0  0  0  0  0  0  0  0  0
   -2.1856    0.1697   -1.1386 H   0  0  0  0  0  0  0  0  0  0  0  0
   -1.9067    0.9019    1.2586 H   0  0  0  0  0  0  0  0  0  0  0  0
   -1.3755    2.4871    0.7060 H   0  0  0  0  0  0  0  0  0  0  0  0
    0.4483    0.9101    1.3850 H   0  0  0  0  0  0  0  0  0  0  0  0
    0.0116   -0.1761    0.0706 H   0  0  0  0  0  0  0  0  0  0  0  0
    0.9702    2.7216   -0.2691 H   0  0  0  0  0  0  0  0  0  0  0  0
    0.5302    1.6434   -1.5887 H   0  0  0  0  0  0  0  0  0  0  0  0
    2.9094    1.6546   -1.4328 H   0  0  0  0  0  0  0  0  0  0  0  0
    2.3336    0.0626   -0.9473 H   0  0  0  0  0  0  0  0  0  0  0  0
    3.0615    2.2923    1.0273 H   0  0  0  0  0  0  0  0  0  0  0  0
    2.6978    0.6194    1.4441 H   0  0  0  0  0  0  0  0  0  0  0  0
    5.0934    1.5659   -0.2109 H   0  0  0  0  0  0  0  0  0  0  0  0
    5.1229    1.1422    1.4908 H   0  0  0  0  0  0  0  0  0  0  0  0
    4.5031   -0.8019   -0.8184 H   0  0  0  0  0  0  0  0  0  0  0  0
    4.4040   -1.2287    0.8988 H   0  0  0  0  0  0  0  0  0  0  0  0
    6.5355   -0.2419   -1.8127 H   0  0  0  0  0  0  0  0  0  0  0  0
    8.9945   -0.6784   -1.8622 H   0  0  0  0  0  0  0  0  0  0  0  0
   10.9861   -1.3853    1.2002 H   0  0  0  0  0  0  0  0  0  0  0  0
   11.2362   -2.9531   -2.3592 H   0  0  0  0  0  0  0  0  0  0  0  0
    8.7554   -1.8879    2.2684 H   0  0  0  0  0  0  0  0  0  0  0  0
    6.3025   -1.3941    2.2008 H   0  0  0  0  0  0  0  0  0  0  0  0
  1  2  1  0
  2  3  1  0
  3  4  1  0
  4  5  1  0
  5  6  1  0
  6  7  1  0
  7  8  1  0
  8  9  1  0
  9 10  1  0
 10 11  1  0
 11 12  1  0
 12 13  1  0
 13 14  1  0
 14 15  1  0
 15 16  1  0
 16 17  1  0
 17 18  2  0
 18 19  1  0
 19 20  2  0
 20 21  1  0
 21 22  2  3
 22 23  1  0
 20 24  1  0
 24 25  2  0
 25 17  1  0
  1 26  1  0
  1 27  1  0
  1 28  1  0
  2 29  1  0
  2 30  1  0
  3 31  1  0
  3 32  1  0
  4 33  1  0
  4 34  1  0
  5 35  1  0
  5 36  1  0
  6 37  1  0
  6 38  1  0
  7 39  1  0
  7 40  1  0
  8 41  1  0
  8 42  1  0
  9 43  1  0
  9 44  1  0
 10 45  1  0
 10 46  1  0
 11 47  1  0
 11 48  1  0
 12 49  1  0
 12 50  1  0
 13 51  1  0
 13 52  1  0
 14 53  1  0
 14 54  1  0
 15 55  1  0
 15 56  1  0
 16 57  1  0
 16 58  1  0
 18 59  1  0
 19 60  1  0
 21 61  1  0
 23 62  1  0
 24 63  1  0
 25 64  1  0
M  CHG  1  17   1
M  END
$$$$
