
     RDKit          3D

 49 52  0  0  0  0  0  0  0  0999 V2000
   -0.2222   -0.3489    3.9359 O   0  0  0  0  0  0  0  0  0  0  0  0
    0.6303   -0.5459    3.0726 C   0  0  0  0  0  0  0  0  0  0  0  0
    2.0911   -0.8102    3.4543 C   0  0  0  0  0  0  0  0  0  0  0  0
    2.8401   -1.4599    2.3755 N   0  0  0  0  0  0  0  0  0  0  0  0
    3.3019   -0.6424    1.3615 N   0  0  0  0  0  0  0  0  0  0  0  0
    3.9791   -1.1887    0.3962 C   0  0  0  0  0  0  0  0  0  0  0  0
    4.5093   -0.3196   -0.6956 C   0  0  0  0  0  0  0  0  0  0  0  0
    3.7905    0.8351   -1.0437 C   0  0  0  0  0  0  0  0  0  0  0  0
    4.2544    1.6738   -2.0595 C   0  0  0  0  0  0  0  0  0  0  0  0
    5.4393    1.3644   -2.7153 C   0  0  0  0  0  0  0  0  0  0  0  0
    5.8859    2.1689   -3.6875 F   0  0  0  0  0  0  0  0  0  0  0  0
    6.1733    0.2349   -2.3710 C   0  0  0  0  0  0  0  0  0  0  0  0
    5.7125   -0.6091   -1.3565 C   0  0  0  0  0  0  0  0  0  0  0  0
    4.2315   -2.6424    0.2891 C   0  0  0  0  0  0  0  0  0  0  0  0
    3.7455   -3.4156    1.2610 C   0  0  0  0  0  0  0  0  0  0  0  0
    2.9962   -2.8386    2.3935 C   0  0  0  0  0  0  0  0  0  0  0  0
    2.5580   -3.5871    3.2607 O   0  0  0  0  0  0  0  0  0  0  0  0
    0.4430   -0.4232    1.7067 N   0  0  0  0  0  0  0  0  0  0  0  0
   -0.7403   -0.1527    1.0025 C   0  0  0  0  0  0  0  0  0  0  0  0
   -1.9902   -0.0101    1.6071 C   0  0  0  0  0  0  0  0  0  0  0  0
   -3.1282    0.2623    0.8364 C   0  0  0  0  0  0  0  0  0  0  0  0
   -3.0216    0.4026   -0.5513 C   0  0  0  0  0  0  0  0  0  0  0  0
   -4.1985    0.6974   -1.4152 C   0  0  0  0  0  0  0  0  0  0  0  0
   -4.1993    0.3382   -2.5882 O   0  0  0  0  0  0  0  0  0  0  0  0
   -5.2240    1.4139   -0.8262 N   0  0  0  0  0  0  0  0  0  0  0  0
   -6.3905    1.8031   -1.5537 C   0  0  0  0  0  0  0  0  0  0  0  0
   -7.5563    2.4389   -0.8473 C   0  0  0  0  0  0  0  0  0  0  0  0
   -7.6775    1.0450   -1.3877 C   0  0  0  0  0  0  0  0  0  0  0  0
   -1.7743    0.2376   -1.1621 C   0  0  0  0  0  0  0  0  0  0  0  0
   -0.6419   -0.0352   -0.3888 C   0  0  0  0  0  0  0  0  0  0  0  0
    2.5711    0.1465    3.6861 H   0  0  0  0  0  0  0  0  0  0  0  0
    2.1040   -1.4405    4.3491 H   0  0  0  0  0  0  0  0  0  0  0  0
    2.8668    1.0909   -0.5295 H   0  0  0  0  0  0  0  0  0  0  0  0
    3.7025    2.5659   -2.3389 H   0  0  0  0  0  0  0  0  0  0  0  0
    7.1043    0.0246   -2.8891 H   0  0  0  0  0  0  0  0  0  0  0  0
    6.3204   -1.4665   -1.0823 H   0  0  0  0  0  0  0  0  0  0  0  0
    4.7523   -3.0646   -0.5584 H   0  0  0  0  0  0  0  0  0  0  0  0
    3.8636   -4.4919    1.2620 H   0  0  0  0  0  0  0  0  0  0  0  0
    1.3025   -0.5238    1.1678 H   0  0  0  0  0  0  0  0  0  0  0  0
   -2.1166   -0.1194    2.6803 H   0  0  0  0  0  0  0  0  0  0  0  0
   -4.0882    0.3294    1.3399 H   0  0  0  0  0  0  0  0  0  0  0  0
   -5.0792    1.8244    0.0872 H   0  0  0  0  0  0  0  0  0  0  0  0
   -6.1678    2.1721   -2.5530 H   0  0  0  0  0  0  0  0  0  0  0  0
   -7.5170    2.5595    0.2290 H   0  0  0  0  0  0  0  0  0  0  0  0
   -8.0869    3.2310   -1.3628 H   0  0  0  0  0  0  0  0  0  0  0  0
   -8.2819    0.8876   -2.2735 H   0  0  0  0  0  0  0  0  0  0  0  0
   -7.6995    0.2212   -0.6852 H   0  0  0  0  0  0  0  0  0  0  0  0
   -1.6811    0.3227   -2.2431 H   0  0  0  0  0  0  0  0  0  0  0  0
    0.3138   -0.1556   -0.8916 H   0  0  0  0  0  0  0  0  0  0  0  0
  1  2  2  0
  2  3  1  0
  3  4  1  0
  4  5  1  0
  5  6  2  0
  6  7  1  0
  7  8  2  0
  8  9  1  0
  9 10  2  0
 10 11  1  0
 10 12  1  0
 12 13  2  0
  6 14  1  0
 14 15  2  0
 15 16  1  0
 16 17  2  0
  2 18  1  0
 18 19  1  0
 19 20  2  0
 20 21  1  0
 21 22  2  0
 22 23  1  0
 23 24  2  0
 23 25  1  0
 25 26  1  0
 26 27  1  0
 27 28  1  0
 22 29  1  0
 29 30  2  0
 16  4  1  0
 30 19  1  0
 13  7  1  0
 28 26  1  0
  3 31  1  0
  3 32  1  0
  8 33  1  0
  9 34  1  0
 12 35  1  0
 13 36  1  0
 14 37  1  0
 15 38  1  0
 18 39  1  0
 20 40  1  0
 21 41  1  0
 25 42  1  0
 26 43  1  0
 27 44  1  0
 27 45  1  0
 28 46  1  0
 28 47  1  0
 29 48  1  0
 30 49  1  0
M  END
$$$$
