
     RDKit          3D

 46 48  0  0  0  0  0  0  0  0999 V2000
   -6.7880   -0.0136    2.3171 C   0  0  0  0  0  0  0  0  0  0  0  0
   -5.7720   -0.9350    1.6579 C   0  0  0  0  0  0  0  0  0  0  0  0
   -5.7437   -0.7261    0.1449 C   0  0  0  0  0  0  0  0  0  0  0  0
   -4.5635   -1.8570   -0.6708 S   0  0  0  0  0  0  0  0  0  0  0  0
   -2.9884   -1.1147   -0.2517 C   0  0  0  0  0  0  0  0  0  0  0  0
   -3.0219    0.1740    0.1723 N   0  0  0  0  0  0  0  0  0  0  0  0
   -1.8575    0.8055    0.4862 C   0  0  0  0  0  0  0  0  0  0  0  0
   -2.0078    2.2441    0.8904 C   0  0  0  0  0  0  0  0  0  0  0  0
   -0.6202    0.1615    0.4186 C   0  0  0  0  0  0  0  0  0  0  0  0
    0.6459    0.7869    0.7572 C   0  0  0  0  0  0  0  0  0  0  0  0
    0.9198    1.3902    1.9638 C   0  0  0  0  0  0  0  0  0  0  0  0
    2.5308    1.9648    1.9733 S   0  0  0  0  0  0  0  0  0  0  0  0
    2.7806    1.3393    0.3662 C   0  0  0  0  0  0  0  0  0  0  0  0
    4.0548    1.4848   -0.2836 C   0  0  0  0  0  0  0  0  0  0  0  0
    4.8345    2.6630   -0.0515 C   0  0  0  0  0  0  0  0  0  0  0  0
    5.4740    3.6143    0.1334 N   0  0  0  0  0  0  0  0  0  0  0  0
    4.5103    0.5305   -1.1297 C   0  0  0  0  0  0  0  0  0  0  0  0
    5.8240    0.6048   -1.8817 C   0  0  0  0  0  0  0  0  0  0  0  0
    5.7457   -0.5483   -2.8736 C   0  0  0  0  0  0  0  0  0  0  0  0
    4.9220   -1.5941   -2.1440 C   0  0  0  0  0  0  0  0  0  0  0  0
    3.8291   -0.7794   -1.4643 C   0  0  0  0  0  0  0  0  0  0  0  0
    1.7088    0.7372   -0.1251 N   0  0  0  0  0  0  0  0  0  0  0  0
   -0.6019   -1.1605   -0.0415 C   0  0  0  0  0  0  0  0  0  0  0  0
   -1.7917   -1.8125   -0.3838 C   0  0  0  0  0  0  0  0  0  0  0  0
   -1.7291   -3.1649   -0.8463 C   0  0  0  0  0  0  0  0  0  0  0  0
   -1.6276   -4.2625   -1.2106 N   0  0  0  0  0  0  0  0  0  0  0  0
   -6.5418    1.0369    2.1326 H   0  0  0  0  0  0  0  0  0  0  0  0
   -7.7960   -0.2035    1.9350 H   0  0  0  0  0  0  0  0  0  0  0  0
   -6.7994   -0.1748    3.3996 H   0  0  0  0  0  0  0  0  0  0  0  0
   -6.0354   -1.9735    1.8919 H   0  0  0  0  0  0  0  0  0  0  0  0
   -4.7886   -0.7408    2.1001 H   0  0  0  0  0  0  0  0  0  0  0  0
   -6.7332   -0.9524   -0.2684 H   0  0  0  0  0  0  0  0  0  0  0  0
   -5.5270    0.3146   -0.1171 H   0  0  0  0  0  0  0  0  0  0  0  0
   -3.0167    2.6041    0.6601 H   0  0  0  0  0  0  0  0  0  0  0  0
   -1.3038    2.8801    0.3450 H   0  0  0  0  0  0  0  0  0  0  0  0
   -1.8535    2.3577    1.9670 H   0  0  0  0  0  0  0  0  0  0  0  0
    0.2815    1.5173    2.8266 H   0  0  0  0  0  0  0  0  0  0  0  0
    5.9638    1.5549   -2.4059 H   0  0  0  0  0  0  0  0  0  0  0  0
    6.6577    0.4461   -1.1878 H   0  0  0  0  0  0  0  0  0  0  0  0
    5.2307   -0.2298   -3.7886 H   0  0  0  0  0  0  0  0  0  0  0  0
    6.7358   -0.9196   -3.1543 H   0  0  0  0  0  0  0  0  0  0  0  0
    4.5131   -2.3491   -2.8219 H   0  0  0  0  0  0  0  0  0  0  0  0
    5.5374   -2.1077   -1.3946 H   0  0  0  0  0  0  0  0  0  0  0  0
    3.0072   -0.6028   -2.1675 H   0  0  0  0  0  0  0  0  0  0  0  0
    3.4514   -1.3063   -0.5831 H   0  0  0  0  0  0  0  0  0  0  0  0
    0.3499   -1.6838   -0.1357 H   0  0  0  0  0  0  0  0  0  0  0  0
  1  2  1  0
  2  3  1  0
  3  4  1  0
  4  5  1  0
  5  6  2  0
  6  7  1  0
  7  8  1  0
  7  9  2  0
  9 10  1  0
 10 11  2  0
 11 12  1  0
 12 13  1  0
 13 14  1  0
 14 15  1  0
 15 16  3  0
 14 17  2  3
 17 18  1  0
 18 19  1  0
 19 20  1  0
 20 21  1  0
 13 22  2  0
  9 23  1  0
 23 24  2  0
 24 25  1  0
 25 26  3  0
 24  5  1  0
 22 10  1  0
 21 17  1  0
  1 27  1  0
  1 28  1  0
  1 29  1  0
  2 30  1  0
  2 31  1  0
  3 32  1  0
  3 33  1  0
  8 34  1  0
  8 35  1  0
  8 36  1  0
 11 37  1  0
 18 38  1  0
 18 39  1  0
 19 40  1  0
 19 41  1  0
 20 42  1  0
 20 43  1  0
 21 44  1  0
 21 45  1  0
 23 46  1  0
M  END
$$$$
