
     RDKit          3D

 34 36  0  0  0  0  0  0  0  0999 V2000
    5.4851   -0.8243    0.6549 C   0  0  0  0  0  0  0  0  0  0  0  0
    4.2325   -0.1375    0.4013 N   0  0  0  0  0  0  0  0  0  0  0  0
    3.2230   -0.8685   -0.3438 C   0  0  0  0  0  0  0  0  0  0  0  0
    1.9061   -0.1713   -0.3880 C   0  0  0  0  0  0  0  0  0  0  0  0
    0.7161   -0.8216   -0.7237 C   0  0  0  0  0  0  0  0  0  0  0  0
   -0.4631   -0.0809   -0.8163 C   0  0  0  0  0  0  0  0  0  0  0  0
   -1.7216   -0.7567   -1.1864 C   0  0  0  0  0  0  0  0  0  0  0  0
   -1.6796   -1.6718   -2.0085 O   0  0  0  0  0  0  0  0  0  0  0  0
   -3.0379   -0.3626   -0.6235 C   0  0  0  0  0  0  0  0  0  0  0  0
   -3.1486    0.1991    0.6564 C   0  0  0  0  0  0  0  0  0  0  0  0
   -4.4014    0.5719    1.1517 C   0  0  0  0  0  0  0  0  0  0  0  0
   -5.5471    0.3755    0.3808 C   0  0  0  0  0  0  0  0  0  0  0  0
   -5.4478   -0.2091   -0.8811 C   0  0  0  0  0  0  0  0  0  0  0  0
   -4.2015   -0.5884   -1.3732 C   0  0  0  0  0  0  0  0  0  0  0  0
   -4.1884   -1.1833   -2.6067 O   0  0  0  0  0  0  0  0  0  0  0  0
   -0.3894    1.2920   -0.6234 C   0  0  0  0  0  0  0  0  0  0  0  0
    0.7521    1.9446   -0.2968 N   0  0  0  0  0  0  0  0  0  0  0  0
    1.8683    1.1965   -0.1798 C   0  0  0  0  0  0  0  0  0  0  0  0
    3.0349    1.8502    0.1634 N   0  0  0  0  0  0  0  0  0  0  0  0
    4.2121    1.2424    0.4713 C   0  0  0  0  0  0  0  0  0  0  0  0
    5.1759    1.9197    0.8221 O   0  0  0  0  0  0  0  0  0  0  0  0
    5.2780   -1.8054    1.0916 H   0  0  0  0  0  0  0  0  0  0  0  0
    6.1151   -0.2577    1.3464 H   0  0  0  0  0  0  0  0  0  0  0  0
    6.0181   -0.9460   -0.2928 H   0  0  0  0  0  0  0  0  0  0  0  0
    3.5954   -1.0095   -1.3653 H   0  0  0  0  0  0  0  0  0  0  0  0
    3.1037   -1.8495    0.1302 H   0  0  0  0  0  0  0  0  0  0  0  0
    0.7057   -1.8915   -0.9208 H   0  0  0  0  0  0  0  0  0  0  0  0
   -2.2794    0.3409    1.2935 H   0  0  0  0  0  0  0  0  0  0  0  0
   -4.4864    1.0108    2.1436 H   0  0  0  0  0  0  0  0  0  0  0  0
   -6.5214    0.6655    0.7674 H   0  0  0  0  0  0  0  0  0  0  0  0
   -6.3405   -0.3795   -1.4774 H   0  0  0  0  0  0  0  0  0  0  0  0
   -3.2993   -1.5832   -2.7371 H   0  0  0  0  0  0  0  0  0  0  0  0
   -1.2554    1.9383   -0.7393 H   0  0  0  0  0  0  0  0  0  0  0  0
    2.9866    2.8506    0.2840 H   0  0  0  0  0  0  0  0  0  0  0  0
  1  2  1  0
  2  3  1  0
  3  4  1  0
  4  5  2  0
  5  6  1  0
  6  7  1  0
  7  8  2  0
  7  9  1  0
  9 10  2  0
 10 11  1  0
 11 12  2  0
 12 13  1  0
 13 14  2  0
 14 15  1  0
  6 16  2  0
 16 17  1  0
 17 18  2  0
 18 19  1  0
 19 20  1  0
 20 21  2  0
 20  2  1  0
 18  4  1  0
 14  9  1  0
  1 22  1  0
  1 23  1  0
  1 24  1  0
  3 25  1  0
  3 26  1  0
  5 27  1  0
 10 28  1  0
 11 29  1  0
 12 30  1  0
 13 31  1  0
 15 32  1  0
 16 33  1  0
 19 34  1  0
M  END
$$$$
