
     RDKit          3D

 46 48  0  0  0  0  0  0  0  0999 V2000
   -3.8397    0.0758   -1.4801 C   0  0  0  0  0  0  0  0  0  0  0  0
   -3.5946    0.4522   -0.0410 C   0  0  0  0  0  0  0  0  0  0  0  0
   -4.5961    0.5446    0.8615 C   0  0  0  0  0  0  0  0  0  0  0  0
   -6.0126    0.2683    0.6038 C   0  0  0  0  0  0  0  0  0  0  0  0
   -6.4777   -1.0497    0.5341 C   0  0  0  0  0  0  0  0  0  0  0  0
   -7.8291   -1.3048    0.2949 C   0  0  0  0  0  0  0  0  0  0  0  0
   -8.7203   -0.2451    0.1272 C   0  0  0  0  0  0  0  0  0  0  0  0
   -8.2621    1.0700    0.1983 C   0  0  0  0  0  0  0  0  0  0  0  0
   -6.9108    1.3276    0.4373 C   0  0  0  0  0  0  0  0  0  0  0  0
   -2.2344    0.7575    0.4196 C   0  0  0  0  0  0  0  0  0  0  0  0
   -1.0352    0.6820   -0.1794 C   0  0  0  0  0  0  0  0  0  0  0  0
   -0.6110    0.1665   -1.7682 S   0  0  0  0  0  0  0  0  0  0  0  0
    1.1135    0.4108   -1.5175 C   0  0  0  0  0  0  0  0  0  0  0  0
    2.2641    0.1254   -2.6873 S   0  0  0  0  0  0  0  0  0  0  0  0
    1.3023    0.8883   -0.2409 N   0  0  0  0  0  0  0  0  0  0  0  0
    2.6818    1.1131    0.3585 N   0  0  0  0  0  0  0  0  0  0  0  0
    3.2450   -0.2394    1.2464 S   0  0  0  0  0  6  0  0  0  0  0  0
    2.4505   -1.3909    0.8723 O   0  0  0  0  0  0  0  0  0  0  0  0
    3.3622    0.1941    2.6212 O   0  0  0  0  0  0  0  0  0  0  0  0
    4.8799   -0.4315    0.5909 C   0  0  0  0  0  0  0  0  0  0  0  0
    5.1248   -1.3802   -0.4035 C   0  0  0  0  0  0  0  0  0  0  0  0
    6.4200   -1.5377   -0.9001 C   0  0  0  0  0  0  0  0  0  0  0  0
    7.4756   -0.7688   -0.3915 C   0  0  0  0  0  0  0  0  0  0  0  0
    8.8596   -0.9210   -0.9522 C   0  0  0  0  0  0  0  0  0  0  0  0
    7.2159    0.1769    0.6095 C   0  0  0  0  0  0  0  0  0  0  0  0
    5.9229    0.3409    1.1096 C   0  0  0  0  0  0  0  0  0  0  0  0
    0.1972    1.0743    0.5684 C   0  0  0  0  0  0  0  0  0  0  0  0
    0.2228    1.5215    1.7071 O   0  0  0  0  0  0  0  0  0  0  0  0
   -4.9008   -0.0222   -1.7276 H   0  0  0  0  0  0  0  0  0  0  0  0
   -3.3761   -0.8883   -1.7115 H   0  0  0  0  0  0  0  0  0  0  0  0
   -3.4497    0.8460   -2.1535 H   0  0  0  0  0  0  0  0  0  0  0  0
   -4.4031    0.8365    1.8929 H   0  0  0  0  0  0  0  0  0  0  0  0
   -5.7906   -1.8827    0.6653 H   0  0  0  0  0  0  0  0  0  0  0  0
   -8.1864   -2.3299    0.2413 H   0  0  0  0  0  0  0  0  0  0  0  0
   -9.7726   -0.4444   -0.0582 H   0  0  0  0  0  0  0  0  0  0  0  0
   -8.9573    1.8957    0.0687 H   0  0  0  0  0  0  0  0  0  0  0  0
   -6.5642    2.3570    0.4900 H   0  0  0  0  0  0  0  0  0  0  0  0
   -2.2113    1.1045    1.4582 H   0  0  0  0  0  0  0  0  0  0  0  0
    2.6649    1.9012    1.0187 H   0  0  0  0  0  0  0  0  0  0  0  0
    4.3212   -1.9947   -0.8027 H   0  0  0  0  0  0  0  0  0  0  0  0
    6.6021   -2.2677   -1.6865 H   0  0  0  0  0  0  0  0  0  0  0  0
    9.0507   -1.9603   -1.2396 H   0  0  0  0  0  0  0  0  0  0  0  0
    9.6153   -0.6446   -0.2098 H   0  0  0  0  0  0  0  0  0  0  0  0
    8.9788   -0.2809   -1.8318 H   0  0  0  0  0  0  0  0  0  0  0  0
    8.0230    0.7876    1.0092 H   0  0  0  0  0  0  0  0  0  0  0  0
    5.7418    1.0662    1.8994 H   0  0  0  0  0  0  0  0  0  0  0  0
  1  2  1  0
  2  3  2  3
  3  4  1  0
  4  5  2  0
  5  6  1  0
  6  7  2  0
  7  8  1  0
  8  9  2  0
  2 10  1  0
 10 11  2  3
 11 12  1  0
 12 13  1  0
 13 14  2  0
 13 15  1  0
 15 16  1  0
 16 17  1  0
 17 18  2  0
 17 19  2  0
 17 20  1  0
 20 21  2  0
 21 22  1  0
 22 23  2  0
 23 24  1  0
 23 25  1  0
 25 26  2  0
 15 27  1  0
 27 28  2  0
  9  4  1  0
 27 11  1  0
 26 20  1  0
  1 29  1  0
  1 30  1  0
  1 31  1  0
  3 32  1  0
  5 33  1  0
  6 34  1  0
  7 35  1  0
  8 36  1  0
  9 37  1  0
 10 38  1  0
 16 39  1  0
 21 40  1  0
 22 41  1  0
 24 42  1  0
 24 43  1  0
 24 44  1  0
 25 45  1  0
 26 46  1  0
M  END
$$$$
