
     RDKit          3D

 47 49  0  0  0  0  0  0  0  0999 V2000
   -8.5564   -1.5913    0.2882 C   0  0  0  0  0  0  0  0  0  0  0  0
   -7.6890   -0.5707   -0.4271 C   0  0  0  0  0  0  0  0  0  0  0  0
   -7.1859    0.5098    0.5266 C   0  0  0  0  0  0  0  0  0  0  0  0
   -6.4120    1.4812   -0.1775 O   0  0  0  0  0  0  0  0  0  0  0  0
   -5.0657    1.2904   -0.3056 C   0  0  0  0  0  0  0  0  0  0  0  0
   -4.3861    2.3570   -0.9016 C   0  0  0  0  0  0  0  0  0  0  0  0
   -3.0048    2.3024   -1.1024 C   0  0  0  0  0  0  0  0  0  0  0  0
   -2.2854    1.1752   -0.6968 C   0  0  0  0  0  0  0  0  0  0  0  0
   -0.8129    1.1472   -0.9244 C   0  0  0  0  0  0  0  0  0  0  0  0
   -0.3696    1.6943   -1.9267 O   0  0  0  0  0  0  0  0  0  0  0  0
   -0.0851    0.5194    0.0704 N   0  0  0  0  0  0  0  0  0  0  0  0
    1.3079    0.3045    0.1038 C   0  0  0  0  0  0  0  0  0  0  0  0
    2.1735    0.6268   -0.9388 C   0  0  0  0  0  0  0  0  0  0  0  0
    3.5470    0.3727   -0.8262 C   0  0  0  0  0  0  0  0  0  0  0  0
    4.0800   -0.2124    0.3278 C   0  0  0  0  0  0  0  0  0  0  0  0
    5.4740   -0.4261    0.3542 N   0  0  0  0  0  0  0  0  0  0  0  0
    6.2251   -1.0451    1.3453 C   0  0  0  0  0  0  0  0  0  0  0  0
    5.7414   -1.5575    2.3508 O   0  0  0  0  0  0  0  0  0  0  0  0
    7.6650   -1.0515    1.0732 C   0  0  0  0  0  0  0  0  0  0  0  0
    8.4255   -0.2552    0.2312 C   0  0  0  0  0  0  0  0  0  0  0  0
    9.8114   -0.5944    0.2546 C   0  0  0  0  0  0  0  0  0  0  0  0
   10.0728   -1.6320    1.1185 C   0  0  0  0  0  0  0  0  0  0  0  0
    8.6593   -2.1853    1.9006 S   0  0  0  0  0  0  0  0  0  0  0  0
    3.2135   -0.5346    1.3702 C   0  0  0  0  0  0  0  0  0  0  0  0
    1.8397   -0.2803    1.2575 C   0  0  0  0  0  0  0  0  0  0  0  0
   -2.9637    0.0939   -0.1208 C   0  0  0  0  0  0  0  0  0  0  0  0
   -4.3497    0.1549    0.0755 C   0  0  0  0  0  0  0  0  0  0  0  0
   -7.9936   -2.0978    1.0788 H   0  0  0  0  0  0  0  0  0  0  0  0
   -9.4320   -1.1146    0.7403 H   0  0  0  0  0  0  0  0  0  0  0  0
   -8.9093   -2.3501   -0.4171 H   0  0  0  0  0  0  0  0  0  0  0  0
   -6.8466   -1.0792   -0.9085 H   0  0  0  0  0  0  0  0  0  0  0  0
   -8.2588   -0.1029   -1.2391 H   0  0  0  0  0  0  0  0  0  0  0  0
   -6.6524    0.0998    1.3918 H   0  0  0  0  0  0  0  0  0  0  0  0
   -8.0492    1.0467    0.9377 H   0  0  0  0  0  0  0  0  0  0  0  0
   -4.9391    3.2393   -1.2164 H   0  0  0  0  0  0  0  0  0  0  0  0
   -2.4942    3.1397   -1.5735 H   0  0  0  0  0  0  0  0  0  0  0  0
   -0.5894    0.2399    0.9016 H   0  0  0  0  0  0  0  0  0  0  0  0
    1.8141    1.0751   -1.8598 H   0  0  0  0  0  0  0  0  0  0  0  0
    4.1852    0.6412   -1.6642 H   0  0  0  0  0  0  0  0  0  0  0  0
    5.9703   -0.1396   -0.4767 H   0  0  0  0  0  0  0  0  0  0  0  0
    8.0271    0.5531   -0.3690 H   0  0  0  0  0  0  0  0  0  0  0  0
   10.5783   -0.0964   -0.3266 H   0  0  0  0  0  0  0  0  0  0  0  0
   11.0284   -2.0892    1.3372 H   0  0  0  0  0  0  0  0  0  0  0  0
    3.5675   -0.9831    2.2930 H   0  0  0  0  0  0  0  0  0  0  0  0
    1.1995   -0.5477    2.0944 H   0  0  0  0  0  0  0  0  0  0  0  0
   -2.4366   -0.8172    0.1499 H   0  0  0  0  0  0  0  0  0  0  0  0
   -4.8389   -0.7106    0.5097 H   0  0  0  0  0  0  0  0  0  0  0  0
  1  2  1  0
  2  3  1  0
  3  4  1  0
  4  5  1  0
  5  6  2  0
  6  7  1  0
  7  8  2  0
  8  9  1  0
  9 10  2  0
  9 11  1  0
 11 12  1  0
 12 13  2  0
 13 14  1  0
 14 15  2  0
 15 16  1  0
 16 17  1  0
 17 18  2  0
 17 19  1  0
 19 20  2  0
 20 21  1  0
 21 22  2  0
 22 23  1  0
 15 24  1  0
 24 25  2  0
  8 26  1  0
 26 27  2  0
 27  5  1  0
 25 12  1  0
 23 19  1  0
  1 28  1  0
  1 29  1  0
  1 30  1  0
  2 31  1  0
  2 32  1  0
  3 33  1  0
  3 34  1  0
  6 35  1  0
  7 36  1  0
 11 37  1  0
 13 38  1  0
 14 39  1  0
 16 40  1  0
 20 41  1  0
 21 42  1  0
 22 43  1  0
 24 44  1  0
 25 45  1  0
 26 46  1  0
 27 47  1  0
M  END
$$$$
