
     RDKit          3D

 66 68  0  0  0  0  0  0  0  0999 V2000
   -2.8093   -5.6273    0.4251 C   0  0  0  0  0  0  0  0  0  0  0  0
   -1.9657   -4.4797    0.9731 C   0  0  0  0  0  0  0  0  0  0  0  0
   -2.2833   -3.1661    0.3864 N   0  0  0  0  0  0  0  0  0  0  0  0
   -3.6792   -2.7464    0.5827 C   0  0  0  0  0  0  0  0  0  0  0  0
   -4.1152   -2.4925    2.0230 C   0  0  0  0  0  0  0  0  0  0  0  0
   -1.2832   -2.1710    0.8247 C   0  0  0  0  0  0  0  0  0  0  0  0
   -1.3962   -0.8107    0.1117 C   0  0  0  0  0  0  0  0  0  0  0  0
   -0.2500    0.1561    0.5147 C   0  0  0  0  0  0  0  0  0  0  0  0
    1.1617   -0.2339    0.0810 C   0  0  0  0  0  0  0  0  0  0  0  0
    2.2514    0.1759    0.8579 C   0  0  0  0  0  0  0  0  0  0  0  0
    3.5664   -0.1534    0.4962 C   0  0  0  0  0  0  0  0  0  0  0  0
    3.8632   -0.9067   -0.6510 C   0  0  0  0  0  0  0  0  0  0  0  0
    5.1829   -1.2163   -1.0098 N   0  0  0  0  0  0  0  0  0  0  0  0
    6.1790   -1.3002    0.0579 C   0  0  0  0  0  0  0  0  0  0  0  0
    5.4171   -2.0905   -2.1576 C   0  0  0  0  0  0  0  0  0  0  0  0
    2.7587   -1.2826   -1.4321 C   0  0  0  0  0  0  0  0  0  0  0  0
    1.4381   -0.9622   -1.0769 C   0  0  0  0  0  0  0  0  0  0  0  0
   -0.5777    1.6107    0.1487 C   0  0  0  0  0  0  0  0  0  0  0  0
   -0.6537    2.6026    1.1472 C   0  0  0  0  0  0  0  0  0  0  0  0
   -0.4564    2.1942    2.4434 O   0  0  0  0  0  0  0  0  0  0  0  0
    0.0586    3.1667    3.3473 C   0  0  0  0  0  0  0  0  0  0  0  0
   -0.9648    3.9310    0.8134 C   0  0  0  0  0  0  0  0  0  0  0  0
   -1.1677    4.3132   -0.5176 C   0  0  0  0  0  0  0  0  0  0  0  0
   -1.4674    5.5911   -0.9205 O   0  0  0  0  0  0  0  0  0  0  0  0
   -1.5590    6.5992    0.0773 C   0  0  0  0  0  0  0  0  0  0  0  0
   -1.0683    3.3472   -1.5307 C   0  0  0  0  0  0  0  0  0  0  0  0
   -1.2510    3.6729   -2.9448 C   0  0  0  0  0  0  0  0  0  0  0  0
   -1.1374    2.7289   -3.8825 C   0  0  0  0  0  0  0  0  0  0  0  0
   -0.8378    1.3314   -3.5484 C   0  0  0  0  0  0  0  0  0  0  0  0
   -0.7403    0.4791   -4.4231 O   0  0  0  0  0  0  0  0  0  0  0  0
   -0.6863    1.0423   -2.2022 O   0  0  0  0  0  0  0  0  0  0  0  0
   -0.7822    2.0209   -1.1826 C   0  0  0  0  0  0  0  0  0  0  0  0
   -2.4082   -6.5840    0.7738 H   0  0  0  0  0  0  0  0  0  0  0  0
   -3.8478   -5.5681    0.7639 H   0  0  0  0  0  0  0  0  0  0  0  0
   -2.7975   -5.6396   -0.6690 H   0  0  0  0  0  0  0  0  0  0  0  0
   -0.9212   -4.7250    0.7398 H   0  0  0  0  0  0  0  0  0  0  0  0
   -2.0431   -4.4573    2.0667 H   0  0  0  0  0  0  0  0  0  0  0  0
   -4.3521   -3.4902    0.1401 H   0  0  0  0  0  0  0  0  0  0  0  0
   -3.8760   -1.8446   -0.0086 H   0  0  0  0  0  0  0  0  0  0  0  0
   -5.1708   -2.1988    2.0426 H   0  0  0  0  0  0  0  0  0  0  0  0
   -3.5424   -1.6819    2.4840 H   0  0  0  0  0  0  0  0  0  0  0  0
   -4.0138   -3.3888    2.6420 H   0  0  0  0  0  0  0  0  0  0  0  0
   -0.2872   -2.5779    0.6166 H   0  0  0  0  0  0  0  0  0  0  0  0
   -1.3329   -2.0255    1.9110 H   0  0  0  0  0  0  0  0  0  0  0  0
   -1.4369   -0.9701   -0.9711 H   0  0  0  0  0  0  0  0  0  0  0  0
   -2.3464   -0.3381    0.3916 H   0  0  0  0  0  0  0  0  0  0  0  0
   -0.2324    0.0793    1.6103 H   0  0  0  0  0  0  0  0  0  0  0  0
    2.0897    0.7670    1.7571 H   0  0  0  0  0  0  0  0  0  0  0  0
    4.3585    0.2182    1.1377 H   0  0  0  0  0  0  0  0  0  0  0  0
    6.3605   -0.3214    0.5147 H   0  0  0  0  0  0  0  0  0  0  0  0
    5.8708   -2.0139    0.8304 H   0  0  0  0  0  0  0  0  0  0  0  0
    7.1480   -1.6335   -0.3309 H   0  0  0  0  0  0  0  0  0  0  0  0
    6.4892   -2.1892   -2.3632 H   0  0  0  0  0  0  0  0  0  0  0  0
    5.0188   -3.0955   -1.9780 H   0  0  0  0  0  0  0  0  0  0  0  0
    4.9746   -1.6759   -3.0701 H   0  0  0  0  0  0  0  0  0  0  0  0
    2.8866   -1.8463   -2.3512 H   0  0  0  0  0  0  0  0  0  0  0  0
    0.6402   -1.2924   -1.7378 H   0  0  0  0  0  0  0  0  0  0  0  0
   -0.7330    3.8476    3.6753 H   0  0  0  0  0  0  0  0  0  0  0  0
    0.8996    3.7188    2.9134 H   0  0  0  0  0  0  0  0  0  0  0  0
    0.4282    2.6368    4.2304 H   0  0  0  0  0  0  0  0  0  0  0  0
   -1.0624    4.6624    1.6058 H   0  0  0  0  0  0  0  0  0  0  0  0
   -2.3753    6.3883    0.7758 H   0  0  0  0  0  0  0  0  0  0  0  0
   -1.7865    7.5455   -0.4232 H   0  0  0  0  0  0  0  0  0  0  0  0
   -0.6067    6.7223    0.6032 H   0  0  0  0  0  0  0  0  0  0  0  0
   -1.4742    4.6984   -3.2202 H   0  0  0  0  0  0  0  0  0  0  0  0
   -1.2626    2.9498   -4.9348 H   0  0  0  0  0  0  0  0  0  0  0  0
  1  2  1  0
  2  3  1  0
  3  4  1  0
  4  5  1  0
  3  6  1  0
  6  7  1  0
  7  8  1  0
  8  9  1  0
  9 10  2  0
 10 11  1  0
 11 12  2  0
 12 13  1  0
 13 14  1  0
 13 15  1  0
 12 16  1  0
 16 17  2  0
  8 18  1  0
 18 19  2  0
 19 20  1  0
 20 21  1  0
 19 22  1  0
 22 23  2  0
 23 24  1  0
 24 25  1  0
 23 26  1  0
 26 27  1  0
 27 28  2  0
 28 29  1  0
 29 30  2  0
 29 31  1  0
 31 32  1  0
 17  9  1  0
 32 18  1  0
 32 26  2  0
  1 33  1  0
  1 34  1  0
  1 35  1  0
  2 36  1  0
  2 37  1  0
  4 38  1  0
  4 39  1  0
  5 40  1  0
  5 41  1  0
  5 42  1  0
  6 43  1  0
  6 44  1  0
  7 45  1  0
  7 46  1  0
  8 47  1  0
 10 48  1  0
 11 49  1  0
 14 50  1  0
 14 51  1  0
 14 52  1  0
 15 53  1  0
 15 54  1  0
 15 55  1  0
 16 56  1  0
 17 57  1  0
 21 58  1  0
 21 59  1  0
 21 60  1  0
 22 61  1  0
 25 62  1  0
 25 63  1  0
 25 64  1  0
 27 65  1  0
 28 66  1  0
M  END
$$$$
