
     RDKit          3D

 47 49  0  0  0  0  0  0  0  0999 V2000
    4.3492    2.9739    1.6985 C   0  0  0  0  0  0  0  0  0  0  0  0
    3.7996    1.9751    0.8480 O   0  0  0  0  0  0  0  0  0  0  0  0
    4.6851    1.0899    0.2736 C   0  0  0  0  0  0  0  0  0  0  0  0
    6.0776    1.1906    0.3520 C   0  0  0  0  0  0  0  0  0  0  0  0
    6.8838    0.2361   -0.2700 C   0  0  0  0  0  0  0  0  0  0  0  0
    6.3042   -0.8222   -0.9652 C   0  0  0  0  0  0  0  0  0  0  0  0
    4.9146   -0.9319   -1.0478 C   0  0  0  0  0  0  0  0  0  0  0  0
    4.0967    0.0241   -0.4416 C   0  0  0  0  0  0  0  0  0  0  0  0
    2.6844   -0.0083   -0.4863 N   0  0  0  0  0  0  0  0  0  0  0  0
    1.8651   -0.8448   -1.2064 C   0  0  0  0  0  0  0  0  0  0  0  0
    2.2610   -1.7042   -1.9904 O   0  0  0  0  0  0  0  0  0  0  0  0
    0.5003   -0.6345   -0.9907 N   0  0  0  0  0  0  0  0  0  0  0  0
   -0.0602    0.1801    0.0859 C   0  0  0  0  0  0  0  0  0  0  0  0
   -1.4811   -0.2326    0.4562 C   0  0  0  0  0  0  0  0  0  0  0  0
   -2.4348   -0.2135   -0.7487 C   0  0  0  0  0  0  0  0  0  0  0  0
   -3.5534   -1.2300   -0.5137 C   0  0  0  0  0  0  0  0  0  0  0  0
   -3.4971   -2.3630   -0.9911 O   0  0  0  0  0  0  0  0  0  0  0  0
   -4.7314   -0.8710    0.3416 C   0  0  0  0  0  0  0  0  0  0  0  0
   -5.6898   -1.8673    0.5894 C   0  0  0  0  0  0  0  0  0  0  0  0
   -6.8132   -1.5969    1.3739 C   0  0  0  0  0  0  0  0  0  0  0  0
   -6.9804   -0.3282    1.9109 C   0  0  0  0  0  0  0  0  0  0  0  0
   -8.0594   -0.0636    2.6585 F   0  0  0  0  0  0  0  0  0  0  0  0
   -6.0447    0.6717    1.6790 C   0  0  0  0  0  0  0  0  0  0  0  0
   -4.9170    0.4029    0.8959 C   0  0  0  0  0  0  0  0  0  0  0  0
   -1.7046   -0.5106   -2.0723 C   0  0  0  0  0  0  0  0  0  0  0  0
   -0.4470   -1.3435   -1.8517 C   0  0  0  0  0  0  0  0  0  0  0  0
    4.9737    3.6774    1.1358 H   0  0  0  0  0  0  0  0  0  0  0  0
    3.5173    3.5422    2.1286 H   0  0  0  0  0  0  0  0  0  0  0  0
    4.9070    2.5253    2.5273 H   0  0  0  0  0  0  0  0  0  0  0  0
    6.5678    2.0002    0.8806 H   0  0  0  0  0  0  0  0  0  0  0  0
    7.9665    0.3177   -0.2132 H   0  0  0  0  0  0  0  0  0  0  0  0
    6.9322   -1.5664   -1.4512 H   0  0  0  0  0  0  0  0  0  0  0  0
    4.4990   -1.7713   -1.5952 H   0  0  0  0  0  0  0  0  0  0  0  0
    2.2626    0.7980   -0.0515 H   0  0  0  0  0  0  0  0  0  0  0  0
   -0.0444    1.2221   -0.2543 H   0  0  0  0  0  0  0  0  0  0  0  0
    0.5769    0.1063    0.9737 H   0  0  0  0  0  0  0  0  0  0  0  0
   -1.8591    0.4295    1.2436 H   0  0  0  0  0  0  0  0  0  0  0  0
   -1.4510   -1.2380    0.8954 H   0  0  0  0  0  0  0  0  0  0  0  0
   -2.8815    0.7792   -0.8708 H   0  0  0  0  0  0  0  0  0  0  0  0
   -5.5665   -2.8645    0.1699 H   0  0  0  0  0  0  0  0  0  0  0  0
   -7.5553   -2.3655    1.5621 H   0  0  0  0  0  0  0  0  0  0  0  0
   -6.2015    1.6556    2.1075 H   0  0  0  0  0  0  0  0  0  0  0  0
   -4.2100    1.2101    0.7376 H   0  0  0  0  0  0  0  0  0  0  0  0
   -1.4125    0.4419   -2.5320 H   0  0  0  0  0  0  0  0  0  0  0  0
   -2.3640   -1.0079   -2.7929 H   0  0  0  0  0  0  0  0  0  0  0  0
    0.0175   -1.5670   -2.8180 H   0  0  0  0  0  0  0  0  0  0  0  0
   -0.6822   -2.3000   -1.3706 H   0  0  0  0  0  0  0  0  0  0  0  0
  1  2  1  0
  2  3  1  0
  3  4  2  0
  4  5  1  0
  5  6  2  0
  6  7  1  0
  7  8  2  0
  8  9  1  0
  9 10  1  0
 10 11  2  0
 10 12  1  0
 12 13  1  0
 13 14  1  0
 14 15  1  0
 15 16  1  0
 16 17  2  0
 16 18  1  0
 18 19  2  0
 19 20  1  0
 20 21  2  0
 21 22  1  0
 21 23  1  0
 23 24  2  0
 15 25  1  0
 25 26  1  0
  8  3  1  0
 26 12  1  0
 24 18  1  0
  1 27  1  0
  1 28  1  0
  1 29  1  0
  4 30  1  0
  5 31  1  0
  6 32  1  0
  7 33  1  0
  9 34  1  0
 13 35  1  0
 13 36  1  0
 14 37  1  0
 14 38  1  0
 15 39  1  0
 19 40  1  0
 20 41  1  0
 23 42  1  0
 24 43  1  0
 25 44  1  0
 25 45  1  0
 26 46  1  0
 26 47  1  0
M  END
$$$$
