
     RDKit          3D

 58 61  0  0  0  0  0  0  0  0999 V2000
    8.4758    0.9922   -1.6260 C   0  0  0  0  0  0  0  0  0  0  0  0
    7.5900    1.7870   -0.8426 O   0  0  0  0  0  0  0  0  0  0  0  0
    6.4157    1.2003   -0.4565 C   0  0  0  0  0  0  0  0  0  0  0  0
    6.0326   -0.1180   -0.7099 C   0  0  0  0  0  0  0  0  0  0  0  0
    4.7877   -0.5884   -0.2698 C   0  0  0  0  0  0  0  0  0  0  0  0
    3.9016    0.2487    0.4288 C   0  0  0  0  0  0  0  0  0  0  0  0
    2.5926   -0.2522    0.8478 C   0  0  0  0  0  0  0  0  0  0  0  0
    1.4927   -0.1914    0.0129 C   0  0  0  0  0  0  0  0  0  0  0  0
    0.2838   -0.6833    0.4965 C   0  0  0  0  0  0  0  0  0  0  0  0
   -0.8806   -0.5512   -0.4021 C   0  0  0  0  0  0  0  0  0  0  0  0
   -0.8815   -1.1052   -1.4931 O   0  0  0  0  0  0  0  0  0  0  0  0
   -1.8919    0.2539    0.0704 N   0  0  0  0  0  0  0  0  0  0  0  0
   -3.1104    0.4726   -0.6884 C   0  0  0  0  0  0  0  0  0  0  0  0
   -4.1150   -0.6831   -0.5049 C   0  0  0  0  0  0  0  0  0  0  0  0
   -5.4215   -0.5765   -1.1696 N   0  0  0  0  0  0  0  0  0  0  0  0
   -6.2128    0.5866   -0.7365 C   0  0  0  0  0  0  0  0  0  0  0  0
   -7.5874    0.5977   -1.4273 C   0  0  0  0  0  0  0  0  0  0  0  0
   -7.4483    0.6130   -2.8535 O   0  0  0  0  0  0  0  0  0  0  0  0
   -6.7100   -0.5376   -3.2878 C   0  0  0  0  0  0  0  0  0  0  0  0
   -5.3160   -0.5796   -2.6414 C   0  0  0  0  0  0  0  0  0  0  0  0
    0.1860   -1.2639    1.7823 C   0  0  0  0  0  0  0  0  0  0  0  0
   -0.9902   -1.8408    2.3290 C   0  0  0  0  0  0  0  0  0  0  0  0
   -0.9983   -2.3737    3.6184 C   0  0  0  0  0  0  0  0  0  0  0  0
    0.1656   -2.3503    4.3747 C   0  0  0  0  0  0  0  0  0  0  0  0
    1.3320   -1.8058    3.8307 C   0  0  0  0  0  0  0  0  0  0  0  0
    1.3681   -1.2693    2.5483 C   0  0  0  0  0  0  0  0  0  0  0  0
    2.5341   -0.7778    2.0965 N   0  0  0  0  0  0  0  0  0  0  0  0
    4.3153    1.5637    0.7008 C   0  0  0  0  0  0  0  0  0  0  0  0
    3.4708    2.4357    1.3525 O   0  0  0  0  0  0  0  0  0  0  0  0
    3.8453    2.5341    2.7318 C   0  0  0  0  0  0  0  0  0  0  0  0
    5.5519    2.0381    0.2527 C   0  0  0  0  0  0  0  0  0  0  0  0
    8.8432    0.1320   -1.0527 H   0  0  0  0  0  0  0  0  0  0  0  0
    8.0017    0.6753   -2.5665 H   0  0  0  0  0  0  0  0  0  0  0  0
    9.3394    1.6131   -1.8831 H   0  0  0  0  0  0  0  0  0  0  0  0
    6.6723   -0.8082   -1.2507 H   0  0  0  0  0  0  0  0  0  0  0  0
    4.5059   -1.6206   -0.4794 H   0  0  0  0  0  0  0  0  0  0  0  0
    1.5652    0.2394   -0.9815 H   0  0  0  0  0  0  0  0  0  0  0  0
   -1.7939    0.6999    0.9740 H   0  0  0  0  0  0  0  0  0  0  0  0
   -3.5290    1.4173   -0.3301 H   0  0  0  0  0  0  0  0  0  0  0  0
   -2.8419    0.5909   -1.7429 H   0  0  0  0  0  0  0  0  0  0  0  0
   -4.2929   -0.8193    0.5714 H   0  0  0  0  0  0  0  0  0  0  0  0
   -3.6416   -1.6218   -0.8236 H   0  0  0  0  0  0  0  0  0  0  0  0
   -6.3613    0.5579    0.3478 H   0  0  0  0  0  0  0  0  0  0  0  0
   -5.6932    1.5195   -0.9862 H   0  0  0  0  0  0  0  0  0  0  0  0
   -8.1905   -0.2698   -1.1325 H   0  0  0  0  0  0  0  0  0  0  0  0
   -8.1372    1.4990   -1.1395 H   0  0  0  0  0  0  0  0  0  0  0  0
   -6.6115   -0.4755   -4.3754 H   0  0  0  0  0  0  0  0  0  0  0  0
   -7.2840   -1.4428   -3.0562 H   0  0  0  0  0  0  0  0  0  0  0  0
   -4.7477    0.2933   -2.9852 H   0  0  0  0  0  0  0  0  0  0  0  0
   -4.7956   -1.4822   -2.9814 H   0  0  0  0  0  0  0  0  0  0  0  0
   -1.9082   -1.8924    1.7460 H   0  0  0  0  0  0  0  0  0  0  0  0
   -1.9067   -2.8110    4.0268 H   0  0  0  0  0  0  0  0  0  0  0  0
    0.1756   -2.7601    5.3831 H   0  0  0  0  0  0  0  0  0  0  0  0
    2.2436   -1.8019    4.4252 H   0  0  0  0  0  0  0  0  0  0  0  0
    3.9061    1.5467    3.2066 H   0  0  0  0  0  0  0  0  0  0  0  0
    4.8001    3.0587    2.8439 H   0  0  0  0  0  0  0  0  0  0  0  0
    3.0720    3.1140    3.2495 H   0  0  0  0  0  0  0  0  0  0  0  0
    5.8321    3.0729    0.4379 H   0  0  0  0  0  0  0  0  0  0  0  0
  1  2  1  0
  2  3  1  0
  3  4  2  0
  4  5  1  0
  5  6  2  0
  6  7  1  0
  7  8  2  0
  8  9  1  0
  9 10  1  0
 10 11  2  0
 10 12  1  0
 12 13  1  0
 13 14  1  0
 14 15  1  0
 15 16  1  0
 16 17  1  0
 17 18  1  0
 18 19  1  0
 19 20  1  0
  9 21  2  0
 21 22  1  0
 22 23  2  0
 23 24  1  0
 24 25  2  0
 25 26  1  0
 26 27  2  0
  6 28  1  0
 28 29  1  0
 29 30  1  0
 28 31  2  0
 31  3  1  0
 27  7  1  0
 20 15  1  0
 26 21  1  0
  1 32  1  0
  1 33  1  0
  1 34  1  0
  4 35  1  0
  5 36  1  0
  8 37  1  0
 12 38  1  0
 13 39  1  0
 13 40  1  0
 14 41  1  0
 14 42  1  0
 16 43  1  0
 16 44  1  0
 17 45  1  0
 17 46  1  0
 19 47  1  0
 19 48  1  0
 20 49  1  0
 20 50  1  0
 22 51  1  0
 23 52  1  0
 24 53  1  0
 25 54  1  0
 30 55  1  0
 30 56  1  0
 30 57  1  0
 31 58  1  0
M  END
$$$$
