
     RDKit          3D

 37 38  0  0  0  0  0  0  0  0999 V2000
   -5.7613   -0.3440   -0.4501 C   0  0  0  0  0  0  0  0  0  0  0  0
   -4.3930   -0.1767   -0.9325 N   0  0  0  0  0  0  0  0  0  0  0  0
   -4.0311    1.2481   -1.0858 C   0  0  0  0  0  0  0  0  0  0  0  0
   -2.9511    1.7674   -0.1170 C   0  0  0  0  0  0  0  0  0  0  0  0
   -1.7512    0.9293   -0.1273 N   0  0  0  0  0  0  0  0  0  0  0  0
   -0.5365    1.5115    0.1822 C   0  0  0  0  0  0  0  0  0  0  0  0
   -0.4287    2.6757    0.5597 O   0  0  0  0  0  0  0  0  0  0  0  0
    0.6711    0.6579    0.0205 C   0  0  0  0  0  0  0  0  0  0  0  0
    1.8156    1.0039    0.6292 C   0  0  0  0  0  0  0  0  0  0  0  0
    3.0499    0.2226    0.5107 C   0  0  0  0  0  0  0  0  0  0  0  0
    3.5500   -0.1768   -0.7371 C   0  0  0  0  0  0  0  0  0  0  0  0
    4.7397   -0.9062   -0.8257 C   0  0  0  0  0  0  0  0  0  0  0  0
    5.4363   -1.2339    0.3448 C   0  0  0  0  0  0  0  0  0  0  0  0
    6.6805   -2.0081    0.2588 N   0  0  0  0  0  4  0  0  0  0  0  0
    7.2016   -2.3817    1.3198 O   0  0  0  0  0  0  0  0  0  0  0  0
    7.1332   -2.2477   -0.8696 O   0  0  0  0  0  1  0  0  0  0  0  0
    4.9551   -0.8295    1.5963 C   0  0  0  0  0  0  0  0  0  0  0  0
    3.7669   -0.0966    1.6724 C   0  0  0  0  0  0  0  0  0  0  0  0
   -1.9771   -0.5071   -0.3293 C   0  0  0  0  0  0  0  0  0  0  0  0
   -3.4417   -0.9118   -0.0801 C   0  0  0  0  0  0  0  0  0  0  0  0
   -6.0218   -1.4073   -0.3885 H   0  0  0  0  0  0  0  0  0  0  0  0
   -5.9067    0.1057    0.5389 H   0  0  0  0  0  0  0  0  0  0  0  0
   -6.4728    0.1135   -1.1470 H   0  0  0  0  0  0  0  0  0  0  0  0
   -4.9116    1.8999   -1.0248 H   0  0  0  0  0  0  0  0  0  0  0  0
   -3.6461    1.3610   -2.1076 H   0  0  0  0  0  0  0  0  0  0  0  0
   -3.3337    1.7780    0.9110 H   0  0  0  0  0  0  0  0  0  0  0  0
   -2.6879    2.7980   -0.3807 H   0  0  0  0  0  0  0  0  0  0  0  0
    0.6045   -0.2170   -0.6107 H   0  0  0  0  0  0  0  0  0  0  0  0
    1.8615    1.8848    1.2661 H   0  0  0  0  0  0  0  0  0  0  0  0
    3.0244    0.0881   -1.6530 H   0  0  0  0  0  0  0  0  0  0  0  0
    5.1070   -1.2039   -1.8058 H   0  0  0  0  0  0  0  0  0  0  0  0
    5.4884   -1.0709    2.5139 H   0  0  0  0  0  0  0  0  0  0  0  0
    3.3993    0.2167    2.6484 H   0  0  0  0  0  0  0  0  0  0  0  0
   -1.6882   -0.7428   -1.3607 H   0  0  0  0  0  0  0  0  0  0  0  0
   -1.3266   -1.0751    0.3450 H   0  0  0  0  0  0  0  0  0  0  0  0
   -3.6690   -0.7388    0.9810 H   0  0  0  0  0  0  0  0  0  0  0  0
   -3.5490   -1.9867   -0.2654 H   0  0  0  0  0  0  0  0  0  0  0  0
  1  2  1  0
  2  3  1  0
  3  4  1  0
  4  5  1  0
  5  6  1  0
  6  7  2  0
  6  8  1  0
  8  9  2  3
  9 10  1  0
 10 11  2  0
 11 12  1  0
 12 13  2  0
 13 14  1  0
 14 15  2  0
 14 16  1  0
 13 17  1  0
 17 18  2  0
  5 19  1  0
 19 20  1  0
 20  2  1  0
 18 10  1  0
  1 21  1  0
  1 22  1  0
  1 23  1  0
  3 24  1  0
  3 25  1  0
  4 26  1  0
  4 27  1  0
  8 28  1  0
  9 29  1  0
 11 30  1  0
 12 31  1  0
 17 32  1  0
 18 33  1  0
 19 34  1  0
 19 35  1  0
 20 36  1  0
 20 37  1  0
M  CHG  2  14   1  16  -1
M  END
$$$$
