
     RDKit          3D

 49 52  0  0  0  0  0  0  0  0999 V2000
    1.8543    0.0127   -0.3075 O   0  0  0  0  0  0  0  0  0  0  0  0
    2.6088   -0.9131   -0.5933 C   0  0  0  0  0  0  0  0  0  0  0  0
    2.1188   -2.2645   -1.1187 C   0  0  0  0  0  0  0  0  0  0  0  0
    0.4220   -2.1836   -1.7617 S   0  0  0  0  0  0  0  0  0  0  0  0
   -0.4311   -2.0613   -0.2643 C   0  0  0  0  0  0  0  0  0  0  0  0
   -0.4480   -2.9848    0.6658 N   0  0  0  0  0  0  0  0  0  0  0  0
   -1.2081   -2.5058    1.7037 N   0  0  0  0  0  0  0  0  0  0  0  0
   -1.6020   -1.2791    1.4088 C   0  0  0  0  0  0  0  0  0  0  0  0
   -2.4082   -0.4305    2.2793 C   0  0  0  0  0  0  0  0  0  0  0  0
   -3.6311   -0.9033    2.7586 C   0  0  0  0  0  0  0  0  0  0  0  0
   -4.3825   -0.0781    3.5783 C   0  0  0  0  0  0  0  0  0  0  0  0
   -3.9956    1.1599    3.9509 N   0  0  0  0  0  0  0  0  0  0  0  0
   -2.7952    1.5837    3.5022 C   0  0  0  0  0  0  0  0  0  0  0  0
   -1.9728    0.8339    2.6773 C   0  0  0  0  0  0  0  0  0  0  0  0
   -1.1662   -0.9765    0.1318 N   0  0  0  0  0  0  0  0  0  0  0  0
   -1.4370    0.2314   -0.6154 C   0  0  0  0  0  0  0  0  0  0  0  0
   -2.8698    0.3293   -1.1346 C   0  0  0  0  0  0  0  0  0  0  0  0
   -3.2470   -0.7201   -2.1705 C   0  0  0  0  0  0  0  0  0  0  0  0
   -4.3643   -0.0264   -2.9097 C   0  0  0  0  0  0  0  0  0  0  0  0
   -3.8713    1.4042   -2.9521 C   0  0  0  0  0  0  0  0  0  0  0  0
   -3.0597    1.6035   -1.7837 O   0  0  0  0  0  0  0  0  0  0  0  0
    3.9926   -0.8866   -0.4782 N   0  0  0  0  0  0  0  0  0  0  0  0
    4.8167    0.1800   -0.0421 C   0  0  0  0  0  0  0  0  0  0  0  0
    4.3205    1.4230    0.3589 C   0  0  0  0  0  0  0  0  0  0  0  0
    5.1924    2.4370    0.7743 C   0  0  0  0  0  0  0  0  0  0  0  0
    6.5694    2.2216    0.7996 C   0  0  0  0  0  0  0  0  0  0  0  0
    7.0822    0.9871    0.4084 C   0  0  0  0  0  0  0  0  0  0  0  0
    6.2117   -0.0237   -0.0108 C   0  0  0  0  0  0  0  0  0  0  0  0
    6.8997   -1.5394   -0.4931 Cl  0  0  0  0  0  0  0  0  0  0  0  0
    2.7644   -2.5759   -1.9477 H   0  0  0  0  0  0  0  0  0  0  0  0
    2.1995   -3.0109   -0.3219 H   0  0  0  0  0  0  0  0  0  0  0  0
   -3.9905   -1.8947    2.5018 H   0  0  0  0  0  0  0  0  0  0  0  0
   -5.3426   -0.4006    3.9694 H   0  0  0  0  0  0  0  0  0  0  0  0
   -2.4979    2.5733    3.8398 H   0  0  0  0  0  0  0  0  0  0  0  0
   -1.0079    1.2269    2.3750 H   0  0  0  0  0  0  0  0  0  0  0  0
   -1.2044    1.0877    0.0269 H   0  0  0  0  0  0  0  0  0  0  0  0
   -0.7315    0.3202   -1.4481 H   0  0  0  0  0  0  0  0  0  0  0  0
   -3.5845    0.2963   -0.3028 H   0  0  0  0  0  0  0  0  0  0  0  0
   -3.5519   -1.6702   -1.7243 H   0  0  0  0  0  0  0  0  0  0  0  0
   -2.4178   -0.9113   -2.8614 H   0  0  0  0  0  0  0  0  0  0  0  0
   -4.5595   -0.4413   -3.9030 H   0  0  0  0  0  0  0  0  0  0  0  0
   -5.2907   -0.0866   -2.3250 H   0  0  0  0  0  0  0  0  0  0  0  0
   -3.2383    1.5790   -3.8292 H   0  0  0  0  0  0  0  0  0  0  0  0
   -4.6890    2.1300   -2.9606 H   0  0  0  0  0  0  0  0  0  0  0  0
    4.5035   -1.7294   -0.7271 H   0  0  0  0  0  0  0  0  0  0  0  0
    3.2573    1.6442    0.3582 H   0  0  0  0  0  0  0  0  0  0  0  0
    4.7873    3.4005    1.0773 H   0  0  0  0  0  0  0  0  0  0  0  0
    7.2398    3.0135    1.1231 H   0  0  0  0  0  0  0  0  0  0  0  0
    8.1557    0.8188    0.4326 H   0  0  0  0  0  0  0  0  0  0  0  0
  1  2  2  0
  2  3  1  0
  3  4  1  0
  4  5  1  0
  5  6  2  0
  6  7  1  0
  7  8  2  0
  8  9  1  0
  9 10  2  0
 10 11  1  0
 11 12  2  0
 12 13  1  0
 13 14  2  0
  8 15  1  0
 15 16  1  0
 16 17  1  0
 17 18  1  0
 18 19  1  0
 19 20  1  0
 20 21  1  0
  2 22  1  0
 22 23  1  0
 23 24  2  0
 24 25  1  0
 25 26  2  0
 26 27  1  0
 27 28  2  0
 28 29  1  0
 15  5  1  0
 21 17  1  0
 28 23  1  0
 14  9  1  0
  3 30  1  0
  3 31  1  0
 10 32  1  0
 11 33  1  0
 13 34  1  0
 14 35  1  0
 16 36  1  0
 16 37  1  0
 17 38  1  0
 18 39  1  0
 18 40  1  0
 19 41  1  0
 19 42  1  0
 20 43  1  0
 20 44  1  0
 22 45  1  0
 24 46  1  0
 25 47  1  0
 26 48  1  0
 27 49  1  0
M  END
$$$$
