
     RDKit          3D

 45 47  0  0  0  0  0  0  0  0999 V2000
    2.3338   -1.5739    1.3711 O   0  0  0  0  0  0  0  0  0  0  0  0
    1.9490   -0.4177    1.5727 C   0  0  0  0  0  0  0  0  0  0  0  0
    2.8193    0.5261    2.3897 C   0  0  0  0  0  0  0  0  0  0  0  0
    3.6011    1.8106    1.3512 S   0  0  0  0  0  0  0  0  0  0  0  0
    4.4832    0.8321    0.1470 C   0  0  0  0  0  0  0  0  0  0  0  0
    5.3001   -0.2459    0.5023 C   0  0  0  0  0  0  0  0  0  0  0  0
    5.9832   -0.9711   -0.4791 C   0  0  0  0  0  0  0  0  0  0  0  0
    5.8603   -0.6096   -1.8185 C   0  0  0  0  0  0  0  0  0  0  0  0
    6.7840   -1.5886   -3.1451 Br  0  0  0  0  0  0  0  0  0  0  0  0
    5.0648    0.4728   -2.1853 C   0  0  0  0  0  0  0  0  0  0  0  0
    4.3819    1.1939   -1.2018 C   0  0  0  0  0  0  0  0  0  0  0  0
    0.7372    0.0456    1.0663 N   0  0  0  0  0  0  0  0  0  0  0  0
   -0.1247   -0.9339    0.3942 C   0  0  0  0  0  0  0  0  0  0  0  0
   -1.0742   -0.3014   -0.6334 C   0  0  0  0  0  0  0  0  0  0  0  0
   -1.8058    0.8877   -0.0959 N   0  0  0  0  0  0  0  0  0  0  0  0
   -3.1869    0.5893    0.8554 S   0  0  0  0  0  6  0  0  0  0  0  0
   -2.8254   -0.3781    1.8688 O   0  0  0  0  0  0  0  0  0  0  0  0
   -3.7623    1.8661    1.2196 O   0  0  0  0  0  0  0  0  0  0  0  0
   -4.2962   -0.1816   -0.2941 C   0  0  0  0  0  0  0  0  0  0  0  0
   -4.7748    0.5639   -1.3758 C   0  0  0  0  0  0  0  0  0  0  0  0
   -5.6469   -0.0319   -2.2857 C   0  0  0  0  0  0  0  0  0  0  0  0
   -6.0399   -1.3601   -2.1086 C   0  0  0  0  0  0  0  0  0  0  0  0
   -5.5653   -2.0969   -1.0214 C   0  0  0  0  0  0  0  0  0  0  0  0
   -4.6918   -1.5088   -0.1066 C   0  0  0  0  0  0  0  0  0  0  0  0
   -0.8472    1.8771    0.4823 C   0  0  0  0  0  0  0  0  0  0  0  0
    0.0473    1.2471    1.5576 C   0  0  0  0  0  0  0  0  0  0  0  0
    2.2245    0.9970    3.1777 H   0  0  0  0  0  0  0  0  0  0  0  0
    3.5919   -0.0562    2.9023 H   0  0  0  0  0  0  0  0  0  0  0  0
    5.4200   -0.5398    1.5410 H   0  0  0  0  0  0  0  0  0  0  0  0
    6.6050   -1.8128   -0.1859 H   0  0  0  0  0  0  0  0  0  0  0  0
    4.9705    0.7648   -3.2273 H   0  0  0  0  0  0  0  0  0  0  0  0
    3.7680    2.0405   -1.5005 H   0  0  0  0  0  0  0  0  0  0  0  0
    0.4889   -1.6851   -0.1159 H   0  0  0  0  0  0  0  0  0  0  0  0
   -0.6814   -1.4614    1.1754 H   0  0  0  0  0  0  0  0  0  0  0  0
   -1.7725   -1.0502   -1.0181 H   0  0  0  0  0  0  0  0  0  0  0  0
   -0.4930    0.0429   -1.4987 H   0  0  0  0  0  0  0  0  0  0  0  0
   -4.4735    1.6006   -1.5085 H   0  0  0  0  0  0  0  0  0  0  0  0
   -6.0266    0.5390   -3.1296 H   0  0  0  0  0  0  0  0  0  0  0  0
   -6.7243   -1.8210   -2.8174 H   0  0  0  0  0  0  0  0  0  0  0  0
   -5.8823   -3.1283   -0.8852 H   0  0  0  0  0  0  0  0  0  0  0  0
   -4.3324   -2.0856    0.7424 H   0  0  0  0  0  0  0  0  0  0  0  0
   -0.2257    2.2555   -0.3394 H   0  0  0  0  0  0  0  0  0  0  0  0
   -1.3806    2.7443    0.8842 H   0  0  0  0  0  0  0  0  0  0  0  0
   -0.5403    0.9444    2.4313 H   0  0  0  0  0  0  0  0  0  0  0  0
    0.7600    1.9985    1.9000 H   0  0  0  0  0  0  0  0  0  0  0  0
  1  2  2  0
  2  3  1  0
  3  4  1  0
  4  5  1  0
  5  6  2  0
  6  7  1  0
  7  8  2  0
  8  9  1  0
  8 10  1  0
 10 11  2  0
  2 12  1  0
 12 13  1  0
 13 14  1  0
 14 15  1  0
 15 16  1  0
 16 17  2  0
 16 18  2  0
 16 19  1  0
 19 20  2  0
 20 21  1  0
 21 22  2  0
 22 23  1  0
 23 24  2  0
 15 25  1  0
 25 26  1  0
 11  5  1  0
 26 12  1  0
 24 19  1  0
  3 27  1  0
  3 28  1  0
  6 29  1  0
  7 30  1  0
 10 31  1  0
 11 32  1  0
 13 33  1  0
 13 34  1  0
 14 35  1  0
 14 36  1  0
 20 37  1  0
 21 38  1  0
 22 39  1  0
 23 40  1  0
 24 41  1  0
 25 42  1  0
 25 43  1  0
 26 44  1  0
 26 45  1  0
M  END
$$$$
