
     RDKit          3D

 41 43  0  0  0  0  0  0  0  0999 V2000
   -2.4272   -0.7208   -0.9977 O   0  0  0  0  0  0  0  0  0  0  0  0
   -2.8711   -0.1286   -0.0150 C   0  0  0  0  0  0  0  0  0  0  0  0
   -4.3134   -0.2519    0.4378 C   0  0  0  0  0  0  0  0  0  0  0  0
   -5.2318    0.6810   -0.3084 C   0  0  0  0  0  0  0  0  0  0  0  0
   -5.8207    0.2742   -1.5142 C   0  0  0  0  0  0  0  0  0  0  0  0
   -6.6621    1.1378   -2.2170 C   0  0  0  0  0  0  0  0  0  0  0  0
   -6.9163    2.4179   -1.7260 C   0  0  0  0  0  0  0  0  0  0  0  0
   -6.3258    2.8375   -0.5346 C   0  0  0  0  0  0  0  0  0  0  0  0
   -5.4868    1.9745    0.1726 C   0  0  0  0  0  0  0  0  0  0  0  0
   -2.1060    0.7203    0.7746 N   0  0  0  0  0  0  0  0  0  0  0  0
   -0.7119    0.6419    0.5879 N   0  0  0  0  0  0  0  0  0  0  0  0
   -0.0104   -0.3413    1.2643 C   0  0  0  0  0  0  0  0  0  0  0  0
   -0.4679   -1.1026    2.1071 O   0  0  0  0  0  0  0  0  0  0  0  0
    1.4147   -0.3005    0.8379 C   0  0  0  0  0  0  0  0  0  0  0  0
    2.3136   -1.1643    1.3276 C   0  0  0  0  0  0  0  0  0  0  0  0
    3.7419   -1.2192    0.9984 C   0  0  0  0  0  0  0  0  0  0  0  0
    4.1843   -1.4696   -0.3055 C   0  0  0  0  0  0  0  0  0  0  0  0
    5.5523   -1.5395   -0.5867 C   0  0  0  0  0  0  0  0  0  0  0  0
    6.4914   -1.3723    0.4371 C   0  0  0  0  0  0  0  0  0  0  0  0
    7.9314   -1.4507    0.0912 C   0  0  0  0  0  0  0  0  0  0  0  0
    8.3900   -1.6107   -1.0260 O   0  0  0  0  0  0  0  0  0  0  0  0
    8.7331   -1.3218    1.1638 O   0  0  0  0  0  0  0  0  0  0  0  0
    6.0521   -1.1372    1.7443 C   0  0  0  0  0  0  0  0  0  0  0  0
    4.6832   -1.0655    2.0223 C   0  0  0  0  0  0  0  0  0  0  0  0
    1.6679    0.9845   -0.2867 S   0  0  0  0  0  0  0  0  0  0  0  0
   -0.0288    1.4673   -0.2806 C   0  0  0  0  0  0  0  0  0  0  0  0
   -0.6230    2.7487   -1.1666 S   0  0  0  0  0  0  0  0  0  0  0  0
   -4.3891   -0.0714    1.5184 H   0  0  0  0  0  0  0  0  0  0  0  0
   -4.6269   -1.2936    0.2948 H   0  0  0  0  0  0  0  0  0  0  0  0
   -5.6217   -0.7176   -1.9176 H   0  0  0  0  0  0  0  0  0  0  0  0
   -7.1151    0.8118   -3.1503 H   0  0  0  0  0  0  0  0  0  0  0  0
   -7.5686    3.0915   -2.2764 H   0  0  0  0  0  0  0  0  0  0  0  0
   -6.5176    3.8392   -0.1586 H   0  0  0  0  0  0  0  0  0  0  0  0
   -5.0346    2.3243    1.1002 H   0  0  0  0  0  0  0  0  0  0  0  0
   -2.3913    0.8633    1.7385 H   0  0  0  0  0  0  0  0  0  0  0  0
    1.9954   -1.9076    2.0577 H   0  0  0  0  0  0  0  0  0  0  0  0
    3.4729   -1.6164   -1.1156 H   0  0  0  0  0  0  0  0  0  0  0  0
    5.8805   -1.7290   -1.6067 H   0  0  0  0  0  0  0  0  0  0  0  0
    9.6360   -1.3914    0.7878 H   0  0  0  0  0  0  0  0  0  0  0  0
    6.7660   -1.0085    2.5552 H   0  0  0  0  0  0  0  0  0  0  0  0
    4.3616   -0.8838    3.0449 H   0  0  0  0  0  0  0  0  0  0  0  0
  1  2  2  0
  2  3  1  0
  3  4  1  0
  4  5  2  0
  5  6  1  0
  6  7  2  0
  7  8  1  0
  8  9  2  0
  2 10  1  0
 10 11  1  0
 11 12  1  0
 12 13  2  0
 12 14  1  0
 14 15  2  3
 15 16  1  0
 16 17  2  0
 17 18  1  0
 18 19  2  0
 19 20  1  0
 20 21  2  0
 20 22  1  0
 19 23  1  0
 23 24  2  0
 14 25  1  0
 25 26  1  0
 26 27  2  0
  9  4  1  0
 26 11  1  0
 24 16  1  0
  3 28  1  0
  3 29  1  0
  5 30  1  0
  6 31  1  0
  7 32  1  0
  8 33  1  0
  9 34  1  0
 10 35  1  0
 15 36  1  0
 17 37  1  0
 18 38  1  0
 22 39  1  0
 23 40  1  0
 24 41  1  0
M  END
$$$$
