
     RDKit          3D

 46 50  0  0  0  0  0  0  0  0999 V2000
    6.3573    2.4916   -0.5190 C   0  0  0  0  0  0  0  0  0  0  0  0
    5.3286    2.7540    0.4274 O   0  0  0  0  0  0  0  0  0  0  0  0
    4.1677    2.0452    0.2896 C   0  0  0  0  0  0  0  0  0  0  0  0
    3.1967    2.3220    1.2545 C   0  0  0  0  0  0  0  0  0  0  0  0
    1.9613    1.6682    1.2334 C   0  0  0  0  0  0  0  0  0  0  0  0
    1.6808    0.7228    0.2417 C   0  0  0  0  0  0  0  0  0  0  0  0
    0.3915    0.0435    0.2067 C   0  0  0  0  0  0  0  0  0  0  0  0
   -0.7993    0.7364    0.2043 N   0  0  0  0  0  0  0  0  0  0  0  0
   -1.8446   -0.1470    0.0802 C   0  0  0  0  0  0  0  0  0  0  0  0
   -3.2620    0.2324    0.0271 C   0  0  0  0  0  0  0  0  0  0  0  0
   -4.2397   -0.7917   -0.0243 C   0  0  0  0  0  0  0  0  0  0  0  0
   -5.6078   -0.4999   -0.0756 C   0  0  0  0  0  0  0  0  0  0  0  0
   -5.9752    0.8252   -0.0754 C   0  0  0  0  0  0  0  0  0  0  0  0
   -5.0400    1.8306   -0.0272 C   0  0  0  0  0  0  0  0  0  0  0  0
   -3.6839    1.5719    0.0241 C   0  0  0  0  0  0  0  0  0  0  0  0
   -5.6076    3.0674   -0.0369 O   0  0  0  0  0  0  0  0  0  0  0  0
   -7.0081    2.7223   -0.0976 C   0  0  0  0  0  0  0  0  0  0  0  0
   -7.2476    1.3003   -0.1213 O   0  0  0  0  0  0  0  0  0  0  0  0
   -1.3724   -1.3773    0.0158 N   0  0  0  0  0  0  0  0  0  0  0  0
    0.0001   -1.2824    0.1094 C   0  0  0  0  0  0  0  0  0  0  0  0
    0.8509   -2.4616    0.0791 C   0  0  0  0  0  0  0  0  0  0  0  0
    2.0015   -2.5680    0.8716 C   0  0  0  0  0  0  0  0  0  0  0  0
    2.7955   -3.7172    0.8197 C   0  0  0  0  0  0  0  0  0  0  0  0
    2.4412   -4.7745   -0.0164 C   0  0  0  0  0  0  0  0  0  0  0  0
    1.2898   -4.6879   -0.7963 C   0  0  0  0  0  0  0  0  0  0  0  0
    0.4969   -3.5390   -0.7448 C   0  0  0  0  0  0  0  0  0  0  0  0
    2.6551    0.4488   -0.7248 C   0  0  0  0  0  0  0  0  0  0  0  0
    3.8921    1.1046   -0.7018 C   0  0  0  0  0  0  0  0  0  0  0  0
    7.2127    3.1258   -0.2672 H   0  0  0  0  0  0  0  0  0  0  0  0
    6.0364    2.7526   -1.5329 H   0  0  0  0  0  0  0  0  0  0  0  0
    6.6882    1.4492   -0.4641 H   0  0  0  0  0  0  0  0  0  0  0  0
    3.4072    3.0501    2.0344 H   0  0  0  0  0  0  0  0  0  0  0  0
    1.2347    1.8927    2.0102 H   0  0  0  0  0  0  0  0  0  0  0  0
   -0.8807    1.7402    0.2458 H   0  0  0  0  0  0  0  0  0  0  0  0
   -3.9229   -1.8349   -0.0227 H   0  0  0  0  0  0  0  0  0  0  0  0
   -6.3487   -1.2901   -0.1140 H   0  0  0  0  0  0  0  0  0  0  0  0
   -2.9934    2.4050    0.0563 H   0  0  0  0  0  0  0  0  0  0  0  0
   -7.5119    3.1485    0.7777 H   0  0  0  0  0  0  0  0  0  0  0  0
   -7.4392    3.1660   -1.0024 H   0  0  0  0  0  0  0  0  0  0  0  0
    2.2861   -1.7655    1.5472 H   0  0  0  0  0  0  0  0  0  0  0  0
    3.6860   -3.7875    1.4387 H   0  0  0  0  0  0  0  0  0  0  0  0
    3.0567   -5.6693   -0.0530 H   0  0  0  0  0  0  0  0  0  0  0  0
    1.0034   -5.5143   -1.4411 H   0  0  0  0  0  0  0  0  0  0  0  0
   -0.4054   -3.4835   -1.3510 H   0  0  0  0  0  0  0  0  0  0  0  0
    2.4592   -0.2800   -1.5094 H   0  0  0  0  0  0  0  0  0  0  0  0
    4.6131    0.8547   -1.4728 H   0  0  0  0  0  0  0  0  0  0  0  0
  1  2  1  0
  2  3  1  0
  3  4  2  0
  4  5  1  0
  5  6  2  0
  6  7  1  0
  7  8  1  0
  8  9  1  0
  9 10  1  0
 10 11  2  0
 11 12  1  0
 12 13  2  0
 13 14  1  0
 14 15  2  0
 14 16  1  0
 16 17  1  0
 17 18  1  0
  9 19  2  0
 19 20  1  0
 20 21  1  0
 21 22  2  0
 22 23  1  0
 23 24  2  0
 24 25  1  0
 25 26  2  0
  6 27  1  0
 27 28  2  0
 28  3  1  0
 20  7  2  0
 26 21  1  0
 15 10  1  0
 18 13  1  0
  1 29  1  0
  1 30  1  0
  1 31  1  0
  4 32  1  0
  5 33  1  0
  8 34  1  0
 11 35  1  0
 12 36  1  0
 15 37  1  0
 17 38  1  0
 17 39  1  0
 22 40  1  0
 23 41  1  0
 24 42  1  0
 25 43  1  0
 26 44  1  0
 27 45  1  0
 28 46  1  0
M  END
$$$$
