
     RDKit          3D

 37 40  0  0  0  0  0  0  0  0999 V2000
    8.2401    0.3586    0.2308 C   0  0  0  0  0  0  0  0  0  0  0  0
    6.7834    0.1680   -0.0820 C   0  0  0  0  0  0  0  0  0  0  0  0
    6.3722   -0.0620   -1.3974 C   0  0  0  0  0  0  0  0  0  0  0  0
    5.0160   -0.2115   -1.7112 C   0  0  0  0  0  0  0  0  0  0  0  0
    4.0471   -0.1190   -0.6933 C   0  0  0  0  0  0  0  0  0  0  0  0
    2.6769   -0.2461   -0.8576 N   0  0  0  0  0  0  0  0  0  0  0  0
    2.0797   -0.0936    0.2994 C   0  0  0  0  0  0  0  0  0  0  0  0
    0.7150   -0.1813    0.3925 N   0  0  0  0  0  0  0  0  0  0  0  0
   -0.0635    0.0055    1.5158 C   0  0  0  0  0  0  0  0  0  0  0  0
    0.3266    0.2837    2.6457 O   0  0  0  0  0  0  0  0  0  0  0  0
   -1.5426   -0.2026    1.2395 C   0  0  0  0  0  0  0  0  0  0  0  0
   -2.1793    1.1762    0.2473 S   0  0  0  0  0  0  0  0  0  0  0  0
   -3.8371    0.6787    0.0760 C   0  0  0  0  0  0  0  0  0  0  0  0
   -4.2896   -0.5017    0.4564 N   0  0  0  0  0  0  0  0  0  0  0  0
   -5.6216   -0.4619    0.1310 C   0  0  0  0  0  0  0  0  0  0  0  0
   -6.6396   -1.4107    0.2894 C   0  0  0  0  0  0  0  0  0  0  0  0
   -7.9294   -1.0748   -0.1507 C   0  0  0  0  0  0  0  0  0  0  0  0
   -8.1951    0.1720   -0.7325 C   0  0  0  0  0  0  0  0  0  0  0  0
   -7.1870    1.1299   -0.8973 C   0  0  0  0  0  0  0  0  0  0  0  0
   -5.9262    0.7578   -0.4485 C   0  0  0  0  0  0  0  0  0  0  0  0
   -4.7814    1.4955   -0.4900 O   0  0  0  0  0  0  0  0  0  0  0  0
    3.0883    0.1942    1.6360 S   0  0  0  0  0  0  0  0  0  0  0  0
    4.4701    0.1253    0.6135 C   0  0  0  0  0  0  0  0  0  0  0  0
    5.8282    0.2776    0.9412 C   0  0  0  0  0  0  0  0  0  0  0  0
    8.5074    1.4155    0.1358 H   0  0  0  0  0  0  0  0  0  0  0  0
    8.4679    0.0255    1.2489 H   0  0  0  0  0  0  0  0  0  0  0  0
    8.8658   -0.2282   -0.4499 H   0  0  0  0  0  0  0  0  0  0  0  0
    7.1067   -0.1288   -2.1980 H   0  0  0  0  0  0  0  0  0  0  0  0
    4.7029   -0.3950   -2.7341 H   0  0  0  0  0  0  0  0  0  0  0  0
    0.2683   -0.3385   -0.5011 H   0  0  0  0  0  0  0  0  0  0  0  0
   -2.0735   -0.2569    2.1957 H   0  0  0  0  0  0  0  0  0  0  0  0
   -1.6743   -1.1555    0.7155 H   0  0  0  0  0  0  0  0  0  0  0  0
   -6.4322   -2.3747    0.7404 H   0  0  0  0  0  0  0  0  0  0  0  0
   -8.7363   -1.7965   -0.0368 H   0  0  0  0  0  0  0  0  0  0  0  0
   -9.2068    0.4020   -1.0632 H   0  0  0  0  0  0  0  0  0  0  0  0
   -7.3728    2.0986   -1.3439 H   0  0  0  0  0  0  0  0  0  0  0  0
    6.1257    0.4745    1.9675 H   0  0  0  0  0  0  0  0  0  0  0  0
  1  2  1  0
  2  3  2  0
  3  4  1  0
  4  5  2  0
  5  6  1  0
  6  7  2  0
  7  8  1  0
  8  9  1  0
  9 10  2  0
  9 11  1  0
 11 12  1  0
 12 13  1  0
 13 14  2  0
 14 15  1  0
 15 16  2  0
 16 17  1  0
 17 18  2  0
 18 19  1  0
 19 20  2  0
 20 21  1  0
  7 22  1  0
 22 23  1  0
 23 24  2  0
 24  2  1  0
 23  5  1  0
 21 13  1  0
 20 15  1  0
  1 25  1  0
  1 26  1  0
  1 27  1  0
  3 28  1  0
  4 29  1  0
  8 30  1  0
 11 31  1  0
 11 32  1  0
 16 33  1  0
 17 34  1  0
 18 35  1  0
 19 36  1  0
 24 37  1  0
M  END
$$$$
