
     RDKit          3D

 55 58  0  0  0  0  0  0  0  0999 V2000
   -2.5136    2.2505   -4.2341 C   0  0  0  0  0  0  0  0  0  0  0  0
   -3.0809    1.9256   -2.9635 O   0  0  0  0  0  0  0  0  0  0  0  0
   -2.2262    1.3045   -2.1142 C   0  0  0  0  0  0  0  0  0  0  0  0
   -1.0672    1.0074   -2.3695 O   0  0  0  0  0  0  0  0  0  0  0  0
   -2.8753    1.0096   -0.7996 C   0  0  0  0  0  0  0  0  0  0  0  0
   -4.2060    1.3933   -0.5765 C   0  0  0  0  0  0  0  0  0  0  0  0
   -4.8247    1.1101    0.6397 C   0  0  0  0  0  0  0  0  0  0  0  0
   -6.1155    1.5512    0.7940 O   0  0  0  0  0  0  0  0  0  0  0  0
   -7.0347    0.4628    0.6977 C   0  0  0  0  0  0  0  0  0  0  0  0
   -4.1246    0.4803    1.6745 C   0  0  0  0  0  0  0  0  0  0  0  0
   -4.8069    0.2964    2.8479 O   0  0  0  0  0  0  0  0  0  0  0  0
   -4.0911   -0.2570    3.9452 C   0  0  0  0  0  0  0  0  0  0  0  0
   -2.7977    0.0938    1.4504 C   0  0  0  0  0  0  0  0  0  0  0  0
   -2.1563    0.3483    0.2258 C   0  0  0  0  0  0  0  0  0  0  0  0
   -0.8101   -0.0400   -0.0047 N   0  0  0  0  0  0  0  0  0  0  0  0
    0.0761   -0.6377    0.8669 C   0  0  0  0  0  0  0  0  0  0  0  0
   -0.1030   -0.9233    2.0429 O   0  0  0  0  0  0  0  0  0  0  0  0
    1.4141   -0.8861    0.2845 C   0  0  0  0  0  0  0  0  0  0  0  0
    2.4808   -0.2183    0.8871 C   0  0  0  0  0  0  0  0  0  0  0  0
    3.7474   -0.3774    0.3532 C   0  0  0  0  0  0  0  0  0  0  0  0
    4.9466    0.2951    0.8987 C   0  0  0  0  0  0  0  0  0  0  0  0
    4.8797    1.5432    1.5463 C   0  0  0  0  0  0  0  0  0  0  0  0
    6.0256    2.1609    2.0595 C   0  0  0  0  0  0  0  0  0  0  0  0
    7.2675    1.5465    1.9322 C   0  0  0  0  0  0  0  0  0  0  0  0
    7.3652    0.3172    1.2894 C   0  0  0  0  0  0  0  0  0  0  0  0
    6.2182   -0.2976    0.7788 C   0  0  0  0  0  0  0  0  0  0  0  0
    3.9597   -1.1780   -0.7220 N   0  0  0  0  0  0  0  0  0  0  0  0
    2.9345   -1.8392   -1.2860 C   0  0  0  0  0  0  0  0  0  0  0  0
    3.1996   -2.6567   -2.3764 C   0  0  0  0  0  0  0  0  0  0  0  0
    2.1968   -3.3928   -3.0117 C   0  0  0  0  0  0  0  0  0  0  0  0
    0.8920   -3.3191   -2.5471 C   0  0  0  0  0  0  0  0  0  0  0  0
    0.5986   -2.5031   -1.4563 C   0  0  0  0  0  0  0  0  0  0  0  0
    1.6124   -1.7418   -0.8188 C   0  0  0  0  0  0  0  0  0  0  0  0
   -3.2977    2.7001   -4.8504 H   0  0  0  0  0  0  0  0  0  0  0  0
   -2.1507    1.3478   -4.7372 H   0  0  0  0  0  0  0  0  0  0  0  0
   -1.7047    2.9786   -4.1129 H   0  0  0  0  0  0  0  0  0  0  0  0
   -4.7809    1.9142   -1.3380 H   0  0  0  0  0  0  0  0  0  0  0  0
   -6.9181   -0.0687   -0.2534 H   0  0  0  0  0  0  0  0  0  0  0  0
   -8.0462    0.8786    0.7293 H   0  0  0  0  0  0  0  0  0  0  0  0
   -6.9317   -0.2345    1.5358 H   0  0  0  0  0  0  0  0  0  0  0  0
   -3.2408    0.3731    4.2234 H   0  0  0  0  0  0  0  0  0  0  0  0
   -3.7736   -1.2826    3.7300 H   0  0  0  0  0  0  0  0  0  0  0  0
   -4.7710   -0.2933    4.8018 H   0  0  0  0  0  0  0  0  0  0  0  0
   -2.2548   -0.4085    2.2413 H   0  0  0  0  0  0  0  0  0  0  0  0
   -0.4448    0.1967   -0.9325 H   0  0  0  0  0  0  0  0  0  0  0  0
    2.3059    0.4022    1.7598 H   0  0  0  0  0  0  0  0  0  0  0  0
    3.9318    2.0669    1.6487 H   0  0  0  0  0  0  0  0  0  0  0  0
    5.9452    3.1249    2.5562 H   0  0  0  0  0  0  0  0  0  0  0  0
    8.1580    2.0259    2.3304 H   0  0  0  0  0  0  0  0  0  0  0  0
    8.3315   -0.1682    1.1827 H   0  0  0  0  0  0  0  0  0  0  0  0
    6.3200   -1.2610    0.2813 H   0  0  0  0  0  0  0  0  0  0  0  0
    4.2223   -2.7260   -2.7420 H   0  0  0  0  0  0  0  0  0  0  0  0
    2.4430   -4.0240   -3.8617 H   0  0  0  0  0  0  0  0  0  0  0  0
    0.1052   -3.8954   -3.0271 H   0  0  0  0  0  0  0  0  0  0  0  0
   -0.4290   -2.4756   -1.0997 H   0  0  0  0  0  0  0  0  0  0  0  0
  1  2  1  0
  2  3  1  0
  3  4  2  0
  3  5  1  0
  5  6  2  0
  6  7  1  0
  7  8  1  0
  8  9  1  0
  7 10  2  0
 10 11  1  0
 11 12  1  0
 10 13  1  0
 13 14  2  0
 14 15  1  0
 15 16  1  0
 16 17  2  0
 16 18  1  0
 18 19  2  0
 19 20  1  0
 20 21  1  0
 21 22  2  0
 22 23  1  0
 23 24  2  0
 24 25  1  0
 25 26  2  0
 20 27  2  0
 27 28  1  0
 28 29  2  0
 29 30  1  0
 30 31  2  0
 31 32  1  0
 32 33  2  0
 14  5  1  0
 33 18  1  0
 26 21  1  0
 33 28  1  0
  1 34  1  0
  1 35  1  0
  1 36  1  0
  6 37  1  0
  9 38  1  0
  9 39  1  0
  9 40  1  0
 12 41  1  0
 12 42  1  0
 12 43  1  0
 13 44  1  0
 15 45  1  0
 19 46  1  0
 22 47  1  0
 23 48  1  0
 24 49  1  0
 25 50  1  0
 26 51  1  0
 29 52  1  0
 30 53  1  0
 31 54  1  0
 32 55  1  0
M  END
$$$$
