
     RDKit          3D

 43 46  0  0  0  0  0  0  0  0999 V2000
   -4.3354   -0.6395    1.2897 C   0  0  0  0  0  0  0  0  0  0  0  0
   -3.6825   -0.4560    0.0020 N   0  0  0  0  0  0  0  0  0  0  0  0
   -4.4567    0.0179   -1.0553 C   0  0  0  0  0  0  0  0  0  0  0  0
   -5.6494    0.2946   -0.9531 O   0  0  0  0  0  0  0  0  0  0  0  0
   -3.7768    0.2030   -2.4168 C   0  0  0  0  0  0  0  0  0  0  0  0
   -4.4509    0.6154   -3.3575 O   0  0  0  0  0  0  0  0  0  0  0  0
   -2.4208   -0.1040   -2.5173 N   0  0  0  0  0  0  0  0  0  0  0  0
   -1.7850    0.0599   -3.8167 C   0  0  0  0  0  0  0  0  0  0  0  0
   -1.6735   -0.5719   -1.4017 C   0  0  0  0  0  0  0  0  0  0  0  0
   -0.3026   -0.8618   -1.5274 C   0  0  0  0  0  0  0  0  0  0  0  0
    0.4393   -1.3057   -0.4282 C   0  0  0  0  0  0  0  0  0  0  0  0
    2.1721   -1.6970   -0.6248 S   0  0  0  0  0  6  0  0  0  0  0  0
    2.4063   -1.8483   -2.0479 O   0  0  0  0  0  0  0  0  0  0  0  0
    2.4628   -2.7856    0.2846 O   0  0  0  0  0  0  0  0  0  0  0  0
    2.9626   -0.2864   -0.1232 N   0  0  0  0  0  0  0  0  0  0  0  0
    2.8732    0.9066   -1.0187 C   0  0  0  0  0  0  0  0  0  0  0  0
    2.9541    2.1457   -0.1103 C   0  0  0  0  0  0  0  0  0  0  0  0
    2.8431    1.5630    1.2603 C   0  0  0  0  0  0  0  0  0  0  0  0
    2.7864    2.2507    2.4634 C   0  0  0  0  0  0  0  0  0  0  0  0
    2.7721    1.5131    3.6480 C   0  0  0  0  0  0  0  0  0  0  0  0
    2.8409    0.1130    3.6143 C   0  0  0  0  0  0  0  0  0  0  0  0
    2.9039   -0.5670    2.3944 C   0  0  0  0  0  0  0  0  0  0  0  0
    2.8598    0.1707    1.2244 C   0  0  0  0  0  0  0  0  0  0  0  0
   -0.1831   -1.5185    0.7958 C   0  0  0  0  0  0  0  0  0  0  0  0
   -1.5419   -1.2325    0.9310 C   0  0  0  0  0  0  0  0  0  0  0  0
   -2.3009   -0.7517   -0.1537 C   0  0  0  0  0  0  0  0  0  0  0  0
   -4.2723   -1.6923    1.5831 H   0  0  0  0  0  0  0  0  0  0  0  0
   -3.8512   -0.0035    2.0376 H   0  0  0  0  0  0  0  0  0  0  0  0
   -5.3942   -0.3674    1.2589 H   0  0  0  0  0  0  0  0  0  0  0  0
   -1.3927   -0.9047   -4.1544 H   0  0  0  0  0  0  0  0  0  0  0  0
   -2.4849    0.4171   -4.5773 H   0  0  0  0  0  0  0  0  0  0  0  0
   -0.9781    0.7953   -3.7367 H   0  0  0  0  0  0  0  0  0  0  0  0
    0.2098   -0.7513   -2.4791 H   0  0  0  0  0  0  0  0  0  0  0  0
    1.9312    0.9269   -1.5746 H   0  0  0  0  0  0  0  0  0  0  0  0
    3.6962    0.8957   -1.7407 H   0  0  0  0  0  0  0  0  0  0  0  0
    2.1410    2.8462   -0.3232 H   0  0  0  0  0  0  0  0  0  0  0  0
    3.9161    2.6539   -0.2333 H   0  0  0  0  0  0  0  0  0  0  0  0
    2.7730    3.3360    2.4905 H   0  0  0  0  0  0  0  0  0  0  0  0
    2.7352    2.0275    4.6059 H   0  0  0  0  0  0  0  0  0  0  0  0
    2.8656   -0.4481    4.5459 H   0  0  0  0  0  0  0  0  0  0  0  0
    3.0028   -1.6471    2.3880 H   0  0  0  0  0  0  0  0  0  0  0  0
    0.3714   -1.9081    1.6465 H   0  0  0  0  0  0  0  0  0  0  0  0
   -1.9863   -1.4039    1.9078 H   0  0  0  0  0  0  0  0  0  0  0  0
  1  2  1  0
  2  3  1  0
  3  4  2  0
  3  5  1  0
  5  6  2  0
  5  7  1  0
  7  8  1  0
  7  9  1  0
  9 10  2  0
 10 11  1  0
 11 12  1  0
 12 13  2  0
 12 14  2  0
 12 15  1  0
 15 16  1  0
 16 17  1  0
 17 18  1  0
 18 19  2  0
 19 20  1  0
 20 21  2  0
 21 22  1  0
 22 23  2  0
 11 24  2  0
 24 25  1  0
 25 26  2  0
 26  2  1  0
 26  9  1  0
 23 15  1  0
 23 18  1  0
  1 27  1  0
  1 28  1  0
  1 29  1  0
  8 30  1  0
  8 31  1  0
  8 32  1  0
 10 33  1  0
 16 34  1  0
 16 35  1  0
 17 36  1  0
 17 37  1  0
 19 38  1  0
 20 39  1  0
 21 40  1  0
 22 41  1  0
 24 42  1  0
 25 43  1  0
M  END
$$$$
