
     RDKit          3D

 42 45  0  0  0  0  0  0  0  0999 V2000
   -1.9669    0.3823    1.5170 O   0  0  0  0  0  0  0  0  0  0  0  0
   -1.9840    0.8057    0.3682 C   0  0  0  0  0  0  0  0  0  0  0  0
   -0.7521    1.1503   -0.3973 C   0  0  0  0  0  0  0  0  0  0  0  0
    0.4529    0.9234    0.1406 C   0  0  0  0  0  0  0  0  0  0  0  0
    1.7246    1.1791   -0.4453 C   0  0  0  0  0  0  0  0  0  0  0  0
    2.1514    2.0401   -1.4491 C   0  0  0  0  0  0  0  0  0  0  0  0
    3.5506    1.8804   -1.6064 C   0  0  0  0  0  0  0  0  0  0  0  0
    3.9399    0.9322   -0.6899 C   0  0  0  0  0  0  0  0  0  0  0  0
    5.2060    0.3094   -0.3095 C   0  0  0  0  0  0  0  0  0  0  0  0
    5.4348    0.0308    1.0525 C   0  0  0  0  0  0  0  0  0  0  0  0
    6.6300   -0.5474    1.4881 C   0  0  0  0  0  0  0  0  0  0  0  0
    7.6235   -0.8625    0.5683 C   0  0  0  0  0  0  0  0  0  0  0  0
    7.4178   -0.6033   -0.7856 C   0  0  0  0  0  0  0  0  0  0  0  0
    6.2191   -0.0234   -1.2263 C   0  0  0  0  0  0  0  0  0  0  0  0
    6.0605    0.2083   -2.9351 Cl  0  0  0  0  0  0  0  0  0  0  0  0
    2.8485    0.5270    0.0203 O   0  0  0  0  0  0  0  0  0  0  0  0
   -1.1813    1.7828   -1.9325 S   0  0  0  0  0  0  0  0  0  0  0  0
   -2.9048    1.5977   -1.6441 C   0  0  0  0  0  0  0  0  0  0  0  0
   -4.0458    2.0407   -2.7787 S   0  0  0  0  0  0  0  0  0  0  0  0
   -3.1135    1.0721   -0.3888 N   0  0  0  0  0  0  0  0  0  0  0  0
   -4.4249    0.7046    0.1553 C   0  0  0  0  0  0  0  0  0  0  0  0
   -4.8947   -0.6765   -0.3455 C   0  0  0  0  0  0  0  0  0  0  0  0
   -6.1822   -1.1292    0.3276 C   0  0  0  0  0  0  0  0  0  0  0  0
   -5.6777   -1.8799    1.5352 C   0  0  0  0  0  0  0  0  0  0  0  0
   -4.4207   -2.5316    1.0031 C   0  0  0  0  0  0  0  0  0  0  0  0
   -3.9058   -1.6735   -0.0244 O   0  0  0  0  0  0  0  0  0  0  0  0
    0.4976    0.4604    1.1257 H   0  0  0  0  0  0  0  0  0  0  0  0
    1.5351    2.7283   -2.0092 H   0  0  0  0  0  0  0  0  0  0  0  0
    4.1904    2.4096   -2.2982 H   0  0  0  0  0  0  0  0  0  0  0  0
    4.6725    0.2726    1.7922 H   0  0  0  0  0  0  0  0  0  0  0  0
    6.7801   -0.7500    2.5459 H   0  0  0  0  0  0  0  0  0  0  0  0
    8.5542   -1.3143    0.9021 H   0  0  0  0  0  0  0  0  0  0  0  0
    8.1957   -0.8627   -1.5001 H   0  0  0  0  0  0  0  0  0  0  0  0
   -4.3542    0.7022    1.2489 H   0  0  0  0  0  0  0  0  0  0  0  0
   -5.1590    1.4701   -0.1180 H   0  0  0  0  0  0  0  0  0  0  0  0
   -5.0138   -0.6622   -1.4333 H   0  0  0  0  0  0  0  0  0  0  0  0
   -6.8649   -0.3113    0.5744 H   0  0  0  0  0  0  0  0  0  0  0  0
   -6.7147   -1.8255   -0.3318 H   0  0  0  0  0  0  0  0  0  0  0  0
   -5.4257   -1.1767    2.3371 H   0  0  0  0  0  0  0  0  0  0  0  0
   -6.3951   -2.6025    1.9331 H   0  0  0  0  0  0  0  0  0  0  0  0
   -4.6416   -3.5019    0.5460 H   0  0  0  0  0  0  0  0  0  0  0  0
   -3.6618   -2.6756    1.7772 H   0  0  0  0  0  0  0  0  0  0  0  0
  1  2  2  0
  2  3  1  0
  3  4  2  3
  4  5  1  0
  5  6  2  0
  6  7  1  0
  7  8  2  0
  8  9  1  0
  9 10  2  0
 10 11  1  0
 11 12  2  0
 12 13  1  0
 13 14  2  0
 14 15  1  0
  8 16  1  0
  3 17  1  0
 17 18  1  0
 18 19  2  0
 18 20  1  0
 20 21  1  0
 21 22  1  0
 22 23  1  0
 23 24  1  0
 24 25  1  0
 25 26  1  0
 20  2  1  0
 26 22  1  0
 16  5  1  0
 14  9  1  0
  4 27  1  0
  6 28  1  0
  7 29  1  0
 10 30  1  0
 11 31  1  0
 12 32  1  0
 13 33  1  0
 21 34  1  0
 21 35  1  0
 22 36  1  0
 23 37  1  0
 23 38  1  0
 24 39  1  0
 24 40  1  0
 25 41  1  0
 25 42  1  0
M  END
$$$$
