
     RDKit          3D

 64 67  0  0  0  0  0  0  0  0999 V2000
    8.4173   -3.5239    1.4266 C   0  0  0  0  0  0  0  0  0  0  0  0
    8.6923   -2.0509    1.1649 C   0  0  0  0  0  0  0  0  0  0  0  0
    7.4344   -1.3013    0.8077 C   0  0  0  0  0  0  0  0  0  0  0  0
    7.0019   -1.2310   -0.5206 C   0  0  0  0  0  0  0  0  0  0  0  0
    5.8257   -0.5484   -0.8481 C   0  0  0  0  0  0  0  0  0  0  0  0
    5.0513    0.0747    0.1423 C   0  0  0  0  0  0  0  0  0  0  0  0
    3.8171    0.7873   -0.2150 C   0  0  0  0  0  0  0  0  0  0  0  0
    2.9609    1.5486    0.6329 C   0  0  0  0  0  0  0  0  0  0  0  0
    1.9481    2.0005   -0.1785 C   0  0  0  0  0  0  0  0  0  0  0  0
    0.7830    2.7998    0.0431 C   0  0  0  0  0  0  0  0  0  0  0  0
    0.4854    3.2443    1.1467 O   0  0  0  0  0  0  0  0  0  0  0  0
    0.0149    3.0250   -1.1163 N   0  0  0  0  0  0  0  0  0  0  0  0
   -1.2054    3.8270   -1.0086 C   0  0  0  0  0  0  0  0  0  0  0  0
   -2.4371    2.9708   -0.7112 C   0  0  0  0  0  0  0  0  0  0  0  0
   -3.4679    3.4510   -0.2443 O   0  0  0  0  0  0  0  0  0  0  0  0
   -2.3435    1.6573   -1.1199 N   0  0  0  0  0  0  0  0  0  0  0  0
   -3.4656    0.7394   -1.0492 C   0  0  0  0  0  0  0  0  0  0  0  0
   -3.7760    0.2938    0.3922 C   0  0  0  0  0  0  0  0  0  0  0  0
   -4.8165   -0.7595    0.4289 N   0  0  0  0  0  0  0  0  0  0  0  0
   -4.4040   -1.8241    1.3638 C   0  0  0  0  0  0  0  0  0  0  0  0
   -5.3915   -2.9884    1.3770 C   0  0  0  0  0  0  0  0  0  0  0  0
   -6.7920   -2.5108    1.7239 C   0  0  0  0  0  0  0  0  0  0  0  0
   -7.1977   -1.3676    0.8038 C   0  0  0  0  0  0  0  0  0  0  0  0
   -6.1544   -0.2309    0.8011 C   0  0  0  0  0  0  0  0  0  0  0  0
   -6.6617    0.8704   -0.1392 C   0  0  0  0  0  0  0  0  0  0  0  0
    0.3019    2.4835   -2.3778 N   0  0  0  0  0  0  0  0  0  0  0  0
    1.3844    1.7687   -2.5030 C   0  0  0  0  0  0  0  0  0  0  0  0
    1.8078    1.1523   -3.7981 C   0  0  0  0  0  0  0  0  0  0  0  0
    2.2181    1.5237   -1.4181 N   0  0  0  0  0  0  0  0  0  0  0  0
    3.3422    0.7851   -1.4761 N   0  0  0  0  0  0  0  0  0  0  0  0
    5.4861   -0.0074    1.4727 C   0  0  0  0  0  0  0  0  0  0  0  0
    6.6637   -0.6890    1.8020 C   0  0  0  0  0  0  0  0  0  0  0  0
    9.3457   -4.0415    1.6880 H   0  0  0  0  0  0  0  0  0  0  0  0
    7.7104   -3.6552    2.2532 H   0  0  0  0  0  0  0  0  0  0  0  0
    7.9941   -4.0125    0.5419 H   0  0  0  0  0  0  0  0  0  0  0  0
    9.4248   -1.9479    0.3548 H   0  0  0  0  0  0  0  0  0  0  0  0
    9.1543   -1.5976    2.0506 H   0  0  0  0  0  0  0  0  0  0  0  0
    7.5756   -1.7080   -1.3127 H   0  0  0  0  0  0  0  0  0  0  0  0
    5.5183   -0.5093   -1.8915 H   0  0  0  0  0  0  0  0  0  0  0  0
    3.0606    1.7460    1.6912 H   0  0  0  0  0  0  0  0  0  0  0  0
   -1.3649    4.3567   -1.9535 H   0  0  0  0  0  0  0  0  0  0  0  0
   -1.0937    4.5603   -0.2036 H   0  0  0  0  0  0  0  0  0  0  0  0
   -1.5496    1.4251   -1.7101 H   0  0  0  0  0  0  0  0  0  0  0  0
   -3.1947   -0.1301   -1.6586 H   0  0  0  0  0  0  0  0  0  0  0  0
   -4.3256    1.2240   -1.5194 H   0  0  0  0  0  0  0  0  0  0  0  0
   -2.8314   -0.0847    0.8078 H   0  0  0  0  0  0  0  0  0  0  0  0
   -4.0382    1.1460    1.0310 H   0  0  0  0  0  0  0  0  0  0  0  0
   -4.2891   -1.4236    2.3799 H   0  0  0  0  0  0  0  0  0  0  0  0
   -3.4292   -2.2252    1.0586 H   0  0  0  0  0  0  0  0  0  0  0  0
   -5.4010   -3.4752    0.3934 H   0  0  0  0  0  0  0  0  0  0  0  0
   -5.0667   -3.7421    2.1031 H   0  0  0  0  0  0  0  0  0  0  0  0
   -6.8192   -2.1716    2.7666 H   0  0  0  0  0  0  0  0  0  0  0  0
   -7.5053   -3.3375    1.6351 H   0  0  0  0  0  0  0  0  0  0  0  0
   -8.1726   -0.9822    1.1265 H   0  0  0  0  0  0  0  0  0  0  0  0
   -7.3317   -1.7541   -0.2154 H   0  0  0  0  0  0  0  0  0  0  0  0
   -6.1072    0.1919    1.8147 H   0  0  0  0  0  0  0  0  0  0  0  0
   -7.6873    1.1565    0.1197 H   0  0  0  0  0  0  0  0  0  0  0  0
   -6.6643    0.5355   -1.1822 H   0  0  0  0  0  0  0  0  0  0  0  0
   -6.0558    1.7782   -0.0653 H   0  0  0  0  0  0  0  0  0  0  0  0
    1.0852    1.4002   -4.5816 H   0  0  0  0  0  0  0  0  0  0  0  0
    1.8538    0.0632   -3.7017 H   0  0  0  0  0  0  0  0  0  0  0  0
    2.7884    1.5351   -4.0967 H   0  0  0  0  0  0  0  0  0  0  0  0
    4.9197    0.4493    2.2794 H   0  0  0  0  0  0  0  0  0  0  0  0
    6.9735   -0.7395    2.8441 H   0  0  0  0  0  0  0  0  0  0  0  0
  1  2  1  0
  2  3  1  0
  3  4  2  0
  4  5  1  0
  5  6  2  0
  6  7  1  0
  7  8  1  0
  8  9  2  0
  9 10  1  0
 10 11  2  0
 10 12  1  0
 12 13  1  0
 13 14  1  0
 14 15  2  0
 14 16  1  0
 16 17  1  0
 17 18  1  0
 18 19  1  0
 19 20  1  0
 20 21  1  0
 21 22  1  0
 22 23  1  0
 23 24  1  0
 24 25  1  0
 12 26  1  0
 26 27  2  0
 27 28  1  0
 27 29  1  0
 29 30  1  0
  6 31  1  0
 31 32  2  0
 32  3  1  0
 30  7  2  0
 29  9  1  0
 24 19  1  0
  1 33  1  0
  1 34  1  0
  1 35  1  0
  2 36  1  0
  2 37  1  0
  4 38  1  0
  5 39  1  0
  8 40  1  0
 13 41  1  0
 13 42  1  0
 16 43  1  0
 17 44  1  0
 17 45  1  0
 18 46  1  0
 18 47  1  0
 20 48  1  0
 20 49  1  0
 21 50  1  0
 21 51  1  0
 22 52  1  0
 22 53  1  0
 23 54  1  0
 23 55  1  0
 24 56  1  0
 25 57  1  0
 25 58  1  0
 25 59  1  0
 28 60  1  0
 28 61  1  0
 28 62  1  0
 31 63  1  0
 32 64  1  0
M  END
$$$$
