
     RDKit          3D

 41 44  0  0  0  0  0  0  0  0999 V2000
   -5.1931   -2.1184   -1.3745 C   0  0  0  0  0  0  0  0  0  0  0  0
   -5.4947   -1.1885   -0.1967 C   0  0  0  0  0  0  0  0  0  0  0  0
   -6.5930   -0.1861   -0.5603 C   0  0  0  0  0  0  0  0  0  0  0  0
   -4.2406   -0.4887    0.2965 C   0  0  0  0  0  0  0  0  0  0  0  0
   -3.5152    0.3881   -0.5230 C   0  0  0  0  0  0  0  0  0  0  0  0
   -2.3592    1.0178   -0.0520 C   0  0  0  0  0  0  0  0  0  0  0  0
   -1.9009    0.7740    1.2450 C   0  0  0  0  0  0  0  0  0  0  0  0
   -0.7110    1.4439    1.7751 C   0  0  0  0  0  0  0  0  0  0  0  0
    0.5501    1.2874    1.3453 C   0  0  0  0  0  0  0  0  0  0  0  0
    1.8860    2.1642    2.0998 S   0  0  0  0  0  0  0  0  0  0  0  0
    2.9847    1.3994    1.0330 C   0  0  0  0  0  0  0  0  0  0  0  0
    4.2713    1.4408    0.8430 N   0  0  0  0  0  0  0  0  0  0  0  0
    4.4342    0.5424   -0.2074 C   0  0  0  0  0  0  0  0  0  0  0  0
    5.7458    0.2534   -0.7766 C   0  0  0  0  0  0  0  0  0  0  0  0
    6.8872    0.8826   -0.2743 C   0  0  0  0  0  0  0  0  0  0  0  0
    8.1125    0.5800   -0.8430 C   0  0  0  0  0  0  0  0  0  0  0  0
    8.2721   -0.2920   -1.8604 N   0  0  0  0  0  0  0  0  0  0  0  0
    7.1569   -0.8892   -2.3310 C   0  0  0  0  0  0  0  0  0  0  0  0
    5.8883   -0.6534   -1.8299 C   0  0  0  0  0  0  0  0  0  0  0  0
    3.2874   -0.0246   -0.6427 N   0  0  0  0  0  0  0  0  0  0  0  0
    2.3888    0.5493    0.1770 N   0  0  0  0  0  0  0  0  0  0  0  0
    1.0206    0.3863    0.2395 C   0  0  0  0  0  0  0  0  0  0  0  0
    0.4061   -0.3596   -0.4982 O   0  0  0  0  0  0  0  0  0  0  0  0
   -2.6242   -0.0899    2.0722 C   0  0  0  0  0  0  0  0  0  0  0  0
   -3.7809   -0.7180    1.6008 C   0  0  0  0  0  0  0  0  0  0  0  0
   -6.0899   -2.6772   -1.6630 H   0  0  0  0  0  0  0  0  0  0  0  0
   -4.4160   -2.8446   -1.1109 H   0  0  0  0  0  0  0  0  0  0  0  0
   -4.8483   -1.5658   -2.2553 H   0  0  0  0  0  0  0  0  0  0  0  0
   -5.8872   -1.8146    0.6157 H   0  0  0  0  0  0  0  0  0  0  0  0
   -7.5163   -0.7090   -0.8322 H   0  0  0  0  0  0  0  0  0  0  0  0
   -6.8176    0.4726    0.2860 H   0  0  0  0  0  0  0  0  0  0  0  0
   -6.3072    0.4457   -1.4083 H   0  0  0  0  0  0  0  0  0  0  0  0
   -3.8400    0.5868   -1.5419 H   0  0  0  0  0  0  0  0  0  0  0  0
   -1.8222    1.6909   -0.7157 H   0  0  0  0  0  0  0  0  0  0  0  0
   -0.9228    2.1105    2.6101 H   0  0  0  0  0  0  0  0  0  0  0  0
    6.8296    1.5945    0.5429 H   0  0  0  0  0  0  0  0  0  0  0  0
    9.0260    1.0455   -0.4840 H   0  0  0  0  0  0  0  0  0  0  0  0
    7.3140   -1.5862   -3.1493 H   0  0  0  0  0  0  0  0  0  0  0  0
    5.0330   -1.1687   -2.2557 H   0  0  0  0  0  0  0  0  0  0  0  0
   -2.2949   -0.2892    3.0893 H   0  0  0  0  0  0  0  0  0  0  0  0
   -4.3196   -1.3923    2.2632 H   0  0  0  0  0  0  0  0  0  0  0  0
  1  2  1  0
  2  3  1  0
  2  4  1  0
  4  5  2  0
  5  6  1  0
  6  7  2  0
  7  8  1  0
  8  9  2  3
  9 10  1  0
 10 11  1  0
 11 12  2  0
 12 13  1  0
 13 14  1  0
 14 15  2  0
 15 16  1  0
 16 17  2  0
 17 18  1  0
 18 19  2  0
 13 20  2  0
 20 21  1  0
 21 22  1  0
 22 23  2  0
  7 24  1  0
 24 25  2  0
 25  4  1  0
 22  9  1  0
 21 11  1  0
 19 14  1  0
  1 26  1  0
  1 27  1  0
  1 28  1  0
  2 29  1  0
  3 30  1  0
  3 31  1  0
  3 32  1  0
  5 33  1  0
  6 34  1  0
  8 35  1  0
 15 36  1  0
 16 37  1  0
 18 38  1  0
 19 39  1  0
 24 40  1  0
 25 41  1  0
M  END
$$$$
