
     RDKit          3D

 38 39  0  0  0  0  0  0  0  0999 V2000
    5.9447   -1.5449   -1.2283 C   0  0  0  0  0  0  0  0  0  0  0  0
    4.6907   -0.6877   -1.1670 C   0  0  0  0  0  0  0  0  0  0  0  0
    4.3508   -0.2946    0.2691 C   0  0  0  0  0  0  0  0  0  0  0  0
    3.1312    0.5430    0.3205 C   0  0  0  0  0  0  0  0  0  0  0  0
    3.0135    1.8527    0.3281 N   0  0  0  0  0  0  0  0  0  0  0  0
    1.6602    2.1177    0.3700 N   0  0  0  0  0  0  0  0  0  0  0  0
    1.0464    0.9509    0.3872 C   0  0  0  0  0  0  0  0  0  0  0  0
   -0.3788    0.6430    0.4226 C   0  0  0  0  0  0  0  0  0  0  0  0
   -1.3084    1.6980    0.4109 C   0  0  0  0  0  0  0  0  0  0  0  0
   -2.6817    1.4467    0.4380 C   0  0  0  0  0  0  0  0  0  0  0  0
   -3.6557    2.4111    0.4299 O   0  0  0  0  0  0  0  0  0  0  0  0
   -3.2379    3.7675    0.5048 C   0  0  0  0  0  0  0  0  0  0  0  0
   -3.1240    0.1143    0.4637 C   0  0  0  0  0  0  0  0  0  0  0  0
   -4.4749   -0.1483    0.5328 O   0  0  0  0  0  0  0  0  0  0  0  0
   -5.0127   -0.2624   -0.7834 C   0  0  0  0  0  0  0  0  0  0  0  0
   -2.2154   -0.9566    0.5001 C   0  0  0  0  0  0  0  0  0  0  0  0
   -2.7603   -2.2137    0.5456 O   0  0  0  0  0  0  0  0  0  0  0  0
   -1.8787   -3.3040    0.7750 C   0  0  0  0  0  0  0  0  0  0  0  0
   -0.8460   -0.6818    0.4687 C   0  0  0  0  0  0  0  0  0  0  0  0
    1.9250   -0.1030    0.3584 O   0  0  0  0  0  0  0  0  0  0  0  0
    6.8059   -1.0116   -0.8135 H   0  0  0  0  0  0  0  0  0  0  0  0
    6.1739   -1.8056   -2.2661 H   0  0  0  0  0  0  0  0  0  0  0  0
    5.8123   -2.4751   -0.6664 H   0  0  0  0  0  0  0  0  0  0  0  0
    3.8551   -1.2402   -1.6145 H   0  0  0  0  0  0  0  0  0  0  0  0
    4.8381    0.2115   -1.7779 H   0  0  0  0  0  0  0  0  0  0  0  0
    5.1859    0.2611    0.7109 H   0  0  0  0  0  0  0  0  0  0  0  0
    4.2053   -1.1927    0.8806 H   0  0  0  0  0  0  0  0  0  0  0  0
   -0.9287    2.7160    0.3786 H   0  0  0  0  0  0  0  0  0  0  0  0
   -2.6710    4.0533   -0.3875 H   0  0  0  0  0  0  0  0  0  0  0  0
   -2.6632    3.9567    1.4177 H   0  0  0  0  0  0  0  0  0  0  0  0
   -4.1359    4.3919    0.5416 H   0  0  0  0  0  0  0  0  0  0  0  0
   -4.9056    0.6738   -1.3420 H   0  0  0  0  0  0  0  0  0  0  0  0
   -6.0814   -0.4775   -0.6904 H   0  0  0  0  0  0  0  0  0  0  0  0
   -4.5488   -1.0879   -1.3346 H   0  0  0  0  0  0  0  0  0  0  0  0
   -1.2102   -3.4526   -0.0793 H   0  0  0  0  0  0  0  0  0  0  0  0
   -1.3122   -3.1705    1.7025 H   0  0  0  0  0  0  0  0  0  0  0  0
   -2.4858   -4.2081    0.8832 H   0  0  0  0  0  0  0  0  0  0  0  0
   -0.1217   -1.4902    0.4770 H   0  0  0  0  0  0  0  0  0  0  0  0
  1  2  1  0
  2  3  1  0
  3  4  1  0
  4  5  2  0
  5  6  1  0
  6  7  2  0
  7  8  1  0
  8  9  2  0
  9 10  1  0
 10 11  1  0
 11 12  1  0
 10 13  2  0
 13 14  1  0
 14 15  1  0
 13 16  1  0
 16 17  1  0
 17 18  1  0
 16 19  2  0
  7 20  1  0
 20  4  1  0
 19  8  1  0
  1 21  1  0
  1 22  1  0
  1 23  1  0
  2 24  1  0
  2 25  1  0
  3 26  1  0
  3 27  1  0
  9 28  1  0
 12 29  1  0
 12 30  1  0
 12 31  1  0
 15 32  1  0
 15 33  1  0
 15 34  1  0
 18 35  1  0
 18 36  1  0
 18 37  1  0
 19 38  1  0
M  END
$$$$
