
     RDKit          3D

 52 55  0  0  0  0  0  0  0  0999 V2000
   -6.9465   -1.0046   -0.4543 C   0  0  0  0  0  0  0  0  0  0  0  0
   -5.9232   -0.0987    0.1769 C   0  0  0  0  0  0  0  0  0  0  0  0
   -6.0937    0.2494    1.5285 C   0  0  0  0  0  0  0  0  0  0  0  0
   -5.1961    1.1040    2.1750 C   0  0  0  0  0  0  0  0  0  0  0  0
   -4.1140    1.6289    1.4665 C   0  0  0  0  0  0  0  0  0  0  0  0
   -3.1687    2.5279    2.1404 N   0  0  0  0  0  4  0  0  0  0  0  0
   -3.4391    2.8919    3.2921 O   0  0  0  0  0  0  0  0  0  0  0  0
   -2.1532    2.8617    1.5160 O   0  0  0  0  0  1  0  0  0  0  0  0
   -3.9160    1.2958    0.1237 C   0  0  0  0  0  0  0  0  0  0  0  0
   -4.8064    0.4139   -0.5142 C   0  0  0  0  0  0  0  0  0  0  0  0
   -4.4592   -0.0230   -2.2177 S   0  0  0  0  0  6  0  0  0  0  0  0
   -4.8371    1.1250   -3.0122 O   0  0  0  0  0  0  0  0  0  0  0  0
   -4.9932   -1.3395   -2.4922 O   0  0  0  0  0  0  0  0  0  0  0  0
   -2.7882   -0.1172   -2.2943 N   0  0  0  0  0  0  0  0  0  0  0  0
   -1.9823   -0.9671   -1.4846 C   0  0  0  0  0  0  0  0  0  0  0  0
   -2.4304   -2.1611   -0.9270 C   0  0  0  0  0  0  0  0  0  0  0  0
   -1.5639   -2.9505   -0.1708 C   0  0  0  0  0  0  0  0  0  0  0  0
   -0.2387   -2.5549    0.0229 C   0  0  0  0  0  0  0  0  0  0  0  0
    0.2532   -1.3639   -0.5390 C   0  0  0  0  0  0  0  0  0  0  0  0
    1.6526   -0.9300   -0.3657 C   0  0  0  0  0  0  0  0  0  0  0  0
    2.4270   -1.2136    0.7475 C   0  0  0  0  0  0  0  0  0  0  0  0
    3.7461   -0.7479    0.8080 C   0  0  0  0  0  0  0  0  0  0  0  0
    4.2826   -0.0046   -0.2333 C   0  0  0  0  0  0  0  0  0  0  0  0
    5.5689    0.4615   -0.2195 N   0  0  0  0  0  0  0  0  0  0  0  0
    6.0900    1.2325   -1.3399 C   0  0  0  0  0  0  0  0  0  0  0  0
    7.5771    1.3573   -1.0182 C   0  0  0  0  0  0  0  0  0  0  0  0
    7.5980    1.3895    0.5024 C   0  0  0  0  0  0  0  0  0  0  0  0
    6.5012    0.3989    0.8925 C   0  0  0  0  0  0  0  0  0  0  0  0
    3.4943    0.2508   -1.2979 N   0  0  0  0  0  0  0  0  0  0  0  0
    2.1839   -0.2034   -1.3682 N   0  0  0  0  0  0  0  0  0  0  0  0
   -0.6455   -0.5907   -1.3025 C   0  0  0  0  0  0  0  0  0  0  0  0
   -6.5530   -2.0188   -0.5628 H   0  0  0  0  0  0  0  0  0  0  0  0
   -7.8524   -1.0676    0.1601 H   0  0  0  0  0  0  0  0  0  0  0  0
   -7.2620   -0.6172   -1.4256 H   0  0  0  0  0  0  0  0  0  0  0  0
   -6.9406   -0.1443    2.0928 H   0  0  0  0  0  0  0  0  0  0  0  0
   -5.3610    1.3515    3.2205 H   0  0  0  0  0  0  0  0  0  0  0  0
   -3.0773    1.7180   -0.4264 H   0  0  0  0  0  0  0  0  0  0  0  0
   -2.3497    0.6495   -2.8019 H   0  0  0  0  0  0  0  0  0  0  0  0
   -3.4419   -2.5228   -1.0795 H   0  0  0  0  0  0  0  0  0  0  0  0
   -1.9175   -3.8906    0.2485 H   0  0  0  0  0  0  0  0  0  0  0  0
    0.4133   -3.2118    0.5947 H   0  0  0  0  0  0  0  0  0  0  0  0
    2.0274   -1.7778    1.5834 H   0  0  0  0  0  0  0  0  0  0  0  0
    4.3393   -0.9821    1.6843 H   0  0  0  0  0  0  0  0  0  0  0  0
    5.6184    2.2219   -1.3713 H   0  0  0  0  0  0  0  0  0  0  0  0
    5.9452    0.7314   -2.3026 H   0  0  0  0  0  0  0  0  0  0  0  0
    8.0305    2.2439   -1.4703 H   0  0  0  0  0  0  0  0  0  0  0  0
    8.1160    0.4733   -1.3791 H   0  0  0  0  0  0  0  0  0  0  0  0
    8.5716    1.1208    0.9207 H   0  0  0  0  0  0  0  0  0  0  0  0
    7.3395    2.3939    0.8562 H   0  0  0  0  0  0  0  0  0  0  0  0
    6.9096   -0.6140    0.9838 H   0  0  0  0  0  0  0  0  0  0  0  0
    6.0498    0.6924    1.8453 H   0  0  0  0  0  0  0  0  0  0  0  0
   -0.2847    0.3320   -1.7561 H   0  0  0  0  0  0  0  0  0  0  0  0
  1  2  1  0
  2  3  2  0
  3  4  1  0
  4  5  2  0
  5  6  1  0
  6  7  2  0
  6  8  1  0
  5  9  1  0
  9 10  2  0
 10 11  1  0
 11 12  2  0
 11 13  2  0
 11 14  1  0
 14 15  1  0
 15 16  2  0
 16 17  1  0
 17 18  2  0
 18 19  1  0
 19 20  1  0
 20 21  2  0
 21 22  1  0
 22 23  2  0
 23 24  1  0
 24 25  1  0
 25 26  1  0
 26 27  1  0
 27 28  1  0
 23 29  1  0
 29 30  2  0
 19 31  2  0
 10  2  1  0
 31 15  1  0
 30 20  1  0
 28 24  1  0
  1 32  1  0
  1 33  1  0
  1 34  1  0
  3 35  1  0
  4 36  1  0
  9 37  1  0
 14 38  1  0
 16 39  1  0
 17 40  1  0
 18 41  1  0
 21 42  1  0
 22 43  1  0
 25 44  1  0
 25 45  1  0
 26 46  1  0
 26 47  1  0
 27 48  1  0
 27 49  1  0
 28 50  1  0
 28 51  1  0
 31 52  1  0
M  CHG  2   6   1   8  -1
M  END
$$$$
