
     RDKit          3D

 38 39  0  0  0  0  0  0  0  0999 V2000
   -4.8330   -3.2827   -0.8628 O   0  0  0  0  0  0  0  0  0  0  0  0
   -4.4533   -2.9822    0.2556 C   0  0  0  0  0  0  0  0  0  0  0  0
   -5.1712   -3.3379    1.3395 O   0  0  0  0  0  0  0  0  0  0  0  0
   -3.2202   -2.2114    0.6282 C   0  0  0  0  0  0  0  0  0  0  0  0
   -2.4090   -1.8367   -0.6064 C   0  0  0  0  0  0  0  0  0  0  0  0
   -1.2309   -0.9599   -0.2163 C   0  0  0  0  0  0  0  0  0  0  0  0
   -0.3203   -1.4853    0.5561 N   0  0  0  0  0  0  0  0  0  0  0  0
    0.8209   -0.7672    0.7999 N   0  0  0  0  0  0  0  0  0  0  0  0
    1.7194   -0.4941   -0.2303 C   0  0  0  0  0  0  0  0  0  0  0  0
    1.5188   -0.6664   -1.4291 O   0  0  0  0  0  0  0  0  0  0  0  0
    2.9979    0.1272    0.1929 C   0  0  0  0  0  0  0  0  0  0  0  0
    3.3770    1.2877   -0.5020 C   0  0  0  0  0  0  0  0  0  0  0  0
    4.5545    1.9587   -0.1714 C   0  0  0  0  0  0  0  0  0  0  0  0
    5.3662    1.4713    0.8497 C   0  0  0  0  0  0  0  0  0  0  0  0
    5.0063    0.3087    1.5343 C   0  0  0  0  0  0  0  0  0  0  0  0
    3.8256   -0.3701    1.2069 C   0  0  0  0  0  0  0  0  0  0  0  0
    3.4682   -1.9765    2.1539 Br  0  0  0  0  0  0  0  0  0  0  0  0
   -1.2668    0.4457   -0.6979 C   0  0  0  0  0  0  0  0  0  0  0  0
   -1.2694    1.4896    0.2329 C   0  0  0  0  0  0  0  0  0  0  0  0
   -1.3264    2.8107   -0.2111 C   0  0  0  0  0  0  0  0  0  0  0  0
   -1.3827    3.0847   -1.5787 C   0  0  0  0  0  0  0  0  0  0  0  0
   -1.3810    2.0405   -2.5054 C   0  0  0  0  0  0  0  0  0  0  0  0
   -1.3261    0.7172   -2.0670 C   0  0  0  0  0  0  0  0  0  0  0  0
   -5.9320   -3.8316    0.9679 H   0  0  0  0  0  0  0  0  0  0  0  0
   -3.5281   -1.3060    1.1636 H   0  0  0  0  0  0  0  0  0  0  0  0
   -2.6183   -2.8289    1.3042 H   0  0  0  0  0  0  0  0  0  0  0  0
   -3.0471   -1.3237   -1.3344 H   0  0  0  0  0  0  0  0  0  0  0  0
   -2.0204   -2.7366   -1.0984 H   0  0  0  0  0  0  0  0  0  0  0  0
    1.2399   -0.9762    1.7020 H   0  0  0  0  0  0  0  0  0  0  0  0
    2.7470    1.6703   -1.3044 H   0  0  0  0  0  0  0  0  0  0  0  0
    4.8383    2.8574   -0.7141 H   0  0  0  0  0  0  0  0  0  0  0  0
    6.2873    1.9900    1.1062 H   0  0  0  0  0  0  0  0  0  0  0  0
    5.6632   -0.0668    2.3162 H   0  0  0  0  0  0  0  0  0  0  0  0
   -1.2292    1.2753    1.2974 H   0  0  0  0  0  0  0  0  0  0  0  0
   -1.3276    3.6265    0.5071 H   0  0  0  0  0  0  0  0  0  0  0  0
   -1.4246    4.1147   -1.9246 H   0  0  0  0  0  0  0  0  0  0  0  0
   -1.4144    2.2569   -3.5702 H   0  0  0  0  0  0  0  0  0  0  0  0
   -1.2987   -0.0928   -2.7915 H   0  0  0  0  0  0  0  0  0  0  0  0
  1  2  2  0
  2  3  1  0
  2  4  1  0
  4  5  1  0
  5  6  1  0
  6  7  2  3
  7  8  1  0
  8  9  1  0
  9 10  2  0
  9 11  1  0
 11 12  2  0
 12 13  1  0
 13 14  2  0
 14 15  1  0
 15 16  2  0
 16 17  1  0
  6 18  1  0
 18 19  2  0
 19 20  1  0
 20 21  2  0
 21 22  1  0
 22 23  2  0
 16 11  1  0
 23 18  1  0
  3 24  1  0
  4 25  1  0
  4 26  1  0
  5 27  1  0
  5 28  1  0
  8 29  1  0
 12 30  1  0
 13 31  1  0
 14 32  1  0
 15 33  1  0
 19 34  1  0
 20 35  1  0
 21 36  1  0
 22 37  1  0
 23 38  1  0
M  END
$$$$
