
     RDKit          3D

 61 65  0  0  0  0  0  0  0  0999 V2000
    2.1852    0.3429   -2.0455 C   0  0  0  0  0  0  0  0  0  0  0  0
    2.8585   -0.8662   -1.5055 C   0  0  0  0  0  0  0  0  0  0  0  0
    2.2810   -2.0009   -0.9589 C   0  0  0  0  0  0  0  0  0  0  0  0
    0.8341   -2.3159   -0.7033 C   0  0  0  0  0  0  0  0  0  0  0  0
    0.4321   -1.9865    0.7388 C   0  0  0  0  0  0  0  0  0  0  0  0
   -0.9365   -1.5582    0.8088 O   0  0  0  0  0  0  0  0  0  0  0  0
   -1.1504   -0.2496    0.4806 C   0  0  0  0  0  0  0  0  0  0  0  0
   -0.2652    0.5009    0.0859 O   0  0  0  0  0  0  0  0  0  0  0  0
   -2.6152    0.1354    0.6701 C   0  0  0  0  0  0  0  0  0  0  0  0
   -2.9971    0.0355    2.1633 C   0  0  0  0  0  0  0  0  0  0  0  0
   -4.4698    0.4297    2.3656 C   0  0  0  0  0  0  0  0  0  0  0  0
   -4.6799    1.8752    1.8881 C   0  0  0  0  0  0  0  0  0  0  0  0
   -4.3192    1.9948    0.3995 C   0  0  0  0  0  0  0  0  0  0  0  0
   -5.2179    1.0538   -0.4185 C   0  0  0  0  0  0  0  0  0  0  0  0
   -5.0208   -0.4099    0.0376 C   0  0  0  0  0  0  0  0  0  0  0  0
   -5.9209   -1.3439   -0.7771 C   0  0  0  0  0  0  0  0  0  0  0  0
   -5.3655   -0.5121    1.5425 C   0  0  0  0  0  0  0  0  0  0  0  0
   -3.5346   -0.7946   -0.1558 C   0  0  0  0  0  0  0  0  0  0  0  0
   -2.8487    1.5922    0.2008 C   0  0  0  0  0  0  0  0  0  0  0  0
    3.4978   -3.1364   -0.5303 S   0  0  0  0  0  0  0  0  0  0  0  0
    4.7405   -2.0798   -1.0337 C   0  0  0  0  0  0  0  0  0  0  0  0
    4.2498   -0.9382   -1.4927 N   0  0  0  0  0  4  0  0  0  0  0  0
    5.1555    0.1239   -1.9566 C   0  0  0  0  0  0  0  0  0  0  0  0
    5.9643    0.6622   -0.7993 C   0  0  0  0  0  0  0  0  0  0  0  0
    7.3668    0.6088   -0.8326 C   0  0  0  0  0  0  0  0  0  0  0  0
    8.1188    1.1108    0.2297 C   0  0  0  0  0  0  0  0  0  0  0  0
    7.4813    1.6759    1.3313 C   0  0  0  0  0  0  0  0  0  0  0  0
    6.0912    1.7435    1.3728 C   0  0  0  0  0  0  0  0  0  0  0  0
    5.3340    1.2438    0.3129 C   0  0  0  0  0  0  0  0  0  0  0  0
    2.5283    0.5588   -3.0628 H   0  0  0  0  0  0  0  0  0  0  0  0
    2.3833    1.2110   -1.4092 H   0  0  0  0  0  0  0  0  0  0  0  0
    1.1017    0.2116   -2.1065 H   0  0  0  0  0  0  0  0  0  0  0  0
    0.6323   -3.3768   -0.9000 H   0  0  0  0  0  0  0  0  0  0  0  0
    0.2063   -1.7735   -1.4187 H   0  0  0  0  0  0  0  0  0  0  0  0
    0.5250   -2.8841    1.3627 H   0  0  0  0  0  0  0  0  0  0  0  0
    1.0803   -1.2275    1.1979 H   0  0  0  0  0  0  0  0  0  0  0  0
   -2.3485    0.6878    2.7641 H   0  0  0  0  0  0  0  0  0  0  0  0
   -2.8360   -0.9844    2.5378 H   0  0  0  0  0  0  0  0  0  0  0  0
   -4.7291    0.3496    3.4274 H   0  0  0  0  0  0  0  0  0  0  0  0
   -4.0592    2.5600    2.4778 H   0  0  0  0  0  0  0  0  0  0  0  0
   -5.7232    2.1743    2.0476 H   0  0  0  0  0  0  0  0  0  0  0  0
   -4.4673    3.0278    0.0659 H   0  0  0  0  0  0  0  0  0  0  0  0
   -4.9821    1.1542   -1.4858 H   0  0  0  0  0  0  0  0  0  0  0  0
   -6.2683    1.3510   -0.2988 H   0  0  0  0  0  0  0  0  0  0  0  0
   -6.9780   -1.0827   -0.6525 H   0  0  0  0  0  0  0  0  0  0  0  0
   -5.7960   -2.3861   -0.4621 H   0  0  0  0  0  0  0  0  0  0  0  0
   -5.6861   -1.2863   -1.8461 H   0  0  0  0  0  0  0  0  0  0  0  0
   -6.4201   -0.2555    1.7079 H   0  0  0  0  0  0  0  0  0  0  0  0
   -5.2345   -1.5435    1.8943 H   0  0  0  0  0  0  0  0  0  0  0  0
   -3.3864   -1.8421    0.1410 H   0  0  0  0  0  0  0  0  0  0  0  0
   -3.2610   -0.7395   -1.2185 H   0  0  0  0  0  0  0  0  0  0  0  0
   -2.5736    1.7004   -0.8569 H   0  0  0  0  0  0  0  0  0  0  0  0
   -2.1999    2.2806    0.7588 H   0  0  0  0  0  0  0  0  0  0  0  0
    5.7945   -2.3207   -0.9625 H   0  0  0  0  0  0  0  0  0  0  0  0
    4.6168    0.9502   -2.4267 H   0  0  0  0  0  0  0  0  0  0  0  0
    5.8058   -0.3070   -2.7284 H   0  0  0  0  0  0  0  0  0  0  0  0
    7.8986    0.1838   -1.6832 H   0  0  0  0  0  0  0  0  0  0  0  0
    9.2054    1.0742    0.1974 H   0  0  0  0  0  0  0  0  0  0  0  0
    8.0701    2.0734    2.1556 H   0  0  0  0  0  0  0  0  0  0  0  0
    5.6004    2.1985    2.2317 H   0  0  0  0  0  0  0  0  0  0  0  0
    4.2511    1.3254    0.3734 H   0  0  0  0  0  0  0  0  0  0  0  0
  1  2  1  0
  2  3  2  0
  3  4  1  0
  4  5  1  0
  5  6  1  0
  6  7  1  0
  7  8  2  0
  7  9  1  0
  9 10  1  0
 10 11  1  0
 11 12  1  0
 12 13  1  0
 13 14  1  0
 14 15  1  0
 15 16  1  0
 15 17  1  0
 15 18  1  0
 13 19  1  0
  3 20  1  0
 20 21  1  0
 21 22  2  0
 22 23  1  0
 23 24  1  0
 24 25  2  0
 25 26  1  0
 26 27  2  0
 27 28  1  0
 28 29  2  0
 22  2  1  0
 29 24  1  0
 18  9  1  0
 19  9  1  0
 17 11  1  0
  1 30  1  0
  1 31  1  0
  1 32  1  0
  4 33  1  0
  4 34  1  0
  5 35  1  0
  5 36  1  0
 10 37  1  0
 10 38  1  0
 11 39  1  0
 12 40  1  0
 12 41  1  0
 13 42  1  0
 14 43  1  0
 14 44  1  0
 16 45  1  0
 16 46  1  0
 16 47  1  0
 17 48  1  0
 17 49  1  0
 18 50  1  0
 18 51  1  0
 19 52  1  0
 19 53  1  0
 21 54  1  0
 23 55  1  0
 23 56  1  0
 25 57  1  0
 26 58  1  0
 27 59  1  0
 28 60  1  0
 29 61  1  0
M  CHG  1  22   1
M  END
$$$$
