
     RDKit          3D

 42 44  0  0  0  0  0  0  0  0999 V2000
    4.1411   -1.0638    0.5228 C   0  0  0  0  0  0  0  0  0  0  0  0
    3.5344    0.3307    0.4935 C   0  0  0  0  0  0  0  0  0  0  0  0
    2.3619    0.5051    1.4622 C   0  0  0  0  0  0  0  0  0  0  0  0
    1.1240   -0.3461    1.1547 C   0  0  0  0  0  0  0  0  0  0  0  0
    0.3843   -0.0562   -0.1802 C   0  0  0  0  0  0  0  0  0  0  0  0
   -0.5905   -1.1949   -0.4231 C   0  0  0  0  0  0  0  0  0  0  0  0
   -1.9100   -1.0624   -0.1968 C   0  0  0  0  0  0  0  0  0  0  0  0
   -2.9116   -2.1694   -0.3496 C   0  0  0  0  0  0  0  0  0  0  0  0
   -2.2490   -3.5418   -0.3231 C   0  0  0  0  0  0  0  0  0  0  0  0
   -1.0576   -3.5907   -1.2656 C   0  0  0  0  0  0  0  0  0  0  0  0
   -0.0706   -2.4829   -0.9648 C   0  0  0  0  0  0  0  0  0  0  0  0
    1.1252   -2.6158   -1.2162 O   0  0  0  0  0  0  0  0  0  0  0  0
   -2.4597    0.1408    0.2273 O   0  0  0  0  0  0  0  0  0  0  0  0
   -1.7042    1.2996    0.0878 C   0  0  0  0  0  0  0  0  0  0  0  0
   -0.3751    1.2576   -0.1315 C   0  0  0  0  0  0  0  0  0  0  0  0
    0.3399    2.5361   -0.4077 C   0  0  0  0  0  0  0  0  0  0  0  0
    1.4998    2.5351   -0.8116 O   0  0  0  0  0  0  0  0  0  0  0  0
   -0.3883    3.8350   -0.1415 C   0  0  0  0  0  0  0  0  0  0  0  0
   -1.8439    3.7247   -0.5585 C   0  0  0  0  0  0  0  0  0  0  0  0
   -2.5245    2.5569    0.1442 C   0  0  0  0  0  0  0  0  0  0  0  0
    5.0312   -1.0991   -0.1136 H   0  0  0  0  0  0  0  0  0  0  0  0
    3.4394   -1.8154    0.1515 H   0  0  0  0  0  0  0  0  0  0  0  0
    4.4408   -1.3413    1.5383 H   0  0  0  0  0  0  0  0  0  0  0  0
    3.2356    0.5722   -0.5308 H   0  0  0  0  0  0  0  0  0  0  0  0
    4.3148    1.0509    0.7677 H   0  0  0  0  0  0  0  0  0  0  0  0
    2.0857    1.5630    1.5123 H   0  0  0  0  0  0  0  0  0  0  0  0
    2.7073    0.2473    2.4720 H   0  0  0  0  0  0  0  0  0  0  0  0
    1.4197   -1.4016    1.2013 H   0  0  0  0  0  0  0  0  0  0  0  0
    0.4190   -0.2119    1.9881 H   0  0  0  0  0  0  0  0  0  0  0  0
    1.0875   -0.0286   -1.0203 H   0  0  0  0  0  0  0  0  0  0  0  0
   -3.4531   -2.0300   -1.2929 H   0  0  0  0  0  0  0  0  0  0  0  0
   -3.6505   -2.1195    0.4589 H   0  0  0  0  0  0  0  0  0  0  0  0
   -1.9147   -3.7636    0.6990 H   0  0  0  0  0  0  0  0  0  0  0  0
   -2.9772   -4.3137   -0.5959 H   0  0  0  0  0  0  0  0  0  0  0  0
   -1.3777   -3.4904   -2.3085 H   0  0  0  0  0  0  0  0  0  0  0  0
   -0.5466   -4.5528   -1.1510 H   0  0  0  0  0  0  0  0  0  0  0  0
    0.0945    4.6326   -0.7166 H   0  0  0  0  0  0  0  0  0  0  0  0
   -0.2936    4.0742    0.9233 H   0  0  0  0  0  0  0  0  0  0  0  0
   -2.3739    4.6568   -0.3331 H   0  0  0  0  0  0  0  0  0  0  0  0
   -1.9023    3.5770   -1.6449 H   0  0  0  0  0  0  0  0  0  0  0  0
   -2.7094    2.8078    1.1957 H   0  0  0  0  0  0  0  0  0  0  0  0
   -3.5021    2.3885   -0.3231 H   0  0  0  0  0  0  0  0  0  0  0  0
  1  2  1  0
  2  3  1  0
  3  4  1  0
  4  5  1  0
  5  6  1  0
  6  7  2  0
  7  8  1  0
  8  9  1  0
  9 10  1  0
 10 11  1  0
 11 12  2  0
  7 13  1  0
 13 14  1  0
 14 15  2  0
 15 16  1  0
 16 17  2  0
 16 18  1  0
 18 19  1  0
 19 20  1  0
 15  5  1  0
 11  6  1  0
 20 14  1  0
  1 21  1  0
  1 22  1  0
  1 23  1  0
  2 24  1  0
  2 25  1  0
  3 26  1  0
  3 27  1  0
  4 28  1  0
  4 29  1  0
  5 30  1  0
  8 31  1  0
  8 32  1  0
  9 33  1  0
  9 34  1  0
 10 35  1  0
 10 36  1  0
 18 37  1  0
 18 38  1  0
 19 39  1  0
 19 40  1  0
 20 41  1  0
 20 42  1  0
M  END
$$$$
