
     RDKit          3D

 55 57  0  0  0  0  0  0  0  0999 V2000
   -7.4041   -2.6826    0.9188 C   0  0  0  0  0  0  0  0  0  0  0  0
   -6.7499   -1.3475    0.7165 C   0  0  0  0  0  0  0  0  0  0  0  0
   -7.4791   -0.1687    0.8947 C   0  0  0  0  0  0  0  0  0  0  0  0
   -6.8857    1.0754    0.6670 C   0  0  0  0  0  0  0  0  0  0  0  0
   -5.5482    1.1713    0.2548 C   0  0  0  0  0  0  0  0  0  0  0  0
   -4.9495    2.5312    0.0228 C   0  0  0  0  0  0  0  0  0  0  0  0
   -4.8199   -0.0158    0.0553 C   0  0  0  0  0  0  0  0  0  0  0  0
   -3.4074    0.0230   -0.4099 C   0  0  0  0  0  0  0  0  0  0  0  0
   -3.0882    0.7506   -1.3474 O   0  0  0  0  0  0  0  0  0  0  0  0
   -2.4111   -0.8715    0.3233 C   0  0  0  0  0  0  0  0  0  0  0  0
   -1.0612   -0.4363    0.1499 O   0  0  0  0  0  0  0  0  0  0  0  0
   -0.7544    0.6959    0.8299 C   0  0  0  0  0  0  0  0  0  0  0  0
   -1.4844    1.2690    1.6236 O   0  0  0  0  0  0  0  0  0  0  0  0
    0.6224    1.1534    0.4982 C   0  0  0  0  0  0  0  0  0  0  0  0
    1.0921    2.3226    1.1053 C   0  0  0  0  0  0  0  0  0  0  0  0
    2.3762    2.7990    0.8276 C   0  0  0  0  0  0  0  0  0  0  0  0
    3.2278    2.1134   -0.0539 C   0  0  0  0  0  0  0  0  0  0  0  0
    4.5862    2.6952   -0.3336 C   0  0  0  0  0  0  0  0  0  0  0  0
    2.7488    0.9353   -0.6606 C   0  0  0  0  0  0  0  0  0  0  0  0
    3.7500   -0.0056   -1.8020 S   0  0  0  0  0  6  0  0  0  0  0  0
    2.9806   -1.1413   -2.2669 O   0  0  0  0  0  0  0  0  0  0  0  0
    4.3445    0.9170   -2.7440 O   0  0  0  0  0  0  0  0  0  0  0  0
    4.9872   -0.6300   -0.8040 N   0  0  0  0  0  0  0  0  0  0  0  0
    6.1103   -1.2707   -1.5703 C   0  0  0  0  0  0  0  0  0  0  0  0
    6.0449   -2.7970   -1.4693 C   0  0  0  0  0  0  0  0  0  0  0  0
    6.1730   -3.2767   -0.1223 O   0  0  0  0  0  0  0  0  0  0  0  0
    5.6735   -2.3554    0.8562 C   0  0  0  0  0  0  0  0  0  0  0  0
    4.5215   -1.4925    0.3322 C   0  0  0  0  0  0  0  0  0  0  0  0
    1.4527    0.4625   -0.3911 C   0  0  0  0  0  0  0  0  0  0  0  0
   -5.4217   -1.2647    0.2810 C   0  0  0  0  0  0  0  0  0  0  0  0
   -8.1826   -2.6240    1.6867 H   0  0  0  0  0  0  0  0  0  0  0  0
   -6.6744   -3.4277    1.2529 H   0  0  0  0  0  0  0  0  0  0  0  0
   -7.8555   -3.0237   -0.0178 H   0  0  0  0  0  0  0  0  0  0  0  0
   -8.5204   -0.2084    1.2088 H   0  0  0  0  0  0  0  0  0  0  0  0
   -7.4796    1.9757    0.8143 H   0  0  0  0  0  0  0  0  0  0  0  0
   -5.5740    3.3189    0.4584 H   0  0  0  0  0  0  0  0  0  0  0  0
   -3.9659    2.6103    0.4967 H   0  0  0  0  0  0  0  0  0  0  0  0
   -4.8602    2.7284   -1.0499 H   0  0  0  0  0  0  0  0  0  0  0  0
   -2.4769   -1.8756   -0.1076 H   0  0  0  0  0  0  0  0  0  0  0  0
   -2.6526   -0.9407    1.3903 H   0  0  0  0  0  0  0  0  0  0  0  0
    0.4547    2.8780    1.7920 H   0  0  0  0  0  0  0  0  0  0  0  0
    2.7046    3.7213    1.3054 H   0  0  0  0  0  0  0  0  0  0  0  0
    4.8225    3.5034    0.3676 H   0  0  0  0  0  0  0  0  0  0  0  0
    5.3730    1.9458   -0.2166 H   0  0  0  0  0  0  0  0  0  0  0  0
    4.6189    3.1178   -1.3421 H   0  0  0  0  0  0  0  0  0  0  0  0
    7.0469   -0.9006   -1.1362 H   0  0  0  0  0  0  0  0  0  0  0  0
    6.1028   -0.9672   -2.6216 H   0  0  0  0  0  0  0  0  0  0  0  0
    6.8530   -3.2487   -2.0533 H   0  0  0  0  0  0  0  0  0  0  0  0
    5.0985   -3.1747   -1.8727 H   0  0  0  0  0  0  0  0  0  0  0  0
    6.5094   -1.7277    1.1865 H   0  0  0  0  0  0  0  0  0  0  0  0
    5.3440   -2.9419    1.7197 H   0  0  0  0  0  0  0  0  0  0  0  0
    4.1585   -0.8477    1.1386 H   0  0  0  0  0  0  0  0  0  0  0  0
    3.7067   -2.1460    0.0022 H   0  0  0  0  0  0  0  0  0  0  0  0
    1.0924   -0.4395   -0.8820 H   0  0  0  0  0  0  0  0  0  0  0  0
   -4.8704   -2.1838    0.0976 H   0  0  0  0  0  0  0  0  0  0  0  0
  1  2  1  0
  2  3  2  0
  3  4  1  0
  4  5  2  0
  5  6  1  0
  5  7  1  0
  7  8  1  0
  8  9  2  0
  8 10  1  0
 10 11  1  0
 11 12  1  0
 12 13  2  0
 12 14  1  0
 14 15  2  0
 15 16  1  0
 16 17  2  0
 17 18  1  0
 17 19  1  0
 19 20  1  0
 20 21  2  0
 20 22  2  0
 20 23  1  0
 23 24  1  0
 24 25  1  0
 25 26  1  0
 26 27  1  0
 27 28  1  0
 19 29  2  0
  7 30  2  0
 30  2  1  0
 29 14  1  0
 28 23  1  0
  1 31  1  0
  1 32  1  0
  1 33  1  0
  3 34  1  0
  4 35  1  0
  6 36  1  0
  6 37  1  0
  6 38  1  0
 10 39  1  0
 10 40  1  0
 15 41  1  0
 16 42  1  0
 18 43  1  0
 18 44  1  0
 18 45  1  0
 24 46  1  0
 24 47  1  0
 25 48  1  0
 25 49  1  0
 27 50  1  0
 27 51  1  0
 28 52  1  0
 28 53  1  0
 29 54  1  0
 30 55  1  0
M  END
$$$$
