
     RDKit          3D

 42 42  0  0  0  0  0  0  0  0999 V2000
   -0.9487   -4.1872    1.9042 C   0  0  0  0  0  0  0  0  0  0  0  0
   -1.0689   -2.9685    1.0011 C   0  0  0  0  0  0  0  0  0  0  0  0
   -1.4930   -1.7306    1.7896 C   0  0  0  0  0  0  0  0  0  0  0  0
   -1.7943   -0.4925    0.9317 C   0  0  0  0  0  0  0  0  0  0  0  0
   -0.6798    0.1086    0.0419 C   0  0  0  0  0  0  0  0  0  0  0  0
   -1.1405    1.4974   -0.3830 C   0  0  0  0  0  0  0  0  0  0  0  0
   -0.6123    2.5373   -0.0072 O   0  0  0  0  0  0  0  0  0  0  0  0
   -2.2176    1.4372   -1.2090 O   0  0  0  0  0  0  0  0  0  0  0  0
   -2.7544    2.6900   -1.6605 C   0  0  0  0  0  0  0  0  0  0  0  0
   -3.8242    3.1642   -0.6956 C   0  0  0  0  0  0  0  0  0  0  0  0
    0.6966    0.1785    0.7056 C   0  0  0  0  0  0  0  0  0  0  0  0
    1.6804    0.0154   -0.4436 C   0  0  0  0  0  0  0  0  0  0  0  0
    2.1514    1.3394   -1.0623 C   0  0  0  0  0  0  0  0  0  0  0  0
    3.4825    1.1068   -2.2927 S   0  0  0  0  0  0  0  0  0  0  0  0
    4.7604    0.6414   -1.2251 C   0  0  0  0  0  0  0  0  0  0  0  0
    5.3570    1.5284   -0.5188 N   0  0  0  0  0  0  0  0  0  0  0  0
    5.0885   -0.6645   -1.2000 N   0  0  0  0  0  0  0  0  0  0  0  0
    0.9686   -0.7708   -1.4088 O   0  0  0  0  0  0  0  0  0  0  0  0
   -0.3780   -0.7197   -1.1813 C   0  0  0  0  0  0  0  0  0  0  0  0
   -1.1934   -1.2822   -1.8951 O   0  0  0  0  0  0  0  0  0  0  0  0
   -0.6277   -5.0582    1.3240 H   0  0  0  0  0  0  0  0  0  0  0  0
   -1.9101   -4.4260    2.3695 H   0  0  0  0  0  0  0  0  0  0  0  0
   -0.2132   -4.0175    2.6972 H   0  0  0  0  0  0  0  0  0  0  0  0
   -0.1005   -2.8025    0.5204 H   0  0  0  0  0  0  0  0  0  0  0  0
   -1.8006   -3.1794    0.2134 H   0  0  0  0  0  0  0  0  0  0  0  0
   -2.4086   -1.9706    2.3470 H   0  0  0  0  0  0  0  0  0  0  0  0
   -0.7420   -1.4923    2.5510 H   0  0  0  0  0  0  0  0  0  0  0  0
   -2.1433    0.2883    1.6221 H   0  0  0  0  0  0  0  0  0  0  0  0
   -2.6638   -0.7304    0.3034 H   0  0  0  0  0  0  0  0  0  0  0  0
   -3.1948    2.5149   -2.6479 H   0  0  0  0  0  0  0  0  0  0  0  0
   -1.9688    3.4438   -1.7842 H   0  0  0  0  0  0  0  0  0  0  0  0
   -4.6076    2.4059   -0.5877 H   0  0  0  0  0  0  0  0  0  0  0  0
   -3.4060    3.3321    0.3023 H   0  0  0  0  0  0  0  0  0  0  0  0
   -4.2787    4.0946   -1.0474 H   0  0  0  0  0  0  0  0  0  0  0  0
    0.8528   -0.6665    1.3834 H   0  0  0  0  0  0  0  0  0  0  0  0
    0.8802    1.0814    1.2965 H   0  0  0  0  0  0  0  0  0  0  0  0
    2.5343   -0.5696   -0.0859 H   0  0  0  0  0  0  0  0  0  0  0  0
    1.3365    1.8225   -1.6078 H   0  0  0  0  0  0  0  0  0  0  0  0
    2.5022    2.0295   -0.2884 H   0  0  0  0  0  0  0  0  0  0  0  0
    4.9449    2.4388   -0.7497 H   0  0  0  0  0  0  0  0  0  0  0  0
    6.0203   -0.8147   -0.8294 H   0  0  0  0  0  0  0  0  0  0  0  0
    4.9146   -1.1528   -2.0697 H   0  0  0  0  0  0  0  0  0  0  0  0
  1  2  1  0
  2  3  1  0
  3  4  1  0
  4  5  1  0
  5  6  1  0
  6  7  2  0
  6  8  1  0
  8  9  1  0
  9 10  1  0
  5 11  1  0
 11 12  1  0
 12 13  1  0
 13 14  1  0
 14 15  1  0
 15 16  2  3
 15 17  1  0
 12 18  1  0
 18 19  1  0
 19 20  2  0
 19  5  1  0
  1 21  1  0
  1 22  1  0
  1 23  1  0
  2 24  1  0
  2 25  1  0
  3 26  1  0
  3 27  1  0
  4 28  1  0
  4 29  1  0
  9 30  1  0
  9 31  1  0
 10 32  1  0
 10 33  1  0
 10 34  1  0
 11 35  1  0
 11 36  1  0
 12 37  1  0
 13 38  1  0
 13 39  1  0
 16 40  1  0
 17 41  1  0
 17 42  1  0
M  END
$$$$
