
     RDKit          3D

 44 46  0  0  0  0  0  0  0  0999 V2000
    2.8706    4.1228   -3.2420 C   0  0  0  0  0  0  0  0  0  0  0  0
    3.1295    3.1178   -2.2155 N   0  0  0  0  0  0  0  0  0  0  0  0
    2.9970    1.7581   -2.7753 C   0  0  0  0  0  0  0  0  0  0  0  0
    2.7153    0.6706   -1.7156 C   0  0  0  0  0  0  0  0  0  0  0  0
    1.4383    0.9144   -1.0008 N   0  0  0  0  0  0  0  0  0  0  0  0
    0.7515   -0.0855   -0.2833 C   0  0  0  0  0  0  0  0  0  0  0  0
   -0.5182    0.0591    0.1548 C   0  0  0  0  0  0  0  0  0  0  0  0
   -1.2364   -0.9097    0.9691 C   0  0  0  0  0  0  0  0  0  0  0  0
   -2.5359   -0.7293    1.2739 C   0  0  0  0  0  0  0  0  0  0  0  0
   -3.3148   -1.6439    2.1168 C   0  0  0  0  0  0  0  0  0  0  0  0
   -4.6393   -1.4721    2.3666 C   0  0  0  0  0  0  0  0  0  0  0  0
   -5.3886   -0.3909    1.8125 C   0  0  0  0  0  0  0  0  0  0  0  0
   -5.9895    0.4908    1.3539 N   0  0  0  0  0  0  0  0  0  0  0  0
   -5.3540   -2.3589    3.2254 C   0  0  0  0  0  0  0  0  0  0  0  0
   -5.9214   -3.0863    3.9297 N   0  0  0  0  0  0  0  0  0  0  0  0
   -2.5198   -2.8010    2.7127 C   0  0  0  0  0  0  0  0  0  0  0  0
   -1.3877   -3.2706    1.8007 C   0  0  0  0  0  0  0  0  0  0  0  0
   -0.4523   -2.1072    1.4551 C   0  0  0  0  0  0  0  0  0  0  0  0
    0.5738   -2.5446    0.4105 C   0  0  0  0  0  0  0  0  0  0  0  0
    1.4905   -1.3851    0.0163 C   0  0  0  0  0  0  0  0  0  0  0  0
    1.0358    2.3432   -0.9668 C   0  0  0  0  0  0  0  0  0  0  0  0
    2.2551    3.2913   -1.0384 C   0  0  0  0  0  0  0  0  0  0  0  0
    3.0581    5.1274   -2.8497 H   0  0  0  0  0  0  0  0  0  0  0  0
    3.5495    3.9874   -4.0916 H   0  0  0  0  0  0  0  0  0  0  0  0
    1.8395    4.0839   -3.6132 H   0  0  0  0  0  0  0  0  0  0  0  0
    2.1820    1.7222   -3.5120 H   0  0  0  0  0  0  0  0  0  0  0  0
    3.9220    1.5070   -3.3074 H   0  0  0  0  0  0  0  0  0  0  0  0
    3.5373    0.6216   -0.9906 H   0  0  0  0  0  0  0  0  0  0  0  0
    2.6716   -0.2857   -2.2491 H   0  0  0  0  0  0  0  0  0  0  0  0
   -1.0676    0.9596   -0.1024 H   0  0  0  0  0  0  0  0  0  0  0  0
   -3.0383    0.1532    0.8779 H   0  0  0  0  0  0  0  0  0  0  0  0
   -2.1033   -2.4845    3.6790 H   0  0  0  0  0  0  0  0  0  0  0  0
   -3.1618   -3.6686    2.9052 H   0  0  0  0  0  0  0  0  0  0  0  0
   -1.8157   -3.7029    0.8849 H   0  0  0  0  0  0  0  0  0  0  0  0
   -0.8237   -4.0711    2.2953 H   0  0  0  0  0  0  0  0  0  0  0  0
    0.0860   -1.8070    2.3656 H   0  0  0  0  0  0  0  0  0  0  0  0
    0.0631   -2.9196   -0.4870 H   0  0  0  0  0  0  0  0  0  0  0  0
    1.1809   -3.3726    0.7951 H   0  0  0  0  0  0  0  0  0  0  0  0
    2.0645   -1.7254   -0.8502 H   0  0  0  0  0  0  0  0  0  0  0  0
    2.2094   -1.1915    0.8232 H   0  0  0  0  0  0  0  0  0  0  0  0
    0.3510    2.5415   -1.7996 H   0  0  0  0  0  0  0  0  0  0  0  0
    0.5049    2.5713   -0.0349 H   0  0  0  0  0  0  0  0  0  0  0  0
    2.8763    3.1054   -0.1522 H   0  0  0  0  0  0  0  0  0  0  0  0
    1.9148    4.3301   -0.9465 H   0  0  0  0  0  0  0  0  0  0  0  0
  1  2  1  0
  2  3  1  0
  3  4  1  0
  4  5  1  0
  5  6  1  0
  6  7  2  0
  7  8  1  0
  8  9  2  0
  9 10  1  0
 10 11  2  3
 11 12  1  0
 12 13  3  0
 11 14  1  0
 14 15  3  0
 10 16  1  0
 16 17  1  0
 17 18  1  0
 18 19  1  0
 19 20  1  0
  5 21  1  0
 21 22  1  0
 22  2  1  0
 20  6  1  0
 18  8  1  0
  1 23  1  0
  1 24  1  0
  1 25  1  0
  3 26  1  0
  3 27  1  0
  4 28  1  0
  4 29  1  0
  7 30  1  0
  9 31  1  0
 16 32  1  0
 16 33  1  0
 17 34  1  0
 17 35  1  0
 18 36  1  0
 19 37  1  0
 19 38  1  0
 20 39  1  0
 20 40  1  0
 21 41  1  0
 21 42  1  0
 22 43  1  0
 22 44  1  0
M  END
$$$$
