
     RDKit          3D

 34 35  0  0  0  0  0  0  0  0999 V2000
   -3.8145   -2.5474    0.8387 C   0  0  0  0  0  0  0  0  0  0  0  0
   -3.4739   -1.1610    0.7675 O   0  0  0  0  0  0  0  0  0  0  0  0
   -3.4286   -0.7431   -0.5342 C   0  0  0  0  0  0  0  0  0  0  0  0
   -4.6186   -0.3883   -1.1730 C   0  0  0  0  0  0  0  0  0  0  0  0
   -4.5856    0.1050   -2.4793 C   0  0  0  0  0  0  0  0  0  0  0  0
   -3.3632    0.2544   -3.1365 C   0  0  0  0  0  0  0  0  0  0  0  0
   -3.3292    0.8634   -4.7449 Cl  0  0  0  0  0  0  0  0  0  0  0  0
   -2.1692   -0.0785   -2.5005 C   0  0  0  0  0  0  0  0  0  0  0  0
   -2.2062   -0.5682   -1.1891 C   0  0  0  0  0  0  0  0  0  0  0  0
   -0.9458   -0.9338   -0.5256 C   0  0  0  0  0  0  0  0  0  0  0  0
   -0.6646   -2.0765   -0.2028 O   0  0  0  0  0  0  0  0  0  0  0  0
   -0.2199    0.2148   -0.3952 O   0  0  0  0  0  0  0  0  0  0  0  0
    1.0249   -0.0726    0.1959 N   0  0  0  0  0  0  0  0  0  0  0  0
    1.7098    1.0099    0.4178 C   0  0  0  0  0  0  0  0  0  0  0  0
    1.2581    2.2699    0.0932 N   0  0  0  0  0  0  0  0  0  0  0  0
    3.0636    0.8635    1.0475 C   0  0  0  0  0  0  0  0  0  0  0  0
    3.7061   -0.3826    1.0374 C   0  0  0  0  0  0  0  0  0  0  0  0
    4.9699   -0.5291    1.6164 C   0  0  0  0  0  0  0  0  0  0  0  0
    5.5897    0.5680    2.2111 C   0  0  0  0  0  0  0  0  0  0  0  0
    7.1450    0.3895    2.9241 Cl  0  0  0  0  0  0  0  0  0  0  0  0
    4.9554    1.8095    2.2367 C   0  0  0  0  0  0  0  0  0  0  0  0
    3.6914    1.9583    1.6571 C   0  0  0  0  0  0  0  0  0  0  0  0
   -3.1801   -3.1579    0.1867 H   0  0  0  0  0  0  0  0  0  0  0  0
   -4.8699   -2.6982    0.5881 H   0  0  0  0  0  0  0  0  0  0  0  0
   -3.6599   -2.8776    1.8701 H   0  0  0  0  0  0  0  0  0  0  0  0
   -5.5681   -0.4844   -0.6525 H   0  0  0  0  0  0  0  0  0  0  0  0
   -5.5144    0.3764   -2.9755 H   0  0  0  0  0  0  0  0  0  0  0  0
   -1.2202    0.0326   -3.0188 H   0  0  0  0  0  0  0  0  0  0  0  0
    0.4388    2.2379   -0.5040 H   0  0  0  0  0  0  0  0  0  0  0  0
    1.9617    2.9066   -0.2636 H   0  0  0  0  0  0  0  0  0  0  0  0
    3.2264   -1.2464    0.5802 H   0  0  0  0  0  0  0  0  0  0  0  0
    5.4581   -1.5001    1.6021 H   0  0  0  0  0  0  0  0  0  0  0  0
    5.4342    2.6611    2.7131 H   0  0  0  0  0  0  0  0  0  0  0  0
    3.1988    2.9251    1.7120 H   0  0  0  0  0  0  0  0  0  0  0  0
  1  2  1  0
  2  3  1  0
  3  4  2  0
  4  5  1  0
  5  6  2  0
  6  7  1  0
  6  8  1  0
  8  9  2  0
  9 10  1  0
 10 11  2  0
 10 12  1  0
 12 13  1  0
 13 14  2  3
 14 15  1  0
 14 16  1  0
 16 17  2  0
 17 18  1  0
 18 19  2  0
 19 20  1  0
 19 21  1  0
 21 22  2  0
  9  3  1  0
 22 16  1  0
  1 23  1  0
  1 24  1  0
  1 25  1  0
  4 26  1  0
  5 27  1  0
  8 28  1  0
 15 29  1  0
 15 30  1  0
 17 31  1  0
 18 32  1  0
 21 33  1  0
 22 34  1  0
M  END
$$$$
