
     RDKit          3D

 67 69  0  0  0  0  0  0  0  0999 V2000
   -0.5840   -0.1576    2.5108 C   0  0  0  0  0  0  0  0  0  0  0  0
   -0.6564   -0.0285    0.9920 C   0  0  0  0  0  0  0  0  0  0  0  0
   -2.0430    0.1773    0.5756 N   0  0  0  0  0  0  0  0  0  0  0  0
   -2.9255   -0.8657    0.4294 C   0  0  0  0  0  0  0  0  0  0  0  0
   -2.5977   -2.0359    0.6021 O   0  0  0  0  0  0  0  0  0  0  0  0
   -4.3226   -0.5230    0.0337 C   0  0  0  0  0  0  0  0  0  0  0  0
   -5.1320   -1.5382   -0.4836 C   0  0  0  0  0  0  0  0  0  0  0  0
   -6.4642   -1.2835   -0.8345 C   0  0  0  0  0  0  0  0  0  0  0  0
   -7.0299   -0.0092   -0.6703 C   0  0  0  0  0  0  0  0  0  0  0  0
   -8.5003    0.2980   -1.0112 C   0  0  0  0  0  0  0  0  0  0  0  0
   -9.2216    0.8507    0.2387 C   0  0  0  0  0  0  0  0  0  0  0  0
   -9.3022   -0.9360   -1.4843 C   0  0  0  0  0  0  0  0  0  0  0  0
   -8.5607    1.3463   -2.1405 C   0  0  0  0  0  0  0  0  0  0  0  0
   -6.1971    1.0032   -0.1546 C   0  0  0  0  0  0  0  0  0  0  0  0
   -4.8650    0.7527    0.2000 C   0  0  0  0  0  0  0  0  0  0  0  0
    0.1613    1.1925    0.5153 C   0  0  0  0  0  0  0  0  0  0  0  0
   -0.4255    2.2036    0.1107 O   0  0  0  0  0  0  0  0  0  0  0  0
    1.5495    1.1401    0.6071 N   0  0  0  0  0  0  0  0  0  0  0  0
    2.3060   -0.1182    0.5830 C   0  0  0  0  0  0  0  0  0  0  0  0
    3.7353    0.0332    1.1497 C   0  0  0  0  0  0  0  0  0  0  0  0
    4.5104    1.1756    0.6181 N   0  0  0  0  0  0  0  0  0  0  0  0
    4.9547    0.9598   -0.7642 C   0  0  0  0  0  0  0  0  0  0  0  0
    6.1747    0.0888   -0.9154 C   0  0  0  0  0  0  0  0  0  0  0  0
    7.0200   -0.2859    0.0594 C   0  0  0  0  0  0  0  0  0  0  0  0
    8.2139   -1.1210   -0.1364 C   0  0  0  0  0  0  0  0  0  0  0  0
    9.0078   -1.0412   -1.2889 C   0  0  0  0  0  0  0  0  0  0  0  0
   10.1600   -1.8236   -1.4174 C   0  0  0  0  0  0  0  0  0  0  0  0
   10.5363   -2.6848   -0.3885 C   0  0  0  0  0  0  0  0  0  0  0  0
    9.7637   -2.7632    0.7685 C   0  0  0  0  0  0  0  0  0  0  0  0
    8.6116   -1.9821    0.8958 C   0  0  0  0  0  0  0  0  0  0  0  0
    3.6981    2.4025    0.7478 C   0  0  0  0  0  0  0  0  0  0  0  0
    2.2913    2.3114    0.1337 C   0  0  0  0  0  0  0  0  0  0  0  0
   -0.9434    0.7571    2.9979 H   0  0  0  0  0  0  0  0  0  0  0  0
    0.4387   -0.3268    2.8603 H   0  0  0  0  0  0  0  0  0  0  0  0
   -1.2036   -0.9871    2.8683 H   0  0  0  0  0  0  0  0  0  0  0  0
   -0.2923   -0.9339    0.4977 H   0  0  0  0  0  0  0  0  0  0  0  0
   -2.2710    1.1124    0.2547 H   0  0  0  0  0  0  0  0  0  0  0  0
   -4.7315   -2.5432   -0.6089 H   0  0  0  0  0  0  0  0  0  0  0  0
   -7.0423   -2.1157   -1.2269 H   0  0  0  0  0  0  0  0  0  0  0  0
   -9.1530    0.1420    1.0738 H   0  0  0  0  0  0  0  0  0  0  0  0
   -8.8007    1.8036    0.5773 H   0  0  0  0  0  0  0  0  0  0  0  0
  -10.2866    1.0275    0.0380 H   0  0  0  0  0  0  0  0  0  0  0  0
   -9.3126   -1.7262   -0.7248 H   0  0  0  0  0  0  0  0  0  0  0  0
  -10.3475   -0.6723   -1.6884 H   0  0  0  0  0  0  0  0  0  0  0  0
   -8.8894   -1.3556   -2.4092 H   0  0  0  0  0  0  0  0  0  0  0  0
   -8.0470    0.9853   -3.0397 H   0  0  0  0  0  0  0  0  0  0  0  0
   -9.5985    1.5708   -2.4145 H   0  0  0  0  0  0  0  0  0  0  0  0
   -8.0936    2.2947   -1.8540 H   0  0  0  0  0  0  0  0  0  0  0  0
   -6.5829    2.0102   -0.0044 H   0  0  0  0  0  0  0  0  0  0  0  0
   -4.2881    1.5645    0.6306 H   0  0  0  0  0  0  0  0  0  0  0  0
    2.3382   -0.4535   -0.4610 H   0  0  0  0  0  0  0  0  0  0  0  0
    1.7853   -0.8962    1.1468 H   0  0  0  0  0  0  0  0  0  0  0  0
    4.2814   -0.9074    1.0141 H   0  0  0  0  0  0  0  0  0  0  0  0
    3.6558    0.1707    2.2368 H   0  0  0  0  0  0  0  0  0  0  0  0
    4.1504    0.5500   -1.3842 H   0  0  0  0  0  0  0  0  0  0  0  0
    5.2257    1.9218   -1.2191 H   0  0  0  0  0  0  0  0  0  0  0  0
    6.3632   -0.2358   -1.9376 H   0  0  0  0  0  0  0  0  0  0  0  0
    6.8335    0.0345    1.0833 H   0  0  0  0  0  0  0  0  0  0  0  0
    8.7466   -0.3579   -2.0923 H   0  0  0  0  0  0  0  0  0  0  0  0
   10.7638   -1.7519   -2.3171 H   0  0  0  0  0  0  0  0  0  0  0  0
   11.4366   -3.2895   -0.4805 H   0  0  0  0  0  0  0  0  0  0  0  0
   10.0609   -3.4287    1.5740 H   0  0  0  0  0  0  0  0  0  0  0  0
    8.0240   -2.0548    1.8090 H   0  0  0  0  0  0  0  0  0  0  0  0
    4.2335    3.2614    0.3251 H   0  0  0  0  0  0  0  0  0  0  0  0
    3.5959    2.6199    1.8193 H   0  0  0  0  0  0  0  0  0  0  0  0
    2.3478    2.2465   -0.9597 H   0  0  0  0  0  0  0  0  0  0  0  0
    1.7363    3.2251    0.3767 H   0  0  0  0  0  0  0  0  0  0  0  0
  1  2  1  0
  2  3  1  0
  3  4  1  0
  4  5  2  0
  4  6  1  0
  6  7  2  0
  7  8  1  0
  8  9  2  0
  9 10  1  0
 10 11  1  0
 10 12  1  0
 10 13  1  0
  9 14  1  0
 14 15  2  0
  2 16  1  0
 16 17  2  0
 16 18  1  0
 18 19  1  0
 19 20  1  0
 20 21  1  0
 21 22  1  0
 22 23  1  0
 23 24  2  3
 24 25  1  0
 25 26  2  0
 26 27  1  0
 27 28  2  0
 28 29  1  0
 29 30  2  0
 21 31  1  0
 31 32  1  0
 15  6  1  0
 32 18  1  0
 30 25  1  0
  1 33  1  0
  1 34  1  0
  1 35  1  0
  2 36  1  0
  3 37  1  0
  7 38  1  0
  8 39  1  0
 11 40  1  0
 11 41  1  0
 11 42  1  0
 12 43  1  0
 12 44  1  0
 12 45  1  0
 13 46  1  0
 13 47  1  0
 13 48  1  0
 14 49  1  0
 15 50  1  0
 19 51  1  0
 19 52  1  0
 20 53  1  0
 20 54  1  0
 22 55  1  0
 22 56  1  0
 23 57  1  0
 24 58  1  0
 26 59  1  0
 27 60  1  0
 28 61  1  0
 29 62  1  0
 30 63  1  0
 31 64  1  0
 31 65  1  0
 32 66  1  0
 32 67  1  0
M  END
$$$$
