
     RDKit          3D

 36 39  0  0  0  0  0  0  0  0999 V2000
   -4.0467   -1.9985    1.0702 C   0  0  0  0  0  0  0  0  0  0  0  0
   -3.2880   -1.0556    0.1695 C   0  0  0  0  0  0  0  0  0  0  0  0
   -3.8241   -0.8465   -1.2078 C   0  0  0  0  0  0  0  0  0  0  0  0
   -3.1428   -0.0032   -2.0065 C   0  0  0  0  0  0  0  0  0  0  0  0
   -3.6173    0.2576   -3.4024 C   0  0  0  0  0  0  0  0  0  0  0  0
   -1.9862    0.6131   -1.4911 N   0  0  0  0  0  0  0  0  0  0  0  0
   -1.0760    1.5067   -2.0237 C   0  0  0  0  0  0  0  0  0  0  0  0
   -1.0233    2.3013   -3.7564 Br  0  0  0  0  0  0  0  0  0  0  0  0
   -0.1373    1.7431   -1.0387 C   0  0  0  0  0  0  0  0  0  0  0  0
    1.0830    2.6022   -1.0535 C   0  0  0  0  0  0  0  0  0  0  0  0
    2.4873    1.7425   -1.8247 S   0  0  0  0  0  0  0  0  0  0  0  0
    2.9280    0.7001   -0.4907 C   0  0  0  0  0  0  0  0  0  0  0  0
    3.4078    1.2023    0.6220 N   0  0  0  0  0  0  0  0  0  0  0  0
    3.6625    0.1750    1.5151 C   0  0  0  0  0  0  0  0  0  0  0  0
    4.1661    0.3240    2.8235 C   0  0  0  0  0  0  0  0  0  0  0  0
    4.3805   -0.8053    3.6206 C   0  0  0  0  0  0  0  0  0  0  0  0
    4.1007   -2.0771    3.1304 C   0  0  0  0  0  0  0  0  0  0  0  0
    3.6017   -2.2531    1.8360 C   0  0  0  0  0  0  0  0  0  0  0  0
    3.3897   -1.1120    1.0443 C   0  0  0  0  0  0  0  0  0  0  0  0
    2.7964   -1.0016   -0.5689 S   0  0  0  0  0  0  0  0  0  0  0  0
   -0.4547    1.0326    0.0919 N   0  0  0  0  0  0  0  0  0  0  0  0
   -1.5507    0.3587   -0.1822 C   0  0  0  0  0  0  0  0  0  0  0  0
   -2.2234   -0.4887    0.6460 N   0  0  0  0  0  0  0  0  0  0  0  0
   -4.9222   -2.4187    0.5688 H   0  0  0  0  0  0  0  0  0  0  0  0
   -4.3762   -1.4576    1.9621 H   0  0  0  0  0  0  0  0  0  0  0  0
   -3.3866   -2.8166    1.3730 H   0  0  0  0  0  0  0  0  0  0  0  0
   -4.7225   -1.3698   -1.5083 H   0  0  0  0  0  0  0  0  0  0  0  0
   -2.8656   -0.0512   -4.1351 H   0  0  0  0  0  0  0  0  0  0  0  0
   -3.8609    1.3152   -3.5413 H   0  0  0  0  0  0  0  0  0  0  0  0
   -4.5289   -0.3066   -3.6322 H   0  0  0  0  0  0  0  0  0  0  0  0
    0.8909    3.5179   -1.6222 H   0  0  0  0  0  0  0  0  0  0  0  0
    1.3421    2.9183   -0.0370 H   0  0  0  0  0  0  0  0  0  0  0  0
    4.3805    1.3183    3.2022 H   0  0  0  0  0  0  0  0  0  0  0  0
    4.7659   -0.6844    4.6301 H   0  0  0  0  0  0  0  0  0  0  0  0
    4.2693   -2.9469    3.7618 H   0  0  0  0  0  0  0  0  0  0  0  0
    3.3810   -3.2454    1.4551 H   0  0  0  0  0  0  0  0  0  0  0  0
  1  2  1  0
  2  3  1  0
  3  4  2  0
  4  5  1  0
  4  6  1  0
  6  7  1  0
  7  8  1  0
  7  9  2  0
  9 10  1  0
 10 11  1  0
 11 12  1  0
 12 13  2  0
 13 14  1  0
 14 15  2  0
 15 16  1  0
 16 17  2  0
 17 18  1  0
 18 19  2  0
 19 20  1  0
  9 21  1  0
 21 22  2  0
 22 23  1  0
 23  2  2  0
 22  6  1  0
 20 12  1  0
 19 14  1  0
  1 24  1  0
  1 25  1  0
  1 26  1  0
  3 27  1  0
  5 28  1  0
  5 29  1  0
  5 30  1  0
 10 31  1  0
 10 32  1  0
 15 33  1  0
 16 34  1  0
 17 35  1  0
 18 36  1  0
M  END
$$$$
