
     RDKit          3D

 35 36  0  0  0  0  0  0  0  0999 V2000
    4.1413   -2.0138   -2.4283 C   0  0  0  0  0  0  0  0  0  0  0  0
    3.3325   -0.8899   -1.8521 C   0  0  0  0  0  0  0  0  0  0  0  0
    3.4506    0.4060   -2.3614 C   0  0  0  0  0  0  0  0  0  0  0  0
    2.7188    1.4569   -1.7995 C   0  0  0  0  0  0  0  0  0  0  0  0
    1.8502    1.2313   -0.7260 C   0  0  0  0  0  0  0  0  0  0  0  0
    1.1594    2.3497   -0.2148 N   0  0  0  0  0  0  0  0  0  0  0  0
    0.0982    2.4521    0.6394 C   0  0  0  0  0  0  0  0  0  0  0  0
   -0.1728    3.9370    1.3612 S   0  0  0  0  0  0  0  0  0  0  0  0
   -0.6853    1.3497    0.7935 N   0  0  0  0  0  0  0  0  0  0  0  0
   -1.8634    1.2462    1.6311 C   0  0  0  0  0  0  0  0  0  0  0  0
   -2.3675   -0.1507    1.5190 C   0  0  0  0  0  0  0  0  0  0  0  0
   -2.0147   -1.2690    2.2550 C   0  0  0  0  0  0  0  0  0  0  0  0
   -2.7649   -2.3639    1.7706 C   0  0  0  0  0  0  0  0  0  0  0  0
   -3.5584   -1.8937    0.7495 C   0  0  0  0  0  0  0  0  0  0  0  0
   -3.3136   -0.5529    0.6007 N   0  0  0  0  0  0  0  0  0  0  0  0
   -3.9580    0.2902   -0.3835 C   0  0  0  0  0  0  0  0  0  0  0  0
    1.7679   -0.0547   -0.1893 C   0  0  0  0  0  0  0  0  0  0  0  0
    2.4998   -1.1077   -0.7503 C   0  0  0  0  0  0  0  0  0  0  0  0
    3.6030   -2.9638   -2.3445 H   0  0  0  0  0  0  0  0  0  0  0  0
    5.0948   -2.0985   -1.8983 H   0  0  0  0  0  0  0  0  0  0  0  0
    4.3415   -1.8469   -3.4920 H   0  0  0  0  0  0  0  0  0  0  0  0
    4.1136    0.6088   -3.1996 H   0  0  0  0  0  0  0  0  0  0  0  0
    2.8269    2.4511   -2.2255 H   0  0  0  0  0  0  0  0  0  0  0  0
    1.5512    3.2532   -0.4598 H   0  0  0  0  0  0  0  0  0  0  0  0
   -0.6249    0.6745    0.0437 H   0  0  0  0  0  0  0  0  0  0  0  0
   -2.6053    1.9809    1.3034 H   0  0  0  0  0  0  0  0  0  0  0  0
   -1.5850    1.4787    2.6648 H   0  0  0  0  0  0  0  0  0  0  0  0
   -1.2888   -1.2875    3.0585 H   0  0  0  0  0  0  0  0  0  0  0  0
   -2.7319   -3.3848    2.1284 H   0  0  0  0  0  0  0  0  0  0  0  0
   -4.2748   -2.4079    0.1220 H   0  0  0  0  0  0  0  0  0  0  0  0
   -3.1865    0.8027   -0.9636 H   0  0  0  0  0  0  0  0  0  0  0  0
   -4.5675   -0.3261   -1.0497 H   0  0  0  0  0  0  0  0  0  0  0  0
   -4.5926    1.0077    0.1424 H   0  0  0  0  0  0  0  0  0  0  0  0
    1.1830   -0.2660    0.7006 H   0  0  0  0  0  0  0  0  0  0  0  0
    2.4232   -2.0989   -0.3076 H   0  0  0  0  0  0  0  0  0  0  0  0
  1  2  1  0
  2  3  2  0
  3  4  1  0
  4  5  2  0
  5  6  1  0
  6  7  1  0
  7  8  2  0
  7  9  1  0
  9 10  1  0
 10 11  1  0
 11 12  2  0
 12 13  1  0
 13 14  2  0
 14 15  1  0
 15 16  1  0
  5 17  1  0
 17 18  2  0
 18  2  1  0
 15 11  1  0
  1 19  1  0
  1 20  1  0
  1 21  1  0
  3 22  1  0
  4 23  1  0
  6 24  1  0
  9 25  1  0
 10 26  1  0
 10 27  1  0
 12 28  1  0
 13 29  1  0
 14 30  1  0
 16 31  1  0
 16 32  1  0
 16 33  1  0
 17 34  1  0
 18 35  1  0
M  END
$$$$
