
     RDKit          3D

 67 70  0  0  0  0  0  0  0  0999 V2000
   -2.7524    0.1846    3.5131 C   0  0  0  0  0  0  0  0  0  0  0  0
   -1.9313   -0.1588    2.4052 O   0  0  0  0  0  0  0  0  0  0  0  0
   -1.4509    0.8508    1.6101 C   0  0  0  0  0  0  0  0  0  0  0  0
   -1.7156    2.2117    1.8336 C   0  0  0  0  0  0  0  0  0  0  0  0
   -1.1917    3.2008    0.9914 C   0  0  0  0  0  0  0  0  0  0  0  0
   -1.4082    4.5473    1.1512 O   0  0  0  0  0  0  0  0  0  0  0  0
   -2.3533    4.9564    2.1312 C   0  0  0  0  0  0  0  0  0  0  0  0
   -0.3769    2.8249   -0.0868 C   0  0  0  0  0  0  0  0  0  0  0  0
    0.2103    3.8000   -1.0048 C   0  0  0  0  0  0  0  0  0  0  0  0
    0.9795    3.4022   -2.0215 C   0  0  0  0  0  0  0  0  0  0  0  0
    1.2772    1.9855   -2.2649 C   0  0  0  0  0  0  0  0  0  0  0  0
    2.0009    1.6413   -3.1919 O   0  0  0  0  0  0  0  0  0  0  0  0
    0.7076    1.0799   -1.3856 O   0  0  0  0  0  0  0  0  0  0  0  0
   -0.1182    1.4665   -0.3009 C   0  0  0  0  0  0  0  0  0  0  0  0
   -0.6429    0.4528    0.5244 C   0  0  0  0  0  0  0  0  0  0  0  0
   -0.3594   -1.0334    0.2621 C   0  0  0  0  0  0  0  0  0  0  0  0
    1.1409   -1.3976    0.4235 C   0  0  0  0  0  0  0  0  0  0  0  0
    1.6598   -1.1144    1.8442 C   0  0  0  0  0  0  0  0  0  0  0  0
    3.0257   -1.6130    2.0945 N   0  0  0  0  0  0  0  0  0  0  0  0
    3.3997   -1.4338    3.5120 C   0  0  0  0  0  0  0  0  0  0  0  0
    4.4963   -0.3919    3.7774 C   0  0  0  0  0  0  0  0  0  0  0  0
    4.3274    0.8325    2.8877 C   0  0  0  0  0  0  0  0  0  0  0  0
    4.2846    0.4450    1.4080 C   0  0  0  0  0  0  0  0  0  0  0  0
    4.0449   -1.0534    1.1994 C   0  0  0  0  0  0  0  0  0  0  0  0
   -1.0052   -1.5117   -1.0402 C   0  0  0  0  0  0  0  0  0  0  0  0
   -2.3937   -1.6814   -1.0905 C   0  0  0  0  0  0  0  0  0  0  0  0
   -3.0326   -2.1074   -2.2655 C   0  0  0  0  0  0  0  0  0  0  0  0
   -2.3276   -2.3717   -3.4510 C   0  0  0  0  0  0  0  0  0  0  0  0
   -2.9671   -2.8092   -4.6189 N   0  0  0  0  0  0  0  0  0  0  0  0
   -2.2234   -2.7874   -5.8773 C   0  0  0  0  0  0  0  0  0  0  0  0
   -4.4122   -2.6276   -4.7382 C   0  0  0  0  0  0  0  0  0  0  0  0
   -0.9342   -2.2099   -3.3741 C   0  0  0  0  0  0  0  0  0  0  0  0
   -0.2842   -1.7857   -2.2032 C   0  0  0  0  0  0  0  0  0  0  0  0
   -3.6707    0.6825    3.1852 H   0  0  0  0  0  0  0  0  0  0  0  0
   -2.2033    0.7975    4.2352 H   0  0  0  0  0  0  0  0  0  0  0  0
   -3.0391   -0.7439    4.0159 H   0  0  0  0  0  0  0  0  0  0  0  0
   -2.3312    2.5032    2.6745 H   0  0  0  0  0  0  0  0  0  0  0  0
   -1.9984    4.7225    3.1400 H   0  0  0  0  0  0  0  0  0  0  0  0
   -2.4582    6.0432    2.0598 H   0  0  0  0  0  0  0  0  0  0  0  0
   -3.3373    4.5141    1.9435 H   0  0  0  0  0  0  0  0  0  0  0  0
    0.0073    4.8540   -0.8473 H   0  0  0  0  0  0  0  0  0  0  0  0
    1.4227    4.1067   -2.7139 H   0  0  0  0  0  0  0  0  0  0  0  0
   -0.8571   -1.6363    1.0337 H   0  0  0  0  0  0  0  0  0  0  0  0
    1.7482   -0.8555   -0.3067 H   0  0  0  0  0  0  0  0  0  0  0  0
    1.2721   -2.4671    0.2092 H   0  0  0  0  0  0  0  0  0  0  0  0
    1.5996   -0.0416    2.0598 H   0  0  0  0  0  0  0  0  0  0  0  0
    0.9808   -1.6179    2.5450 H   0  0  0  0  0  0  0  0  0  0  0  0
    2.5236   -1.1849    4.1254 H   0  0  0  0  0  0  0  0  0  0  0  0
    3.7518   -2.4013    3.8909 H   0  0  0  0  0  0  0  0  0  0  0  0
    5.4828   -0.8383    3.5981 H   0  0  0  0  0  0  0  0  0  0  0  0
    4.4743   -0.0953    4.8323 H   0  0  0  0  0  0  0  0  0  0  0  0
    3.3956    1.3464    3.1550 H   0  0  0  0  0  0  0  0  0  0  0  0
    5.1380    1.5483    3.0646 H   0  0  0  0  0  0  0  0  0  0  0  0
    3.5092    1.0329    0.9019 H   0  0  0  0  0  0  0  0  0  0  0  0
    5.2349    0.7164    0.9324 H   0  0  0  0  0  0  0  0  0  0  0  0
    4.9861   -1.5943    1.3693 H   0  0  0  0  0  0  0  0  0  0  0  0
    3.8134   -1.2526    0.1477 H   0  0  0  0  0  0  0  0  0  0  0  0
   -2.9991   -1.4866   -0.2073 H   0  0  0  0  0  0  0  0  0  0  0  0
   -4.1099   -2.2285   -2.2167 H   0  0  0  0  0  0  0  0  0  0  0  0
   -2.8394   -3.1506   -6.7078 H   0  0  0  0  0  0  0  0  0  0  0  0
   -1.3547   -3.4533   -5.8368 H   0  0  0  0  0  0  0  0  0  0  0  0
   -1.8990   -1.7710   -6.1266 H   0  0  0  0  0  0  0  0  0  0  0  0
   -4.7795   -2.9909   -5.7048 H   0  0  0  0  0  0  0  0  0  0  0  0
   -4.9493   -3.2055   -3.9785 H   0  0  0  0  0  0  0  0  0  0  0  0
   -4.6850   -1.5695   -4.6582 H   0  0  0  0  0  0  0  0  0  0  0  0
   -0.2993   -2.4075   -4.2325 H   0  0  0  0  0  0  0  0  0  0  0  0
    0.7961   -1.6688   -2.2362 H   0  0  0  0  0  0  0  0  0  0  0  0
  1  2  1  0
  2  3  1  0
  3  4  2  0
  4  5  1  0
  5  6  1  0
  6  7  1  0
  5  8  2  0
  8  9  1  0
  9 10  2  0
 10 11  1  0
 11 12  2  0
 11 13  1  0
 13 14  1  0
 14 15  2  0
 15 16  1  0
 16 17  1  0
 17 18  1  0
 18 19  1  0
 19 20  1  0
 20 21  1  0
 21 22  1  0
 22 23  1  0
 23 24  1  0
 16 25  1  0
 25 26  2  0
 26 27  1  0
 27 28  2  0
 28 29  1  0
 29 30  1  0
 29 31  1  0
 28 32  1  0
 32 33  2  0
 15  3  1  0
 24 19  1  0
 33 25  1  0
 14  8  1  0
  1 34  1  0
  1 35  1  0
  1 36  1  0
  4 37  1  0
  7 38  1  0
  7 39  1  0
  7 40  1  0
  9 41  1  0
 10 42  1  0
 16 43  1  0
 17 44  1  0
 17 45  1  0
 18 46  1  0
 18 47  1  0
 20 48  1  0
 20 49  1  0
 21 50  1  0
 21 51  1  0
 22 52  1  0
 22 53  1  0
 23 54  1  0
 23 55  1  0
 24 56  1  0
 24 57  1  0
 26 58  1  0
 27 59  1  0
 30 60  1  0
 30 61  1  0
 30 62  1  0
 31 63  1  0
 31 64  1  0
 31 65  1  0
 32 66  1  0
 33 67  1  0
M  END
$$$$
