
     RDKit          3D

 28 29  0  0  0  0  0  0  0  0999 V2000
    4.0979   -1.2319    2.2351 O   0  0  0  0  0  0  0  0  0  0  0  0
    4.1554   -0.9828    1.0453 C   0  0  0  0  0  0  0  0  0  0  0  0
    5.3080   -1.0994    0.3627 O   0  0  0  0  0  0  0  0  0  0  0  0
    3.0257   -0.5342    0.1970 C   0  0  0  0  0  0  0  0  0  0  0  0
    3.1800   -0.2758   -1.1679 C   0  0  0  0  0  0  0  0  0  0  0  0
    2.0834    0.1394   -1.9206 C   0  0  0  0  0  0  0  0  0  0  0  0
    0.8338    0.2946   -1.3130 C   0  0  0  0  0  0  0  0  0  0  0  0
    0.6580    0.0487    0.0538 C   0  0  0  0  0  0  0  0  0  0  0  0
   -0.5875    0.1504    0.7003 N   0  0  0  0  0  0  0  0  0  0  0  0
   -1.9133    0.1031    0.2206 C   0  0  0  0  0  0  0  0  0  0  0  0
   -2.2350   -0.6372   -0.9252 C   0  0  0  0  0  0  0  0  0  0  0  0
   -3.5373   -0.6344   -1.4067 C   0  0  0  0  0  0  0  0  0  0  0  0
   -4.5447    0.0587   -0.8384 N   0  0  0  0  0  0  0  0  0  0  0  0
   -4.2382    0.7761    0.2671 C   0  0  0  0  0  0  0  0  0  0  0  0
   -2.9634    0.8219    0.8197 C   0  0  0  0  0  0  0  0  0  0  0  0
   -2.7711    1.6245    2.0159 N   0  0  0  0  0  4  0  0  0  0  0  0
   -1.8342    1.3222    2.7716 O   0  0  0  0  0  0  0  0  0  0  0  0
   -3.5621    2.5565    2.2175 O   0  0  0  0  0  1  0  0  0  0  0  0
    1.7689   -0.3733    0.7984 C   0  0  0  0  0  0  0  0  0  0  0  0
    5.9522   -1.3954    1.0398 H   0  0  0  0  0  0  0  0  0  0  0  0
    4.1465   -0.3925   -1.6520 H   0  0  0  0  0  0  0  0  0  0  0  0
    2.2006    0.3489   -2.9812 H   0  0  0  0  0  0  0  0  0  0  0  0
    0.0064    0.6478   -1.9226 H   0  0  0  0  0  0  0  0  0  0  0  0
   -0.5094    0.3926    1.6927 H   0  0  0  0  0  0  0  0  0  0  0  0
   -1.4903   -1.2440   -1.4305 H   0  0  0  0  0  0  0  0  0  0  0  0
   -3.8084   -1.2115   -2.2872 H   0  0  0  0  0  0  0  0  0  0  0  0
   -5.0788    1.3169    0.6963 H   0  0  0  0  0  0  0  0  0  0  0  0
    1.6570   -0.5899    1.8598 H   0  0  0  0  0  0  0  0  0  0  0  0
  1  2  2  0
  2  3  1  0
  2  4  1  0
  4  5  2  0
  5  6  1  0
  6  7  2  0
  7  8  1  0
  8  9  1  0
  9 10  1  0
 10 11  2  0
 11 12  1  0
 12 13  2  0
 13 14  1  0
 14 15  2  0
 15 16  1  0
 16 17  2  0
 16 18  1  0
  8 19  2  0
 19  4  1  0
 15 10  1  0
  3 20  1  0
  5 21  1  0
  6 22  1  0
  7 23  1  0
  9 24  1  0
 11 25  1  0
 12 26  1  0
 14 27  1  0
 19 28  1  0
M  CHG  2  16   1  18  -1
M  END
$$$$
