
     RDKit          3D

 52 54  0  0  0  0  0  0  0  0999 V2000
    4.8438   -5.9626   -0.1182 C   0  0  0  0  0  0  0  0  0  0  0  0
    3.8263   -4.8572   -0.3217 C   0  0  0  0  0  0  0  0  0  0  0  0
    4.3744   -3.6426    0.2069 O   0  0  0  0  0  0  0  0  0  0  0  0
    3.5535   -2.5677    0.1131 C   0  0  0  0  0  0  0  0  0  0  0  0
    2.4319   -2.5741   -0.3772 O   0  0  0  0  0  0  0  0  0  0  0  0
    4.1842   -1.3446    0.6991 C   0  0  0  0  0  0  0  0  0  0  0  0
    5.4956   -1.4064    1.2073 C   0  0  0  0  0  0  0  0  0  0  0  0
    6.0954   -0.2772    1.7616 C   0  0  0  0  0  0  0  0  0  0  0  0
    5.3925    0.9201    1.8146 C   0  0  0  0  0  0  0  0  0  0  0  0
    4.0898    0.9968    1.3125 C   0  0  0  0  0  0  0  0  0  0  0  0
    3.4664   -0.1228    0.7471 C   0  0  0  0  0  0  0  0  0  0  0  0
    2.1447   -0.0681    0.2329 N   0  0  0  0  0  0  0  0  0  0  0  0
    1.2849    1.0123    0.1619 C   0  0  0  0  0  0  0  0  0  0  0  0
    1.5377    2.1626    0.5016 O   0  0  0  0  0  0  0  0  0  0  0  0
   -0.0533    0.6391   -0.4507 C   0  0  0  0  0  0  0  0  0  0  0  0
   -0.7979   -0.4300    0.3465 C   0  0  0  0  0  0  0  0  0  0  0  0
   -2.2514   -0.0720    0.1640 C   0  0  0  0  0  0  0  0  0  0  0  0
   -3.1833   -0.7711    0.5263 O   0  0  0  0  0  0  0  0  0  0  0  0
   -2.3217    1.1791   -0.4374 N   0  0  0  0  0  0  0  0  0  0  0  0
   -3.5439    1.9758   -0.5458 C   0  0  0  0  0  0  0  0  0  0  0  0
   -4.0449    2.4611    0.8263 C   0  0  0  0  0  0  0  0  0  0  0  0
   -5.5431    2.7762    0.8490 C   0  0  0  0  0  0  0  0  0  0  0  0
   -6.0477    3.2457   -0.5087 C   0  0  0  0  0  0  0  0  0  0  0  0
   -5.8402    2.1870   -1.5941 C   0  0  0  0  0  0  0  0  0  0  0  0
   -4.6524    1.2587   -1.3249 C   0  0  0  0  0  0  0  0  0  0  0  0
   -1.0231    1.8088   -0.4583 C   0  0  0  0  0  0  0  0  0  0  0  0
    5.7833   -5.7205   -0.6262 H   0  0  0  0  0  0  0  0  0  0  0  0
    5.0779   -6.0795    0.9451 H   0  0  0  0  0  0  0  0  0  0  0  0
    4.4684   -6.9146   -0.5040 H   0  0  0  0  0  0  0  0  0  0  0  0
    3.6207   -4.7341   -1.3909 H   0  0  0  0  0  0  0  0  0  0  0  0
    2.8991   -5.1056    0.2071 H   0  0  0  0  0  0  0  0  0  0  0  0
    6.0667   -2.3317    1.1793 H   0  0  0  0  0  0  0  0  0  0  0  0
    7.1083   -0.3327    2.1531 H   0  0  0  0  0  0  0  0  0  0  0  0
    5.8537    1.8044    2.2490 H   0  0  0  0  0  0  0  0  0  0  0  0
    3.5875    1.9566    1.3829 H   0  0  0  0  0  0  0  0  0  0  0  0
    1.8055   -0.9514   -0.1563 H   0  0  0  0  0  0  0  0  0  0  0  0
    0.1126    0.2917   -1.4789 H   0  0  0  0  0  0  0  0  0  0  0  0
   -0.6060   -1.4305   -0.0523 H   0  0  0  0  0  0  0  0  0  0  0  0
   -0.5559   -0.4042    1.4140 H   0  0  0  0  0  0  0  0  0  0  0  0
   -3.2692    2.8589   -1.1396 H   0  0  0  0  0  0  0  0  0  0  0  0
   -3.8350    1.7273    1.6137 H   0  0  0  0  0  0  0  0  0  0  0  0
   -3.4779    3.3593    1.1034 H   0  0  0  0  0  0  0  0  0  0  0  0
   -5.7472    3.5345    1.6136 H   0  0  0  0  0  0  0  0  0  0  0  0
   -6.0976    1.8768    1.1459 H   0  0  0  0  0  0  0  0  0  0  0  0
   -7.1102    3.5077   -0.4498 H   0  0  0  0  0  0  0  0  0  0  0  0
   -5.5166    4.1635   -0.7907 H   0  0  0  0  0  0  0  0  0  0  0  0
   -5.7051    2.6931   -2.5578 H   0  0  0  0  0  0  0  0  0  0  0  0
   -6.7461    1.5768   -1.6950 H   0  0  0  0  0  0  0  0  0  0  0  0
   -4.2694    0.8695   -2.2761 H   0  0  0  0  0  0  0  0  0  0  0  0
   -5.0098    0.3886   -0.7612 H   0  0  0  0  0  0  0  0  0  0  0  0
   -0.9160    2.4211   -1.3591 H   0  0  0  0  0  0  0  0  0  0  0  0
   -0.9397    2.4478    0.4280 H   0  0  0  0  0  0  0  0  0  0  0  0
  1  2  1  0
  2  3  1  0
  3  4  1  0
  4  5  2  0
  4  6  1  0
  6  7  2  0
  7  8  1  0
  8  9  2  0
  9 10  1  0
 10 11  2  0
 11 12  1  0
 12 13  1  0
 13 14  2  0
 13 15  1  0
 15 16  1  0
 16 17  1  0
 17 18  2  0
 17 19  1  0
 19 20  1  0
 20 21  1  0
 21 22  1  0
 22 23  1  0
 23 24  1  0
 24 25  1  0
 19 26  1  0
 11  6  1  0
 26 15  1  0
 25 20  1  0
  1 27  1  0
  1 28  1  0
  1 29  1  0
  2 30  1  0
  2 31  1  0
  7 32  1  0
  8 33  1  0
  9 34  1  0
 10 35  1  0
 12 36  1  0
 15 37  1  0
 16 38  1  0
 16 39  1  0
 20 40  1  0
 21 41  1  0
 21 42  1  0
 22 43  1  0
 22 44  1  0
 23 45  1  0
 23 46  1  0
 24 47  1  0
 24 48  1  0
 25 49  1  0
 25 50  1  0
 26 51  1  0
 26 52  1  0
M  END
$$$$
