
     RDKit          3D

 37 39  0  0  0  0  0  0  0  0999 V2000
    0.6673   -0.5590    0.4693 O   0  0  0  0  0  0  0  0  0  0  0  0
    1.6513    0.1106    0.1561 C   0  0  0  0  0  0  0  0  0  0  0  0
    3.0771   -0.4294    0.2599 C   0  0  0  0  0  0  0  0  0  0  0  0
    3.1002   -1.9241    0.3863 C   0  0  0  0  0  0  0  0  0  0  0  0
    2.8463   -2.8716   -0.5870 C   0  0  0  0  0  0  0  0  0  0  0  0
    2.9756   -4.2022   -0.0943 C   0  0  0  0  0  0  0  0  0  0  0  0
    3.3294   -4.2273    1.2357 C   0  0  0  0  0  0  0  0  0  0  0  0
    3.5045   -2.6553    1.8831 S   0  0  0  0  0  0  0  0  0  0  0  0
    1.5592    1.4516   -0.2240 N   0  0  0  0  0  0  0  0  0  0  0  0
    2.6508    2.3871   -0.2104 C   0  0  0  0  0  0  0  0  0  0  0  0
    1.9700    3.7207   -0.4509 C   0  0  0  0  0  0  0  0  0  0  0  0
    0.6508    3.3938   -1.0268 N   0  0  0  0  0  0  0  0  0  0  0  0
    0.4980    2.1233   -0.8229 C   0  0  0  0  0  0  0  0  0  0  0  0
   -0.9238    1.3009   -1.3471 S   0  0  0  0  0  0  0  0  0  0  0  0
   -1.9055    1.5123    0.1626 C   0  0  0  0  0  0  0  0  0  0  0  0
   -3.1488    0.6576    0.1418 C   0  0  0  0  0  0  0  0  0  0  0  0
   -3.0494   -0.6841    0.5590 C   0  0  0  0  0  0  0  0  0  0  0  0
   -4.1636   -1.5246    0.5505 C   0  0  0  0  0  0  0  0  0  0  0  0
   -5.3955   -1.0419    0.1197 C   0  0  0  0  0  0  0  0  0  0  0  0
   -5.5107    0.2806   -0.3075 C   0  0  0  0  0  0  0  0  0  0  0  0
   -4.3954    1.1259   -0.3012 C   0  0  0  0  0  0  0  0  0  0  0  0
   -4.6240    2.7465   -0.8555 Cl  0  0  0  0  0  0  0  0  0  0  0  0
    3.5670    0.0456    1.1172 H   0  0  0  0  0  0  0  0  0  0  0  0
    3.6307   -0.1546   -0.6454 H   0  0  0  0  0  0  0  0  0  0  0  0
    2.5664   -2.6255   -1.6046 H   0  0  0  0  0  0  0  0  0  0  0  0
    2.8117   -5.0954   -0.6845 H   0  0  0  0  0  0  0  0  0  0  0  0
    3.4911   -5.0942    1.8615 H   0  0  0  0  0  0  0  0  0  0  0  0
    3.1979    2.3552    0.7361 H   0  0  0  0  0  0  0  0  0  0  0  0
    3.3356    2.1407   -1.0293 H   0  0  0  0  0  0  0  0  0  0  0  0
    2.5505    4.3503   -1.1321 H   0  0  0  0  0  0  0  0  0  0  0  0
    1.8252    4.2675    0.4875 H   0  0  0  0  0  0  0  0  0  0  0  0
   -1.3026    1.2363    1.0362 H   0  0  0  0  0  0  0  0  0  0  0  0
   -2.1465    2.5712    0.2987 H   0  0  0  0  0  0  0  0  0  0  0  0
   -2.0882   -1.0835    0.8843 H   0  0  0  0  0  0  0  0  0  0  0  0
   -4.0642   -2.5578    0.8743 H   0  0  0  0  0  0  0  0  0  0  0  0
   -6.2638   -1.6954    0.1090 H   0  0  0  0  0  0  0  0  0  0  0  0
   -6.4747    0.6481   -0.6503 H   0  0  0  0  0  0  0  0  0  0  0  0
  1  2  2  0
  2  3  1  0
  3  4  1  0
  4  5  2  0
  5  6  1  0
  6  7  2  0
  7  8  1  0
  2  9  1  0
  9 10  1  0
 10 11  1  0
 11 12  1  0
 12 13  2  0
 13 14  1  0
 14 15  1  0
 15 16  1  0
 16 17  2  0
 17 18  1  0
 18 19  2  0
 19 20  1  0
 20 21  2  0
 21 22  1  0
  8  4  1  0
 13  9  1  0
 21 16  1  0
  3 23  1  0
  3 24  1  0
  5 25  1  0
  6 26  1  0
  7 27  1  0
 10 28  1  0
 10 29  1  0
 11 30  1  0
 11 31  1  0
 15 32  1  0
 15 33  1  0
 17 34  1  0
 18 35  1  0
 19 36  1  0
 20 37  1  0
M  END
$$$$
