
     RDKit          3D

 37 38  0  0  0  0  0  0  0  0999 V2000
   -3.0079    2.6770    1.4194 C   0  0  0  0  0  0  0  0  0  0  0  0
   -1.9757    1.7001    1.4192 O   0  0  0  0  0  0  0  0  0  0  0  0
   -2.1950    0.5451    0.7128 C   0  0  0  0  0  0  0  0  0  0  0  0
   -3.3551    0.2766   -0.0283 C   0  0  0  0  0  0  0  0  0  0  0  0
   -3.4942   -0.9119   -0.7543 C   0  0  0  0  0  0  0  0  0  0  0  0
   -4.7047   -1.2109   -1.3952 N   0  0  0  0  0  0  0  0  0  0  0  0
   -2.5010   -1.8831   -0.6485 C   0  0  0  0  0  0  0  0  0  0  0  0
   -1.3402   -1.6313    0.0831 C   0  0  0  0  0  0  0  0  0  0  0  0
   -1.1695   -0.4159    0.7655 C   0  0  0  0  0  0  0  0  0  0  0  0
    0.1163   -0.1841    1.5349 C   0  0  0  0  0  0  0  0  0  0  0  0
    1.2775    0.2450    0.6594 C   0  0  0  0  0  0  0  0  0  0  0  0
    1.3665    1.5896    0.2644 C   0  0  0  0  0  0  0  0  0  0  0  0
    2.4101    2.0271   -0.5515 C   0  0  0  0  0  0  0  0  0  0  0  0
    3.3591    1.1259   -1.0292 C   0  0  0  0  0  0  0  0  0  0  0  0
    4.4661    1.5887   -1.7544 N   0  0  0  0  0  0  0  0  0  0  0  0
    3.3082   -0.2024   -0.5907 C   0  0  0  0  0  0  0  0  0  0  0  0
    2.2665   -0.6582    0.2303 C   0  0  0  0  0  0  0  0  0  0  0  0
    2.1340   -1.9507    0.6698 O   0  0  0  0  0  0  0  0  0  0  0  0
    3.1372   -2.8817    0.2868 C   0  0  0  0  0  0  0  0  0  0  0  0
   -2.6703    3.5185    2.0321 H   0  0  0  0  0  0  0  0  0  0  0  0
   -3.1931    3.0560    0.4091 H   0  0  0  0  0  0  0  0  0  0  0  0
   -3.9244    2.2840    1.8717 H   0  0  0  0  0  0  0  0  0  0  0  0
   -4.1732    0.9871   -0.0589 H   0  0  0  0  0  0  0  0  0  0  0  0
   -4.6145   -1.9115   -2.1246 H   0  0  0  0  0  0  0  0  0  0  0  0
   -5.2141   -0.3918   -1.7106 H   0  0  0  0  0  0  0  0  0  0  0  0
   -2.6165   -2.8451   -1.1397 H   0  0  0  0  0  0  0  0  0  0  0  0
   -0.5652   -2.3937    0.1281 H   0  0  0  0  0  0  0  0  0  0  0  0
   -0.0284    0.5656    2.3236 H   0  0  0  0  0  0  0  0  0  0  0  0
    0.3632   -1.0955    2.0946 H   0  0  0  0  0  0  0  0  0  0  0  0
    0.6206    2.3062    0.6020 H   0  0  0  0  0  0  0  0  0  0  0  0
    2.4685    3.0795   -0.8143 H   0  0  0  0  0  0  0  0  0  0  0  0
    4.9082    0.8760   -2.3257 H   0  0  0  0  0  0  0  0  0  0  0  0
    4.2810    2.4394   -2.2768 H   0  0  0  0  0  0  0  0  0  0  0  0
    4.0999   -0.8710   -0.9088 H   0  0  0  0  0  0  0  0  0  0  0  0
    2.8794   -3.8496    0.7276 H   0  0  0  0  0  0  0  0  0  0  0  0
    3.1634   -3.0091   -0.8003 H   0  0  0  0  0  0  0  0  0  0  0  0
    4.1176   -2.5899    0.6774 H   0  0  0  0  0  0  0  0  0  0  0  0
  1  2  1  0
  2  3  1  0
  3  4  2  0
  4  5  1  0
  5  6  1  0
  5  7  2  0
  7  8  1  0
  8  9  2  0
  9 10  1  0
 10 11  1  0
 11 12  2  0
 12 13  1  0
 13 14  2  0
 14 15  1  0
 14 16  1  0
 16 17  2  0
 17 18  1  0
 18 19  1  0
  9  3  1  0
 17 11  1  0
  1 20  1  0
  1 21  1  0
  1 22  1  0
  4 23  1  0
  6 24  1  0
  6 25  1  0
  7 26  1  0
  8 27  1  0
 10 28  1  0
 10 29  1  0
 12 30  1  0
 13 31  1  0
 15 32  1  0
 15 33  1  0
 16 34  1  0
 19 35  1  0
 19 36  1  0
 19 37  1  0
M  END
$$$$
