
     RDKit          3D

 46 47  0  0  0  0  0  0  0  0999 V2000
    0.8391   -0.4283   -1.5993 O   0  0  0  0  0  0  0  0  0  0  0  0
    0.7558    0.2503   -0.5849 C   0  0  0  0  0  0  0  0  0  0  0  0
   -0.4240    0.7192   -0.0666 N   0  0  0  0  0  0  0  0  0  0  0  0
   -1.7192    0.3326   -0.6260 C   0  0  0  0  0  0  0  0  0  0  0  0
   -2.7400    1.4520   -0.3750 C   0  0  0  0  0  0  0  0  0  0  0  0
   -3.2887    1.4945    1.0521 C   0  0  0  0  0  0  0  0  0  0  0  0
   -4.7890    1.2263    1.1507 C   0  0  0  0  0  0  0  0  0  0  0  0
   -5.3422    0.0394    0.3601 C   0  0  0  0  0  0  0  0  0  0  0  0
   -4.6020   -1.2849    0.5382 C   0  0  0  0  0  0  0  0  0  0  0  0
   -3.5020   -1.5568   -0.4972 C   0  0  0  0  0  0  0  0  0  0  0  0
   -2.1091   -1.0633   -0.1055 C   0  0  0  0  0  0  0  0  0  0  0  0
    1.8353    0.6694    0.1517 N   0  0  0  0  0  0  0  0  0  0  0  0
    3.1823    0.2206   -0.1703 C   0  0  0  0  0  0  0  0  0  0  0  0
    3.4137   -1.2221    0.3146 C   0  0  0  0  0  0  0  0  0  0  0  0
    4.8802   -1.5384    0.6189 C   0  0  0  0  0  0  0  0  0  0  0  0
    5.8299   -0.7062   -0.2308 C   0  0  0  0  0  0  0  0  0  0  0  0
    5.6449    0.7925    0.0124 C   0  0  0  0  0  0  0  0  0  0  0  0
    4.2204    1.1757    0.4195 C   0  0  0  0  0  0  0  0  0  0  0  0
   -0.4083    1.0783    0.8740 H   0  0  0  0  0  0  0  0  0  0  0  0
   -1.5854    0.2588   -1.7135 H   0  0  0  0  0  0  0  0  0  0  0  0
   -3.5492    1.3735   -1.1083 H   0  0  0  0  0  0  0  0  0  0  0  0
   -2.2593    2.4166   -0.5887 H   0  0  0  0  0  0  0  0  0  0  0  0
   -3.1049    2.4945    1.4666 H   0  0  0  0  0  0  0  0  0  0  0  0
   -2.7517    0.8108    1.7173 H   0  0  0  0  0  0  0  0  0  0  0  0
   -5.0412    1.0945    2.2108 H   0  0  0  0  0  0  0  0  0  0  0  0
   -5.3284    2.1256    0.8260 H   0  0  0  0  0  0  0  0  0  0  0  0
   -5.4238    0.2905   -0.7036 H   0  0  0  0  0  0  0  0  0  0  0  0
   -6.3772   -0.1056    0.6984 H   0  0  0  0  0  0  0  0  0  0  0  0
   -4.2257   -1.3942    1.5617 H   0  0  0  0  0  0  0  0  0  0  0  0
   -5.3503   -2.0789    0.4086 H   0  0  0  0  0  0  0  0  0  0  0  0
   -3.4298   -2.6494   -0.5888 H   0  0  0  0  0  0  0  0  0  0  0  0
   -3.7869   -1.1940   -1.4912 H   0  0  0  0  0  0  0  0  0  0  0  0
   -1.9733   -1.1309    0.9810 H   0  0  0  0  0  0  0  0  0  0  0  0
   -1.3815   -1.7764   -0.5182 H   0  0  0  0  0  0  0  0  0  0  0  0
    1.6560    0.9421    1.1044 H   0  0  0  0  0  0  0  0  0  0  0  0
    3.2797    0.2387   -1.2642 H   0  0  0  0  0  0  0  0  0  0  0  0
    3.0438   -1.9133   -0.4536 H   0  0  0  0  0  0  0  0  0  0  0  0
    2.8201   -1.4330    1.2135 H   0  0  0  0  0  0  0  0  0  0  0  0
    5.0810   -1.3406    1.6795 H   0  0  0  0  0  0  0  0  0  0  0  0
    5.0658   -2.6068    0.4609 H   0  0  0  0  0  0  0  0  0  0  0  0
    6.8693   -0.9863   -0.0255 H   0  0  0  0  0  0  0  0  0  0  0  0
    5.6510   -0.9274   -1.2907 H   0  0  0  0  0  0  0  0  0  0  0  0
    6.3358    1.1298    0.7947 H   0  0  0  0  0  0  0  0  0  0  0  0
    5.9289    1.3333   -0.8985 H   0  0  0  0  0  0  0  0  0  0  0  0
    4.0182    2.2087    0.1105 H   0  0  0  0  0  0  0  0  0  0  0  0
    4.1423    1.1686    1.5151 H   0  0  0  0  0  0  0  0  0  0  0  0
  1  2  2  0
  2  3  1  0
  3  4  1  0
  4  5  1  0
  5  6  1  0
  6  7  1  0
  7  8  1  0
  8  9  1  0
  9 10  1  0
 10 11  1  0
  2 12  1  0
 12 13  1  0
 13 14  1  0
 14 15  1  0
 15 16  1  0
 16 17  1  0
 17 18  1  0
 11  4  1  0
 18 13  1  0
  3 19  1  0
  4 20  1  0
  5 21  1  0
  5 22  1  0
  6 23  1  0
  6 24  1  0
  7 25  1  0
  7 26  1  0
  8 27  1  0
  8 28  1  0
  9 29  1  0
  9 30  1  0
 10 31  1  0
 10 32  1  0
 11 33  1  0
 11 34  1  0
 12 35  1  0
 13 36  1  0
 14 37  1  0
 14 38  1  0
 15 39  1  0
 15 40  1  0
 16 41  1  0
 16 42  1  0
 17 43  1  0
 17 44  1  0
 18 45  1  0
 18 46  1  0
M  END
$$$$
