
     RDKit          3D

 37 40  0  0  0  0  0  0  0  0999 V2000
    7.9541    1.6972    0.9453 C   0  0  0  0  0  0  0  0  0  0  0  0
    6.6400    1.2322    0.3857 C   0  0  0  0  0  0  0  0  0  0  0  0
    6.6008    0.5397   -0.8274 C   0  0  0  0  0  0  0  0  0  0  0  0
    5.3891    0.0719   -1.3494 C   0  0  0  0  0  0  0  0  0  0  0  0
    4.1908    0.2888   -0.6425 C   0  0  0  0  0  0  0  0  0  0  0  0
    2.9282   -0.1162   -1.0388 N   0  0  0  0  0  0  0  0  0  0  0  0
    2.0543    0.2443   -0.1398 C   0  0  0  0  0  0  0  0  0  0  0  0
    0.7016    0.0558   -0.1195 N   0  0  0  0  0  0  0  0  0  0  0  0
    0.0298   -0.6649   -1.0819 C   0  0  0  0  0  0  0  0  0  0  0  0
    0.5269   -1.1983   -2.0708 O   0  0  0  0  0  0  0  0  0  0  0  0
   -1.4802   -0.6914   -0.8939 C   0  0  0  0  0  0  0  0  0  0  0  0
   -1.9551   -0.8764    0.8484 S   0  0  0  0  0  0  0  0  0  0  0  0
   -3.6889   -0.8528    0.6986 C   0  0  0  0  0  0  0  0  0  0  0  0
   -4.4868   -0.8675    1.7486 N   0  0  0  0  0  0  0  0  0  0  0  0
   -5.7456   -0.8384    1.2062 C   0  0  0  0  0  0  0  0  0  0  0  0
   -7.0106   -0.8398    1.8068 C   0  0  0  0  0  0  0  0  0  0  0  0
   -8.1380   -0.8034    0.9716 C   0  0  0  0  0  0  0  0  0  0  0  0
   -8.0062   -0.7664   -0.4230 C   0  0  0  0  0  0  0  0  0  0  0  0
   -6.7477   -0.7641   -1.0372 C   0  0  0  0  0  0  0  0  0  0  0  0
   -5.6591   -0.8010   -0.1750 C   0  0  0  0  0  0  0  0  0  0  0  0
   -4.3376   -0.8067   -0.5089 O   0  0  0  0  0  0  0  0  0  0  0  0
    2.6498    1.0851    1.2184 S   0  0  0  0  0  0  0  0  0  0  0  0
    4.2455    0.9695    0.5758 C   0  0  0  0  0  0  0  0  0  0  0  0
    5.4560    1.4437    1.1103 C   0  0  0  0  0  0  0  0  0  0  0  0
    7.8222    2.5968    1.5558 H   0  0  0  0  0  0  0  0  0  0  0  0
    8.3958    0.9105    1.5646 H   0  0  0  0  0  0  0  0  0  0  0  0
    8.6532    1.9507    0.1414 H   0  0  0  0  0  0  0  0  0  0  0  0
    7.5172    0.3552   -1.3850 H   0  0  0  0  0  0  0  0  0  0  0  0
    5.3608   -0.4616   -2.2946 H   0  0  0  0  0  0  0  0  0  0  0  0
    0.2054    0.3929    0.6937 H   0  0  0  0  0  0  0  0  0  0  0  0
   -1.8877    0.2393   -1.3021 H   0  0  0  0  0  0  0  0  0  0  0  0
   -1.8793   -1.5382   -1.4621 H   0  0  0  0  0  0  0  0  0  0  0  0
   -7.1092   -0.8692    2.8863 H   0  0  0  0  0  0  0  0  0  0  0  0
   -9.1313   -0.8048    1.4171 H   0  0  0  0  0  0  0  0  0  0  0  0
   -8.9011   -0.7396   -1.0428 H   0  0  0  0  0  0  0  0  0  0  0  0
   -6.6269   -0.7368   -2.1128 H   0  0  0  0  0  0  0  0  0  0  0  0
    5.4695    1.9636    2.0641 H   0  0  0  0  0  0  0  0  0  0  0  0
  1  2  1  0
  2  3  2  0
  3  4  1  0
  4  5  2  0
  5  6  1  0
  6  7  2  0
  7  8  1  0
  8  9  1  0
  9 10  2  0
  9 11  1  0
 11 12  1  0
 12 13  1  0
 13 14  2  0
 14 15  1  0
 15 16  2  0
 16 17  1  0
 17 18  2  0
 18 19  1  0
 19 20  2  0
 20 21  1  0
  7 22  1  0
 22 23  1  0
 23 24  2  0
 24  2  1  0
 23  5  1  0
 21 13  1  0
 20 15  1  0
  1 25  1  0
  1 26  1  0
  1 27  1  0
  3 28  1  0
  4 29  1  0
  8 30  1  0
 11 31  1  0
 11 32  1  0
 16 33  1  0
 17 34  1  0
 18 35  1  0
 19 36  1  0
 24 37  1  0
M  END
$$$$
