
     RDKit          3D

 51 53  0  0  0  0  0  0  0  0999 V2000
   -4.3681   -4.2760   -0.1068 C   0  0  0  0  0  0  0  0  0  0  0  0
   -3.2333   -4.0312    0.7105 O   0  0  0  0  0  0  0  0  0  0  0  0
   -2.7135   -2.7601    0.7197 C   0  0  0  0  0  0  0  0  0  0  0  0
   -3.2077   -1.6984   -0.0461 C   0  0  0  0  0  0  0  0  0  0  0  0
   -2.6105   -0.4298    0.0139 C   0  0  0  0  0  0  0  0  0  0  0  0
   -1.5159   -0.2118    0.8680 C   0  0  0  0  0  0  0  0  0  0  0  0
   -1.0244   -1.2815    1.6392 C   0  0  0  0  0  0  0  0  0  0  0  0
   -1.6078   -2.5511    1.5660 C   0  0  0  0  0  0  0  0  0  0  0  0
   -1.1787   -3.6429    2.2798 O   0  0  0  0  0  0  0  0  0  0  0  0
    0.0032   -3.5019    3.0549 C   0  0  0  0  0  0  0  0  0  0  0  0
   -0.8323    1.1511    0.9410 C   0  0  0  0  0  0  0  0  0  0  0  0
    0.5622    1.2220    0.3134 C   0  0  0  0  0  0  0  0  0  0  0  0
    1.0018    0.3160   -0.6702 C   0  0  0  0  0  0  0  0  0  0  0  0
    2.2856    0.4090   -1.2143 C   0  0  0  0  0  0  0  0  0  0  0  0
    2.7923   -0.4418   -2.1635 O   0  0  0  0  0  0  0  0  0  0  0  0
    2.0842   -1.6532   -2.3912 C   0  0  0  0  0  0  0  0  0  0  0  0
    3.1266    1.4528   -0.7964 C   0  0  0  0  0  0  0  0  0  0  0  0
    4.4064    1.5312   -1.3030 O   0  0  0  0  0  0  0  0  0  0  0  0
    4.4125    2.3571   -2.4658 C   0  0  0  0  0  0  0  0  0  0  0  0
    2.7158    2.3742    0.1803 C   0  0  0  0  0  0  0  0  0  0  0  0
    3.6246    3.3415    0.5242 O   0  0  0  0  0  0  0  0  0  0  0  0
    3.2450    4.2690    1.5308 C   0  0  0  0  0  0  0  0  0  0  0  0
    1.4332    2.2533    0.7205 C   0  0  0  0  0  0  0  0  0  0  0  0
   -1.6906    2.2485    0.4490 N   0  0  0  0  0  0  0  0  0  0  0  0
   -2.2514    1.9177   -0.8655 C   0  0  0  0  0  0  0  0  0  0  0  0
   -3.1872    0.7068   -0.7943 C   0  0  0  0  0  0  0  0  0  0  0  0
   -5.2199   -3.6623    0.2044 H   0  0  0  0  0  0  0  0  0  0  0  0
   -4.1332   -4.1215   -1.1650 H   0  0  0  0  0  0  0  0  0  0  0  0
   -4.6516   -5.3253    0.0199 H   0  0  0  0  0  0  0  0  0  0  0  0
   -4.0620   -1.8311   -0.7023 H   0  0  0  0  0  0  0  0  0  0  0  0
   -0.1725   -1.0952    2.2865 H   0  0  0  0  0  0  0  0  0  0  0  0
    0.2265   -4.4744    3.5041 H   0  0  0  0  0  0  0  0  0  0  0  0
    0.8572   -3.2210    2.4296 H   0  0  0  0  0  0  0  0  0  0  0  0
   -0.1444   -2.7861    3.8701 H   0  0  0  0  0  0  0  0  0  0  0  0
   -0.6914    1.3472    2.0143 H   0  0  0  0  0  0  0  0  0  0  0  0
    0.3226   -0.4594   -1.0090 H   0  0  0  0  0  0  0  0  0  0  0  0
    2.6912   -2.2747   -3.0566 H   0  0  0  0  0  0  0  0  0  0  0  0
    1.1321   -1.4596   -2.8954 H   0  0  0  0  0  0  0  0  0  0  0  0
    1.9337   -2.2110   -1.4606 H   0  0  0  0  0  0  0  0  0  0  0  0
    4.1009    3.3808   -2.2316 H   0  0  0  0  0  0  0  0  0  0  0  0
    5.4390    2.3959   -2.8426 H   0  0  0  0  0  0  0  0  0  0  0  0
    3.7792    1.9403   -3.2566 H   0  0  0  0  0  0  0  0  0  0  0  0
    2.3889    4.8712    1.2095 H   0  0  0  0  0  0  0  0  0  0  0  0
    4.0867    4.9492    1.6931 H   0  0  0  0  0  0  0  0  0  0  0  0
    3.0401    3.7622    2.4795 H   0  0  0  0  0  0  0  0  0  0  0  0
    1.0699    2.9592    1.4617 H   0  0  0  0  0  0  0  0  0  0  0  0
   -2.4613    2.3484    1.1089 H   0  0  0  0  0  0  0  0  0  0  0  0
   -2.8127    2.7817   -1.2391 H   0  0  0  0  0  0  0  0  0  0  0  0
   -1.4502    1.7417   -1.5930 H   0  0  0  0  0  0  0  0  0  0  0  0
   -4.1343    1.0068   -0.3281 H   0  0  0  0  0  0  0  0  0  0  0  0
   -3.4065    0.3669   -1.8133 H   0  0  0  0  0  0  0  0  0  0  0  0
  1  2  1  0
  2  3  1  0
  3  4  2  0
  4  5  1  0
  5  6  2  0
  6  7  1  0
  7  8  2  0
  8  9  1  0
  9 10  1  0
  6 11  1  0
 11 12  1  0
 12 13  2  0
 13 14  1  0
 14 15  1  0
 15 16  1  0
 14 17  2  0
 17 18  1  0
 18 19  1  0
 17 20  1  0
 20 21  1  0
 21 22  1  0
 20 23  2  0
 11 24  1  0
 24 25  1  0
 25 26  1  0
  8  3  1  0
 23 12  1  0
 26  5  1  0
  1 27  1  0
  1 28  1  0
  1 29  1  0
  4 30  1  0
  7 31  1  0
 10 32  1  0
 10 33  1  0
 10 34  1  0
 11 35  1  0
 13 36  1  0
 16 37  1  0
 16 38  1  0
 16 39  1  0
 19 40  1  0
 19 41  1  0
 19 42  1  0
 22 43  1  0
 22 44  1  0
 22 45  1  0
 23 46  1  0
 24 47  1  0
 25 48  1  0
 25 49  1  0
 26 50  1  0
 26 51  1  0
M  END
$$$$
