
     RDKit          3D

 33 34  0  0  0  0  0  0  0  0999 V2000
    7.3510    0.5964   -0.2138 C   0  0  0  0  0  0  0  0  0  0  0  0
    6.7073   -0.6683    0.3396 C   0  0  0  0  0  0  0  0  0  0  0  0
    5.1868   -0.7035    0.1829 C   0  0  0  0  0  0  0  0  0  0  0  0
    4.3616    0.4979    1.2744 S   0  0  0  0  0  0  0  0  0  0  0  0
    2.6885    0.2312    0.8423 C   0  0  0  0  0  0  0  0  0  0  0  0
    2.3111   -0.6296   -0.0777 N   0  0  0  0  0  0  0  0  0  0  0  0
    0.9363   -0.6464   -0.2391 N   0  0  0  0  0  0  0  0  0  0  0  0
    0.3453    0.2042    0.5631 C   0  0  0  0  0  0  0  0  0  0  0  0
   -0.9799    0.5006    0.7335 N   0  0  0  0  0  0  0  0  0  0  0  0
   -1.9573   -0.0138   -0.0955 C   0  0  0  0  0  0  0  0  0  0  0  0
   -1.7441   -0.7243   -1.0677 O   0  0  0  0  0  0  0  0  0  0  0  0
   -3.2147    0.3947    0.3332 N   0  0  0  0  0  0  0  0  0  0  0  0
   -4.4545    0.1705   -0.3031 C   0  0  0  0  0  0  0  0  0  0  0  0
   -4.5908   -0.3803   -1.5786 C   0  0  0  0  0  0  0  0  0  0  0  0
   -5.8585   -0.5577   -2.1428 C   0  0  0  0  0  0  0  0  0  0  0  0
   -6.9999   -0.1822   -1.4386 C   0  0  0  0  0  0  0  0  0  0  0  0
   -6.8756    0.3752   -0.1692 C   0  0  0  0  0  0  0  0  0  0  0  0
   -5.6093    0.5528    0.3943 C   0  0  0  0  0  0  0  0  0  0  0  0
    1.3959    1.0803    1.5866 S   0  0  0  0  0  0  0  0  0  0  0  0
    7.0410    1.4879    0.3397 H   0  0  0  0  0  0  0  0  0  0  0  0
    8.4413    0.5233   -0.1417 H   0  0  0  0  0  0  0  0  0  0  0  0
    7.0924    0.7374   -1.2685 H   0  0  0  0  0  0  0  0  0  0  0  0
    7.1255   -1.5249   -0.2039 H   0  0  0  0  0  0  0  0  0  0  0  0
    6.9915   -0.8003    1.3907 H   0  0  0  0  0  0  0  0  0  0  0  0
    4.8282   -1.7061    0.4406 H   0  0  0  0  0  0  0  0  0  0  0  0
    4.9149   -0.5018   -0.8589 H   0  0  0  0  0  0  0  0  0  0  0  0
   -1.2004    1.2299    1.3885 H   0  0  0  0  0  0  0  0  0  0  0  0
   -3.2664    0.7877    1.2599 H   0  0  0  0  0  0  0  0  0  0  0  0
   -3.7290   -0.6803   -2.1674 H   0  0  0  0  0  0  0  0  0  0  0  0
   -5.9482   -0.9919   -3.1358 H   0  0  0  0  0  0  0  0  0  0  0  0
   -7.9825   -0.3243   -1.8810 H   0  0  0  0  0  0  0  0  0  0  0  0
   -7.7643    0.6726    0.3818 H   0  0  0  0  0  0  0  0  0  0  0  0
   -5.5434    0.9930    1.3857 H   0  0  0  0  0  0  0  0  0  0  0  0
  1  2  1  0
  2  3  1  0
  3  4  1  0
  4  5  1  0
  5  6  2  0
  6  7  1  0
  7  8  2  0
  8  9  1  0
  9 10  1  0
 10 11  2  0
 10 12  1  0
 12 13  1  0
 13 14  2  0
 14 15  1  0
 15 16  2  0
 16 17  1  0
 17 18  2  0
  8 19  1  0
 19  5  1  0
 18 13  1  0
  1 20  1  0
  1 21  1  0
  1 22  1  0
  2 23  1  0
  2 24  1  0
  3 25  1  0
  3 26  1  0
  9 27  1  0
 12 28  1  0
 14 29  1  0
 15 30  1  0
 16 31  1  0
 17 32  1  0
 18 33  1  0
M  END
$$$$
