
     RDKit          3D

 59 62  0  0  0  0  0  0  0  0999 V2000
    0.9386    3.9919    2.1745 C   0  0  0  0  0  0  0  0  0  0  0  0
    0.2650    2.7444    2.7265 C   0  0  0  0  0  0  0  0  0  0  0  0
    1.0476    1.4591    2.4522 C   0  0  0  0  0  0  0  0  0  0  0  0
    1.1112    1.0924    1.0487 N   0  0  0  0  0  0  0  0  0  0  0  0
    0.1060    0.4876    0.3053 C   0  0  0  0  0  0  0  0  0  0  0  0
   -1.2008    0.0825    0.8198 C   0  0  0  0  0  0  0  0  0  0  0  0
   -2.3505    0.7449    0.3661 C   0  0  0  0  0  0  0  0  0  0  0  0
   -3.6105    0.3846    0.8448 C   0  0  0  0  0  0  0  0  0  0  0  0
   -4.7888    0.9825    0.4800 O   0  0  0  0  0  0  0  0  0  0  0  0
   -4.7179    2.0705   -0.4312 C   0  0  0  0  0  0  0  0  0  0  0  0
   -3.7063   -0.6722    1.7672 C   0  0  0  0  0  0  0  0  0  0  0  0
   -4.9392   -1.0047    2.2860 O   0  0  0  0  0  0  0  0  0  0  0  0
   -5.5537   -2.0013    1.4706 C   0  0  0  0  0  0  0  0  0  0  0  0
   -2.5643   -1.3534    2.2246 C   0  0  0  0  0  0  0  0  0  0  0  0
   -2.7797   -2.3603    3.1294 O   0  0  0  0  0  0  0  0  0  0  0  0
   -1.6442   -3.0544    3.6265 C   0  0  0  0  0  0  0  0  0  0  0  0
   -1.3139   -0.9753    1.7333 C   0  0  0  0  0  0  0  0  0  0  0  0
    0.4763    0.3615   -0.9591 N   0  0  0  0  0  0  0  0  0  0  0  0
    1.7481    0.8338   -1.0123 C   0  0  0  0  0  0  0  0  0  0  0  0
    2.1696    1.2951    0.2014 C   0  0  0  0  0  0  0  0  0  0  0  0
    3.4635    1.8565    0.3906 C   0  0  0  0  0  0  0  0  0  0  0  0
    3.9031    2.2939    1.4475 O   0  0  0  0  0  0  0  0  0  0  0  0
    4.2080    1.8709   -0.7673 N   0  0  0  0  0  0  0  0  0  0  0  0
    3.8294    1.4120   -2.0146 C   0  0  0  0  0  0  0  0  0  0  0  0
    4.6270    1.5059   -2.9482 O   0  0  0  0  0  0  0  0  0  0  0  0
    2.5523    0.8771   -2.1321 N   0  0  0  0  0  0  0  0  0  0  0  0
    2.1111    0.3303   -3.4065 C   0  0  0  0  0  0  0  0  0  0  0  0
    2.4281   -1.1426   -3.5409 C   0  0  0  0  0  0  0  0  0  0  0  0
    1.5119   -2.1102   -3.1038 C   0  0  0  0  0  0  0  0  0  0  0  0
    1.8103   -3.4693   -3.2120 C   0  0  0  0  0  0  0  0  0  0  0  0
    3.0290   -3.8752   -3.7523 C   0  0  0  0  0  0  0  0  0  0  0  0
    3.9521   -2.9230   -4.1808 C   0  0  0  0  0  0  0  0  0  0  0  0
    3.6554   -1.5633   -4.0733 C   0  0  0  0  0  0  0  0  0  0  0  0
    0.3680    4.8823    2.4572 H   0  0  0  0  0  0  0  0  0  0  0  0
    1.9517    4.1008    2.5736 H   0  0  0  0  0  0  0  0  0  0  0  0
    0.9952    3.9668    1.0823 H   0  0  0  0  0  0  0  0  0  0  0  0
    0.1585    2.8599    3.8117 H   0  0  0  0  0  0  0  0  0  0  0  0
   -0.7481    2.6746    2.3155 H   0  0  0  0  0  0  0  0  0  0  0  0
    0.5863    0.6239    2.9887 H   0  0  0  0  0  0  0  0  0  0  0  0
    2.0658    1.5347    2.8436 H   0  0  0  0  0  0  0  0  0  0  0  0
   -2.2270    1.5415   -0.3615 H   0  0  0  0  0  0  0  0  0  0  0  0
   -4.3190    1.7488   -1.3989 H   0  0  0  0  0  0  0  0  0  0  0  0
   -5.7363    2.4350   -0.5965 H   0  0  0  0  0  0  0  0  0  0  0  0
   -4.1321    2.8971   -0.0157 H   0  0  0  0  0  0  0  0  0  0  0  0
   -5.7309   -1.6337    0.4541 H   0  0  0  0  0  0  0  0  0  0  0  0
   -6.5238   -2.2445    1.9144 H   0  0  0  0  0  0  0  0  0  0  0  0
   -4.9564   -2.9192    1.4423 H   0  0  0  0  0  0  0  0  0  0  0  0
   -1.1231   -3.5839    2.8222 H   0  0  0  0  0  0  0  0  0  0  0  0
   -1.9966   -3.8025    4.3431 H   0  0  0  0  0  0  0  0  0  0  0  0
   -0.9679   -2.3769    4.1582 H   0  0  0  0  0  0  0  0  0  0  0  0
   -0.4106   -1.4942    2.0374 H   0  0  0  0  0  0  0  0  0  0  0  0
    5.1378    2.2539   -0.7020 H   0  0  0  0  0  0  0  0  0  0  0  0
    1.0339    0.5015   -3.5271 H   0  0  0  0  0  0  0  0  0  0  0  0
    2.5913    0.8798   -4.2261 H   0  0  0  0  0  0  0  0  0  0  0  0
    0.5611   -1.8059   -2.6692 H   0  0  0  0  0  0  0  0  0  0  0  0
    1.0918   -4.2100   -2.8714 H   0  0  0  0  0  0  0  0  0  0  0  0
    3.2613   -4.9334   -3.8359 H   0  0  0  0  0  0  0  0  0  0  0  0
    4.9055   -3.2379   -4.5968 H   0  0  0  0  0  0  0  0  0  0  0  0
    4.3898   -0.8307   -4.4041 H   0  0  0  0  0  0  0  0  0  0  0  0
  1  2  1  0
  2  3  1  0
  3  4  1  0
  4  5  1  0
  5  6  1  0
  6  7  2  0
  7  8  1  0
  8  9  1  0
  9 10  1  0
  8 11  2  0
 11 12  1  0
 12 13  1  0
 11 14  1  0
 14 15  1  0
 15 16  1  0
 14 17  2  0
  5 18  2  0
 18 19  1  0
 19 20  2  0
 20 21  1  0
 21 22  2  0
 21 23  1  0
 23 24  1  0
 24 25  2  0
 24 26  1  0
 26 27  1  0
 27 28  1  0
 28 29  2  0
 29 30  1  0
 30 31  2  0
 31 32  1  0
 32 33  2  0
 20  4  1  0
 33 28  1  0
 17  6  1  0
 26 19  1  0
  1 34  1  0
  1 35  1  0
  1 36  1  0
  2 37  1  0
  2 38  1  0
  3 39  1  0
  3 40  1  0
  7 41  1  0
 10 42  1  0
 10 43  1  0
 10 44  1  0
 13 45  1  0
 13 46  1  0
 13 47  1  0
 16 48  1  0
 16 49  1  0
 16 50  1  0
 17 51  1  0
 23 52  1  0
 27 53  1  0
 27 54  1  0
 29 55  1  0
 30 56  1  0
 31 57  1  0
 32 58  1  0
 33 59  1  0
M  END
$$$$
