
     RDKit          3D

 48 50  0  0  0  0  0  0  0  0999 V2000
   -4.0102    4.4702   -1.8221 C   0  0  0  0  0  0  0  0  0  0  0  0
   -4.0515    3.8560   -0.4357 C   0  0  0  0  0  0  0  0  0  0  0  0
   -3.5945    2.4956   -0.4858 O   0  0  0  0  0  0  0  0  0  0  0  0
   -4.5374    1.5632   -0.7511 C   0  0  0  0  0  0  0  0  0  0  0  0
   -5.7138    1.7708   -0.9995 O   0  0  0  0  0  0  0  0  0  0  0  0
   -3.9469    0.2231   -0.7981 C   0  0  0  0  0  0  0  0  0  0  0  0
   -4.4891   -0.7122   -1.6503 C   0  0  0  0  0  0  0  0  0  0  0  0
   -4.0185   -1.9720   -1.7796 N   0  0  0  0  0  0  0  0  0  0  0  0
   -2.9752   -2.3086   -1.0053 C   0  0  0  0  0  0  0  0  0  0  0  0
   -2.3435   -3.9560   -1.1868 S   0  0  0  0  0  0  0  0  0  0  0  0
   -1.1623   -4.0030    0.1856 C   0  0  0  0  0  0  0  0  0  0  0  0
   -2.3890   -1.4800   -0.1321 N   0  0  0  0  0  0  0  0  0  0  0  0
   -2.8857   -0.2235   -0.0412 C   0  0  0  0  0  0  0  0  0  0  0  0
   -2.3451    0.6314    0.9142 O   0  0  0  0  0  0  0  0  0  0  0  0
   -1.1666    0.2430    1.5052 C   0  0  0  0  0  0  0  0  0  0  0  0
   -1.1736   -0.0106    2.8734 C   0  0  0  0  0  0  0  0  0  0  0  0
    0.0121   -0.3753    3.5056 C   0  0  0  0  0  0  0  0  0  0  0  0
    1.2004   -0.4740    2.7725 C   0  0  0  0  0  0  0  0  0  0  0  0
    1.2164   -0.2021    1.4022 C   0  0  0  0  0  0  0  0  0  0  0  0
    2.3738   -0.2731    0.5973 N   0  0  0  0  0  0  0  0  0  0  0  0
    3.6317   -0.7059    0.9757 C   0  0  0  0  0  0  0  0  0  0  0  0
    3.9570   -1.1679    2.0622 O   0  0  0  0  0  0  0  0  0  0  0  0
    4.6681   -0.6277   -0.0929 C   0  0  0  0  0  0  0  0  0  0  0  0
    5.6464   -1.6297   -0.1496 C   0  0  0  0  0  0  0  0  0  0  0  0
    6.6358   -1.5905   -1.1353 C   0  0  0  0  0  0  0  0  0  0  0  0
    6.6536   -0.5439   -2.0558 C   0  0  0  0  0  0  0  0  0  0  0  0
    7.8720   -0.4928   -3.2689 Cl  0  0  0  0  0  0  0  0  0  0  0  0
    5.6953    0.4683   -1.9954 C   0  0  0  0  0  0  0  0  0  0  0  0
    4.7027    0.4313   -1.0112 C   0  0  0  0  0  0  0  0  0  0  0  0
    0.0236    0.1754    0.7738 C   0  0  0  0  0  0  0  0  0  0  0  0
   -4.6845    3.9436   -2.5049 H   0  0  0  0  0  0  0  0  0  0  0  0
   -4.3003    5.5242   -1.7885 H   0  0  0  0  0  0  0  0  0  0  0  0
   -3.0037    4.3940   -2.2466 H   0  0  0  0  0  0  0  0  0  0  0  0
   -5.0536    3.9235    0.0032 H   0  0  0  0  0  0  0  0  0  0  0  0
   -3.3706    4.3978    0.2289 H   0  0  0  0  0  0  0  0  0  0  0  0
   -5.3421   -0.4773   -2.2835 H   0  0  0  0  0  0  0  0  0  0  0  0
   -1.6645   -3.8190    1.1396 H   0  0  0  0  0  0  0  0  0  0  0  0
   -0.7059   -4.9958    0.2257 H   0  0  0  0  0  0  0  0  0  0  0  0
   -0.3657   -3.2679    0.0400 H   0  0  0  0  0  0  0  0  0  0  0  0
   -2.0947    0.0667    3.4434 H   0  0  0  0  0  0  0  0  0  0  0  0
    0.0194   -0.5843    4.5726 H   0  0  0  0  0  0  0  0  0  0  0  0
    2.1015   -0.7591    3.3073 H   0  0  0  0  0  0  0  0  0  0  0  0
    2.2377   -0.0555   -0.3810 H   0  0  0  0  0  0  0  0  0  0  0  0
    5.6379   -2.4430    0.5744 H   0  0  0  0  0  0  0  0  0  0  0  0
    7.3884   -2.3740   -1.1747 H   0  0  0  0  0  0  0  0  0  0  0  0
    5.7239    1.2928   -2.7038 H   0  0  0  0  0  0  0  0  0  0  0  0
    3.9880    1.2483   -0.9547 H   0  0  0  0  0  0  0  0  0  0  0  0
    0.0028    0.4052   -0.2869 H   0  0  0  0  0  0  0  0  0  0  0  0
  1  2  1  0
  2  3  1  0
  3  4  1  0
  4  5  2  0
  4  6  1  0
  6  7  2  0
  7  8  1  0
  8  9  2  0
  9 10  1  0
 10 11  1  0
  9 12  1  0
 12 13  2  0
 13 14  1  0
 14 15  1  0
 15 16  2  0
 16 17  1  0
 17 18  2  0
 18 19  1  0
 19 20  1  0
 20 21  1  0
 21 22  2  0
 21 23  1  0
 23 24  2  0
 24 25  1  0
 25 26  2  0
 26 27  1  0
 26 28  1  0
 28 29  2  0
 19 30  2  0
 13  6  1  0
 30 15  1  0
 29 23  1  0
  1 31  1  0
  1 32  1  0
  1 33  1  0
  2 34  1  0
  2 35  1  0
  7 36  1  0
 11 37  1  0
 11 38  1  0
 11 39  1  0
 16 40  1  0
 17 41  1  0
 18 42  1  0
 20 43  1  0
 24 44  1  0
 25 45  1  0
 28 46  1  0
 29 47  1  0
 30 48  1  0
M  END
$$$$
