
     RDKit          3D

 45 46  0  0  0  0  0  0  0  0999 V2000
    5.3578    0.0906   -3.5163 C   0  0  0  0  0  0  0  0  0  0  0  0
    4.2392    0.4844   -2.7337 O   0  0  0  0  0  0  0  0  0  0  0  0
    4.0758   -0.1229   -1.5148 C   0  0  0  0  0  0  0  0  0  0  0  0
    4.9814   -1.0211   -0.9455 C   0  0  0  0  0  0  0  0  0  0  0  0
    4.7193   -1.5891    0.3030 C   0  0  0  0  0  0  0  0  0  0  0  0
    3.5446   -1.2754    0.9880 C   0  0  0  0  0  0  0  0  0  0  0  0
    2.6098   -0.3894    0.4370 C   0  0  0  0  0  0  0  0  0  0  0  0
    1.3978   -0.1106    1.2252 C   0  0  0  0  0  0  0  0  0  0  0  0
    0.1638   -0.0620    0.6995 C   0  0  0  0  0  0  0  0  0  0  0  0
   -1.0022    0.2353    1.5732 C   0  0  0  0  0  0  0  0  0  0  0  0
   -0.8325    0.6665    2.7123 O   0  0  0  0  0  0  0  0  0  0  0  0
   -2.2603    0.0195    1.0380 N   0  0  0  0  0  0  0  0  0  0  0  0
   -3.4228    0.4373    1.8174 C   0  0  0  0  0  0  0  0  0  0  0  0
   -4.6456    0.7568    0.9442 C   0  0  0  0  0  0  0  0  0  0  0  0
   -4.4826    2.0652    0.1728 C   0  0  0  0  0  0  0  0  0  0  0  0
   -5.0071   -0.2779    0.0190 O   0  0  0  0  0  0  0  0  0  0  0  0
   -3.9718   -1.1990   -0.3437 C   0  0  0  0  0  0  0  0  0  0  0  0
   -4.1529   -2.4928    0.4483 C   0  0  0  0  0  0  0  0  0  0  0  0
   -2.5437   -0.6349   -0.2410 C   0  0  0  0  0  0  0  0  0  0  0  0
    2.9052    0.2092   -0.8039 C   0  0  0  0  0  0  0  0  0  0  0  0
    2.0083    1.0956   -1.3617 O   0  0  0  0  0  0  0  0  0  0  0  0
    2.3960    2.4358   -1.0558 C   0  0  0  0  0  0  0  0  0  0  0  0
    5.3296   -0.9813   -3.7383 H   0  0  0  0  0  0  0  0  0  0  0  0
    6.2971    0.3701   -3.0281 H   0  0  0  0  0  0  0  0  0  0  0  0
    5.3057    0.6284   -4.4679 H   0  0  0  0  0  0  0  0  0  0  0  0
    5.9035   -1.2990   -1.4447 H   0  0  0  0  0  0  0  0  0  0  0  0
    5.4309   -2.2845    0.7422 H   0  0  0  0  0  0  0  0  0  0  0  0
    3.3588   -1.7405    1.9545 H   0  0  0  0  0  0  0  0  0  0  0  0
    1.5464    0.0325    2.2939 H   0  0  0  0  0  0  0  0  0  0  0  0
    0.0054   -0.2013   -0.3603 H   0  0  0  0  0  0  0  0  0  0  0  0
   -3.1686    1.2988    2.4457 H   0  0  0  0  0  0  0  0  0  0  0  0
   -3.6558   -0.3915    2.4949 H   0  0  0  0  0  0  0  0  0  0  0  0
   -5.5085    0.8833    1.6087 H   0  0  0  0  0  0  0  0  0  0  0  0
   -4.2812    2.9010    0.8499 H   0  0  0  0  0  0  0  0  0  0  0  0
   -5.3958    2.2877   -0.3901 H   0  0  0  0  0  0  0  0  0  0  0  0
   -3.6731    2.0101   -0.5607 H   0  0  0  0  0  0  0  0  0  0  0  0
   -4.1509   -1.4514   -1.3959 H   0  0  0  0  0  0  0  0  0  0  0  0
   -4.0361   -2.3404    1.5242 H   0  0  0  0  0  0  0  0  0  0  0  0
   -3.4351   -3.2545    0.1282 H   0  0  0  0  0  0  0  0  0  0  0  0
   -5.1644   -2.8869    0.2999 H   0  0  0  0  0  0  0  0  0  0  0  0
   -2.3996    0.1306   -1.0123 H   0  0  0  0  0  0  0  0  0  0  0  0
   -1.8150   -1.4314   -0.4242 H   0  0  0  0  0  0  0  0  0  0  0  0
    1.6210    3.1032   -1.4446 H   0  0  0  0  0  0  0  0  0  0  0  0
    2.4667    2.5959    0.0259 H   0  0  0  0  0  0  0  0  0  0  0  0
    3.3418    2.7000   -1.5401 H   0  0  0  0  0  0  0  0  0  0  0  0
  1  2  1  0
  2  3  1  0
  3  4  2  0
  4  5  1  0
  5  6  2  0
  6  7  1  0
  7  8  1  0
  8  9  2  3
  9 10  1  0
 10 11  2  0
 10 12  1  0
 12 13  1  0
 13 14  1  0
 14 15  1  0
 14 16  1  0
 16 17  1  0
 17 18  1  0
 17 19  1  0
  7 20  2  0
 20 21  1  0
 21 22  1  0
 20  3  1  0
 19 12  1  0
  1 23  1  0
  1 24  1  0
  1 25  1  0
  4 26  1  0
  5 27  1  0
  6 28  1  0
  8 29  1  0
  9 30  1  0
 13 31  1  0
 13 32  1  0
 14 33  1  0
 15 34  1  0
 15 35  1  0
 15 36  1  0
 17 37  1  0
 18 38  1  0
 18 39  1  0
 18 40  1  0
 19 41  1  0
 19 42  1  0
 22 43  1  0
 22 44  1  0
 22 45  1  0
M  END
$$$$
