
     RDKit          3D

 46 48  0  0  0  0  0  0  0  0999 V2000
    8.1934   -0.6116   -0.1709 C   0  0  0  0  0  0  0  0  0  0  0  0
    7.2651   -1.3894    0.5742 O   0  0  0  0  0  0  0  0  0  0  0  0
    5.9472   -1.0394    0.4838 C   0  0  0  0  0  0  0  0  0  0  0  0
    5.0798   -1.8316    1.2375 C   0  0  0  0  0  0  0  0  0  0  0  0
    3.7046   -1.5834    1.2363 C   0  0  0  0  0  0  0  0  0  0  0  0
    3.1760   -0.5324    0.4774 C   0  0  0  0  0  0  0  0  0  0  0  0
    1.6981   -0.3063    0.5075 C   0  0  0  0  0  0  0  0  0  0  0  0
    0.9852   -1.0937    1.1310 O   0  0  0  0  0  0  0  0  0  0  0  0
    1.1360    0.8921   -0.2520 C   0  0  0  0  0  0  0  0  0  0  0  0
   -0.2815    0.9966    0.0034 N   0  0  0  0  0  0  0  0  0  0  0  0
   -0.8233    1.6601    1.0562 C   0  0  0  0  0  0  0  0  0  0  0  0
   -0.2344    2.3129    1.9012 O   0  0  0  0  0  0  0  0  0  0  0  0
   -2.1874    1.4935    1.0212 N   0  0  0  0  0  0  0  0  0  0  0  0
   -2.6115    0.5656   -0.0108 C   0  0  0  0  0  0  0  0  0  0  0  0
   -3.5676    1.2330   -1.0055 C   0  0  0  0  0  0  0  0  0  0  0  0
   -4.9401    1.6106   -0.4530 C   0  0  0  0  0  0  0  0  0  0  0  0
   -5.6433    0.5575    0.3972 C   0  0  0  0  0  0  0  0  0  0  0  0
   -5.5504   -0.8736   -0.1275 C   0  0  0  0  0  0  0  0  0  0  0  0
   -4.1498   -1.4992   -0.1846 C   0  0  0  0  0  0  0  0  0  0  0  0
   -3.0703   -0.7679    0.6140 C   0  0  0  0  0  0  0  0  0  0  0  0
   -1.2480    0.3435   -0.7061 C   0  0  0  0  0  0  0  0  0  0  0  0
   -1.0686   -0.3233   -1.7176 O   0  0  0  0  0  0  0  0  0  0  0  0
    4.0453    0.2613   -0.2807 C   0  0  0  0  0  0  0  0  0  0  0  0
    5.4247    0.0075   -0.2756 C   0  0  0  0  0  0  0  0  0  0  0  0
    7.9959   -0.6842   -1.2455 H   0  0  0  0  0  0  0  0  0  0  0  0
    8.1913    0.4315    0.1623 H   0  0  0  0  0  0  0  0  0  0  0  0
    9.1929   -1.0176    0.0122 H   0  0  0  0  0  0  0  0  0  0  0  0
    5.4768   -2.6512    1.8326 H   0  0  0  0  0  0  0  0  0  0  0  0
    3.0514   -2.2174    1.8336 H   0  0  0  0  0  0  0  0  0  0  0  0
    1.6236    1.8069    0.0983 H   0  0  0  0  0  0  0  0  0  0  0  0
    1.2964    0.7450   -1.3243 H   0  0  0  0  0  0  0  0  0  0  0  0
   -2.7614    1.8322    1.7822 H   0  0  0  0  0  0  0  0  0  0  0  0
   -3.7052    0.5865   -1.8820 H   0  0  0  0  0  0  0  0  0  0  0  0
   -3.1056    2.1459   -1.4077 H   0  0  0  0  0  0  0  0  0  0  0  0
   -4.8509    2.5287    0.1412 H   0  0  0  0  0  0  0  0  0  0  0  0
   -5.5859    1.8675   -1.3025 H   0  0  0  0  0  0  0  0  0  0  0  0
   -6.7034    0.8328    0.4701 H   0  0  0  0  0  0  0  0  0  0  0  0
   -5.2671    0.6040    1.4257 H   0  0  0  0  0  0  0  0  0  0  0  0
   -6.0089   -0.9331   -1.1223 H   0  0  0  0  0  0  0  0  0  0  0  0
   -6.1733   -1.5024    0.5222 H   0  0  0  0  0  0  0  0  0  0  0  0
   -4.2248   -2.5277    0.1919 H   0  0  0  0  0  0  0  0  0  0  0  0
   -3.8325   -1.6014   -1.2295 H   0  0  0  0  0  0  0  0  0  0  0  0
   -3.4273   -0.6154    1.6406 H   0  0  0  0  0  0  0  0  0  0  0  0
   -2.2105   -1.4444    0.7158 H   0  0  0  0  0  0  0  0  0  0  0  0
    3.6863    1.0847   -0.8909 H   0  0  0  0  0  0  0  0  0  0  0  0
    6.0631    0.6467   -0.8775 H   0  0  0  0  0  0  0  0  0  0  0  0
  1  2  1  0
  2  3  1  0
  3  4  2  0
  4  5  1  0
  5  6  2  0
  6  7  1  0
  7  8  2  0
  7  9  1  0
  9 10  1  0
 10 11  1  0
 11 12  2  0
 11 13  1  0
 13 14  1  0
 14 15  1  0
 15 16  1  0
 16 17  1  0
 17 18  1  0
 18 19  1  0
 19 20  1  0
 14 21  1  0
 21 22  2  0
  6 23  1  0
 23 24  2  0
 24  3  1  0
 21 10  1  0
 20 14  1  0
  1 25  1  0
  1 26  1  0
  1 27  1  0
  4 28  1  0
  5 29  1  0
  9 30  1  0
  9 31  1  0
 13 32  1  0
 15 33  1  0
 15 34  1  0
 16 35  1  0
 16 36  1  0
 17 37  1  0
 17 38  1  0
 18 39  1  0
 18 40  1  0
 19 41  1  0
 19 42  1  0
 20 43  1  0
 20 44  1  0
 23 45  1  0
 24 46  1  0
M  END
$$$$
