
     RDKit          3D

 36 37  0  0  0  0  0  0  0  0999 V2000
    2.1712   -0.6739    1.5254 C   0  0  0  0  0  0  0  0  0  0  0  0
    1.3785   -0.2190    0.2985 C   0  0  0  0  0  0  0  0  0  0  0  0
    0.1371    0.4217    0.7376 N   0  0  0  0  0  0  0  0  0  0  0  0
   -0.9106   -0.2612    1.0261 C   0  0  0  0  0  0  0  0  0  0  0  0
   -2.1299    0.5537    1.4551 C   0  0  0  0  0  0  0  0  0  0  0  0
   -3.2616    0.5479    0.4226 C   0  0  0  0  0  0  0  0  0  0  0  0
   -3.2096   -0.5456   -0.6460 C   0  0  0  0  0  0  0  0  0  0  0  0
   -3.2338   -1.9877   -0.1303 C   0  0  0  0  0  0  0  0  0  0  0  0
   -2.3449   -2.2913    1.0727 C   0  0  0  0  0  0  0  0  0  0  0  0
   -1.0607   -1.6293    0.9772 N   0  0  0  0  0  0  0  0  0  0  0  0
    2.2286    0.7281   -0.5374 C   0  0  0  0  0  0  0  0  0  0  0  0
    2.9922    0.2332   -1.6067 C   0  0  0  0  0  0  0  0  0  0  0  0
    3.7948    1.0884   -2.3651 C   0  0  0  0  0  0  0  0  0  0  0  0
    3.8482    2.4474   -2.0622 C   0  0  0  0  0  0  0  0  0  0  0  0
    3.1008    2.9525   -1.0006 C   0  0  0  0  0  0  0  0  0  0  0  0
    2.2987    2.0983   -0.2418 C   0  0  0  0  0  0  0  0  0  0  0  0
    2.4125    0.1700    2.1823 H   0  0  0  0  0  0  0  0  0  0  0  0
    1.6008   -1.3962    2.1187 H   0  0  0  0  0  0  0  0  0  0  0  0
    3.1137   -1.1506    1.2339 H   0  0  0  0  0  0  0  0  0  0  0  0
    1.1538   -1.0863   -0.3337 H   0  0  0  0  0  0  0  0  0  0  0  0
   -1.8284    1.5884    1.6600 H   0  0  0  0  0  0  0  0  0  0  0  0
   -2.4905    0.1551    2.4107 H   0  0  0  0  0  0  0  0  0  0  0  0
   -3.2551    1.5162   -0.0946 H   0  0  0  0  0  0  0  0  0  0  0  0
   -4.2224    0.5009    0.9498 H   0  0  0  0  0  0  0  0  0  0  0  0
   -2.3153   -0.3999   -1.2657 H   0  0  0  0  0  0  0  0  0  0  0  0
   -4.0587   -0.4105   -1.3279 H   0  0  0  0  0  0  0  0  0  0  0  0
   -4.2645   -2.2632    0.1253 H   0  0  0  0  0  0  0  0  0  0  0  0
   -2.9437   -2.6434   -0.9614 H   0  0  0  0  0  0  0  0  0  0  0  0
   -2.1853   -3.3736    1.1399 H   0  0  0  0  0  0  0  0  0  0  0  0
   -2.8514   -2.0088    2.0023 H   0  0  0  0  0  0  0  0  0  0  0  0
   -0.3384   -2.1581    0.5075 H   0  0  0  0  0  0  0  0  0  0  0  0
    2.9665   -0.8248   -1.8556 H   0  0  0  0  0  0  0  0  0  0  0  0
    4.3787    0.6936   -3.1920 H   0  0  0  0  0  0  0  0  0  0  0  0
    4.4716    3.1130   -2.6527 H   0  0  0  0  0  0  0  0  0  0  0  0
    3.1391    4.0116   -0.7612 H   0  0  0  0  0  0  0  0  0  0  0  0
    1.7181    2.5035    0.5847 H   0  0  0  0  0  0  0  0  0  0  0  0
  1  2  1  0
  2  3  1  0
  3  4  2  3
  4  5  1  0
  5  6  1  0
  6  7  1  0
  7  8  1  0
  8  9  1  0
  9 10  1  0
  2 11  1  0
 11 12  2  0
 12 13  1  0
 13 14  2  0
 14 15  1  0
 15 16  2  0
 10  4  1  0
 16 11  1  0
  1 17  1  0
  1 18  1  0
  1 19  1  0
  2 20  1  0
  5 21  1  0
  5 22  1  0
  6 23  1  0
  6 24  1  0
  7 25  1  0
  7 26  1  0
  8 27  1  0
  8 28  1  0
  9 29  1  0
  9 30  1  0
 10 31  1  0
 12 32  1  0
 13 33  1  0
 14 34  1  0
 15 35  1  0
 16 36  1  0
M  END
$$$$
