
     RDKit          3D

 46 48  0  0  0  0  0  0  0  0999 V2000
   -1.2328    0.8490   -1.6490 O   0  0  0  0  0  0  0  0  0  0  0  0
   -1.7978    0.0848   -0.8676 C   0  0  0  0  0  0  0  0  0  0  0  0
   -2.7866    0.5169   -0.0030 N   0  0  0  0  0  0  0  0  0  0  0  0
   -3.8800   -0.3464    0.4670 C   0  0  0  0  0  0  0  0  0  0  0  0
   -5.2371    0.3442    0.2890 C   0  0  0  0  0  0  0  0  0  0  0  0
   -5.3356    1.5865    1.0010 O   0  0  0  0  0  0  0  0  0  0  0  0
   -4.0875    2.2852    1.1297 C   0  0  0  0  0  0  0  0  0  0  0  0
   -3.0845    1.9499    0.0247 C   0  0  0  0  0  0  0  0  0  0  0  0
   -1.4764   -1.2663   -0.8058 N   0  0  0  0  0  0  0  0  0  0  0  0
   -0.6915   -1.7978   -1.9242 C   0  0  0  0  0  0  0  0  0  0  0  0
    0.8143   -1.5391   -1.7414 C   0  0  0  0  0  0  0  0  0  0  0  0
    1.2646   -2.0794   -0.4198 N   0  0  0  0  0  0  0  0  0  0  0  0
    2.9388   -2.2052   -0.1846 S   0  0  0  0  0  6  0  0  0  0  0  0
    3.5142   -2.8163   -1.3635 O   0  0  0  0  0  0  0  0  0  0  0  0
    3.1695   -2.7587    1.1324 O   0  0  0  0  0  0  0  0  0  0  0  0
    3.4858   -0.5093   -0.1435 C   0  0  0  0  0  0  0  0  0  0  0  0
    3.9638    0.0928   -1.3139 C   0  0  0  0  0  0  0  0  0  0  0  0
    4.4192    1.4120   -1.2801 C   0  0  0  0  0  0  0  0  0  0  0  0
    4.4084    2.1259   -0.0798 C   0  0  0  0  0  0  0  0  0  0  0  0
    3.9465    1.5067    1.0907 C   0  0  0  0  0  0  0  0  0  0  0  0
    3.9279    2.2594    2.3497 N   0  0  0  0  0  4  0  0  0  0  0  0
    3.2775    1.7829    3.2907 O   0  0  0  0  0  0  0  0  0  0  0  0
    4.5525    3.3281    2.3919 O   0  0  0  0  0  1  0  0  0  0  0  0
    3.4934    0.1823    1.0718 C   0  0  0  0  0  0  0  0  0  0  0  0
    0.4602   -1.5425    0.7192 C   0  0  0  0  0  0  0  0  0  0  0  0
   -1.0391   -1.8152    0.4848 C   0  0  0  0  0  0  0  0  0  0  0  0
   -3.7028   -0.5239    1.5335 H   0  0  0  0  0  0  0  0  0  0  0  0
   -3.8767   -1.3047   -0.0603 H   0  0  0  0  0  0  0  0  0  0  0  0
   -5.4275    0.5501   -0.7708 H   0  0  0  0  0  0  0  0  0  0  0  0
   -6.0423   -0.3045    0.6478 H   0  0  0  0  0  0  0  0  0  0  0  0
   -3.6702    2.0332    2.1115 H   0  0  0  0  0  0  0  0  0  0  0  0
   -4.3080    3.3572    1.1321 H   0  0  0  0  0  0  0  0  0  0  0  0
   -3.5000    2.2164   -0.9550 H   0  0  0  0  0  0  0  0  0  0  0  0
   -2.1505    2.5056    0.1613 H   0  0  0  0  0  0  0  0  0  0  0  0
   -1.0402   -1.3550   -2.8640 H   0  0  0  0  0  0  0  0  0  0  0  0
   -0.8855   -2.8761   -1.9722 H   0  0  0  0  0  0  0  0  0  0  0  0
    1.0254   -0.4659   -1.7869 H   0  0  0  0  0  0  0  0  0  0  0  0
    1.3513   -2.0356   -2.5556 H   0  0  0  0  0  0  0  0  0  0  0  0
    3.9877   -0.4585   -2.2527 H   0  0  0  0  0  0  0  0  0  0  0  0
    4.7863    1.8835   -2.1900 H   0  0  0  0  0  0  0  0  0  0  0  0
    4.7634    3.1552   -0.0717 H   0  0  0  0  0  0  0  0  0  0  0  0
    3.1543   -0.3082    1.9824 H   0  0  0  0  0  0  0  0  0  0  0  0
    0.7566   -2.0265    1.6548 H   0  0  0  0  0  0  0  0  0  0  0  0
    0.6286   -0.4639    0.8107 H   0  0  0  0  0  0  0  0  0  0  0  0
   -1.6037   -1.3821    1.3131 H   0  0  0  0  0  0  0  0  0  0  0  0
   -1.2337   -2.8939    0.4659 H   0  0  0  0  0  0  0  0  0  0  0  0
  1  2  2  0
  2  3  1  0
  3  4  1  0
  4  5  1  0
  5  6  1  0
  6  7  1  0
  7  8  1  0
  2  9  1  0
  9 10  1  0
 10 11  1  0
 11 12  1  0
 12 13  1  0
 13 14  2  0
 13 15  2  0
 13 16  1  0
 16 17  2  0
 17 18  1  0
 18 19  2  0
 19 20  1  0
 20 21  1  0
 21 22  2  0
 21 23  1  0
 20 24  2  0
 12 25  1  0
 25 26  1  0
  8  3  1  0
 26  9  1  0
 24 16  1  0
  4 27  1  0
  4 28  1  0
  5 29  1  0
  5 30  1  0
  7 31  1  0
  7 32  1  0
  8 33  1  0
  8 34  1  0
 10 35  1  0
 10 36  1  0
 11 37  1  0
 11 38  1  0
 17 39  1  0
 18 40  1  0
 19 41  1  0
 24 42  1  0
 25 43  1  0
 25 44  1  0
 26 45  1  0
 26 46  1  0
M  CHG  2  21   1  23  -1
M  END
$$$$
