
     RDKit          3D

 40 42  0  0  0  0  0  0  0  0999 V2000
    4.0816    3.2916   -0.3270 C   0  0  0  0  0  0  0  0  0  0  0  0
    3.7341    2.4945    0.9161 C   0  0  0  0  0  0  0  0  0  0  0  0
    2.7432    1.5056    0.6078 O   0  0  0  0  0  0  0  0  0  0  0  0
    3.2121    0.3122    0.1451 C   0  0  0  0  0  0  0  0  0  0  0  0
    4.3928    0.0371   -0.0183 O   0  0  0  0  0  0  0  0  0  0  0  0
    2.0651   -0.6216   -0.1359 C   0  0  0  0  0  0  0  0  0  0  0  0
    0.8149   -0.1619    0.0433 N   0  0  0  0  0  0  0  0  0  0  0  0
   -0.1936   -1.0103   -0.2090 C   0  0  0  0  0  0  0  0  0  0  0  0
   -1.5369   -0.5624   -0.0709 N   0  0  0  0  0  0  0  0  0  0  0  0
   -2.0252    0.6158    0.5496 C   0  0  0  0  0  0  0  0  0  0  0  0
   -1.3366    1.2230    1.6122 C   0  0  0  0  0  0  0  0  0  0  0  0
   -1.8451    2.3477    2.2663 C   0  0  0  0  0  0  0  0  0  0  0  0
   -3.0722    2.8748    1.8876 C   0  0  0  0  0  0  0  0  0  0  0  0
   -3.7967    2.2674    0.8652 C   0  0  0  0  0  0  0  0  0  0  0  0
   -3.2965    1.1316    0.2013 C   0  0  0  0  0  0  0  0  0  0  0  0
   -4.1399    0.5105   -0.8802 C   0  0  0  0  0  0  0  0  0  0  0  0
    0.0359   -2.3377   -0.6265 C   0  0  0  0  0  0  0  0  0  0  0  0
   -0.9744   -3.3034   -0.8758 C   0  0  0  0  0  0  0  0  0  0  0  0
   -0.6475   -4.5915   -1.2941 C   0  0  0  0  0  0  0  0  0  0  0  0
    0.6863   -4.9336   -1.4645 C   0  0  0  0  0  0  0  0  0  0  0  0
    1.6821   -3.9879   -1.2081 C   0  0  0  0  0  0  0  0  0  0  0  0
    1.3809   -2.6984   -0.7878 C   0  0  0  0  0  0  0  0  0  0  0  0
    2.3882   -1.8585   -0.5535 N   0  0  0  0  0  0  0  0  0  0  0  0
    3.1813    3.7396   -0.7605 H   0  0  0  0  0  0  0  0  0  0  0  0
    4.7935    4.0876   -0.0910 H   0  0  0  0  0  0  0  0  0  0  0  0
    4.5193    2.6482   -1.0968 H   0  0  0  0  0  0  0  0  0  0  0  0
    4.6255    2.0407    1.3641 H   0  0  0  0  0  0  0  0  0  0  0  0
    3.2992    3.1593    1.6695 H   0  0  0  0  0  0  0  0  0  0  0  0
   -2.0237   -0.7504   -0.9395 H   0  0  0  0  0  0  0  0  0  0  0  0
   -0.3857    0.8237    1.9539 H   0  0  0  0  0  0  0  0  0  0  0  0
   -1.2796    2.8030    3.0748 H   0  0  0  0  0  0  0  0  0  0  0  0
   -3.4704    3.7495    2.3943 H   0  0  0  0  0  0  0  0  0  0  0  0
   -4.7640    2.6834    0.5914 H   0  0  0  0  0  0  0  0  0  0  0  0
   -5.1162    1.0000   -0.9635 H   0  0  0  0  0  0  0  0  0  0  0  0
   -3.6395    0.6026   -1.8495 H   0  0  0  0  0  0  0  0  0  0  0  0
   -4.3249   -0.5460   -0.6605 H   0  0  0  0  0  0  0  0  0  0  0  0
   -2.0237   -3.0583   -0.7257 H   0  0  0  0  0  0  0  0  0  0  0  0
   -1.4293   -5.3242   -1.4785 H   0  0  0  0  0  0  0  0  0  0  0  0
    0.9597   -5.9348   -1.7884 H   0  0  0  0  0  0  0  0  0  0  0  0
    2.7261   -4.2687   -1.3367 H   0  0  0  0  0  0  0  0  0  0  0  0
  1  2  1  0
  2  3  1  0
  3  4  1  0
  4  5  2  0
  4  6  1  0
  6  7  2  0
  7  8  1  0
  8  9  1  0
  9 10  1  0
 10 11  2  0
 11 12  1  0
 12 13  2  0
 13 14  1  0
 14 15  2  0
 15 16  1  0
  8 17  2  0
 17 18  1  0
 18 19  2  0
 19 20  1  0
 20 21  2  0
 21 22  1  0
 22 23  2  0
 23  6  1  0
 15 10  1  0
 22 17  1  0
  1 24  1  0
  1 25  1  0
  1 26  1  0
  2 27  1  0
  2 28  1  0
  9 29  1  0
 11 30  1  0
 12 31  1  0
 13 32  1  0
 14 33  1  0
 16 34  1  0
 16 35  1  0
 16 36  1  0
 18 37  1  0
 19 38  1  0
 20 39  1  0
 21 40  1  0
M  END
$$$$
