
     RDKit          3D

 40 42  0  0  0  0  0  0  0  0999 V2000
   -3.0613   -1.7367   -1.5032 C   0  0  0  0  0  0  0  0  0  0  0  0
   -2.0620   -0.9223   -0.6815 C   0  0  0  0  0  0  0  0  0  0  0  0
   -1.5221   -1.7719    0.4693 C   0  0  0  0  0  0  0  0  0  0  0  0
   -0.9372   -0.4033   -1.5969 C   0  0  0  0  0  0  0  0  0  0  0  0
   -0.1019    0.6167   -0.9924 N   0  0  0  0  0  0  0  0  0  0  0  0
    1.1659    0.4781   -0.4835 C   0  0  0  0  0  0  0  0  0  0  0  0
    2.0280   -1.0167   -0.4065 S   0  0  0  0  0  0  0  0  0  0  0  0
    3.6852   -0.4707    0.1036 C   0  0  0  0  0  0  0  0  0  0  0  0
    3.7676    0.0353    1.5366 C   0  0  0  0  0  0  0  0  0  0  0  0
    4.2800    1.1389    1.7487 O   0  0  0  0  0  0  0  0  0  0  0  0
    3.3578   -0.8586    2.6239 C   0  0  0  0  0  0  0  0  0  0  0  0
    3.1463   -2.2284    2.6325 C   0  0  0  0  0  0  0  0  0  0  0  0
    2.7951   -2.7213    3.9300 C   0  0  0  0  0  0  0  0  0  0  0  0
    2.7492   -1.7069    4.8479 C   0  0  0  0  0  0  0  0  0  0  0  0
    2.3702   -1.8552    6.5188 Cl  0  0  0  0  0  0  0  0  0  0  0  0
    3.1101   -0.1921    4.1959 S   0  0  0  0  0  0  0  0  0  0  0  0
    1.6077    1.6353   -0.0590 N   0  0  0  0  0  0  0  0  0  0  0  0
    0.6298    2.5668   -0.3036 N   0  0  0  0  0  0  0  0  0  0  0  0
   -0.3962    1.9570   -0.8651 C   0  0  0  0  0  0  0  0  0  0  0  0
   -1.5964    2.6283   -1.2676 C   0  0  0  0  0  0  0  0  0  0  0  0
   -1.9155    3.9679   -1.0950 C   0  0  0  0  0  0  0  0  0  0  0  0
   -3.2029    4.1729   -1.6494 C   0  0  0  0  0  0  0  0  0  0  0  0
   -3.5963    2.9556   -2.1492 C   0  0  0  0  0  0  0  0  0  0  0  0
   -2.6436    2.0180   -1.9168 O   0  0  0  0  0  0  0  0  0  0  0  0
   -3.5115   -1.1165   -2.2891 H   0  0  0  0  0  0  0  0  0  0  0  0
   -3.8731   -2.1120   -0.8681 H   0  0  0  0  0  0  0  0  0  0  0  0
   -2.5765   -2.5939   -1.9825 H   0  0  0  0  0  0  0  0  0  0  0  0
   -2.6039   -0.0766   -0.2416 H   0  0  0  0  0  0  0  0  0  0  0  0
   -2.3451   -2.1718    1.0722 H   0  0  0  0  0  0  0  0  0  0  0  0
   -0.8910   -1.1782    1.1409 H   0  0  0  0  0  0  0  0  0  0  0  0
   -0.9383   -2.6192    0.0967 H   0  0  0  0  0  0  0  0  0  0  0  0
   -0.3018   -1.2323   -1.9291 H   0  0  0  0  0  0  0  0  0  0  0  0
   -1.3466    0.0268   -2.5199 H   0  0  0  0  0  0  0  0  0  0  0  0
    4.3838   -1.3076   -0.0029 H   0  0  0  0  0  0  0  0  0  0  0  0
    4.0273    0.3170   -0.5761 H   0  0  0  0  0  0  0  0  0  0  0  0
    3.2517   -2.8690    1.7649 H   0  0  0  0  0  0  0  0  0  0  0  0
    2.5964   -3.7599    4.1659 H   0  0  0  0  0  0  0  0  0  0  0  0
   -1.2808    4.7037   -0.6138 H   0  0  0  0  0  0  0  0  0  0  0  0
   -3.7659    5.0955   -1.6876 H   0  0  0  0  0  0  0  0  0  0  0  0
   -4.4821    2.6071   -2.6656 H   0  0  0  0  0  0  0  0  0  0  0  0
  1  2  1  0
  2  3  1  0
  2  4  1  0
  4  5  1  0
  5  6  1  0
  6  7  1  0
  7  8  1  0
  8  9  1  0
  9 10  2  0
  9 11  1  0
 11 12  2  0
 12 13  1  0
 13 14  2  0
 14 15  1  0
 14 16  1  0
  6 17  2  0
 17 18  1  0
 18 19  2  0
 19 20  1  0
 20 21  2  0
 21 22  1  0
 22 23  2  0
 23 24  1  0
 19  5  1  0
 24 20  1  0
 16 11  1  0
  1 25  1  0
  1 26  1  0
  1 27  1  0
  2 28  1  0
  3 29  1  0
  3 30  1  0
  3 31  1  0
  4 32  1  0
  4 33  1  0
  8 34  1  0
  8 35  1  0
 12 36  1  0
 13 37  1  0
 21 38  1  0
 22 39  1  0
 23 40  1  0
M  END
$$$$
