
     RDKit          3D

 60 65  0  0  0  0  0  0  0  0999 V2000
    1.7477   -0.0412   -4.1210 O   0  0  0  0  0  0  0  0  0  0  0  0
    1.8341    0.1496   -2.9104 C   0  0  0  0  0  0  0  0  0  0  0  0
    0.5706    0.2419   -2.0620 C   0  0  0  0  0  0  0  0  0  0  0  0
    0.7724   -0.5900   -0.4528 S   0  0  0  0  0  0  0  0  0  0  0  0
   -0.8875   -0.5232    0.1415 C   0  0  0  0  0  0  0  0  0  0  0  0
   -1.6124    0.4385   -0.3223 N   0  0  0  0  0  0  0  0  0  0  0  0
   -2.8900    0.6130    0.1926 C   0  0  0  0  0  0  0  0  0  0  0  0
   -3.5888    1.6131   -0.3820 N   0  0  0  0  0  0  0  0  0  0  0  0
   -4.8388    1.8664    0.0820 C   0  0  0  0  0  0  0  0  0  0  0  0
   -5.4134    1.1526    1.1389 C   0  0  0  0  0  0  0  0  0  0  0  0
   -4.6681    0.1160    1.7079 C   0  0  0  0  0  0  0  0  0  0  0  0
   -3.3869   -0.1481    1.2248 C   0  0  0  0  0  0  0  0  0  0  0  0
   -2.5471   -1.2285    1.7510 C   0  0  0  0  0  0  0  0  0  0  0  0
   -3.0141   -1.9043    2.6671 O   0  0  0  0  0  0  0  0  0  0  0  0
   -1.3031   -1.4173    1.1322 N   0  0  0  0  0  0  0  0  0  0  0  0
   -0.5339   -2.5616    1.5372 C   0  0  0  0  0  0  0  0  0  0  0  0
   -0.0300   -3.4674    0.5904 C   0  0  0  0  0  0  0  0  0  0  0  0
    0.7038   -4.5872    0.9918 C   0  0  0  0  0  0  0  0  0  0  0  0
    0.9313   -4.8248    2.3446 C   0  0  0  0  0  0  0  0  0  0  0  0
    0.4183   -3.9490    3.2976 C   0  0  0  0  0  0  0  0  0  0  0  0
   -0.3146   -2.8287    2.8971 C   0  0  0  0  0  0  0  0  0  0  0  0
   -6.8140    1.4254    1.6189 C   0  0  0  0  0  0  0  0  0  0  0  0
   -7.3516    2.7823    1.1656 C   0  0  0  0  0  0  0  0  0  0  0  0
   -7.0682    3.0013   -0.3159 C   0  0  0  0  0  0  0  0  0  0  0  0
   -5.5623    3.0172   -0.5693 C   0  0  0  0  0  0  0  0  0  0  0  0
    3.0010    0.3593   -2.1946 N   0  0  0  0  0  0  0  0  0  0  0  0
    4.3364    0.4259   -2.6676 C   0  0  0  0  0  0  0  0  0  0  0  0
    4.6170    0.4391   -4.0398 C   0  0  0  0  0  0  0  0  0  0  0  0
    5.9273    0.5214   -4.5034 C   0  0  0  0  0  0  0  0  0  0  0  0
    6.9805    0.5962   -3.6005 C   0  0  0  0  0  0  0  0  0  0  0  0
    6.7432    0.5879   -2.2208 C   0  0  0  0  0  0  0  0  0  0  0  0
    7.8332    0.6638   -1.3369 C   0  0  0  0  0  0  0  0  0  0  0  0
    7.6446    0.6500    0.0417 C   0  0  0  0  0  0  0  0  0  0  0  0
    6.3601    0.5603    0.5551 C   0  0  0  0  0  0  0  0  0  0  0  0
    5.2647    0.4873   -0.3114 C   0  0  0  0  0  0  0  0  0  0  0  0
    5.4142    0.5008   -1.7246 C   0  0  0  0  0  0  0  0  0  0  0  0
    0.3365    1.3014   -1.9195 H   0  0  0  0  0  0  0  0  0  0  0  0
   -0.2427   -0.2409   -2.6137 H   0  0  0  0  0  0  0  0  0  0  0  0
   -5.0818   -0.4844    2.5155 H   0  0  0  0  0  0  0  0  0  0  0  0
   -0.2261   -3.3370   -0.4710 H   0  0  0  0  0  0  0  0  0  0  0  0
    1.0878   -5.2797    0.2467 H   0  0  0  0  0  0  0  0  0  0  0  0
    1.4979   -5.6985    2.6567 H   0  0  0  0  0  0  0  0  0  0  0  0
    0.5822   -4.1385    4.3555 H   0  0  0  0  0  0  0  0  0  0  0  0
   -0.7024   -2.1623    3.6646 H   0  0  0  0  0  0  0  0  0  0  0  0
   -6.8495    1.3794    2.7138 H   0  0  0  0  0  0  0  0  0  0  0  0
   -7.4661    0.6320    1.2326 H   0  0  0  0  0  0  0  0  0  0  0  0
   -6.8802    3.5826    1.7496 H   0  0  0  0  0  0  0  0  0  0  0  0
   -8.4286    2.8358    1.3582 H   0  0  0  0  0  0  0  0  0  0  0  0
   -7.5077    3.9480   -0.6491 H   0  0  0  0  0  0  0  0  0  0  0  0
   -7.5389    2.2024   -0.9029 H   0  0  0  0  0  0  0  0  0  0  0  0
   -5.3762    3.0052   -1.6497 H   0  0  0  0  0  0  0  0  0  0  0  0
   -5.1365    3.9478   -0.1737 H   0  0  0  0  0  0  0  0  0  0  0  0
    2.8698    0.3880   -1.1929 H   0  0  0  0  0  0  0  0  0  0  0  0
    3.8301    0.3966   -4.7859 H   0  0  0  0  0  0  0  0  0  0  0  0
    6.1224    0.5293   -5.5728 H   0  0  0  0  0  0  0  0  0  0  0  0
    7.9953    0.6607   -3.9880 H   0  0  0  0  0  0  0  0  0  0  0  0
    8.8491    0.7320   -1.7214 H   0  0  0  0  0  0  0  0  0  0  0  0
    8.4997    0.7071    0.7100 H   0  0  0  0  0  0  0  0  0  0  0  0
    6.2033    0.5437    1.6304 H   0  0  0  0  0  0  0  0  0  0  0  0
    4.2872    0.4119    0.1542 H   0  0  0  0  0  0  0  0  0  0  0  0
  1  2  2  0
  2  3  1  0
  3  4  1  0
  4  5  1  0
  5  6  2  0
  6  7  1  0
  7  8  2  0
  8  9  1  0
  9 10  2  0
 10 11  1  0
 11 12  2  0
 12 13  1  0
 13 14  2  0
 13 15  1  0
 15 16  1  0
 16 17  2  0
 17 18  1  0
 18 19  2  0
 19 20  1  0
 20 21  2  0
 10 22  1  0
 22 23  1  0
 23 24  1  0
 24 25  1  0
  2 26  1  0
 26 27  1  0
 27 28  2  0
 28 29  1  0
 29 30  2  0
 30 31  1  0
 31 32  2  0
 32 33  1  0
 33 34  2  0
 34 35  1  0
 35 36  2  0
 15  5  1  0
 21 16  1  0
 36 27  1  0
 12  7  1  0
 36 31  1  0
 25  9  1  0
  3 37  1  0
  3 38  1  0
 11 39  1  0
 17 40  1  0
 18 41  1  0
 19 42  1  0
 20 43  1  0
 21 44  1  0
 22 45  1  0
 22 46  1  0
 23 47  1  0
 23 48  1  0
 24 49  1  0
 24 50  1  0
 25 51  1  0
 25 52  1  0
 26 53  1  0
 28 54  1  0
 29 55  1  0
 30 56  1  0
 32 57  1  0
 33 58  1  0
 34 59  1  0
 35 60  1  0
M  END
$$$$
