
     RDKit          3D

 56 59  0  0  0  0  0  0  0  0999 V2000
   -3.4951    3.3833   -2.4206 C   0  0  0  0  0  0  0  0  0  0  0  0
   -2.5979    3.5294   -1.2057 C   0  0  0  0  0  0  0  0  0  0  0  0
   -2.6692    2.3498   -0.3922 O   0  0  0  0  0  0  0  0  0  0  0  0
   -1.8260    1.3350   -0.7364 C   0  0  0  0  0  0  0  0  0  0  0  0
   -1.0506    1.3901   -1.6853 O   0  0  0  0  0  0  0  0  0  0  0  0
   -1.9493    0.1516    0.1227 C   0  0  0  0  0  0  0  0  0  0  0  0
   -1.1153   -0.9536   -0.0347 C   0  0  0  0  0  0  0  0  0  0  0  0
   -0.0564   -1.0634   -0.9276 N   0  0  0  0  0  0  0  0  0  0  0  0
    0.7909   -2.1473   -1.1151 C   0  0  0  0  0  0  0  0  0  0  0  0
    0.7896   -3.2065   -0.4929 O   0  0  0  0  0  0  0  0  0  0  0  0
    1.8266   -1.8924   -2.2138 C   0  0  0  0  0  0  0  0  0  0  0  0
    3.0422   -1.3209   -1.6485 N   0  0  0  0  0  0  0  0  0  0  0  0
    4.1155   -2.1689   -1.5024 N   0  0  0  0  0  0  0  0  0  0  0  0
    5.2260   -1.6897   -1.0250 C   0  0  0  0  0  0  0  0  0  0  0  0
    6.3844   -2.6598   -0.8817 C   0  0  0  0  0  0  0  0  0  0  0  0
    7.2739   -2.7855   -1.6993 O   0  0  0  0  0  0  0  0  0  0  0  0
    6.3378   -3.3274    0.2738 O   0  0  0  0  0  0  0  0  0  0  0  0
    5.4197   -0.2860   -0.6405 C   0  0  0  0  0  0  0  0  0  0  0  0
    6.6280    0.2079   -0.1330 C   0  0  0  0  0  0  0  0  0  0  0  0
    6.7368    1.5595    0.2068 C   0  0  0  0  0  0  0  0  0  0  0  0
    5.6473    2.4155    0.0408 C   0  0  0  0  0  0  0  0  0  0  0  0
    4.4449    1.9226   -0.4668 C   0  0  0  0  0  0  0  0  0  0  0  0
    4.3348    0.5683   -0.8072 C   0  0  0  0  0  0  0  0  0  0  0  0
    3.0704    0.0373   -1.3489 C   0  0  0  0  0  0  0  0  0  0  0  0
    2.1080    0.7843   -1.5086 O   0  0  0  0  0  0  0  0  0  0  0  0
   -1.5243   -2.2319    1.0020 S   0  0  0  0  0  0  0  0  0  0  0  0
   -2.7773   -1.3492    1.7201 C   0  0  0  0  0  0  0  0  0  0  0  0
   -2.9028   -0.0764    1.1956 C   0  0  0  0  0  0  0  0  0  0  0  0
   -3.9645    0.8658    1.6964 C   0  0  0  0  0  0  0  0  0  0  0  0
   -4.5977    0.3920    3.0150 C   0  0  0  0  0  0  0  0  0  0  0  0
   -4.9001   -1.1193    3.0428 C   0  0  0  0  0  0  0  0  0  0  0  0
   -5.9906   -1.5000    2.0361 C   0  0  0  0  0  0  0  0  0  0  0  0
   -3.6094   -1.9357    2.8207 C   0  0  0  0  0  0  0  0  0  0  0  0
   -4.5246    3.1650   -2.1157 H   0  0  0  0  0  0  0  0  0  0  0  0
   -3.4895    4.2979   -3.0196 H   0  0  0  0  0  0  0  0  0  0  0  0
   -3.1690    2.5510   -3.0534 H   0  0  0  0  0  0  0  0  0  0  0  0
   -2.9470    4.3640   -0.5902 H   0  0  0  0  0  0  0  0  0  0  0  0
   -1.5652    3.7543   -1.4931 H   0  0  0  0  0  0  0  0  0  0  0  0
    0.1644   -0.2075   -1.4446 H   0  0  0  0  0  0  0  0  0  0  0  0
    2.0550   -2.8418   -2.7114 H   0  0  0  0  0  0  0  0  0  0  0  0
    1.4185   -1.2129   -2.9718 H   0  0  0  0  0  0  0  0  0  0  0  0
    7.0884   -3.9551    0.2312 H   0  0  0  0  0  0  0  0  0  0  0  0
    7.4963   -0.4315    0.0025 H   0  0  0  0  0  0  0  0  0  0  0  0
    7.6747    1.9476    0.5998 H   0  0  0  0  0  0  0  0  0  0  0  0
    5.7339    3.4675    0.3048 H   0  0  0  0  0  0  0  0  0  0  0  0
    3.5969    2.5933   -0.5969 H   0  0  0  0  0  0  0  0  0  0  0  0
   -4.7415    0.9615    0.9286 H   0  0  0  0  0  0  0  0  0  0  0  0
   -3.5411    1.8620    1.8672 H   0  0  0  0  0  0  0  0  0  0  0  0
   -5.5099    0.9700    3.2105 H   0  0  0  0  0  0  0  0  0  0  0  0
   -3.9052    0.6192    3.8378 H   0  0  0  0  0  0  0  0  0  0  0  0
   -5.2843   -1.3713    4.0402 H   0  0  0  0  0  0  0  0  0  0  0  0
   -5.6750   -1.3465    1.0007 H   0  0  0  0  0  0  0  0  0  0  0  0
   -6.8971   -0.9083    2.2080 H   0  0  0  0  0  0  0  0  0  0  0  0
   -6.2604   -2.5553    2.1472 H   0  0  0  0  0  0  0  0  0  0  0  0
   -3.0150   -1.9173    3.7440 H   0  0  0  0  0  0  0  0  0  0  0  0
   -3.8538   -2.9843    2.6159 H   0  0  0  0  0  0  0  0  0  0  0  0
  1  2  1  0
  2  3  1  0
  3  4  1  0
  4  5  2  0
  4  6  1  0
  6  7  2  0
  7  8  1  0
  8  9  1  0
  9 10  2  0
  9 11  1  0
 11 12  1  0
 12 13  1  0
 13 14  2  0
 14 15  1  0
 15 16  2  0
 15 17  1  0
 14 18  1  0
 18 19  2  0
 19 20  1  0
 20 21  2  0
 21 22  1  0
 22 23  2  0
 23 24  1  0
 24 25  2  0
  7 26  1  0
 26 27  1  0
 27 28  2  0
 28 29  1  0
 29 30  1  0
 30 31  1  0
 31 32  1  0
 31 33  1  0
 28  6  1  0
 24 12  1  0
 33 27  1  0
 23 18  1  0
  1 34  1  0
  1 35  1  0
  1 36  1  0
  2 37  1  0
  2 38  1  0
  8 39  1  0
 11 40  1  0
 11 41  1  0
 17 42  1  0
 19 43  1  0
 20 44  1  0
 21 45  1  0
 22 46  1  0
 29 47  1  0
 29 48  1  0
 30 49  1  0
 30 50  1  0
 31 51  1  0
 32 52  1  0
 32 53  1  0
 32 54  1  0
 33 55  1  0
 33 56  1  0
M  END
$$$$
