
     RDKit          3D

 47 50  0  0  0  0  0  0  0  0999 V2000
   -3.5711    0.9123    0.4206 O   0  0  0  0  0  0  0  0  0  0  0  0
   -3.4564   -0.1998   -0.0557 C   0  0  0  0  0  0  0  0  0  0  0  0
   -4.2631   -0.7033   -1.1656 C   0  0  0  0  0  0  0  0  0  0  0  0
   -5.2765   -0.1001   -1.8830 C   0  0  0  0  0  0  0  0  0  0  0  0
   -5.8599   -0.8444   -2.9131 C   0  0  0  0  0  0  0  0  0  0  0  0
   -5.4202   -2.1539   -3.1978 C   0  0  0  0  0  0  0  0  0  0  0  0
   -4.3889   -2.7417   -2.4590 C   0  0  0  0  0  0  0  0  0  0  0  0
   -3.8307   -1.9871   -1.4470 C   0  0  0  0  0  0  0  0  0  0  0  0
   -2.7499   -2.3020   -0.5164 C   0  0  0  0  0  0  0  0  0  0  0  0
   -2.1447   -3.3571   -0.5022 O   0  0  0  0  0  0  0  0  0  0  0  0
   -2.5882   -1.1999    0.2736 N   0  0  0  0  0  0  0  0  0  0  0  0
   -1.5918   -1.0970    1.3113 C   0  0  0  0  0  0  0  0  0  0  0  0
   -0.3807   -0.3514    0.9615 N   0  0  0  0  0  0  0  0  0  0  0  0
    0.5145   -0.1364    2.0187 C   0  0  0  0  0  0  0  0  0  0  0  0
    0.2287   -0.4535    3.1757 O   0  0  0  0  0  0  0  0  0  0  0  0
    1.8445    0.5456    1.6575 C   0  0  0  0  0  0  0  0  0  0  0  0
    2.4742    1.0584    2.8252 O   0  0  0  0  0  0  0  0  0  0  0  0
    3.6489    1.7379    2.6501 C   0  0  0  0  0  0  0  0  0  0  0  0
    4.1706    2.3095    3.8145 C   0  0  0  0  0  0  0  0  0  0  0  0
    5.3628    3.0357    3.7797 C   0  0  0  0  0  0  0  0  0  0  0  0
    6.0453    3.1906    2.5756 C   0  0  0  0  0  0  0  0  0  0  0  0
    5.5356    2.6177    1.4118 C   0  0  0  0  0  0  0  0  0  0  0  0
    4.3384    1.8927    1.4464 C   0  0  0  0  0  0  0  0  0  0  0  0
    0.0801   -0.4388   -0.3722 C   0  0  0  0  0  0  0  0  0  0  0  0
   -0.2676    0.5765   -1.2708 C   0  0  0  0  0  0  0  0  0  0  0  0
    0.1605    0.5018   -2.5955 C   0  0  0  0  0  0  0  0  0  0  0  0
    0.9273   -0.5837   -3.0095 C   0  0  0  0  0  0  0  0  0  0  0  0
    1.3369   -0.6519   -4.2831 F   0  0  0  0  0  0  0  0  0  0  0  0
    1.2733   -1.5983   -2.1238 C   0  0  0  0  0  0  0  0  0  0  0  0
    0.8475   -1.5294   -0.7969 C   0  0  0  0  0  0  0  0  0  0  0  0
   -5.6025    0.9095   -1.6573 H   0  0  0  0  0  0  0  0  0  0  0  0
   -6.6617   -0.4100   -3.5078 H   0  0  0  0  0  0  0  0  0  0  0  0
   -5.8884   -2.7126   -4.0068 H   0  0  0  0  0  0  0  0  0  0  0  0
   -4.0386   -3.7463   -2.6727 H   0  0  0  0  0  0  0  0  0  0  0  0
   -1.2885   -2.1047    1.6294 H   0  0  0  0  0  0  0  0  0  0  0  0
   -2.0564   -0.5981    2.1725 H   0  0  0  0  0  0  0  0  0  0  0  0
    2.4895   -0.2102    1.1983 H   0  0  0  0  0  0  0  0  0  0  0  0
    1.6359    1.3702    0.9662 H   0  0  0  0  0  0  0  0  0  0  0  0
    3.6394    2.1899    4.7559 H   0  0  0  0  0  0  0  0  0  0  0  0
    5.7534    3.4799    4.6909 H   0  0  0  0  0  0  0  0  0  0  0  0
    6.9737    3.7554    2.5444 H   0  0  0  0  0  0  0  0  0  0  0  0
    6.0710    2.7354    0.4736 H   0  0  0  0  0  0  0  0  0  0  0  0
    3.9786    1.4616    0.5183 H   0  0  0  0  0  0  0  0  0  0  0  0
   -0.8685    1.4257   -0.9415 H   0  0  0  0  0  0  0  0  0  0  0  0
   -0.0988    1.2787   -3.3070 H   0  0  0  0  0  0  0  0  0  0  0  0
    1.8631   -2.4393   -2.4745 H   0  0  0  0  0  0  0  0  0  0  0  0
    1.0993   -2.3343   -0.1122 H   0  0  0  0  0  0  0  0  0  0  0  0
  1  2  2  0
  2  3  1  0
  3  4  2  0
  4  5  1  0
  5  6  2  0
  6  7  1  0
  7  8  2  0
  8  9  1  0
  9 10  2  0
  9 11  1  0
 11 12  1  0
 12 13  1  0
 13 14  1  0
 14 15  2  0
 14 16  1  0
 16 17  1  0
 17 18  1  0
 18 19  2  0
 19 20  1  0
 20 21  2  0
 21 22  1  0
 22 23  2  0
 13 24  1  0
 24 25  2  0
 25 26  1  0
 26 27  2  0
 27 28  1  0
 27 29  1  0
 29 30  2  0
 11  2  1  0
 23 18  1  0
 30 24  1  0
  8  3  1  0
  4 31  1  0
  5 32  1  0
  6 33  1  0
  7 34  1  0
 12 35  1  0
 12 36  1  0
 16 37  1  0
 16 38  1  0
 19 39  1  0
 20 40  1  0
 21 41  1  0
 22 42  1  0
 23 43  1  0
 25 44  1  0
 26 45  1  0
 29 46  1  0
 30 47  1  0
M  END
$$$$
