
     RDKit          3D

 48 50  0  0  0  0  0  0  0  0999 V2000
    3.3400    2.9448   -0.7627 C   0  0  0  0  0  0  0  0  0  0  0  0
    2.5770    1.7241   -0.3735 C   0  0  0  0  0  0  0  0  0  0  0  0
    1.2470    1.6623   -0.0116 C   0  0  0  0  0  0  0  0  0  0  0  0
    0.9522    0.3428    0.4043 C   0  0  0  0  0  0  0  0  0  0  0  0
   -0.3241   -0.1655    0.8830 C   0  0  0  0  0  0  0  0  0  0  0  0
   -1.3461    0.6279    0.8569 N   0  0  0  0  0  0  0  0  0  0  0  0
   -2.5686    0.1569    1.2663 N   0  0  0  0  0  0  0  0  0  0  0  0
   -3.0267   -1.1515    1.1346 C   0  0  0  0  0  0  0  0  0  0  0  0
   -2.3468   -2.1227    0.8110 O   0  0  0  0  0  0  0  0  0  0  0  0
   -4.4918   -1.3019    1.4900 C   0  0  0  0  0  0  0  0  0  0  0  0
   -5.4108   -0.5503    0.5281 C   0  0  0  0  0  0  0  0  0  0  0  0
   -6.8688   -0.7293    0.9574 C   0  0  0  0  0  0  0  0  0  0  0  0
   -5.2895   -1.0556   -0.8086 O   0  0  0  0  0  0  0  0  0  0  0  0
   -4.7461    0.0218   -1.5727 C   0  0  0  0  0  0  0  0  0  0  0  0
   -5.1952    1.2527   -0.8294 C   0  0  0  0  0  0  0  0  0  0  0  0
   -5.1085    0.8585    0.5452 O   0  0  0  0  0  0  0  0  0  0  0  0
    2.1213   -0.3972    0.2527 C   0  0  0  0  0  0  0  0  0  0  0  0
    2.3027   -1.8702    0.4505 C   0  0  0  0  0  0  0  0  0  0  0  0
    3.1233    0.4538   -0.2199 N   0  0  0  0  0  0  0  0  0  0  0  0
    4.4765    0.0929   -0.4893 C   0  0  0  0  0  0  0  0  0  0  0  0
    5.0971    0.5251   -1.6670 C   0  0  0  0  0  0  0  0  0  0  0  0
    6.4257    0.1787   -1.9243 C   0  0  0  0  0  0  0  0  0  0  0  0
    7.1423   -0.5965   -1.0080 C   0  0  0  0  0  0  0  0  0  0  0  0
    8.7810   -0.9822   -1.3921 Cl  0  0  0  0  0  0  0  0  0  0  0  0
    6.5244   -1.0273    0.1713 C   0  0  0  0  0  0  0  0  0  0  0  0
    7.3539   -1.9693    1.3605 Cl  0  0  0  0  0  0  0  0  0  0  0  0
    5.1930   -0.6832    0.4311 C   0  0  0  0  0  0  0  0  0  0  0  0
    2.8230    3.8463   -0.4142 H   0  0  0  0  0  0  0  0  0  0  0  0
    3.4337    3.0151   -1.8509 H   0  0  0  0  0  0  0  0  0  0  0  0
    4.3377    2.9573   -0.3134 H   0  0  0  0  0  0  0  0  0  0  0  0
    0.5553    2.4971   -0.0135 H   0  0  0  0  0  0  0  0  0  0  0  0
   -0.3444   -1.1953    1.2704 H   0  0  0  0  0  0  0  0  0  0  0  0
   -3.2856    0.8850    1.3050 H   0  0  0  0  0  0  0  0  0  0  0  0
   -4.6186   -0.9388    2.5166 H   0  0  0  0  0  0  0  0  0  0  0  0
   -4.7231   -2.3730    1.4800 H   0  0  0  0  0  0  0  0  0  0  0  0
   -7.1563   -1.7857    0.9606 H   0  0  0  0  0  0  0  0  0  0  0  0
   -7.5432   -0.2157    0.2626 H   0  0  0  0  0  0  0  0  0  0  0  0
   -7.0458   -0.3029    1.9503 H   0  0  0  0  0  0  0  0  0  0  0  0
   -3.6562   -0.0767   -1.5696 H   0  0  0  0  0  0  0  0  0  0  0  0
   -5.1053   -0.0174   -2.6034 H   0  0  0  0  0  0  0  0  0  0  0  0
   -4.5689    2.1277   -1.0195 H   0  0  0  0  0  0  0  0  0  0  0  0
   -6.2397    1.4989   -1.0507 H   0  0  0  0  0  0  0  0  0  0  0  0
    3.0230   -2.2961   -0.2537 H   0  0  0  0  0  0  0  0  0  0  0  0
    2.6309   -2.0787    1.4736 H   0  0  0  0  0  0  0  0  0  0  0  0
    1.3614   -2.4051    0.2865 H   0  0  0  0  0  0  0  0  0  0  0  0
    4.5523    1.0949   -2.4155 H   0  0  0  0  0  0  0  0  0  0  0  0
    6.8944    0.5104   -2.8482 H   0  0  0  0  0  0  0  0  0  0  0  0
    4.7410   -0.9871    1.3722 H   0  0  0  0  0  0  0  0  0  0  0  0
  1  2  1  0
  2  3  2  0
  3  4  1  0
  4  5  1  0
  5  6  2  3
  6  7  1  0
  7  8  1  0
  8  9  2  0
  8 10  1  0
 10 11  1  0
 11 12  1  0
 11 13  1  0
 13 14  1  0
 14 15  1  0
 15 16  1  0
  4 17  2  0
 17 18  1  0
 17 19  1  0
 19 20  1  0
 20 21  2  0
 21 22  1  0
 22 23  2  0
 23 24  1  0
 23 25  1  0
 25 26  1  0
 25 27  2  0
 19  2  1  0
 27 20  1  0
 16 11  1  0
  1 28  1  0
  1 29  1  0
  1 30  1  0
  3 31  1  0
  5 32  1  0
  7 33  1  0
 10 34  1  0
 10 35  1  0
 12 36  1  0
 12 37  1  0
 12 38  1  0
 14 39  1  0
 14 40  1  0
 15 41  1  0
 15 42  1  0
 18 43  1  0
 18 44  1  0
 18 45  1  0
 21 46  1  0
 22 47  1  0
 27 48  1  0
M  END
$$$$
