
     RDKit          3D

 55 59  0  0  0  0  0  0  0  0999 V2000
   -2.5929    2.6879   -0.8420 C   0  0  0  0  0  0  0  0  0  0  0  0
   -2.3287    1.3105   -0.3008 C   0  0  0  0  0  0  0  0  0  0  0  0
   -3.2636    0.2808   -0.3939 C   0  0  0  0  0  0  0  0  0  0  0  0
   -4.5775    0.4119   -1.0429 C   0  0  0  0  0  0  0  0  0  0  0  0
   -4.6930    0.6938   -2.4161 C   0  0  0  0  0  0  0  0  0  0  0  0
   -5.9459    0.8075   -3.0246 C   0  0  0  0  0  0  0  0  0  0  0  0
   -7.1040    0.6317   -2.2697 C   0  0  0  0  0  0  0  0  0  0  0  0
   -7.0043    0.3368   -0.9120 C   0  0  0  0  0  0  0  0  0  0  0  0
   -8.4343    0.1100    0.0182 Cl  0  0  0  0  0  0  0  0  0  0  0  0
   -5.7557    0.2234   -0.3012 C   0  0  0  0  0  0  0  0  0  0  0  0
   -3.0366   -0.9614    0.1053 N   0  0  0  0  0  0  0  0  0  0  0  0
   -1.8691   -1.2461    0.6994 C   0  0  0  0  0  0  0  0  0  0  0  0
   -1.6735   -2.5286    1.1962 C   0  0  0  0  0  0  0  0  0  0  0  0
   -0.4821   -2.9076    1.8185 C   0  0  0  0  0  0  0  0  0  0  0  0
    0.5428   -1.9840    1.9565 C   0  0  0  0  0  0  0  0  0  0  0  0
    0.3669   -0.6907    1.4695 C   0  0  0  0  0  0  0  0  0  0  0  0
   -0.8378   -0.3053    0.8267 C   0  0  0  0  0  0  0  0  0  0  0  0
   -1.0978    0.9777    0.2909 C   0  0  0  0  0  0  0  0  0  0  0  0
   -0.0277    1.9879    0.3308 C   0  0  0  0  0  0  0  0  0  0  0  0
    0.0713    2.8665    1.1652 O   0  0  0  0  0  0  0  0  0  0  0  0
    0.7880    1.7497   -0.7246 O   0  0  0  0  0  0  0  0  0  0  0  0
    1.9370    2.5948   -0.7648 C   0  0  0  0  0  0  0  0  0  0  0  0
    2.9231    2.0828   -1.8083 C   0  0  0  0  0  0  0  0  0  0  0  0
    3.5876    2.8879   -2.4694 O   0  0  0  0  0  0  0  0  0  0  0  0
    3.0397    0.5773   -1.9929 C   0  0  0  0  0  0  0  0  0  0  0  0
    3.8503    0.2489   -3.1758 C   0  0  0  0  0  0  0  0  0  0  0  0
    4.4670   -0.1248   -4.0868 N   0  0  0  0  0  0  0  0  0  0  0  0
    3.6126   -0.0681   -0.7631 C   0  0  0  0  0  0  0  0  0  0  0  0
    3.6348    0.4361    0.4572 N   0  0  0  0  0  0  0  0  0  0  0  0
    4.1983   -0.5254    1.2595 C   0  0  0  0  0  0  0  0  0  0  0  0
    4.4570   -0.5056    2.6367 C   0  0  0  0  0  0  0  0  0  0  0  0
    5.0287   -1.6412    3.2255 C   0  0  0  0  0  0  0  0  0  0  0  0
    5.3360   -2.7688    2.4579 C   0  0  0  0  0  0  0  0  0  0  0  0
    5.0855   -2.8033    1.0808 C   0  0  0  0  0  0  0  0  0  0  0  0
    4.5137   -1.6587    0.5215 C   0  0  0  0  0  0  0  0  0  0  0  0
    4.1408   -1.3457   -0.7603 N   0  0  0  0  0  0  0  0  0  0  0  0
   -3.6603    2.9298   -0.8383 H   0  0  0  0  0  0  0  0  0  0  0  0
   -2.1187    3.4598   -0.2284 H   0  0  0  0  0  0  0  0  0  0  0  0
   -2.2143    2.7676   -1.8658 H   0  0  0  0  0  0  0  0  0  0  0  0
   -3.7998    0.8142   -3.0262 H   0  0  0  0  0  0  0  0  0  0  0  0
   -6.0175    1.0246   -4.0876 H   0  0  0  0  0  0  0  0  0  0  0  0
   -8.0776    0.7170   -2.7447 H   0  0  0  0  0  0  0  0  0  0  0  0
   -5.6911   -0.0193    0.7579 H   0  0  0  0  0  0  0  0  0  0  0  0
   -2.4758   -3.2570    1.0953 H   0  0  0  0  0  0  0  0  0  0  0  0
   -0.3642   -3.9196    2.1970 H   0  0  0  0  0  0  0  0  0  0  0  0
    1.4740   -2.2615    2.4452 H   0  0  0  0  0  0  0  0  0  0  0  0
    1.1797    0.0209    1.6069 H   0  0  0  0  0  0  0  0  0  0  0  0
    2.4392    2.6437    0.2065 H   0  0  0  0  0  0  0  0  0  0  0  0
    1.6189    3.5996   -1.0651 H   0  0  0  0  0  0  0  0  0  0  0  0
    2.0323    0.1788   -2.1633 H   0  0  0  0  0  0  0  0  0  0  0  0
    4.2173    0.3727    3.2274 H   0  0  0  0  0  0  0  0  0  0  0  0
    5.2383   -1.6412    4.2930 H   0  0  0  0  0  0  0  0  0  0  0  0
    5.7840   -3.6367    2.9396 H   0  0  0  0  0  0  0  0  0  0  0  0
    5.3293   -3.6783    0.4863 H   0  0  0  0  0  0  0  0  0  0  0  0
    4.2497   -1.9536   -1.5628 H   0  0  0  0  0  0  0  0  0  0  0  0
  1  2  1  0
  2  3  2  0
  3  4  1  0
  4  5  2  0
  5  6  1  0
  6  7  2  0
  7  8  1  0
  8  9  1  0
  8 10  2  0
  3 11  1  0
 11 12  2  0
 12 13  1  0
 13 14  2  0
 14 15  1  0
 15 16  2  0
 16 17  1  0
 17 18  2  0
 18 19  1  0
 19 20  2  0
 19 21  1  0
 21 22  1  0
 22 23  1  0
 23 24  2  0
 23 25  1  0
 25 26  1  0
 26 27  3  0
 25 28  1  0
 28 29  2  0
 29 30  1  0
 30 31  2  0
 31 32  1  0
 32 33  2  0
 33 34  1  0
 34 35  2  0
 35 36  1  0
 18  2  1  0
 36 28  1  0
 10  4  1  0
 17 12  1  0
 35 30  1  0
  1 37  1  0
  1 38  1  0
  1 39  1  0
  5 40  1  0
  6 41  1  0
  7 42  1  0
 10 43  1  0
 13 44  1  0
 14 45  1  0
 15 46  1  0
 16 47  1  0
 22 48  1  0
 22 49  1  0
 25 50  1  0
 31 51  1  0
 32 52  1  0
 33 53  1  0
 34 54  1  0
 36 55  1  0
M  END
$$$$
