
     RDKit          3D

 47 49  0  0  0  0  0  0  0  0999 V2000
    7.2158    0.7323   -0.1612 C   0  0  0  0  0  0  0  0  0  0  0  0
    6.0675   -0.2652   -0.1510 C   0  0  0  0  0  0  0  0  0  0  0  0
    5.4674   -0.4103    1.2480 C   0  0  0  0  0  0  0  0  0  0  0  0
    4.3651   -1.4719    1.3302 C   0  0  0  0  0  0  0  0  0  0  0  0
    3.1797   -1.1719    0.5300 N   0  0  0  0  0  0  0  0  0  0  0  0
    2.3464   -0.0559    0.9489 C   0  0  0  0  0  0  0  0  0  0  0  0
    1.0327    0.0051    0.2478 C   0  0  0  0  0  0  0  0  0  0  0  0
   -0.0311    0.7867    0.7065 C   0  0  0  0  0  0  0  0  0  0  0  0
   -1.2067    0.8488   -0.0431 C   0  0  0  0  0  0  0  0  0  0  0  0
   -2.3248    1.6912    0.4245 C   0  0  0  0  0  0  0  0  0  0  0  0
   -2.0655    2.7560    0.9856 O   0  0  0  0  0  0  0  0  0  0  0  0
   -3.7485    1.3217    0.2265 C   0  0  0  0  0  0  0  0  0  0  0  0
   -4.1535   -0.0170    0.1513 C   0  0  0  0  0  0  0  0  0  0  0  0
   -5.4998   -0.3439   -0.0488 C   0  0  0  0  0  0  0  0  0  0  0  0
   -5.7512   -1.6865   -0.1139 O   0  0  0  0  0  0  0  0  0  0  0  0
   -7.1046   -2.0810   -0.3076 C   0  0  0  0  0  0  0  0  0  0  0  0
   -6.4477    0.6740   -0.1615 C   0  0  0  0  0  0  0  0  0  0  0  0
   -6.0554    2.0109   -0.0576 C   0  0  0  0  0  0  0  0  0  0  0  0
   -4.7169    2.3304    0.1489 C   0  0  0  0  0  0  0  0  0  0  0  0
   -4.4191    3.6610    0.2692 O   0  0  0  0  0  0  0  0  0  0  0  0
   -1.2469    0.1657   -1.2509 C   0  0  0  0  0  0  0  0  0  0  0  0
   -0.2284   -0.5967   -1.7169 N   0  0  0  0  0  0  0  0  0  0  0  0
    0.8813   -0.6637   -0.9532 C   0  0  0  0  0  0  0  0  0  0  0  0
    1.9164   -1.4519   -1.4127 N   0  0  0  0  0  0  0  0  0  0  0  0
    3.0406   -1.7577   -0.7130 C   0  0  0  0  0  0  0  0  0  0  0  0
    3.8546   -2.5475   -1.1876 O   0  0  0  0  0  0  0  0  0  0  0  0
    6.8772    1.7230    0.1584 H   0  0  0  0  0  0  0  0  0  0  0  0
    8.0207    0.4113    0.5077 H   0  0  0  0  0  0  0  0  0  0  0  0
    7.6293    0.8236   -1.1704 H   0  0  0  0  0  0  0  0  0  0  0  0
    6.4334   -1.2365   -0.5027 H   0  0  0  0  0  0  0  0  0  0  0  0
    5.3027    0.0737   -0.8582 H   0  0  0  0  0  0  0  0  0  0  0  0
    5.0821    0.5594    1.5839 H   0  0  0  0  0  0  0  0  0  0  0  0
    6.2621   -0.6907    1.9505 H   0  0  0  0  0  0  0  0  0  0  0  0
    4.7741   -2.4455    1.0364 H   0  0  0  0  0  0  0  0  0  0  0  0
    4.0367   -1.5738    2.3714 H   0  0  0  0  0  0  0  0  0  0  0  0
    2.1810   -0.1495    2.0283 H   0  0  0  0  0  0  0  0  0  0  0  0
    2.8975    0.8705    0.7519 H   0  0  0  0  0  0  0  0  0  0  0  0
    0.0556    1.3503    1.6332 H   0  0  0  0  0  0  0  0  0  0  0  0
   -3.4409   -0.8307    0.2626 H   0  0  0  0  0  0  0  0  0  0  0  0
   -7.4885   -1.7151   -1.2656 H   0  0  0  0  0  0  0  0  0  0  0  0
   -7.7348   -1.7499    0.5244 H   0  0  0  0  0  0  0  0  0  0  0  0
   -7.1334   -3.1745   -0.3328 H   0  0  0  0  0  0  0  0  0  0  0  0
   -7.5008    0.4642   -0.3185 H   0  0  0  0  0  0  0  0  0  0  0  0
   -6.7956    2.8042   -0.1281 H   0  0  0  0  0  0  0  0  0  0  0  0
   -3.4995    3.7332    0.6116 H   0  0  0  0  0  0  0  0  0  0  0  0
   -2.1066    0.2141   -1.9139 H   0  0  0  0  0  0  0  0  0  0  0  0
    1.7802   -1.9240   -2.2937 H   0  0  0  0  0  0  0  0  0  0  0  0
  1  2  1  0
  2  3  1  0
  3  4  1  0
  4  5  1  0
  5  6  1  0
  6  7  1  0
  7  8  2  0
  8  9  1  0
  9 10  1  0
 10 11  2  0
 10 12  1  0
 12 13  2  0
 13 14  1  0
 14 15  1  0
 15 16  1  0
 14 17  2  0
 17 18  1  0
 18 19  2  0
 19 20  1  0
  9 21  2  0
 21 22  1  0
 22 23  2  0
 23 24  1  0
 24 25  1  0
 25 26  2  0
 25  5  1  0
 23  7  1  0
 19 12  1  0
  1 27  1  0
  1 28  1  0
  1 29  1  0
  2 30  1  0
  2 31  1  0
  3 32  1  0
  3 33  1  0
  4 34  1  0
  4 35  1  0
  6 36  1  0
  6 37  1  0
  8 38  1  0
 13 39  1  0
 16 40  1  0
 16 41  1  0
 16 42  1  0
 17 43  1  0
 18 44  1  0
 20 45  1  0
 21 46  1  0
 24 47  1  0
M  END
$$$$
