
     RDKit          3D

 48 50  0  0  0  0  0  0  0  0999 V2000
    6.7680    0.9697    1.1204 C   0  0  0  0  0  0  0  0  0  0  0  0
    6.3923   -0.1220    0.2930 O   0  0  0  0  0  0  0  0  0  0  0  0
    5.1323   -0.0968   -0.2369 C   0  0  0  0  0  0  0  0  0  0  0  0
    4.7937   -1.2217   -0.9932 C   0  0  0  0  0  0  0  0  0  0  0  0
    3.5360   -1.3281   -1.5907 C   0  0  0  0  0  0  0  0  0  0  0  0
    2.5959   -0.2999   -1.4475 C   0  0  0  0  0  0  0  0  0  0  0  0
    1.2293   -0.4292   -2.0733 C   0  0  0  0  0  0  0  0  0  0  0  0
    0.2263   -1.0834   -1.1313 C   0  0  0  0  0  0  0  0  0  0  0  0
    0.3258   -2.2675   -0.8315 O   0  0  0  0  0  0  0  0  0  0  0  0
   -0.7521   -0.2043   -0.6920 N   0  0  0  0  0  0  0  0  0  0  0  0
   -1.7370   -0.5140    0.2352 C   0  0  0  0  0  0  0  0  0  0  0  0
   -1.9796   -1.6503    0.9793 C   0  0  0  0  0  0  0  0  0  0  0  0
   -3.0826   -1.3571    1.7733 C   0  0  0  0  0  0  0  0  0  0  0  0
   -3.5502   -0.1307    1.5902 N   0  0  0  0  0  0  0  0  0  0  0  0
   -2.7471    0.3806    0.6182 N   0  0  0  0  0  0  0  0  0  0  0  0
   -3.0377    1.7451    0.1221 C   0  0  0  0  0  0  0  0  0  0  0  0
   -4.3130    2.3356    0.7856 C   0  0  0  0  0  0  0  0  0  0  0  0
   -3.3061    1.7262   -1.3962 C   0  0  0  0  0  0  0  0  0  0  0  0
   -1.8789    2.7020    0.4639 C   0  0  0  0  0  0  0  0  0  0  0  0
   -3.5754   -2.3748    2.7082 C   0  0  0  0  0  0  0  0  0  0  0  0
   -2.3427   -3.7584    2.5869 S   0  0  0  0  0  3  0  0  0  0  0  0
   -3.1452   -5.0935    2.0080 O   0  0  0  0  0  1  0  0  0  0  0  0
   -1.3970   -2.9906    1.1622 C   0  0  0  0  0  0  0  0  0  0  0  0
    2.9349    0.8256   -0.6824 C   0  0  0  0  0  0  0  0  0  0  0  0
    4.1965    0.9271   -0.0825 C   0  0  0  0  0  0  0  0  0  0  0  0
    7.7887    0.7872    1.4707 H   0  0  0  0  0  0  0  0  0  0  0  0
    6.1192    1.0401    2.0007 H   0  0  0  0  0  0  0  0  0  0  0  0
    6.7734    1.9073    0.5562 H   0  0  0  0  0  0  0  0  0  0  0  0
    5.5136   -2.0289   -1.1101 H   0  0  0  0  0  0  0  0  0  0  0  0
    3.2924   -2.2254   -2.1583 H   0  0  0  0  0  0  0  0  0  0  0  0
    1.2800   -1.0395   -2.9845 H   0  0  0  0  0  0  0  0  0  0  0  0
    0.8800    0.5584   -2.4018 H   0  0  0  0  0  0  0  0  0  0  0  0
   -0.7362    0.7247   -1.0822 H   0  0  0  0  0  0  0  0  0  0  0  0
   -4.1996    2.4201    1.8732 H   0  0  0  0  0  0  0  0  0  0  0  0
   -5.1950    1.7148    0.5848 H   0  0  0  0  0  0  0  0  0  0  0  0
   -4.5287    3.3407    0.4030 H   0  0  0  0  0  0  0  0  0  0  0  0
   -2.4252    1.4493   -1.9811 H   0  0  0  0  0  0  0  0  0  0  0  0
   -4.1005    1.0119   -1.6453 H   0  0  0  0  0  0  0  0  0  0  0  0
   -3.6217    2.7147   -1.7517 H   0  0  0  0  0  0  0  0  0  0  0  0
   -2.1284    3.7341    0.1870 H   0  0  0  0  0  0  0  0  0  0  0  0
   -1.6604    2.6886    1.5406 H   0  0  0  0  0  0  0  0  0  0  0  0
   -0.9501    2.4508   -0.0575 H   0  0  0  0  0  0  0  0  0  0  0  0
   -3.5822   -2.0282    3.7427 H   0  0  0  0  0  0  0  0  0  0  0  0
   -4.5555   -2.7617    2.4247 H   0  0  0  0  0  0  0  0  0  0  0  0
   -0.3500   -2.9619    1.4759 H   0  0  0  0  0  0  0  0  0  0  0  0
   -1.5387   -3.6387    0.2927 H   0  0  0  0  0  0  0  0  0  0  0  0
    2.2220    1.6359   -0.5405 H   0  0  0  0  0  0  0  0  0  0  0  0
    4.4163    1.8163    0.5009 H   0  0  0  0  0  0  0  0  0  0  0  0
  1  2  1  0
  2  3  1  0
  3  4  2  0
  4  5  1  0
  5  6  2  0
  6  7  1  0
  7  8  1  0
  8  9  2  0
  8 10  1  0
 10 11  1  0
 11 12  2  0
 12 13  1  0
 13 14  2  0
 14 15  1  0
 15 16  1  0
 16 17  1  0
 16 18  1  0
 16 19  1  0
 13 20  1  0
 20 21  1  0
 21 22  1  0
 21 23  1  0
  6 24  1  0
 24 25  2  0
 25  3  1  0
 15 11  1  0
 23 12  1  0
  1 26  1  0
  1 27  1  0
  1 28  1  0
  4 29  1  0
  5 30  1  0
  7 31  1  0
  7 32  1  0
 10 33  1  0
 17 34  1  0
 17 35  1  0
 17 36  1  0
 18 37  1  0
 18 38  1  0
 18 39  1  0
 19 40  1  0
 19 41  1  0
 19 42  1  0
 20 43  1  0
 20 44  1  0
 23 45  1  0
 23 46  1  0
 24 47  1  0
 25 48  1  0
M  CHG  2  21   1  22  -1
M  END
$$$$
