
     RDKit          3D

 48 50  0  0  0  0  0  0  0  0999 V2000
    4.5750    3.1153   -1.5881 C   0  0  0  0  0  0  0  0  0  0  0  0
    3.3705    2.2978   -1.2634 C   0  0  0  0  0  0  0  0  0  0  0  0
    2.1215    2.7695   -0.9123 C   0  0  0  0  0  0  0  0  0  0  0  0
    1.2994    1.6680   -0.5734 C   0  0  0  0  0  0  0  0  0  0  0  0
   -0.0777    1.7605   -0.1194 C   0  0  0  0  0  0  0  0  0  0  0  0
   -0.7173    0.7048    0.2618 N   0  0  0  0  0  0  0  0  0  0  0  0
   -2.0017    0.8959    0.6794 N   0  0  0  0  0  0  0  0  0  0  0  0
   -2.7649   -0.1987    1.0848 C   0  0  0  0  0  0  0  0  0  0  0  0
   -2.3624   -1.3556    1.1043 O   0  0  0  0  0  0  0  0  0  0  0  0
   -4.1429    0.2373    1.5363 C   0  0  0  0  0  0  0  0  0  0  0  0
   -5.1291   -0.8853    1.8530 C   0  0  0  0  0  0  0  0  0  0  0  0
   -4.6730   -1.8392    2.9547 C   0  0  0  0  0  0  0  0  0  0  0  0
   -5.4504   -1.6320    0.6684 O   0  0  0  0  0  0  0  0  0  0  0  0
   -6.7789   -1.2524    0.3189 C   0  0  0  0  0  0  0  0  0  0  0  0
   -7.4008   -0.8934    1.6379 C   0  0  0  0  0  0  0  0  0  0  0  0
   -6.3382   -0.2329    2.3251 O   0  0  0  0  0  0  0  0  0  0  0  0
    2.0612    0.5228   -0.7864 C   0  0  0  0  0  0  0  0  0  0  0  0
    1.6112   -0.9061   -0.7234 C   0  0  0  0  0  0  0  0  0  0  0  0
    3.3503    0.9098   -1.1553 N   0  0  0  0  0  0  0  0  0  0  0  0
    4.4630    0.0402   -1.3550 C   0  0  0  0  0  0  0  0  0  0  0  0
    5.3016    0.2060   -2.4626 C   0  0  0  0  0  0  0  0  0  0  0  0
    6.3933   -0.6472   -2.6452 C   0  0  0  0  0  0  0  0  0  0  0  0
    6.6557   -1.6653   -1.7239 C   0  0  0  0  0  0  0  0  0  0  0  0
    8.0246   -2.6781   -2.0150 Cl  0  0  0  0  0  0  0  0  0  0  0  0
    5.8189   -1.8320   -0.6149 C   0  0  0  0  0  0  0  0  0  0  0  0
    6.0886   -3.0612    0.5696 Cl  0  0  0  0  0  0  0  0  0  0  0  0
    4.7231   -0.9816   -0.4314 C   0  0  0  0  0  0  0  0  0  0  0  0
    4.7380    3.1540   -2.6690 H   0  0  0  0  0  0  0  0  0  0  0  0
    5.4732    2.7291   -1.0971 H   0  0  0  0  0  0  0  0  0  0  0  0
    4.4409    4.1463   -1.2420 H   0  0  0  0  0  0  0  0  0  0  0  0
    1.8450    3.8162   -0.8714 H   0  0  0  0  0  0  0  0  0  0  0  0
   -0.5313    2.7672   -0.1040 H   0  0  0  0  0  0  0  0  0  0  0  0
   -2.3956    1.8297    0.6811 H   0  0  0  0  0  0  0  0  0  0  0  0
   -4.5668    0.8668    0.7422 H   0  0  0  0  0  0  0  0  0  0  0  0
   -4.0209    0.8807    2.4174 H   0  0  0  0  0  0  0  0  0  0  0  0
   -3.8552   -2.4897    2.6354 H   0  0  0  0  0  0  0  0  0  0  0  0
   -4.3708   -1.2899    3.8525 H   0  0  0  0  0  0  0  0  0  0  0  0
   -5.4942   -2.5029    3.2503 H   0  0  0  0  0  0  0  0  0  0  0  0
   -6.7193   -0.3847   -0.3468 H   0  0  0  0  0  0  0  0  0  0  0  0
   -7.2926   -2.0676   -0.1964 H   0  0  0  0  0  0  0  0  0  0  0  0
   -7.6814   -1.7837    2.2107 H   0  0  0  0  0  0  0  0  0  0  0  0
   -8.2683   -0.2358    1.5441 H   0  0  0  0  0  0  0  0  0  0  0  0
    1.6308   -1.2674    0.3093 H   0  0  0  0  0  0  0  0  0  0  0  0
    2.2255   -1.5656   -1.3429 H   0  0  0  0  0  0  0  0  0  0  0  0
    0.5917   -1.0105   -1.1079 H   0  0  0  0  0  0  0  0  0  0  0  0
    5.0985    0.9609   -3.2177 H   0  0  0  0  0  0  0  0  0  0  0  0
    7.0324   -0.5179   -3.5160 H   0  0  0  0  0  0  0  0  0  0  0  0
    4.1000   -1.1020    0.4524 H   0  0  0  0  0  0  0  0  0  0  0  0
  1  2  1  0
  2  3  2  0
  3  4  1  0
  4  5  1  0
  5  6  2  3
  6  7  1  0
  7  8  1  0
  8  9  2  0
  8 10  1  0
 10 11  1  0
 11 12  1  0
 11 13  1  0
 13 14  1  0
 14 15  1  0
 15 16  1  0
  4 17  2  0
 17 18  1  0
 17 19  1  0
 19 20  1  0
 20 21  2  0
 21 22  1  0
 22 23  2  0
 23 24  1  0
 23 25  1  0
 25 26  1  0
 25 27  2  0
 19  2  1  0
 27 20  1  0
 16 11  1  0
  1 28  1  0
  1 29  1  0
  1 30  1  0
  3 31  1  0
  5 32  1  0
  7 33  1  0
 10 34  1  0
 10 35  1  0
 12 36  1  0
 12 37  1  0
 12 38  1  0
 14 39  1  0
 14 40  1  0
 15 41  1  0
 15 42  1  0
 18 43  1  0
 18 44  1  0
 18 45  1  0
 21 46  1  0
 22 47  1  0
 27 48  1  0
M  END
$$$$
