
     RDKit          3D

 52 55  0  0  0  0  0  0  0  0999 V2000
    0.2188   -0.8301    1.7486 O   0  0  0  0  0  0  0  0  0  0  0  0
   -0.1409   -0.7132    0.5804 C   0  0  0  0  0  0  0  0  0  0  0  0
   -1.1852   -1.4691    0.0594 N   0  0  0  0  0  0  0  0  0  0  0  0
   -1.9551   -2.3636    0.8965 C   0  0  0  0  0  0  0  0  0  0  0  0
   -2.7688   -3.3673    0.0893 C   0  0  0  0  0  0  0  0  0  0  0  0
   -3.8050   -3.8747    1.0839 C   0  0  0  0  0  0  0  0  0  0  0  0
   -4.0257   -2.7340    2.0786 C   0  0  0  0  0  0  0  0  0  0  0  0
   -3.0295   -1.6405    1.7038 C   0  0  0  0  0  0  0  0  0  0  0  0
    0.5111    0.2587   -0.4458 C   0  0  0  0  0  0  0  0  0  0  0  0
   -0.3816    1.4005   -0.9423 C   0  0  0  0  0  0  0  0  0  0  0  0
   -1.6015    1.7452   -0.3464 C   0  0  0  0  0  0  0  0  0  0  0  0
   -2.3462    2.7826   -0.8895 C   0  0  0  0  0  0  0  0  0  0  0  0
   -1.9718    3.4893   -1.9746 N   0  0  0  0  0  0  0  0  0  0  0  0
   -0.7887    3.1605   -2.5313 C   0  0  0  0  0  0  0  0  0  0  0  0
    0.0250    2.1412   -2.0627 C   0  0  0  0  0  0  0  0  0  0  0  0
    1.8815    0.6831   -0.0584 N   0  0  0  0  0  0  0  0  0  0  0  0
    2.9902   -0.1402   -0.3845 C   0  0  0  0  0  0  0  0  0  0  0  0
    3.9877   -0.2178    0.3357 O   0  0  0  0  0  0  0  0  0  0  0  0
    2.9504   -0.9158   -1.6170 C   0  0  0  0  0  0  0  0  0  0  0  0
    3.5751   -2.1071   -1.9419 C   0  0  0  0  0  0  0  0  0  0  0  0
    3.2641   -2.3814   -3.2946 C   0  0  0  0  0  0  0  0  0  0  0  0
    2.4942   -1.3296   -3.7285 C   0  0  0  0  0  0  0  0  0  0  0  0
    2.3078   -0.4310   -2.7279 O   0  0  0  0  0  0  0  0  0  0  0  0
    2.0782    1.7739    0.8719 C   0  0  0  0  0  0  0  0  0  0  0  0
    1.0878    2.2120    1.7607 C   0  0  0  0  0  0  0  0  0  0  0  0
    1.3005    3.3041    2.6121 C   0  0  0  0  0  0  0  0  0  0  0  0
    2.5109    3.9867    2.5890 C   0  0  0  0  0  0  0  0  0  0  0  0
    3.5103    3.5740    1.7172 C   0  0  0  0  0  0  0  0  0  0  0  0
    3.2938    2.4820    0.8693 C   0  0  0  0  0  0  0  0  0  0  0  0
   -1.5640   -1.2132   -0.8455 H   0  0  0  0  0  0  0  0  0  0  0  0
   -1.2740   -2.8920    1.5760 H   0  0  0  0  0  0  0  0  0  0  0  0
   -3.2707   -2.8778   -0.7550 H   0  0  0  0  0  0  0  0  0  0  0  0
   -2.1520   -4.1751   -0.3168 H   0  0  0  0  0  0  0  0  0  0  0  0
   -3.4213   -4.7553    1.6124 H   0  0  0  0  0  0  0  0  0  0  0  0
   -4.7335   -4.1694    0.5851 H   0  0  0  0  0  0  0  0  0  0  0  0
   -5.0534   -2.3581    2.0406 H   0  0  0  0  0  0  0  0  0  0  0  0
   -3.8441   -3.0883    3.0996 H   0  0  0  0  0  0  0  0  0  0  0  0
   -3.5299   -0.8800    1.0908 H   0  0  0  0  0  0  0  0  0  0  0  0
   -2.6219   -1.1333    2.5840 H   0  0  0  0  0  0  0  0  0  0  0  0
    0.5856   -0.3922   -1.3203 H   0  0  0  0  0  0  0  0  0  0  0  0
   -1.9799    1.2405    0.5366 H   0  0  0  0  0  0  0  0  0  0  0  0
   -3.2933    3.0814   -0.4486 H   0  0  0  0  0  0  0  0  0  0  0  0
   -0.4995    3.7558   -3.3928 H   0  0  0  0  0  0  0  0  0  0  0  0
    0.9673    1.9365   -2.5627 H   0  0  0  0  0  0  0  0  0  0  0  0
    4.1876   -2.6940   -1.2698 H   0  0  0  0  0  0  0  0  0  0  0  0
    3.5796   -3.2302   -3.8853 H   0  0  0  0  0  0  0  0  0  0  0  0
    2.0339   -1.0800   -4.6749 H   0  0  0  0  0  0  0  0  0  0  0  0
    0.1408    1.6969    1.8615 H   0  0  0  0  0  0  0  0  0  0  0  0
    0.5184    3.6099    3.3022 H   0  0  0  0  0  0  0  0  0  0  0  0
    2.6768    4.8309    3.2522 H   0  0  0  0  0  0  0  0  0  0  0  0
    4.4623    4.0974    1.6907 H   0  0  0  0  0  0  0  0  0  0  0  0
    4.0978    2.2110    0.1892 H   0  0  0  0  0  0  0  0  0  0  0  0
  1  2  2  0
  2  3  1  0
  3  4  1  0
  4  5  1  0
  5  6  1  0
  6  7  1  0
  7  8  1  0
  2  9  1  0
  9 10  1  0
 10 11  2  0
 11 12  1  0
 12 13  2  0
 13 14  1  0
 14 15  2  0
  9 16  1  0
 16 17  1  0
 17 18  2  0
 17 19  1  0
 19 20  2  0
 20 21  1  0
 21 22  2  0
 22 23  1  0
 16 24  1  0
 24 25  2  0
 25 26  1  0
 26 27  2  0
 27 28  1  0
 28 29  2  0
  8  4  1  0
 15 10  1  0
 23 19  1  0
 29 24  1  0
  3 30  1  0
  4 31  1  0
  5 32  1  0
  5 33  1  0
  6 34  1  0
  6 35  1  0
  7 36  1  0
  7 37  1  0
  8 38  1  0
  8 39  1  0
  9 40  1  0
 11 41  1  0
 12 42  1  0
 14 43  1  0
 15 44  1  0
 20 45  1  0
 21 46  1  0
 22 47  1  0
 25 48  1  0
 26 49  1  0
 27 50  1  0
 28 51  1  0
 29 52  1  0
M  END
$$$$
