
     RDKit          3D

 54 57  0  0  0  0  0  0  0  0999 V2000
   -8.0615    0.8424    2.2545 C   0  0  0  0  0  0  0  0  0  0  0  0
   -7.3337    0.7638    1.0349 O   0  0  0  0  0  0  0  0  0  0  0  0
   -6.0061    0.4522    1.1293 C   0  0  0  0  0  0  0  0  0  0  0  0
   -5.3094    0.1675    2.2995 C   0  0  0  0  0  0  0  0  0  0  0  0
   -3.9423   -0.1352    2.2475 C   0  0  0  0  0  0  0  0  0  0  0  0
   -3.2497   -0.1703    1.0235 C   0  0  0  0  0  0  0  0  0  0  0  0
   -1.8542   -0.4836    1.0317 N   0  0  0  0  0  0  0  0  0  0  0  0
   -1.1986   -0.5285    2.2301 N   0  0  0  0  0  0  0  0  0  0  0  0
    0.0800   -0.7408    1.9305 C   0  0  0  0  0  0  0  0  0  0  0  0
    0.2894   -0.8760    0.5546 C   0  0  0  0  0  0  0  0  0  0  0  0
   -0.9721   -0.7666   -0.0045 C   0  0  0  0  0  0  0  0  0  0  0  0
   -1.2671   -0.9634   -1.4556 C   0  0  0  0  0  0  0  0  0  0  0  0
   -0.0831   -1.6711   -2.1880 C   0  0  0  0  0  0  0  0  0  0  0  0
   -0.2396   -1.4512   -3.7051 C   0  0  0  0  0  0  0  0  0  0  0  0
   -0.1161   -3.1900   -1.9213 C   0  0  0  0  0  0  0  0  0  0  0  0
    1.2769   -1.0650   -1.7323 C   0  0  0  0  0  0  0  0  0  0  0  0
    1.5321   -1.1749   -0.2104 C   0  0  0  0  0  0  0  0  0  0  0  0
    2.5570   -0.2443    0.2041 N   0  0  0  0  0  0  0  0  0  0  0  0
    3.8977   -0.4842   -0.0012 C   0  0  0  0  0  0  0  0  0  0  0  0
    4.3478   -1.5360   -0.4383 O   0  0  0  0  0  0  0  0  0  0  0  0
    4.7869    0.6597    0.3431 C   0  0  0  0  0  0  0  0  0  0  0  0
    6.1607    0.5373    0.2165 C   0  0  0  0  0  0  0  0  0  0  0  0
    7.0074    1.5555    0.5190 N   0  0  0  0  0  0  0  0  0  0  0  0
    6.4255    2.7024    0.9526 C   0  0  0  0  0  0  0  0  0  0  0  0
    7.3170    3.8508    1.3076 C   0  0  0  0  0  0  0  0  0  0  0  0
    5.0417    2.8138    1.0757 C   0  0  0  0  0  0  0  0  0  0  0  0
    4.1867    1.8066    0.7748 N   0  0  0  0  0  0  0  0  0  0  0  0
   -3.9542    0.1314   -0.1447 C   0  0  0  0  0  0  0  0  0  0  0  0
   -5.3212    0.4348   -0.0862 C   0  0  0  0  0  0  0  0  0  0  0  0
   -7.6577    1.6253    2.9053 H   0  0  0  0  0  0  0  0  0  0  0  0
   -8.0821   -0.1259    2.7660 H   0  0  0  0  0  0  0  0  0  0  0  0
   -9.0939    1.1117    2.0107 H   0  0  0  0  0  0  0  0  0  0  0  0
   -5.7912    0.1707    3.2716 H   0  0  0  0  0  0  0  0  0  0  0  0
   -3.4291   -0.3521    3.1839 H   0  0  0  0  0  0  0  0  0  0  0  0
    0.8050   -0.7993    2.7326 H   0  0  0  0  0  0  0  0  0  0  0  0
   -1.4258    0.0247   -1.9061 H   0  0  0  0  0  0  0  0  0  0  0  0
   -2.1779   -1.5570   -1.5929 H   0  0  0  0  0  0  0  0  0  0  0  0
   -1.1965   -1.8461   -4.0650 H   0  0  0  0  0  0  0  0  0  0  0  0
    0.5605   -1.9517   -4.2621 H   0  0  0  0  0  0  0  0  0  0  0  0
   -0.2037   -0.3850   -3.9571 H   0  0  0  0  0  0  0  0  0  0  0  0
   -0.0684   -3.4271   -0.8541 H   0  0  0  0  0  0  0  0  0  0  0  0
    0.7268   -3.6913   -2.4104 H   0  0  0  0  0  0  0  0  0  0  0  0
   -1.0382   -3.6362   -2.3115 H   0  0  0  0  0  0  0  0  0  0  0  0
    2.1067   -1.5383   -2.2737 H   0  0  0  0  0  0  0  0  0  0  0  0
    1.2982   -0.0042   -2.0243 H   0  0  0  0  0  0  0  0  0  0  0  0
    1.8684   -2.1915    0.0280 H   0  0  0  0  0  0  0  0  0  0  0  0
    2.3029    0.7066    0.4607 H   0  0  0  0  0  0  0  0  0  0  0  0
    6.6249   -0.3801   -0.1291 H   0  0  0  0  0  0  0  0  0  0  0  0
    7.0541    4.7334    0.7157 H   0  0  0  0  0  0  0  0  0  0  0  0
    7.2194    4.0892    2.3715 H   0  0  0  0  0  0  0  0  0  0  0  0
    8.3653    3.6064    1.1065 H   0  0  0  0  0  0  0  0  0  0  0  0
    4.5778    3.7311    1.4250 H   0  0  0  0  0  0  0  0  0  0  0  0
   -3.4873    0.1781   -1.1188 H   0  0  0  0  0  0  0  0  0  0  0  0
   -5.8565    0.6717   -1.0032 H   0  0  0  0  0  0  0  0  0  0  0  0
  1  2  1  0
  2  3  1  0
  3  4  2  0
  4  5  1  0
  5  6  2  0
  6  7  1  0
  7  8  1  0
  8  9  2  0
  9 10  1  0
 10 11  2  0
 11 12  1  0
 12 13  1  0
 13 14  1  0
 13 15  1  0
 13 16  1  0
 16 17  1  0
 17 18  1  0
 18 19  1  0
 19 20  2  0
 19 21  1  0
 21 22  2  0
 22 23  1  0
 23 24  2  0
 24 25  1  0
 24 26  1  0
 26 27  2  0
  6 28  1  0
 28 29  2  0
 29  3  1  0
 11  7  1  0
 27 21  1  0
 17 10  1  0
  1 30  1  0
  1 31  1  0
  1 32  1  0
  4 33  1  0
  5 34  1  0
  9 35  1  0
 12 36  1  0
 12 37  1  0
 14 38  1  0
 14 39  1  0
 14 40  1  0
 15 41  1  0
 15 42  1  0
 15 43  1  0
 16 44  1  0
 16 45  1  0
 17 46  1  0
 18 47  1  0
 22 48  1  0
 25 49  1  0
 25 50  1  0
 25 51  1  0
 26 52  1  0
 28 53  1  0
 29 54  1  0
M  END
$$$$
