
     RDKit          3D

 37 38  0  0  0  0  0  0  0  0999 V2000
    3.5019    1.2878    1.6616 C   0  0  0  0  0  0  0  0  0  0  0  0
    3.9741   -0.0641    1.1141 C   0  0  0  0  0  0  0  0  0  0  0  0
    5.4471   -0.2853    1.4711 C   0  0  0  0  0  0  0  0  0  0  0  0
    3.7839   -0.1634   -0.4108 C   0  0  0  0  0  0  0  0  0  0  0  0
    2.3410   -0.1692   -0.8093 C   0  0  0  0  0  0  0  0  0  0  0  0
    1.4520   -1.0593   -0.4157 N   0  0  0  0  0  0  0  0  0  0  0  0
    0.2019   -0.8141   -0.9460 N   0  0  0  0  0  0  0  0  0  0  0  0
    0.1880    0.2728   -1.6777 C   0  0  0  0  0  0  0  0  0  0  0  0
   -1.0306    0.6939   -2.3369 N   0  0  0  0  0  0  0  0  0  0  0  0
   -1.8105    1.9480   -1.5279 S   0  0  0  0  0  6  0  0  0  0  0  0
   -0.8271    2.9398   -1.1374 O   0  0  0  0  0  0  0  0  0  0  0  0
   -2.9240    2.3411   -2.3670 O   0  0  0  0  0  0  0  0  0  0  0  0
   -2.4577    1.1918   -0.0173 C   0  0  0  0  0  0  0  0  0  0  0  0
   -3.3164   -0.0101   -0.3270 C   0  0  0  0  0  0  0  0  0  0  0  0
   -2.8735   -1.3041   -0.0077 C   0  0  0  0  0  0  0  0  0  0  0  0
   -3.6645   -2.4178   -0.2923 C   0  0  0  0  0  0  0  0  0  0  0  0
   -4.9107   -2.2544   -0.8933 C   0  0  0  0  0  0  0  0  0  0  0  0
   -5.3708   -0.9763   -1.2006 C   0  0  0  0  0  0  0  0  0  0  0  0
   -4.5828    0.1399   -0.9126 C   0  0  0  0  0  0  0  0  0  0  0  0
    1.7053    1.0297   -1.8683 S   0  0  0  0  0  0  0  0  0  0  0  0
    2.4275    1.4314    1.5016 H   0  0  0  0  0  0  0  0  0  0  0  0
    3.6774    1.3540    2.7415 H   0  0  0  0  0  0  0  0  0  0  0  0
    4.0317    2.1183    1.1796 H   0  0  0  0  0  0  0  0  0  0  0  0
    3.3887   -0.8503    1.6081 H   0  0  0  0  0  0  0  0  0  0  0  0
    6.0934    0.4387    0.9620 H   0  0  0  0  0  0  0  0  0  0  0  0
    5.6057   -0.1816    2.5522 H   0  0  0  0  0  0  0  0  0  0  0  0
    5.7703   -1.2923    1.1836 H   0  0  0  0  0  0  0  0  0  0  0  0
    4.2358   -1.0951   -0.7786 H   0  0  0  0  0  0  0  0  0  0  0  0
    4.3234    0.6544   -0.9035 H   0  0  0  0  0  0  0  0  0  0  0  0
   -1.6652   -0.0917   -2.4953 H   0  0  0  0  0  0  0  0  0  0  0  0
   -3.0480    1.9599    0.4975 H   0  0  0  0  0  0  0  0  0  0  0  0
   -1.6070    0.9400    0.6220 H   0  0  0  0  0  0  0  0  0  0  0  0
   -1.9083   -1.4617    0.4730 H   0  0  0  0  0  0  0  0  0  0  0  0
   -3.3076   -3.4152   -0.0405 H   0  0  0  0  0  0  0  0  0  0  0  0
   -5.5268   -3.1219   -1.1128 H   0  0  0  0  0  0  0  0  0  0  0  0
   -6.3472   -0.8452   -1.6619 H   0  0  0  0  0  0  0  0  0  0  0  0
   -4.9704    1.1316   -1.1544 H   0  0  0  0  0  0  0  0  0  0  0  0
  1  2  1  0
  2  3  1  0
  2  4  1  0
  4  5  1  0
  5  6  2  0
  6  7  1  0
  7  8  2  0
  8  9  1  0
  9 10  1  0
 10 11  2  0
 10 12  2  0
 10 13  1  0
 13 14  1  0
 14 15  2  0
 15 16  1  0
 16 17  2  0
 17 18  1  0
 18 19  2  0
  8 20  1  0
 20  5  1  0
 19 14  1  0
  1 21  1  0
  1 22  1  0
  1 23  1  0
  2 24  1  0
  3 25  1  0
  3 26  1  0
  3 27  1  0
  4 28  1  0
  4 29  1  0
  9 30  1  0
 13 31  1  0
 13 32  1  0
 15 33  1  0
 16 34  1  0
 17 35  1  0
 18 36  1  0
 19 37  1  0
M  END
$$$$
