
     RDKit          3D

 64 68  0  0  0  0  0  0  0  0999 V2000
   -2.2765   -4.3341   -3.8540 C   0  0  0  0  0  0  0  0  0  0  0  0
   -2.7650   -2.8775   -3.9684 C   0  0  0  0  0  0  0  0  0  0  0  0
   -1.6106   -2.0313   -4.5255 C   0  0  0  0  0  0  0  0  0  0  0  0
   -3.9572   -2.8260   -4.9340 C   0  0  0  0  0  0  0  0  0  0  0  0
   -3.2496   -2.4287   -2.5713 C   0  0  0  0  0  0  0  0  0  0  0  0
   -3.8939   -3.1803   -1.8356 O   0  0  0  0  0  0  0  0  0  0  0  0
   -3.0065   -1.0338   -2.1015 C   0  0  0  0  0  0  0  0  0  0  0  0
   -3.7429   -0.0353   -2.7903 C   0  0  0  0  0  0  0  0  0  0  0  0
   -4.3311    0.7532   -3.4054 N   0  0  0  0  0  0  0  0  0  0  0  0
   -2.0984   -0.8050   -1.1256 C   0  0  0  0  0  0  0  0  0  0  0  0
   -1.0208   -2.0747   -0.5743 S   0  0  0  0  0  0  0  0  0  0  0  0
    0.0430   -0.9392    0.1688 C   0  0  0  0  0  0  0  0  0  0  0  0
    1.2250   -1.3092    0.6864 C   0  0  0  0  0  0  0  0  0  0  0  0
    2.1731   -0.4719    1.3366 C   0  0  0  0  0  0  0  0  0  0  0  0
    3.0439    0.3703    0.6884 C   0  0  0  0  0  0  0  0  0  0  0  0
    3.7593    1.0275    1.6643 N   0  0  0  0  0  0  0  0  0  0  0  0
    4.7640    2.0227    1.4936 C   0  0  0  0  0  0  0  0  0  0  0  0
    5.3997    2.5611    2.6237 C   0  0  0  0  0  0  0  0  0  0  0  0
    6.3882    3.5371    2.4793 C   0  0  0  0  0  0  0  0  0  0  0  0
    6.7484    3.9832    1.2099 C   0  0  0  0  0  0  0  0  0  0  0  0
    6.1213    3.4553    0.0826 C   0  0  0  0  0  0  0  0  0  0  0  0
    5.1311    2.4773    0.2189 C   0  0  0  0  0  0  0  0  0  0  0  0
    3.4096    0.6007    2.9044 N   0  0  0  0  0  0  0  0  0  0  0  0
    2.4350   -0.3022    2.7216 C   0  0  0  0  0  0  0  0  0  0  0  0
    1.7943   -0.9363    3.8687 C   0  0  0  0  0  0  0  0  0  0  0  0
    1.4667   -2.2943    3.8887 C   0  0  0  0  0  0  0  0  0  0  0  0
    0.8447   -2.8411    5.0108 C   0  0  0  0  0  0  0  0  0  0  0  0
    0.5724   -2.0098    6.0850 C   0  0  0  0  0  0  0  0  0  0  0  0
    0.8810   -0.6970    6.1115 N   0  0  0  0  0  0  0  0  0  0  0  0
    1.4896   -0.1937    5.0066 C   0  0  0  0  0  0  0  0  0  0  0  0
   -0.5461    0.4302    0.1754 C   0  0  0  0  0  0  0  0  0  0  0  0
   -0.0308    1.3795    0.7487 O   0  0  0  0  0  0  0  0  0  0  0  0
   -1.7672    0.4184   -0.5318 N   0  0  0  0  0  0  0  0  0  0  0  0
   -2.6167    1.5674   -0.4249 C   0  0  0  0  0  0  0  0  0  0  0  0
   -3.9793    1.4196   -0.1100 C   0  0  0  0  0  0  0  0  0  0  0  0
   -4.8072    2.5392    0.0123 C   0  0  0  0  0  0  0  0  0  0  0  0
   -4.2747    3.8092   -0.1646 C   0  0  0  0  0  0  0  0  0  0  0  0
   -5.0681    4.8811   -0.0448 F   0  0  0  0  0  0  0  0  0  0  0  0
   -2.9279    3.9815   -0.4527 C   0  0  0  0  0  0  0  0  0  0  0  0
   -2.0987    2.8632   -0.5757 C   0  0  0  0  0  0  0  0  0  0  0  0
   -1.9215   -4.7124   -4.8192 H   0  0  0  0  0  0  0  0  0  0  0  0
   -1.4531   -4.4179   -3.1357 H   0  0  0  0  0  0  0  0  0  0  0  0
   -3.0757   -5.0023   -3.5131 H   0  0  0  0  0  0  0  0  0  0  0  0
   -0.7610   -2.0078   -3.8349 H   0  0  0  0  0  0  0  0  0  0  0  0
   -1.9128   -0.9965   -4.7159 H   0  0  0  0  0  0  0  0  0  0  0  0
   -1.2498   -2.4379   -5.4775 H   0  0  0  0  0  0  0  0  0  0  0  0
   -3.6866   -3.2194   -5.9202 H   0  0  0  0  0  0  0  0  0  0  0  0
   -4.3173   -1.8014   -5.0732 H   0  0  0  0  0  0  0  0  0  0  0  0
   -4.8002   -3.4166   -4.5572 H   0  0  0  0  0  0  0  0  0  0  0  0
    1.5087   -2.3585    0.6261 H   0  0  0  0  0  0  0  0  0  0  0  0
    3.1884    0.5682   -0.3617 H   0  0  0  0  0  0  0  0  0  0  0  0
    5.1348    2.2303    3.6266 H   0  0  0  0  0  0  0  0  0  0  0  0
    6.8746    3.9483    3.3603 H   0  0  0  0  0  0  0  0  0  0  0  0
    7.5170    4.7440    1.0994 H   0  0  0  0  0  0  0  0  0  0  0  0
    6.4031    3.8081   -0.9065 H   0  0  0  0  0  0  0  0  0  0  0  0
    4.6682    2.0992   -0.6865 H   0  0  0  0  0  0  0  0  0  0  0  0
    1.7075   -2.9422    3.0523 H   0  0  0  0  0  0  0  0  0  0  0  0
    0.5840   -3.8930    5.0489 H   0  0  0  0  0  0  0  0  0  0  0  0
    0.0898   -2.3902    6.9806 H   0  0  0  0  0  0  0  0  0  0  0  0
    1.7289    0.8662    5.0638 H   0  0  0  0  0  0  0  0  0  0  0  0
   -4.4124    0.4403    0.0797 H   0  0  0  0  0  0  0  0  0  0  0  0
   -5.8604    2.4288    0.2498 H   0  0  0  0  0  0  0  0  0  0  0  0
   -2.5283    4.9832   -0.5769 H   0  0  0  0  0  0  0  0  0  0  0  0
   -1.0472    3.0231   -0.8049 H   0  0  0  0  0  0  0  0  0  0  0  0
  1  2  1  0
  2  3  1  0
  2  4  1  0
  2  5  1  0
  5  6  2  0
  5  7  1  0
  7  8  1  0
  8  9  3  0
  7 10  2  3
 10 11  1  0
 11 12  1  0
 12 13  2  3
 13 14  1  0
 14 15  2  0
 15 16  1  0
 16 17  1  0
 17 18  2  0
 18 19  1  0
 19 20  2  0
 20 21  1  0
 21 22  2  0
 16 23  1  0
 23 24  2  0
 24 25  1  0
 25 26  2  0
 26 27  1  0
 27 28  2  0
 28 29  1  0
 29 30  2  0
 12 31  1  0
 31 32  2  0
 31 33  1  0
 33 34  1  0
 34 35  2  0
 35 36  1  0
 36 37  2  0
 37 38  1  0
 37 39  1  0
 39 40  2  0
 33 10  1  0
 40 34  1  0
 24 14  1  0
 30 25  1  0
 22 17  1  0
  1 41  1  0
  1 42  1  0
  1 43  1  0
  3 44  1  0
  3 45  1  0
  3 46  1  0
  4 47  1  0
  4 48  1  0
  4 49  1  0
 13 50  1  0
 15 51  1  0
 18 52  1  0
 19 53  1  0
 20 54  1  0
 21 55  1  0
 22 56  1  0
 26 57  1  0
 27 58  1  0
 28 59  1  0
 30 60  1  0
 35 61  1  0
 36 62  1  0
 39 63  1  0
 40 64  1  0
M  END
$$$$
