
     RDKit          3D

 45 48  0  0  0  0  0  0  0  0999 V2000
    1.1286   -2.5088   -0.0476 O   0  0  0  0  0  0  0  0  0  0  0  0
   -0.0161   -2.2951   -0.4366 C   0  0  0  0  0  0  0  0  0  0  0  0
   -0.5979   -1.0644   -0.5808 N   0  0  0  0  0  0  0  0  0  0  0  0
   -0.4318   -0.1609    0.3171 C   0  0  0  0  0  0  0  0  0  0  0  0
    0.2833   -0.3254    1.4637 N   0  0  0  0  0  0  0  0  0  0  0  0
    1.5337    0.0034    1.3976 C   0  0  0  0  0  0  0  0  0  0  0  0
    2.4414   -0.1545    2.4203 N   0  0  0  0  0  0  0  0  0  0  0  0
    3.6748    0.1088    1.8653 C   0  0  0  0  0  0  0  0  0  0  0  0
    4.9389    0.0564    2.4038 C   0  0  0  0  0  0  0  0  0  0  0  0
    6.0049    0.4724    1.5970 C   0  0  0  0  0  0  0  0  0  0  0  0
    5.7810    0.9443    0.2883 C   0  0  0  0  0  0  0  0  0  0  0  0
    4.4871    1.0117   -0.2329 C   0  0  0  0  0  0  0  0  0  0  0  0
    3.4600    0.5940    0.5842 C   0  0  0  0  0  0  0  0  0  0  0  0
    2.1121    0.5746    0.2517 O   0  0  0  0  0  0  0  0  0  0  0  0
   -1.0473    1.0630    0.2442 N   0  0  0  0  0  0  0  0  0  0  0  0
   -1.8845    1.5329   -0.7527 C   0  0  0  0  0  0  0  0  0  0  0  0
   -2.1327    0.9804   -1.8173 O   0  0  0  0  0  0  0  0  0  0  0  0
   -2.4823    2.8711   -0.4865 C   0  0  0  0  0  0  0  0  0  0  0  0
   -2.8675    3.2670    0.8017 C   0  0  0  0  0  0  0  0  0  0  0  0
   -3.4231    4.5326    1.0040 C   0  0  0  0  0  0  0  0  0  0  0  0
   -3.6028    5.3988   -0.0748 C   0  0  0  0  0  0  0  0  0  0  0  0
   -3.2379    5.0010   -1.3606 C   0  0  0  0  0  0  0  0  0  0  0  0
   -2.6834    3.7373   -1.5684 C   0  0  0  0  0  0  0  0  0  0  0  0
   -0.8712   -3.4521   -0.8474 C   0  0  0  0  0  0  0  0  0  0  0  0
   -2.1301   -3.2556   -1.4329 C   0  0  0  0  0  0  0  0  0  0  0  0
   -2.9105   -4.3527   -1.8047 C   0  0  0  0  0  0  0  0  0  0  0  0
   -2.4394   -5.6486   -1.5952 C   0  0  0  0  0  0  0  0  0  0  0  0
   -1.1871   -5.8524   -1.0164 C   0  0  0  0  0  0  0  0  0  0  0  0
   -0.4035   -4.7580   -0.6439 C   0  0  0  0  0  0  0  0  0  0  0  0
    2.3163   -0.9404    3.0385 H   0  0  0  0  0  0  0  0  0  0  0  0
    5.1113   -0.2891    3.4166 H   0  0  0  0  0  0  0  0  0  0  0  0
    7.0206    0.4364    1.9856 H   0  0  0  0  0  0  0  0  0  0  0  0
    6.6251    1.2603   -0.3209 H   0  0  0  0  0  0  0  0  0  0  0  0
    4.2969    1.3708   -1.2375 H   0  0  0  0  0  0  0  0  0  0  0  0
   -0.8453    1.6545    1.0325 H   0  0  0  0  0  0  0  0  0  0  0  0
   -2.7735    2.5963    1.6512 H   0  0  0  0  0  0  0  0  0  0  0  0
   -3.7279    4.8409    2.0014 H   0  0  0  0  0  0  0  0  0  0  0  0
   -4.0394    6.3821    0.0845 H   0  0  0  0  0  0  0  0  0  0  0  0
   -3.3894    5.6717   -2.2028 H   0  0  0  0  0  0  0  0  0  0  0  0
   -2.4067    3.4281   -2.5748 H   0  0  0  0  0  0  0  0  0  0  0  0
   -2.5075   -2.2503   -1.6127 H   0  0  0  0  0  0  0  0  0  0  0  0
   -3.8839   -4.1931   -2.2618 H   0  0  0  0  0  0  0  0  0  0  0  0
   -3.0480   -6.5008   -1.8876 H   0  0  0  0  0  0  0  0  0  0  0  0
   -0.8186   -6.8626   -0.8571 H   0  0  0  0  0  0  0  0  0  0  0  0
    0.5734   -4.9260   -0.1956 H   0  0  0  0  0  0  0  0  0  0  0  0
  1  2  2  0
  2  3  1  0
  3  4  2  3
  4  5  1  0
  5  6  2  3
  6  7  1  0
  7  8  1  0
  8  9  2  0
  9 10  1  0
 10 11  2  0
 11 12  1  0
 12 13  2  0
 13 14  1  0
  4 15  1  0
 15 16  1  0
 16 17  2  0
 16 18  1  0
 18 19  2  0
 19 20  1  0
 20 21  2  0
 21 22  1  0
 22 23  2  0
  2 24  1  0
 24 25  2  0
 25 26  1  0
 26 27  2  0
 27 28  1  0
 28 29  2  0
 14  6  1  0
 23 18  1  0
 29 24  1  0
 13  8  1  0
  7 30  1  0
  9 31  1  0
 10 32  1  0
 11 33  1  0
 12 34  1  0
 15 35  1  0
 19 36  1  0
 20 37  1  0
 21 38  1  0
 22 39  1  0
 23 40  1  0
 25 41  1  0
 26 42  1  0
 27 43  1  0
 28 44  1  0
 29 45  1  0
M  END
$$$$
