
     RDKit          3D

 47 50  0  0  0  0  0  0  0  0999 V2000
   -5.9115    1.7937   -1.1851 C   0  0  0  0  0  0  0  0  0  0  0  0
   -5.8266    1.2354    0.2284 C   0  0  0  0  0  0  0  0  0  0  0  0
   -5.0741   -0.0260    0.2545 N   0  0  0  0  0  0  0  0  0  0  0  0
   -5.8741   -1.2480    0.0971 C   0  0  0  0  0  0  0  0  0  0  0  0
   -6.2895   -1.8065    1.4507 C   0  0  0  0  0  0  0  0  0  0  0  0
   -3.6907   -0.0606    0.3949 C   0  0  0  0  0  0  0  0  0  0  0  0
   -2.9793   -1.2646    0.5420 C   0  0  0  0  0  0  0  0  0  0  0  0
   -1.5831   -1.3079    0.6830 C   0  0  0  0  0  0  0  0  0  0  0  0
   -0.8375   -0.1333    0.6751 C   0  0  0  0  0  0  0  0  0  0  0  0
    0.6168   -0.1940    0.8360 C   0  0  0  0  0  0  0  0  0  0  0  0
    1.5240    0.1407   -0.0921 C   0  0  0  0  0  0  0  0  0  0  0  0
    1.2232    0.7207   -1.7141 S   0  0  0  0  0  0  0  0  0  0  0  0
    2.9144    0.7973   -1.9884 C   0  0  0  0  0  0  0  0  0  0  0  0
    3.6673    1.2002   -2.9710 N   0  0  0  0  0  0  0  0  0  0  0  0
    4.9764    1.0252   -2.5413 N   0  0  0  0  0  0  0  0  0  0  0  0
    4.9618    0.4989   -1.3210 C   0  0  0  0  0  0  0  0  0  0  0  0
    6.1268    0.1424   -0.5218 C   0  0  0  0  0  0  0  0  0  0  0  0
    7.0287    1.1589   -0.1679 C   0  0  0  0  0  0  0  0  0  0  0  0
    8.1601    0.8738    0.5998 C   0  0  0  0  0  0  0  0  0  0  0  0
    8.4097   -0.4321    1.0145 C   0  0  0  0  0  0  0  0  0  0  0  0
    7.5347   -1.4564    0.6526 C   0  0  0  0  0  0  0  0  0  0  0  0
    6.4013   -1.1747   -0.1175 C   0  0  0  0  0  0  0  0  0  0  0  0
    5.3957   -2.5075   -0.5776 Cl  0  0  0  0  0  0  0  0  0  0  0  0
    3.6522    0.3883   -0.9330 N   0  0  0  0  0  0  0  0  0  0  0  0
    2.9815    0.0185    0.2058 C   0  0  0  0  0  0  0  0  0  0  0  0
    3.5423   -0.3065    1.2348 O   0  0  0  0  0  0  0  0  0  0  0  0
   -1.5086    1.0787    0.5431 C   0  0  0  0  0  0  0  0  0  0  0  0
   -2.9054    1.1058    0.4038 C   0  0  0  0  0  0  0  0  0  0  0  0
   -6.4928    2.7211   -1.1902 H   0  0  0  0  0  0  0  0  0  0  0  0
   -4.9213    2.0121   -1.5960 H   0  0  0  0  0  0  0  0  0  0  0  0
   -6.4008    1.0835   -1.8598 H   0  0  0  0  0  0  0  0  0  0  0  0
   -6.8472    1.0628    0.5936 H   0  0  0  0  0  0  0  0  0  0  0  0
   -5.4061    1.9755    0.9184 H   0  0  0  0  0  0  0  0  0  0  0  0
   -6.7825   -1.0234   -0.4767 H   0  0  0  0  0  0  0  0  0  0  0  0
   -5.3506   -2.0057   -0.4966 H   0  0  0  0  0  0  0  0  0  0  0  0
   -6.8788   -1.0750    2.0135 H   0  0  0  0  0  0  0  0  0  0  0  0
   -6.9014   -2.7041    1.3172 H   0  0  0  0  0  0  0  0  0  0  0  0
   -5.4230   -2.0747    2.0626 H   0  0  0  0  0  0  0  0  0  0  0  0
   -3.4955   -2.2193    0.5633 H   0  0  0  0  0  0  0  0  0  0  0  0
   -1.0968   -2.2742    0.7951 H   0  0  0  0  0  0  0  0  0  0  0  0
    0.9455   -0.5696    1.8047 H   0  0  0  0  0  0  0  0  0  0  0  0
    6.8537    2.1836   -0.4931 H   0  0  0  0  0  0  0  0  0  0  0  0
    8.8480    1.6718    0.8698 H   0  0  0  0  0  0  0  0  0  0  0  0
    9.2911   -0.6551    1.6111 H   0  0  0  0  0  0  0  0  0  0  0  0
    7.7457   -2.4756    0.9676 H   0  0  0  0  0  0  0  0  0  0  0  0
   -0.9649    2.0202    0.5456 H   0  0  0  0  0  0  0  0  0  0  0  0
   -3.3589    2.0855    0.2907 H   0  0  0  0  0  0  0  0  0  0  0  0
  1  2  1  0
  2  3  1  0
  3  4  1  0
  4  5  1  0
  3  6  1  0
  6  7  2  0
  7  8  1  0
  8  9  2  0
  9 10  1  0
 10 11  2  3
 11 12  1  0
 12 13  1  0
 13 14  2  0
 14 15  1  0
 15 16  2  0
 16 17  1  0
 17 18  2  0
 18 19  1  0
 19 20  2  0
 20 21  1  0
 21 22  2  0
 22 23  1  0
 16 24  1  0
 24 25  1  0
 25 26  2  0
  9 27  1  0
 27 28  2  0
 28  6  1  0
 25 11  1  0
 24 13  1  0
 22 17  1  0
  1 29  1  0
  1 30  1  0
  1 31  1  0
  2 32  1  0
  2 33  1  0
  4 34  1  0
  4 35  1  0
  5 36  1  0
  5 37  1  0
  5 38  1  0
  7 39  1  0
  8 40  1  0
 10 41  1  0
 18 42  1  0
 19 43  1  0
 20 44  1  0
 21 45  1  0
 27 46  1  0
 28 47  1  0
M  END
$$$$
