
     RDKit          3D

 42 44  0  0  0  0  0  0  0  0999 V2000
    6.0547   -4.0220    1.4513 N   0  0  0  0  0  0  0  0  0  0  0  0
    4.9354   -3.7272    1.5390 C   0  0  0  0  0  0  0  0  0  0  0  0
    3.5637   -3.3522    1.6381 C   0  0  0  0  0  0  0  0  0  0  0  0
    2.7447   -4.1590    2.4824 C   0  0  0  0  0  0  0  0  0  0  0  0
    2.0709   -4.8069    3.1707 N   0  0  0  0  0  0  0  0  0  0  0  0
    3.0687   -2.2877    0.9591 C   0  0  0  0  0  0  0  0  0  0  0  0
    1.6766   -1.8457    1.0625 C   0  0  0  0  0  0  0  0  0  0  0  0
    1.1106   -1.0170    0.1675 C   0  0  0  0  0  0  0  0  0  0  0  0
   -0.2139   -0.4604    0.3814 C   0  0  0  0  0  0  0  0  0  0  0  0
   -0.6491    0.6752   -0.2084 C   0  0  0  0  0  0  0  0  0  0  0  0
   -1.9554    1.1803   -0.0396 N   0  0  0  0  0  0  0  0  0  0  0  0
   -3.0820    0.3125    0.3670 C   0  0  0  0  0  0  0  0  0  0  0  0
   -4.3714    0.7153   -0.3420 C   0  0  0  0  0  0  0  0  0  0  0  0
   -4.7786    2.1483   -0.0173 C   0  0  0  0  0  0  0  0  0  0  0  0
   -3.5814    3.0178    0.3486 C   0  0  0  0  0  0  0  0  0  0  0  0
   -2.3133    2.5735   -0.3744 C   0  0  0  0  0  0  0  0  0  0  0  0
    0.3077    1.4640   -1.1081 C   0  0  0  0  0  0  0  0  0  0  0  0
    1.7620    0.9630   -1.1256 C   0  0  0  0  0  0  0  0  0  0  0  0
    1.7951   -0.5642   -1.1037 C   0  0  0  0  0  0  0  0  0  0  0  0
    3.2079   -1.1409   -1.2758 C   0  0  0  0  0  0  0  0  0  0  0  0
    3.9084   -1.3928    0.0564 C   0  0  0  0  0  0  0  0  0  0  0  0
    1.0994   -2.1575    1.9322 H   0  0  0  0  0  0  0  0  0  0  0  0
   -0.8517   -0.9842    1.0871 H   0  0  0  0  0  0  0  0  0  0  0  0
   -2.8818   -0.7332    0.1057 H   0  0  0  0  0  0  0  0  0  0  0  0
   -3.2054    0.3642    1.4553 H   0  0  0  0  0  0  0  0  0  0  0  0
   -5.1836    0.0303   -0.0740 H   0  0  0  0  0  0  0  0  0  0  0  0
   -4.2285    0.6215   -1.4264 H   0  0  0  0  0  0  0  0  0  0  0  0
   -5.3031    2.5738   -0.8811 H   0  0  0  0  0  0  0  0  0  0  0  0
   -5.4944    2.1581    0.8132 H   0  0  0  0  0  0  0  0  0  0  0  0
   -3.4152    2.9625    1.4324 H   0  0  0  0  0  0  0  0  0  0  0  0
   -3.8024    4.0665    0.1198 H   0  0  0  0  0  0  0  0  0  0  0  0
   -1.5126    3.2546   -0.0665 H   0  0  0  0  0  0  0  0  0  0  0  0
   -2.4399    2.6678   -1.4596 H   0  0  0  0  0  0  0  0  0  0  0  0
   -0.0884    1.4257   -2.1314 H   0  0  0  0  0  0  0  0  0  0  0  0
    0.3391    2.5178   -0.8134 H   0  0  0  0  0  0  0  0  0  0  0  0
    2.2636    1.3516   -2.0199 H   0  0  0  0  0  0  0  0  0  0  0  0
    2.3006    1.3697   -0.2590 H   0  0  0  0  0  0  0  0  0  0  0  0
    1.2081   -0.9223   -1.9627 H   0  0  0  0  0  0  0  0  0  0  0  0
    3.1329   -2.0971   -1.8124 H   0  0  0  0  0  0  0  0  0  0  0  0
    3.8216   -0.4859   -1.9055 H   0  0  0  0  0  0  0  0  0  0  0  0
    4.0864   -0.4378    0.5682 H   0  0  0  0  0  0  0  0  0  0  0  0
    4.8942   -1.8197   -0.1541 H   0  0  0  0  0  0  0  0  0  0  0  0
  1  2  3  0
  2  3  1  0
  3  4  1  0
  4  5  3  0
  3  6  2  3
  6  7  1  0
  7  8  2  0
  8  9  1  0
  9 10  2  0
 10 11  1  0
 11 12  1  0
 12 13  1  0
 13 14  1  0
 14 15  1  0
 15 16  1  0
 10 17  1  0
 17 18  1  0
 18 19  1  0
 19 20  1  0
 20 21  1  0
 21  6  1  0
 19  8  1  0
 16 11  1  0
  7 22  1  0
  9 23  1  0
 12 24  1  0
 12 25  1  0
 13 26  1  0
 13 27  1  0
 14 28  1  0
 14 29  1  0
 15 30  1  0
 15 31  1  0
 16 32  1  0
 16 33  1  0
 17 34  1  0
 17 35  1  0
 18 36  1  0
 18 37  1  0
 19 38  1  0
 20 39  1  0
 20 40  1  0
 21 41  1  0
 21 42  1  0
M  END
$$$$
