
     RDKit          3D

 40 42  0  0  0  0  0  0  0  0999 V2000
    2.8838   -0.4119   -5.1771 N   0  0  0  0  0  0  0  0  0  0  0  0
    3.4094   -0.3887   -4.1424 C   0  0  0  0  0  0  0  0  0  0  0  0
    4.0404   -0.3615   -2.8633 C   0  0  0  0  0  0  0  0  0  0  0  0
    5.4666   -0.3720   -2.8640 C   0  0  0  0  0  0  0  0  0  0  0  0
    6.6271   -0.3813   -2.8498 N   0  0  0  0  0  0  0  0  0  0  0  0
    3.3323   -0.3357   -1.7049 C   0  0  0  0  0  0  0  0  0  0  0  0
    1.8651   -0.3537   -1.6646 C   0  0  0  0  0  0  0  0  0  0  0  0
    1.1433   -0.1975   -0.5382 C   0  0  0  0  0  0  0  0  0  0  0  0
   -0.3114   -0.2391   -0.5713 C   0  0  0  0  0  0  0  0  0  0  0  0
   -1.1136    0.0490    0.4756 C   0  0  0  0  0  0  0  0  0  0  0  0
   -2.5184   -0.0390    0.4115 N   0  0  0  0  0  0  0  0  0  0  0  0
   -3.2662    0.4596   -0.7750 C   0  0  0  0  0  0  0  0  0  0  0  0
   -4.6112   -0.2667   -0.9163 C   0  0  0  0  0  0  0  0  0  0  0  0
   -5.4096   -0.1339    0.2688 O   0  0  0  0  0  0  0  0  0  0  0  0
   -4.7092   -0.6942    1.3884 C   0  0  0  0  0  0  0  0  0  0  0  0
   -3.3674    0.0131    1.6293 C   0  0  0  0  0  0  0  0  0  0  0  0
   -0.4860    0.4825    1.7945 C   0  0  0  0  0  0  0  0  0  0  0  0
    0.9477    0.9973    1.6522 C   0  0  0  0  0  0  0  0  0  0  0  0
    1.7869    0.0344    0.8111 C   0  0  0  0  0  0  0  0  0  0  0  0
    3.2206    0.5559    0.6632 C   0  0  0  0  0  0  0  0  0  0  0  0
    4.0003   -0.2984   -0.3353 C   0  0  0  0  0  0  0  0  0  0  0  0
    1.3295   -0.4980   -2.6025 H   0  0  0  0  0  0  0  0  0  0  0  0
   -0.7568   -0.5590   -1.5089 H   0  0  0  0  0  0  0  0  0  0  0  0
   -3.4398    1.5346   -0.6412 H   0  0  0  0  0  0  0  0  0  0  0  0
   -2.7038    0.3274   -1.7038 H   0  0  0  0  0  0  0  0  0  0  0  0
   -5.1793    0.1643   -1.7468 H   0  0  0  0  0  0  0  0  0  0  0  0
   -4.4626   -1.3319   -1.1306 H   0  0  0  0  0  0  0  0  0  0  0  0
   -4.5624   -1.7675    1.2171 H   0  0  0  0  0  0  0  0  0  0  0  0
   -5.3497   -0.5825    2.2690 H   0  0  0  0  0  0  0  0  0  0  0  0
   -3.5433    1.0635    1.8909 H   0  0  0  0  0  0  0  0  0  0  0  0
   -2.8726   -0.4786    2.4736 H   0  0  0  0  0  0  0  0  0  0  0  0
   -1.0776    1.2859    2.2493 H   0  0  0  0  0  0  0  0  0  0  0  0
   -0.4990   -0.3684    2.4870 H   0  0  0  0  0  0  0  0  0  0  0  0
    0.9314    1.9928    1.1877 H   0  0  0  0  0  0  0  0  0  0  0  0
    1.3904    1.1204    2.6479 H   0  0  0  0  0  0  0  0  0  0  0  0
    1.8250   -0.9342    1.3308 H   0  0  0  0  0  0  0  0  0  0  0  0
    3.2183    1.6016    0.3270 H   0  0  0  0  0  0  0  0  0  0  0  0
    3.7252    0.5368    1.6367 H   0  0  0  0  0  0  0  0  0  0  0  0
    5.0191    0.1003   -0.3870 H   0  0  0  0  0  0  0  0  0  0  0  0
    4.0779   -1.3255    0.0452 H   0  0  0  0  0  0  0  0  0  0  0  0
  1  2  3  0
  2  3  1  0
  3  4  1  0
  4  5  3  0
  3  6  2  3
  6  7  1  0
  7  8  2  0
  8  9  1  0
  9 10  2  0
 10 11  1  0
 11 12  1  0
 12 13  1  0
 13 14  1  0
 14 15  1  0
 15 16  1  0
 10 17  1  0
 17 18  1  0
 18 19  1  0
 19 20  1  0
 20 21  1  0
 21  6  1  0
 19  8  1  0
 16 11  1  0
  7 22  1  0
  9 23  1  0
 12 24  1  0
 12 25  1  0
 13 26  1  0
 13 27  1  0
 15 28  1  0
 15 29  1  0
 16 30  1  0
 16 31  1  0
 17 32  1  0
 17 33  1  0
 18 34  1  0
 18 35  1  0
 19 36  1  0
 20 37  1  0
 20 38  1  0
 21 39  1  0
 21 40  1  0
M  END
$$$$
