
     RDKit          3D

 57 61  0  0  0  0  0  0  0  0999 V2000
   -6.7888    1.7901   -2.1928 C   0  0  0  0  0  0  0  0  0  0  0  0
   -6.9744    2.0946   -0.8482 C   0  0  0  0  0  0  0  0  0  0  0  0
   -5.9169    1.9519    0.0536 C   0  0  0  0  0  0  0  0  0  0  0  0
   -4.6476    1.5112   -0.3708 C   0  0  0  0  0  0  0  0  0  0  0  0
   -3.5514    1.3613    0.6799 C   0  0  0  0  0  0  0  0  0  0  0  0
   -3.3570   -0.0107    1.3085 C   0  0  0  0  0  0  0  0  0  0  0  0
   -3.6200   -1.2106    0.6277 C   0  0  0  0  0  0  0  0  0  0  0  0
   -3.4228   -2.4466    1.2492 C   0  0  0  0  0  0  0  0  0  0  0  0
   -2.9557   -2.5061    2.5594 C   0  0  0  0  0  0  0  0  0  0  0  0
   -2.6810   -1.3298    3.2501 C   0  0  0  0  0  0  0  0  0  0  0  0
   -2.8780   -0.0939    2.6308 C   0  0  0  0  0  0  0  0  0  0  0  0
   -2.2303    1.7841    0.1041 C   0  0  0  0  0  0  0  0  0  0  0  0
   -1.6714    2.9644    0.4283 N   0  0  0  0  0  0  0  0  0  0  0  0
   -0.4634    2.9570   -0.2653 O   0  0  0  0  0  0  0  0  0  0  0  0
   -0.4047    1.7708   -0.9375 C   0  0  0  0  0  0  0  0  0  0  0  0
    0.8184    1.5340   -1.7612 C   0  0  0  0  0  0  0  0  0  0  0  0
    1.7733    0.5726   -1.1627 N   0  0  0  0  0  0  0  0  0  0  0  0
    2.8072    0.2141   -2.1438 C   0  0  0  0  0  0  0  0  0  0  0  0
    3.7608   -0.8419   -1.5843 C   0  0  0  0  0  0  0  0  0  0  0  0
    4.4045   -0.3602   -0.2771 C   0  0  0  0  0  0  0  0  0  0  0  0
    5.3350   -1.3983    0.3191 C   0  0  0  0  0  0  0  0  0  0  0  0
    4.8768   -2.6547    0.7296 C   0  0  0  0  0  0  0  0  0  0  0  0
    5.7833   -3.5577    1.2652 C   0  0  0  0  0  0  0  0  0  0  0  0
    7.0990   -3.3015    1.4197 N   0  0  0  0  0  0  0  0  0  0  0  0
    7.5247   -2.0854    1.0206 C   0  0  0  0  0  0  0  0  0  0  0  0
    6.6962   -1.1162    0.4738 C   0  0  0  0  0  0  0  0  0  0  0  0
    3.3160    0.0784    0.7112 C   0  0  0  0  0  0  0  0  0  0  0  0
    2.3735    1.1005    0.0724 C   0  0  0  0  0  0  0  0  0  0  0  0
   -1.4680    1.0195   -0.7578 N   0  0  0  0  0  0  0  0  0  0  0  0
   -4.4906    1.1941   -1.7320 C   0  0  0  0  0  0  0  0  0  0  0  0
   -5.5491    1.3372   -2.6338 C   0  0  0  0  0  0  0  0  0  0  0  0
   -7.6107    1.8995   -2.8952 H   0  0  0  0  0  0  0  0  0  0  0  0
   -7.9435    2.4403   -0.4979 H   0  0  0  0  0  0  0  0  0  0  0  0
   -6.0934    2.1880    1.1017 H   0  0  0  0  0  0  0  0  0  0  0  0
   -3.7960    2.0622    1.4924 H   0  0  0  0  0  0  0  0  0  0  0  0
   -3.9759   -1.2034   -0.3992 H   0  0  0  0  0  0  0  0  0  0  0  0
   -3.6311   -3.3638    0.7045 H   0  0  0  0  0  0  0  0  0  0  0  0
   -2.8010   -3.4690    3.0386 H   0  0  0  0  0  0  0  0  0  0  0  0
   -2.3097   -1.3731    4.2704 H   0  0  0  0  0  0  0  0  0  0  0  0
   -2.6482    0.8120    3.1890 H   0  0  0  0  0  0  0  0  0  0  0  0
    1.3162    2.4884   -1.9763 H   0  0  0  0  0  0  0  0  0  0  0  0
    0.4689    1.1389   -2.7238 H   0  0  0  0  0  0  0  0  0  0  0  0
    2.3381   -0.2008   -3.0446 H   0  0  0  0  0  0  0  0  0  0  0  0
    3.3763    1.1010   -2.4530 H   0  0  0  0  0  0  0  0  0  0  0  0
    4.5373   -1.0628   -2.3274 H   0  0  0  0  0  0  0  0  0  0  0  0
    3.2061   -1.7760   -1.4253 H   0  0  0  0  0  0  0  0  0  0  0  0
    5.0013    0.5314   -0.5192 H   0  0  0  0  0  0  0  0  0  0  0  0
    3.8326   -2.9358    0.6382 H   0  0  0  0  0  0  0  0  0  0  0  0
    5.4619   -4.5417    1.5935 H   0  0  0  0  0  0  0  0  0  0  0  0
    8.5866   -1.9007    1.1548 H   0  0  0  0  0  0  0  0  0  0  0  0
    7.1148   -0.1606    0.1768 H   0  0  0  0  0  0  0  0  0  0  0  0
    3.7752    0.5163    1.6064 H   0  0  0  0  0  0  0  0  0  0  0  0
    2.7284   -0.7840    1.0525 H   0  0  0  0  0  0  0  0  0  0  0  0
    1.5956    1.3316    0.8092 H   0  0  0  0  0  0  0  0  0  0  0  0
    2.9192    2.0320   -0.1274 H   0  0  0  0  0  0  0  0  0  0  0  0
   -3.5434    0.8187   -2.1134 H   0  0  0  0  0  0  0  0  0  0  0  0
   -5.4032    1.0885   -3.6818 H   0  0  0  0  0  0  0  0  0  0  0  0
  1  2  2  0
  2  3  1  0
  3  4  2  0
  4  5  1  0
  5  6  1  0
  6  7  2  0
  7  8  1  0
  8  9  2  0
  9 10  1  0
 10 11  2  0
  5 12  1  0
 12 13  2  0
 13 14  1  0
 14 15  1  0
 15 16  1  0
 16 17  1  0
 17 18  1  0
 18 19  1  0
 19 20  1  0
 20 21  1  0
 21 22  2  0
 22 23  1  0
 23 24  2  0
 24 25  1  0
 25 26  2  0
 20 27  1  0
 27 28  1  0
 15 29  2  0
  4 30  1  0
 30 31  2  0
 31  1  1  0
 11  6  1  0
 29 12  1  0
 28 17  1  0
 26 21  1  0
  1 32  1  0
  2 33  1  0
  3 34  1  0
  5 35  1  0
  7 36  1  0
  8 37  1  0
  9 38  1  0
 10 39  1  0
 11 40  1  0
 16 41  1  0
 16 42  1  0
 18 43  1  0
 18 44  1  0
 19 45  1  0
 19 46  1  0
 20 47  1  0
 22 48  1  0
 23 49  1  0
 25 50  1  0
 26 51  1  0
 27 52  1  0
 27 53  1  0
 28 54  1  0
 28 55  1  0
 30 56  1  0
 31 57  1  0
M  END
$$$$
