
     RDKit          3D

 48 50  0  0  0  0  0  0  0  0999 V2000
    6.0117    0.4400    1.2026 C   0  0  0  0  0  0  0  0  0  0  0  0
    5.2334    0.0539   -0.0470 C   0  0  0  0  0  0  0  0  0  0  0  0
    3.9924   -0.6486    0.3037 N   0  0  0  0  0  0  0  0  0  0  0  0
    4.0759   -2.1143    0.3381 C   0  0  0  0  0  0  0  0  0  0  0  0
    3.7348   -2.7164   -1.0177 C   0  0  0  0  0  0  0  0  0  0  0  0
    2.7997    0.0300    0.5347 C   0  0  0  0  0  0  0  0  0  0  0  0
    2.7333    1.4326    0.6040 C   0  0  0  0  0  0  0  0  0  0  0  0
    1.5335    2.1242    0.8374 C   0  0  0  0  0  0  0  0  0  0  0  0
    0.3378    1.4312    1.0037 C   0  0  0  0  0  0  0  0  0  0  0  0
   -0.8925    2.1727    1.3012 C   0  0  0  0  0  0  0  0  0  0  0  0
   -2.0652    2.1504    0.6355 C   0  0  0  0  0  0  0  0  0  0  0  0
   -3.1651    2.9541    1.2153 C   0  0  0  0  0  0  0  0  0  0  0  0
   -3.0596    3.6304    2.2331 O   0  0  0  0  0  0  0  0  0  0  0  0
   -4.3483    2.8776    0.5456 N   0  0  0  0  0  0  0  0  0  0  0  0
   -4.6886    1.9351   -0.3775 C   0  0  0  0  0  0  0  0  0  0  0  0
   -5.8731    1.7911   -0.6762 O   0  0  0  0  0  0  0  0  0  0  0  0
   -3.6584    1.1986   -0.9208 N   0  0  0  0  0  0  0  0  0  0  0  0
   -3.9931    0.2190   -1.9439 C   0  0  0  0  0  0  0  0  0  0  0  0
   -4.3705   -1.0584   -1.2756 C   0  0  0  0  0  0  0  0  0  0  0  0
   -5.5814   -1.6577   -0.9942 C   0  0  0  0  0  0  0  0  0  0  0  0
   -5.2816   -2.8682   -0.3246 C   0  0  0  0  0  0  0  0  0  0  0  0
   -3.9109   -2.9290   -0.2373 C   0  0  0  0  0  0  0  0  0  0  0  0
   -3.3491   -1.8328   -0.8076 O   0  0  0  0  0  0  0  0  0  0  0  0
   -2.3191    1.3801   -0.6114 C   0  0  0  0  0  0  0  0  0  0  0  0
   -1.4089    0.9722   -1.3264 O   0  0  0  0  0  0  0  0  0  0  0  0
    0.3697    0.0404    0.9588 C   0  0  0  0  0  0  0  0  0  0  0  0
    1.5769   -0.6378    0.7228 C   0  0  0  0  0  0  0  0  0  0  0  0
    6.9436    0.9434    0.9268 H   0  0  0  0  0  0  0  0  0  0  0  0
    6.2667   -0.4447    1.7954 H   0  0  0  0  0  0  0  0  0  0  0  0
    5.4389    1.1152    1.8454 H   0  0  0  0  0  0  0  0  0  0  0  0
    5.8679   -0.5995   -0.6596 H   0  0  0  0  0  0  0  0  0  0  0  0
    5.0442    0.9291   -0.6785 H   0  0  0  0  0  0  0  0  0  0  0  0
    5.0968   -2.4177    0.6040 H   0  0  0  0  0  0  0  0  0  0  0  0
    3.4456   -2.5401    1.1267 H   0  0  0  0  0  0  0  0  0  0  0  0
    4.4139   -2.3485   -1.7939 H   0  0  0  0  0  0  0  0  0  0  0  0
    2.7146   -2.4702   -1.3268 H   0  0  0  0  0  0  0  0  0  0  0  0
    3.8234   -3.8067   -0.9793 H   0  0  0  0  0  0  0  0  0  0  0  0
    3.6248    2.0405    0.4885 H   0  0  0  0  0  0  0  0  0  0  0  0
    1.5552    3.2103    0.8835 H   0  0  0  0  0  0  0  0  0  0  0  0
   -0.7946    2.7931    2.1933 H   0  0  0  0  0  0  0  0  0  0  0  0
   -5.1228    3.3689    0.9694 H   0  0  0  0  0  0  0  0  0  0  0  0
   -3.1502    0.0466   -2.6215 H   0  0  0  0  0  0  0  0  0  0  0  0
   -4.8283    0.5850   -2.5522 H   0  0  0  0  0  0  0  0  0  0  0  0
   -6.5582   -1.2611   -1.2374 H   0  0  0  0  0  0  0  0  0  0  0  0
   -5.9778   -3.6050    0.0506 H   0  0  0  0  0  0  0  0  0  0  0  0
   -3.2172   -3.6462    0.1790 H   0  0  0  0  0  0  0  0  0  0  0  0
   -0.5378   -0.5426    1.0936 H   0  0  0  0  0  0  0  0  0  0  0  0
    1.5174   -1.7204    0.6783 H   0  0  0  0  0  0  0  0  0  0  0  0
  1  2  1  0
  2  3  1  0
  3  4  1  0
  4  5  1  0
  3  6  1  0
  6  7  2  0
  7  8  1  0
  8  9  2  0
  9 10  1  0
 10 11  2  3
 11 12  1  0
 12 13  2  0
 12 14  1  0
 14 15  1  0
 15 16  2  0
 15 17  1  0
 17 18  1  0
 18 19  1  0
 19 20  2  0
 20 21  1  0
 21 22  2  0
 22 23  1  0
 17 24  1  0
 24 25  2  0
  9 26  1  0
 26 27  2  0
 27  6  1  0
 24 11  1  0
 23 19  1  0
  1 28  1  0
  1 29  1  0
  1 30  1  0
  2 31  1  0
  2 32  1  0
  4 33  1  0
  4 34  1  0
  5 35  1  0
  5 36  1  0
  5 37  1  0
  7 38  1  0
  8 39  1  0
 10 40  1  0
 14 41  1  0
 18 42  1  0
 18 43  1  0
 20 44  1  0
 21 45  1  0
 22 46  1  0
 26 47  1  0
 27 48  1  0
M  END
$$$$
