
     RDKit          3D

 73 76  0  0  0  0  0  0  0  0999 V2000
    6.1286   -1.9086    0.4170 C   0  0  0  0  0  0  0  0  0  0  0  0
    6.3605   -0.5215    1.0175 C   0  0  0  0  0  0  0  0  0  0  0  0
    7.2305    0.3543    0.1066 C   0  0  0  0  0  0  0  0  0  0  0  0
    6.4252    0.9673   -1.0474 C   0  0  0  0  0  0  0  0  0  0  0  0
    7.2992    1.9278   -1.8545 C   0  0  0  0  0  0  0  0  0  0  0  0
    5.1833    1.6962   -0.5065 C   0  0  0  0  0  0  0  0  0  0  0  0
    4.3068    0.8537    0.3210 N   0  0  0  0  0  0  0  0  0  0  0  0
    3.4519   -0.0218   -0.4875 C   0  0  0  0  0  0  0  0  0  0  0  0
    2.3626   -0.7666    0.2943 C   0  0  0  0  0  0  0  0  0  0  0  0
    1.4272    0.1802    1.0430 C   0  0  0  0  0  0  0  0  0  0  0  0
    0.4119   -0.5466    1.7835 N   0  0  0  0  0  0  0  0  0  0  0  0
   -0.7079   -1.0676    1.1623 C   0  0  0  0  0  0  0  0  0  0  0  0
   -0.9686   -0.8683   -0.0224 O   0  0  0  0  0  0  0  0  0  0  0  0
   -1.6257   -1.8499    2.1111 C   0  0  0  0  0  0  0  0  0  0  0  0
   -2.5124   -2.7589    1.3835 N   0  0  0  0  0  0  0  0  0  0  0  0
   -1.9905   -4.0217    1.0969 C   0  0  0  0  0  0  0  0  0  0  0  0
   -0.8826   -4.3806    1.5113 O   0  0  0  0  0  0  0  0  0  0  0  0
   -2.7612   -4.9150    0.1521 C   0  0  0  0  0  0  0  0  0  0  0  0
   -4.4999   -5.0122    0.5926 S   0  0  0  0  0  0  0  0  0  0  0  0
   -4.8081   -3.2590    0.5943 C   0  0  0  0  0  0  0  0  0  0  0  0
   -6.0994   -2.8337    0.2394 C   0  0  0  0  0  0  0  0  0  0  0  0
   -6.4224   -1.4798    0.2317 C   0  0  0  0  0  0  0  0  0  0  0  0
   -5.4464   -0.5551    0.5887 C   0  0  0  0  0  0  0  0  0  0  0  0
   -5.8084    1.1832    0.5607 S   0  0  0  0  0  6  0  0  0  0  0  0
   -7.0919    1.3751   -0.0816 O   0  0  0  0  0  0  0  0  0  0  0  0
   -5.5476    1.6839    1.8934 O   0  0  0  0  0  0  0  0  0  0  0  0
   -4.6147    1.7961   -0.4906 N   0  0  0  0  0  0  0  0  0  0  0  0
   -4.6498    1.3039   -1.8976 C   0  0  0  0  0  0  0  0  0  0  0  0
   -5.0463    2.4068   -2.8695 C   0  0  0  0  0  0  0  0  0  0  0  0
   -4.0691    3.5793   -2.8218 C   0  0  0  0  0  0  0  0  0  0  0  0
   -3.4506    3.7633   -1.4371 C   0  0  0  0  0  0  0  0  0  0  0  0
   -4.3815    3.2583   -0.3417 C   0  0  0  0  0  0  0  0  0  0  0  0
   -4.1614   -0.9675    0.9663 C   0  0  0  0  0  0  0  0  0  0  0  0
   -3.8183   -2.3282    0.9738 C   0  0  0  0  0  0  0  0  0  0  0  0
    5.0622    0.2127    1.4037 C   0  0  0  0  0  0  0  0  0  0  0  0
    7.0708   -2.4681    0.3937 H   0  0  0  0  0  0  0  0  0  0  0  0
    5.7585   -1.8730   -0.6090 H   0  0  0  0  0  0  0  0  0  0  0  0
    5.4205   -2.4842    1.0222 H   0  0  0  0  0  0  0  0  0  0  0  0
    6.9219   -0.6852    1.9478 H   0  0  0  0  0  0  0  0  0  0  0  0
    8.0771   -0.2240   -0.2844 H   0  0  0  0  0  0  0  0  0  0  0  0
    7.6618    1.1625    0.7131 H   0  0  0  0  0  0  0  0  0  0  0  0
    6.1063    0.1679   -1.7264 H   0  0  0  0  0  0  0  0  0  0  0  0
    6.7381    2.3510   -2.6940 H   0  0  0  0  0  0  0  0  0  0  0  0
    7.6580    2.7563   -1.2356 H   0  0  0  0  0  0  0  0  0  0  0  0
    8.1721    1.4073   -2.2621 H   0  0  0  0  0  0  0  0  0  0  0  0
    5.5041    2.5513    0.1045 H   0  0  0  0  0  0  0  0  0  0  0  0
    4.6139    2.1360   -1.3355 H   0  0  0  0  0  0  0  0  0  0  0  0
    2.9350    0.5928   -1.2371 H   0  0  0  0  0  0  0  0  0  0  0  0
    4.0364   -0.7494   -1.0561 H   0  0  0  0  0  0  0  0  0  0  0  0
    1.7793   -1.3643   -0.4178 H   0  0  0  0  0  0  0  0  0  0  0  0
    2.8045   -1.4904    0.9883 H   0  0  0  0  0  0  0  0  0  0  0  0
    0.9313    0.8609    0.3422 H   0  0  0  0  0  0  0  0  0  0  0  0
    1.9742    0.7806    1.7758 H   0  0  0  0  0  0  0  0  0  0  0  0
    0.6610   -0.8846    2.7049 H   0  0  0  0  0  0  0  0  0  0  0  0
   -1.0019   -2.4276    2.8036 H   0  0  0  0  0  0  0  0  0  0  0  0
   -2.1984   -1.1516    2.7301 H   0  0  0  0  0  0  0  0  0  0  0  0
   -2.6416   -4.5383   -0.8692 H   0  0  0  0  0  0  0  0  0  0  0  0
   -2.3390   -5.9238    0.1953 H   0  0  0  0  0  0  0  0  0  0  0  0
   -6.8623   -3.5600   -0.0369 H   0  0  0  0  0  0  0  0  0  0  0  0
   -7.4232   -1.1611   -0.0522 H   0  0  0  0  0  0  0  0  0  0  0  0
   -5.3427    0.4638   -2.0088 H   0  0  0  0  0  0  0  0  0  0  0  0
   -3.6532    0.9164   -2.1429 H   0  0  0  0  0  0  0  0  0  0  0  0
   -5.0997    2.0134   -3.8912 H   0  0  0  0  0  0  0  0  0  0  0  0
   -6.0533    2.7659   -2.6187 H   0  0  0  0  0  0  0  0  0  0  0  0
   -3.2659    3.4317   -3.5541 H   0  0  0  0  0  0  0  0  0  0  0  0
   -4.5971    4.4926   -3.1224 H   0  0  0  0  0  0  0  0  0  0  0  0
   -3.2105    4.8206   -1.2778 H   0  0  0  0  0  0  0  0  0  0  0  0
   -2.5017    3.2133   -1.3909 H   0  0  0  0  0  0  0  0  0  0  0  0
   -5.3328    3.8020   -0.3757 H   0  0  0  0  0  0  0  0  0  0  0  0
   -3.9135    3.4423    0.6318 H   0  0  0  0  0  0  0  0  0  0  0  0
   -3.4391   -0.1936    1.2130 H   0  0  0  0  0  0  0  0  0  0  0  0
    5.3419    1.0155    2.1010 H   0  0  0  0  0  0  0  0  0  0  0  0
    4.4239   -0.4444    2.0040 H   0  0  0  0  0  0  0  0  0  0  0  0
  1  2  1  0
  2  3  1  0
  3  4  1  0
  4  5  1  0
  4  6  1  0
  6  7  1  0
  7  8  1  0
  8  9  1  0
  9 10  1  0
 10 11  1  0
 11 12  1  0
 12 13  2  0
 12 14  1  0
 14 15  1  0
 15 16  1  0
 16 17  2  0
 16 18  1  0
 18 19  1  0
 19 20  1  0
 20 21  2  0
 21 22  1  0
 22 23  2  0
 23 24  1  0
 24 25  2  0
 24 26  2  0
 24 27  1  0
 27 28  1  0
 28 29  1  0
 29 30  1  0
 30 31  1  0
 31 32  1  0
 23 33  1  0
 33 34  2  0
  7 35  1  0
 35  2  1  0
 34 15  1  0
 34 20  1  0
 32 27  1  0
  1 36  1  0
  1 37  1  0
  1 38  1  0
  2 39  1  0
  3 40  1  0
  3 41  1  0
  4 42  1  0
  5 43  1  0
  5 44  1  0
  5 45  1  0
  6 46  1  0
  6 47  1  0
  8 48  1  0
  8 49  1  0
  9 50  1  0
  9 51  1  0
 10 52  1  0
 10 53  1  0
 11 54  1  0
 14 55  1  0
 14 56  1  0
 18 57  1  0
 18 58  1  0
 21 59  1  0
 22 60  1  0
 28 61  1  0
 28 62  1  0
 29 63  1  0
 29 64  1  0
 30 65  1  0
 30 66  1  0
 31 67  1  0
 31 68  1  0
 32 69  1  0
 32 70  1  0
 33 71  1  0
 35 72  1  0
 35 73  1  0
M  END
$$$$
