
     RDKit          3D

 41 42  0  0  0  0  0  0  0  0999 V2000
   -6.3212   -1.6521   -0.6280 C   0  0  0  0  0  0  0  0  0  0  0  0
   -5.4919   -1.8381    0.5121 O   0  0  0  0  0  0  0  0  0  0  0  0
   -4.6884   -0.7911    0.8695 C   0  0  0  0  0  0  0  0  0  0  0  0
   -3.9514   -0.9934    2.0382 C   0  0  0  0  0  0  0  0  0  0  0  0
   -3.0887   -0.0062    2.5193 C   0  0  0  0  0  0  0  0  0  0  0  0
   -2.9506    1.2048    1.8312 C   0  0  0  0  0  0  0  0  0  0  0  0
   -1.9889    2.2611    2.3277 C   0  0  0  0  0  0  0  0  0  0  0  0
   -0.5306    1.9612    2.0576 C   0  0  0  0  0  0  0  0  0  0  0  0
    0.3695    2.3139    2.8144 O   0  0  0  0  0  0  0  0  0  0  0  0
   -0.3918    1.3124    0.8569 O   0  0  0  0  0  0  0  0  0  0  0  0
    0.9658    1.0906    0.5671 N   0  0  0  0  0  0  0  0  0  0  0  0
    1.0995    0.3146   -0.4685 C   0  0  0  0  0  0  0  0  0  0  0  0
    0.0282   -0.2266   -1.1472 N   0  0  0  0  0  0  0  0  0  0  0  0
    2.4896   -0.0141   -0.9230 C   0  0  0  0  0  0  0  0  0  0  0  0
    2.7252   -0.4946   -2.2149 C   0  0  0  0  0  0  0  0  0  0  0  0
    4.0292   -0.7958   -2.6199 C   0  0  0  0  0  0  0  0  0  0  0  0
    5.1084   -0.6182   -1.7493 C   0  0  0  0  0  0  0  0  0  0  0  0
    6.3266   -0.9497   -2.2760 O   0  0  0  0  0  0  0  0  0  0  0  0
    7.4590   -0.7746   -1.4326 C   0  0  0  0  0  0  0  0  0  0  0  0
    4.8745   -0.1312   -0.4635 C   0  0  0  0  0  0  0  0  0  0  0  0
    3.5707    0.1726   -0.0527 C   0  0  0  0  0  0  0  0  0  0  0  0
   -3.6870    1.4044    0.6559 C   0  0  0  0  0  0  0  0  0  0  0  0
   -4.5513    0.4125    0.1786 C   0  0  0  0  0  0  0  0  0  0  0  0
   -6.9245   -2.5565   -0.7535 H   0  0  0  0  0  0  0  0  0  0  0  0
   -7.0080   -0.8109   -0.4859 H   0  0  0  0  0  0  0  0  0  0  0  0
   -5.7206   -1.5235   -1.5343 H   0  0  0  0  0  0  0  0  0  0  0  0
   -4.0517   -1.9307    2.5809 H   0  0  0  0  0  0  0  0  0  0  0  0
   -2.5266   -0.1942    3.4322 H   0  0  0  0  0  0  0  0  0  0  0  0
   -2.2201    3.2334    1.8772 H   0  0  0  0  0  0  0  0  0  0  0  0
   -2.1231    2.3700    3.4111 H   0  0  0  0  0  0  0  0  0  0  0  0
   -0.8347   -0.1403   -0.6169 H   0  0  0  0  0  0  0  0  0  0  0  0
    0.1645   -1.1772   -1.4736 H   0  0  0  0  0  0  0  0  0  0  0  0
    1.9128   -0.6173   -2.9247 H   0  0  0  0  0  0  0  0  0  0  0  0
    4.2084   -1.1662   -3.6270 H   0  0  0  0  0  0  0  0  0  0  0  0
    7.5815    0.2756   -1.1474 H   0  0  0  0  0  0  0  0  0  0  0  0
    7.3966   -1.4204   -0.5507 H   0  0  0  0  0  0  0  0  0  0  0  0
    8.3470   -1.0709   -1.9992 H   0  0  0  0  0  0  0  0  0  0  0  0
    5.6795    0.0292    0.2464 H   0  0  0  0  0  0  0  0  0  0  0  0
    3.4063    0.5568    0.9525 H   0  0  0  0  0  0  0  0  0  0  0  0
   -3.5919    2.3331    0.0957 H   0  0  0  0  0  0  0  0  0  0  0  0
   -5.0999    0.6123   -0.7360 H   0  0  0  0  0  0  0  0  0  0  0  0
  1  2  1  0
  2  3  1  0
  3  4  2  0
  4  5  1  0
  5  6  2  0
  6  7  1  0
  7  8  1  0
  8  9  2  0
  8 10  1  0
 10 11  1  0
 11 12  2  3
 12 13  1  0
 12 14  1  0
 14 15  2  0
 15 16  1  0
 16 17  2  0
 17 18  1  0
 18 19  1  0
 17 20  1  0
 20 21  2  0
  6 22  1  0
 22 23  2  0
 23  3  1  0
 21 14  1  0
  1 24  1  0
  1 25  1  0
  1 26  1  0
  4 27  1  0
  5 28  1  0
  7 29  1  0
  7 30  1  0
 13 31  1  0
 13 32  1  0
 15 33  1  0
 16 34  1  0
 19 35  1  0
 19 36  1  0
 19 37  1  0
 20 38  1  0
 21 39  1  0
 22 40  1  0
 23 41  1  0
M  END
$$$$
