
     RDKit          3D

 43 46  0  0  0  0  0  0  0  0999 V2000
    2.5430    0.9522   -2.2916 O   0  0  0  0  0  0  0  0  0  0  0  0
    2.5674    0.1894   -1.3258 C   0  0  0  0  0  0  0  0  0  0  0  0
    3.4710    0.5005   -0.2048 C   0  0  0  0  0  0  0  0  0  0  0  0
    4.2551    1.6595   -0.2044 C   0  0  0  0  0  0  0  0  0  0  0  0
    5.0994    1.9239    0.8749 C   0  0  0  0  0  0  0  0  0  0  0  0
    5.1590    1.0326    1.9475 C   0  0  0  0  0  0  0  0  0  0  0  0
    4.3759   -0.1241    1.9432 C   0  0  0  0  0  0  0  0  0  0  0  0
    3.5330   -0.3831    0.8619 C   0  0  0  0  0  0  0  0  0  0  0  0
    2.7556   -1.5366    0.8460 N   0  0  0  0  0  0  0  0  0  0  0  0
    1.8914   -1.8704   -0.1631 C   0  0  0  0  0  0  0  0  0  0  0  0
    1.0990   -3.3390    0.0234 S   0  0  0  0  0  0  0  0  0  0  0  0
    1.7901   -0.9764   -1.2274 N   0  0  0  0  0  0  0  0  0  0  0  0
    0.8367   -1.1738   -2.3353 C   0  0  0  0  0  0  0  0  0  0  0  0
   -0.3600   -0.1919   -2.2842 C   0  0  0  0  0  0  0  0  0  0  0  0
   -1.1755   -0.3077   -1.0601 N   0  0  0  0  0  0  0  0  0  0  0  0
   -2.1307   -1.4255   -1.1448 C   0  0  0  0  0  0  0  0  0  0  0  0
   -2.8163   -1.6507    0.2098 C   0  0  0  0  0  0  0  0  0  0  0  0
   -3.3640   -0.3748    0.7968 C   0  0  0  0  0  0  0  0  0  0  0  0
   -4.2910   -0.4219    1.8463 C   0  0  0  0  0  0  0  0  0  0  0  0
   -4.7733    0.7574    2.4127 C   0  0  0  0  0  0  0  0  0  0  0  0
   -4.3289    1.9901    1.9400 C   0  0  0  0  0  0  0  0  0  0  0  0
   -3.3976    2.0456    0.9025 C   0  0  0  0  0  0  0  0  0  0  0  0
   -2.8972    0.8666    0.3304 C   0  0  0  0  0  0  0  0  0  0  0  0
   -1.9184    0.9463   -0.8228 C   0  0  0  0  0  0  0  0  0  0  0  0
    4.2084    2.3546   -1.0398 H   0  0  0  0  0  0  0  0  0  0  0  0
    5.7094    2.8242    0.8793 H   0  0  0  0  0  0  0  0  0  0  0  0
    5.8168    1.2400    2.7884 H   0  0  0  0  0  0  0  0  0  0  0  0
    4.4327   -0.8088    2.7848 H   0  0  0  0  0  0  0  0  0  0  0  0
    2.8082   -2.1870    1.6217 H   0  0  0  0  0  0  0  0  0  0  0  0
    0.4771   -2.2040   -2.3806 H   0  0  0  0  0  0  0  0  0  0  0  0
    1.3772   -1.0053   -3.2758 H   0  0  0  0  0  0  0  0  0  0  0  0
   -0.9815   -0.3307   -3.1785 H   0  0  0  0  0  0  0  0  0  0  0  0
    0.0396    0.8270   -2.3536 H   0  0  0  0  0  0  0  0  0  0  0  0
   -2.8862   -1.2284   -1.9181 H   0  0  0  0  0  0  0  0  0  0  0  0
   -1.6288   -2.3562   -1.4281 H   0  0  0  0  0  0  0  0  0  0  0  0
   -2.0972   -2.0733    0.9222 H   0  0  0  0  0  0  0  0  0  0  0  0
   -3.6269   -2.3773    0.0786 H   0  0  0  0  0  0  0  0  0  0  0  0
   -4.6381   -1.3792    2.2277 H   0  0  0  0  0  0  0  0  0  0  0  0
   -5.4940    0.7142    3.2248 H   0  0  0  0  0  0  0  0  0  0  0  0
   -4.7062    2.9089    2.3807 H   0  0  0  0  0  0  0  0  0  0  0  0
   -3.0604    3.0146    0.5421 H   0  0  0  0  0  0  0  0  0  0  0  0
   -1.1936    1.7398   -0.6009 H   0  0  0  0  0  0  0  0  0  0  0  0
   -2.4801    1.2386   -1.7204 H   0  0  0  0  0  0  0  0  0  0  0  0
  1  2  2  0
  2  3  1  0
  3  4  2  0
  4  5  1  0
  5  6  2  0
  6  7  1  0
  7  8  2  0
  8  9  1  0
  9 10  1  0
 10 11  2  0
 10 12  1  0
 12 13  1  0
 13 14  1  0
 14 15  1  0
 15 16  1  0
 16 17  1  0
 17 18  1  0
 18 19  2  0
 19 20  1  0
 20 21  2  0
 21 22  1  0
 22 23  2  0
 23 24  1  0
 12  2  1  0
 24 15  1  0
  8  3  1  0
 23 18  1  0
  4 25  1  0
  5 26  1  0
  6 27  1  0
  7 28  1  0
  9 29  1  0
 13 30  1  0
 13 31  1  0
 14 32  1  0
 14 33  1  0
 16 34  1  0
 16 35  1  0
 17 36  1  0
 17 37  1  0
 19 38  1  0
 20 39  1  0
 21 40  1  0
 22 41  1  0
 24 42  1  0
 24 43  1  0
M  END
$$$$
