
     RDKit          3D

 56 59  0  0  0  0  0  0  0  0999 V2000
   -3.2676    3.8967   -1.6853 C   0  0  0  0  0  0  0  0  0  0  0  0
   -2.9929    2.9303   -0.6790 O   0  0  0  0  0  0  0  0  0  0  0  0
   -2.9512    1.6152   -1.0567 C   0  0  0  0  0  0  0  0  0  0  0  0
   -3.1923    1.1533   -2.3530 C   0  0  0  0  0  0  0  0  0  0  0  0
   -3.1205   -0.2127   -2.6446 C   0  0  0  0  0  0  0  0  0  0  0  0
   -2.8095   -1.1391   -1.6453 C   0  0  0  0  0  0  0  0  0  0  0  0
   -2.7382   -2.5855   -2.0095 C   0  0  0  0  0  0  0  0  0  0  0  0
   -2.2648   -3.5766   -0.9786 C   0  0  0  0  0  0  0  0  0  0  0  0
   -3.0647   -2.9478   -3.1378 O   0  0  0  0  0  0  0  0  0  0  0  0
   -2.5769   -0.6824   -0.3450 C   0  0  0  0  0  0  0  0  0  0  0  0
   -2.6395    0.6933   -0.0391 C   0  0  0  0  0  0  0  0  0  0  0  0
   -2.3422    1.1443    1.3762 C   0  0  0  0  0  0  0  0  0  0  0  0
   -0.6730    1.8307    1.5822 S   0  0  0  0  0  0  0  0  0  0  0  0
    0.2678    0.4543    1.0547 C   0  0  0  0  0  0  0  0  0  0  0  0
    0.1362   -0.6264    1.7543 N   0  0  0  0  0  0  0  0  0  0  0  0
    0.8546   -1.7609    1.3763 C   0  0  0  0  0  0  0  0  0  0  0  0
    0.7301   -2.9224    2.1435 C   0  0  0  0  0  0  0  0  0  0  0  0
    1.4199   -4.0885    1.7849 C   0  0  0  0  0  0  0  0  0  0  0  0
    1.3102   -5.3390    2.5731 C   0  0  0  0  0  0  0  0  0  0  0  0
    1.9130   -6.3725    2.3534 O   0  0  0  0  0  0  0  0  0  0  0  0
    0.4403   -5.2369    3.5924 O   0  0  0  0  0  0  0  0  0  0  0  0
    2.2404   -4.0891    0.6497 C   0  0  0  0  0  0  0  0  0  0  0  0
    2.3677   -2.9317   -0.1194 C   0  0  0  0  0  0  0  0  0  0  0  0
    1.6728   -1.7749    0.2522 C   0  0  0  0  0  0  0  0  0  0  0  0
    1.7762   -0.5349   -0.5351 C   0  0  0  0  0  0  0  0  0  0  0  0
    2.4575   -0.5476   -1.5577 O   0  0  0  0  0  0  0  0  0  0  0  0
    1.0730    0.5720   -0.0659 N   0  0  0  0  0  0  0  0  0  0  0  0
    1.2116    1.8077   -0.8468 C   0  0  0  0  0  0  0  0  0  0  0  0
    2.2783    2.7357   -0.3004 C   0  0  0  0  0  0  0  0  0  0  0  0
    3.6366    2.3917   -0.3795 C   0  0  0  0  0  0  0  0  0  0  0  0
    4.6192    3.2466    0.1235 C   0  0  0  0  0  0  0  0  0  0  0  0
    4.2579    4.4579    0.7077 C   0  0  0  0  0  0  0  0  0  0  0  0
    2.9146    4.8174    0.7849 C   0  0  0  0  0  0  0  0  0  0  0  0
    1.9307    3.9640    0.2809 C   0  0  0  0  0  0  0  0  0  0  0  0
   -3.2406    4.8848   -1.2156 H   0  0  0  0  0  0  0  0  0  0  0  0
   -4.2686    3.7546   -2.1049 H   0  0  0  0  0  0  0  0  0  0  0  0
   -2.5024    3.8798   -2.4682 H   0  0  0  0  0  0  0  0  0  0  0  0
   -3.4409    1.8274   -3.1668 H   0  0  0  0  0  0  0  0  0  0  0  0
   -3.3103   -0.5491   -3.6631 H   0  0  0  0  0  0  0  0  0  0  0  0
   -1.2795   -3.2927   -0.6021 H   0  0  0  0  0  0  0  0  0  0  0  0
   -2.1723   -4.5626   -1.4443 H   0  0  0  0  0  0  0  0  0  0  0  0
   -2.9889   -3.6484   -0.1635 H   0  0  0  0  0  0  0  0  0  0  0  0
   -2.3403   -1.3820    0.4536 H   0  0  0  0  0  0  0  0  0  0  0  0
   -2.4774    0.3140    2.0790 H   0  0  0  0  0  0  0  0  0  0  0  0
   -3.0709    1.9046    1.6798 H   0  0  0  0  0  0  0  0  0  0  0  0
    0.0918   -2.9042    3.0239 H   0  0  0  0  0  0  0  0  0  0  0  0
    0.4700   -6.1188    4.0202 H   0  0  0  0  0  0  0  0  0  0  0  0
    2.7820   -4.9891    0.3617 H   0  0  0  0  0  0  0  0  0  0  0  0
    3.0051   -2.9337   -1.0015 H   0  0  0  0  0  0  0  0  0  0  0  0
    1.4668    1.5723   -1.8877 H   0  0  0  0  0  0  0  0  0  0  0  0
    0.2481    2.3244   -0.9066 H   0  0  0  0  0  0  0  0  0  0  0  0
    3.9431    1.4556   -0.8420 H   0  0  0  0  0  0  0  0  0  0  0  0
    5.6673    2.9663    0.0561 H   0  0  0  0  0  0  0  0  0  0  0  0
    5.0232    5.1225    1.0998 H   0  0  0  0  0  0  0  0  0  0  0  0
    2.6309    5.7633    1.2389 H   0  0  0  0  0  0  0  0  0  0  0  0
    0.8885    4.2688    0.3502 H   0  0  0  0  0  0  0  0  0  0  0  0
  1  2  1  0
  2  3  1  0
  3  4  2  0
  4  5  1  0
  5  6  2  0
  6  7  1  0
  7  8  1  0
  7  9  2  0
  6 10  1  0
 10 11  2  0
 11 12  1  0
 12 13  1  0
 13 14  1  0
 14 15  2  0
 15 16  1  0
 16 17  2  0
 17 18  1  0
 18 19  1  0
 19 20  2  0
 19 21  1  0
 18 22  2  0
 22 23  1  0
 23 24  2  0
 24 25  1  0
 25 26  2  0
 25 27  1  0
 27 28  1  0
 28 29  1  0
 29 30  2  0
 30 31  1  0
 31 32  2  0
 32 33  1  0
 33 34  2  0
 11  3  1  0
 27 14  1  0
 34 29  1  0
 24 16  1  0
  1 35  1  0
  1 36  1  0
  1 37  1  0
  4 38  1  0
  5 39  1  0
  8 40  1  0
  8 41  1  0
  8 42  1  0
 10 43  1  0
 12 44  1  0
 12 45  1  0
 17 46  1  0
 21 47  1  0
 22 48  1  0
 23 49  1  0
 28 50  1  0
 28 51  1  0
 30 52  1  0
 31 53  1  0
 32 54  1  0
 33 55  1  0
 34 56  1  0
M  END
$$$$
