
     RDKit          3D

 43 45  0  0  0  0  0  0  0  0999 V2000
    5.7710    2.9207    0.9855 C   0  0  0  0  0  0  0  0  0  0  0  0
    6.0003    2.2727   -0.2587 O   0  0  0  0  0  0  0  0  0  0  0  0
    5.0658    1.3608   -0.6674 C   0  0  0  0  0  0  0  0  0  0  0  0
    5.3700    0.7159   -1.8663 C   0  0  0  0  0  0  0  0  0  0  0  0
    4.4955   -0.2276   -2.4010 C   0  0  0  0  0  0  0  0  0  0  0  0
    3.3106   -0.5402   -1.7325 C   0  0  0  0  0  0  0  0  0  0  0  0
    3.0015    0.0755   -0.5191 C   0  0  0  0  0  0  0  0  0  0  0  0
    1.8044   -0.1590    0.1936 N   0  0  0  0  0  0  0  0  0  0  0  0
    0.9487   -1.2548    0.2091 C   0  0  0  0  0  0  0  0  0  0  0  0
    1.3949   -2.8250   -0.1966 S   0  0  0  0  0  0  0  0  0  0  0  0
   -0.3296   -0.9020    0.7135 N   0  0  0  0  0  0  0  0  0  0  0  0
   -1.3440   -1.9402    1.0070 C   0  0  0  0  0  0  0  0  0  0  0  0
   -2.4312   -1.4529    1.9848 C   0  0  0  0  0  0  0  0  0  0  0  0
   -3.0538   -0.1924    1.5325 N   0  0  0  0  0  0  0  0  0  0  0  0
   -4.0260   -0.3323    0.5299 C   0  0  0  0  0  0  0  0  0  0  0  0
   -5.1361   -1.1532    0.7423 C   0  0  0  0  0  0  0  0  0  0  0  0
   -6.1093   -1.2879   -0.2476 C   0  0  0  0  0  0  0  0  0  0  0  0
   -5.9655   -0.5902   -1.4351 C   0  0  0  0  0  0  0  0  0  0  0  0
   -4.8558    0.2202   -1.5712 C   0  0  0  0  0  0  0  0  0  0  0  0
   -3.9032    0.3638   -0.6216 N   0  0  0  0  0  0  0  0  0  0  0  0
   -2.0488    0.8592    1.2763 C   0  0  0  0  0  0  0  0  0  0  0  0
   -0.9357    0.3936    0.3166 C   0  0  0  0  0  0  0  0  0  0  0  0
    3.8766    1.0458   -0.0036 C   0  0  0  0  0  0  0  0  0  0  0  0
    4.8637    3.5326    0.9494 H   0  0  0  0  0  0  0  0  0  0  0  0
    6.6159    3.5897    1.1750 H   0  0  0  0  0  0  0  0  0  0  0  0
    5.7284    2.1973    1.8066 H   0  0  0  0  0  0  0  0  0  0  0  0
    6.2915    0.9560   -2.3909 H   0  0  0  0  0  0  0  0  0  0  0  0
    4.7306   -0.7145   -3.3438 H   0  0  0  0  0  0  0  0  0  0  0  0
    2.6318   -1.2441   -2.2026 H   0  0  0  0  0  0  0  0  0  0  0  0
    1.6335    0.4694    0.9672 H   0  0  0  0  0  0  0  0  0  0  0  0
   -1.7915   -2.2438    0.0527 H   0  0  0  0  0  0  0  0  0  0  0  0
   -0.8616   -2.8163    1.4513 H   0  0  0  0  0  0  0  0  0  0  0  0
   -1.9642   -1.2608    2.9597 H   0  0  0  0  0  0  0  0  0  0  0  0
   -3.1635   -2.2491    2.1564 H   0  0  0  0  0  0  0  0  0  0  0  0
   -5.2677   -1.6693    1.6870 H   0  0  0  0  0  0  0  0  0  0  0  0
   -6.9734   -1.9242   -0.0819 H   0  0  0  0  0  0  0  0  0  0  0  0
   -6.7009   -0.6664   -2.2273 H   0  0  0  0  0  0  0  0  0  0  0  0
   -4.6941    0.7989   -2.4759 H   0  0  0  0  0  0  0  0  0  0  0  0
   -2.5112    1.7875    0.9183 H   0  0  0  0  0  0  0  0  0  0  0  0
   -1.5869    1.1122    2.2398 H   0  0  0  0  0  0  0  0  0  0  0  0
   -0.1814    1.1824    0.2519 H   0  0  0  0  0  0  0  0  0  0  0  0
   -1.3202    0.2537   -0.7002 H   0  0  0  0  0  0  0  0  0  0  0  0
    3.6210    1.5384    0.9275 H   0  0  0  0  0  0  0  0  0  0  0  0
  1  2  1  0
  2  3  1  0
  3  4  2  0
  4  5  1  0
  5  6  2  0
  6  7  1  0
  7  8  1  0
  8  9  1  0
  9 10  2  0
  9 11  1  0
 11 12  1  0
 12 13  1  0
 13 14  1  0
 14 15  1  0
 15 16  2  0
 16 17  1  0
 17 18  2  0
 18 19  1  0
 19 20  2  0
 14 21  1  0
 21 22  1  0
  7 23  2  0
 23  3  1  0
 22 11  1  0
 20 15  1  0
  1 24  1  0
  1 25  1  0
  1 26  1  0
  4 27  1  0
  5 28  1  0
  6 29  1  0
  8 30  1  0
 12 31  1  0
 12 32  1  0
 13 33  1  0
 13 34  1  0
 16 35  1  0
 17 36  1  0
 18 37  1  0
 19 38  1  0
 21 39  1  0
 21 40  1  0
 22 41  1  0
 22 42  1  0
 23 43  1  0
M  END
$$$$
