
     RDKit          3D

 53 56  0  0  0  0  0  0  0  0999 V2000
    5.1112    1.1092   -0.9680 C   0  0  0  0  0  0  0  0  0  0  0  0
    4.2649    1.3014   -2.0962 O   0  0  0  0  0  0  0  0  0  0  0  0
    3.7778    0.0674   -2.6345 C   0  0  0  0  0  0  0  0  0  0  0  0
    2.2579   -0.0283   -2.5035 C   0  0  0  0  0  0  0  0  0  0  0  0
    1.8307   -0.4672   -1.1752 N   0  0  0  0  0  0  0  0  0  0  0  0
    1.6494   -1.7877   -0.8119 C   0  0  0  0  0  0  0  0  0  0  0  0
    1.8672   -2.9407   -1.7289 C   0  0  0  0  0  0  0  0  0  0  0  0
    1.2458   -1.8039    0.5102 C   0  0  0  0  0  0  0  0  0  0  0  0
    1.1759   -0.4640    0.9782 C   0  0  0  0  0  0  0  0  0  0  0  0
    0.8101    0.0131    2.3230 C   0  0  0  0  0  0  0  0  0  0  0  0
    1.0517    1.1711    2.6751 O   0  0  0  0  0  0  0  0  0  0  0  0
    0.1654   -0.9517    3.3047 C   0  0  0  0  0  0  0  0  0  0  0  0
   -1.4667   -1.5381    2.7475 S   0  0  0  0  0  0  0  0  0  0  0  0
   -2.2280    0.0203    2.4156 C   0  0  0  0  0  0  0  0  0  0  0  0
   -2.2315    0.9495    3.3915 N   0  0  0  0  0  0  0  0  0  0  0  0
   -2.7760    2.1499    3.1312 C   0  0  0  0  0  0  0  0  0  0  0  0
   -2.7065    3.1798    4.2179 C   0  0  0  0  0  0  0  0  0  0  0  0
   -3.3472    2.5266    1.9761 N   0  0  0  0  0  0  0  0  0  0  0  0
   -3.3321    1.5681    1.0340 C   0  0  0  0  0  0  0  0  0  0  0  0
   -4.0224    1.8630   -0.5196 S   0  0  0  0  0  0  0  0  0  0  0  0
   -3.5987    0.3275   -1.0172 C   0  0  0  0  0  0  0  0  0  0  0  0
   -2.9456   -0.4119   -0.0664 C   0  0  0  0  0  0  0  0  0  0  0  0
   -2.7901    0.2901    1.1638 C   0  0  0  0  0  0  0  0  0  0  0  0
   -2.5804   -1.7479   -0.6032 C   0  0  0  0  0  0  0  0  0  0  0  0
   -3.4375   -1.8328   -1.9074 C   0  0  0  0  0  0  0  0  0  0  0  0
   -3.7929   -0.3696   -2.3105 C   0  0  0  0  0  0  0  0  0  0  0  0
    1.5310    0.3491   -0.1001 C   0  0  0  0  0  0  0  0  0  0  0  0
    1.6073    1.8440   -0.1362 C   0  0  0  0  0  0  0  0  0  0  0  0
    5.4192    2.0889   -0.5923 H   0  0  0  0  0  0  0  0  0  0  0  0
    4.5830    0.5766   -0.1694 H   0  0  0  0  0  0  0  0  0  0  0  0
    6.0061    0.5506   -1.2596 H   0  0  0  0  0  0  0  0  0  0  0  0
    4.2812   -0.8018   -2.1922 H   0  0  0  0  0  0  0  0  0  0  0  0
    4.0299    0.0832   -3.7022 H   0  0  0  0  0  0  0  0  0  0  0  0
    1.8670   -0.7579   -3.2217 H   0  0  0  0  0  0  0  0  0  0  0  0
    1.7673    0.9229   -2.7304 H   0  0  0  0  0  0  0  0  0  0  0  0
    1.0857   -2.9766   -2.4945 H   0  0  0  0  0  0  0  0  0  0  0  0
    1.8426   -3.8860   -1.1738 H   0  0  0  0  0  0  0  0  0  0  0  0
    2.8434   -2.8748   -2.2235 H   0  0  0  0  0  0  0  0  0  0  0  0
    1.0303   -2.7043    1.0736 H   0  0  0  0  0  0  0  0  0  0  0  0
    0.0550   -0.4538    4.2740 H   0  0  0  0  0  0  0  0  0  0  0  0
    0.8305   -1.8078    3.4568 H   0  0  0  0  0  0  0  0  0  0  0  0
   -2.4253    2.7250    5.1733 H   0  0  0  0  0  0  0  0  0  0  0  0
   -1.9604    3.9382    3.9588 H   0  0  0  0  0  0  0  0  0  0  0  0
   -3.6808    3.6656    4.3408 H   0  0  0  0  0  0  0  0  0  0  0  0
   -1.5142   -1.7794   -0.8513 H   0  0  0  0  0  0  0  0  0  0  0  0
   -2.8233   -2.5700    0.0782 H   0  0  0  0  0  0  0  0  0  0  0  0
   -2.9238   -2.3704   -2.7093 H   0  0  0  0  0  0  0  0  0  0  0  0
   -4.3642   -2.3788   -1.6855 H   0  0  0  0  0  0  0  0  0  0  0  0
   -4.8190   -0.3034   -2.6896 H   0  0  0  0  0  0  0  0  0  0  0  0
   -3.0938    0.0055   -3.0676 H   0  0  0  0  0  0  0  0  0  0  0  0
    0.6841    2.2739    0.2572 H   0  0  0  0  0  0  0  0  0  0  0  0
    2.4458    2.1919    0.4803 H   0  0  0  0  0  0  0  0  0  0  0  0
    1.7429    2.2563   -1.1406 H   0  0  0  0  0  0  0  0  0  0  0  0
  1  2  1  0
  2  3  1  0
  3  4  1  0
  4  5  1  0
  5  6  1  0
  6  7  1  0
  6  8  2  0
  8  9  1  0
  9 10  1  0
 10 11  2  0
 10 12  1  0
 12 13  1  0
 13 14  1  0
 14 15  2  0
 15 16  1  0
 16 17  1  0
 16 18  2  0
 18 19  1  0
 19 20  1  0
 20 21  1  0
 21 22  2  0
 22 23  1  0
 22 24  1  0
 24 25  1  0
 25 26  1  0
  9 27  2  0
 27 28  1  0
 27  5  1  0
 23 14  1  0
 23 19  2  0
 26 21  1  0
  1 29  1  0
  1 30  1  0
  1 31  1  0
  3 32  1  0
  3 33  1  0
  4 34  1  0
  4 35  1  0
  7 36  1  0
  7 37  1  0
  7 38  1  0
  8 39  1  0
 12 40  1  0
 12 41  1  0
 17 42  1  0
 17 43  1  0
 17 44  1  0
 24 45  1  0
 24 46  1  0
 25 47  1  0
 25 48  1  0
 26 49  1  0
 26 50  1  0
 28 51  1  0
 28 52  1  0
 28 53  1  0
M  END
$$$$
