
     RDKit          3D

 49 51  0  0  0  0  0  0  0  0999 V2000
    6.8092    1.3837   -1.3697 C   0  0  0  0  0  0  0  0  0  0  0  0
    5.8684    1.9396   -0.4630 O   0  0  0  0  0  0  0  0  0  0  0  0
    4.6497    1.3179   -0.3458 C   0  0  0  0  0  0  0  0  0  0  0  0
    4.2702    0.1786   -1.0635 C   0  0  0  0  0  0  0  0  0  0  0  0
    3.0045   -0.3988   -0.8781 C   0  0  0  0  0  0  0  0  0  0  0  0
    2.0938    0.1840    0.0119 C   0  0  0  0  0  0  0  0  0  0  0  0
    2.4793    1.3248    0.7372 C   0  0  0  0  0  0  0  0  0  0  0  0
    3.7467    1.8944    0.5672 C   0  0  0  0  0  0  0  0  0  0  0  0
    4.1931    3.0078    1.2356 O   0  0  0  0  0  0  0  0  0  0  0  0
    3.3286    3.5946    2.1968 C   0  0  0  0  0  0  0  0  0  0  0  0
    0.7154   -0.3954    0.2352 C   0  0  0  0  0  0  0  0  0  0  0  0
    0.3524   -1.5167   -0.6482 N   0  0  0  0  0  0  0  0  0  0  0  0
   -0.9744   -2.0212   -0.5748 C   0  0  0  0  0  0  0  0  0  0  0  0
   -1.3740   -3.6484   -0.7233 S   0  0  0  0  0  0  0  0  0  0  0  0
   -1.8983   -0.9877   -0.4566 N   0  0  0  0  0  0  0  0  0  0  0  0
   -3.2280   -0.9860    0.0285 C   0  0  0  0  0  0  0  0  0  0  0  0
   -3.6602   -1.8990    0.9963 C   0  0  0  0  0  0  0  0  0  0  0  0
   -4.9632   -1.8528    1.5005 C   0  0  0  0  0  0  0  0  0  0  0  0
   -5.8545   -0.8711    1.0684 C   0  0  0  0  0  0  0  0  0  0  0  0
   -7.2634   -0.8414    1.5811 C   0  0  0  0  0  0  0  0  0  0  0  0
   -5.4260    0.0541    0.1108 C   0  0  0  0  0  0  0  0  0  0  0  0
   -4.1177    0.0176   -0.4079 C   0  0  0  0  0  0  0  0  0  0  0  0
   -3.7262    1.0513   -1.4299 C   0  0  0  0  0  0  0  0  0  0  0  0
    1.4803   -2.3909   -1.0028 C   0  0  0  0  0  0  0  0  0  0  0  0
    2.6030   -1.6072   -1.6794 C   0  0  0  0  0  0  0  0  0  0  0  0
    6.4323    1.4126   -2.3973 H   0  0  0  0  0  0  0  0  0  0  0  0
    7.0866    0.3657   -1.0771 H   0  0  0  0  0  0  0  0  0  0  0  0
    7.7140    1.9980   -1.3311 H   0  0  0  0  0  0  0  0  0  0  0  0
    4.9442   -0.2836   -1.7776 H   0  0  0  0  0  0  0  0  0  0  0  0
    1.7645    1.7544    1.4323 H   0  0  0  0  0  0  0  0  0  0  0  0
    2.4157    3.9744    1.7264 H   0  0  0  0  0  0  0  0  0  0  0  0
    3.8517    4.4469    2.6413 H   0  0  0  0  0  0  0  0  0  0  0  0
    3.0963    2.8907    3.0028 H   0  0  0  0  0  0  0  0  0  0  0  0
    0.6525   -0.7712    1.2645 H   0  0  0  0  0  0  0  0  0  0  0  0
   -0.0145    0.4132    0.1287 H   0  0  0  0  0  0  0  0  0  0  0  0
   -1.6387   -0.1877   -1.0171 H   0  0  0  0  0  0  0  0  0  0  0  0
   -2.9892   -2.6479    1.4051 H   0  0  0  0  0  0  0  0  0  0  0  0
   -5.2688   -2.5877    2.2419 H   0  0  0  0  0  0  0  0  0  0  0  0
   -7.9092   -1.4446    0.9357 H   0  0  0  0  0  0  0  0  0  0  0  0
   -7.3171   -1.2345    2.6018 H   0  0  0  0  0  0  0  0  0  0  0  0
   -7.6474    0.1839    1.6082 H   0  0  0  0  0  0  0  0  0  0  0  0
   -6.1228    0.8147   -0.2380 H   0  0  0  0  0  0  0  0  0  0  0  0
   -4.5688    1.6992   -1.6940 H   0  0  0  0  0  0  0  0  0  0  0  0
   -2.9298    1.6908   -1.0360 H   0  0  0  0  0  0  0  0  0  0  0  0
   -3.3878    0.5668   -2.3516 H   0  0  0  0  0  0  0  0  0  0  0  0
    1.8324   -2.8711   -0.0808 H   0  0  0  0  0  0  0  0  0  0  0  0
    1.1614   -3.1786   -1.6916 H   0  0  0  0  0  0  0  0  0  0  0  0
    3.4629   -2.2716   -1.8233 H   0  0  0  0  0  0  0  0  0  0  0  0
    2.2709   -1.2648   -2.6673 H   0  0  0  0  0  0  0  0  0  0  0  0
  1  2  1  0
  2  3  1  0
  3  4  2  0
  4  5  1  0
  5  6  2  0
  6  7  1  0
  7  8  2  0
  8  9  1  0
  9 10  1  0
  6 11  1  0
 11 12  1  0
 12 13  1  0
 13 14  2  0
 13 15  1  0
 15 16  1  0
 16 17  2  0
 17 18  1  0
 18 19  2  0
 19 20  1  0
 19 21  1  0
 21 22  2  0
 22 23  1  0
 12 24  1  0
 24 25  1  0
  8  3  1  0
 22 16  1  0
 25  5  1  0
  1 26  1  0
  1 27  1  0
  1 28  1  0
  4 29  1  0
  7 30  1  0
 10 31  1  0
 10 32  1  0
 10 33  1  0
 11 34  1  0
 11 35  1  0
 15 36  1  0
 17 37  1  0
 18 38  1  0
 20 39  1  0
 20 40  1  0
 20 41  1  0
 21 42  1  0
 23 43  1  0
 23 44  1  0
 23 45  1  0
 24 46  1  0
 24 47  1  0
 25 48  1  0
 25 49  1  0
M  END
$$$$
