
     RDKit          3D

 48 50  0  0  0  0  0  0  0  0999 V2000
   -1.2661    0.6614   -1.5978 O   0  0  0  0  0  0  0  0  0  0  0  0
   -1.3009    0.1715   -0.4655 C   0  0  0  0  0  0  0  0  0  0  0  0
   -0.2884    0.5816    0.6045 C   0  0  0  0  0  0  0  0  0  0  0  0
    1.0330    0.8519   -0.0288 N   0  0  0  0  0  0  0  0  0  0  0  0
    1.5404    2.1803    0.1573 C   0  0  0  0  0  0  0  0  0  0  0  0
    1.1592    3.1516   -0.7667 C   0  0  0  0  0  0  0  0  0  0  0  0
    1.5577    4.4767   -0.5923 C   0  0  0  0  0  0  0  0  0  0  0  0
    2.3189    4.8422    0.5224 C   0  0  0  0  0  0  0  0  0  0  0  0
    2.7685    6.5022    0.6683 Cl  0  0  0  0  0  0  0  0  0  0  0  0
    2.6802    3.8863    1.4806 C   0  0  0  0  0  0  0  0  0  0  0  0
    3.4805    4.2590    2.6990 C   0  0  0  0  0  0  0  0  0  0  0  0
    2.8494    5.1748    3.4852 F   0  0  0  0  0  0  0  0  0  0  0  0
    3.7292    3.1973    3.5199 F   0  0  0  0  0  0  0  0  0  0  0  0
    4.7015    4.7801    2.4020 F   0  0  0  0  0  0  0  0  0  0  0  0
    2.2693    2.5511    1.2911 C   0  0  0  0  0  0  0  0  0  0  0  0
    2.1794   -0.4058    0.0621 S   0  0  0  0  0  6  0  0  0  0  0  0
    3.3593   -0.0340   -0.6894 O   0  0  0  0  0  0  0  0  0  0  0  0
    2.2774   -0.7959    1.4560 O   0  0  0  0  0  0  0  0  0  0  0  0
    1.3961   -1.7335   -0.8202 C   0  0  0  0  0  0  0  0  0  0  0  0
    1.0594   -2.9165   -0.1560 C   0  0  0  0  0  0  0  0  0  0  0  0
    0.4455   -3.9485   -0.8657 C   0  0  0  0  0  0  0  0  0  0  0  0
    0.1753   -3.7968   -2.2272 C   0  0  0  0  0  0  0  0  0  0  0  0
    0.5208   -2.6157   -2.8863 C   0  0  0  0  0  0  0  0  0  0  0  0
    1.1384   -1.5806   -2.1855 C   0  0  0  0  0  0  0  0  0  0  0  0
   -2.2630   -0.7635   -0.1157 N   0  0  0  0  0  0  0  0  0  0  0  0
   -3.1596   -1.2860   -1.1495 C   0  0  0  0  0  0  0  0  0  0  0  0
   -3.5906   -2.7192   -0.8253 C   0  0  0  0  0  0  0  0  0  0  0  0
   -4.2345   -2.8627    0.4496 O   0  0  0  0  0  0  0  0  0  0  0  0
   -3.9184   -1.8274    1.3870 C   0  0  0  0  0  0  0  0  0  0  0  0
   -2.4935   -1.2846    1.2348 C   0  0  0  0  0  0  0  0  0  0  0  0
   -0.1825   -0.1906    1.3697 H   0  0  0  0  0  0  0  0  0  0  0  0
   -0.6846    1.4734    1.1044 H   0  0  0  0  0  0  0  0  0  0  0  0
    0.5610    2.8758   -1.6334 H   0  0  0  0  0  0  0  0  0  0  0  0
    1.2686    5.2206   -1.3316 H   0  0  0  0  0  0  0  0  0  0  0  0
    2.5299    1.8017    2.0378 H   0  0  0  0  0  0  0  0  0  0  0  0
    1.2782   -3.0477    0.9012 H   0  0  0  0  0  0  0  0  0  0  0  0
    0.1840   -4.8760   -0.3613 H   0  0  0  0  0  0  0  0  0  0  0  0
   -0.2985   -4.6053   -2.7794 H   0  0  0  0  0  0  0  0  0  0  0  0
    0.3123   -2.5020   -3.9476 H   0  0  0  0  0  0  0  0  0  0  0  0
    1.4051   -0.6595   -2.7001 H   0  0  0  0  0  0  0  0  0  0  0  0
   -4.0322   -0.6228   -1.1729 H   0  0  0  0  0  0  0  0  0  0  0  0
   -2.6752   -1.2487   -2.1306 H   0  0  0  0  0  0  0  0  0  0  0  0
   -2.7196   -3.3836   -0.8230 H   0  0  0  0  0  0  0  0  0  0  0  0
   -4.2823   -3.0898   -1.5882 H   0  0  0  0  0  0  0  0  0  0  0  0
   -4.0619   -2.2359    2.3923 H   0  0  0  0  0  0  0  0  0  0  0  0
   -4.6499   -1.0218    1.2538 H   0  0  0  0  0  0  0  0  0  0  0  0
   -2.3111   -0.4966    1.9714 H   0  0  0  0  0  0  0  0  0  0  0  0
   -1.7656   -2.0888    1.3895 H   0  0  0  0  0  0  0  0  0  0  0  0
  1  2  2  0
  2  3  1  0
  3  4  1  0
  4  5  1  0
  5  6  2  0
  6  7  1  0
  7  8  2  0
  8  9  1  0
  8 10  1  0
 10 11  1  0
 11 12  1  0
 11 13  1  0
 11 14  1  0
 10 15  2  0
  4 16  1  0
 16 17  2  0
 16 18  2  0
 16 19  1  0
 19 20  2  0
 20 21  1  0
 21 22  2  0
 22 23  1  0
 23 24  2  0
  2 25  1  0
 25 26  1  0
 26 27  1  0
 27 28  1  0
 28 29  1  0
 29 30  1  0
 15  5  1  0
 24 19  1  0
 30 25  1  0
  3 31  1  0
  3 32  1  0
  6 33  1  0
  7 34  1  0
 15 35  1  0
 20 36  1  0
 21 37  1  0
 22 38  1  0
 23 39  1  0
 24 40  1  0
 26 41  1  0
 26 42  1  0
 27 43  1  0
 27 44  1  0
 29 45  1  0
 29 46  1  0
 30 47  1  0
 30 48  1  0
M  END
$$$$
