
     RDKit          3D

 41 43  0  0  0  0  0  0  0  0999 V2000
    3.7572   -3.5115   -1.0617 C   0  0  0  0  0  0  0  0  0  0  0  0
    4.7727   -2.5573   -1.3542 O   0  0  0  0  0  0  0  0  0  0  0  0
    4.5293   -1.2717   -0.9409 C   0  0  0  0  0  0  0  0  0  0  0  0
    3.5251   -0.8690   -0.0583 C   0  0  0  0  0  0  0  0  0  0  0  0
    3.3688    0.4878    0.2673 C   0  0  0  0  0  0  0  0  0  0  0  0
    2.3479    0.9451    1.2184 C   0  0  0  0  0  0  0  0  0  0  0  0
    1.0230    0.7452    1.1602 C   0  0  0  0  0  0  0  0  0  0  0  0
   -0.0546    1.3823    2.3663 S   0  0  0  0  0  0  0  0  0  0  0  0
   -1.4663    0.7520    1.5596 C   0  0  0  0  0  0  0  0  0  0  0  0
   -2.6515    0.9362    2.0301 N   0  0  0  0  0  0  0  0  0  0  0  0
   -3.7615    0.4098    1.3472 C   0  0  0  0  0  0  0  0  0  0  0  0
   -4.4958   -0.6102    1.9591 C   0  0  0  0  0  0  0  0  0  0  0  0
   -5.5976   -1.1815    1.3167 C   0  0  0  0  0  0  0  0  0  0  0  0
   -5.9784   -0.7351    0.0517 C   0  0  0  0  0  0  0  0  0  0  0  0
   -5.2682    0.2929   -0.5661 C   0  0  0  0  0  0  0  0  0  0  0  0
   -4.1847    0.8786    0.0909 C   0  0  0  0  0  0  0  0  0  0  0  0
   -3.4998    1.8616   -0.5800 O   0  0  0  0  0  0  0  0  0  0  0  0
   -3.8214    3.1437   -0.0355 C   0  0  0  0  0  0  0  0  0  0  0  0
   -1.1023    0.0755    0.4412 N   0  0  0  0  0  0  0  0  0  0  0  0
    0.2250    0.0226    0.1250 C   0  0  0  0  0  0  0  0  0  0  0  0
    0.6593   -0.5482   -0.8618 O   0  0  0  0  0  0  0  0  0  0  0  0
    4.2561    1.4328   -0.2682 C   0  0  0  0  0  0  0  0  0  0  0  0
    5.2732    1.0353   -1.1354 C   0  0  0  0  0  0  0  0  0  0  0  0
    5.3990   -0.3076   -1.4612 C   0  0  0  0  0  0  0  0  0  0  0  0
    6.4028   -0.6751   -2.3156 O   0  0  0  0  0  0  0  0  0  0  0  0
    3.7041   -3.7076    0.0140 H   0  0  0  0  0  0  0  0  0  0  0  0
    4.0284   -4.4487   -1.5571 H   0  0  0  0  0  0  0  0  0  0  0  0
    2.7854   -3.1954   -1.4561 H   0  0  0  0  0  0  0  0  0  0  0  0
    2.8507   -1.5942    0.3842 H   0  0  0  0  0  0  0  0  0  0  0  0
    2.7575    1.5325    2.0396 H   0  0  0  0  0  0  0  0  0  0  0  0
   -4.2029   -0.9640    2.9445 H   0  0  0  0  0  0  0  0  0  0  0  0
   -6.1561   -1.9769    1.8044 H   0  0  0  0  0  0  0  0  0  0  0  0
   -6.8307   -1.1858   -0.4511 H   0  0  0  0  0  0  0  0  0  0  0  0
   -5.5606    0.6427   -1.5523 H   0  0  0  0  0  0  0  0  0  0  0  0
   -4.9052    3.3017    0.0060 H   0  0  0  0  0  0  0  0  0  0  0  0
   -3.3961    3.9021   -0.6997 H   0  0  0  0  0  0  0  0  0  0  0  0
   -3.3780    3.2805    0.9554 H   0  0  0  0  0  0  0  0  0  0  0  0
   -1.7793   -0.3305   -0.1843 H   0  0  0  0  0  0  0  0  0  0  0  0
    4.1616    2.4870   -0.0170 H   0  0  0  0  0  0  0  0  0  0  0  0
    5.9598    1.7644   -1.5545 H   0  0  0  0  0  0  0  0  0  0  0  0
    6.3041   -1.6422   -2.4135 H   0  0  0  0  0  0  0  0  0  0  0  0
  1  2  1  0
  2  3  1  0
  3  4  2  0
  4  5  1  0
  5  6  1  0
  6  7  2  3
  7  8  1  0
  8  9  1  0
  9 10  2  3
 10 11  1  0
 11 12  2  0
 12 13  1  0
 13 14  2  0
 14 15  1  0
 15 16  2  0
 16 17  1  0
 17 18  1  0
  9 19  1  0
 19 20  1  0
 20 21  2  0
  5 22  2  0
 22 23  1  0
 23 24  2  0
 24 25  1  0
 24  3  1  0
 20  7  1  0
 16 11  1  0
  1 26  1  0
  1 27  1  0
  1 28  1  0
  4 29  1  0
  6 30  1  0
 12 31  1  0
 13 32  1  0
 14 33  1  0
 15 34  1  0
 18 35  1  0
 18 36  1  0
 18 37  1  0
 19 38  1  0
 22 39  1  0
 23 40  1  0
 25 41  1  0
M  END
$$$$
