
     RDKit          3D

 37 38  0  0  0  0  0  0  0  0999 V2000
   -3.1165    2.8844   -0.1496 C   0  0  0  0  0  0  0  0  0  0  0  0
   -2.1686    1.9345   -0.6173 O   0  0  0  0  0  0  0  0  0  0  0  0
   -2.2882    0.6444   -0.1671 C   0  0  0  0  0  0  0  0  0  0  0  0
   -3.3150    0.1903    0.6738 C   0  0  0  0  0  0  0  0  0  0  0  0
   -3.3909   -1.1503    1.0687 C   0  0  0  0  0  0  0  0  0  0  0  0
   -4.3577   -1.5594    1.9977 N   0  0  0  0  0  0  0  0  0  0  0  0
   -2.3644   -2.0169    0.7002 C   0  0  0  0  0  0  0  0  0  0  0  0
   -1.3382   -1.5823   -0.1392 C   0  0  0  0  0  0  0  0  0  0  0  0
   -1.2941   -0.2544   -0.5938 C   0  0  0  0  0  0  0  0  0  0  0  0
   -0.1552    0.1713   -1.5001 C   0  0  0  0  0  0  0  0  0  0  0  0
    1.1530    0.4104   -0.7715 C   0  0  0  0  0  0  0  0  0  0  0  0
    1.3189    1.6042   -0.0509 C   0  0  0  0  0  0  0  0  0  0  0  0
    2.5033    1.8641    0.6392 C   0  0  0  0  0  0  0  0  0  0  0  0
    3.5626    0.9608    0.5905 C   0  0  0  0  0  0  0  0  0  0  0  0
    4.7060    1.1744    1.3729 N   0  0  0  0  0  0  0  0  0  0  0  0
    3.3774   -0.2593   -0.0698 C   0  0  0  0  0  0  0  0  0  0  0  0
    2.1918   -0.5379   -0.7655 C   0  0  0  0  0  0  0  0  0  0  0  0
    1.9538   -1.6974   -1.4585 O   0  0  0  0  0  0  0  0  0  0  0  0
    2.9545   -2.7058   -1.4158 C   0  0  0  0  0  0  0  0  0  0  0  0
   -2.8576    3.8550   -0.5834 H   0  0  0  0  0  0  0  0  0  0  0  0
   -4.1276    2.6306   -0.4844 H   0  0  0  0  0  0  0  0  0  0  0  0
   -3.0715    2.9857    0.9398 H   0  0  0  0  0  0  0  0  0  0  0  0
   -4.0774    0.8691    1.0383 H   0  0  0  0  0  0  0  0  0  0  0  0
   -4.5301   -2.5599    1.9902 H   0  0  0  0  0  0  0  0  0  0  0  0
   -5.2166   -1.0204    1.9609 H   0  0  0  0  0  0  0  0  0  0  0  0
   -2.3519   -3.0415    1.0612 H   0  0  0  0  0  0  0  0  0  0  0  0
   -0.5570   -2.2824   -0.4279 H   0  0  0  0  0  0  0  0  0  0  0  0
   -0.4163    1.0800   -2.0578 H   0  0  0  0  0  0  0  0  0  0  0  0
   -0.0334   -0.5837   -2.2877 H   0  0  0  0  0  0  0  0  0  0  0  0
    0.5119    2.3330   -0.0122 H   0  0  0  0  0  0  0  0  0  0  0  0
    2.5879    2.7820    1.2142 H   0  0  0  0  0  0  0  0  0  0  0  0
    5.5270    0.6766    1.0448 H   0  0  0  0  0  0  0  0  0  0  0  0
    4.8964    2.1549    1.5546 H   0  0  0  0  0  0  0  0  0  0  0  0
    4.1821   -0.9844   -0.0279 H   0  0  0  0  0  0  0  0  0  0  0  0
    2.5913   -3.5606   -1.9944 H   0  0  0  0  0  0  0  0  0  0  0  0
    3.8830   -2.3603   -1.8819 H   0  0  0  0  0  0  0  0  0  0  0  0
    3.1272   -3.0490   -0.3904 H   0  0  0  0  0  0  0  0  0  0  0  0
  1  2  1  0
  2  3  1  0
  3  4  2  0
  4  5  1  0
  5  6  1  0
  5  7  2  0
  7  8  1  0
  8  9  2  0
  9 10  1  0
 10 11  1  0
 11 12  2  0
 12 13  1  0
 13 14  2  0
 14 15  1  0
 14 16  1  0
 16 17  2  0
 17 18  1  0
 18 19  1  0
  9  3  1  0
 17 11  1  0
  1 20  1  0
  1 21  1  0
  1 22  1  0
  4 23  1  0
  6 24  1  0
  6 25  1  0
  7 26  1  0
  8 27  1  0
 10 28  1  0
 10 29  1  0
 12 30  1  0
 13 31  1  0
 15 32  1  0
 15 33  1  0
 16 34  1  0
 19 35  1  0
 19 36  1  0
 19 37  1  0
M  END
$$$$
