
     RDKit          3D

 46 48  0  0  0  0  0  0  0  0999 V2000
    5.7901   -0.4751    1.8222 C   0  0  0  0  0  0  0  0  0  0  0  0
    5.2754   -1.2352    0.7364 O   0  0  0  0  0  0  0  0  0  0  0  0
    4.0870   -0.8186    0.2063 C   0  0  0  0  0  0  0  0  0  0  0  0
    3.2440    0.1493    0.7481 C   0  0  0  0  0  0  0  0  0  0  0  0
    2.0460    0.4771    0.1037 C   0  0  0  0  0  0  0  0  0  0  0  0
    1.6484   -0.1694   -1.0817 C   0  0  0  0  0  0  0  0  0  0  0  0
    0.3395    0.2333   -1.7560 C   0  0  0  0  0  0  0  0  0  0  0  0
   -0.0535   -0.4889   -3.0510 C   0  0  0  0  0  0  0  0  0  0  0  0
   -0.8059    0.2565   -0.8089 N   0  0  0  0  0  0  0  0  0  0  0  0
   -1.2635   -0.8166   -0.0413 C   0  0  0  0  0  0  0  0  0  0  0  0
   -0.6828   -2.1908   -0.0874 C   0  0  0  0  0  0  0  0  0  0  0  0
   -2.2965   -0.3315    0.7394 C   0  0  0  0  0  0  0  0  0  0  0  0
   -3.0431   -1.0355    1.7071 C   0  0  0  0  0  0  0  0  0  0  0  0
   -2.9315   -2.4462    2.1637 C   0  0  0  0  0  0  0  0  0  0  0  0
   -3.9945   -0.2416    2.2885 N   0  0  0  0  0  0  0  0  0  0  0  0
   -4.2111    1.1650    1.9528 N   0  0  0  0  0  0  0  0  0  0  0  0
   -3.4887    1.8598    1.0177 C   0  0  0  0  0  0  0  0  0  0  0  0
   -3.8292    3.2918    0.8055 C   0  0  0  0  0  0  0  0  0  0  0  0
   -2.5057    1.0498    0.4084 C   0  0  0  0  0  0  0  0  0  0  0  0
   -1.5931    1.3940   -0.5717 C   0  0  0  0  0  0  0  0  0  0  0  0
   -1.3609    2.6726   -1.3078 C   0  0  0  0  0  0  0  0  0  0  0  0
    2.5111   -1.1371   -1.6175 C   0  0  0  0  0  0  0  0  0  0  0  0
    3.7123   -1.4589   -0.9754 C   0  0  0  0  0  0  0  0  0  0  0  0
    5.8844    0.5865    1.5620 H   0  0  0  0  0  0  0  0  0  0  0  0
    6.7917   -0.8520    2.0495 H   0  0  0  0  0  0  0  0  0  0  0  0
    5.1728   -0.6081    2.7163 H   0  0  0  0  0  0  0  0  0  0  0  0
    3.4797    0.6604    1.6771 H   0  0  0  0  0  0  0  0  0  0  0  0
    1.4133    1.2428    0.5497 H   0  0  0  0  0  0  0  0  0  0  0  0
    0.5168    1.2717   -2.0587 H   0  0  0  0  0  0  0  0  0  0  0  0
   -0.9834   -0.0743   -3.4575 H   0  0  0  0  0  0  0  0  0  0  0  0
    0.7205   -0.3675   -3.8181 H   0  0  0  0  0  0  0  0  0  0  0  0
   -0.2152   -1.5609   -2.9097 H   0  0  0  0  0  0  0  0  0  0  0  0
   -1.4712   -2.9262   -0.2876 H   0  0  0  0  0  0  0  0  0  0  0  0
   -0.2132   -2.4341    0.8735 H   0  0  0  0  0  0  0  0  0  0  0  0
    0.0681   -2.3355   -0.8636 H   0  0  0  0  0  0  0  0  0  0  0  0
   -1.9298   -2.6461    2.5567 H   0  0  0  0  0  0  0  0  0  0  0  0
   -3.6492   -2.6480    2.9663 H   0  0  0  0  0  0  0  0  0  0  0  0
   -3.1464   -3.1354    1.3406 H   0  0  0  0  0  0  0  0  0  0  0  0
   -4.1931    3.4513   -0.2138 H   0  0  0  0  0  0  0  0  0  0  0  0
   -2.9570    3.9245    0.9914 H   0  0  0  0  0  0  0  0  0  0  0  0
   -4.6245    3.6111    1.4907 H   0  0  0  0  0  0  0  0  0  0  0  0
   -0.3810    3.0882   -1.0483 H   0  0  0  0  0  0  0  0  0  0  0  0
   -1.4002    2.5054   -2.3898 H   0  0  0  0  0  0  0  0  0  0  0  0
   -2.1015    3.4411   -1.0863 H   0  0  0  0  0  0  0  0  0  0  0  0
    2.2671   -1.6720   -2.5312 H   0  0  0  0  0  0  0  0  0  0  0  0
    4.3575   -2.2263   -1.3955 H   0  0  0  0  0  0  0  0  0  0  0  0
  1  2  1  0
  2  3  1  0
  3  4  2  0
  4  5  1  0
  5  6  2  0
  6  7  1  0
  7  8  1  0
  7  9  1  0
  9 10  1  0
 10 11  1  0
 10 12  2  0
 12 13  1  0
 13 14  1  0
 13 15  2  0
 15 16  1  0
 16 17  2  0
 17 18  1  0
 17 19  1  0
 19 20  2  0
 20 21  1  0
  6 22  1  0
 22 23  2  0
 23  3  1  0
 20  9  1  0
 19 12  1  0
  1 24  1  0
  1 25  1  0
  1 26  1  0
  4 27  1  0
  5 28  1  0
  7 29  1  0
  8 30  1  0
  8 31  1  0
  8 32  1  0
 11 33  1  0
 11 34  1  0
 11 35  1  0
 14 36  1  0
 14 37  1  0
 14 38  1  0
 18 39  1  0
 18 40  1  0
 18 41  1  0
 21 42  1  0
 21 43  1  0
 21 44  1  0
 22 45  1  0
 23 46  1  0
M  END
$$$$
