
     RDKit          3D

 45 47  0  0  0  0  0  0  0  0999 V2000
    0.7511   -0.3312   -2.3406 O   0  0  0  0  0  0  0  0  0  0  0  0
    1.0808    0.1279   -1.2592 C   0  0  0  0  0  0  0  0  0  0  0  0
    2.3429    0.5589   -0.9411 N   0  0  0  0  0  0  0  0  0  0  0  0
    3.4505    0.3998   -1.8457 C   0  0  0  0  0  0  0  0  0  0  0  0
    4.6460    1.0527   -1.2618 C   0  0  0  0  0  0  0  0  0  0  0  0
    5.4948    2.0475   -1.7024 C   0  0  0  0  0  0  0  0  0  0  0  0
    6.4601    2.2297   -0.6826 C   0  0  0  0  0  0  0  0  0  0  0  0
    6.1378    1.3414    0.3153 C   0  0  0  0  0  0  0  0  0  0  0  0
    5.0381    0.6223   -0.0249 O   0  0  0  0  0  0  0  0  0  0  0  0
    0.0766    0.2540   -0.0943 C   0  0  0  0  0  0  0  0  0  0  0  0
   -1.2833   -0.2701   -0.4099 C   0  0  0  0  0  0  0  0  0  0  0  0
   -1.8905   -1.1642    0.3882 C   0  0  0  0  0  0  0  0  0  0  0  0
   -3.2419   -1.7948    0.1741 C   0  0  0  0  0  0  0  0  0  0  0  0
   -3.9710   -1.4018   -1.0870 C   0  0  0  0  0  0  0  0  0  0  0  0
   -4.8512   -0.3105   -1.0914 C   0  0  0  0  0  0  0  0  0  0  0  0
   -5.5027    0.0655   -2.2666 C   0  0  0  0  0  0  0  0  0  0  0  0
   -5.2796   -0.6417   -3.4463 C   0  0  0  0  0  0  0  0  0  0  0  0
   -4.4006   -1.7237   -3.4546 C   0  0  0  0  0  0  0  0  0  0  0  0
   -3.7489   -2.1023   -2.2812 C   0  0  0  0  0  0  0  0  0  0  0  0
    0.5258    0.8007    0.9939 N   0  0  0  0  0  0  0  0  0  0  0  0
   -0.3618    1.0572    2.0092 C   0  0  0  0  0  0  0  0  0  0  0  0
   -1.4186    1.6585    1.8673 O   0  0  0  0  0  0  0  0  0  0  0  0
    0.1469    0.5651    3.2748 C   0  0  0  0  0  0  0  0  0  0  0  0
    1.3354   -0.0513    3.6321 C   0  0  0  0  0  0  0  0  0  0  0  0
    1.2675   -0.3031    5.0246 C   0  0  0  0  0  0  0  0  0  0  0  0
    0.0455    0.1711    5.4386 C   0  0  0  0  0  0  0  0  0  0  0  0
   -0.6090    0.1155    7.2213 Br  0  0  0  0  0  0  0  0  0  0  0  0
   -0.6412    0.6924    4.3896 O   0  0  0  0  0  0  0  0  0  0  0  0
    2.5108    0.8789    0.0063 H   0  0  0  0  0  0  0  0  0  0  0  0
    3.6258   -0.6715   -1.9938 H   0  0  0  0  0  0  0  0  0  0  0  0
    3.1832    0.8395   -2.8131 H   0  0  0  0  0  0  0  0  0  0  0  0
    5.4254    2.5747   -2.6435 H   0  0  0  0  0  0  0  0  0  0  0  0
    7.2894    2.9241   -0.6746 H   0  0  0  0  0  0  0  0  0  0  0  0
    6.5688    1.1078    1.2781 H   0  0  0  0  0  0  0  0  0  0  0  0
   -1.7153    0.0800   -1.3413 H   0  0  0  0  0  0  0  0  0  0  0  0
   -1.3878   -1.5042    1.2906 H   0  0  0  0  0  0  0  0  0  0  0  0
   -3.8748   -1.5678    1.0419 H   0  0  0  0  0  0  0  0  0  0  0  0
   -3.1159   -2.8866    0.1795 H   0  0  0  0  0  0  0  0  0  0  0  0
   -5.0273    0.2577   -0.1805 H   0  0  0  0  0  0  0  0  0  0  0  0
   -6.1844    0.9129   -2.2612 H   0  0  0  0  0  0  0  0  0  0  0  0
   -5.7893   -0.3472   -4.3601 H   0  0  0  0  0  0  0  0  0  0  0  0
   -4.2212   -2.2717   -4.3752 H   0  0  0  0  0  0  0  0  0  0  0  0
   -3.0593   -2.9416   -2.3022 H   0  0  0  0  0  0  0  0  0  0  0  0
    2.1534   -0.2824    2.9630 H   0  0  0  0  0  0  0  0  0  0  0  0
    2.0190   -0.7678    5.6466 H   0  0  0  0  0  0  0  0  0  0  0  0
  1  2  2  0
  2  3  1  0
  3  4  1  0
  4  5  1  0
  5  6  2  0
  6  7  1  0
  7  8  2  0
  8  9  1  0
  2 10  1  0
 10 11  1  0
 11 12  2  3
 12 13  1  0
 13 14  1  0
 14 15  2  0
 15 16  1  0
 16 17  2  0
 17 18  1  0
 18 19  2  0
 10 20  2  3
 20 21  1  0
 21 22  2  0
 21 23  1  0
 23 24  2  0
 24 25  1  0
 25 26  2  0
 26 27  1  0
 26 28  1  0
  9  5  1  0
 19 14  1  0
 28 23  1  0
  3 29  1  0
  4 30  1  0
  4 31  1  0
  6 32  1  0
  7 33  1  0
  8 34  1  0
 11 35  1  0
 12 36  1  0
 13 37  1  0
 13 38  1  0
 15 39  1  0
 16 40  1  0
 17 41  1  0
 18 42  1  0
 19 43  1  0
 24 44  1  0
 25 45  1  0
M  END
$$$$
