
     RDKit          3D

 63 68  0  0  0  0  0  0  0  0999 V2000
   -3.2233    3.8732    4.8047 C   0  0  0  0  0  0  0  0  0  0  0  0
   -2.9993    2.4701    4.7595 O   0  0  0  0  0  0  0  0  0  0  0  0
   -2.7244    1.9286    3.5339 C   0  0  0  0  0  0  0  0  0  0  0  0
   -2.5298    0.5464    3.5360 C   0  0  0  0  0  0  0  0  0  0  0  0
   -2.2404   -0.1368    2.3520 C   0  0  0  0  0  0  0  0  0  0  0  0
   -2.1446    0.5550    1.1345 C   0  0  0  0  0  0  0  0  0  0  0  0
   -1.8277   -0.1671   -0.1786 C   0  0  0  0  0  0  0  0  0  0  0  0
   -2.8381   -1.2637   -0.4681 C   0  0  0  0  0  0  0  0  0  0  0  0
   -4.1650   -0.9508   -0.7875 C   0  0  0  0  0  0  0  0  0  0  0  0
   -5.0930   -1.9665   -1.0174 C   0  0  0  0  0  0  0  0  0  0  0  0
   -4.7201   -3.3161   -0.9310 C   0  0  0  0  0  0  0  0  0  0  0  0
   -5.6593   -4.3361   -1.1579 C   0  0  0  0  0  0  0  0  0  0  0  0
   -5.2932   -5.6795   -1.0727 C   0  0  0  0  0  0  0  0  0  0  0  0
   -3.9830   -6.0214   -0.7598 C   0  0  0  0  0  0  0  0  0  0  0  0
   -3.0384   -5.0192   -0.5317 C   0  0  0  0  0  0  0  0  0  0  0  0
   -3.3836   -3.6526   -0.6108 C   0  0  0  0  0  0  0  0  0  0  0  0
   -2.4547   -2.6086   -0.3882 C   0  0  0  0  0  0  0  0  0  0  0  0
   -1.1587   -2.9671   -0.0773 O   0  0  0  0  0  0  0  0  0  0  0  0
   -0.1431   -2.0165   -0.1375 C   0  0  0  0  0  0  0  0  0  0  0  0
    1.1329   -2.5479   -0.1068 N   0  0  0  0  0  0  0  0  0  0  0  0
    2.1082   -1.7021   -0.1531 C   0  0  0  0  0  0  0  0  0  0  0  0
    1.9985   -0.3334   -0.2502 N   0  0  0  0  0  0  0  0  0  0  0  0
    3.2244    0.4643   -0.3342 C   0  0  0  0  0  0  0  0  0  0  0  0
    3.6252    0.6840   -1.8094 C   0  0  0  0  0  0  0  0  0  0  0  0
    4.8205    1.4938   -2.0846 N   0  0  0  0  0  0  0  0  0  0  0  0
    6.0647    0.9207   -1.5405 C   0  0  0  0  0  0  0  0  0  0  0  0
    7.2812    1.7779   -1.9291 C   0  0  0  0  0  0  0  0  0  0  0  0
    7.1238    3.1283   -1.4720 O   0  0  0  0  0  0  0  0  0  0  0  0
    5.9439    3.7071   -2.0467 C   0  0  0  0  0  0  0  0  0  0  0  0
    4.6920    2.9003   -1.6623 C   0  0  0  0  0  0  0  0  0  0  0  0
    0.7352    0.2333   -0.3447 C   0  0  0  0  0  0  0  0  0  0  0  0
    0.4838    1.4867   -0.5679 N   0  0  0  0  0  0  0  0  0  0  0  0
   -0.4253   -0.6991   -0.2025 C   0  0  0  0  0  0  0  0  0  0  0  0
   -2.3354    1.9453    1.1431 C   0  0  0  0  0  0  0  0  0  0  0  0
   -2.6236    2.6267    2.3315 C   0  0  0  0  0  0  0  0  0  0  0  0
   -3.4392    4.1439    5.8428 H   0  0  0  0  0  0  0  0  0  0  0  0
   -4.0917    4.1549    4.2001 H   0  0  0  0  0  0  0  0  0  0  0  0
   -2.3296    4.4256    4.4960 H   0  0  0  0  0  0  0  0  0  0  0  0
   -2.6044   -0.0065    4.4692 H   0  0  0  0  0  0  0  0  0  0  0  0
   -2.0947   -1.2144    2.3912 H   0  0  0  0  0  0  0  0  0  0  0  0
   -1.9260    0.5429   -1.0126 H   0  0  0  0  0  0  0  0  0  0  0  0
   -4.4859    0.0873   -0.8460 H   0  0  0  0  0  0  0  0  0  0  0  0
   -6.1184   -1.6938   -1.2588 H   0  0  0  0  0  0  0  0  0  0  0  0
   -6.6899   -4.0894   -1.4037 H   0  0  0  0  0  0  0  0  0  0  0  0
   -6.0315   -6.4568   -1.2506 H   0  0  0  0  0  0  0  0  0  0  0  0
   -3.6915   -7.0661   -0.6924 H   0  0  0  0  0  0  0  0  0  0  0  0
   -2.0179   -5.3114   -0.2893 H   0  0  0  0  0  0  0  0  0  0  0  0
    3.1462   -2.0743   -0.1255 H   0  0  0  0  0  0  0  0  0  0  0  0
    4.0328   -0.0473    0.2019 H   0  0  0  0  0  0  0  0  0  0  0  0
    3.0882    1.4172    0.1879 H   0  0  0  0  0  0  0  0  0  0  0  0
    3.7640   -0.2969   -2.2838 H   0  0  0  0  0  0  0  0  0  0  0  0
    2.7816    1.1324   -2.3500 H   0  0  0  0  0  0  0  0  0  0  0  0
    6.0126    0.8708   -0.4464 H   0  0  0  0  0  0  0  0  0  0  0  0
    6.2108   -0.0957   -1.9229 H   0  0  0  0  0  0  0  0  0  0  0  0
    8.1841    1.3734   -1.4605 H   0  0  0  0  0  0  0  0  0  0  0  0
    7.4398    1.7778   -3.0143 H   0  0  0  0  0  0  0  0  0  0  0  0
    5.8574    4.7294   -1.6649 H   0  0  0  0  0  0  0  0  0  0  0  0
    6.0619    3.7665   -3.1355 H   0  0  0  0  0  0  0  0  0  0  0  0
    4.5623    2.9598   -0.5752 H   0  0  0  0  0  0  0  0  0  0  0  0
    3.8166    3.3582   -2.1362 H   0  0  0  0  0  0  0  0  0  0  0  0
    1.3329    2.0401   -0.6564 H   0  0  0  0  0  0  0  0  0  0  0  0
   -2.2437    2.5130    0.2188 H   0  0  0  0  0  0  0  0  0  0  0  0
   -2.7570    3.7017    2.2802 H   0  0  0  0  0  0  0  0  0  0  0  0
  1  2  1  0
  2  3  1  0
  3  4  2  0
  4  5  1  0
  5  6  2  0
  6  7  1  0
  7  8  1  0
  8  9  2  0
  9 10  1  0
 10 11  2  0
 11 12  1  0
 12 13  2  0
 13 14  1  0
 14 15  2  0
 15 16  1  0
 16 17  2  0
 17 18  1  0
 18 19  1  0
 19 20  1  0
 20 21  2  0
 21 22  1  0
 22 23  1  0
 23 24  1  0
 24 25  1  0
 25 26  1  0
 26 27  1  0
 27 28  1  0
 28 29  1  0
 29 30  1  0
 22 31  1  0
 31 32  2  3
 31 33  1  0
  6 34  1  0
 34 35  2  0
 35  3  1  0
 33  7  1  0
 17  8  1  0
 33 19  2  0
 16 11  1  0
 30 25  1  0
  1 36  1  0
  1 37  1  0
  1 38  1  0
  4 39  1  0
  5 40  1  0
  7 41  1  0
  9 42  1  0
 10 43  1  0
 12 44  1  0
 13 45  1  0
 14 46  1  0
 15 47  1  0
 21 48  1  0
 23 49  1  0
 23 50  1  0
 24 51  1  0
 24 52  1  0
 26 53  1  0
 26 54  1  0
 27 55  1  0
 27 56  1  0
 29 57  1  0
 29 58  1  0
 30 59  1  0
 30 60  1  0
 32 61  1  0
 34 62  1  0
 35 63  1  0
M  END
$$$$
