
     RDKit          3D

 50 52  0  0  0  0  0  0  0  0999 V2000
    6.8938   -1.5614   -4.4811 C   0  0  0  0  0  0  0  0  0  0  0  0
    5.9558   -1.4155   -3.3199 C   0  0  0  0  0  0  0  0  0  0  0  0
    5.9439   -2.3688   -2.2958 C   0  0  0  0  0  0  0  0  0  0  0  0
    5.0898   -2.2197   -1.1992 C   0  0  0  0  0  0  0  0  0  0  0  0
    4.2377   -1.1153   -1.1108 C   0  0  0  0  0  0  0  0  0  0  0  0
    3.1671   -0.9531    0.3054 S   0  0  0  0  0  0  0  0  0  0  0  0
    1.5414   -1.1771   -0.4943 C   0  0  0  0  0  0  0  0  0  0  0  0
    0.9295    0.1697   -0.8588 C   0  0  0  0  0  0  0  0  0  0  0  0
    1.0075    0.5660   -2.0269 O   0  0  0  0  0  0  0  0  0  0  0  0
    0.3003    0.9391    0.1286 N   0  0  0  0  0  0  0  0  0  0  0  0
    0.0417    0.4493    1.4956 C   0  0  0  0  0  0  0  0  0  0  0  0
   -1.3328   -0.0951    1.6385 C   0  0  0  0  0  0  0  0  0  0  0  0
   -2.3938    0.4349    2.2038 N   0  0  0  0  0  0  0  0  0  0  0  0
   -3.3521   -0.5425    2.0210 C   0  0  0  0  0  0  0  0  0  0  0  0
   -4.7262   -0.3824    2.4858 C   0  0  0  0  0  0  0  0  0  0  0  0
   -5.6785   -1.3957    2.2962 C   0  0  0  0  0  0  0  0  0  0  0  0
   -6.9923   -1.2309    2.7438 C   0  0  0  0  0  0  0  0  0  0  0  0
   -7.3686   -0.0524    3.3849 C   0  0  0  0  0  0  0  0  0  0  0  0
   -6.4343    0.9628    3.5792 C   0  0  0  0  0  0  0  0  0  0  0  0
   -5.1204    0.7990    3.1322 C   0  0  0  0  0  0  0  0  0  0  0  0
   -2.8942   -1.6343    1.3843 N   0  0  0  0  0  0  0  0  0  0  0  0
   -1.5593   -1.3380    1.1293 O   0  0  0  0  0  0  0  0  0  0  0  0
   -0.3044    2.2207   -0.3129 C   0  0  0  0  0  0  0  0  0  0  0  0
   -0.3929    3.2934    0.7750 C   0  0  0  0  0  0  0  0  0  0  0  0
   -1.6717    2.0126   -0.9735 C   0  0  0  0  0  0  0  0  0  0  0  0
    4.2684   -0.1479   -2.1173 C   0  0  0  0  0  0  0  0  0  0  0  0
    5.1221   -0.2965   -3.2145 C   0  0  0  0  0  0  0  0  0  0  0  0
    7.8775   -1.1584   -4.2203 H   0  0  0  0  0  0  0  0  0  0  0  0
    7.0026   -2.6149   -4.7613 H   0  0  0  0  0  0  0  0  0  0  0  0
    6.5167   -1.0287   -5.3609 H   0  0  0  0  0  0  0  0  0  0  0  0
    6.6005   -3.2349   -2.3442 H   0  0  0  0  0  0  0  0  0  0  0  0
    5.0982   -2.9749   -0.4165 H   0  0  0  0  0  0  0  0  0  0  0  0
    1.6371   -1.7805   -1.4040 H   0  0  0  0  0  0  0  0  0  0  0  0
    0.8787   -1.7393    0.1665 H   0  0  0  0  0  0  0  0  0  0  0  0
    0.7567   -0.3255    1.7771 H   0  0  0  0  0  0  0  0  0  0  0  0
    0.2068    1.2643    2.2061 H   0  0  0  0  0  0  0  0  0  0  0  0
   -5.4071   -2.3237    1.7959 H   0  0  0  0  0  0  0  0  0  0  0  0
   -7.7208   -2.0233    2.5897 H   0  0  0  0  0  0  0  0  0  0  0  0
   -8.3909    0.0753    3.7321 H   0  0  0  0  0  0  0  0  0  0  0  0
   -6.7266    1.8833    4.0783 H   0  0  0  0  0  0  0  0  0  0  0  0
   -4.4052    1.6038    3.2907 H   0  0  0  0  0  0  0  0  0  0  0  0
    0.3587    2.6303   -1.0861 H   0  0  0  0  0  0  0  0  0  0  0  0
   -0.7116    4.2493    0.3445 H   0  0  0  0  0  0  0  0  0  0  0  0
    0.5818    3.4496    1.2493 H   0  0  0  0  0  0  0  0  0  0  0  0
   -1.1154    3.0296    1.5537 H   0  0  0  0  0  0  0  0  0  0  0  0
   -1.6256    1.2535   -1.7614 H   0  0  0  0  0  0  0  0  0  0  0  0
   -2.0234    2.9456   -1.4278 H   0  0  0  0  0  0  0  0  0  0  0  0
   -2.4282    1.6941   -0.2510 H   0  0  0  0  0  0  0  0  0  0  0  0
    3.6344    0.7341   -2.0632 H   0  0  0  0  0  0  0  0  0  0  0  0
    5.1279    0.4705   -3.9860 H   0  0  0  0  0  0  0  0  0  0  0  0
  1  2  1  0
  2  3  2  0
  3  4  1  0
  4  5  2  0
  5  6  1  0
  6  7  1  0
  7  8  1  0
  8  9  2  0
  8 10  1  0
 10 11  1  0
 11 12  1  0
 12 13  2  0
 13 14  1  0
 14 15  1  0
 15 16  2  0
 16 17  1  0
 17 18  2  0
 18 19  1  0
 19 20  2  0
 14 21  2  0
 21 22  1  0
 10 23  1  0
 23 24  1  0
 23 25  1  0
  5 26  1  0
 26 27  2  0
 27  2  1  0
 22 12  1  0
 20 15  1  0
  1 28  1  0
  1 29  1  0
  1 30  1  0
  3 31  1  0
  4 32  1  0
  7 33  1  0
  7 34  1  0
 11 35  1  0
 11 36  1  0
 16 37  1  0
 17 38  1  0
 18 39  1  0
 19 40  1  0
 20 41  1  0
 23 42  1  0
 24 43  1  0
 24 44  1  0
 24 45  1  0
 25 46  1  0
 25 47  1  0
 25 48  1  0
 26 49  1  0
 27 50  1  0
M  END
$$$$
