
     RDKit          3D

 36 37  0  0  0  0  0  0  0  0999 V2000
   -2.9292    1.2114    1.7414 C   0  0  0  0  0  0  0  0  0  0  0  0
   -2.4793    0.7086    0.3713 C   0  0  0  0  0  0  0  0  0  0  0  0
   -2.8027   -0.7833    0.2085 C   0  0  0  0  0  0  0  0  0  0  0  0
   -2.2972   -1.3077   -1.1431 C   0  0  0  0  0  0  0  0  0  0  0  0
   -2.5717   -2.8039   -1.2777 C   0  0  0  0  0  0  0  0  0  0  0  0
   -0.8000   -1.0140   -1.3067 C   0  0  0  0  0  0  0  0  0  0  0  0
   -0.5693    0.4423   -1.1594 N   0  0  0  0  0  0  0  0  0  0  0  0
    0.8899    1.0558   -1.7850 S   0  0  0  0  0  6  0  0  0  0  0  0
    0.8615    2.4972   -1.6474 O   0  0  0  0  0  0  0  0  0  0  0  0
    1.1623    0.4287   -3.0592 O   0  0  0  0  0  0  0  0  0  0  0  0
    2.2146    0.5601   -0.6956 C   0  0  0  0  0  0  0  0  0  0  0  0
    2.9032    1.2516    0.2844 C   0  0  0  0  0  0  0  0  0  0  0  0
    3.9131    0.4613    0.9433 C   0  0  0  0  0  0  0  0  0  0  0  0
    4.7870    0.9244    2.0066 C   0  0  0  0  0  0  0  0  0  0  0  0
    5.6533    0.2807    2.5772 O   0  0  0  0  0  0  0  0  0  0  0  0
    4.5692    2.2098    2.3671 O   0  0  0  0  0  0  0  0  0  0  0  0
    3.9227   -0.8069    0.4047 C   0  0  0  0  0  0  0  0  0  0  0  0
    4.9189   -2.1494    0.8227 Cl  0  0  0  0  0  0  0  0  0  0  0  0
    2.7837   -1.0428   -0.8308 S   0  0  0  0  0  0  0  0  0  0  0  0
   -0.9807    0.9646    0.1654 C   0  0  0  0  0  0  0  0  0  0  0  0
   -4.0041    1.0541    1.8790 H   0  0  0  0  0  0  0  0  0  0  0  0
   -2.4042    0.6903    2.5492 H   0  0  0  0  0  0  0  0  0  0  0  0
   -2.7315    2.2835    1.8456 H   0  0  0  0  0  0  0  0  0  0  0  0
   -3.0359    1.2649   -0.3952 H   0  0  0  0  0  0  0  0  0  0  0  0
   -3.8862   -0.9376    0.2838 H   0  0  0  0  0  0  0  0  0  0  0  0
   -2.3423   -1.3550    1.0251 H   0  0  0  0  0  0  0  0  0  0  0  0
   -2.8450   -0.7871   -1.9404 H   0  0  0  0  0  0  0  0  0  0  0  0
   -3.6429   -3.0118   -1.1856 H   0  0  0  0  0  0  0  0  0  0  0  0
   -2.0476   -3.3765   -0.5050 H   0  0  0  0  0  0  0  0  0  0  0  0
   -2.2417   -3.1727   -2.2546 H   0  0  0  0  0  0  0  0  0  0  0  0
   -0.2228   -1.5620   -0.5539 H   0  0  0  0  0  0  0  0  0  0  0  0
   -0.4826   -1.3519   -2.2987 H   0  0  0  0  0  0  0  0  0  0  0  0
    2.6943    2.2918    0.5150 H   0  0  0  0  0  0  0  0  0  0  0  0
    5.2346    2.3595    3.0710 H   0  0  0  0  0  0  0  0  0  0  0  0
   -0.7994    2.0432    0.2226 H   0  0  0  0  0  0  0  0  0  0  0  0
   -0.3919    0.4789    0.9529 H   0  0  0  0  0  0  0  0  0  0  0  0
  1  2  1  0
  2  3  1  0
  3  4  1  0
  4  5  1  0
  4  6  1  0
  6  7  1  0
  7  8  1  0
  8  9  2  0
  8 10  2  0
  8 11  1  0
 11 12  2  0
 12 13  1  0
 13 14  1  0
 14 15  2  0
 14 16  1  0
 13 17  2  0
 17 18  1  0
 17 19  1  0
  7 20  1  0
 20  2  1  0
 19 11  1  0
  1 21  1  0
  1 22  1  0
  1 23  1  0
  2 24  1  0
  3 25  1  0
  3 26  1  0
  4 27  1  0
  5 28  1  0
  5 29  1  0
  5 30  1  0
  6 31  1  0
  6 32  1  0
 12 33  1  0
 16 34  1  0
 20 35  1  0
 20 36  1  0
M  END
$$$$
