
     RDKit          3D

 59 62  0  0  0  0  0  0  0  0999 V2000
    4.7880   -0.1350   -4.1650 C   0  0  0  0  0  0  0  0  0  0  0  0
    5.1227   -1.1393   -3.2114 O   0  0  0  0  0  0  0  0  0  0  0  0
    4.6222   -0.8666   -1.9640 C   0  0  0  0  0  0  0  0  0  0  0  0
    3.2499   -0.7228   -1.7480 C   0  0  0  0  0  0  0  0  0  0  0  0
    2.7561   -0.4947   -0.4581 C   0  0  0  0  0  0  0  0  0  0  0  0
    1.3556   -0.3559   -0.3225 N   0  0  0  0  0  0  0  0  0  0  0  0
    0.6376   -0.2469    0.8546 C   0  0  0  0  0  0  0  0  0  0  0  0
    1.0727   -0.3008    1.9974 O   0  0  0  0  0  0  0  0  0  0  0  0
   -0.8190   -0.0780    0.6721 C   0  0  0  0  0  0  0  0  0  0  0  0
   -1.3468    0.8144   -0.2706 C   0  0  0  0  0  0  0  0  0  0  0  0
   -2.7326    0.9528   -0.3920 C   0  0  0  0  0  0  0  0  0  0  0  0
   -3.3438    1.9075   -1.3460 C   0  0  0  0  0  0  0  0  0  0  0  0
   -4.5486    2.5631   -1.0294 C   0  0  0  0  0  0  0  0  0  0  0  0
   -5.1340    3.4841   -1.9041 C   0  0  0  0  0  0  0  0  0  0  0  0
   -4.5279    3.7683   -3.1232 C   0  0  0  0  0  0  0  0  0  0  0  0
   -3.3440    3.1254   -3.4701 C   0  0  0  0  0  0  0  0  0  0  0  0
   -2.7602    2.2038   -2.5927 C   0  0  0  0  0  0  0  0  0  0  0  0
   -3.6188    0.2564    0.3630 N   0  0  0  0  0  0  0  0  0  0  0  0
   -3.0638   -0.5739    1.2667 C   0  0  0  0  0  0  0  0  0  0  0  0
   -1.7129   -0.7866    1.4822 C   0  0  0  0  0  0  0  0  0  0  0  0
   -1.6663   -1.7319    2.5285 C   0  0  0  0  0  0  0  0  0  0  0  0
   -2.8810   -2.1126    2.9368 N   0  0  0  0  0  0  0  0  0  0  0  0
   -3.7189   -1.3814    2.1614 N   0  0  0  0  0  0  0  0  0  0  0  0
   -5.1631   -1.5143    2.3065 C   0  0  0  0  0  0  0  0  0  0  0  0
   -5.6427   -2.8725    1.7960 C   0  0  0  0  0  0  0  0  0  0  0  0
   -5.6138   -1.2733    3.7465 C   0  0  0  0  0  0  0  0  0  0  0  0
    3.6535   -0.4144    0.6138 C   0  0  0  0  0  0  0  0  0  0  0  0
    5.0309   -0.5800    0.4159 C   0  0  0  0  0  0  0  0  0  0  0  0
    5.9745   -0.5384    1.4106 O   0  0  0  0  0  0  0  0  0  0  0  0
    5.5223   -0.2815    2.7328 C   0  0  0  0  0  0  0  0  0  0  0  0
    5.5088   -0.8041   -0.8840 C   0  0  0  0  0  0  0  0  0  0  0  0
    6.8482   -1.0251   -1.1054 O   0  0  0  0  0  0  0  0  0  0  0  0
    7.5378    0.2158   -1.2358 C   0  0  0  0  0  0  0  0  0  0  0  0
    4.9684    0.8711   -3.7722 H   0  0  0  0  0  0  0  0  0  0  0  0
    3.7500   -0.2378   -4.4953 H   0  0  0  0  0  0  0  0  0  0  0  0
    5.4317   -0.2761   -5.0375 H   0  0  0  0  0  0  0  0  0  0  0  0
    2.5684   -0.8243   -2.5861 H   0  0  0  0  0  0  0  0  0  0  0  0
    0.8230   -0.4349   -1.1798 H   0  0  0  0  0  0  0  0  0  0  0  0
   -0.6787    1.4321   -0.8633 H   0  0  0  0  0  0  0  0  0  0  0  0
   -5.0416    2.3601   -0.0791 H   0  0  0  0  0  0  0  0  0  0  0  0
   -6.0617    3.9784   -1.6286 H   0  0  0  0  0  0  0  0  0  0  0  0
   -4.9817    4.4852   -3.8033 H   0  0  0  0  0  0  0  0  0  0  0  0
   -2.8739    3.3376   -4.4277 H   0  0  0  0  0  0  0  0  0  0  0  0
   -1.8455    1.7097   -2.9099 H   0  0  0  0  0  0  0  0  0  0  0  0
   -0.7925   -2.1610    3.0048 H   0  0  0  0  0  0  0  0  0  0  0  0
   -5.6173   -0.7368    1.6806 H   0  0  0  0  0  0  0  0  0  0  0  0
   -5.3390   -3.0265    0.7549 H   0  0  0  0  0  0  0  0  0  0  0  0
   -6.7342   -2.9410    1.8424 H   0  0  0  0  0  0  0  0  0  0  0  0
   -5.2267   -3.6951    2.3884 H   0  0  0  0  0  0  0  0  0  0  0  0
   -5.2505   -2.0573    4.4189 H   0  0  0  0  0  0  0  0  0  0  0  0
   -5.2388   -0.3155    4.1201 H   0  0  0  0  0  0  0  0  0  0  0  0
   -6.7062   -1.2584    3.8119 H   0  0  0  0  0  0  0  0  0  0  0  0
    3.2778   -0.2295    1.6111 H   0  0  0  0  0  0  0  0  0  0  0  0
    6.3995   -0.2603    3.3859 H   0  0  0  0  0  0  0  0  0  0  0  0
    4.8624   -1.0771    3.0882 H   0  0  0  0  0  0  0  0  0  0  0  0
    5.0366    0.6980    2.7997 H   0  0  0  0  0  0  0  0  0  0  0  0
    7.1738    0.7799   -2.1011 H   0  0  0  0  0  0  0  0  0  0  0  0
    7.4587    0.8241   -0.3296 H   0  0  0  0  0  0  0  0  0  0  0  0
    8.5958   -0.0059   -1.3995 H   0  0  0  0  0  0  0  0  0  0  0  0
  1  2  1  0
  2  3  1  0
  3  4  2  0
  4  5  1  0
  5  6  1  0
  6  7  1  0
  7  8  2  0
  7  9  1  0
  9 10  2  0
 10 11  1  0
 11 12  1  0
 12 13  2  0
 13 14  1  0
 14 15  2  0
 15 16  1  0
 16 17  2  0
 11 18  2  0
 18 19  1  0
 19 20  2  0
 20 21  1  0
 21 22  2  0
 22 23  1  0
 23 24  1  0
 24 25  1  0
 24 26  1  0
  5 27  2  0
 27 28  1  0
 28 29  1  0
 29 30  1  0
 28 31  2  0
 31 32  1  0
 32 33  1  0
 31  3  1  0
 20  9  1  0
 17 12  1  0
 23 19  1  0
  1 34  1  0
  1 35  1  0
  1 36  1  0
  4 37  1  0
  6 38  1  0
 10 39  1  0
 13 40  1  0
 14 41  1  0
 15 42  1  0
 16 43  1  0
 17 44  1  0
 21 45  1  0
 24 46  1  0
 25 47  1  0
 25 48  1  0
 25 49  1  0
 26 50  1  0
 26 51  1  0
 26 52  1  0
 27 53  1  0
 30 54  1  0
 30 55  1  0
 30 56  1  0
 33 57  1  0
 33 58  1  0
 33 59  1  0
M  END
$$$$
