
     RDKit          3D

 68 71  0  0  0  0  0  0  0  0999 V2000
    4.8433    3.2408   -2.9654 C   0  0  0  0  0  0  0  0  0  0  0  0
    3.3864    3.8758   -2.0962 S   0  0  0  0  0  0  0  0  0  0  0  0
    3.2359    2.6086   -0.7904 C   0  0  0  0  0  0  0  0  0  0  0  0
    2.7034    1.2848   -1.3435 C   0  0  0  0  0  0  0  0  0  0  0  0
    2.5991    0.1804   -0.2776 C   0  0  0  0  0  0  0  0  0  0  0  0
    3.8891   -0.0778    0.3599 N   0  0  0  0  0  0  0  0  0  0  0  0
    4.8776   -0.8063   -0.2526 C   0  0  0  0  0  0  0  0  0  0  0  0
    4.8039   -1.2526   -1.3882 O   0  0  0  0  0  0  0  0  0  0  0  0
    6.0981   -0.9891    0.5535 C   0  0  0  0  0  0  0  0  0  0  0  0
    6.8530    0.1484    0.8765 C   0  0  0  0  0  0  0  0  0  0  0  0
    8.0262    0.0149    1.6194 C   0  0  0  0  0  0  0  0  0  0  0  0
    8.4435   -1.2483    2.0399 C   0  0  0  0  0  0  0  0  0  0  0  0
    7.6883   -2.3803    1.7203 C   0  0  0  0  0  0  0  0  0  0  0  0
    6.5126   -2.2562    0.9735 C   0  0  0  0  0  0  0  0  0  0  0  0
    5.6023   -3.6882    0.6524 Cl  0  0  0  0  0  0  0  0  0  0  0  0
    1.5916    0.5482    0.8323 C   0  0  0  0  0  0  0  0  0  0  0  0
    2.0108    1.0145    1.8991 O   0  0  0  0  0  0  0  0  0  0  0  0
    0.2388    0.3822    0.5903 N   0  0  0  0  0  0  0  0  0  0  0  0
   -0.7089    0.7540    1.6422 C   0  0  0  0  0  0  0  0  0  0  0  0
   -2.0465    0.0003    1.5259 C   0  0  0  0  0  0  0  0  0  0  0  0
   -2.7335    0.2166    0.2318 N   0  0  0  0  0  0  0  0  0  0  0  0
   -3.8376   -0.7630    0.0061 C   0  0  0  0  0  0  0  0  0  0  0  0
   -4.7939   -0.8985    1.1984 C   0  0  0  0  0  0  0  0  0  0  0  0
   -5.0440   -2.1643    1.7574 C   0  0  0  0  0  0  0  0  0  0  0  0
   -5.9182   -2.3060    2.8370 C   0  0  0  0  0  0  0  0  0  0  0  0
   -6.5562   -1.1882    3.3709 C   0  0  0  0  0  0  0  0  0  0  0  0
   -6.3236    0.0726    2.8257 C   0  0  0  0  0  0  0  0  0  0  0  0
   -5.4514    0.2171    1.7457 C   0  0  0  0  0  0  0  0  0  0  0  0
   -4.6503   -0.4879   -1.2689 C   0  0  0  0  0  0  0  0  0  0  0  0
   -4.9665    0.8177   -1.6828 C   0  0  0  0  0  0  0  0  0  0  0  0
   -5.7206    1.0386   -2.8367 C   0  0  0  0  0  0  0  0  0  0  0  0
   -6.1778   -0.0406   -3.5890 C   0  0  0  0  0  0  0  0  0  0  0  0
   -5.8847   -1.3418   -3.1878 C   0  0  0  0  0  0  0  0  0  0  0  0
   -5.1293   -1.5653   -2.0349 C   0  0  0  0  0  0  0  0  0  0  0  0
   -1.7646    0.2471   -0.8920 C   0  0  0  0  0  0  0  0  0  0  0  0
   -0.3476   -0.2748   -0.5798 C   0  0  0  0  0  0  0  0  0  0  0  0
    4.6198    2.2946   -3.4633 H   0  0  0  0  0  0  0  0  0  0  0  0
    5.6766    3.1059   -2.2703 H   0  0  0  0  0  0  0  0  0  0  0  0
    5.1436    3.9634   -3.7293 H   0  0  0  0  0  0  0  0  0  0  0  0
    4.2099    2.4895   -0.3063 H   0  0  0  0  0  0  0  0  0  0  0  0
    2.5450    3.0088   -0.0416 H   0  0  0  0  0  0  0  0  0  0  0  0
    3.3574    0.9249   -2.1460 H   0  0  0  0  0  0  0  0  0  0  0  0
    1.7203    1.4631   -1.7945 H   0  0  0  0  0  0  0  0  0  0  0  0
    2.2889   -0.7605   -0.7450 H   0  0  0  0  0  0  0  0  0  0  0  0
    3.9837    0.2194    1.3288 H   0  0  0  0  0  0  0  0  0  0  0  0
    6.5404    1.1330    0.5357 H   0  0  0  0  0  0  0  0  0  0  0  0
    8.6186    0.8940    1.8655 H   0  0  0  0  0  0  0  0  0  0  0  0
    9.3595   -1.3534    2.6178 H   0  0  0  0  0  0  0  0  0  0  0  0
    8.0210   -3.3584    2.0609 H   0  0  0  0  0  0  0  0  0  0  0  0
   -0.8720    1.8362    1.5632 H   0  0  0  0  0  0  0  0  0  0  0  0
   -0.2655    0.5591    2.6257 H   0  0  0  0  0  0  0  0  0  0  0  0
   -1.8495   -1.0701    1.6761 H   0  0  0  0  0  0  0  0  0  0  0  0
   -2.6839    0.3390    2.3493 H   0  0  0  0  0  0  0  0  0  0  0  0
   -3.3483   -1.7386   -0.1353 H   0  0  0  0  0  0  0  0  0  0  0  0
   -4.5606   -3.0512    1.3532 H   0  0  0  0  0  0  0  0  0  0  0  0
   -6.1044   -3.2896    3.2607 H   0  0  0  0  0  0  0  0  0  0  0  0
   -7.2375   -1.2993    4.2102 H   0  0  0  0  0  0  0  0  0  0  0  0
   -6.8214    0.9454    3.2404 H   0  0  0  0  0  0  0  0  0  0  0  0
   -5.2767    1.2090    1.3344 H   0  0  0  0  0  0  0  0  0  0  0  0
   -4.6206    1.6719   -1.1045 H   0  0  0  0  0  0  0  0  0  0  0  0
   -5.9543    2.0543   -3.1445 H   0  0  0  0  0  0  0  0  0  0  0  0
   -6.7688    0.1319   -4.4843 H   0  0  0  0  0  0  0  0  0  0  0  0
   -6.2509   -2.1837   -3.7685 H   0  0  0  0  0  0  0  0  0  0  0  0
   -4.9222   -2.5893   -1.7322 H   0  0  0  0  0  0  0  0  0  0  0  0
   -2.1268   -0.2864   -1.7776 H   0  0  0  0  0  0  0  0  0  0  0  0
   -1.6745    1.2992   -1.1922 H   0  0  0  0  0  0  0  0  0  0  0  0
    0.2856   -0.1457   -1.4589 H   0  0  0  0  0  0  0  0  0  0  0  0
   -0.3809   -1.3495   -0.3627 H   0  0  0  0  0  0  0  0  0  0  0  0
  1  2  1  0
  2  3  1  0
  3  4  1  0
  4  5  1  0
  5  6  1  0
  6  7  1  0
  7  8  2  0
  7  9  1  0
  9 10  2  0
 10 11  1  0
 11 12  2  0
 12 13  1  0
 13 14  2  0
 14 15  1  0
  5 16  1  0
 16 17  2  0
 16 18  1  0
 18 19  1  0
 19 20  1  0
 20 21  1  0
 21 22  1  0
 22 23  1  0
 23 24  2  0
 24 25  1  0
 25 26  2  0
 26 27  1  0
 27 28  2  0
 22 29  1  0
 29 30  2  0
 30 31  1  0
 31 32  2  0
 32 33  1  0
 33 34  2  0
 21 35  1  0
 35 36  1  0
 14  9  1  0
 36 18  1  0
 28 23  1  0
 34 29  1  0
  1 37  1  0
  1 38  1  0
  1 39  1  0
  3 40  1  0
  3 41  1  0
  4 42  1  0
  4 43  1  0
  5 44  1  0
  6 45  1  0
 10 46  1  0
 11 47  1  0
 12 48  1  0
 13 49  1  0
 19 50  1  0
 19 51  1  0
 20 52  1  0
 20 53  1  0
 22 54  1  0
 24 55  1  0
 25 56  1  0
 26 57  1  0
 27 58  1  0
 28 59  1  0
 30 60  1  0
 31 61  1  0
 32 62  1  0
 33 63  1  0
 34 64  1  0
 35 65  1  0
 35 66  1  0
 36 67  1  0
 36 68  1  0
M  END
$$$$
