
     RDKit          3D

 42 46  0  0  0  0  0  0  0  0999 V2000
   -1.9447   -0.0372   -2.9353 O   0  0  0  0  0  0  0  0  0  0  0  0
   -1.9643   -0.0025   -1.7015 C   0  0  0  0  0  0  0  0  0  0  0  0
   -2.8260   -0.9862   -1.0026 C   0  0  0  0  0  0  0  0  0  0  0  0
   -3.7016   -0.6060    0.0194 C   0  0  0  0  0  0  0  0  0  0  0  0
   -4.5128   -1.5648    0.6301 C   0  0  0  0  0  0  0  0  0  0  0  0
   -4.4601   -2.8955    0.2131 C   0  0  0  0  0  0  0  0  0  0  0  0
   -3.6023   -3.2720   -0.8203 C   0  0  0  0  0  0  0  0  0  0  0  0
   -2.7898   -2.3178   -1.4332 C   0  0  0  0  0  0  0  0  0  0  0  0
   -1.1407    1.0088   -0.8688 C   0  0  0  0  0  0  0  0  0  0  0  0
   -1.2694    0.9201    0.5471 O   0  0  0  0  0  0  0  0  0  0  0  0
   -0.4842    1.8122    1.2316 C   0  0  0  0  0  0  0  0  0  0  0  0
   -0.8814    2.1165    2.5328 C   0  0  0  0  0  0  0  0  0  0  0  0
   -0.1464    3.0280    3.2891 C   0  0  0  0  0  0  0  0  0  0  0  0
    0.9869    3.6303    2.7449 C   0  0  0  0  0  0  0  0  0  0  0  0
    1.3975    3.3095    1.4494 C   0  0  0  0  0  0  0  0  0  0  0  0
    0.6769    2.3784    0.6868 C   0  0  0  0  0  0  0  0  0  0  0  0
    1.1186    1.9946   -0.7059 C   0  0  0  0  0  0  0  0  0  0  0  0
    2.5155    1.3942   -0.7815 C   0  0  0  0  0  0  0  0  0  0  0  0
    2.1619   -0.0633   -0.8899 C   0  0  0  0  0  0  0  0  0  0  0  0
    3.1199   -1.1354   -0.7572 C   0  0  0  0  0  0  0  0  0  0  0  0
    2.8731   -2.4950   -0.8191 C   0  0  0  0  0  0  0  0  0  0  0  0
    4.0522   -3.2761   -0.6497 C   0  0  0  0  0  0  0  0  0  0  0  0
    5.1655   -2.4884   -0.4655 C   0  0  0  0  0  0  0  0  0  0  0  0
    4.7831   -0.8228   -0.4991 S   0  0  0  0  0  0  0  0  0  0  0  0
    0.9061   -0.2977   -1.1373 N   0  0  0  0  0  0  0  0  0  0  0  0
    0.2734    0.9311   -1.2274 N   0  0  0  0  0  0  0  0  0  0  0  0
   -3.7727    0.4284    0.3432 H   0  0  0  0  0  0  0  0  0  0  0  0
   -5.1910   -1.2738    1.4285 H   0  0  0  0  0  0  0  0  0  0  0  0
   -5.0940   -3.6395    0.6893 H   0  0  0  0  0  0  0  0  0  0  0  0
   -3.5681   -4.3067   -1.1518 H   0  0  0  0  0  0  0  0  0  0  0  0
   -2.1257   -2.6096   -2.2445 H   0  0  0  0  0  0  0  0  0  0  0  0
   -1.5153    1.9937   -1.1850 H   0  0  0  0  0  0  0  0  0  0  0  0
   -1.7668    1.6489    2.9545 H   0  0  0  0  0  0  0  0  0  0  0  0
   -0.4593    3.2703    4.3014 H   0  0  0  0  0  0  0  0  0  0  0  0
    1.5556    4.3459    3.3339 H   0  0  0  0  0  0  0  0  0  0  0  0
    2.2877    3.7863    1.0451 H   0  0  0  0  0  0  0  0  0  0  0  0
    1.0163    2.8674   -1.3611 H   0  0  0  0  0  0  0  0  0  0  0  0
    3.0258    1.6918   -1.7041 H   0  0  0  0  0  0  0  0  0  0  0  0
    3.1515    1.6088    0.0799 H   0  0  0  0  0  0  0  0  0  0  0  0
    1.8824   -2.9060   -0.9806 H   0  0  0  0  0  0  0  0  0  0  0  0
    4.0801   -4.3588   -0.6639 H   0  0  0  0  0  0  0  0  0  0  0  0
    6.1867   -2.8105   -0.3141 H   0  0  0  0  0  0  0  0  0  0  0  0
  1  2  2  0
  2  3  1  0
  3  4  2  0
  4  5  1  0
  5  6  2  0
  6  7  1  0
  7  8  2  0
  2  9  1  0
  9 10  1  0
 10 11  1  0
 11 12  2  0
 12 13  1  0
 13 14  2  0
 14 15  1  0
 15 16  2  0
 16 17  1  0
 17 18  1  0
 18 19  1  0
 19 20  1  0
 20 21  2  0
 21 22  1  0
 22 23  2  0
 23 24  1  0
 19 25  2  0
 25 26  1  0
  8  3  1  0
 26  9  1  0
 16 11  1  0
 26 17  1  0
 24 20  1  0
  4 27  1  0
  5 28  1  0
  6 29  1  0
  7 30  1  0
  8 31  1  0
  9 32  1  0
 12 33  1  0
 13 34  1  0
 14 35  1  0
 15 36  1  0
 17 37  1  0
 18 38  1  0
 18 39  1  0
 21 40  1  0
 22 41  1  0
 23 42  1  0
M  END
$$$$
