
     RDKit          3D

 39 41  0  0  0  0  0  0  0  0999 V2000
   -1.1546    1.5250   -1.4190 O   0  0  0  0  0  0  0  0  0  0  0  0
   -1.3180    1.4117   -0.2069 C   0  0  0  0  0  0  0  0  0  0  0  0
   -2.4667    0.6403    0.4457 C   0  0  0  0  0  0  0  0  0  0  0  0
   -3.2401   -0.0441   -0.5266 O   0  0  0  0  0  0  0  0  0  0  0  0
   -4.3029   -0.7944   -0.0989 C   0  0  0  0  0  0  0  0  0  0  0  0
   -4.7191   -0.8944    1.2333 C   0  0  0  0  0  0  0  0  0  0  0  0
   -5.8216   -1.6873    1.5715 C   0  0  0  0  0  0  0  0  0  0  0  0
   -6.5128   -2.3822    0.5816 C   0  0  0  0  0  0  0  0  0  0  0  0
   -7.8662   -3.3537    1.0091 Cl  0  0  0  0  0  0  0  0  0  0  0  0
   -6.1153   -2.2946   -0.7475 C   0  0  0  0  0  0  0  0  0  0  0  0
   -5.0146   -1.5029   -1.0844 C   0  0  0  0  0  0  0  0  0  0  0  0
   -4.5582   -1.4284   -2.7514 Cl  0  0  0  0  0  0  0  0  0  0  0  0
   -0.4651    1.9989    0.7248 N   0  0  0  0  0  0  0  0  0  0  0  0
    0.7534    2.4874    0.2035 N   0  0  0  0  0  0  0  0  0  0  0  0
    1.8193    1.6094    0.0989 C   0  0  0  0  0  0  0  0  0  0  0  0
    1.8307    0.4724    0.5507 O   0  0  0  0  0  0  0  0  0  0  0  0
    2.9509    2.2993   -0.5874 C   0  0  0  0  0  0  0  0  0  0  0  0
    4.1419    1.7880   -0.9298 C   0  0  0  0  0  0  0  0  0  0  0  0
    4.5809    0.4060   -0.7233 C   0  0  0  0  0  0  0  0  0  0  0  0
    3.9796   -0.6554   -1.4113 C   0  0  0  0  0  0  0  0  0  0  0  0
    4.4270   -1.9649   -1.2163 C   0  0  0  0  0  0  0  0  0  0  0  0
    5.4816   -2.2130   -0.3404 C   0  0  0  0  0  0  0  0  0  0  0  0
    6.0334   -3.8247   -0.1001 Cl  0  0  0  0  0  0  0  0  0  0  0  0
    6.0953   -1.1630    0.3399 C   0  0  0  0  0  0  0  0  0  0  0  0
    5.6474    0.1465    0.1459 C   0  0  0  0  0  0  0  0  0  0  0  0
    2.5305    3.9548   -0.8999 S   0  0  0  0  0  0  0  0  0  0  0  0
    0.9087    3.7846   -0.2348 C   0  0  0  0  0  0  0  0  0  0  0  0
   -0.1831    5.0413   -0.1369 S   0  0  0  0  0  0  0  0  0  0  0  0
   -3.0864    1.3733    0.9759 H   0  0  0  0  0  0  0  0  0  0  0  0
   -2.0280   -0.0778    1.1489 H   0  0  0  0  0  0  0  0  0  0  0  0
   -4.2140   -0.3688    2.0368 H   0  0  0  0  0  0  0  0  0  0  0  0
   -6.1364   -1.7570    2.6103 H   0  0  0  0  0  0  0  0  0  0  0  0
   -6.6558   -2.8370   -1.5183 H   0  0  0  0  0  0  0  0  0  0  0  0
   -0.3659    1.5419    1.6271 H   0  0  0  0  0  0  0  0  0  0  0  0
    4.8882    2.4206   -1.4079 H   0  0  0  0  0  0  0  0  0  0  0  0
    3.1543   -0.4766   -2.0973 H   0  0  0  0  0  0  0  0  0  0  0  0
    3.9469   -2.7822   -1.7476 H   0  0  0  0  0  0  0  0  0  0  0  0
    6.9198   -1.3562    1.0209 H   0  0  0  0  0  0  0  0  0  0  0  0
    6.1348    0.9575    0.6825 H   0  0  0  0  0  0  0  0  0  0  0  0
  1  2  2  0
  2  3  1  0
  3  4  1  0
  4  5  1  0
  5  6  2  0
  6  7  1  0
  7  8  2  0
  8  9  1  0
  8 10  1  0
 10 11  2  0
 11 12  1  0
  2 13  1  0
 13 14  1  0
 14 15  1  0
 15 16  2  0
 15 17  1  0
 17 18  2  3
 18 19  1  0
 19 20  2  0
 20 21  1  0
 21 22  2  0
 22 23  1  0
 22 24  1  0
 24 25  2  0
 17 26  1  0
 26 27  1  0
 27 28  2  0
 11  5  1  0
 27 14  1  0
 25 19  1  0
  3 29  1  0
  3 30  1  0
  6 31  1  0
  7 32  1  0
 10 33  1  0
 13 34  1  0
 18 35  1  0
 20 36  1  0
 21 37  1  0
 24 38  1  0
 25 39  1  0
M  END
$$$$
