
     RDKit          3D

 47 49  0  0  0  0  0  0  0  0999 V2000
    7.3419   -0.1157   -3.3972 C   0  0  0  0  0  0  0  0  0  0  0  0
    6.0840   -0.4012   -2.7999 O   0  0  0  0  0  0  0  0  0  0  0  0
    5.3536    0.6652   -2.3494 C   0  0  0  0  0  0  0  0  0  0  0  0
    5.6951    2.0087   -2.4981 C   0  0  0  0  0  0  0  0  0  0  0  0
    4.8411    3.0010   -2.0154 C   0  0  0  0  0  0  0  0  0  0  0  0
    3.6509    2.6521   -1.3749 C   0  0  0  0  0  0  0  0  0  0  0  0
    3.3103    1.3077   -1.1908 C   0  0  0  0  0  0  0  0  0  0  0  0
    2.0733    1.0337   -0.5657 N   0  0  0  0  0  0  0  0  0  0  0  0
    1.6311   -0.0935    0.1164 C   0  0  0  0  0  0  0  0  0  0  0  0
    2.6414   -1.2087    0.8722 S   0  0  0  0  0  0  0  0  0  0  0  0
    0.2186   -0.1672    0.1708 N   0  0  0  0  0  0  0  0  0  0  0  0
   -0.6429    0.6197   -0.7294 C   0  0  0  0  0  0  0  0  0  0  0  0
   -1.9473   -0.0832   -1.1026 C   0  0  0  0  0  0  0  0  0  0  0  0
   -2.6917   -0.4584    0.1464 C   0  0  0  0  0  0  0  0  0  0  0  0
   -4.0892   -0.3978    0.2154 C   0  0  0  0  0  0  0  0  0  0  0  0
   -4.7569   -0.7630    1.3895 C   0  0  0  0  0  0  0  0  0  0  0  0
   -6.1203   -0.7249    1.5507 O   0  0  0  0  0  0  0  0  0  0  0  0
   -6.9061   -0.3222    0.4389 C   0  0  0  0  0  0  0  0  0  0  0  0
   -4.0150   -1.2058    2.5031 C   0  0  0  0  0  0  0  0  0  0  0  0
   -4.7448   -1.5489    3.6150 O   0  0  0  0  0  0  0  0  0  0  0  0
   -4.0333   -1.9832    4.7646 C   0  0  0  0  0  0  0  0  0  0  0  0
   -2.6194   -1.2818    2.4192 C   0  0  0  0  0  0  0  0  0  0  0  0
   -1.9493   -0.9034    1.2462 C   0  0  0  0  0  0  0  0  0  0  0  0
   -0.4496   -1.0585    1.1407 C   0  0  0  0  0  0  0  0  0  0  0  0
    4.1584    0.3236   -1.7030 C   0  0  0  0  0  0  0  0  0  0  0  0
    8.0075    0.3960   -2.6940 H   0  0  0  0  0  0  0  0  0  0  0  0
    7.8092   -1.0685   -3.6643 H   0  0  0  0  0  0  0  0  0  0  0  0
    7.2179    0.4636   -4.3180 H   0  0  0  0  0  0  0  0  0  0  0  0
    6.6097    2.3164   -2.9932 H   0  0  0  0  0  0  0  0  0  0  0  0
    5.1034    4.0487   -2.1392 H   0  0  0  0  0  0  0  0  0  0  0  0
    3.0055    3.4457   -1.0080 H   0  0  0  0  0  0  0  0  0  0  0  0
    1.4946    1.8457   -0.3991 H   0  0  0  0  0  0  0  0  0  0  0  0
   -0.8543    1.5646   -0.2126 H   0  0  0  0  0  0  0  0  0  0  0  0
   -0.1025    0.8587   -1.6516 H   0  0  0  0  0  0  0  0  0  0  0  0
   -1.7427   -0.9927   -1.6799 H   0  0  0  0  0  0  0  0  0  0  0  0
   -2.5497    0.5864   -1.7268 H   0  0  0  0  0  0  0  0  0  0  0  0
   -4.6347   -0.0598   -0.6592 H   0  0  0  0  0  0  0  0  0  0  0  0
   -6.7735   -1.0042   -0.4075 H   0  0  0  0  0  0  0  0  0  0  0  0
   -7.9575   -0.3665    0.7387 H   0  0  0  0  0  0  0  0  0  0  0  0
   -6.6859    0.7117    0.1536 H   0  0  0  0  0  0  0  0  0  0  0  0
   -3.3655   -1.1992    5.1366 H   0  0  0  0  0  0  0  0  0  0  0  0
   -3.4848   -2.9091    4.5628 H   0  0  0  0  0  0  0  0  0  0  0  0
   -4.7649   -2.1958    5.5501 H   0  0  0  0  0  0  0  0  0  0  0  0
   -2.0272   -1.6412    3.2548 H   0  0  0  0  0  0  0  0  0  0  0  0
   -0.2359   -2.0934    0.8472 H   0  0  0  0  0  0  0  0  0  0  0  0
   -0.0012   -0.8728    2.1240 H   0  0  0  0  0  0  0  0  0  0  0  0
    3.8986   -0.7286   -1.6441 H   0  0  0  0  0  0  0  0  0  0  0  0
  1  2  1  0
  2  3  1  0
  3  4  2  0
  4  5  1  0
  5  6  2  0
  6  7  1  0
  7  8  1  0
  8  9  1  0
  9 10  2  0
  9 11  1  0
 11 12  1  0
 12 13  1  0
 13 14  1  0
 14 15  2  0
 15 16  1  0
 16 17  1  0
 17 18  1  0
 16 19  2  0
 19 20  1  0
 20 21  1  0
 19 22  1  0
 22 23  2  0
 23 24  1  0
  7 25  2  0
 25  3  1  0
 24 11  1  0
 23 14  1  0
  1 26  1  0
  1 27  1  0
  1 28  1  0
  4 29  1  0
  5 30  1  0
  6 31  1  0
  8 32  1  0
 12 33  1  0
 12 34  1  0
 13 35  1  0
 13 36  1  0
 15 37  1  0
 18 38  1  0
 18 39  1  0
 18 40  1  0
 21 41  1  0
 21 42  1  0
 21 43  1  0
 22 44  1  0
 24 45  1  0
 24 46  1  0
 25 47  1  0
M  END
$$$$
