
     RDKit          3D

 50 52  0  0  0  0  0  0  0  0999 V2000
   -6.6879    0.3201    0.3544 C   0  0  0  0  0  0  0  0  0  0  0  0
   -5.2713    0.7444    0.7432 C   0  0  0  0  0  0  0  0  0  0  0  0
   -4.3807    0.8332   -0.5071 C   0  0  0  0  0  0  0  0  0  0  0  0
   -2.9012    0.7028   -0.1593 C   0  0  0  0  0  0  0  0  0  0  0  0
   -2.6122   -0.5693    0.5114 N   0  0  0  0  0  0  0  0  0  0  0  0
   -1.4447   -1.3051    0.3314 C   0  0  0  0  0  0  0  0  0  0  0  0
   -1.3177   -2.4816    0.6612 O   0  0  0  0  0  0  0  0  0  0  0  0
   -0.2692   -0.6527   -0.2843 C   0  0  0  0  0  0  0  0  0  0  0  0
    0.2632    0.5230    0.2554 C   0  0  0  0  0  0  0  0  0  0  0  0
    1.4010    1.0998   -0.3158 C   0  0  0  0  0  0  0  0  0  0  0  0
    2.0353    0.4839   -1.4076 C   0  0  0  0  0  0  0  0  0  0  0  0
    3.4132    1.3263   -2.1607 S   0  0  0  0  0  6  0  0  0  0  0  0
    3.3118    1.0692   -3.5847 O   0  0  0  0  0  0  0  0  0  0  0  0
    3.3411    2.7014   -1.6984 O   0  0  0  0  0  0  0  0  0  0  0  0
    4.9193    0.5871   -1.5376 C   0  0  0  0  0  0  0  0  0  0  0  0
    4.8030    0.2587   -0.0758 C   0  0  0  0  0  0  0  0  0  0  0  0
    4.5467   -1.0526    0.3523 C   0  0  0  0  0  0  0  0  0  0  0  0
    4.4053   -1.3373    1.7128 C   0  0  0  0  0  0  0  0  0  0  0  0
    4.5301   -0.3214    2.6600 C   0  0  0  0  0  0  0  0  0  0  0  0
    4.8047    0.9803    2.2478 C   0  0  0  0  0  0  0  0  0  0  0  0
    4.9421    1.2578    0.8916 C   0  0  0  0  0  0  0  0  0  0  0  0
    5.2144    2.5134    0.5151 F   0  0  0  0  0  0  0  0  0  0  0  0
    1.4959   -0.6955   -1.9295 C   0  0  0  0  0  0  0  0  0  0  0  0
    2.1253   -1.4154   -3.0178 N   0  0  0  0  0  4  0  0  0  0  0  0
    1.4304   -1.6625   -4.0099 O   0  0  0  0  0  0  0  0  0  0  0  0
    3.2896   -1.7906   -2.8288 O   0  0  0  0  0  1  0  0  0  0  0  0
    0.3511   -1.2780   -1.3684 C   0  0  0  0  0  0  0  0  0  0  0  0
   -3.7149   -1.2122    1.2242 C   0  0  0  0  0  0  0  0  0  0  0  0
   -4.6786   -0.1886    1.8142 C   0  0  0  0  0  0  0  0  0  0  0  0
   -7.1049    1.0004   -0.3956 H   0  0  0  0  0  0  0  0  0  0  0  0
   -6.7002   -0.6935   -0.0605 H   0  0  0  0  0  0  0  0  0  0  0  0
   -7.3511    0.3368    1.2258 H   0  0  0  0  0  0  0  0  0  0  0  0
   -5.3446    1.7468    1.1860 H   0  0  0  0  0  0  0  0  0  0  0  0
   -4.5619    1.7848   -1.0207 H   0  0  0  0  0  0  0  0  0  0  0  0
   -4.6464    0.0385   -1.2169 H   0  0  0  0  0  0  0  0  0  0  0  0
   -2.3056    0.7902   -1.0731 H   0  0  0  0  0  0  0  0  0  0  0  0
   -2.6020    1.5074    0.5219 H   0  0  0  0  0  0  0  0  0  0  0  0
   -0.1986    0.9884    1.1241 H   0  0  0  0  0  0  0  0  0  0  0  0
    1.7856    2.0300    0.1028 H   0  0  0  0  0  0  0  0  0  0  0  0
    5.1440   -0.3041   -2.1278 H   0  0  0  0  0  0  0  0  0  0  0  0
    5.7315    1.3004   -1.7147 H   0  0  0  0  0  0  0  0  0  0  0  0
    4.4589   -1.8675   -0.3651 H   0  0  0  0  0  0  0  0  0  0  0  0
    4.2029   -2.3568    2.0356 H   0  0  0  0  0  0  0  0  0  0  0  0
    4.4234   -0.5472    3.7184 H   0  0  0  0  0  0  0  0  0  0  0  0
    4.9169    1.7801    2.9734 H   0  0  0  0  0  0  0  0  0  0  0  0
   -0.0536   -2.2121   -1.7569 H   0  0  0  0  0  0  0  0  0  0  0  0
   -4.2321   -1.8687    0.5142 H   0  0  0  0  0  0  0  0  0  0  0  0
   -3.3112   -1.8464    2.0216 H   0  0  0  0  0  0  0  0  0  0  0  0
   -5.4689   -0.6962    2.3790 H   0  0  0  0  0  0  0  0  0  0  0  0
   -4.1270    0.4250    2.5393 H   0  0  0  0  0  0  0  0  0  0  0  0
  1  2  1  0
  2  3  1  0
  3  4  1  0
  4  5  1  0
  5  6  1  0
  6  7  2  0
  6  8  1  0
  8  9  2  0
  9 10  1  0
 10 11  2  0
 11 12  1  0
 12 13  2  0
 12 14  2  0
 12 15  1  0
 15 16  1  0
 16 17  2  0
 17 18  1  0
 18 19  2  0
 19 20  1  0
 20 21  2  0
 21 22  1  0
 11 23  1  0
 23 24  1  0
 24 25  2  0
 24 26  1  0
 23 27  2  0
  5 28  1  0
 28 29  1  0
 29  2  1  0
 27  8  1  0
 21 16  1  0
  1 30  1  0
  1 31  1  0
  1 32  1  0
  2 33  1  0
  3 34  1  0
  3 35  1  0
  4 36  1  0
  4 37  1  0
  9 38  1  0
 10 39  1  0
 15 40  1  0
 15 41  1  0
 17 42  1  0
 18 43  1  0
 19 44  1  0
 20 45  1  0
 27 46  1  0
 28 47  1  0
 28 48  1  0
 29 49  1  0
 29 50  1  0
M  CHG  2  24   1  26  -1
M  END
$$$$
