
     RDKit          3D

 43 45  0  0  0  0  0  0  0  0999 V2000
   -7.2498   -1.2972    0.7270 C   0  0  0  0  0  0  0  0  0  0  0  0
   -7.1681    0.0104    1.5018 C   0  0  0  0  0  0  0  0  0  0  0  0
   -6.3336    1.0738    0.7902 C   0  0  0  0  0  0  0  0  0  0  0  0
   -4.8745    0.7268    0.7606 C   0  0  0  0  0  0  0  0  0  0  0  0
   -4.2979    0.1433   -0.2419 N   0  0  0  0  0  0  0  0  0  0  0  0
   -2.9669   -0.0402    0.0592 N   0  0  0  0  0  0  0  0  0  0  0  0
   -2.0979   -0.6541   -0.8153 C   0  0  0  0  0  0  0  0  0  0  0  0
   -2.3670   -1.1034   -1.9247 O   0  0  0  0  0  0  0  0  0  0  0  0
   -0.7136   -0.7551   -0.2980 C   0  0  0  0  0  0  0  0  0  0  0  0
   -0.4161   -0.2692    0.9204 C   0  0  0  0  0  0  0  0  0  0  0  0
    0.9894   -0.3818    1.4729 C   0  0  0  0  0  0  0  0  0  0  0  0
    1.7806    1.2533    1.6967 S   0  0  0  0  0  0  0  0  0  0  0  0
    1.9049    1.7930   -0.0375 C   0  0  0  0  0  0  0  0  0  0  0  0
    2.7879    0.8479   -0.8359 C   0  0  0  0  0  0  0  0  0  0  0  0
    2.2985    0.0852   -1.6640 O   0  0  0  0  0  0  0  0  0  0  0  0
    4.1267    0.9503   -0.4959 N   0  0  0  0  0  0  0  0  0  0  0  0
    5.2125    0.2477   -1.0538 C   0  0  0  0  0  0  0  0  0  0  0  0
    5.1036   -0.6173   -2.1469 C   0  0  0  0  0  0  0  0  0  0  0  0
    6.2337   -1.2750   -2.6436 C   0  0  0  0  0  0  0  0  0  0  0  0
    7.4702   -1.0650   -2.0487 C   0  0  0  0  0  0  0  0  0  0  0  0
    8.5509   -1.6954   -2.5260 F   0  0  0  0  0  0  0  0  0  0  0  0
    7.6002   -0.2072   -0.9652 C   0  0  0  0  0  0  0  0  0  0  0  0
    6.4717    0.4501   -0.4689 C   0  0  0  0  0  0  0  0  0  0  0  0
   -1.3502    0.3149    1.7542 N   0  0  0  0  0  0  0  0  0  0  0  0
   -2.5485    0.3999    1.2856 C   0  0  0  0  0  0  0  0  0  0  0  0
   -3.8789    1.1015    2.1475 S   0  0  0  0  0  0  0  0  0  0  0  0
   -7.6436   -1.1331   -0.2810 H   0  0  0  0  0  0  0  0  0  0  0  0
   -7.9164   -1.9972    1.2409 H   0  0  0  0  0  0  0  0  0  0  0  0
   -6.2686   -1.7736    0.6419 H   0  0  0  0  0  0  0  0  0  0  0  0
   -6.7664   -0.1896    2.5016 H   0  0  0  0  0  0  0  0  0  0  0  0
   -8.1850    0.3975    1.6373 H   0  0  0  0  0  0  0  0  0  0  0  0
   -6.4582    2.0357    1.3011 H   0  0  0  0  0  0  0  0  0  0  0  0
   -6.6864    1.2078   -0.2390 H   0  0  0  0  0  0  0  0  0  0  0  0
    0.0124   -1.2232   -0.9523 H   0  0  0  0  0  0  0  0  0  0  0  0
    0.9456   -0.8628    2.4568 H   0  0  0  0  0  0  0  0  0  0  0  0
    1.6304   -1.0156    0.8516 H   0  0  0  0  0  0  0  0  0  0  0  0
    2.3419    2.7969   -0.0647 H   0  0  0  0  0  0  0  0  0  0  0  0
    0.9155    1.8617   -0.4987 H   0  0  0  0  0  0  0  0  0  0  0  0
    4.3371    1.5428    0.3006 H   0  0  0  0  0  0  0  0  0  0  0  0
    4.1547   -0.7997   -2.6416 H   0  0  0  0  0  0  0  0  0  0  0  0
    6.1511   -1.9471   -3.4921 H   0  0  0  0  0  0  0  0  0  0  0  0
    8.5757   -0.0554   -0.5145 H   0  0  0  0  0  0  0  0  0  0  0  0
    6.5923    1.1176    0.3807 H   0  0  0  0  0  0  0  0  0  0  0  0
  1  2  1  0
  2  3  1  0
  3  4  1  0
  4  5  2  0
  5  6  1  0
  6  7  1  0
  7  8  2  0
  7  9  1  0
  9 10  2  0
 10 11  1  0
 11 12  1  0
 12 13  1  0
 13 14  1  0
 14 15  2  0
 14 16  1  0
 16 17  1  0
 17 18  2  0
 18 19  1  0
 19 20  2  0
 20 21  1  0
 20 22  1  0
 22 23  2  0
 10 24  1  0
 24 25  2  0
 25 26  1  0
 26  4  1  0
 25  6  1  0
 23 17  1  0
  1 27  1  0
  1 28  1  0
  1 29  1  0
  2 30  1  0
  2 31  1  0
  3 32  1  0
  3 33  1  0
  9 34  1  0
 11 35  1  0
 11 36  1  0
 13 37  1  0
 13 38  1  0
 16 39  1  0
 18 40  1  0
 19 41  1  0
 22 42  1  0
 23 43  1  0
M  END
$$$$
