
     RDKit          3D

 46 48  0  0  0  0  0  0  0  0999 V2000
    2.1291    2.9236    1.9315 C   0  0  0  0  0  0  0  0  0  0  0  0
    3.3281    2.0927    1.5373 C   0  0  0  0  0  0  0  0  0  0  0  0
    2.9653    0.7049    1.4591 O   0  0  0  0  0  0  0  0  0  0  0  0
    2.5127    0.2840    0.2586 C   0  0  0  0  0  0  0  0  0  0  0  0
    2.3689    0.9899   -0.7257 O   0  0  0  0  0  0  0  0  0  0  0  0
    2.2070   -1.1835    0.2684 C   0  0  0  0  0  0  0  0  0  0  0  0
    2.4752   -1.9469    1.4217 C   0  0  0  0  0  0  0  0  0  0  0  0
    2.2173   -3.3173    1.4411 C   0  0  0  0  0  0  0  0  0  0  0  0
    1.6954   -3.9368    0.3104 C   0  0  0  0  0  0  0  0  0  0  0  0
    1.4289   -3.1908   -0.8440 C   0  0  0  0  0  0  0  0  0  0  0  0
    1.6785   -1.8131   -0.8866 C   0  0  0  0  0  0  0  0  0  0  0  0
    1.4073   -1.0340   -2.0362 N   0  0  0  0  0  0  0  0  0  0  0  0
    0.9378   -1.4359   -3.2694 C   0  0  0  0  0  0  0  0  0  0  0  0
    0.7370   -2.5890   -3.6252 O   0  0  0  0  0  0  0  0  0  0  0  0
    0.6775   -0.2673   -4.2118 C   0  0  0  0  0  0  0  0  0  0  0  0
   -1.1030   -0.1135   -4.5586 S   0  0  0  0  0  0  0  0  0  0  0  0
   -1.7120    0.1792   -2.9198 C   0  0  0  0  0  0  0  0  0  0  0  0
   -2.9604   -0.2882   -2.5478 C   0  0  0  0  0  0  0  0  0  0  0  0
   -3.4103   -0.0555   -1.2487 C   0  0  0  0  0  0  0  0  0  0  0  0
   -2.5982    0.6386   -0.3532 C   0  0  0  0  0  0  0  0  0  0  0  0
   -2.9626    0.9328    1.0434 C   0  0  0  0  0  0  0  0  0  0  0  0
   -1.9911    1.2040    2.0222 C   0  0  0  0  0  0  0  0  0  0  0  0
   -2.3538    1.4767    3.3444 C   0  0  0  0  0  0  0  0  0  0  0  0
   -3.6990    1.4613    3.6692 C   0  0  0  0  0  0  0  0  0  0  0  0
   -4.6732    1.2079    2.7749 N   0  0  0  0  0  0  0  0  0  0  0  0
   -4.2809    0.9591    1.4985 C   0  0  0  0  0  0  0  0  0  0  0  0
   -1.3778    1.0706   -0.7563 N   0  0  0  0  0  0  0  0  0  0  0  0
   -0.9441    0.8584   -2.0472 N   0  0  0  0  0  0  0  0  0  0  0  0
    1.3314    2.8276    1.1894 H   0  0  0  0  0  0  0  0  0  0  0  0
    2.4040    3.9795    2.0251 H   0  0  0  0  0  0  0  0  0  0  0  0
    1.7122    2.5845    2.8845 H   0  0  0  0  0  0  0  0  0  0  0  0
    4.1081    2.1883    2.2967 H   0  0  0  0  0  0  0  0  0  0  0  0
    3.7639    2.4437    0.5997 H   0  0  0  0  0  0  0  0  0  0  0  0
    2.8948   -1.4840    2.3163 H   0  0  0  0  0  0  0  0  0  0  0  0
    2.4285   -3.9005    2.3370 H   0  0  0  0  0  0  0  0  0  0  0  0
    1.4912   -5.0031    0.3258 H   0  0  0  0  0  0  0  0  0  0  0  0
    1.0187   -3.7196   -1.6933 H   0  0  0  0  0  0  0  0  0  0  0  0
    1.5312   -0.0267   -1.9017 H   0  0  0  0  0  0  0  0  0  0  0  0
    1.0581    0.6786   -3.8211 H   0  0  0  0  0  0  0  0  0  0  0  0
    1.2103   -0.4596   -5.1455 H   0  0  0  0  0  0  0  0  0  0  0  0
   -3.5849   -0.8321   -3.2518 H   0  0  0  0  0  0  0  0  0  0  0  0
   -4.3830   -0.4350   -0.9612 H   0  0  0  0  0  0  0  0  0  0  0  0
   -0.9324    1.2017    1.7621 H   0  0  0  0  0  0  0  0  0  0  0  0
   -1.6047    1.6987    4.0931 H   0  0  0  0  0  0  0  0  0  0  0  0
   -4.0337    1.6642    4.6868 H   0  0  0  0  0  0  0  0  0  0  0  0
   -5.1133    0.7821    0.8300 H   0  0  0  0  0  0  0  0  0  0  0  0
  1  2  1  0
  2  3  1  0
  3  4  1  0
  4  5  2  0
  4  6  1  0
  6  7  2  0
  7  8  1  0
  8  9  2  0
  9 10  1  0
 10 11  2  0
 11 12  1  0
 12 13  1  0
 13 14  2  0
 13 15  1  0
 15 16  1  0
 16 17  1  0
 17 18  2  0
 18 19  1  0
 19 20  2  0
 20 21  1  0
 21 22  2  0
 22 23  1  0
 23 24  2  0
 24 25  1  0
 25 26  2  0
 20 27  1  0
 27 28  2  0
 11  6  1  0
 28 17  1  0
 26 21  1  0
  1 29  1  0
  1 30  1  0
  1 31  1  0
  2 32  1  0
  2 33  1  0
  7 34  1  0
  8 35  1  0
  9 36  1  0
 10 37  1  0
 12 38  1  0
 15 39  1  0
 15 40  1  0
 18 41  1  0
 19 42  1  0
 22 43  1  0
 23 44  1  0
 24 45  1  0
 26 46  1  0
M  END
$$$$
