
     RDKit          3D

 40 40  0  0  0  0  0  0  0  0999 V2000
   -2.1523    1.0307    3.9948 C   0  0  0  0  0  0  0  0  0  0  0  0
   -2.2266    1.2308    2.4891 C   0  0  0  0  0  0  0  0  0  0  0  0
   -0.8304    1.3339    1.8698 C   0  0  0  0  0  0  0  0  0  0  0  0
   -0.8760    1.5796    0.3621 C   0  0  0  0  0  0  0  0  0  0  0  0
   -1.4458    0.4238   -0.3157 N   0  0  0  0  0  0  0  0  0  0  0  0
   -0.7395   -0.3237   -1.0929 C   0  0  0  0  0  0  0  0  0  0  0  0
    0.6291   -0.2992   -1.3694 N   0  0  0  0  0  0  0  0  0  0  0  0
    1.5726   -0.2221   -0.3675 N   0  0  0  0  0  0  0  0  0  0  0  0
    2.7867    0.4812   -0.5182 C   0  0  0  0  0  0  0  0  0  0  0  0
    3.6356    0.6236    0.5888 C   0  0  0  0  0  0  0  0  0  0  0  0
    4.8745    1.2607    0.4676 C   0  0  0  0  0  0  0  0  0  0  0  0
    5.2824    1.7440   -0.7724 C   0  0  0  0  0  0  0  0  0  0  0  0
    6.9561    2.6048   -0.9416 Br  0  0  0  0  0  0  0  0  0  0  0  0
    4.4672    1.5885   -1.8899 C   0  0  0  0  0  0  0  0  0  0  0  0
    3.2296    0.9494   -1.7622 C   0  0  0  0  0  0  0  0  0  0  0  0
   -1.5103   -1.4227   -1.8804 C   0  0  0  0  0  0  0  0  0  0  0  0
   -0.9530   -2.0196   -2.7906 O   0  0  0  0  0  0  0  0  0  0  0  0
   -2.7568   -1.6140   -1.4147 O   0  0  0  0  0  0  0  0  0  0  0  0
   -3.5298   -2.6152   -2.0866 C   0  0  0  0  0  0  0  0  0  0  0  0
   -3.2744   -3.9762   -1.4665 C   0  0  0  0  0  0  0  0  0  0  0  0
   -1.6146    0.1097    4.2419 H   0  0  0  0  0  0  0  0  0  0  0  0
   -1.6392    1.8686    4.4773 H   0  0  0  0  0  0  0  0  0  0  0  0
   -3.1593    0.9602    4.4178 H   0  0  0  0  0  0  0  0  0  0  0  0
   -2.7767    0.3927    2.0463 H   0  0  0  0  0  0  0  0  0  0  0  0
   -2.7966    2.1425    2.2760 H   0  0  0  0  0  0  0  0  0  0  0  0
   -0.2893    2.1631    2.3417 H   0  0  0  0  0  0  0  0  0  0  0  0
   -0.2690    0.4180    2.0868 H   0  0  0  0  0  0  0  0  0  0  0  0
    0.1158    1.8556   -0.0063 H   0  0  0  0  0  0  0  0  0  0  0  0
   -1.5135    2.4470    0.1533 H   0  0  0  0  0  0  0  0  0  0  0  0
    0.8758   -0.9962   -2.0826 H   0  0  0  0  0  0  0  0  0  0  0  0
    1.2060   -0.1789    0.5843 H   0  0  0  0  0  0  0  0  0  0  0  0
    3.3397    0.2354    1.5603 H   0  0  0  0  0  0  0  0  0  0  0  0
    5.5111    1.3668    1.3418 H   0  0  0  0  0  0  0  0  0  0  0  0
    4.7820    1.9547   -2.8634 H   0  0  0  0  0  0  0  0  0  0  0  0
    2.6097    0.8327   -2.6469 H   0  0  0  0  0  0  0  0  0  0  0  0
   -3.3244   -2.6222   -3.1634 H   0  0  0  0  0  0  0  0  0  0  0  0
   -4.5836   -2.3455   -1.9618 H   0  0  0  0  0  0  0  0  0  0  0  0
   -2.2256   -4.2684   -1.5798 H   0  0  0  0  0  0  0  0  0  0  0  0
   -3.4849   -3.9548   -0.3922 H   0  0  0  0  0  0  0  0  0  0  0  0
   -3.9022   -4.7397   -1.9343 H   0  0  0  0  0  0  0  0  0  0  0  0
  1  2  1  0
  2  3  1  0
  3  4  1  0
  4  5  1  0
  5  6  2  3
  6  7  1  0
  7  8  1  0
  8  9  1  0
  9 10  2  0
 10 11  1  0
 11 12  2  0
 12 13  1  0
 12 14  1  0
 14 15  2  0
  6 16  1  0
 16 17  2  0
 16 18  1  0
 18 19  1  0
 19 20  1  0
 15  9  1  0
  1 21  1  0
  1 22  1  0
  1 23  1  0
  2 24  1  0
  2 25  1  0
  3 26  1  0
  3 27  1  0
  4 28  1  0
  4 29  1  0
  7 30  1  0
  8 31  1  0
 10 32  1  0
 11 33  1  0
 14 34  1  0
 15 35  1  0
 19 36  1  0
 19 37  1  0
 20 38  1  0
 20 39  1  0
 20 40  1  0
M  END
$$$$
