
     RDKit          3D

 80 83  0  0  0  0  0  0  0  0999 V2000
   -7.7359   -3.4928   -3.0853 C   0  0  0  0  0  0  0  0  0  0  0  0
   -7.6224   -1.9846   -2.9334 C   0  0  0  0  0  0  0  0  0  0  0  0
   -7.1724   -1.5414   -1.5395 C   0  0  0  0  0  0  0  0  0  0  0  0
   -5.8089   -2.0681   -1.0764 C   0  0  0  0  0  0  0  0  0  0  0  0
   -4.6521   -1.6286   -1.9763 C   0  0  0  0  0  0  0  0  0  0  0  0
   -3.2818   -2.1547   -1.5321 C   0  0  0  0  0  0  0  0  0  0  0  0
   -2.8273   -1.7942   -0.1169 C   0  0  0  0  0  0  0  0  0  0  0  0
   -2.4890   -0.3197    0.0608 C   0  0  0  0  0  0  0  0  0  0  0  0
   -3.2157    0.5686   -0.3697 O   0  0  0  0  0  0  0  0  0  0  0  0
   -1.3179   -0.1296    0.7654 N   0  0  0  0  0  0  0  0  0  0  0  0
   -0.7063    1.0864    1.1365 C   0  0  0  0  0  0  0  0  0  0  0  0
   -1.3275    2.3325    1.0480 C   0  0  0  0  0  0  0  0  0  0  0  0
   -0.6298    3.4811    1.4350 C   0  0  0  0  0  0  0  0  0  0  0  0
   -1.3037    4.7993    1.3284 C   0  0  0  0  0  0  0  0  0  0  0  0
   -2.4853    4.9198    1.6216 O   0  0  0  0  0  0  0  0  0  0  0  0
   -0.5098    5.8283    0.8610 N   0  0  0  0  0  0  0  0  0  0  0  0
   -1.0718    7.1312    0.5667 C   0  0  0  0  0  0  0  0  0  0  0  0
   -1.7981    7.1707   -0.7767 C   0  0  0  0  0  0  0  0  0  0  0  0
   -0.8689    6.9229   -1.9571 C   0  0  0  0  0  0  0  0  0  0  0  0
    0.6763    3.3855    1.9311 C   0  0  0  0  0  0  0  0  0  0  0  0
    1.2947    2.1379    2.0336 C   0  0  0  0  0  0  0  0  0  0  0  0
    0.6175    0.9747    1.6409 C   0  0  0  0  0  0  0  0  0  0  0  0
    1.2191   -0.3148    1.6775 N   0  0  0  0  0  0  0  0  0  0  0  0
    1.9272   -0.6200    2.9303 C   0  0  0  0  0  0  0  0  0  0  0  0
    2.3126   -2.0951    2.9280 C   0  0  0  0  0  0  0  0  0  0  0  0
    3.1644   -2.4432    1.7027 C   0  0  0  0  0  0  0  0  0  0  0  0
    2.4385   -2.0179    0.4153 C   0  0  0  0  0  0  0  0  0  0  0  0
    2.0147   -0.5524    0.4585 C   0  0  0  0  0  0  0  0  0  0  0  0
    4.5840   -1.8981    1.8010 C   0  0  0  0  0  0  0  0  0  0  0  0
    5.3089   -3.0446    1.1808 C   0  0  0  0  0  0  0  0  0  0  0  0
    6.7035   -2.9299    0.6953 C   0  0  0  0  0  0  0  0  0  0  0  0
    7.2832   -4.0228    0.0384 C   0  0  0  0  0  0  0  0  0  0  0  0
    8.5897   -3.9408   -0.4457 C   0  0  0  0  0  0  0  0  0  0  0  0
    9.3225   -2.7680   -0.2764 C   0  0  0  0  0  0  0  0  0  0  0  0
    8.7543   -1.6786    0.3834 C   0  0  0  0  0  0  0  0  0  0  0  0
    7.4480   -1.7582    0.8729 C   0  0  0  0  0  0  0  0  0  0  0  0
    4.6208   -4.1406    1.1193 N   0  0  0  0  0  0  0  0  0  0  0  0
    3.3465   -3.8710    1.6707 O   0  0  0  0  0  0  0  0  0  0  0  0
   -6.7597   -3.9805   -3.0040 H   0  0  0  0  0  0  0  0  0  0  0  0
   -8.1473   -3.7407   -4.0683 H   0  0  0  0  0  0  0  0  0  0  0  0
   -8.3997   -3.9150   -2.3245 H   0  0  0  0  0  0  0  0  0  0  0  0
   -8.6044   -1.5393   -3.1340 H   0  0  0  0  0  0  0  0  0  0  0  0
   -6.9458   -1.5890   -3.6983 H   0  0  0  0  0  0  0  0  0  0  0  0
   -7.1559   -0.4447   -1.5136 H   0  0  0  0  0  0  0  0  0  0  0  0
   -7.9286   -1.8544   -0.8079 H   0  0  0  0  0  0  0  0  0  0  0  0
   -5.8323   -3.1619   -1.0038 H   0  0  0  0  0  0  0  0  0  0  0  0
   -5.6461   -1.6918   -0.0603 H   0  0  0  0  0  0  0  0  0  0  0  0
   -4.8216   -1.9987   -2.9949 H   0  0  0  0  0  0  0  0  0  0  0  0
   -4.6356   -0.5359   -2.0521 H   0  0  0  0  0  0  0  0  0  0  0  0
   -3.2951   -3.2491   -1.6154 H   0  0  0  0  0  0  0  0  0  0  0  0
   -2.5308   -1.7988   -2.2487 H   0  0  0  0  0  0  0  0  0  0  0  0
   -3.5768   -2.0636    0.6331 H   0  0  0  0  0  0  0  0  0  0  0  0
   -1.9397   -2.3994    0.1054 H   0  0  0  0  0  0  0  0  0  0  0  0
   -0.7386   -0.9342    0.9931 H   0  0  0  0  0  0  0  0  0  0  0  0
   -2.3499    2.4343    0.6931 H   0  0  0  0  0  0  0  0  0  0  0  0
    0.3768    5.5917    0.4380 H   0  0  0  0  0  0  0  0  0  0  0  0
   -1.7691    7.4005    1.3676 H   0  0  0  0  0  0  0  0  0  0  0  0
   -0.2465    7.8504    0.5813 H   0  0  0  0  0  0  0  0  0  0  0  0
   -2.2623    8.1554   -0.8975 H   0  0  0  0  0  0  0  0  0  0  0  0
   -2.6065    6.4304   -0.7964 H   0  0  0  0  0  0  0  0  0  0  0  0
   -1.4216    7.0147   -2.8971 H   0  0  0  0  0  0  0  0  0  0  0  0
   -0.0515    7.6524   -1.9726 H   0  0  0  0  0  0  0  0  0  0  0  0
   -0.4353    5.9176   -1.9219 H   0  0  0  0  0  0  0  0  0  0  0  0
    1.2079    4.2741    2.2625 H   0  0  0  0  0  0  0  0  0  0  0  0
    2.3129    2.0933    2.4071 H   0  0  0  0  0  0  0  0  0  0  0  0
    2.8278   -0.0051    3.0444 H   0  0  0  0  0  0  0  0  0  0  0  0
    1.2732   -0.4280    3.7896 H   0  0  0  0  0  0  0  0  0  0  0  0
    1.4066   -2.7161    2.9274 H   0  0  0  0  0  0  0  0  0  0  0  0
    2.8428   -2.3514    3.8531 H   0  0  0  0  0  0  0  0  0  0  0  0
    3.0644   -2.2006   -0.4670 H   0  0  0  0  0  0  0  0  0  0  0  0
    1.5509   -2.6511    0.2806 H   0  0  0  0  0  0  0  0  0  0  0  0
    1.4213   -0.3416   -0.4398 H   0  0  0  0  0  0  0  0  0  0  0  0
    2.8910    0.1068    0.4309 H   0  0  0  0  0  0  0  0  0  0  0  0
    4.7320   -0.9572    1.2682 H   0  0  0  0  0  0  0  0  0  0  0  0
    4.9266   -1.7976    2.8363 H   0  0  0  0  0  0  0  0  0  0  0  0
    6.7219   -4.9447   -0.1004 H   0  0  0  0  0  0  0  0  0  0  0  0
    9.0326   -4.7931   -0.9563 H   0  0  0  0  0  0  0  0  0  0  0  0
   10.3390   -2.7032   -0.6563 H   0  0  0  0  0  0  0  0  0  0  0  0
    9.3312   -0.7667    0.5157 H   0  0  0  0  0  0  0  0  0  0  0  0
    7.0397   -0.8970    1.3912 H   0  0  0  0  0  0  0  0  0  0  0  0
  1  2  1  0
  2  3  1  0
  3  4  1  0
  4  5  1  0
  5  6  1  0
  6  7  1  0
  7  8  1  0
  8  9  2  0
  8 10  1  0
 10 11  1  0
 11 12  2  0
 12 13  1  0
 13 14  1  0
 14 15  2  0
 14 16  1  0
 16 17  1  0
 17 18  1  0
 18 19  1  0
 13 20  2  0
 20 21  1  0
 21 22  2  0
 22 23  1  0
 23 24  1  0
 24 25  1  0
 25 26  1  0
 26 27  1  0
 27 28  1  0
 26 29  1  0
 29 30  1  0
 30 31  1  0
 31 32  2  0
 32 33  1  0
 33 34  2  0
 34 35  1  0
 35 36  2  0
 30 37  2  0
 37 38  1  0
 22 11  1  0
 28 23  1  0
 36 31  1  0
 38 26  1  0
  1 39  1  0
  1 40  1  0
  1 41  1  0
  2 42  1  0
  2 43  1  0
  3 44  1  0
  3 45  1  0
  4 46  1  0
  4 47  1  0
  5 48  1  0
  5 49  1  0
  6 50  1  0
  6 51  1  0
  7 52  1  0
  7 53  1  0
 10 54  1  0
 12 55  1  0
 16 56  1  0
 17 57  1  0
 17 58  1  0
 18 59  1  0
 18 60  1  0
 19 61  1  0
 19 62  1  0
 19 63  1  0
 20 64  1  0
 21 65  1  0
 24 66  1  0
 24 67  1  0
 25 68  1  0
 25 69  1  0
 27 70  1  0
 27 71  1  0
 28 72  1  0
 28 73  1  0
 29 74  1  0
 29 75  1  0
 32 76  1  0
 33 77  1  0
 34 78  1  0
 35 79  1  0
 36 80  1  0
M  END
$$$$
