
     RDKit          3D

 43 45  0  0  0  0  0  0  0  0999 V2000
   -0.0941   -3.7969   -1.6538 C   0  0  0  0  0  0  0  0  0  0  0  0
    0.0687   -2.4449   -2.2975 C   0  0  0  0  0  0  0  0  0  0  0  0
   -0.4299   -2.1815   -3.3914 O   0  0  0  0  0  0  0  0  0  0  0  0
    0.8534   -1.4298   -1.5549 C   0  0  0  0  0  0  0  0  0  0  0  0
    0.2426   -0.6776   -0.6072 C   0  0  0  0  0  0  0  0  0  0  0  0
   -1.1240   -0.7145   -0.3025 N   0  0  0  0  0  0  0  0  0  0  0  0
   -2.1791   -0.6490   -1.3505 C   0  0  0  0  0  0  0  0  0  0  0  0
   -3.3990    0.1685   -0.8711 C   0  0  0  0  0  0  0  0  0  0  0  0
   -4.0547   -0.3963    0.3279 N   0  0  0  0  0  0  0  0  0  0  0  0
   -4.8362    0.6247    1.0188 C   0  0  0  0  0  0  0  0  0  0  0  0
   -3.0801   -1.0540    1.2205 C   0  0  0  0  0  0  0  0  0  0  0  0
   -1.6276   -0.5505    1.0798 C   0  0  0  0  0  0  0  0  0  0  0  0
    1.0430    0.1808    0.1157 N   0  0  0  0  0  0  0  0  0  0  0  0
    2.3604    0.4054   -0.1862 C   0  0  0  0  0  0  0  0  0  0  0  0
    3.1051    1.4909    0.5264 C   0  0  0  0  0  0  0  0  0  0  0  0
    2.6993    1.9328    1.7925 C   0  0  0  0  0  0  0  0  0  0  0  0
    3.4048    2.9527    2.4362 C   0  0  0  0  0  0  0  0  0  0  0  0
    4.5162    3.5301    1.8227 C   0  0  0  0  0  0  0  0  0  0  0  0
    4.9308    3.0857    0.5681 C   0  0  0  0  0  0  0  0  0  0  0  0
    4.2298    2.0661   -0.0783 C   0  0  0  0  0  0  0  0  0  0  0  0
    2.9933   -0.2861   -1.0837 N   0  0  0  0  0  0  0  0  0  0  0  0
    2.3398   -1.3029   -1.7557 C   0  0  0  0  0  0  0  0  0  0  0  0
    3.2359   -2.3415   -2.7528 S   0  0  0  0  0  0  0  0  0  0  0  0
    0.2806   -4.5668   -2.3335 H   0  0  0  0  0  0  0  0  0  0  0  0
    0.4671   -3.8588   -0.7171 H   0  0  0  0  0  0  0  0  0  0  0  0
   -1.1520   -3.9684   -1.4391 H   0  0  0  0  0  0  0  0  0  0  0  0
   -2.4997   -1.6647   -1.6086 H   0  0  0  0  0  0  0  0  0  0  0  0
   -1.7845   -0.1696   -2.2540 H   0  0  0  0  0  0  0  0  0  0  0  0
   -3.0572    1.1939   -0.6729 H   0  0  0  0  0  0  0  0  0  0  0  0
   -4.1350    0.2233   -1.6815 H   0  0  0  0  0  0  0  0  0  0  0  0
   -5.4059    0.1799    1.8422 H   0  0  0  0  0  0  0  0  0  0  0  0
   -5.5678    1.0758    0.3392 H   0  0  0  0  0  0  0  0  0  0  0  0
   -4.2051    1.4219    1.4275 H   0  0  0  0  0  0  0  0  0  0  0  0
   -3.0935   -2.1242    0.9757 H   0  0  0  0  0  0  0  0  0  0  0  0
   -3.3925   -0.9872    2.2700 H   0  0  0  0  0  0  0  0  0  0  0  0
   -0.9922   -1.1196    1.7691 H   0  0  0  0  0  0  0  0  0  0  0  0
   -1.5733    0.5060    1.3696 H   0  0  0  0  0  0  0  0  0  0  0  0
    0.5258    0.9010    0.5996 H   0  0  0  0  0  0  0  0  0  0  0  0
    1.8582    1.4780    2.3061 H   0  0  0  0  0  0  0  0  0  0  0  0
    3.0951    3.2917    3.4219 H   0  0  0  0  0  0  0  0  0  0  0  0
    5.0665    4.3213    2.3263 H   0  0  0  0  0  0  0  0  0  0  0  0
    5.8024    3.5289    0.0926 H   0  0  0  0  0  0  0  0  0  0  0  0
    4.5644    1.7251   -1.0561 H   0  0  0  0  0  0  0  0  0  0  0  0
  1  2  1  0
  2  3  2  0
  2  4  1  0
  4  5  2  0
  5  6  1  0
  6  7  1  0
  7  8  1  0
  8  9  1  0
  9 10  1  0
  9 11  1  0
 11 12  1  0
  5 13  1  0
 13 14  1  0
 14 15  1  0
 15 16  2  0
 16 17  1  0
 17 18  2  0
 18 19  1  0
 19 20  2  0
 14 21  2  0
 21 22  1  0
 22 23  2  0
 22  4  1  0
 12  6  1  0
 20 15  1  0
  1 24  1  0
  1 25  1  0
  1 26  1  0
  7 27  1  0
  7 28  1  0
  8 29  1  0
  8 30  1  0
 10 31  1  0
 10 32  1  0
 10 33  1  0
 11 34  1  0
 11 35  1  0
 12 36  1  0
 12 37  1  0
 13 38  1  0
 16 39  1  0
 17 40  1  0
 18 41  1  0
 19 42  1  0
 20 43  1  0
M  END
$$$$
