
     RDKit          3D

 49 52  0  0  0  0  0  0  0  0999 V2000
    6.4421    1.0252   -1.9985 C   0  0  0  0  0  0  0  0  0  0  0  0
    6.3916    0.7856   -0.5575 N   0  0  0  0  0  0  0  0  0  0  0  0
    7.0301    1.8030    0.2758 C   0  0  0  0  0  0  0  0  0  0  0  0
    5.3354    0.0361   -0.0271 C   0  0  0  0  0  0  0  0  0  0  0  0
    5.0725   -0.0131    1.3540 C   0  0  0  0  0  0  0  0  0  0  0  0
    4.0251   -0.7749    1.8942 C   0  0  0  0  0  0  0  0  0  0  0  0
    3.1988   -1.5247    1.0626 C   0  0  0  0  0  0  0  0  0  0  0  0
    2.1109   -2.3174    1.6367 C   0  0  0  0  0  0  0  0  0  0  0  0
    0.8090   -2.0693    1.4429 C   0  0  0  0  0  0  0  0  0  0  0  0
    0.1664   -1.0414    0.6974 C   0  0  0  0  0  0  0  0  0  0  0  0
   -1.1408   -1.2582    0.8433 C   0  0  0  0  0  0  0  0  0  0  0  0
   -2.2589   -0.4804    0.2835 C   0  0  0  0  0  0  0  0  0  0  0  0
   -2.0624    0.4765   -0.7207 C   0  0  0  0  0  0  0  0  0  0  0  0
   -3.1379    1.1986   -1.2479 C   0  0  0  0  0  0  0  0  0  0  0  0
   -4.4421    0.9777   -0.7904 C   0  0  0  0  0  0  0  0  0  0  0  0
   -4.6589    0.0360    0.2273 C   0  0  0  0  0  0  0  0  0  0  0  0
   -3.5695   -0.6910    0.7409 C   0  0  0  0  0  0  0  0  0  0  0  0
   -6.0458   -0.2627    0.7435 C   0  0  0  0  0  0  0  0  0  0  0  0
   -7.0640    0.8228    0.3994 C   0  0  0  0  0  0  0  0  0  0  0  0
   -6.9513    1.2120   -1.0689 C   0  0  0  0  0  0  0  0  0  0  0  0
   -5.5718    1.7996   -1.3606 C   0  0  0  0  0  0  0  0  0  0  0  0
   -1.4672   -2.3718    1.6504 O   0  0  0  0  0  0  0  0  0  0  0  0
   -0.2605   -2.9034    2.0487 C   0  0  0  0  0  0  0  0  0  0  0  0
   -0.1107   -3.8774    2.7654 O   0  0  0  0  0  0  0  0  0  0  0  0
    3.4468   -1.5185   -0.3078 C   0  0  0  0  0  0  0  0  0  0  0  0
    4.4979   -0.7534   -0.8357 C   0  0  0  0  0  0  0  0  0  0  0  0
    7.3162    1.6270   -2.2717 H   0  0  0  0  0  0  0  0  0  0  0  0
    6.5404    0.0860   -2.5534 H   0  0  0  0  0  0  0  0  0  0  0  0
    5.5510    1.5637   -2.3394 H   0  0  0  0  0  0  0  0  0  0  0  0
    7.5050    1.3546    1.1549 H   0  0  0  0  0  0  0  0  0  0  0  0
    6.3068    2.5620    0.5939 H   0  0  0  0  0  0  0  0  0  0  0  0
    7.8309    2.3175   -0.2672 H   0  0  0  0  0  0  0  0  0  0  0  0
    5.6843    0.5413    2.0592 H   0  0  0  0  0  0  0  0  0  0  0  0
    3.8695   -0.7699    2.9706 H   0  0  0  0  0  0  0  0  0  0  0  0
    2.4212   -3.1469    2.2700 H   0  0  0  0  0  0  0  0  0  0  0  0
    0.6579   -0.2547    0.1508 H   0  0  0  0  0  0  0  0  0  0  0  0
   -1.0716    0.6768   -1.1194 H   0  0  0  0  0  0  0  0  0  0  0  0
   -2.9495    1.9371   -2.0245 H   0  0  0  0  0  0  0  0  0  0  0  0
   -3.7601   -1.4315    1.5168 H   0  0  0  0  0  0  0  0  0  0  0  0
   -6.0197   -0.3875    1.8327 H   0  0  0  0  0  0  0  0  0  0  0  0
   -6.3715   -1.2159    0.3082 H   0  0  0  0  0  0  0  0  0  0  0  0
   -8.0750    0.4617    0.6189 H   0  0  0  0  0  0  0  0  0  0  0  0
   -6.8946    1.7066    1.0275 H   0  0  0  0  0  0  0  0  0  0  0  0
   -7.1216    0.3284   -1.6971 H   0  0  0  0  0  0  0  0  0  0  0  0
   -7.7249    1.9437   -1.3271 H   0  0  0  0  0  0  0  0  0  0  0  0
   -5.4526    1.8951   -2.4465 H   0  0  0  0  0  0  0  0  0  0  0  0
   -5.5090    2.8071   -0.9305 H   0  0  0  0  0  0  0  0  0  0  0  0
    2.8374   -2.1140   -0.9835 H   0  0  0  0  0  0  0  0  0  0  0  0
    4.6445   -0.8033   -1.9102 H   0  0  0  0  0  0  0  0  0  0  0  0
  1  2  1  0
  2  3  1  0
  2  4  1  0
  4  5  2  0
  5  6  1  0
  6  7  2  0
  7  8  1  0
  8  9  2  3
  9 10  1  0
 10 11  2  0
 11 12  1  0
 12 13  2  0
 13 14  1  0
 14 15  2  0
 15 16  1  0
 16 17  2  0
 16 18  1  0
 18 19  1  0
 19 20  1  0
 20 21  1  0
 11 22  1  0
 22 23  1  0
 23 24  2  0
  7 25  1  0
 25 26  2  0
 26  4  1  0
 23  9  1  0
 17 12  1  0
 21 15  1  0
  1 27  1  0
  1 28  1  0
  1 29  1  0
  3 30  1  0
  3 31  1  0
  3 32  1  0
  5 33  1  0
  6 34  1  0
  8 35  1  0
 10 36  1  0
 13 37  1  0
 14 38  1  0
 17 39  1  0
 18 40  1  0
 18 41  1  0
 19 42  1  0
 19 43  1  0
 20 44  1  0
 20 45  1  0
 21 46  1  0
 21 47  1  0
 25 48  1  0
 26 49  1  0
M  END
$$$$
