
     RDKit          3D

 39 41  0  0  0  0  0  0  0  0999 V2000
    5.6268    3.5827   -0.5010 C   0  0  0  0  0  0  0  0  0  0  0  0
    4.7327    2.4182   -0.8284 C   0  0  0  0  0  0  0  0  0  0  0  0
    3.9158    2.4785   -1.9677 C   0  0  0  0  0  0  0  0  0  0  0  0
    3.0765    1.4139   -2.3011 C   0  0  0  0  0  0  0  0  0  0  0  0
    3.0285    0.2765   -1.4973 C   0  0  0  0  0  0  0  0  0  0  0  0
    2.1995   -0.7996   -1.8417 N   0  0  0  0  0  0  0  0  0  0  0  0
    0.9998   -0.8483   -1.3761 C   0  0  0  0  0  0  0  0  0  0  0  0
    0.1922   -1.8852   -1.7039 N   0  0  0  0  0  0  0  0  0  0  0  0
   -1.0737   -1.9075   -1.1936 C   0  0  0  0  0  0  0  0  0  0  0  0
   -1.8837   -2.7912   -1.4221 O   0  0  0  0  0  0  0  0  0  0  0  0
   -1.2919   -0.7051   -0.3355 C   0  0  0  0  0  0  0  0  0  0  0  0
   -2.3923   -0.3523    0.3457 C   0  0  0  0  0  0  0  0  0  0  0  0
   -3.6492   -1.0727    0.4064 C   0  0  0  0  0  0  0  0  0  0  0  0
   -4.6976   -0.6345    1.1208 C   0  0  0  0  0  0  0  0  0  0  0  0
   -5.9361   -1.3333    1.1877 C   0  0  0  0  0  0  0  0  0  0  0  0
   -6.3623   -2.5234    0.6040 C   0  0  0  0  0  0  0  0  0  0  0  0
   -7.6985   -2.7589    1.0074 C   0  0  0  0  0  0  0  0  0  0  0  0
   -8.0333   -1.7069    1.8184 C   0  0  0  0  0  0  0  0  0  0  0  0
   -6.9915   -0.8501    1.9339 O   0  0  0  0  0  0  0  0  0  0  0  0
    0.1569    0.2545   -0.3229 S   0  0  0  0  0  0  0  0  0  0  0  0
    3.8567    0.1997   -0.3746 C   0  0  0  0  0  0  0  0  0  0  0  0
    4.7081    1.2613   -0.0241 C   0  0  0  0  0  0  0  0  0  0  0  0
    5.5737    1.1365    1.1994 C   0  0  0  0  0  0  0  0  0  0  0  0
    6.6773    3.2786   -0.5449 H   0  0  0  0  0  0  0  0  0  0  0  0
    5.3991    3.9694    0.4974 H   0  0  0  0  0  0  0  0  0  0  0  0
    5.4902    4.4063   -1.2100 H   0  0  0  0  0  0  0  0  0  0  0  0
    3.9295    3.3566   -2.6095 H   0  0  0  0  0  0  0  0  0  0  0  0
    2.4585    1.4729   -3.1922 H   0  0  0  0  0  0  0  0  0  0  0  0
    0.5222   -2.6190   -2.3091 H   0  0  0  0  0  0  0  0  0  0  0  0
   -2.3610    0.5723    0.9231 H   0  0  0  0  0  0  0  0  0  0  0  0
   -3.7232   -2.0000   -0.1551 H   0  0  0  0  0  0  0  0  0  0  0  0
   -4.6396    0.2906    1.6876 H   0  0  0  0  0  0  0  0  0  0  0  0
   -5.7713   -3.1554   -0.0448 H   0  0  0  0  0  0  0  0  0  0  0  0
   -8.3336   -3.5909    0.7391 H   0  0  0  0  0  0  0  0  0  0  0  0
   -8.9260   -1.4336    2.3630 H   0  0  0  0  0  0  0  0  0  0  0  0
    3.8338   -0.7036    0.2303 H   0  0  0  0  0  0  0  0  0  0  0  0
    6.6307    1.2228    0.9284 H   0  0  0  0  0  0  0  0  0  0  0  0
    5.3177    1.9133    1.9267 H   0  0  0  0  0  0  0  0  0  0  0  0
    5.4385    0.1670    1.6908 H   0  0  0  0  0  0  0  0  0  0  0  0
  1  2  1  0
  2  3  2  0
  3  4  1  0
  4  5  2  0
  5  6  1  0
  6  7  2  3
  7  8  1  0
  8  9  1  0
  9 10  2  0
  9 11  1  0
 11 12  2  3
 12 13  1  0
 13 14  2  3
 14 15  1  0
 15 16  2  0
 16 17  1  0
 17 18  2  0
 18 19  1  0
 11 20  1  0
  5 21  1  0
 21 22  2  0
 22 23  1  0
 22  2  1  0
 20  7  1  0
 19 15  1  0
  1 24  1  0
  1 25  1  0
  1 26  1  0
  3 27  1  0
  4 28  1  0
  8 29  1  0
 12 30  1  0
 13 31  1  0
 14 32  1  0
 16 33  1  0
 17 34  1  0
 18 35  1  0
 21 36  1  0
 23 37  1  0
 23 38  1  0
 23 39  1  0
M  END
$$$$
