
     RDKit          3D

 49 50  0  0  0  0  0  0  0  0999 V2000
   -4.6666    2.6117    3.6544 C   0  0  0  0  0  0  0  0  0  0  0  0
   -4.7059    2.9123    2.2597 O   0  0  0  0  0  0  0  0  0  0  0  0
   -4.3905    1.8291    1.4806 C   0  0  0  0  0  0  0  0  0  0  0  0
   -3.1919    1.1250    1.6299 C   0  0  0  0  0  0  0  0  0  0  0  0
   -2.8826    0.0478    0.7801 C   0  0  0  0  0  0  0  0  0  0  0  0
   -1.5935   -0.6419    0.9679 C   0  0  0  0  0  0  0  0  0  0  0  0
   -1.3433   -1.9118    0.6110 C   0  0  0  0  0  0  0  0  0  0  0  0
   -0.0472   -2.5954    0.8123 C   0  0  0  0  0  0  0  0  0  0  0  0
    0.1341   -3.7524    0.4718 O   0  0  0  0  0  0  0  0  0  0  0  0
    0.8688   -1.7777    1.3837 O   0  0  0  0  0  0  0  0  0  0  0  0
    2.1377   -2.3859    1.6363 C   0  0  0  0  0  0  0  0  0  0  0  0
    3.0852   -2.3884    0.4320 C   0  0  0  0  0  0  0  0  0  0  0  0
    4.0735   -3.1147    0.3802 O   0  0  0  0  0  0  0  0  0  0  0  0
    2.7786   -1.4631   -0.5375 N   0  0  0  0  0  0  0  0  0  0  0  0
    3.5445   -1.3202   -1.7628 C   0  0  0  0  0  0  0  0  0  0  0  0
    4.7527   -0.3899   -1.6235 C   0  0  0  0  0  0  0  0  0  0  0  0
    5.9804   -1.0322   -0.9955 C   0  0  0  0  0  0  0  0  0  0  0  0
    7.0943   -0.1974   -1.5767 C   0  0  0  0  0  0  0  0  0  0  0  0
    6.6004    0.0352   -2.9882 C   0  0  0  0  0  0  0  0  0  0  0  0
    5.1657    0.0766   -2.9277 O   0  0  0  0  0  0  0  0  0  0  0  0
   -3.7860   -0.2896   -0.2409 C   0  0  0  0  0  0  0  0  0  0  0  0
   -4.9807    0.4184   -0.4000 C   0  0  0  0  0  0  0  0  0  0  0  0
   -5.2679    1.4844    0.4501 C   0  0  0  0  0  0  0  0  0  0  0  0
   -6.4558    2.1479    0.3010 O   0  0  0  0  0  0  0  0  0  0  0  0
   -6.3131    3.2510   -0.6063 C   0  0  0  0  0  0  0  0  0  0  0  0
   -7.1402    3.0245   -1.8055 C   0  0  0  0  0  0  0  0  0  0  0  0
   -7.7876    2.8413   -2.7542 N   0  0  0  0  0  0  0  0  0  0  0  0
   -5.1530    1.6514    3.8776 H   0  0  0  0  0  0  0  0  0  0  0  0
   -3.6318    2.6206    4.0190 H   0  0  0  0  0  0  0  0  0  0  0  0
   -5.2136    3.3986    4.1970 H   0  0  0  0  0  0  0  0  0  0  0  0
   -2.4877    1.4210    2.4040 H   0  0  0  0  0  0  0  0  0  0  0  0
   -0.8213   -0.0521    1.4597 H   0  0  0  0  0  0  0  0  0  0  0  0
   -2.0936   -2.5400    0.1394 H   0  0  0  0  0  0  0  0  0  0  0  0
    2.6214   -1.8006    2.4277 H   0  0  0  0  0  0  0  0  0  0  0  0
    2.0169   -3.4112    2.0090 H   0  0  0  0  0  0  0  0  0  0  0  0
    1.9545   -0.8846   -0.4079 H   0  0  0  0  0  0  0  0  0  0  0  0
    2.8550   -0.9217   -2.5162 H   0  0  0  0  0  0  0  0  0  0  0  0
    3.8552   -2.3105   -2.1148 H   0  0  0  0  0  0  0  0  0  0  0  0
    4.4691    0.5054   -1.0526 H   0  0  0  0  0  0  0  0  0  0  0  0
    5.9608   -1.0177    0.0981 H   0  0  0  0  0  0  0  0  0  0  0  0
    6.0953   -2.0722   -1.3264 H   0  0  0  0  0  0  0  0  0  0  0  0
    7.1631    0.7578   -1.0394 H   0  0  0  0  0  0  0  0  0  0  0  0
    8.0729   -0.6858   -1.5386 H   0  0  0  0  0  0  0  0  0  0  0  0
    6.8822   -0.7941   -3.6478 H   0  0  0  0  0  0  0  0  0  0  0  0
    6.9767    0.9669   -3.4187 H   0  0  0  0  0  0  0  0  0  0  0  0
   -3.5755   -1.0995   -0.9362 H   0  0  0  0  0  0  0  0  0  0  0  0
   -5.6774    0.1409   -1.1884 H   0  0  0  0  0  0  0  0  0  0  0  0
   -6.6608    4.1477   -0.0778 H   0  0  0  0  0  0  0  0  0  0  0  0
   -5.2715    3.4353   -0.9005 H   0  0  0  0  0  0  0  0  0  0  0  0
  1  2  1  0
  2  3  1  0
  3  4  2  0
  4  5  1  0
  5  6  1  0
  6  7  2  3
  7  8  1  0
  8  9  2  0
  8 10  1  0
 10 11  1  0
 11 12  1  0
 12 13  2  0
 12 14  1  0
 14 15  1  0
 15 16  1  0
 16 17  1  0
 17 18  1  0
 18 19  1  0
 19 20  1  0
  5 21  2  0
 21 22  1  0
 22 23  2  0
 23 24  1  0
 24 25  1  0
 25 26  1  0
 26 27  3  0
 23  3  1  0
 20 16  1  0
  1 28  1  0
  1 29  1  0
  1 30  1  0
  4 31  1  0
  6 32  1  0
  7 33  1  0
 11 34  1  0
 11 35  1  0
 14 36  1  0
 15 37  1  0
 15 38  1  0
 16 39  1  0
 17 40  1  0
 17 41  1  0
 18 42  1  0
 18 43  1  0
 19 44  1  0
 19 45  1  0
 21 46  1  0
 22 47  1  0
 25 48  1  0
 25 49  1  0
M  END
$$$$
