
     RDKit          3D

 37 37  0  0  0  0  0  0  0  0999 V2000
    5.3500   -1.0447   -0.9065 C   0  0  0  0  0  0  0  0  0  0  0  0
    5.2395    0.4513   -0.6498 C   0  0  0  0  0  0  0  0  0  0  0  0
    4.2142    1.1460   -1.5504 C   0  0  0  0  0  0  0  0  0  0  0  0
    2.8282    1.3295   -0.9234 C   0  0  0  0  0  0  0  0  0  0  0  0
    2.1014    0.0243   -0.6130 C   0  0  0  0  0  0  0  0  0  0  0  0
    0.6624    0.2537   -0.1791 C   0  0  0  0  0  0  0  0  0  0  0  0
    0.1806    1.3698   -0.0123 O   0  0  0  0  0  0  0  0  0  0  0  0
   -0.0157   -0.9583   -0.0055 N   0  0  0  0  0  0  0  0  0  0  0  0
   -1.2240   -0.9916    0.6395 N   0  0  0  0  0  0  0  0  0  0  0  0
   -2.2538   -0.4181    0.0800 C   0  0  0  0  0  0  0  0  0  0  0  0
   -2.2627    0.1567   -1.3245 C   0  0  0  0  0  0  0  0  0  0  0  0
   -3.5331   -0.3523    0.8575 C   0  0  0  0  0  0  0  0  0  0  0  0
   -4.5002    0.6249    0.5876 C   0  0  0  0  0  0  0  0  0  0  0  0
   -5.6840    0.6668    1.3315 C   0  0  0  0  0  0  0  0  0  0  0  0
   -5.9000   -0.2623    2.3480 C   0  0  0  0  0  0  0  0  0  0  0  0
   -7.3574   -0.2080    3.2599 Cl  0  0  0  0  0  0  0  0  0  0  0  0
   -4.9405   -1.2314    2.6324 C   0  0  0  0  0  0  0  0  0  0  0  0
   -3.7567   -1.2741    1.8905 C   0  0  0  0  0  0  0  0  0  0  0  0
    5.6311   -1.2420   -1.9461 H   0  0  0  0  0  0  0  0  0  0  0  0
    4.4130   -1.5675   -0.7025 H   0  0  0  0  0  0  0  0  0  0  0  0
    6.1219   -1.4791   -0.2629 H   0  0  0  0  0  0  0  0  0  0  0  0
    5.0195    0.6369    0.4075 H   0  0  0  0  0  0  0  0  0  0  0  0
    6.2252    0.8910   -0.8465 H   0  0  0  0  0  0  0  0  0  0  0  0
    4.5952    2.1500   -1.7787 H   0  0  0  0  0  0  0  0  0  0  0  0
    4.1263    0.6264   -2.5120 H   0  0  0  0  0  0  0  0  0  0  0  0
    2.9167    1.9269   -0.0071 H   0  0  0  0  0  0  0  0  0  0  0  0
    2.2210    1.9255   -1.6170 H   0  0  0  0  0  0  0  0  0  0  0  0
    2.0937   -0.6196   -1.5000 H   0  0  0  0  0  0  0  0  0  0  0  0
    2.6092   -0.5028    0.2017 H   0  0  0  0  0  0  0  0  0  0  0  0
    0.5805   -1.7386    0.2562 H   0  0  0  0  0  0  0  0  0  0  0  0
   -3.2355   -0.0062   -1.7984 H   0  0  0  0  0  0  0  0  0  0  0  0
   -1.5198   -0.3344   -1.9582 H   0  0  0  0  0  0  0  0  0  0  0  0
   -2.0605    1.2301   -1.2894 H   0  0  0  0  0  0  0  0  0  0  0  0
   -4.3434    1.3752   -0.1826 H   0  0  0  0  0  0  0  0  0  0  0  0
   -6.4278    1.4303    1.1178 H   0  0  0  0  0  0  0  0  0  0  0  0
   -5.1030   -1.9525    3.4290 H   0  0  0  0  0  0  0  0  0  0  0  0
   -3.0114   -2.0319    2.1230 H   0  0  0  0  0  0  0  0  0  0  0  0
  1  2  1  0
  2  3  1  0
  3  4  1  0
  4  5  1  0
  5  6  1  0
  6  7  2  0
  6  8  1  0
  8  9  1  0
  9 10  2  3
 10 11  1  0
 10 12  1  0
 12 13  2  0
 13 14  1  0
 14 15  2  0
 15 16  1  0
 15 17  1  0
 17 18  2  0
 18 12  1  0
  1 19  1  0
  1 20  1  0
  1 21  1  0
  2 22  1  0
  2 23  1  0
  3 24  1  0
  3 25  1  0
  4 26  1  0
  4 27  1  0
  5 28  1  0
  5 29  1  0
  8 30  1  0
 11 31  1  0
 11 32  1  0
 11 33  1  0
 13 34  1  0
 14 35  1  0
 17 36  1  0
 18 37  1  0
M  END
$$$$
