
     RDKit          3D

 45 47  0  0  0  0  0  0  0  0999 V2000
   -4.9156   -2.2266   -1.9000 C   0  0  0  0  0  0  0  0  0  0  0  0
   -4.0134   -1.5091   -1.0659 O   0  0  0  0  0  0  0  0  0  0  0  0
   -4.5408   -0.9241    0.0641 C   0  0  0  0  0  0  0  0  0  0  0  0
   -5.8870   -0.9753    0.4381 C   0  0  0  0  0  0  0  0  0  0  0  0
   -6.3123   -0.3461    1.6094 C   0  0  0  0  0  0  0  0  0  0  0  0
   -5.3981    0.3348    2.4089 C   0  0  0  0  0  0  0  0  0  0  0  0
   -4.0516    0.3928    2.0433 C   0  0  0  0  0  0  0  0  0  0  0  0
   -3.6136   -0.2317    0.8742 C   0  0  0  0  0  0  0  0  0  0  0  0
   -2.2703   -0.2225    0.4358 N   0  0  0  0  0  0  0  0  0  0  0  0
   -1.1779    0.3874    1.0210 C   0  0  0  0  0  0  0  0  0  0  0  0
   -1.1896    1.0487    2.0532 O   0  0  0  0  0  0  0  0  0  0  0  0
    0.1151    0.1176    0.2468 C   0  0  0  0  0  0  0  0  0  0  0  0
    1.2398    1.1047    0.6200 C   0  0  0  0  0  0  0  0  0  0  0  0
    2.5778    0.4129    0.8621 C   0  0  0  0  0  0  0  0  0  0  0  0
    2.8061   -0.5403   -0.2469 N   0  0  0  0  0  0  0  0  0  0  0  0
    4.4330   -1.0260   -0.4659 S   0  0  0  0  0  6  0  0  0  0  0  0
    4.9633   -1.3569    0.8388 O   0  0  0  0  0  0  0  0  0  0  0  0
    4.4666   -1.9584   -1.5722 O   0  0  0  0  0  0  0  0  0  0  0  0
    5.3272    0.3968   -1.0484 C   0  0  0  0  0  0  0  0  0  0  0  0
    4.9161    1.5486   -1.6936 C   0  0  0  0  0  0  0  0  0  0  0  0
    6.0018    2.4249   -1.9830 C   0  0  0  0  0  0  0  0  0  0  0  0
    7.2060    1.9058   -1.5619 C   0  0  0  0  0  0  0  0  0  0  0  0
    7.0232    0.3697   -0.8296 S   0  0  0  0  0  0  0  0  0  0  0  0
    1.8475   -1.6772   -0.2502 C   0  0  0  0  0  0  0  0  0  0  0  0
    0.5446   -1.3379    0.4711 C   0  0  0  0  0  0  0  0  0  0  0  0
   -5.6841   -1.5641   -2.3110 H   0  0  0  0  0  0  0  0  0  0  0  0
   -5.3622   -3.0709   -1.3648 H   0  0  0  0  0  0  0  0  0  0  0  0
   -4.3422   -2.6317   -2.7393 H   0  0  0  0  0  0  0  0  0  0  0  0
   -6.6308   -1.4944   -0.1563 H   0  0  0  0  0  0  0  0  0  0  0  0
   -7.3594   -0.3872    1.8996 H   0  0  0  0  0  0  0  0  0  0  0  0
   -5.7297    0.8242    3.3215 H   0  0  0  0  0  0  0  0  0  0  0  0
   -3.3699    0.9318    2.6930 H   0  0  0  0  0  0  0  0  0  0  0  0
   -2.1351   -0.7238   -0.4370 H   0  0  0  0  0  0  0  0  0  0  0  0
   -0.1073    0.2582   -0.8205 H   0  0  0  0  0  0  0  0  0  0  0  0
    1.3534    1.8146   -0.2106 H   0  0  0  0  0  0  0  0  0  0  0  0
    1.0013    1.7160    1.4964 H   0  0  0  0  0  0  0  0  0  0  0  0
    2.5823   -0.1101    1.8255 H   0  0  0  0  0  0  0  0  0  0  0  0
    3.3633    1.1745    0.8952 H   0  0  0  0  0  0  0  0  0  0  0  0
    3.8805    1.7447   -1.9440 H   0  0  0  0  0  0  0  0  0  0  0  0
    5.9069    3.3835   -2.4792 H   0  0  0  0  0  0  0  0  0  0  0  0
    8.1884    2.3491   -1.6539 H   0  0  0  0  0  0  0  0  0  0  0  0
    2.2881   -2.5654    0.2164 H   0  0  0  0  0  0  0  0  0  0  0  0
    1.6256   -1.9184   -1.2963 H   0  0  0  0  0  0  0  0  0  0  0  0
   -0.2354   -2.0377    0.1476 H   0  0  0  0  0  0  0  0  0  0  0  0
    0.6684   -1.5155    1.5483 H   0  0  0  0  0  0  0  0  0  0  0  0
  1  2  1  0
  2  3  1  0
  3  4  2  0
  4  5  1  0
  5  6  2  0
  6  7  1  0
  7  8  2  0
  8  9  1  0
  9 10  1  0
 10 11  2  0
 10 12  1  0
 12 13  1  0
 13 14  1  0
 14 15  1  0
 15 16  1  0
 16 17  2  0
 16 18  2  0
 16 19  1  0
 19 20  2  0
 20 21  1  0
 21 22  2  0
 22 23  1  0
 15 24  1  0
 24 25  1  0
  8  3  1  0
 25 12  1  0
 23 19  1  0
  1 26  1  0
  1 27  1  0
  1 28  1  0
  4 29  1  0
  5 30  1  0
  6 31  1  0
  7 32  1  0
  9 33  1  0
 12 34  1  0
 13 35  1  0
 13 36  1  0
 14 37  1  0
 14 38  1  0
 20 39  1  0
 21 40  1  0
 22 41  1  0
 24 42  1  0
 24 43  1  0
 25 44  1  0
 25 45  1  0
M  END
$$$$
