
     RDKit          3D

 60 64  0  0  0  0  0  0  0  0999 V2000
   -6.7593   -3.6731    1.3776 C   0  0  0  0  0  0  0  0  0  0  0  0
   -5.5937   -2.9169    0.8133 C   0  0  0  0  0  0  0  0  0  0  0  0
   -4.5233   -3.5911    0.2225 C   0  0  0  0  0  0  0  0  0  0  0  0
   -3.4502   -2.8737   -0.3173 C   0  0  0  0  0  0  0  0  0  0  0  0
   -3.4231   -1.4692   -0.3039 C   0  0  0  0  0  0  0  0  0  0  0  0
   -2.3106   -0.8180   -0.8459 N   0  0  0  0  0  0  0  0  0  0  0  0
   -1.8872    0.5076   -0.9060 C   0  0  0  0  0  0  0  0  0  0  0  0
   -0.7539    0.6881   -1.5605 N   0  0  0  0  0  0  0  0  0  0  0  0
   -0.3019    1.9387   -1.5524 C   0  0  0  0  0  0  0  0  0  0  0  0
    0.8625    2.2181   -2.2478 O   0  0  0  0  0  0  0  0  0  0  0  0
    1.8551    1.2910   -2.0315 C   0  0  0  0  0  0  0  0  0  0  0  0
    2.3382    0.5603   -3.0993 C   0  0  0  0  0  0  0  0  0  0  0  0
    3.3646   -0.3453   -2.8586 C   0  0  0  0  0  0  0  0  0  0  0  0
    3.8723   -0.4336   -1.5737 C   0  0  0  0  0  0  0  0  0  0  0  0
    4.8849   -1.3455   -1.3657 O   0  0  0  0  0  0  0  0  0  0  0  0
    5.3864   -1.3261   -0.0280 C   0  0  0  0  0  0  0  0  0  0  0  0
    6.4562   -2.3861    0.1001 C   0  0  0  0  0  0  0  0  0  0  0  0
    7.5022   -2.4680   -0.8321 C   0  0  0  0  0  0  0  0  0  0  0  0
    8.4979   -3.4395   -0.7040 C   0  0  0  0  0  0  0  0  0  0  0  0
    8.4643   -4.3323    0.3645 C   0  0  0  0  0  0  0  0  0  0  0  0
    7.4379   -4.2532    1.3055 C   0  0  0  0  0  0  0  0  0  0  0  0
    6.4406   -3.2837    1.1768 C   0  0  0  0  0  0  0  0  0  0  0  0
    3.4036    0.3239   -0.5570 N   0  0  0  0  0  0  0  0  0  0  0  0
    2.3815    1.2005   -0.7866 N   0  0  0  0  0  0  0  0  0  0  0  0
   -0.9199    2.9887   -1.0360 N   0  0  0  0  0  0  0  0  0  0  0  0
   -2.0605    2.7253   -0.4128 C   0  0  0  0  0  0  0  0  0  0  0  0
   -2.7619    3.7843    0.1421 N   0  0  0  0  0  0  0  0  0  0  0  0
   -3.8463    3.5054    1.0944 C   0  0  0  0  0  0  0  0  0  0  0  0
   -3.5299    4.1323    2.4616 C   0  0  0  0  0  0  0  0  0  0  0  0
   -3.3449    5.5559    2.4148 O   0  0  0  0  0  0  0  0  0  0  0  0
   -2.8603    6.0258    1.1451 C   0  0  0  0  0  0  0  0  0  0  0  0
   -1.9809    5.0015    0.4117 C   0  0  0  0  0  0  0  0  0  0  0  0
   -2.5651    1.4963   -0.3338 N   0  0  0  0  0  0  0  0  0  0  0  0
   -4.5063   -0.8092    0.2777 C   0  0  0  0  0  0  0  0  0  0  0  0
   -5.5810   -1.5191    0.8284 C   0  0  0  0  0  0  0  0  0  0  0  0
   -7.5386   -3.7768    0.6175 H   0  0  0  0  0  0  0  0  0  0  0  0
   -7.1794   -3.1561    2.2476 H   0  0  0  0  0  0  0  0  0  0  0  0
   -6.4539   -4.6719    1.7084 H   0  0  0  0  0  0  0  0  0  0  0  0
   -4.5078   -4.6779    0.1867 H   0  0  0  0  0  0  0  0  0  0  0  0
   -2.6257   -3.4318   -0.7565 H   0  0  0  0  0  0  0  0  0  0  0  0
   -1.6315   -1.4048   -1.3060 H   0  0  0  0  0  0  0  0  0  0  0  0
    1.9194    0.6807   -4.0907 H   0  0  0  0  0  0  0  0  0  0  0  0
    3.7684   -0.9621   -3.6542 H   0  0  0  0  0  0  0  0  0  0  0  0
    5.8347   -0.3495    0.2009 H   0  0  0  0  0  0  0  0  0  0  0  0
    4.5761   -1.5374    0.6808 H   0  0  0  0  0  0  0  0  0  0  0  0
    7.5415   -1.7755   -1.6698 H   0  0  0  0  0  0  0  0  0  0  0  0
    9.2982   -3.4958   -1.4379 H   0  0  0  0  0  0  0  0  0  0  0  0
    9.2398   -5.0885    0.4699 H   0  0  0  0  0  0  0  0  0  0  0  0
    7.4170   -4.9473    2.1413 H   0  0  0  0  0  0  0  0  0  0  0  0
    5.6487   -3.2339    1.9220 H   0  0  0  0  0  0  0  0  0  0  0  0
   -4.0532    2.4402    1.2344 H   0  0  0  0  0  0  0  0  0  0  0  0
   -4.7581    3.9646    0.6897 H   0  0  0  0  0  0  0  0  0  0  0  0
   -4.3476    3.9360    3.1629 H   0  0  0  0  0  0  0  0  0  0  0  0
   -2.6202    3.6892    2.8834 H   0  0  0  0  0  0  0  0  0  0  0  0
   -3.7333    6.2870    0.5382 H   0  0  0  0  0  0  0  0  0  0  0  0
   -2.2968    6.9437    1.3254 H   0  0  0  0  0  0  0  0  0  0  0  0
   -1.1228    4.7519    1.0523 H   0  0  0  0  0  0  0  0  0  0  0  0
   -1.6150    5.4484   -0.5233 H   0  0  0  0  0  0  0  0  0  0  0  0
   -4.5446    0.2735    0.3145 H   0  0  0  0  0  0  0  0  0  0  0  0
   -6.4032   -0.9642    1.2799 H   0  0  0  0  0  0  0  0  0  0  0  0
  1  2  1  0
  2  3  2  0
  3  4  1  0
  4  5  2  0
  5  6  1  0
  6  7  1  0
  7  8  2  0
  8  9  1  0
  9 10  1  0
 10 11  1  0
 11 12  2  0
 12 13  1  0
 13 14  2  0
 14 15  1  0
 15 16  1  0
 16 17  1  0
 17 18  2  0
 18 19  1  0
 19 20  2  0
 20 21  1  0
 21 22  2  0
 14 23  1  0
 23 24  2  0
  9 25  2  0
 25 26  1  0
 26 27  1  0
 27 28  1  0
 28 29  1  0
 29 30  1  0
 30 31  1  0
 31 32  1  0
 26 33  2  0
  5 34  1  0
 34 35  2  0
 35  2  1  0
 33  7  1  0
 24 11  1  0
 32 27  1  0
 22 17  1  0
  1 36  1  0
  1 37  1  0
  1 38  1  0
  3 39  1  0
  4 40  1  0
  6 41  1  0
 12 42  1  0
 13 43  1  0
 16 44  1  0
 16 45  1  0
 18 46  1  0
 19 47  1  0
 20 48  1  0
 21 49  1  0
 22 50  1  0
 28 51  1  0
 28 52  1  0
 29 53  1  0
 29 54  1  0
 31 55  1  0
 31 56  1  0
 32 57  1  0
 32 58  1  0
 34 59  1  0
 35 60  1  0
M  END
$$$$
