
     RDKit          3D

 46 49  0  0  0  0  0  0  0  0999 V2000
    5.7724    0.5130   -1.3895 C   0  0  0  0  0  0  0  0  0  0  0  0
    4.8284   -0.2078   -0.7703 C   0  0  0  0  0  0  0  0  0  0  0  0
    3.3477    0.0615   -0.8916 C   0  0  0  0  0  0  0  0  0  0  0  0
    2.5752   -1.1795   -1.4206 C   0  0  0  0  0  0  0  0  0  0  0  0
    1.2771   -1.3596   -0.7109 N   0  0  0  0  0  0  0  0  0  0  0  0
    1.5917   -1.7363    0.6924 C   0  0  0  0  0  0  0  0  0  0  0  0
    2.5529   -0.7432    1.3619 C   0  0  0  0  0  0  0  0  0  0  0  0
    2.7061    0.4878    0.4546 C   0  0  0  0  0  0  0  0  0  0  0  0
    1.2717    0.9778    0.1605 C   0  0  0  0  0  0  0  0  0  0  0  0
    0.5609   -0.0463   -0.7521 C   0  0  0  0  0  0  0  0  0  0  0  0
   -0.9132   -0.1987   -0.4738 C   0  0  0  0  0  0  0  0  0  0  0  0
   -1.4778   -1.4533   -0.4199 N   0  0  0  0  0  0  0  0  0  0  0  0
   -2.8291   -1.3859   -0.2101 C   0  0  0  0  0  0  0  0  0  0  0  0
   -3.7732   -2.4103   -0.0732 C   0  0  0  0  0  0  0  0  0  0  0  0
   -5.1093   -2.0403    0.1029 C   0  0  0  0  0  0  0  0  0  0  0  0
   -5.4825   -0.6994    0.1309 C   0  0  0  0  0  0  0  0  0  0  0  0
   -4.5233    0.3100   -0.0116 C   0  0  0  0  0  0  0  0  0  0  0  0
   -3.1645   -0.0357   -0.1751 C   0  0  0  0  0  0  0  0  0  0  0  0
   -1.9517    0.7194   -0.3409 C   0  0  0  0  0  0  0  0  0  0  0  0
   -1.8672    2.2191   -0.4093 C   0  0  0  0  0  0  0  0  0  0  0  0
   -1.7869    2.8895    0.9631 C   0  0  0  0  0  0  0  0  0  0  0  0
   -3.0301    2.8289    1.6559 O   0  0  0  0  0  0  0  0  0  0  0  0
    5.5253    1.3559   -2.0277 H   0  0  0  0  0  0  0  0  0  0  0  0
    6.8243    0.2720   -1.2671 H   0  0  0  0  0  0  0  0  0  0  0  0
    5.1414   -1.0416   -0.1448 H   0  0  0  0  0  0  0  0  0  0  0  0
    3.1992    0.8840   -1.6062 H   0  0  0  0  0  0  0  0  0  0  0  0
    3.1671   -2.1004   -1.3335 H   0  0  0  0  0  0  0  0  0  0  0  0
    2.3856   -1.0592   -2.4952 H   0  0  0  0  0  0  0  0  0  0  0  0
    2.0316   -2.7415    0.7084 H   0  0  0  0  0  0  0  0  0  0  0  0
    0.6728   -1.8177    1.2849 H   0  0  0  0  0  0  0  0  0  0  0  0
    2.1526   -0.4449    2.3385 H   0  0  0  0  0  0  0  0  0  0  0  0
    3.5226   -1.2168    1.5488 H   0  0  0  0  0  0  0  0  0  0  0  0
    3.2871    1.2707    0.9543 H   0  0  0  0  0  0  0  0  0  0  0  0
    0.7399    1.1176    1.1084 H   0  0  0  0  0  0  0  0  0  0  0  0
    1.3113    1.9533   -0.3389 H   0  0  0  0  0  0  0  0  0  0  0  0
    0.6066    0.3266   -1.7867 H   0  0  0  0  0  0  0  0  0  0  0  0
   -0.9406   -2.3023   -0.5390 H   0  0  0  0  0  0  0  0  0  0  0  0
   -3.4845   -3.4556   -0.1083 H   0  0  0  0  0  0  0  0  0  0  0  0
   -5.8680   -2.8119    0.2110 H   0  0  0  0  0  0  0  0  0  0  0  0
   -6.5281   -0.4311    0.2596 H   0  0  0  0  0  0  0  0  0  0  0  0
   -4.8305    1.3524    0.0026 H   0  0  0  0  0  0  0  0  0  0  0  0
   -0.9887    2.5026   -1.0000 H   0  0  0  0  0  0  0  0  0  0  0  0
   -2.7438    2.5976   -0.9496 H   0  0  0  0  0  0  0  0  0  0  0  0
   -1.0187    2.4440    1.6009 H   0  0  0  0  0  0  0  0  0  0  0  0
   -1.5439    3.9492    0.8356 H   0  0  0  0  0  0  0  0  0  0  0  0
   -3.1960    1.8866    1.8444 H   0  0  0  0  0  0  0  0  0  0  0  0
  1  2  2  0
  2  3  1  0
  3  4  1  0
  4  5  1  0
  5  6  1  0
  6  7  1  0
  7  8  1  0
  8  9  1  0
  9 10  1  0
 10 11  1  0
 11 12  1  0
 12 13  1  0
 13 14  2  0
 14 15  1  0
 15 16  2  0
 16 17  1  0
 17 18  2  0
 18 19  1  0
 19 20  1  0
 20 21  1  0
 21 22  1  0
  8  3  1  0
 19 11  2  0
 10  5  1  0
 18 13  1  0
  1 23  1  0
  1 24  1  0
  2 25  1  0
  3 26  1  0
  4 27  1  0
  4 28  1  0
  6 29  1  0
  6 30  1  0
  7 31  1  0
  7 32  1  0
  8 33  1  0
  9 34  1  0
  9 35  1  0
 10 36  1  0
 12 37  1  0
 14 38  1  0
 15 39  1  0
 16 40  1  0
 17 41  1  0
 20 42  1  0
 20 43  1  0
 21 44  1  0
 21 45  1  0
 22 46  1  0
M  END
$$$$
