
     RDKit          3D

 53 55  0  0  0  0  0  0  0  0999 V2000
    6.8861   -1.8760    3.1551 C   0  0  0  0  0  0  0  0  0  0  0  0
    6.1728   -2.5842    2.1494 O   0  0  0  0  0  0  0  0  0  0  0  0
    5.2474   -1.8814    1.4272 C   0  0  0  0  0  0  0  0  0  0  0  0
    4.9235   -0.5373    1.5970 C   0  0  0  0  0  0  0  0  0  0  0  0
    3.9403    0.0549    0.7940 C   0  0  0  0  0  0  0  0  0  0  0  0
    3.2682   -0.6873   -0.1923 C   0  0  0  0  0  0  0  0  0  0  0  0
    2.2718   -0.1097   -1.0000 C   0  0  0  0  0  0  0  0  0  0  0  0
    1.6011   -0.8613   -1.9811 C   0  0  0  0  0  0  0  0  0  0  0  0
    0.4839   -0.2532   -2.8217 C   0  0  0  0  0  0  0  0  0  0  0  0
    1.0202    0.8679   -3.7235 C   0  0  0  0  0  0  0  0  0  0  0  0
   -0.7094    0.2271   -1.9757 C   0  0  0  0  0  0  0  0  0  0  0  0
   -1.2217    1.3323   -2.1480 O   0  0  0  0  0  0  0  0  0  0  0  0
   -1.1480   -0.7182   -1.0536 N   0  0  0  0  0  0  0  0  0  0  0  0
   -2.2669   -0.5953   -0.2071 C   0  0  0  0  0  0  0  0  0  0  0  0
   -2.3198   -1.4206    0.9236 C   0  0  0  0  0  0  0  0  0  0  0  0
   -3.3881   -1.3323    1.8206 C   0  0  0  0  0  0  0  0  0  0  0  0
   -4.4187   -0.4220    1.5899 C   0  0  0  0  0  0  0  0  0  0  0  0
   -4.3764    0.3884    0.4519 C   0  0  0  0  0  0  0  0  0  0  0  0
   -5.7097    1.5232    0.1132 S   0  0  0  0  0  6  0  0  0  0  0  0
   -6.7201    1.3174    1.1326 O   0  0  0  0  0  0  0  0  0  0  0  0
   -6.0376    1.3958   -1.2919 O   0  0  0  0  0  0  0  0  0  0  0  0
   -5.0131    3.0542    0.3829 N   0  0  0  0  0  0  0  0  0  0  0  0
   -4.6204    3.3728    1.7663 C   0  0  0  0  0  0  0  0  0  0  0  0
   -4.0563    3.5530   -0.6187 C   0  0  0  0  0  0  0  0  0  0  0  0
   -3.3194    0.2870   -0.4577 C   0  0  0  0  0  0  0  0  0  0  0  0
    1.9519   -2.2061   -2.1580 C   0  0  0  0  0  0  0  0  0  0  0  0
    2.9399   -2.7923   -1.3622 C   0  0  0  0  0  0  0  0  0  0  0  0
    3.6016   -2.0472   -0.3727 C   0  0  0  0  0  0  0  0  0  0  0  0
    4.5887   -2.6264    0.4425 C   0  0  0  0  0  0  0  0  0  0  0  0
    6.2103   -1.4747    3.9142 H   0  0  0  0  0  0  0  0  0  0  0  0
    7.5528   -2.5881    3.6538 H   0  0  0  0  0  0  0  0  0  0  0  0
    7.5023   -1.0847    2.7136 H   0  0  0  0  0  0  0  0  0  0  0  0
    5.4131    0.0807    2.3430 H   0  0  0  0  0  0  0  0  0  0  0  0
    3.7040    1.1064    0.9483 H   0  0  0  0  0  0  0  0  0  0  0  0
    2.0123    0.9386   -0.8558 H   0  0  0  0  0  0  0  0  0  0  0  0
    0.0760   -1.0287   -3.4889 H   0  0  0  0  0  0  0  0  0  0  0  0
    0.2377    1.2316   -4.4010 H   0  0  0  0  0  0  0  0  0  0  0  0
    1.8557    0.5138   -4.3398 H   0  0  0  0  0  0  0  0  0  0  0  0
    1.3720    1.7299   -3.1391 H   0  0  0  0  0  0  0  0  0  0  0  0
   -0.4916   -1.4571   -0.8212 H   0  0  0  0  0  0  0  0  0  0  0  0
   -1.5227   -2.1315    1.1335 H   0  0  0  0  0  0  0  0  0  0  0  0
   -3.4171   -1.9771    2.6974 H   0  0  0  0  0  0  0  0  0  0  0  0
   -5.2516   -0.3627    2.2874 H   0  0  0  0  0  0  0  0  0  0  0  0
   -5.4556    3.2219    2.4547 H   0  0  0  0  0  0  0  0  0  0  0  0
   -3.7618    2.7643    2.0847 H   0  0  0  0  0  0  0  0  0  0  0  0
   -4.3326    4.4322    1.8405 H   0  0  0  0  0  0  0  0  0  0  0  0
   -3.0300    3.2824   -0.3552 H   0  0  0  0  0  0  0  0  0  0  0  0
   -4.1299    4.6455   -0.6698 H   0  0  0  0  0  0  0  0  0  0  0  0
   -4.2782    3.1789   -1.6203 H   0  0  0  0  0  0  0  0  0  0  0  0
   -3.3456    0.8842   -1.3638 H   0  0  0  0  0  0  0  0  0  0  0  0
    1.4593   -2.8137   -2.9162 H   0  0  0  0  0  0  0  0  0  0  0  0
    3.1938   -3.8404   -1.5232 H   0  0  0  0  0  0  0  0  0  0  0  0
    4.8556   -3.6752    0.3175 H   0  0  0  0  0  0  0  0  0  0  0  0
  1  2  1  0
  2  3  1  0
  3  4  2  0
  4  5  1  0
  5  6  2  0
  6  7  1  0
  7  8  2  0
  8  9  1  0
  9 10  1  0
  9 11  1  0
 11 12  2  0
 11 13  1  0
 13 14  1  0
 14 15  2  0
 15 16  1  0
 16 17  2  0
 17 18  1  0
 18 19  1  0
 19 20  2  0
 19 21  2  0
 19 22  1  0
 22 23  1  0
 22 24  1  0
 18 25  2  0
  8 26  1  0
 26 27  2  0
 27 28  1  0
 28 29  2  0
 29  3  1  0
 28  6  1  0
 25 14  1  0
  1 30  1  0
  1 31  1  0
  1 32  1  0
  4 33  1  0
  5 34  1  0
  7 35  1  0
  9 36  1  0
 10 37  1  0
 10 38  1  0
 10 39  1  0
 13 40  1  0
 15 41  1  0
 16 42  1  0
 17 43  1  0
 23 44  1  0
 23 45  1  0
 23 46  1  0
 24 47  1  0
 24 48  1  0
 24 49  1  0
 25 50  1  0
 26 51  1  0
 27 52  1  0
 29 53  1  0
M  END
$$$$
