
     RDKit          3D

 58 62  0  0  0  0  0  0  0  0999 V2000
   -7.1892    3.2938    0.3869 C   0  0  0  0  0  0  0  0  0  0  0  0
   -6.4508    2.5346   -0.5623 O   0  0  0  0  0  0  0  0  0  0  0  0
   -5.2107    2.1030   -0.1804 C   0  0  0  0  0  0  0  0  0  0  0  0
   -4.6202    2.3023    1.0680 C   0  0  0  0  0  0  0  0  0  0  0  0
   -3.3375    1.8047    1.3262 C   0  0  0  0  0  0  0  0  0  0  0  0
   -2.6432    1.0927    0.3410 C   0  0  0  0  0  0  0  0  0  0  0  0
   -1.2707    0.5920    0.6378 C   0  0  0  0  0  0  0  0  0  0  0  0
   -0.5046    1.3052    1.3918 N   0  0  0  0  0  0  0  0  0  0  0  0
    0.8604    0.8434    1.6281 C   0  0  0  0  0  0  0  0  0  0  0  0
    1.7005    0.9976    0.3606 C   0  0  0  0  0  0  0  0  0  0  0  0
    2.6212    1.8244    0.3234 O   0  0  0  0  0  0  0  0  0  0  0  0
    1.4701    0.1082   -0.6966 N   0  0  0  0  0  0  0  0  0  0  0  0
    2.4254    0.1659   -1.8084 C   0  0  0  0  0  0  0  0  0  0  0  0
    3.7437   -0.5247   -1.4531 C   0  0  0  0  0  0  0  0  0  0  0  0
    3.9498   -1.7188   -1.6511 O   0  0  0  0  0  0  0  0  0  0  0  0
    4.6545    0.3043   -0.8315 N   0  0  0  0  0  0  0  0  0  0  0  0
    5.8745   -0.2383   -0.2837 C   0  0  0  0  0  0  0  0  0  0  0  0
    6.7219    0.8736    0.2071 C   0  0  0  0  0  0  0  0  0  0  0  0
    6.5902    1.7823    1.2388 C   0  0  0  0  0  0  0  0  0  0  0  0
    7.7425    2.6040    1.1977 C   0  0  0  0  0  0  0  0  0  0  0  0
    8.5030    2.1455    0.1483 C   0  0  0  0  0  0  0  0  0  0  0  0
    7.8932    1.0946   -0.4577 O   0  0  0  0  0  0  0  0  0  0  0  0
    0.3947   -0.7850   -0.6228 C   0  0  0  0  0  0  0  0  0  0  0  0
    0.5309   -2.2713   -1.4485 S   0  0  0  0  0  0  0  0  0  0  0  0
   -0.9068   -2.8572   -0.7744 C   0  0  0  0  0  0  0  0  0  0  0  0
   -1.5562   -1.9139   -0.0010 C   0  0  0  0  0  0  0  0  0  0  0  0
   -0.8261   -0.6623    0.0279 C   0  0  0  0  0  0  0  0  0  0  0  0
   -2.8283   -2.2547    0.7311 C   0  0  0  0  0  0  0  0  0  0  0  0
   -3.4836   -3.5373    0.1947 C   0  0  0  0  0  0  0  0  0  0  0  0
   -2.4549   -4.6542   -0.0144 C   0  0  0  0  0  0  0  0  0  0  0  0
   -1.3909   -4.2490   -1.0437 C   0  0  0  0  0  0  0  0  0  0  0  0
   -3.2279    0.9063   -0.9162 C   0  0  0  0  0  0  0  0  0  0  0  0
   -4.5083    1.4061   -1.1679 C   0  0  0  0  0  0  0  0  0  0  0  0
   -8.1415    3.5711   -0.0757 H   0  0  0  0  0  0  0  0  0  0  0  0
   -7.4133    2.6990    1.2786 H   0  0  0  0  0  0  0  0  0  0  0  0
   -6.6639    4.2184    0.6491 H   0  0  0  0  0  0  0  0  0  0  0  0
   -5.1248    2.8439    1.8615 H   0  0  0  0  0  0  0  0  0  0  0  0
   -2.8831    1.9755    2.2999 H   0  0  0  0  0  0  0  0  0  0  0  0
    0.9106   -0.1806    2.0162 H   0  0  0  0  0  0  0  0  0  0  0  0
    1.3061    1.4812    2.4006 H   0  0  0  0  0  0  0  0  0  0  0  0
    2.0121   -0.2806   -2.7187 H   0  0  0  0  0  0  0  0  0  0  0  0
    2.6264    1.2160   -2.0551 H   0  0  0  0  0  0  0  0  0  0  0  0
    4.2702    1.1443   -0.3952 H   0  0  0  0  0  0  0  0  0  0  0  0
    5.6116   -0.9127    0.5380 H   0  0  0  0  0  0  0  0  0  0  0  0
    6.3826   -0.8255   -1.0559 H   0  0  0  0  0  0  0  0  0  0  0  0
    5.7594    1.8454    1.9288 H   0  0  0  0  0  0  0  0  0  0  0  0
    7.9881    3.4306    1.8502 H   0  0  0  0  0  0  0  0  0  0  0  0
    9.4520    2.4423   -0.2761 H   0  0  0  0  0  0  0  0  0  0  0  0
   -2.5819   -2.3934    1.7914 H   0  0  0  0  0  0  0  0  0  0  0  0
   -3.5590   -1.4447    0.6742 H   0  0  0  0  0  0  0  0  0  0  0  0
   -4.2598   -3.8696    0.8933 H   0  0  0  0  0  0  0  0  0  0  0  0
   -3.9817   -3.3224   -0.7596 H   0  0  0  0  0  0  0  0  0  0  0  0
   -1.9711   -4.8811    0.9440 H   0  0  0  0  0  0  0  0  0  0  0  0
   -2.9559   -5.5701   -0.3453 H   0  0  0  0  0  0  0  0  0  0  0  0
   -0.5639   -4.9679   -1.0138 H   0  0  0  0  0  0  0  0  0  0  0  0
   -1.8253   -4.2851   -2.0506 H   0  0  0  0  0  0  0  0  0  0  0  0
   -2.7003    0.3876   -1.7125 H   0  0  0  0  0  0  0  0  0  0  0  0
   -4.9605    1.2603   -2.1462 H   0  0  0  0  0  0  0  0  0  0  0  0
  1  2  1  0
  2  3  1  0
  3  4  2  0
  4  5  1  0
  5  6  2  0
  6  7  1  0
  7  8  2  0
  8  9  1  0
  9 10  1  0
 10 11  2  0
 10 12  1  0
 12 13  1  0
 13 14  1  0
 14 15  2  0
 14 16  1  0
 16 17  1  0
 17 18  1  0
 18 19  2  0
 19 20  1  0
 20 21  2  0
 21 22  1  0
 12 23  1  0
 23 24  1  0
 24 25  1  0
 25 26  2  0
 26 27  1  0
 26 28  1  0
 28 29  1  0
 29 30  1  0
 30 31  1  0
  6 32  1  0
 32 33  2  0
 33  3  1  0
 27  7  1  0
 22 18  1  0
 27 23  2  0
 31 25  1  0
  1 34  1  0
  1 35  1  0
  1 36  1  0
  4 37  1  0
  5 38  1  0
  9 39  1  0
  9 40  1  0
 13 41  1  0
 13 42  1  0
 16 43  1  0
 17 44  1  0
 17 45  1  0
 19 46  1  0
 20 47  1  0
 21 48  1  0
 28 49  1  0
 28 50  1  0
 29 51  1  0
 29 52  1  0
 30 53  1  0
 30 54  1  0
 31 55  1  0
 31 56  1  0
 32 57  1  0
 33 58  1  0
M  END
$$$$
