
     RDKit          3D

 49 52  0  0  0  0  0  0  0  0999 V2000
   -1.2454    5.1898    2.2260 C   0  0  0  0  0  0  0  0  0  0  0  0
   -1.1216    3.9641    1.3706 C   0  0  0  0  0  0  0  0  0  0  0  0
   -0.8179    2.7266    1.9465 C   0  0  0  0  0  0  0  0  0  0  0  0
   -0.7309    1.5783    1.1557 C   0  0  0  0  0  0  0  0  0  0  0  0
   -0.9486    1.6413   -0.2289 C   0  0  0  0  0  0  0  0  0  0  0  0
   -0.8887    0.4053   -1.1139 C   0  0  0  0  0  0  0  0  0  0  0  0
   -2.2092   -0.3656   -1.0644 C   0  0  0  0  0  0  0  0  0  0  0  0
   -1.7699   -1.6142   -0.3513 C   0  0  0  0  0  0  0  0  0  0  0  0
   -2.7394   -2.6485    0.0804 C   0  0  0  0  0  0  0  0  0  0  0  0
   -4.1056   -2.5349   -0.2010 C   0  0  0  0  0  0  0  0  0  0  0  0
   -4.9920   -3.5292    0.2217 C   0  0  0  0  0  0  0  0  0  0  0  0
   -4.5194   -4.6374    0.9238 C   0  0  0  0  0  0  0  0  0  0  0  0
   -3.1597   -4.7562    1.2051 C   0  0  0  0  0  0  0  0  0  0  0  0
   -2.2710   -3.7650    0.7846 C   0  0  0  0  0  0  0  0  0  0  0  0
   -0.4882   -1.7254   -0.1746 N   0  0  0  0  0  0  0  0  0  0  0  0
    0.0893   -0.5891   -0.6657 N   0  0  0  0  0  0  0  0  0  0  0  0
    1.4727   -0.4992   -0.8142 C   0  0  0  0  0  0  0  0  0  0  0  0
    2.1017    0.6341   -1.3571 C   0  0  0  0  0  0  0  0  0  0  0  0
    3.4938    0.7102   -1.4954 C   0  0  0  0  0  0  0  0  0  0  0  0
    4.2870   -0.3573   -1.0794 C   0  0  0  0  0  0  0  0  0  0  0  0
    6.0401   -0.2808   -1.2780 S   0  0  0  0  0  6  0  0  0  0  0  0
    6.5316    0.3524    0.1970 N   0  0  0  0  0  0  0  0  0  0  0  0
    6.3662    0.7219   -2.2657 O   0  0  0  0  0  0  0  0  0  0  0  0
    6.5763   -1.6209   -1.3323 O   0  0  0  0  0  0  0  0  0  0  0  0
    3.6995   -1.5020   -0.5475 C   0  0  0  0  0  0  0  0  0  0  0  0
    2.3078   -1.5603   -0.4148 C   0  0  0  0  0  0  0  0  0  0  0  0
   -1.2754    2.8828   -0.7973 C   0  0  0  0  0  0  0  0  0  0  0  0
   -1.3631    4.0308   -0.0052 C   0  0  0  0  0  0  0  0  0  0  0  0
   -0.5726    5.1341    3.0883 H   0  0  0  0  0  0  0  0  0  0  0  0
   -0.9754    6.0888    1.6618 H   0  0  0  0  0  0  0  0  0  0  0  0
   -2.2738    5.2931    2.5853 H   0  0  0  0  0  0  0  0  0  0  0  0
   -0.6423    2.6453    3.0170 H   0  0  0  0  0  0  0  0  0  0  0  0
   -0.4833    0.6291    1.6295 H   0  0  0  0  0  0  0  0  0  0  0  0
   -0.6822    0.7000   -2.1509 H   0  0  0  0  0  0  0  0  0  0  0  0
   -3.0108    0.1513   -0.5296 H   0  0  0  0  0  0  0  0  0  0  0  0
   -2.5446   -0.6344   -2.0718 H   0  0  0  0  0  0  0  0  0  0  0  0
   -4.5047   -1.6867   -0.7485 H   0  0  0  0  0  0  0  0  0  0  0  0
   -6.0534   -3.4403    0.0026 H   0  0  0  0  0  0  0  0  0  0  0  0
   -5.2109   -5.4099    1.2513 H   0  0  0  0  0  0  0  0  0  0  0  0
   -2.7887   -5.6198    1.7513 H   0  0  0  0  0  0  0  0  0  0  0  0
   -1.2115   -3.8693    1.0102 H   0  0  0  0  0  0  0  0  0  0  0  0
    1.5192    1.4918   -1.6804 H   0  0  0  0  0  0  0  0  0  0  0  0
    3.9418    1.6040   -1.9230 H   0  0  0  0  0  0  0  0  0  0  0  0
    7.1136   -0.3259    0.6884 H   0  0  0  0  0  0  0  0  0  0  0  0
    6.9775    1.2584    0.0544 H   0  0  0  0  0  0  0  0  0  0  0  0
    4.3040   -2.3491   -0.2333 H   0  0  0  0  0  0  0  0  0  0  0  0
    1.8642   -2.4596    0.0086 H   0  0  0  0  0  0  0  0  0  0  0  0
   -1.4658    2.9678   -1.8651 H   0  0  0  0  0  0  0  0  0  0  0  0
   -1.6203    4.9800   -0.4704 H   0  0  0  0  0  0  0  0  0  0  0  0
  1  2  1  0
  2  3  2  0
  3  4  1  0
  4  5  2  0
  5  6  1  0
  6  7  1  0
  7  8  1  0
  8  9  1  0
  9 10  2  0
 10 11  1  0
 11 12  2  0
 12 13  1  0
 13 14  2  0
  8 15  2  0
 15 16  1  0
 16 17  1  0
 17 18  2  0
 18 19  1  0
 19 20  2  0
 20 21  1  0
 21 22  1  0
 21 23  2  0
 21 24  2  0
 20 25  1  0
 25 26  2  0
  5 27  1  0
 27 28  2  0
 28  2  1  0
 16  6  1  0
 26 17  1  0
 14  9  1  0
  1 29  1  0
  1 30  1  0
  1 31  1  0
  3 32  1  0
  4 33  1  0
  6 34  1  0
  7 35  1  0
  7 36  1  0
 10 37  1  0
 11 38  1  0
 12 39  1  0
 13 40  1  0
 14 41  1  0
 18 42  1  0
 19 43  1  0
 22 44  1  0
 22 45  1  0
 25 46  1  0
 26 47  1  0
 27 48  1  0
 28 49  1  0
M  END
$$$$
