
     RDKit          3D

 40 42  0  0  0  0  0  0  0  0999 V2000
    6.5532   -2.4428    1.8730 C   0  0  0  0  0  0  0  0  0  0  0  0
    5.3373   -1.8961    1.1826 C   0  0  0  0  0  0  0  0  0  0  0  0
    4.6812   -2.6395    0.1909 C   0  0  0  0  0  0  0  0  0  0  0  0
    3.5476   -2.1282   -0.4444 C   0  0  0  0  0  0  0  0  0  0  0  0
    3.0634   -0.8710   -0.0772 C   0  0  0  0  0  0  0  0  0  0  0  0
    1.6332   -0.2010   -0.8924 S   0  0  0  0  0  6  0  0  0  0  0  0
    1.8021    1.2346   -0.9577 O   0  0  0  0  0  0  0  0  0  0  0  0
    1.3677   -1.0037   -2.0675 O   0  0  0  0  0  0  0  0  0  0  0  0
    0.4198   -0.5936    0.2495 N   0  0  0  0  0  0  0  0  0  0  0  0
   -0.7881    0.2412    0.1060 C   0  0  0  0  0  0  0  0  0  0  0  0
   -1.9691   -0.1716   -0.4592 C   0  0  0  0  0  0  0  0  0  0  0  0
   -2.8535    0.9407   -0.3574 C   0  0  0  0  0  0  0  0  0  0  0  0
   -4.2441    1.0336   -0.8172 C   0  0  0  0  0  0  0  0  0  0  0  0
   -5.0801    2.0604   -0.3526 C   0  0  0  0  0  0  0  0  0  0  0  0
   -6.4093    2.1473   -0.7738 C   0  0  0  0  0  0  0  0  0  0  0  0
   -6.9196    1.2110   -1.6694 C   0  0  0  0  0  0  0  0  0  0  0  0
   -6.1014    0.1904   -2.1469 C   0  0  0  0  0  0  0  0  0  0  0  0
   -4.7713    0.1031   -1.7245 C   0  0  0  0  0  0  0  0  0  0  0  0
   -2.2448    1.9660    0.2659 N   0  0  0  0  0  0  0  0  0  0  0  0
   -0.9953    1.5269    0.5159 N   0  0  0  0  0  0  0  0  0  0  0  0
   -0.0803    2.3907    1.2202 C   0  0  0  0  0  0  0  0  0  0  0  0
    3.7120   -0.1135    0.9030 C   0  0  0  0  0  0  0  0  0  0  0  0
    4.8447   -0.6311    1.5340 C   0  0  0  0  0  0  0  0  0  0  0  0
    7.3920   -1.7456    1.7715 H   0  0  0  0  0  0  0  0  0  0  0  0
    6.3415   -2.6014    2.9351 H   0  0  0  0  0  0  0  0  0  0  0  0
    6.8600   -3.3999    1.4405 H   0  0  0  0  0  0  0  0  0  0  0  0
    5.0530   -3.6199   -0.0968 H   0  0  0  0  0  0  0  0  0  0  0  0
    3.0593   -2.7125   -1.2204 H   0  0  0  0  0  0  0  0  0  0  0  0
    0.1933   -1.5816    0.1084 H   0  0  0  0  0  0  0  0  0  0  0  0
   -2.1763   -1.1394   -0.8922 H   0  0  0  0  0  0  0  0  0  0  0  0
   -4.6972    2.8026    0.3454 H   0  0  0  0  0  0  0  0  0  0  0  0
   -7.0421    2.9489   -0.4020 H   0  0  0  0  0  0  0  0  0  0  0  0
   -7.9529    1.2784   -1.9983 H   0  0  0  0  0  0  0  0  0  0  0  0
   -6.4954   -0.5380   -2.8513 H   0  0  0  0  0  0  0  0  0  0  0  0
   -4.1569   -0.6970   -2.1271 H   0  0  0  0  0  0  0  0  0  0  0  0
    0.7664    1.8088    1.5929 H   0  0  0  0  0  0  0  0  0  0  0  0
   -0.6067    2.8414    2.0663 H   0  0  0  0  0  0  0  0  0  0  0  0
    0.2629    3.1666    0.5308 H   0  0  0  0  0  0  0  0  0  0  0  0
    3.3462    0.8746    1.1741 H   0  0  0  0  0  0  0  0  0  0  0  0
    5.3478   -0.0397    2.2970 H   0  0  0  0  0  0  0  0  0  0  0  0
  1  2  1  0
  2  3  2  0
  3  4  1  0
  4  5  2  0
  5  6  1  0
  6  7  2  0
  6  8  2  0
  6  9  1  0
  9 10  1  0
 10 11  2  0
 11 12  1  0
 12 13  1  0
 13 14  2  0
 14 15  1  0
 15 16  2  0
 16 17  1  0
 17 18  2  0
 12 19  2  0
 19 20  1  0
 20 21  1  0
  5 22  1  0
 22 23  2  0
 23  2  1  0
 20 10  1  0
 18 13  1  0
  1 24  1  0
  1 25  1  0
  1 26  1  0
  3 27  1  0
  4 28  1  0
  9 29  1  0
 11 30  1  0
 14 31  1  0
 15 32  1  0
 16 33  1  0
 17 34  1  0
 18 35  1  0
 21 36  1  0
 21 37  1  0
 21 38  1  0
 22 39  1  0
 23 40  1  0
M  END
$$$$
