
     RDKit          3D

 38 39  0  0  0  0  0  0  0  0999 V2000
   -3.2907   -2.3755   -1.5861 O   0  0  0  0  0  0  0  0  0  0  0  0
   -2.1901   -2.1969   -2.0790 C   0  0  0  0  0  0  0  0  0  0  0  0
   -1.8192   -2.8720   -3.1841 O   0  0  0  0  0  0  0  0  0  0  0  0
   -1.1376   -1.2258   -1.6244 C   0  0  0  0  0  0  0  0  0  0  0  0
   -1.1466   -1.0302   -0.1095 C   0  0  0  0  0  0  0  0  0  0  0  0
   -1.1614    0.4547    0.2460 C   0  0  0  0  0  0  0  0  0  0  0  0
   -0.1716    1.2762    0.0224 N   0  0  0  0  0  0  0  0  0  0  0  0
    1.0110    0.7660   -0.4407 N   0  0  0  0  0  0  0  0  0  0  0  0
    1.8759    0.1341    0.4521 C   0  0  0  0  0  0  0  0  0  0  0  0
    1.5642   -0.3075    1.5547 O   0  0  0  0  0  0  0  0  0  0  0  0
    3.2609   -0.0845   -0.0389 C   0  0  0  0  0  0  0  0  0  0  0  0
    3.7856   -1.3740    0.1537 C   0  0  0  0  0  0  0  0  0  0  0  0
    5.0714   -1.6915   -0.2851 C   0  0  0  0  0  0  0  0  0  0  0  0
    5.8486   -0.7214   -0.9118 C   0  0  0  0  0  0  0  0  0  0  0  0
    5.3453    0.5684   -1.0899 C   0  0  0  0  0  0  0  0  0  0  0  0
    4.0553    0.8941   -0.6506 C   0  0  0  0  0  0  0  0  0  0  0  0
    3.5083    2.6986   -0.8770 Br  0  0  0  0  0  0  0  0  0  0  0  0
   -2.4053    1.0229    0.8570 C   0  0  0  0  0  0  0  0  0  0  0  0
   -2.2845    2.1062    1.7383 C   0  0  0  0  0  0  0  0  0  0  0  0
   -3.4193    2.6691    2.3254 C   0  0  0  0  0  0  0  0  0  0  0  0
   -4.6814    2.1572    2.0312 C   0  0  0  0  0  0  0  0  0  0  0  0
   -4.8101    1.0855    1.1486 C   0  0  0  0  0  0  0  0  0  0  0  0
   -3.6761    0.5192    0.5595 C   0  0  0  0  0  0  0  0  0  0  0  0
   -2.5895   -3.4434   -3.3872 H   0  0  0  0  0  0  0  0  0  0  0  0
   -0.1564   -1.6157   -1.9211 H   0  0  0  0  0  0  0  0  0  0  0  0
   -1.3051   -0.2893   -2.1680 H   0  0  0  0  0  0  0  0  0  0  0  0
   -0.2572   -1.4972    0.3227 H   0  0  0  0  0  0  0  0  0  0  0  0
   -1.9825   -1.5425    0.3768 H   0  0  0  0  0  0  0  0  0  0  0  0
    1.4697    1.3930   -1.0976 H   0  0  0  0  0  0  0  0  0  0  0  0
    3.1866   -2.1367    0.6499 H   0  0  0  0  0  0  0  0  0  0  0  0
    5.4660   -2.6934   -0.1322 H   0  0  0  0  0  0  0  0  0  0  0  0
    6.8532   -0.9648   -1.2506 H   0  0  0  0  0  0  0  0  0  0  0  0
    5.9759    1.3185   -1.5630 H   0  0  0  0  0  0  0  0  0  0  0  0
   -1.3030    2.5102    1.9787 H   0  0  0  0  0  0  0  0  0  0  0  0
   -3.3154    3.5053    3.0119 H   0  0  0  0  0  0  0  0  0  0  0  0
   -5.5655    2.5949    2.4880 H   0  0  0  0  0  0  0  0  0  0  0  0
   -5.7956    0.6899    0.9147 H   0  0  0  0  0  0  0  0  0  0  0  0
   -3.8139   -0.3020   -0.1367 H   0  0  0  0  0  0  0  0  0  0  0  0
  1  2  2  0
  2  3  1  0
  2  4  1  0
  4  5  1  0
  5  6  1  0
  6  7  2  3
  7  8  1  0
  8  9  1  0
  9 10  2  0
  9 11  1  0
 11 12  2  0
 12 13  1  0
 13 14  2  0
 14 15  1  0
 15 16  2  0
 16 17  1  0
  6 18  1  0
 18 19  2  0
 19 20  1  0
 20 21  2  0
 21 22  1  0
 22 23  2  0
 16 11  1  0
 23 18  1  0
  3 24  1  0
  4 25  1  0
  4 26  1  0
  5 27  1  0
  5 28  1  0
  8 29  1  0
 12 30  1  0
 13 31  1  0
 14 32  1  0
 15 33  1  0
 19 34  1  0
 20 35  1  0
 21 36  1  0
 22 37  1  0
 23 38  1  0
M  END
$$$$
