
     RDKit          3D

 58 61  0  0  0  0  0  0  0  0999 V2000
    2.4561   -1.8843   -2.0678 O   0  0  0  0  0  0  0  0  0  0  0  0
    2.4566   -1.4524   -0.9208 C   0  0  0  0  0  0  0  0  0  0  0  0
    3.4205   -1.7876    0.0067 N   0  0  0  0  0  0  0  0  0  0  0  0
    4.5722   -2.5949   -0.3551 C   0  0  0  0  0  0  0  0  0  0  0  0
    5.6568   -1.7952   -1.0867 C   0  0  0  0  0  0  0  0  0  0  0  0
    6.2285   -0.6774   -0.2420 C   0  0  0  0  0  0  0  0  0  0  0  0
    7.1403   -0.9558    0.7864 C   0  0  0  0  0  0  0  0  0  0  0  0
    7.6482    0.0765    1.5795 C   0  0  0  0  0  0  0  0  0  0  0  0
    7.2470    1.3906    1.3472 C   0  0  0  0  0  0  0  0  0  0  0  0
    7.8697    2.6601    2.3282 Cl  0  0  0  0  0  0  0  0  0  0  0  0
    6.3433    1.6822    0.3280 C   0  0  0  0  0  0  0  0  0  0  0  0
    5.8346    0.6504   -0.4649 C   0  0  0  0  0  0  0  0  0  0  0  0
    1.4034   -0.4859   -0.3827 C   0  0  0  0  0  0  0  0  0  0  0  0
    0.6240   -1.1259    0.7811 C   0  0  0  0  0  0  0  0  0  0  0  0
   -0.8116   -0.6079    0.9223 C   0  0  0  0  0  0  0  0  0  0  0  0
   -0.9204    0.8585    0.4897 C   0  0  0  0  0  0  0  0  0  0  0  0
   -2.2763    1.4976    0.8372 C   0  0  0  0  0  0  0  0  0  0  0  0
   -3.3842    0.8749    0.1268 N   0  0  0  0  0  0  0  0  0  0  0  0
   -4.7219    1.2382    0.2258 C   0  0  0  0  0  0  0  0  0  0  0  0
   -5.0401    2.4619    0.7537 N   0  0  0  0  0  0  0  0  0  0  0  0
   -6.3038    2.9634    0.9188 C   0  0  0  0  0  0  0  0  0  0  0  0
   -6.4525    4.5059    1.5631 S   0  0  0  0  0  0  0  0  0  0  0  0
   -7.3675    2.1864    0.5591 N   0  0  0  0  0  0  0  0  0  0  0  0
   -7.1124    1.0232    0.0498 C   0  0  0  0  0  0  0  0  0  0  0  0
   -8.2588    0.1561   -0.3450 C   0  0  0  0  0  0  0  0  0  0  0  0
   -8.0533   -1.0476   -0.8943 C   0  0  0  0  0  0  0  0  0  0  0  0
   -6.7283   -1.5622   -1.1379 C   0  0  0  0  0  0  0  0  0  0  0  0
   -5.6352   -0.8617   -0.8021 C   0  0  0  0  0  0  0  0  0  0  0  0
   -5.7437    0.4488   -0.1801 C   0  0  0  0  0  0  0  0  0  0  0  0
   -0.5528    1.0219   -0.9971 C   0  0  0  0  0  0  0  0  0  0  0  0
    0.4567   -0.0191   -1.4921 C   0  0  0  0  0  0  0  0  0  0  0  0
    3.4934   -1.2292    0.8487 H   0  0  0  0  0  0  0  0  0  0  0  0
    4.9613   -3.0287    0.5722 H   0  0  0  0  0  0  0  0  0  0  0  0
    4.2341   -3.4172   -0.9954 H   0  0  0  0  0  0  0  0  0  0  0  0
    6.4730   -2.4693   -1.3770 H   0  0  0  0  0  0  0  0  0  0  0  0
    5.2576   -1.3833   -2.0226 H   0  0  0  0  0  0  0  0  0  0  0  0
    7.4637   -1.9777    0.9749 H   0  0  0  0  0  0  0  0  0  0  0  0
    8.3557   -0.1505    2.3727 H   0  0  0  0  0  0  0  0  0  0  0  0
    6.0335    2.7076    0.1432 H   0  0  0  0  0  0  0  0  0  0  0  0
    5.1299    0.8880   -1.2602 H   0  0  0  0  0  0  0  0  0  0  0  0
    1.9438    0.3962   -0.0101 H   0  0  0  0  0  0  0  0  0  0  0  0
    1.1674   -0.9277    1.7151 H   0  0  0  0  0  0  0  0  0  0  0  0
    0.5924   -2.2192    0.6823 H   0  0  0  0  0  0  0  0  0  0  0  0
   -1.4713   -1.2335    0.3082 H   0  0  0  0  0  0  0  0  0  0  0  0
   -1.1397   -0.7327    1.9612 H   0  0  0  0  0  0  0  0  0  0  0  0
   -0.1705    1.4162    1.0701 H   0  0  0  0  0  0  0  0  0  0  0  0
   -2.2308    2.5648    0.5884 H   0  0  0  0  0  0  0  0  0  0  0  0
   -2.4486    1.4167    1.9176 H   0  0  0  0  0  0  0  0  0  0  0  0
   -3.2532   -0.1140   -0.0569 H   0  0  0  0  0  0  0  0  0  0  0  0
   -4.2946    3.0812    1.0291 H   0  0  0  0  0  0  0  0  0  0  0  0
   -9.2530    0.5485   -0.1673 H   0  0  0  0  0  0  0  0  0  0  0  0
   -8.8968   -1.6707   -1.1783 H   0  0  0  0  0  0  0  0  0  0  0  0
   -6.6410   -2.5374   -1.6112 H   0  0  0  0  0  0  0  0  0  0  0  0
   -4.6576   -1.2768   -1.0180 H   0  0  0  0  0  0  0  0  0  0  0  0
   -0.1374    2.0274   -1.1425 H   0  0  0  0  0  0  0  0  0  0  0  0
   -1.4390    0.9685   -1.6404 H   0  0  0  0  0  0  0  0  0  0  0  0
    1.0216    0.3984   -2.3358 H   0  0  0  0  0  0  0  0  0  0  0  0
   -0.0890   -0.8846   -1.8939 H   0  0  0  0  0  0  0  0  0  0  0  0
  1  2  2  0
  2  3  1  0
  3  4  1  0
  4  5  1  0
  5  6  1  0
  6  7  2  0
  7  8  1  0
  8  9  2  0
  9 10  1  0
  9 11  1  0
 11 12  2  0
  2 13  1  0
 13 14  1  0
 14 15  1  0
 15 16  1  0
 16 17  1  0
 17 18  1  0
 18 19  1  0
 19 20  1  0
 20 21  1  0
 21 22  2  0
 21 23  1  0
 23 24  2  0
 24 25  1  0
 25 26  2  0
 26 27  1  0
 27 28  2  0
 28 29  1  0
 16 30  1  0
 30 31  1  0
 12  6  1  0
 31 13  1  0
 29 19  2  0
 29 24  1  0
  3 32  1  0
  4 33  1  0
  4 34  1  0
  5 35  1  0
  5 36  1  0
  7 37  1  0
  8 38  1  0
 11 39  1  0
 12 40  1  0
 13 41  1  0
 14 42  1  0
 14 43  1  0
 15 44  1  0
 15 45  1  0
 16 46  1  0
 17 47  1  0
 17 48  1  0
 18 49  1  0
 20 50  1  0
 25 51  1  0
 26 52  1  0
 27 53  1  0
 28 54  1  0
 30 55  1  0
 30 56  1  0
 31 57  1  0
 31 58  1  0
M  END
$$$$
