
     RDKit          3D

 52 55  0  0  0  0  0  0  0  0999 V2000
   -6.8398   -0.6556    1.2328 C   0  0  0  0  0  0  0  0  0  0  0  0
   -6.3221    0.7120    0.8746 C   0  0  0  0  0  0  0  0  0  0  0  0
   -7.1505    1.8230    1.1194 C   0  0  0  0  0  0  0  0  0  0  0  0
   -6.7346    3.1109    0.7912 C   0  0  0  0  0  0  0  0  0  0  0  0
   -5.4913    3.3027    0.2039 C   0  0  0  0  0  0  0  0  0  0  0  0
   -4.6585    2.2081   -0.0404 C   0  0  0  0  0  0  0  0  0  0  0  0
   -5.0345    0.9038    0.3200 C   0  0  0  0  0  0  0  0  0  0  0  0
   -4.2142   -0.2104    0.0116 N   0  0  0  0  0  0  0  0  0  0  0  0
   -2.7968   -0.2589   -0.1118 C   0  0  0  0  0  0  0  0  0  0  0  0
   -2.0371    0.7593    0.3430 N   0  0  0  0  0  0  0  0  0  0  0  0
   -0.6725    0.7083    0.2776 N   0  0  0  0  0  0  0  0  0  0  0  0
   -0.0557   -0.3743   -0.2437 C   0  0  0  0  0  0  0  0  0  0  0  0
    1.4120   -0.2885   -0.2100 C   0  0  0  0  0  0  0  0  0  0  0  0
    2.0847    0.6929   -0.9585 C   0  0  0  0  0  0  0  0  0  0  0  0
    3.4801    0.7938   -0.9298 C   0  0  0  0  0  0  0  0  0  0  0  0
    4.2268   -0.0827   -0.1357 C   0  0  0  0  0  0  0  0  0  0  0  0
    5.7113   -0.0179   -0.0739 C   0  0  0  0  0  0  0  0  0  0  0  0
    6.3684   -1.0254    0.1648 O   0  0  0  0  0  0  0  0  0  0  0  0
    6.2824    1.2238   -0.2438 N   0  0  0  0  0  0  0  0  0  0  0  0
    7.7238    1.4304   -0.1936 C   0  0  0  0  0  0  0  0  0  0  0  0
    8.3133    1.2437    1.2092 C   0  0  0  0  0  0  0  0  0  0  0  0
    8.5348   -0.1289    1.5177 O   0  0  0  0  0  0  0  0  0  0  0  0
    3.5719   -1.0676    0.6111 C   0  0  0  0  0  0  0  0  0  0  0  0
    2.1770   -1.1616    0.5818 C   0  0  0  0  0  0  0  0  0  0  0  0
   -0.7835   -1.4605   -0.7653 C   0  0  0  0  0  0  0  0  0  0  0  0
   -0.1807   -2.5950   -1.3675 C   0  0  0  0  0  0  0  0  0  0  0  0
   -0.9413   -3.6458   -1.8795 C   0  0  0  0  0  0  0  0  0  0  0  0
   -2.3241   -3.5871   -1.8149 C   0  0  0  0  0  0  0  0  0  0  0  0
   -2.9425   -2.4780   -1.2370 C   0  0  0  0  0  0  0  0  0  0  0  0
   -2.1959   -1.3990   -0.6975 C   0  0  0  0  0  0  0  0  0  0  0  0
   -6.8188   -1.3129    0.3575 H   0  0  0  0  0  0  0  0  0  0  0  0
   -7.8764   -0.6167    1.5844 H   0  0  0  0  0  0  0  0  0  0  0  0
   -6.2342   -1.0909    2.0342 H   0  0  0  0  0  0  0  0  0  0  0  0
   -8.1342    1.6886    1.5643 H   0  0  0  0  0  0  0  0  0  0  0  0
   -7.3843    3.9604    0.9830 H   0  0  0  0  0  0  0  0  0  0  0  0
   -5.1644    4.3014   -0.0723 H   0  0  0  0  0  0  0  0  0  0  0  0
   -3.7039    2.3940   -0.5262 H   0  0  0  0  0  0  0  0  0  0  0  0
   -4.5082   -1.0395    0.5144 H   0  0  0  0  0  0  0  0  0  0  0  0
    1.5139    1.3866   -1.5752 H   0  0  0  0  0  0  0  0  0  0  0  0
    3.9629    1.5443   -1.5490 H   0  0  0  0  0  0  0  0  0  0  0  0
    5.6895    2.0433   -0.2303 H   0  0  0  0  0  0  0  0  0  0  0  0
    8.1874    0.7333   -0.9001 H   0  0  0  0  0  0  0  0  0  0  0  0
    7.8963    2.4556   -0.5359 H   0  0  0  0  0  0  0  0  0  0  0  0
    7.6613    1.6719    1.9772 H   0  0  0  0  0  0  0  0  0  0  0  0
    9.2863    1.7409    1.2677 H   0  0  0  0  0  0  0  0  0  0  0  0
    7.7881   -0.6401    1.1330 H   0  0  0  0  0  0  0  0  0  0  0  0
    4.1447   -1.7585    1.2273 H   0  0  0  0  0  0  0  0  0  0  0  0
    1.6876   -1.9212    1.1896 H   0  0  0  0  0  0  0  0  0  0  0  0
    0.9021   -2.6672   -1.4567 H   0  0  0  0  0  0  0  0  0  0  0  0
   -0.4504   -4.5012   -2.3373 H   0  0  0  0  0  0  0  0  0  0  0  0
   -2.9253   -4.3952   -2.2243 H   0  0  0  0  0  0  0  0  0  0  0  0
   -4.0310   -2.4527   -1.2328 H   0  0  0  0  0  0  0  0  0  0  0  0
  1  2  1  0
  2  3  2  0
  3  4  1  0
  4  5  2  0
  5  6  1  0
  6  7  2  0
  7  8  1  0
  8  9  1  0
  9 10  2  0
 10 11  1  0
 11 12  2  0
 12 13  1  0
 13 14  2  0
 14 15  1  0
 15 16  2  0
 16 17  1  0
 17 18  2  0
 17 19  1  0
 19 20  1  0
 20 21  1  0
 21 22  1  0
 16 23  1  0
 23 24  2  0
 12 25  1  0
 25 26  2  0
 26 27  1  0
 27 28  2  0
 28 29  1  0
 29 30  2  0
  7  2  1  0
 30  9  1  0
 24 13  1  0
 30 25  1  0
  1 31  1  0
  1 32  1  0
  1 33  1  0
  3 34  1  0
  4 35  1  0
  5 36  1  0
  6 37  1  0
  8 38  1  0
 14 39  1  0
 15 40  1  0
 19 41  1  0
 20 42  1  0
 20 43  1  0
 21 44  1  0
 21 45  1  0
 22 46  1  0
 23 47  1  0
 24 48  1  0
 26 49  1  0
 27 50  1  0
 28 51  1  0
 29 52  1  0
M  END
$$$$
