
     RDKit          3D

 46 49  0  0  0  0  0  0  0  0999 V2000
   -1.0332   -1.6094    4.7032 C   0  0  0  0  0  0  0  0  0  0  0  0
   -1.6199   -1.1428    3.4897 O   0  0  0  0  0  0  0  0  0  0  0  0
   -0.7192   -0.8524    2.5028 C   0  0  0  0  0  0  0  0  0  0  0  0
    0.4958   -0.9665    2.6342 O   0  0  0  0  0  0  0  0  0  0  0  0
   -1.3489   -0.3850    1.2706 C   0  0  0  0  0  0  0  0  0  0  0  0
   -2.6814   -0.2422    1.1201 N   0  0  0  0  0  0  0  0  0  0  0  0
   -2.7951    0.2206   -0.1514 N   0  0  0  0  0  0  0  0  0  0  0  0
   -4.0564    0.5119   -0.7341 C   0  0  0  0  0  0  0  0  0  0  0  0
   -5.2342    0.3142    0.0016 C   0  0  0  0  0  0  0  0  0  0  0  0
   -6.4727    0.6019   -0.5758 C   0  0  0  0  0  0  0  0  0  0  0  0
   -6.5405    1.0857   -1.8822 C   0  0  0  0  0  0  0  0  0  0  0  0
   -5.3717    1.2839   -2.6170 C   0  0  0  0  0  0  0  0  0  0  0  0
   -4.1291    0.9985   -2.0476 C   0  0  0  0  0  0  0  0  0  0  0  0
   -1.6345    0.3916   -0.8305 N   0  0  0  0  0  0  0  0  0  0  0  0
   -0.7209    0.0030    0.0668 C   0  0  0  0  0  0  0  0  0  0  0  0
    0.7156    0.0358   -0.1998 C   0  0  0  0  0  0  0  0  0  0  0  0
    1.3835    1.1703   -0.4397 N   0  0  0  0  0  0  0  0  0  0  0  0
    2.6437    0.7211   -0.6580 N   0  0  0  0  0  0  0  0  0  0  0  0
    3.7152    1.6040   -0.9543 C   0  0  0  0  0  0  0  0  0  0  0  0
    5.0056    1.0976   -1.1690 C   0  0  0  0  0  0  0  0  0  0  0  0
    6.0565    1.9697   -1.4605 C   0  0  0  0  0  0  0  0  0  0  0  0
    5.8253    3.3429   -1.5388 C   0  0  0  0  0  0  0  0  0  0  0  0
    4.5436    3.8504   -1.3260 C   0  0  0  0  0  0  0  0  0  0  0  0
    3.4870    2.9857   -1.0337 C   0  0  0  0  0  0  0  0  0  0  0  0
    2.8212   -0.6229   -0.5811 N   0  0  0  0  0  0  0  0  0  0  0  0
    1.5848   -1.0737   -0.2869 C   0  0  0  0  0  0  0  0  0  0  0  0
    1.2584   -2.4869   -0.1151 C   0  0  0  0  0  0  0  0  0  0  0  0
    0.1269   -2.8883    0.1396 O   0  0  0  0  0  0  0  0  0  0  0  0
    2.3385   -3.3106   -0.2715 O   0  0  0  0  0  0  0  0  0  0  0  0
    2.0506   -4.6973   -0.1012 C   0  0  0  0  0  0  0  0  0  0  0  0
   -1.8393   -1.8128    5.4135 H   0  0  0  0  0  0  0  0  0  0  0  0
   -0.3792   -0.8438    5.1323 H   0  0  0  0  0  0  0  0  0  0  0  0
   -0.4817   -2.5389    4.5305 H   0  0  0  0  0  0  0  0  0  0  0  0
   -5.2036   -0.0629    1.0221 H   0  0  0  0  0  0  0  0  0  0  0  0
   -7.3854    0.4483   -0.0053 H   0  0  0  0  0  0  0  0  0  0  0  0
   -7.5064    1.3089   -2.3286 H   0  0  0  0  0  0  0  0  0  0  0  0
   -5.4273    1.6618   -3.6349 H   0  0  0  0  0  0  0  0  0  0  0  0
   -3.2291    1.1615   -2.6378 H   0  0  0  0  0  0  0  0  0  0  0  0
    5.2077    0.0297   -1.1122 H   0  0  0  0  0  0  0  0  0  0  0  0
    7.0566    1.5768   -1.6266 H   0  0  0  0  0  0  0  0  0  0  0  0
    6.6456    4.0191   -1.7662 H   0  0  0  0  0  0  0  0  0  0  0  0
    4.3660    4.9213   -1.3882 H   0  0  0  0  0  0  0  0  0  0  0  0
    2.4944    3.4022   -0.8724 H   0  0  0  0  0  0  0  0  0  0  0  0
    1.3248   -5.0332   -0.8484 H   0  0  0  0  0  0  0  0  0  0  0  0
    2.9789   -5.2568   -0.2455 H   0  0  0  0  0  0  0  0  0  0  0  0
    1.6835   -4.8915    0.9115 H   0  0  0  0  0  0  0  0  0  0  0  0
  1  2  1  0
  2  3  1  0
  3  4  2  0
  3  5  1  0
  5  6  2  0
  6  7  1  0
  7  8  1  0
  8  9  2  0
  9 10  1  0
 10 11  2  0
 11 12  1  0
 12 13  2  0
  7 14  1  0
 14 15  2  0
 15 16  1  0
 16 17  2  0
 17 18  1  0
 18 19  1  0
 19 20  2  0
 20 21  1  0
 21 22  2  0
 22 23  1  0
 23 24  2  0
 18 25  1  0
 25 26  2  0
 26 27  1  0
 27 28  2  0
 27 29  1  0
 29 30  1  0
 15  5  1  0
 26 16  1  0
 13  8  1  0
 24 19  1  0
  1 31  1  0
  1 32  1  0
  1 33  1  0
  9 34  1  0
 10 35  1  0
 11 36  1  0
 12 37  1  0
 13 38  1  0
 20 39  1  0
 21 40  1  0
 22 41  1  0
 23 42  1  0
 24 43  1  0
 30 44  1  0
 30 45  1  0
 30 46  1  0
M  END
$$$$
