
     RDKit          3D

 37 39  0  0  0  0  0  0  0  0999 V2000
   -0.0679    1.9045    1.6957 C   0  0  0  0  0  0  0  0  0  0  0  0
   -0.7025    0.9851    0.6764 C   0  0  0  0  0  0  0  0  0  0  0  0
   -0.1551   -0.0794    0.1587 N   0  0  0  0  0  0  0  0  0  0  0  0
    1.1647   -0.3446    0.4112 N   0  0  0  0  0  0  0  0  0  0  0  0
    2.1676    0.5328   -0.0023 C   0  0  0  0  0  0  0  0  0  0  0  0
    1.9901    1.6742   -0.4145 O   0  0  0  0  0  0  0  0  0  0  0  0
    3.5527   -0.0126    0.0541 C   0  0  0  0  0  0  0  0  0  0  0  0
    3.9247   -0.9924    0.9866 C   0  0  0  0  0  0  0  0  0  0  0  0
    5.2359   -1.4730    1.0095 C   0  0  0  0  0  0  0  0  0  0  0  0
    6.1776   -0.9732    0.1092 C   0  0  0  0  0  0  0  0  0  0  0  0
    5.8092    0.0118   -0.8068 C   0  0  0  0  0  0  0  0  0  0  0  0
    6.9784    0.6288   -1.9079 Cl  0  0  0  0  0  0  0  0  0  0  0  0
    4.5045    0.4983   -0.8371 C   0  0  0  0  0  0  0  0  0  0  0  0
   -2.1269    1.2996    0.2894 C   0  0  0  0  0  0  0  0  0  0  0  0
   -2.4205    1.1555   -1.1876 C   0  0  0  0  0  0  0  0  0  0  0  0
   -1.9343    1.7851   -2.1092 O   0  0  0  0  0  0  0  0  0  0  0  0
   -3.4561    0.1376   -1.3608 C   0  0  0  0  0  0  0  0  0  0  0  0
   -4.0172   -0.3303   -2.5346 C   0  0  0  0  0  0  0  0  0  0  0  0
   -5.0103   -1.3089   -2.4297 C   0  0  0  0  0  0  0  0  0  0  0  0
   -5.4179   -1.7914   -1.1701 C   0  0  0  0  0  0  0  0  0  0  0  0
   -4.8393   -1.3031    0.0054 C   0  0  0  0  0  0  0  0  0  0  0  0
   -3.8584   -0.3368   -0.1208 C   0  0  0  0  0  0  0  0  0  0  0  0
   -3.1018    0.3382    0.9322 C   0  0  0  0  0  0  0  0  0  0  0  0
   -3.2589    0.1356    2.1231 O   0  0  0  0  0  0  0  0  0  0  0  0
    0.7929    1.4490    2.1883 H   0  0  0  0  0  0  0  0  0  0  0  0
   -0.8036    2.1418    2.4705 H   0  0  0  0  0  0  0  0  0  0  0  0
    0.2305    2.8352    1.2064 H   0  0  0  0  0  0  0  0  0  0  0  0
    1.3875   -1.3303    0.3010 H   0  0  0  0  0  0  0  0  0  0  0  0
    3.2161   -1.3717    1.7191 H   0  0  0  0  0  0  0  0  0  0  0  0
    5.5278   -2.2294    1.7347 H   0  0  0  0  0  0  0  0  0  0  0  0
    7.1980   -1.3481    0.1315 H   0  0  0  0  0  0  0  0  0  0  0  0
    4.2240    1.2701   -1.5512 H   0  0  0  0  0  0  0  0  0  0  0  0
   -2.4021    2.3173    0.5868 H   0  0  0  0  0  0  0  0  0  0  0  0
   -3.6954    0.0499   -3.4996 H   0  0  0  0  0  0  0  0  0  0  0  0
   -5.4750   -1.7038   -3.3316 H   0  0  0  0  0  0  0  0  0  0  0  0
   -6.1931   -2.5538   -1.1136 H   0  0  0  0  0  0  0  0  0  0  0  0
   -5.1460   -1.6677    0.9810 H   0  0  0  0  0  0  0  0  0  0  0  0
  1  2  1  0
  2  3  2  3
  3  4  1  0
  4  5  1  0
  5  6  2  0
  5  7  1  0
  7  8  2  0
  8  9  1  0
  9 10  2  0
 10 11  1  0
 11 12  1  0
 11 13  2  0
  2 14  1  0
 14 15  1  0
 15 16  2  0
 15 17  1  0
 17 18  2  0
 18 19  1  0
 19 20  2  0
 20 21  1  0
 21 22  2  0
 22 23  1  0
 23 24  2  0
 13  7  1  0
 23 14  1  0
 22 17  1  0
  1 25  1  0
  1 26  1  0
  1 27  1  0
  4 28  1  0
  8 29  1  0
  9 30  1  0
 10 31  1  0
 13 32  1  0
 14 33  1  0
 18 34  1  0
 19 35  1  0
 20 36  1  0
 21 37  1  0
M  END
$$$$
