
     RDKit          3D

 56 61  0  0  0  0  0  0  0  0999 V2000
   -0.1410    1.1670   -3.4361 C   0  0  0  0  0  0  0  0  0  0  0  0
    0.6996    0.6712   -2.3197 C   0  0  0  0  0  0  0  0  0  0  0  0
    2.0023    0.9673   -2.2891 N   0  0  0  0  0  0  0  0  0  0  0  0
    2.4919    0.3723   -1.1559 N   0  0  0  0  0  0  0  0  0  0  0  0
    3.8766    0.5155   -0.8264 C   0  0  0  0  0  0  0  0  0  0  0  0
    4.4318   -0.0604    0.3254 C   0  0  0  0  0  0  0  0  0  0  0  0
    5.7928    0.1018    0.6162 C   0  0  0  0  0  0  0  0  0  0  0  0
    6.6056    0.8444   -0.2476 C   0  0  0  0  0  0  0  0  0  0  0  0
    8.0315    1.0140    0.0569 N   0  0  0  0  0  4  0  0  0  0  0  0
    8.4698    0.4838    1.0878 O   0  0  0  0  0  0  0  0  0  0  0  0
    8.7156    1.6781   -0.7355 O   0  0  0  0  0  1  0  0  0  0  0  0
    6.0673    1.4268   -1.3996 C   0  0  0  0  0  0  0  0  0  0  0  0
    4.7077    1.2611   -1.6842 C   0  0  0  0  0  0  0  0  0  0  0  0
    1.4801   -0.3172   -0.4935 C   0  0  0  0  0  0  0  0  0  0  0  0
    0.3259   -0.1081   -1.2121 C   0  0  0  0  0  0  0  0  0  0  0  0
   -0.9461   -0.7263   -0.7485 C   0  0  0  0  0  0  0  0  0  0  0  0
   -1.8281    0.4622   -0.3595 C   0  0  0  0  0  0  0  0  0  0  0  0
   -1.6148    1.1909    0.8230 C   0  0  0  0  0  0  0  0  0  0  0  0
   -2.4393    2.2683    1.1566 C   0  0  0  0  0  0  0  0  0  0  0  0
   -3.4844    2.6540    0.3164 C   0  0  0  0  0  0  0  0  0  0  0  0
   -4.2165    3.7174    0.7630 O   0  0  0  0  0  0  0  0  0  0  0  0
   -5.0090    4.3865   -0.2028 C   0  0  0  0  0  0  0  0  0  0  0  0
   -5.4793    5.5214    0.3735 F   0  0  0  0  0  0  0  0  0  0  0  0
   -6.0920    3.6253   -0.4978 F   0  0  0  0  0  0  0  0  0  0  0  0
   -3.7138    1.9363   -0.8567 C   0  0  0  0  0  0  0  0  0  0  0  0
   -2.8918    0.8534   -1.1924 C   0  0  0  0  0  0  0  0  0  0  0  0
   -0.7519   -1.6618    0.3813 N   0  0  0  0  0  0  0  0  0  0  0  0
    0.5087   -1.6940    1.0086 C   0  0  0  0  0  0  0  0  0  0  0  0
    1.5939   -1.0625    0.6339 N   0  0  0  0  0  0  0  0  0  0  0  0
    0.6845   -2.5554    2.2825 C   0  0  0  0  0  0  0  0  0  0  0  0
    1.7253   -2.5604    2.9250 O   0  0  0  0  0  0  0  0  0  0  0  0
   -0.3963   -3.3138    2.6444 N   0  0  0  0  0  0  0  0  0  0  0  0
   -1.6088   -3.3247    1.9500 C   0  0  0  0  0  0  0  0  0  0  0  0
   -2.6179   -4.1710    2.4252 C   0  0  0  0  0  0  0  0  0  0  0  0
   -3.8440   -4.2251    1.7727 C   0  0  0  0  0  0  0  0  0  0  0  0
   -4.0562   -3.4365    0.6490 C   0  0  0  0  0  0  0  0  0  0  0  0
   -3.0445   -2.5901    0.1779 C   0  0  0  0  0  0  0  0  0  0  0  0
   -1.7957   -2.5037    0.8166 C   0  0  0  0  0  0  0  0  0  0  0  0
   -0.6521    2.0901   -3.1454 H   0  0  0  0  0  0  0  0  0  0  0  0
    0.4619    1.3767   -4.3259 H   0  0  0  0  0  0  0  0  0  0  0  0
   -0.8954    0.4246   -3.7151 H   0  0  0  0  0  0  0  0  0  0  0  0
    3.8402   -0.6427    1.0265 H   0  0  0  0  0  0  0  0  0  0  0  0
    6.1945   -0.3576    1.5178 H   0  0  0  0  0  0  0  0  0  0  0  0
    6.6829    2.0082   -2.0829 H   0  0  0  0  0  0  0  0  0  0  0  0
    4.3080    1.7231   -2.5865 H   0  0  0  0  0  0  0  0  0  0  0  0
   -1.3747   -1.2685   -1.6014 H   0  0  0  0  0  0  0  0  0  0  0  0
   -0.8024    0.9280    1.4984 H   0  0  0  0  0  0  0  0  0  0  0  0
   -2.2578    2.8136    2.0807 H   0  0  0  0  0  0  0  0  0  0  0  0
   -4.4583    4.6523   -1.1120 H   0  0  0  0  0  0  0  0  0  0  0  0
   -4.5380    2.1735   -1.5233 H   0  0  0  0  0  0  0  0  0  0  0  0
   -3.0995    0.3107   -2.1130 H   0  0  0  0  0  0  0  0  0  0  0  0
   -0.2682   -3.8861    3.4676 H   0  0  0  0  0  0  0  0  0  0  0  0
   -2.4583   -4.7925    3.3025 H   0  0  0  0  0  0  0  0  0  0  0  0
   -4.6309   -4.8799    2.1386 H   0  0  0  0  0  0  0  0  0  0  0  0
   -5.0136   -3.4749    0.1338 H   0  0  0  0  0  0  0  0  0  0  0  0
   -3.2782   -2.0066   -0.7058 H   0  0  0  0  0  0  0  0  0  0  0  0
  1  2  1  0
  2  3  2  0
  3  4  1  0
  4  5  1  0
  5  6  2  0
  6  7  1  0
  7  8  2  0
  8  9  1  0
  9 10  2  0
  9 11  1  0
  8 12  1  0
 12 13  2  0
  4 14  1  0
 14 15  2  0
 15 16  1  0
 16 17  1  0
 17 18  2  0
 18 19  1  0
 19 20  2  0
 20 21  1  0
 21 22  1  0
 22 23  1  0
 22 24  1  0
 20 25  1  0
 25 26  2  0
 16 27  1  0
 27 28  1  0
 28 29  2  0
 28 30  1  0
 30 31  2  0
 30 32  1  0
 32 33  1  0
 33 34  2  0
 34 35  1  0
 35 36  2  0
 36 37  1  0
 37 38  2  0
 15  2  1  0
 26 17  1  0
 38 27  1  0
 13  5  1  0
 29 14  1  0
 38 33  1  0
  1 39  1  0
  1 40  1  0
  1 41  1  0
  6 42  1  0
  7 43  1  0
 12 44  1  0
 13 45  1  0
 16 46  1  0
 18 47  1  0
 19 48  1  0
 22 49  1  0
 25 50  1  0
 26 51  1  0
 32 52  1  0
 34 53  1  0
 35 54  1  0
 36 55  1  0
 37 56  1  0
M  CHG  2   9   1  11  -1
M  END
$$$$
