
     RDKit          3D

 53 56  0  0  0  0  0  0  0  0999 V2000
    7.5464    0.1062    2.5861 C   0  0  0  0  0  0  0  0  0  0  0  0
    6.1764    0.4750    2.5304 O   0  0  0  0  0  0  0  0  0  0  0  0
    5.7040    0.9185    1.3270 C   0  0  0  0  0  0  0  0  0  0  0  0
    6.4717    1.1942    0.1991 C   0  0  0  0  0  0  0  0  0  0  0  0
    5.8588    1.6412   -0.9764 C   0  0  0  0  0  0  0  0  0  0  0  0
    4.4697    1.8177   -1.0400 C   0  0  0  0  0  0  0  0  0  0  0  0
    3.8377    2.2455   -2.1826 O   0  0  0  0  0  0  0  0  0  0  0  0
    4.4155    1.8033   -3.4054 C   0  0  0  0  0  0  0  0  0  0  0  0
    3.6892    1.5809    0.1072 C   0  0  0  0  0  0  0  0  0  0  0  0
    2.2397    1.7644    0.1514 C   0  0  0  0  0  0  0  0  0  0  0  0
    1.5559    2.7959   -0.4674 C   0  0  0  0  0  0  0  0  0  0  0  0
   -0.1238    2.6650   -0.1408 S   0  0  0  0  0  0  0  0  0  0  0  0
    0.1911    1.2766    0.8025 C   0  0  0  0  0  0  0  0  0  0  0  0
   -0.9268    0.7151    1.3454 N   0  0  0  0  0  0  0  0  0  0  0  0
   -0.9003   -0.4472    2.0881 C   0  0  0  0  0  0  0  0  0  0  0  0
    0.1052   -1.0578    2.4491 O   0  0  0  0  0  0  0  0  0  0  0  0
   -2.2774   -0.8985    2.5357 C   0  0  0  0  0  0  0  0  0  0  0  0
   -3.1898   -1.1189    1.4229 N   0  0  0  0  0  0  0  0  0  0  0  0
   -3.9384   -0.1383    0.8092 C   0  0  0  0  0  0  0  0  0  0  0  0
   -3.8193    1.1342    1.1741 O   0  0  0  0  0  0  0  0  0  0  0  0
   -4.7049   -0.7423   -0.1641 C   0  0  0  0  0  0  0  0  0  0  0  0
   -4.3875   -2.1353   -0.1507 C   0  0  0  0  0  0  0  0  0  0  0  0
   -3.4520   -2.3371    0.8428 C   0  0  0  0  0  0  0  0  0  0  0  0
   -2.8390   -3.4361    1.2646 O   0  0  0  0  0  0  0  0  0  0  0  0
   -5.0300   -3.1234   -1.0672 C   0  0  0  0  0  0  0  0  0  0  0  0
   -5.7201   -2.4266   -2.2518 C   0  0  0  0  0  0  0  0  0  0  0  0
   -6.5470   -1.2134   -1.7957 C   0  0  0  0  0  0  0  0  0  0  0  0
   -5.6706   -0.1395   -1.1318 C   0  0  0  0  0  0  0  0  0  0  0  0
    1.4398    0.9112    0.8988 N   0  0  0  0  0  0  0  0  0  0  0  0
    4.3231    1.1154    1.2741 C   0  0  0  0  0  0  0  0  0  0  0  0
    7.7425   -0.3047    3.5810 H   0  0  0  0  0  0  0  0  0  0  0  0
    8.1958    0.9781    2.4515 H   0  0  0  0  0  0  0  0  0  0  0  0
    7.7779   -0.6740    1.8542 H   0  0  0  0  0  0  0  0  0  0  0  0
    7.5490    1.0758    0.1991 H   0  0  0  0  0  0  0  0  0  0  0  0
    6.4927    1.8576   -1.8309 H   0  0  0  0  0  0  0  0  0  0  0  0
    4.6920    0.7429   -3.3675 H   0  0  0  0  0  0  0  0  0  0  0  0
    5.2765    2.4248   -3.6699 H   0  0  0  0  0  0  0  0  0  0  0  0
    3.6646    1.9250   -4.1909 H   0  0  0  0  0  0  0  0  0  0  0  0
    1.9447    3.5985   -1.0768 H   0  0  0  0  0  0  0  0  0  0  0  0
   -1.8154    1.1535    1.1238 H   0  0  0  0  0  0  0  0  0  0  0  0
   -2.1927   -1.8305    3.1043 H   0  0  0  0  0  0  0  0  0  0  0  0
   -2.7146   -0.1453    3.1997 H   0  0  0  0  0  0  0  0  0  0  0  0
   -4.5112    1.6272    0.6968 H   0  0  0  0  0  0  0  0  0  0  0  0
   -3.1232   -4.1699    0.6914 H   0  0  0  0  0  0  0  0  0  0  0  0
   -5.7775   -3.6896   -0.4978 H   0  0  0  0  0  0  0  0  0  0  0  0
   -4.2901   -3.8386   -1.4454 H   0  0  0  0  0  0  0  0  0  0  0  0
   -4.9659   -2.0937   -2.9784 H   0  0  0  0  0  0  0  0  0  0  0  0
   -6.3657   -3.1457   -2.7690 H   0  0  0  0  0  0  0  0  0  0  0  0
   -7.3131   -1.5511   -1.0849 H   0  0  0  0  0  0  0  0  0  0  0  0
   -7.0740   -0.7752   -2.6518 H   0  0  0  0  0  0  0  0  0  0  0  0
   -6.3115    0.5949   -0.6276 H   0  0  0  0  0  0  0  0  0  0  0  0
   -5.1043    0.3951   -1.9062 H   0  0  0  0  0  0  0  0  0  0  0  0
    3.7262    0.8988    2.1609 H   0  0  0  0  0  0  0  0  0  0  0  0
  1  2  1  0
  2  3  1  0
  3  4  2  0
  4  5  1  0
  5  6  2  0
  6  7  1  0
  7  8  1  0
  6  9  1  0
  9 10  1  0
 10 11  2  0
 11 12  1  0
 12 13  1  0
 13 14  1  0
 14 15  1  0
 15 16  2  0
 15 17  1  0
 17 18  1  0
 18 19  1  0
 19 20  1  0
 19 21  2  0
 21 22  1  0
 22 23  2  0
 23 24  1  0
 22 25  1  0
 25 26  1  0
 26 27  1  0
 27 28  1  0
 13 29  2  0
  9 30  2  0
 30  3  1  0
 29 10  1  0
 23 18  1  0
 28 21  1  0
  1 31  1  0
  1 32  1  0
  1 33  1  0
  4 34  1  0
  5 35  1  0
  8 36  1  0
  8 37  1  0
  8 38  1  0
 11 39  1  0
 14 40  1  0
 17 41  1  0
 17 42  1  0
 20 43  1  0
 24 44  1  0
 25 45  1  0
 25 46  1  0
 26 47  1  0
 26 48  1  0
 27 49  1  0
 27 50  1  0
 28 51  1  0
 28 52  1  0
 30 53  1  0
M  END
$$$$
