
     RDKit          3D

 59 60  0  0  0  0  0  0  0  0999 V2000
    5.4101    0.2038   -0.0799 C   0  0  0  0  0  0  0  0  0  0  0  0
    5.7342   -0.7325   -1.2444 C   0  0  0  0  0  0  0  0  0  0  0  0
    7.1036   -0.3687   -1.8269 C   0  0  0  0  0  0  0  0  0  0  0  0
    4.6739   -0.7037   -2.3641 C   0  0  0  0  0  0  0  0  0  0  0  0
    3.2924   -1.2079   -1.9485 C   0  0  0  0  0  0  0  0  0  0  0  0
    2.5278   -0.2171   -1.2236 N   0  0  0  0  0  0  0  0  0  0  0  0
    1.4203   -0.5572   -0.4710 C   0  0  0  0  0  0  0  0  0  0  0  0
    1.0953   -1.7292   -0.2950 O   0  0  0  0  0  0  0  0  0  0  0  0
    0.6847    0.5653    0.0660 C   0  0  0  0  0  0  0  0  0  0  0  0
    1.1258    1.8065   -0.2889 O   0  0  0  0  0  0  0  0  0  0  0  0
    0.3348    2.7738    0.2710 N   0  0  0  0  0  0  0  0  0  0  0  0
   -0.6061    2.1230    0.9671 C   0  0  0  0  0  0  0  0  0  0  0  0
   -1.6600    2.9061    1.6865 C   0  0  0  0  0  0  0  0  0  0  0  0
   -3.1884    3.0362    0.6954 S   0  0  0  0  0  0  0  0  0  0  0  0
   -2.6922    4.3215   -0.4295 C   0  0  0  0  0  0  0  0  0  0  0  0
   -2.8803    4.1481   -1.7954 C   0  0  0  0  0  0  0  0  0  0  0  0
   -2.5057    5.1753   -2.6578 C   0  0  0  0  0  0  0  0  0  0  0  0
   -1.9659    6.3412   -2.1301 C   0  0  0  0  0  0  0  0  0  0  0  0
   -1.8269    6.4329   -0.7551 C   0  0  0  0  0  0  0  0  0  0  0  0
   -2.1839    5.4543    0.1042 N   0  0  0  0  0  0  0  0  0  0  0  0
   -0.4203    0.6999    0.8942 C   0  0  0  0  0  0  0  0  0  0  0  0
   -1.2386   -0.3025    1.5636 C   0  0  0  0  0  0  0  0  0  0  0  0
   -2.1494    0.0265    2.3188 O   0  0  0  0  0  0  0  0  0  0  0  0
   -0.9523   -1.6263    1.3328 N   0  0  0  0  0  0  0  0  0  0  0  0
   -1.7316   -2.7007    1.9138 C   0  0  0  0  0  0  0  0  0  0  0  0
   -2.9962   -2.9760    1.1005 C   0  0  0  0  0  0  0  0  0  0  0  0
   -3.7660   -4.2226    1.5721 C   0  0  0  0  0  0  0  0  0  0  0  0
   -4.2858   -4.0804    3.0035 C   0  0  0  0  0  0  0  0  0  0  0  0
   -4.9348   -4.5000    0.6230 C   0  0  0  0  0  0  0  0  0  0  0  0
    5.2080    1.2215   -0.4313 H   0  0  0  0  0  0  0  0  0  0  0  0
    4.5406   -0.1480    0.4831 H   0  0  0  0  0  0  0  0  0  0  0  0
    6.2466    0.2520    0.6264 H   0  0  0  0  0  0  0  0  0  0  0  0
    5.8005   -1.7554   -0.8514 H   0  0  0  0  0  0  0  0  0  0  0  0
    7.1009    0.6437   -2.2457 H   0  0  0  0  0  0  0  0  0  0  0  0
    7.3852   -1.0649   -2.6241 H   0  0  0  0  0  0  0  0  0  0  0  0
    7.8820   -0.4152   -1.0575 H   0  0  0  0  0  0  0  0  0  0  0  0
    4.5958    0.3084   -2.7822 H   0  0  0  0  0  0  0  0  0  0  0  0
    5.0265   -1.3515   -3.1779 H   0  0  0  0  0  0  0  0  0  0  0  0
    3.3691   -2.1250   -1.3544 H   0  0  0  0  0  0  0  0  0  0  0  0
    2.7086   -1.4466   -2.8457 H   0  0  0  0  0  0  0  0  0  0  0  0
    2.6483    0.7629   -1.4564 H   0  0  0  0  0  0  0  0  0  0  0  0
   -1.9110    2.4241    2.6357 H   0  0  0  0  0  0  0  0  0  0  0  0
   -1.2897    3.9013    1.9563 H   0  0  0  0  0  0  0  0  0  0  0  0
   -3.3072    3.2314   -2.1877 H   0  0  0  0  0  0  0  0  0  0  0  0
   -2.6358    5.0650   -3.7309 H   0  0  0  0  0  0  0  0  0  0  0  0
   -1.6628    7.1607   -2.7722 H   0  0  0  0  0  0  0  0  0  0  0  0
   -1.4138    7.3246   -0.2929 H   0  0  0  0  0  0  0  0  0  0  0  0
   -0.2224   -1.8924    0.6756 H   0  0  0  0  0  0  0  0  0  0  0  0
   -1.0879   -3.5865    1.9333 H   0  0  0  0  0  0  0  0  0  0  0  0
   -1.9779   -2.4335    2.9466 H   0  0  0  0  0  0  0  0  0  0  0  0
   -3.6534   -2.0974    1.1307 H   0  0  0  0  0  0  0  0  0  0  0  0
   -2.7146   -3.1079    0.0471 H   0  0  0  0  0  0  0  0  0  0  0  0
   -3.0917   -5.0882    1.5348 H   0  0  0  0  0  0  0  0  0  0  0  0
   -4.8783   -4.9561    3.2895 H   0  0  0  0  0  0  0  0  0  0  0  0
   -3.4646   -3.9986    3.7212 H   0  0  0  0  0  0  0  0  0  0  0  0
   -4.9211   -3.1949    3.1078 H   0  0  0  0  0  0  0  0  0  0  0  0
   -4.5772   -4.6495   -0.4011 H   0  0  0  0  0  0  0  0  0  0  0  0
   -5.6476   -3.6682    0.6157 H   0  0  0  0  0  0  0  0  0  0  0  0
   -5.4736   -5.4053    0.9220 H   0  0  0  0  0  0  0  0  0  0  0  0
  1  2  1  0
  2  3  1  0
  2  4  1  0
  4  5  1  0
  5  6  1  0
  6  7  1  0
  7  8  2  0
  7  9  1  0
  9 10  1  0
 10 11  1  0
 11 12  2  0
 12 13  1  0
 13 14  1  0
 14 15  1  0
 15 16  2  0
 16 17  1  0
 17 18  2  0
 18 19  1  0
 19 20  2  0
 12 21  1  0
 21 22  1  0
 22 23  2  0
 22 24  1  0
 24 25  1  0
 25 26  1  0
 26 27  1  0
 27 28  1  0
 27 29  1  0
 21  9  2  0
 20 15  1  0
  1 30  1  0
  1 31  1  0
  1 32  1  0
  2 33  1  0
  3 34  1  0
  3 35  1  0
  3 36  1  0
  4 37  1  0
  4 38  1  0
  5 39  1  0
  5 40  1  0
  6 41  1  0
 13 42  1  0
 13 43  1  0
 16 44  1  0
 17 45  1  0
 18 46  1  0
 19 47  1  0
 24 48  1  0
 25 49  1  0
 25 50  1  0
 26 51  1  0
 26 52  1  0
 27 53  1  0
 28 54  1  0
 28 55  1  0
 28 56  1  0
 29 57  1  0
 29 58  1  0
 29 59  1  0
M  END
$$$$
