
     RDKit          3D

 41 43  0  0  0  0  0  0  0  0999 V2000
   -5.6140    0.3959    3.0665 C   0  0  0  0  0  0  0  0  0  0  0  0
   -4.2834    0.2135    2.6009 O   0  0  0  0  0  0  0  0  0  0  0  0
   -4.1210   -0.0815    1.2747 C   0  0  0  0  0  0  0  0  0  0  0  0
   -5.1445   -0.2187    0.3384 C   0  0  0  0  0  0  0  0  0  0  0  0
   -4.8463   -0.5197   -0.9955 C   0  0  0  0  0  0  0  0  0  0  0  0
   -3.5203   -0.6866   -1.4006 C   0  0  0  0  0  0  0  0  0  0  0  0
   -3.1184   -0.9815   -2.6833 O   0  0  0  0  0  0  0  0  0  0  0  0
   -4.1383   -1.1152   -3.6662 C   0  0  0  0  0  0  0  0  0  0  0  0
   -2.4817   -0.5530   -0.4562 C   0  0  0  0  0  0  0  0  0  0  0  0
   -1.1635   -0.7281   -0.9308 N   0  0  0  0  0  0  0  0  0  0  0  0
    0.0081   -0.7361   -0.2174 C   0  0  0  0  0  0  0  0  0  0  0  0
    0.1466   -0.6452    0.9991 O   0  0  0  0  0  0  0  0  0  0  0  0
    1.1101   -0.8926   -1.0503 N   0  0  0  0  0  0  0  0  0  0  0  0
    2.3736   -0.7149   -0.4197 N   0  0  0  0  0  0  0  0  0  0  0  0
    3.2494    0.1677   -1.0321 C   0  0  0  0  0  0  0  0  0  0  0  0
    3.0275    0.5980   -2.1638 O   0  0  0  0  0  0  0  0  0  0  0  0
    4.4037    0.5483   -0.2378 C   0  0  0  0  0  0  0  0  0  0  0  0
    5.3018    1.5759   -0.5311 C   0  0  0  0  0  0  0  0  0  0  0  0
    6.2294    1.5406    0.5181 C   0  0  0  0  0  0  0  0  0  0  0  0
    7.3421    2.2152    0.9031 O   0  0  0  0  0  0  0  0  0  0  0  0
    7.7284    1.6018    2.0603 C   0  0  0  0  0  0  0  0  0  0  0  0
    6.9012    0.5610    2.4217 C   0  0  0  0  0  0  0  0  0  0  0  0
    5.9400    0.5577    1.3913 C   0  0  0  0  0  0  0  0  0  0  0  0
    4.8167   -0.0756    0.9346 N   0  0  0  0  0  0  0  0  0  0  0  0
   -2.7919   -0.2491    0.8716 C   0  0  0  0  0  0  0  0  0  0  0  0
   -6.0943    1.2438    2.5672 H   0  0  0  0  0  0  0  0  0  0  0  0
   -5.5660    0.6233    4.1358 H   0  0  0  0  0  0  0  0  0  0  0  0
   -6.2030   -0.5195    2.9470 H   0  0  0  0  0  0  0  0  0  0  0  0
   -6.1875   -0.0967    0.6117 H   0  0  0  0  0  0  0  0  0  0  0  0
   -5.6749   -0.6157   -1.6890 H   0  0  0  0  0  0  0  0  0  0  0  0
   -4.8093   -1.9469   -3.4278 H   0  0  0  0  0  0  0  0  0  0  0  0
   -3.6535   -1.3425   -4.6205 H   0  0  0  0  0  0  0  0  0  0  0  0
   -4.6928   -0.1792   -3.7896 H   0  0  0  0  0  0  0  0  0  0  0  0
   -1.1080   -0.9624   -1.9148 H   0  0  0  0  0  0  0  0  0  0  0  0
    1.0577   -0.4378   -1.9620 H   0  0  0  0  0  0  0  0  0  0  0  0
    2.3134   -0.7227    0.5973 H   0  0  0  0  0  0  0  0  0  0  0  0
    5.2702    2.2427   -1.3815 H   0  0  0  0  0  0  0  0  0  0  0  0
    8.6172    2.0222    2.5118 H   0  0  0  0  0  0  0  0  0  0  0  0
    6.9899   -0.0788    3.2864 H   0  0  0  0  0  0  0  0  0  0  0  0
    4.4004   -0.8762    1.3943 H   0  0  0  0  0  0  0  0  0  0  0  0
   -2.0149   -0.1314    1.6204 H   0  0  0  0  0  0  0  0  0  0  0  0
  1  2  1  0
  2  3  1  0
  3  4  2  0
  4  5  1  0
  5  6  2  0
  6  7  1  0
  7  8  1  0
  6  9  1  0
  9 10  1  0
 10 11  1  0
 11 12  2  0
 11 13  1  0
 13 14  1  0
 14 15  1  0
 15 16  2  0
 15 17  1  0
 17 18  2  0
 18 19  1  0
 19 20  1  0
 20 21  1  0
 21 22  2  0
 22 23  1  0
 23 24  1  0
  9 25  2  0
 25  3  1  0
 24 17  1  0
 23 19  2  0
  1 26  1  0
  1 27  1  0
  1 28  1  0
  4 29  1  0
  5 30  1  0
  8 31  1  0
  8 32  1  0
  8 33  1  0
 10 34  1  0
 13 35  1  0
 14 36  1  0
 18 37  1  0
 21 38  1  0
 22 39  1  0
 24 40  1  0
 25 41  1  0
M  END
$$$$
