
     RDKit          3D

 46 48  0  0  0  0  0  0  0  0999 V2000
    6.7655   -2.1422   -0.4026 C   0  0  0  0  0  0  0  0  0  0  0  0
    5.6609   -1.2763    0.1867 C   0  0  0  0  0  0  0  0  0  0  0  0
    4.3497   -1.4453   -0.5921 C   0  0  0  0  0  0  0  0  0  0  0  0
    3.2821   -0.6324   -0.0119 N   0  0  0  0  0  0  0  0  0  0  0  0
    1.9587   -0.9949   -0.2762 C   0  0  0  0  0  0  0  0  0  0  0  0
    1.7088   -1.8540   -1.1244 O   0  0  0  0  0  0  0  0  0  0  0  0
    0.8511   -0.3617    0.4590 C   0  0  0  0  0  0  0  0  0  0  0  0
   -0.5188   -0.3933    0.0789 C   0  0  0  0  0  0  0  0  0  0  0  0
   -1.1822    0.2880    1.0688 C   0  0  0  0  0  0  0  0  0  0  0  0
   -2.5925    0.6568    1.3331 C   0  0  0  0  0  0  0  0  0  0  0  0
   -3.3732    0.1719    0.2408 O   0  0  0  0  0  0  0  0  0  0  0  0
   -4.7163    0.4256    0.2755 C   0  0  0  0  0  0  0  0  0  0  0  0
   -5.4004    1.1029    1.2847 C   0  0  0  0  0  0  0  0  0  0  0  0
   -6.7820    1.2904    1.1915 C   0  0  0  0  0  0  0  0  0  0  0  0
   -7.4850    0.8065    0.0887 C   0  0  0  0  0  0  0  0  0  0  0  0
   -6.8125    0.1302   -0.9380 C   0  0  0  0  0  0  0  0  0  0  0  0
   -7.5734   -0.4106   -2.1207 C   0  0  0  0  0  0  0  0  0  0  0  0
   -6.7915   -0.6342   -3.2133 F   0  0  0  0  0  0  0  0  0  0  0  0
   -8.1820   -1.5962   -1.8469 F   0  0  0  0  0  0  0  0  0  0  0  0
   -8.5624    0.4283   -2.5385 F   0  0  0  0  0  0  0  0  0  0  0  0
   -5.4261   -0.0601   -0.8271 C   0  0  0  0  0  0  0  0  0  0  0  0
   -0.2794    0.6916    2.0006 O   0  0  0  0  0  0  0  0  0  0  0  0
    0.9843    0.2748    1.6358 N   0  0  0  0  0  0  0  0  0  0  0  0
    3.7202    0.5246    0.7740 C   0  0  0  0  0  0  0  0  0  0  0  0
    5.0949    1.0714    0.3312 C   0  0  0  0  0  0  0  0  0  0  0  0
    4.9989    1.8654   -0.9701 C   0  0  0  0  0  0  0  0  0  0  0  0
    6.1226    0.0818    0.1695 O   0  0  0  0  0  0  0  0  0  0  0  0
    6.9883   -1.8437   -1.4332 H   0  0  0  0  0  0  0  0  0  0  0  0
    6.4897   -3.2015   -0.3954 H   0  0  0  0  0  0  0  0  0  0  0  0
    7.6927   -2.0191    0.1676 H   0  0  0  0  0  0  0  0  0  0  0  0
    5.5128   -1.5626    1.2357 H   0  0  0  0  0  0  0  0  0  0  0  0
    4.0414   -2.4971   -0.6036 H   0  0  0  0  0  0  0  0  0  0  0  0
    4.4691   -1.1172   -1.6313 H   0  0  0  0  0  0  0  0  0  0  0  0
   -0.9468   -0.8530   -0.8000 H   0  0  0  0  0  0  0  0  0  0  0  0
   -2.6697    1.7488    1.4000 H   0  0  0  0  0  0  0  0  0  0  0  0
   -2.9179    0.1917    2.2710 H   0  0  0  0  0  0  0  0  0  0  0  0
   -4.8954    1.4962    2.1607 H   0  0  0  0  0  0  0  0  0  0  0  0
   -7.3125    1.8128    1.9845 H   0  0  0  0  0  0  0  0  0  0  0  0
   -8.5622    0.9584    0.0315 H   0  0  0  0  0  0  0  0  0  0  0  0
   -4.8868   -0.5924   -1.6109 H   0  0  0  0  0  0  0  0  0  0  0  0
    2.9811    1.3284    0.7227 H   0  0  0  0  0  0  0  0  0  0  0  0
    3.7897    0.1778    1.8116 H   0  0  0  0  0  0  0  0  0  0  0  0
    5.4502    1.7609    1.1056 H   0  0  0  0  0  0  0  0  0  0  0  0
    5.9787    2.2771   -1.2362 H   0  0  0  0  0  0  0  0  0  0  0  0
    4.6893    1.2331   -1.8075 H   0  0  0  0  0  0  0  0  0  0  0  0
    4.2883    2.6925   -0.8783 H   0  0  0  0  0  0  0  0  0  0  0  0
  1  2  1  0
  2  3  1  0
  3  4  1  0
  4  5  1  0
  5  6  2  0
  5  7  1  0
  7  8  1  0
  8  9  2  0
  9 10  1  0
 10 11  1  0
 11 12  1  0
 12 13  2  0
 13 14  1  0
 14 15  2  0
 15 16  1  0
 16 17  1  0
 17 18  1  0
 17 19  1  0
 17 20  1  0
 16 21  2  0
  9 22  1  0
 22 23  1  0
  4 24  1  0
 24 25  1  0
 25 26  1  0
 25 27  1  0
 27  2  1  0
 23  7  2  0
 21 12  1  0
  1 28  1  0
  1 29  1  0
  1 30  1  0
  2 31  1  0
  3 32  1  0
  3 33  1  0
  8 34  1  0
 10 35  1  0
 10 36  1  0
 13 37  1  0
 14 38  1  0
 15 39  1  0
 21 40  1  0
 24 41  1  0
 24 42  1  0
 25 43  1  0
 26 44  1  0
 26 45  1  0
 26 46  1  0
M  END
$$$$
