
     RDKit          3D

 58 61  0  0  0  0  0  0  0  0999 V2000
   -4.5651    4.7488    1.6317 C   0  0  0  0  0  0  0  0  0  0  0  0
   -4.6193    3.7903    0.4786 C   0  0  0  0  0  0  0  0  0  0  0  0
   -5.7081    3.7984   -0.3996 C   0  0  0  0  0  0  0  0  0  0  0  0
   -5.7717    2.8855   -1.4510 C   0  0  0  0  0  0  0  0  0  0  0  0
   -4.7516    1.9488   -1.6263 C   0  0  0  0  0  0  0  0  0  0  0  0
   -3.6558    1.9088   -0.7519 C   0  0  0  0  0  0  0  0  0  0  0  0
   -2.6087    0.9104   -0.9546 C   0  0  0  0  0  0  0  0  0  0  0  0
   -2.5455   -0.0562   -1.8505 N   0  0  0  0  0  0  0  0  0  0  0  0
   -1.3339   -0.6720   -1.5764 C   0  0  0  0  0  0  0  0  0  0  0  0
   -0.7374   -2.0344   -2.4443 S   0  0  0  0  0  6  0  0  0  0  0  0
    0.5977   -2.2832   -1.9272 O   0  0  0  0  0  0  0  0  0  0  0  0
   -0.9678   -1.7439   -3.8459 O   0  0  0  0  0  0  0  0  0  0  0  0
   -1.7963   -3.3713   -1.9618 C   0  0  0  0  0  0  0  0  0  0  0  0
   -3.0596   -3.4909   -2.5551 C   0  0  0  0  0  0  0  0  0  0  0  0
   -3.8897   -4.5517   -2.1915 C   0  0  0  0  0  0  0  0  0  0  0  0
   -3.4482   -5.4795   -1.2524 C   0  0  0  0  0  0  0  0  0  0  0  0
   -4.2473   -6.4969   -0.9060 F   0  0  0  0  0  0  0  0  0  0  0  0
   -2.1885   -5.3704   -0.6690 C   0  0  0  0  0  0  0  0  0  0  0  0
   -1.3508   -4.3127   -1.0260 C   0  0  0  0  0  0  0  0  0  0  0  0
   -0.7221   -0.0616   -0.5031 C   0  0  0  0  0  0  0  0  0  0  0  0
    0.4217   -0.2751    0.1840 N   0  0  0  0  0  0  0  0  0  0  0  0
    0.9765    0.7662    1.0351 C   0  0  0  0  0  0  0  0  0  0  0  0
    2.2734    0.3042    1.7029 C   0  0  0  0  0  0  0  0  0  0  0  0
    3.4559    0.2876    0.7230 C   0  0  0  0  0  0  0  0  0  0  0  0
    4.6904   -0.1790    1.3695 N   0  0  0  0  0  0  0  0  0  0  0  0
    5.3189    0.8343    2.2463 C   0  0  0  0  0  0  0  0  0  0  0  0
    6.5554    1.5079    1.6274 C   0  0  0  0  0  0  0  0  0  0  0  0
    7.5904    0.5797    1.2802 O   0  0  0  0  0  0  0  0  0  0  0  0
    7.0864   -0.7141    0.9197 C   0  0  0  0  0  0  0  0  0  0  0  0
    5.6583   -0.6609    0.3585 C   0  0  0  0  0  0  0  0  0  0  0  0
   -1.5350    0.9610   -0.1045 O   0  0  0  0  0  0  0  0  0  0  0  0
   -3.6056    2.8357    0.3022 C   0  0  0  0  0  0  0  0  0  0  0  0
   -3.5300    5.0194    1.8648 H   0  0  0  0  0  0  0  0  0  0  0  0
   -5.0215    4.2950    2.5166 H   0  0  0  0  0  0  0  0  0  0  0  0
   -5.0975    5.6762    1.3958 H   0  0  0  0  0  0  0  0  0  0  0  0
   -6.5140    4.5178   -0.2703 H   0  0  0  0  0  0  0  0  0  0  0  0
   -6.6173    2.9006   -2.1343 H   0  0  0  0  0  0  0  0  0  0  0  0
   -4.8165    1.2433   -2.4533 H   0  0  0  0  0  0  0  0  0  0  0  0
   -3.3997   -2.7658   -3.2929 H   0  0  0  0  0  0  0  0  0  0  0  0
   -4.8748   -4.6632   -2.6348 H   0  0  0  0  0  0  0  0  0  0  0  0
   -1.8683   -6.1122    0.0567 H   0  0  0  0  0  0  0  0  0  0  0  0
   -0.3642   -4.2334   -0.5740 H   0  0  0  0  0  0  0  0  0  0  0  0
    1.0943   -0.9297   -0.2237 H   0  0  0  0  0  0  0  0  0  0  0  0
    0.2531    1.0088    1.8232 H   0  0  0  0  0  0  0  0  0  0  0  0
    1.1566    1.6797    0.4555 H   0  0  0  0  0  0  0  0  0  0  0  0
    2.4861    0.9894    2.5312 H   0  0  0  0  0  0  0  0  0  0  0  0
    2.1352   -0.6932    2.1395 H   0  0  0  0  0  0  0  0  0  0  0  0
    3.6015    1.2783    0.2740 H   0  0  0  0  0  0  0  0  0  0  0  0
    3.2036   -0.3964   -0.0967 H   0  0  0  0  0  0  0  0  0  0  0  0
    4.6090    1.6051    2.5645 H   0  0  0  0  0  0  0  0  0  0  0  0
    5.6351    0.3096    3.1565 H   0  0  0  0  0  0  0  0  0  0  0  0
    6.2799    2.0670    0.7257 H   0  0  0  0  0  0  0  0  0  0  0  0
    6.9844    2.2254    2.3342 H   0  0  0  0  0  0  0  0  0  0  0  0
    7.7687   -1.1346    0.1738 H   0  0  0  0  0  0  0  0  0  0  0  0
    7.1347   -1.3591    1.8050 H   0  0  0  0  0  0  0  0  0  0  0  0
    5.3587   -1.6610    0.0262 H   0  0  0  0  0  0  0  0  0  0  0  0
    5.6556    0.0015   -0.5172 H   0  0  0  0  0  0  0  0  0  0  0  0
   -2.7695    2.8180    0.9995 H   0  0  0  0  0  0  0  0  0  0  0  0
  1  2  1  0
  2  3  2  0
  3  4  1  0
  4  5  2  0
  5  6  1  0
  6  7  1  0
  7  8  2  0
  8  9  1  0
  9 10  1  0
 10 11  2  0
 10 12  2  0
 10 13  1  0
 13 14  2  0
 14 15  1  0
 15 16  2  0
 16 17  1  0
 16 18  1  0
 18 19  2  0
  9 20  2  0
 20 21  1  0
 21 22  1  0
 22 23  1  0
 23 24  1  0
 24 25  1  0
 25 26  1  0
 26 27  1  0
 27 28  1  0
 28 29  1  0
 29 30  1  0
 20 31  1  0
  6 32  2  0
 32  2  1  0
 31  7  1  0
 19 13  1  0
 30 25  1  0
  1 33  1  0
  1 34  1  0
  1 35  1  0
  3 36  1  0
  4 37  1  0
  5 38  1  0
 14 39  1  0
 15 40  1  0
 18 41  1  0
 19 42  1  0
 21 43  1  0
 22 44  1  0
 22 45  1  0
 23 46  1  0
 23 47  1  0
 24 48  1  0
 24 49  1  0
 26 50  1  0
 26 51  1  0
 27 52  1  0
 27 53  1  0
 29 54  1  0
 29 55  1  0
 30 56  1  0
 30 57  1  0
 32 58  1  0
M  END
$$$$
