
     RDKit          3D

 53 56  0  0  0  0  0  0  0  0999 V2000
    5.6357    2.5226   -0.9940 C   0  0  0  0  0  0  0  0  0  0  0  0
    5.0745    1.1522   -0.7586 C   0  0  0  0  0  0  0  0  0  0  0  0
    4.0408    0.9653    0.1386 C   0  0  0  0  0  0  0  0  0  0  0  0
    3.5637   -0.3332    0.3246 C   0  0  0  0  0  0  0  0  0  0  0  0
    2.4437   -0.5182    1.2765 C   0  0  0  0  0  0  0  0  0  0  0  0
    2.6228   -1.2101    2.2684 O   0  0  0  0  0  0  0  0  0  0  0  0
    1.2871    0.1365    0.8963 N   0  0  0  0  0  0  0  0  0  0  0  0
    0.0674    0.1913    1.6001 C   0  0  0  0  0  0  0  0  0  0  0  0
   -0.1330   -0.3683    2.8587 C   0  0  0  0  0  0  0  0  0  0  0  0
   -1.3728   -0.2537    3.5005 C   0  0  0  0  0  0  0  0  0  0  0  0
   -2.4489    0.4215    2.9027 C   0  0  0  0  0  0  0  0  0  0  0  0
   -3.7395    0.5164    3.6639 C   0  0  0  0  0  0  0  0  0  0  0  0
   -2.2475    0.9651    1.6248 C   0  0  0  0  0  0  0  0  0  0  0  0
   -3.5114    1.8212    0.7005 S   0  0  0  0  0  6  0  0  0  0  0  0
   -4.8092    1.6329    1.3097 O   0  0  0  0  0  0  0  0  0  0  0  0
   -2.9970    3.1429    0.4113 O   0  0  0  0  0  0  0  0  0  0  0  0
   -3.5421    0.9424   -0.7678 N   0  0  0  0  0  0  0  0  0  0  0  0
   -4.0412   -0.4715   -0.6596 C   0  0  0  0  0  0  0  0  0  0  0  0
   -5.4602   -0.6006   -1.2211 C   0  0  0  0  0  0  0  0  0  0  0  0
   -5.5410   -0.2671   -2.6142 O   0  0  0  0  0  0  0  0  0  0  0  0
   -4.5979    0.7381   -3.0133 C   0  0  0  0  0  0  0  0  0  0  0  0
   -4.2183    1.6933   -1.8783 C   0  0  0  0  0  0  0  0  0  0  0  0
   -0.9953    0.8593    0.9888 C   0  0  0  0  0  0  0  0  0  0  0  0
    4.1251   -1.4271   -0.3673 C   0  0  0  0  0  0  0  0  0  0  0  0
    3.7058   -2.7747   -0.2311 C   0  0  0  0  0  0  0  0  0  0  0  0
    4.3103   -3.7927   -0.9660 C   0  0  0  0  0  0  0  0  0  0  0  0
    5.3363   -3.4815   -1.8463 C   0  0  0  0  0  0  0  0  0  0  0  0
    5.7515   -2.1546   -1.9836 C   0  0  0  0  0  0  0  0  0  0  0  0
    5.1674   -1.1217   -1.2621 C   0  0  0  0  0  0  0  0  0  0  0  0
    5.6203    0.1306   -1.4555 N   0  0  0  0  0  0  0  0  0  0  0  0
    6.4508    2.4899   -1.7242 H   0  0  0  0  0  0  0  0  0  0  0  0
    6.0308    2.9353   -0.0605 H   0  0  0  0  0  0  0  0  0  0  0  0
    4.8574    3.1878   -1.3816 H   0  0  0  0  0  0  0  0  0  0  0  0
    3.6281    1.8014    0.6941 H   0  0  0  0  0  0  0  0  0  0  0  0
    1.3029    0.6007   -0.0047 H   0  0  0  0  0  0  0  0  0  0  0  0
    0.6600   -0.8943    3.3823 H   0  0  0  0  0  0  0  0  0  0  0  0
   -1.4824   -0.6990    4.4891 H   0  0  0  0  0  0  0  0  0  0  0  0
   -4.5149   -0.0835    3.1783 H   0  0  0  0  0  0  0  0  0  0  0  0
   -4.0600    1.5589    3.7532 H   0  0  0  0  0  0  0  0  0  0  0  0
   -3.6298    0.1358    4.6856 H   0  0  0  0  0  0  0  0  0  0  0  0
   -4.0157   -0.8279    0.3742 H   0  0  0  0  0  0  0  0  0  0  0  0
   -3.3490   -1.0995   -1.2337 H   0  0  0  0  0  0  0  0  0  0  0  0
   -6.1584    0.0458   -0.6773 H   0  0  0  0  0  0  0  0  0  0  0  0
   -5.8157   -1.6302   -1.1122 H   0  0  0  0  0  0  0  0  0  0  0  0
   -3.7090    0.2270   -3.4014 H   0  0  0  0  0  0  0  0  0  0  0  0
   -5.0442    1.2948   -3.8433 H   0  0  0  0  0  0  0  0  0  0  0  0
   -5.1228    2.1832   -1.4988 H   0  0  0  0  0  0  0  0  0  0  0  0
   -3.5291    2.4557   -2.2557 H   0  0  0  0  0  0  0  0  0  0  0  0
   -0.8659    1.3082    0.0054 H   0  0  0  0  0  0  0  0  0  0  0  0
    2.9092   -3.0412    0.4619 H   0  0  0  0  0  0  0  0  0  0  0  0
    3.9830   -4.8223   -0.8452 H   0  0  0  0  0  0  0  0  0  0  0  0
    5.8197   -4.2644   -2.4249 H   0  0  0  0  0  0  0  0  0  0  0  0
    6.5582   -1.9188   -2.6744 H   0  0  0  0  0  0  0  0  0  0  0  0
  1  2  1  0
  2  3  2  0
  3  4  1  0
  4  5  1  0
  5  6  2  0
  5  7  1  0
  7  8  1  0
  8  9  2  0
  9 10  1  0
 10 11  2  0
 11 12  1  0
 11 13  1  0
 13 14  1  0
 14 15  2  0
 14 16  2  0
 14 17  1  0
 17 18  1  0
 18 19  1  0
 19 20  1  0
 20 21  1  0
 21 22  1  0
 13 23  2  0
  4 24  2  0
 24 25  1  0
 25 26  2  0
 26 27  1  0
 27 28  2  0
 28 29  1  0
 29 30  2  0
 30  2  1  0
 23  8  1  0
 29 24  1  0
 22 17  1  0
  1 31  1  0
  1 32  1  0
  1 33  1  0
  3 34  1  0
  7 35  1  0
  9 36  1  0
 10 37  1  0
 12 38  1  0
 12 39  1  0
 12 40  1  0
 18 41  1  0
 18 42  1  0
 19 43  1  0
 19 44  1  0
 21 45  1  0
 21 46  1  0
 22 47  1  0
 22 48  1  0
 23 49  1  0
 25 50  1  0
 26 51  1  0
 27 52  1  0
 28 53  1  0
M  END
$$$$
