
     RDKit          3D

 40 42  0  0  0  0  0  0  0  0999 V2000
    5.9742    0.1570   -1.1463 C   0  0  0  0  0  0  0  0  0  0  0  0
    5.4735    0.2957    0.2833 C   0  0  0  0  0  0  0  0  0  0  0  0
    3.9702    0.2097    0.3613 C   0  0  0  0  0  0  0  0  0  0  0  0
    3.1860    1.3618    0.2293 C   0  0  0  0  0  0  0  0  0  0  0  0
    1.7925    1.2801    0.2858 C   0  0  0  0  0  0  0  0  0  0  0  0
    1.1639    0.0433    0.4691 C   0  0  0  0  0  0  0  0  0  0  0  0
   -0.3159   -0.0100    0.5224 C   0  0  0  0  0  0  0  0  0  0  0  0
   -1.0602    1.0540    0.5745 N   0  0  0  0  0  0  0  0  0  0  0  0
   -2.4883    0.5706    0.5773 N   0  0  0  0  0  0  0  0  0  0  0  0
   -3.4611    1.0393    1.9019 S   0  0  0  0  0  6  0  0  0  0  0  0
   -3.3133    2.8109    1.8304 C   0  0  0  0  0  0  0  0  0  0  0  0
   -4.8316    0.6785    1.5975 O   0  0  0  0  0  0  0  0  0  0  0  0
   -2.8288    0.5564    3.1139 O   0  0  0  0  0  0  0  0  0  0  0  0
   -2.5022   -0.8914    0.3154 C   0  0  0  0  0  0  0  0  0  0  0  0
   -3.0118   -1.1235   -1.0887 C   0  0  0  0  0  0  0  0  0  0  0  0
   -4.2655   -1.5914   -1.4447 C   0  0  0  0  0  0  0  0  0  0  0  0
   -4.4378   -1.6900   -2.8550 C   0  0  0  0  0  0  0  0  0  0  0  0
   -3.3152   -1.2847   -3.5387 C   0  0  0  0  0  0  0  0  0  0  0  0
   -2.0684   -0.7835   -2.4847 S   0  0  0  0  0  0  0  0  0  0  0  0
   -1.0591   -1.3222    0.5641 C   0  0  0  0  0  0  0  0  0  0  0  0
    1.9423   -1.1111    0.5977 C   0  0  0  0  0  0  0  0  0  0  0  0
    3.3370   -1.0266    0.5408 C   0  0  0  0  0  0  0  0  0  0  0  0
    5.6812   -0.8059   -1.5782 H   0  0  0  0  0  0  0  0  0  0  0  0
    5.5715    0.9489   -1.7869 H   0  0  0  0  0  0  0  0  0  0  0  0
    7.0665    0.2224   -1.1727 H   0  0  0  0  0  0  0  0  0  0  0  0
    5.9210   -0.4853    0.9101 H   0  0  0  0  0  0  0  0  0  0  0  0
    5.8103    1.2513    0.7033 H   0  0  0  0  0  0  0  0  0  0  0  0
    3.6550    2.3323    0.0805 H   0  0  0  0  0  0  0  0  0  0  0  0
    1.2051    2.1898    0.1807 H   0  0  0  0  0  0  0  0  0  0  0  0
   -2.2752    3.0949    2.0099 H   0  0  0  0  0  0  0  0  0  0  0  0
   -3.6546    3.1551    0.8524 H   0  0  0  0  0  0  0  0  0  0  0  0
   -3.9494    3.2308    2.6129 H   0  0  0  0  0  0  0  0  0  0  0  0
   -3.1553   -1.4330    1.0107 H   0  0  0  0  0  0  0  0  0  0  0  0
   -5.0327   -1.8419   -0.7201 H   0  0  0  0  0  0  0  0  0  0  0  0
   -5.3430   -2.0312   -3.3421 H   0  0  0  0  0  0  0  0  0  0  0  0
   -3.1691   -1.2485   -4.6095 H   0  0  0  0  0  0  0  0  0  0  0  0
   -0.6802   -2.0502   -0.1570 H   0  0  0  0  0  0  0  0  0  0  0  0
   -0.9533   -1.7302    1.5762 H   0  0  0  0  0  0  0  0  0  0  0  0
    1.4925   -2.0877    0.7487 H   0  0  0  0  0  0  0  0  0  0  0  0
    3.9291   -1.9345    0.6392 H   0  0  0  0  0  0  0  0  0  0  0  0
  1  2  1  0
  2  3  1  0
  3  4  2  0
  4  5  1  0
  5  6  2  0
  6  7  1  0
  7  8  2  0
  8  9  1  0
  9 10  1  0
 10 11  1  0
 10 12  2  0
 10 13  2  0
  9 14  1  0
 14 15  1  0
 15 16  2  0
 16 17  1  0
 17 18  2  0
 18 19  1  0
 14 20  1  0
  6 21  1  0
 21 22  2  0
 22  3  1  0
 20  7  1  0
 19 15  1  0
  1 23  1  0
  1 24  1  0
  1 25  1  0
  2 26  1  0
  2 27  1  0
  4 28  1  0
  5 29  1  0
 11 30  1  0
 11 31  1  0
 11 32  1  0
 14 33  1  0
 16 34  1  0
 17 35  1  0
 18 36  1  0
 20 37  1  0
 20 38  1  0
 21 39  1  0
 22 40  1  0
M  END
$$$$
