
     RDKit          3D

 51 53  0  0  0  0  0  0  0  0999 V2000
    4.8052    1.3432   -2.4213 O   0  0  0  0  0  0  0  0  0  0  0  0
    4.4991    1.0045   -1.2863 C   0  0  0  0  0  0  0  0  0  0  0  0
    3.2265    0.9466   -0.7737 N   0  0  0  0  0  0  0  0  0  0  0  0
    2.0985    1.4757   -1.4935 C   0  0  0  0  0  0  0  0  0  0  0  0
    0.8631    0.8751   -0.9406 C   0  0  0  0  0  0  0  0  0  0  0  0
    0.0075   -0.1056   -1.3897 C   0  0  0  0  0  0  0  0  0  0  0  0
   -0.9892   -0.2526   -0.3939 C   0  0  0  0  0  0  0  0  0  0  0  0
   -0.6990    0.6600    0.6030 C   0  0  0  0  0  0  0  0  0  0  0  0
   -1.3038    0.9878    1.8689 C   0  0  0  0  0  0  0  0  0  0  0  0
   -2.5366    0.8290    2.2558 N   0  0  0  0  0  0  0  0  0  0  0  0
   -3.4731    0.4311    1.3535 N   0  0  0  0  0  0  0  0  0  0  0  0
   -4.7642    0.1448    1.7527 C   0  0  0  0  0  0  0  0  0  0  0  0
   -5.2187    0.0820    2.8871 O   0  0  0  0  0  0  0  0  0  0  0  0
   -5.6865   -0.1311    0.5521 C   0  0  0  0  0  0  0  0  0  0  0  0
   -5.2186   -0.0328   -0.5746 O   0  0  0  0  0  0  0  0  0  0  0  0
   -6.9606   -0.4779    0.9403 N   0  0  0  0  0  0  0  0  0  0  0  0
   -8.0626   -0.8151    0.1292 C   0  0  0  0  0  0  0  0  0  0  0  0
   -8.0077   -0.7924   -1.2680 C   0  0  0  0  0  0  0  0  0  0  0  0
   -9.1266   -1.1424   -2.0312 C   0  0  0  0  0  0  0  0  0  0  0  0
  -10.3134   -1.5183   -1.4080 C   0  0  0  0  0  0  0  0  0  0  0  0
  -10.3874   -1.5427   -0.0174 C   0  0  0  0  0  0  0  0  0  0  0  0
   -9.2698   -1.1933    0.7460 C   0  0  0  0  0  0  0  0  0  0  0  0
   -9.4401   -1.2592    2.6398 Br  0  0  0  0  0  0  0  0  0  0  0  0
    0.4482    1.3334    0.2748 O   0  0  0  0  0  0  0  0  0  0  0  0
    5.5980    0.5945   -0.2821 C   0  0  0  0  0  0  0  0  0  0  0  0
    5.2783    0.3741    0.8775 O   0  0  0  0  0  0  0  0  0  0  0  0
    6.8382    0.5319   -0.8799 N   0  0  0  0  0  0  0  0  0  0  0  0
    8.0648    0.1864   -0.2894 C   0  0  0  0  0  0  0  0  0  0  0  0
    8.2116   -0.1405    1.0598 C   0  0  0  0  0  0  0  0  0  0  0  0
    9.4688   -0.4764    1.5731 C   0  0  0  0  0  0  0  0  0  0  0  0
   10.5862   -0.4898    0.7421 C   0  0  0  0  0  0  0  0  0  0  0  0
   10.4489   -0.1646   -0.6050 C   0  0  0  0  0  0  0  0  0  0  0  0
    9.1937    0.1739   -1.1175 C   0  0  0  0  0  0  0  0  0  0  0  0
    3.1508    0.7919    0.2286 H   0  0  0  0  0  0  0  0  0  0  0  0
    2.2039    1.2567   -2.5611 H   0  0  0  0  0  0  0  0  0  0  0  0
    2.0959    2.5637   -1.3681 H   0  0  0  0  0  0  0  0  0  0  0  0
    0.1026   -0.6602   -2.3129 H   0  0  0  0  0  0  0  0  0  0  0  0
   -1.8032   -0.9654   -0.4015 H   0  0  0  0  0  0  0  0  0  0  0  0
   -0.6170    1.4228    2.6162 H   0  0  0  0  0  0  0  0  0  0  0  0
   -3.3073    0.5281    0.3540 H   0  0  0  0  0  0  0  0  0  0  0  0
   -7.1063   -0.5126    1.9501 H   0  0  0  0  0  0  0  0  0  0  0  0
   -7.1075   -0.5021   -1.8007 H   0  0  0  0  0  0  0  0  0  0  0  0
   -9.0658   -1.1222   -3.1175 H   0  0  0  0  0  0  0  0  0  0  0  0
  -11.1799   -1.7946   -2.0050 H   0  0  0  0  0  0  0  0  0  0  0  0
  -11.3169   -1.8401    0.4624 H   0  0  0  0  0  0  0  0  0  0  0  0
    6.8412    0.7700   -1.8693 H   0  0  0  0  0  0  0  0  0  0  0  0
    7.3679   -0.1415    1.7427 H   0  0  0  0  0  0  0  0  0  0  0  0
    9.5710   -0.7280    2.6260 H   0  0  0  0  0  0  0  0  0  0  0  0
   11.5612   -0.7538    1.1440 H   0  0  0  0  0  0  0  0  0  0  0  0
   11.3184   -0.1751   -1.2580 H   0  0  0  0  0  0  0  0  0  0  0  0
    9.1125    0.4230   -2.1731 H   0  0  0  0  0  0  0  0  0  0  0  0
  1  2  2  0
  2  3  1  0
  3  4  1  0
  4  5  1  0
  5  6  2  0
  6  7  1  0
  7  8  2  0
  8  9  1  0
  9 10  2  3
 10 11  1  0
 11 12  1  0
 12 13  2  0
 12 14  1  0
 14 15  2  0
 14 16  1  0
 16 17  1  0
 17 18  2  0
 18 19  1  0
 19 20  2  0
 20 21  1  0
 21 22  2  0
 22 23  1  0
  8 24  1  0
  2 25  1  0
 25 26  2  0
 25 27  1  0
 27 28  1  0
 28 29  2  0
 29 30  1  0
 30 31  2  0
 31 32  1  0
 32 33  2  0
 24  5  1  0
 33 28  1  0
 22 17  1  0
  3 34  1  0
  4 35  1  0
  4 36  1  0
  6 37  1  0
  7 38  1  0
  9 39  1  0
 11 40  1  0
 16 41  1  0
 18 42  1  0
 19 43  1  0
 20 44  1  0
 21 45  1  0
 27 46  1  0
 29 47  1  0
 30 48  1  0
 31 49  1  0
 32 50  1  0
 33 51  1  0
M  END
$$$$
