
     RDKit          3D

 66 68  0  0  0  0  0  0  0  0999 V2000
   -2.9492   -5.4807    1.2817 C   0  0  0  0  0  0  0  0  0  0  0  0
   -1.8676   -4.4252    1.4930 C   0  0  0  0  0  0  0  0  0  0  0  0
   -2.2779   -3.0593    1.1206 N   0  0  0  0  0  0  0  0  0  0  0  0
   -3.4533   -2.5672    1.8531 C   0  0  0  0  0  0  0  0  0  0  0  0
   -3.2773   -2.3532    3.3540 C   0  0  0  0  0  0  0  0  0  0  0  0
   -1.1084   -2.1587    1.1776 C   0  0  0  0  0  0  0  0  0  0  0  0
   -1.3629   -0.7575    0.5921 C   0  0  0  0  0  0  0  0  0  0  0  0
   -0.0814    0.1201    0.6074 C   0  0  0  0  0  0  0  0  0  0  0  0
    1.0725   -0.3606   -0.2688 C   0  0  0  0  0  0  0  0  0  0  0  0
    2.3891   -0.1918    0.1746 C   0  0  0  0  0  0  0  0  0  0  0  0
    3.4783   -0.6329   -0.5927 C   0  0  0  0  0  0  0  0  0  0  0  0
    3.3160   -1.2466   -1.8449 C   0  0  0  0  0  0  0  0  0  0  0  0
    4.4028   -1.7129   -2.5950 N   0  0  0  0  0  0  0  0  0  0  0  0
    5.7512   -1.2743   -2.2417 C   0  0  0  0  0  0  0  0  0  0  0  0
    4.1956   -2.0483   -4.0028 C   0  0  0  0  0  0  0  0  0  0  0  0
    1.9867   -1.4054   -2.2726 C   0  0  0  0  0  0  0  0  0  0  0  0
    0.8892   -0.9713   -1.5104 C   0  0  0  0  0  0  0  0  0  0  0  0
   -0.3958    1.6049    0.3932 C   0  0  0  0  0  0  0  0  0  0  0  0
   -0.0263    2.5597    1.3569 C   0  0  0  0  0  0  0  0  0  0  0  0
    0.5991    2.1301    2.5028 O   0  0  0  0  0  0  0  0  0  0  0  0
    1.8353    2.8038    2.7428 C   0  0  0  0  0  0  0  0  0  0  0  0
   -0.3480    3.9177    1.2028 C   0  0  0  0  0  0  0  0  0  0  0  0
   -1.0045    4.3711    0.0559 C   0  0  0  0  0  0  0  0  0  0  0  0
   -1.3501    5.6798   -0.1724 O   0  0  0  0  0  0  0  0  0  0  0  0
   -1.0910    6.6235    0.8591 C   0  0  0  0  0  0  0  0  0  0  0  0
   -1.3437    3.4473   -0.9459 C   0  0  0  0  0  0  0  0  0  0  0  0
   -2.0206    3.8477   -2.1797 C   0  0  0  0  0  0  0  0  0  0  0  0
   -2.3257    2.9450   -3.1146 C   0  0  0  0  0  0  0  0  0  0  0  0
   -1.9966    1.5236   -2.9597 C   0  0  0  0  0  0  0  0  0  0  0  0
   -2.2588    0.7156   -3.8412 O   0  0  0  0  0  0  0  0  0  0  0  0
   -1.3826    1.1615   -1.7705 O   0  0  0  0  0  0  0  0  0  0  0  0
   -1.0391    2.0903   -0.7601 C   0  0  0  0  0  0  0  0  0  0  0  0
   -3.7569   -5.3860    2.0129 H   0  0  0  0  0  0  0  0  0  0  0  0
   -2.5194   -6.4812    1.3984 H   0  0  0  0  0  0  0  0  0  0  0  0
   -3.3767   -5.4164    0.2762 H   0  0  0  0  0  0  0  0  0  0  0  0
   -1.5117   -4.4667    2.5298 H   0  0  0  0  0  0  0  0  0  0  0  0
   -1.0205   -4.7229    0.8609 H   0  0  0  0  0  0  0  0  0  0  0  0
   -4.2971   -3.2478    1.6908 H   0  0  0  0  0  0  0  0  0  0  0  0
   -3.7969   -1.6277    1.4040 H   0  0  0  0  0  0  0  0  0  0  0  0
   -4.2262   -2.0244    3.7920 H   0  0  0  0  0  0  0  0  0  0  0  0
   -2.9816   -3.2744    3.8654 H   0  0  0  0  0  0  0  0  0  0  0  0
   -2.5354   -1.5777    3.5709 H   0  0  0  0  0  0  0  0  0  0  0  0
   -0.7376   -2.0691    2.2062 H   0  0  0  0  0  0  0  0  0  0  0  0
   -0.3013   -2.6213    0.5974 H   0  0  0  0  0  0  0  0  0  0  0  0
   -2.1247   -0.2472    1.1942 H   0  0  0  0  0  0  0  0  0  0  0  0
   -1.7790   -0.8587   -0.4149 H   0  0  0  0  0  0  0  0  0  0  0  0
    0.2815    0.0078    1.6386 H   0  0  0  0  0  0  0  0  0  0  0  0
    2.5880    0.2737    1.1368 H   0  0  0  0  0  0  0  0  0  0  0  0
    4.4645   -0.4820   -0.1674 H   0  0  0  0  0  0  0  0  0  0  0  0
    6.0204   -1.5919   -1.2286 H   0  0  0  0  0  0  0  0  0  0  0  0
    6.5007   -1.7227   -2.9044 H   0  0  0  0  0  0  0  0  0  0  0  0
    5.8466   -0.1865   -2.3256 H   0  0  0  0  0  0  0  0  0  0  0  0
    3.8556   -1.1745   -4.5695 H   0  0  0  0  0  0  0  0  0  0  0  0
    3.4754   -2.8662   -4.1185 H   0  0  0  0  0  0  0  0  0  0  0  0
    5.1236   -2.4023   -4.4659 H   0  0  0  0  0  0  0  0  0  0  0  0
    1.7558   -1.8835   -3.2209 H   0  0  0  0  0  0  0  0  0  0  0  0
   -0.1074   -1.1343   -1.9164 H   0  0  0  0  0  0  0  0  0  0  0  0
    2.4336    2.1753    3.4097 H   0  0  0  0  0  0  0  0  0  0  0  0
    1.6621    3.7596    3.2479 H   0  0  0  0  0  0  0  0  0  0  0  0
    2.4067    2.9542    1.8178 H   0  0  0  0  0  0  0  0  0  0  0  0
   -0.0904    4.6014    2.0040 H   0  0  0  0  0  0  0  0  0  0  0  0
   -0.0165    6.7191    1.0449 H   0  0  0  0  0  0  0  0  0  0  0  0
   -1.4571    7.5969    0.5197 H   0  0  0  0  0  0  0  0  0  0  0  0
   -1.6319    6.3668    1.7755 H   0  0  0  0  0  0  0  0  0  0  0  0
   -2.2737    4.8931   -2.3224 H   0  0  0  0  0  0  0  0  0  0  0  0
   -2.8275    3.2220   -4.0340 H   0  0  0  0  0  0  0  0  0  0  0  0
  1  2  1  0
  2  3  1  0
  3  4  1  0
  4  5  1  0
  3  6  1  0
  6  7  1  0
  7  8  1  0
  8  9  1  0
  9 10  2  0
 10 11  1  0
 11 12  2  0
 12 13  1  0
 13 14  1  0
 13 15  1  0
 12 16  1  0
 16 17  2  0
  8 18  1  0
 18 19  2  0
 19 20  1  0
 20 21  1  0
 19 22  1  0
 22 23  2  0
 23 24  1  0
 24 25  1  0
 23 26  1  0
 26 27  1  0
 27 28  2  0
 28 29  1  0
 29 30  2  0
 29 31  1  0
 31 32  1  0
 17  9  1  0
 32 18  1  0
 32 26  2  0
  1 33  1  0
  1 34  1  0
  1 35  1  0
  2 36  1  0
  2 37  1  0
  4 38  1  0
  4 39  1  0
  5 40  1  0
  5 41  1  0
  5 42  1  0
  6 43  1  0
  6 44  1  0
  7 45  1  0
  7 46  1  0
  8 47  1  0
 10 48  1  0
 11 49  1  0
 14 50  1  0
 14 51  1  0
 14 52  1  0
 15 53  1  0
 15 54  1  0
 15 55  1  0
 16 56  1  0
 17 57  1  0
 21 58  1  0
 21 59  1  0
 21 60  1  0
 22 61  1  0
 25 62  1  0
 25 63  1  0
 25 64  1  0
 27 65  1  0
 28 66  1  0
M  END
$$$$
