
     RDKit          3D

 43 44  0  0  0  0  0  0  0  0999 V2000
    2.8506   -1.9120   -4.4049 C   0  0  0  0  0  0  0  0  0  0  0  0
    3.9754   -1.1372   -3.9963 O   0  0  0  0  0  0  0  0  0  0  0  0
    4.0132   -0.7426   -2.6858 C   0  0  0  0  0  0  0  0  0  0  0  0
    5.1111    0.0518   -2.3494 C   0  0  0  0  0  0  0  0  0  0  0  0
    5.2724    0.5155   -1.0430 C   0  0  0  0  0  0  0  0  0  0  0  0
    4.3444    0.1734   -0.0549 C   0  0  0  0  0  0  0  0  0  0  0  0
    3.2428   -0.6242   -0.3728 C   0  0  0  0  0  0  0  0  0  0  0  0
    2.2667   -1.0251    0.5631 N   0  0  0  0  0  0  0  0  0  0  0  0
    2.2411   -0.7636    1.9152 C   0  0  0  0  0  0  0  0  0  0  0  0
    3.0382   -0.0836    2.5559 O   0  0  0  0  0  0  0  0  0  0  0  0
    1.0516   -1.3915    2.6012 C   0  0  0  0  0  0  0  0  0  0  0  0
   -0.1726   -0.5324    2.4257 C   0  0  0  0  0  0  0  0  0  0  0  0
   -0.3667    0.6231    3.3786 C   0  0  0  0  0  0  0  0  0  0  0  0
   -0.9404   -0.8052    1.4116 N   0  0  0  0  0  0  0  0  0  0  0  0
   -2.0334   -0.0257    1.1959 N   0  0  0  0  0  0  0  0  0  0  0  0
   -2.8381   -0.2510    0.0896 C   0  0  0  0  0  0  0  0  0  0  0  0
   -2.6142   -1.0834   -0.7881 O   0  0  0  0  0  0  0  0  0  0  0  0
   -4.0134    0.6541   -0.0489 C   0  0  0  0  0  0  0  0  0  0  0  0
   -4.3229    1.0807   -1.3555 C   0  0  0  0  0  0  0  0  0  0  0  0
   -5.3916    1.9523   -1.5867 C   0  0  0  0  0  0  0  0  0  0  0  0
   -6.1665    2.4006   -0.5189 C   0  0  0  0  0  0  0  0  0  0  0  0
   -5.8829    1.9659    0.7776 C   0  0  0  0  0  0  0  0  0  0  0  0
   -4.8117    1.0913    1.0194 C   0  0  0  0  0  0  0  0  0  0  0  0
   -4.5780    0.5813    2.6548 Cl  0  0  0  0  0  0  0  0  0  0  0  0
    3.0815   -1.0723   -1.6929 C   0  0  0  0  0  0  0  0  0  0  0  0
    1.9200   -1.3549   -4.2780 H   0  0  0  0  0  0  0  0  0  0  0  0
    2.9622   -2.1280   -5.4704 H   0  0  0  0  0  0  0  0  0  0  0  0
    2.8151   -2.8670   -3.8717 H   0  0  0  0  0  0  0  0  0  0  0  0
    5.8425    0.3152   -3.1107 H   0  0  0  0  0  0  0  0  0  0  0  0
    6.1256    1.1388   -0.7872 H   0  0  0  0  0  0  0  0  0  0  0  0
    4.5021    0.5576    0.9476 H   0  0  0  0  0  0  0  0  0  0  0  0
    1.4712   -1.5325    0.1886 H   0  0  0  0  0  0  0  0  0  0  0  0
    0.8716   -2.3917    2.1923 H   0  0  0  0  0  0  0  0  0  0  0  0
    1.2695   -1.5168    3.6671 H   0  0  0  0  0  0  0  0  0  0  0  0
    0.4053    0.6198    4.1509 H   0  0  0  0  0  0  0  0  0  0  0  0
   -1.3376    0.5442    3.8653 H   0  0  0  0  0  0  0  0  0  0  0  0
   -0.2992    1.5651    2.8222 H   0  0  0  0  0  0  0  0  0  0  0  0
   -2.2992    0.6744    1.8819 H   0  0  0  0  0  0  0  0  0  0  0  0
   -3.7166    0.7444   -2.1977 H   0  0  0  0  0  0  0  0  0  0  0  0
   -5.6146    2.2913   -2.5966 H   0  0  0  0  0  0  0  0  0  0  0  0
   -6.9942    3.0822   -0.6924 H   0  0  0  0  0  0  0  0  0  0  0  0
   -6.5038    2.3079    1.6015 H   0  0  0  0  0  0  0  0  0  0  0  0
    2.2234   -1.6900   -1.9329 H   0  0  0  0  0  0  0  0  0  0  0  0
  1  2  1  0
  2  3  1  0
  3  4  2  0
  4  5  1  0
  5  6  2  0
  6  7  1  0
  7  8  1  0
  8  9  1  0
  9 10  2  0
  9 11  1  0
 11 12  1  0
 12 13  1  0
 12 14  2  3
 14 15  1  0
 15 16  1  0
 16 17  2  0
 16 18  1  0
 18 19  2  0
 19 20  1  0
 20 21  2  0
 21 22  1  0
 22 23  2  0
 23 24  1  0
  7 25  2  0
 25  3  1  0
 23 18  1  0
  1 26  1  0
  1 27  1  0
  1 28  1  0
  4 29  1  0
  5 30  1  0
  6 31  1  0
  8 32  1  0
 11 33  1  0
 11 34  1  0
 13 35  1  0
 13 36  1  0
 13 37  1  0
 15 38  1  0
 19 39  1  0
 20 40  1  0
 21 41  1  0
 22 42  1  0
 25 43  1  0
M  END
$$$$
