
     RDKit          3D

 38 40  0  0  0  0  0  0  0  0999 V2000
   -4.5955    2.6034   -0.2746 C   0  0  0  0  0  0  0  0  0  0  0  0
   -3.4404    1.8896    0.1516 O   0  0  0  0  0  0  0  0  0  0  0  0
   -3.4207    0.5437   -0.0908 C   0  0  0  0  0  0  0  0  0  0  0  0
   -4.3968   -0.1803   -0.7765 C   0  0  0  0  0  0  0  0  0  0  0  0
   -4.2575   -1.5607   -0.9427 C   0  0  0  0  0  0  0  0  0  0  0  0
   -3.1396   -2.2149   -0.4339 C   0  0  0  0  0  0  0  0  0  0  0  0
   -3.0913   -3.5708   -0.6144 O   0  0  0  0  0  0  0  0  0  0  0  0
   -2.1336   -1.4965    0.2236 C   0  0  0  0  0  0  0  0  0  0  0  0
   -0.9392   -2.2137    0.7354 C   0  0  0  0  0  0  0  0  0  0  0  0
   -1.0465   -3.4055    1.0217 O   0  0  0  0  0  0  0  0  0  0  0  0
    0.3766   -1.5625    0.8849 C   0  0  0  0  0  0  0  0  0  0  0  0
    1.1853   -1.9242    1.9540 C   0  0  0  0  0  0  0  0  0  0  0  0
    2.4095   -1.3902    2.1861 N   0  0  0  0  0  0  0  0  0  0  0  0
    2.8577   -0.4872    1.2920 C   0  0  0  0  0  0  0  0  0  0  0  0
    2.1384   -0.0769    0.1825 C   0  0  0  0  0  0  0  0  0  0  0  0
    0.8696   -0.6271   -0.0264 C   0  0  0  0  0  0  0  0  0  0  0  0
    2.7066    0.9917   -0.6889 C   0  0  0  0  0  0  0  0  0  0  0  0
    4.1408    1.1577   -0.5411 N   0  0  0  0  0  0  0  0  0  0  0  0
    4.7972    2.0542   -1.4742 C   0  0  0  0  0  0  0  0  0  0  0  0
    4.7846    0.8482    0.6411 C   0  0  0  0  0  0  0  0  0  0  0  0
    5.9207    1.2289    0.9153 O   0  0  0  0  0  0  0  0  0  0  0  0
    4.1102    0.0501    1.5110 N   0  0  0  0  0  0  0  0  0  0  0  0
   -2.2949   -0.1181    0.4127 C   0  0  0  0  0  0  0  0  0  0  0  0
   -5.4980    2.2249    0.2166 H   0  0  0  0  0  0  0  0  0  0  0  0
   -4.6955    2.5744   -1.3646 H   0  0  0  0  0  0  0  0  0  0  0  0
   -4.4692    3.6496    0.0204 H   0  0  0  0  0  0  0  0  0  0  0  0
   -5.2833    0.2934   -1.1858 H   0  0  0  0  0  0  0  0  0  0  0  0
   -5.0258   -2.1288   -1.4615 H   0  0  0  0  0  0  0  0  0  0  0  0
   -2.3758   -3.9255   -0.0393 H   0  0  0  0  0  0  0  0  0  0  0  0
    0.8643   -2.6678    2.6800 H   0  0  0  0  0  0  0  0  0  0  0  0
    0.2883   -0.3311   -0.8957 H   0  0  0  0  0  0  0  0  0  0  0  0
    2.2317    1.9493   -0.4451 H   0  0  0  0  0  0  0  0  0  0  0  0
    2.5056    0.7530   -1.7397 H   0  0  0  0  0  0  0  0  0  0  0  0
    4.5152    1.7827   -2.4956 H   0  0  0  0  0  0  0  0  0  0  0  0
    5.8854    1.9963   -1.3831 H   0  0  0  0  0  0  0  0  0  0  0  0
    4.4768    3.0786   -1.2622 H   0  0  0  0  0  0  0  0  0  0  0  0
    4.6025   -0.2516    2.3384 H   0  0  0  0  0  0  0  0  0  0  0  0
   -1.5635    0.4638    0.9678 H   0  0  0  0  0  0  0  0  0  0  0  0
  1  2  1  0
  2  3  1  0
  3  4  2  0
  4  5  1  0
  5  6  2  0
  6  7  1  0
  6  8  1  0
  8  9  1  0
  9 10  2  0
  9 11  1  0
 11 12  2  0
 12 13  1  0
 13 14  2  0
 14 15  1  0
 15 16  2  0
 15 17  1  0
 17 18  1  0
 18 19  1  0
 18 20  1  0
 20 21  2  0
 20 22  1  0
  8 23  2  0
 23  3  1  0
 16 11  1  0
 22 14  1  0
  1 24  1  0
  1 25  1  0
  1 26  1  0
  4 27  1  0
  5 28  1  0
  7 29  1  0
 12 30  1  0
 16 31  1  0
 17 32  1  0
 17 33  1  0
 19 34  1  0
 19 35  1  0
 19 36  1  0
 22 37  1  0
 23 38  1  0
M  END
$$$$
