
     RDKit          3D

 56 59  0  0  0  0  0  0  0  0999 V2000
   -0.7598   -0.3694    2.1204 O   0  0  0  0  0  0  0  0  0  0  0  0
   -0.3358    0.9427    1.7228 C   0  0  0  0  0  0  0  0  0  0  0  0
   -1.5473    1.8809    1.6144 C   0  0  0  0  0  0  0  0  0  0  0  0
   -2.3391    1.7297    0.4340 O   0  0  0  0  0  0  0  0  0  0  0  0
   -3.0774    0.5100    0.3145 C   0  0  0  0  0  0  0  0  0  0  0  0
   -4.1927    0.3212    1.3570 C   0  0  0  0  0  0  0  0  0  0  0  0
   -5.1961    1.4728    1.3905 C   0  0  0  0  0  0  0  0  0  0  0  0
   -5.9342    1.5765    0.1688 O   0  0  0  0  0  0  0  0  0  0  0  0
   -6.4080    0.3527   -0.2254 C   0  0  0  0  0  0  0  0  0  0  0  0
   -7.4345    0.3516   -1.1681 C   0  0  0  0  0  0  0  0  0  0  0  0
   -7.9739   -0.8582   -1.6077 C   0  0  0  0  0  0  0  0  0  0  0  0
   -7.4820   -2.0648   -1.1078 C   0  0  0  0  0  0  0  0  0  0  0  0
   -6.4428   -2.0632   -0.1757 C   0  0  0  0  0  0  0  0  0  0  0  0
   -5.8971   -0.8554    0.2562 C   0  0  0  0  0  0  0  0  0  0  0  0
   -4.8589   -0.9373    1.1463 O   0  0  0  0  0  0  0  0  0  0  0  0
    0.4713    0.8426    0.4102 C   0  0  0  0  0  0  0  0  0  0  0  0
    1.5613   -0.1530    0.5359 N   0  0  0  0  0  0  0  0  0  0  0  0
    1.9904   -0.6091   -0.8078 C   0  0  0  0  0  0  0  0  0  0  0  0
    3.3852   -1.2752   -0.8337 C   0  0  0  0  0  0  0  0  0  0  0  0
    4.4198   -0.3359   -0.3724 N   0  0  0  0  0  0  0  0  0  0  0  0
    5.7305   -0.4345   -0.8096 C   0  0  0  0  0  0  0  0  0  0  0  0
    6.2539   -1.6384   -1.3107 C   0  0  0  0  0  0  0  0  0  0  0  0
    7.5786   -1.7483   -1.7526 C   0  0  0  0  0  0  0  0  0  0  0  0
    8.4225   -0.6463   -1.7043 C   0  0  0  0  0  0  0  0  0  0  0  0
    7.9390    0.5594   -1.2128 C   0  0  0  0  0  0  0  0  0  0  0  0
    6.6129    0.6580   -0.7718 C   0  0  0  0  0  0  0  0  0  0  0  0
    3.9682    0.7645    0.4897 C   0  0  0  0  0  0  0  0  0  0  0  0
    2.7194    0.3550    1.3101 C   0  0  0  0  0  0  0  0  0  0  0  0
   -0.0168   -0.9530    1.8586 H   0  0  0  0  0  0  0  0  0  0  0  0
    0.2979    1.3119    2.5363 H   0  0  0  0  0  0  0  0  0  0  0  0
   -1.1765    2.9119    1.5873 H   0  0  0  0  0  0  0  0  0  0  0  0
   -2.1841    1.7987    2.5008 H   0  0  0  0  0  0  0  0  0  0  0  0
   -3.5108    0.5155   -0.6924 H   0  0  0  0  0  0  0  0  0  0  0  0
   -2.4031   -0.3522    0.3127 H   0  0  0  0  0  0  0  0  0  0  0  0
   -3.7369    0.2530    2.3505 H   0  0  0  0  0  0  0  0  0  0  0  0
   -5.9142    1.3353    2.2096 H   0  0  0  0  0  0  0  0  0  0  0  0
   -4.6915    2.4299    1.5578 H   0  0  0  0  0  0  0  0  0  0  0  0
   -7.8188    1.2923   -1.5521 H   0  0  0  0  0  0  0  0  0  0  0  0
   -8.7791   -0.8593   -2.3379 H   0  0  0  0  0  0  0  0  0  0  0  0
   -7.9036   -3.0071   -1.4480 H   0  0  0  0  0  0  0  0  0  0  0  0
   -6.0515   -3.0022    0.2059 H   0  0  0  0  0  0  0  0  0  0  0  0
    0.8558    1.8242    0.1074 H   0  0  0  0  0  0  0  0  0  0  0  0
   -0.2083    0.4975   -0.3786 H   0  0  0  0  0  0  0  0  0  0  0  0
    2.0102    0.2397   -1.5058 H   0  0  0  0  0  0  0  0  0  0  0  0
    1.2504   -1.3237   -1.1869 H   0  0  0  0  0  0  0  0  0  0  0  0
    3.5756   -1.5909   -1.8667 H   0  0  0  0  0  0  0  0  0  0  0  0
    3.3881   -2.1680   -0.1968 H   0  0  0  0  0  0  0  0  0  0  0  0
    5.6397   -2.5338   -1.3448 H   0  0  0  0  0  0  0  0  0  0  0  0
    7.9453   -2.6997   -2.1279 H   0  0  0  0  0  0  0  0  0  0  0  0
    9.4501   -0.7269   -2.0465 H   0  0  0  0  0  0  0  0  0  0  0  0
    8.5873    1.4305   -1.1733 H   0  0  0  0  0  0  0  0  0  0  0  0
    6.2771    1.6274   -0.4159 H   0  0  0  0  0  0  0  0  0  0  0  0
    3.7385    1.6441   -0.1238 H   0  0  0  0  0  0  0  0  0  0  0  0
    4.7498    1.0423    1.2072 H   0  0  0  0  0  0  0  0  0  0  0  0
    2.4390    1.1913    1.9602 H   0  0  0  0  0  0  0  0  0  0  0  0
    3.0170   -0.4570    1.9868 H   0  0  0  0  0  0  0  0  0  0  0  0
  1  2  1  0
  2  3  1  0
  3  4  1  0
  4  5  1  0
  5  6  1  0
  6  7  1  0
  7  8  1  0
  8  9  1  0
  9 10  2  0
 10 11  1  0
 11 12  2  0
 12 13  1  0
 13 14  2  0
 14 15  1  0
  2 16  1  0
 16 17  1  0
 17 18  1  0
 18 19  1  0
 19 20  1  0
 20 21  1  0
 21 22  2  0
 22 23  1  0
 23 24  2  0
 24 25  1  0
 25 26  2  0
 20 27  1  0
 27 28  1  0
 15  6  1  0
 28 17  1  0
 14  9  1  0
 26 21  1  0
  1 29  1  0
  2 30  1  0
  3 31  1  0
  3 32  1  0
  5 33  1  0
  5 34  1  0
  6 35  1  0
  7 36  1  0
  7 37  1  0
 10 38  1  0
 11 39  1  0
 12 40  1  0
 13 41  1  0
 16 42  1  0
 16 43  1  0
 18 44  1  0
 18 45  1  0
 19 46  1  0
 19 47  1  0
 22 48  1  0
 23 49  1  0
 24 50  1  0
 25 51  1  0
 26 52  1  0
 27 53  1  0
 27 54  1  0
 28 55  1  0
 28 56  1  0
M  END
$$$$
