
     RDKit          3D

 33 34  0  0  0  0  0  0  0  0999 V2000
   -4.7485    1.5365    2.5345 C   0  0  0  0  0  0  0  0  0  0  0  0
   -4.4391    0.9319    1.2843 O   0  0  0  0  0  0  0  0  0  0  0  0
   -3.1530    0.4999    1.1059 C   0  0  0  0  0  0  0  0  0  0  0  0
   -2.1249    0.5878    2.0416 C   0  0  0  0  0  0  0  0  0  0  0  0
   -0.8538    0.1073    1.7224 C   0  0  0  0  0  0  0  0  0  0  0  0
   -0.6040   -0.4553    0.4630 C   0  0  0  0  0  0  0  0  0  0  0  0
    0.7781   -0.9326    0.2013 C   0  0  0  0  0  0  0  0  0  0  0  0
    1.3584   -1.5532    1.0921 O   0  0  0  0  0  0  0  0  0  0  0  0
    1.4078   -0.6196   -1.1392 C   0  0  0  0  0  0  0  0  0  0  0  0
    2.7795   -0.0836   -0.9207 C   0  0  0  0  0  0  0  0  0  0  0  0
    3.0592    1.1913   -0.7385 N   0  0  0  0  0  0  0  0  0  0  0  0
    4.4106    1.4108   -0.5707 N   0  0  0  0  0  0  0  0  0  0  0  0
    5.1070    0.2960   -0.6381 C   0  0  0  0  0  0  0  0  0  0  0  0
    6.5796    0.2020   -0.4854 C   0  0  0  0  0  0  0  0  0  0  0  0
    4.1616   -1.1065   -0.9361 S   0  0  0  0  0  0  0  0  0  0  0  0
   -1.6364   -0.5725   -0.4796 C   0  0  0  0  0  0  0  0  0  0  0  0
   -1.3328   -1.1885   -1.6648 O   0  0  0  0  0  0  0  0  0  0  0  0
   -2.3918   -1.3818   -2.5966 C   0  0  0  0  0  0  0  0  0  0  0  0
   -2.9044   -0.0812   -0.1457 C   0  0  0  0  0  0  0  0  0  0  0  0
   -4.6163    0.8277    3.3586 H   0  0  0  0  0  0  0  0  0  0  0  0
   -5.8029    1.8285    2.5124 H   0  0  0  0  0  0  0  0  0  0  0  0
   -4.1550    2.4431    2.6922 H   0  0  0  0  0  0  0  0  0  0  0  0
   -2.2749    1.0211    3.0250 H   0  0  0  0  0  0  0  0  0  0  0  0
   -0.0530    0.1761    2.4574 H   0  0  0  0  0  0  0  0  0  0  0  0
    0.8304    0.1441   -1.6711 H   0  0  0  0  0  0  0  0  0  0  0  0
    1.4125   -1.5293   -1.7485 H   0  0  0  0  0  0  0  0  0  0  0  0
    7.0408   -0.1997   -1.3931 H   0  0  0  0  0  0  0  0  0  0  0  0
    6.8437   -0.4436    0.3582 H   0  0  0  0  0  0  0  0  0  0  0  0
    7.0096    1.1914   -0.2991 H   0  0  0  0  0  0  0  0  0  0  0  0
   -3.1831   -2.0083   -2.1719 H   0  0  0  0  0  0  0  0  0  0  0  0
   -1.9803   -1.9079   -3.4633 H   0  0  0  0  0  0  0  0  0  0  0  0
   -2.7872   -0.4228   -2.9468 H   0  0  0  0  0  0  0  0  0  0  0  0
   -3.7377   -0.1386   -0.8396 H   0  0  0  0  0  0  0  0  0  0  0  0
  1  2  1  0
  2  3  1  0
  3  4  2  0
  4  5  1  0
  5  6  2  0
  6  7  1  0
  7  8  2  0
  7  9  1  0
  9 10  1  0
 10 11  2  0
 11 12  1  0
 12 13  2  0
 13 14  1  0
 13 15  1  0
  6 16  1  0
 16 17  1  0
 17 18  1  0
 16 19  2  0
 19  3  1  0
 15 10  1  0
  1 20  1  0
  1 21  1  0
  1 22  1  0
  4 23  1  0
  5 24  1  0
  9 25  1  0
  9 26  1  0
 14 27  1  0
 14 28  1  0
 14 29  1  0
 18 30  1  0
 18 31  1  0
 18 32  1  0
 19 33  1  0
M  END
$$$$
