
     RDKit          3D

 36 37  0  0  0  0  0  0  0  0999 V2000
    2.5641    2.6607   -0.1494 C   0  0  0  0  0  0  0  0  0  0  0  0
    2.2654    1.3126    0.1892 O   0  0  0  0  0  0  0  0  0  0  0  0
    2.2959    0.3928   -0.8260 C   0  0  0  0  0  0  0  0  0  0  0  0
    2.3447    0.7169   -2.1867 C   0  0  0  0  0  0  0  0  0  0  0  0
    2.3433   -0.2890   -3.1562 C   0  0  0  0  0  0  0  0  0  0  0  0
    2.2904   -1.6253   -2.7769 C   0  0  0  0  0  0  0  0  0  0  0  0
    2.2463   -1.9593   -1.4260 C   0  0  0  0  0  0  0  0  0  0  0  0
    2.2481   -0.9587   -0.4380 C   0  0  0  0  0  0  0  0  0  0  0  0
    2.2002   -1.3755    1.0167 C   0  0  0  0  0  0  0  0  0  0  0  0
    0.8842   -2.0276    1.4032 C   0  0  0  0  0  0  0  0  0  0  0  0
    0.8468   -3.2088    1.7385 O   0  0  0  0  0  0  0  0  0  0  0  0
   -0.1862   -1.1518    1.3689 N   0  0  0  0  0  0  0  0  0  0  0  0
   -1.5135   -1.4945    1.5400 C   0  0  0  0  0  0  0  0  0  0  0  0
   -1.9079   -2.5675    1.9870 O   0  0  0  0  0  0  0  0  0  0  0  0
   -2.5264   -0.4454    1.1866 C   0  0  0  0  0  0  0  0  0  0  0  0
   -3.8811   -0.7601    1.3960 C   0  0  0  0  0  0  0  0  0  0  0  0
   -4.8890    0.1548    1.0808 C   0  0  0  0  0  0  0  0  0  0  0  0
   -4.5568    1.3966    0.5468 C   0  0  0  0  0  0  0  0  0  0  0  0
   -3.2194    1.7293    0.3314 C   0  0  0  0  0  0  0  0  0  0  0  0
   -2.2106    0.8129    0.6512 C   0  0  0  0  0  0  0  0  0  0  0  0
   -0.9060    1.1676    0.4285 O   0  0  0  0  0  0  0  0  0  0  0  0
    2.6308    3.2342    0.7806 H   0  0  0  0  0  0  0  0  0  0  0  0
    3.5298    2.7410   -0.6586 H   0  0  0  0  0  0  0  0  0  0  0  0
    1.7596    3.0959   -0.7493 H   0  0  0  0  0  0  0  0  0  0  0  0
    2.3875    1.7456   -2.5306 H   0  0  0  0  0  0  0  0  0  0  0  0
    2.3791   -0.0266   -4.2100 H   0  0  0  0  0  0  0  0  0  0  0  0
    2.2861   -2.4090   -3.5306 H   0  0  0  0  0  0  0  0  0  0  0  0
    2.2085   -3.0111   -1.1403 H   0  0  0  0  0  0  0  0  0  0  0  0
    3.0089   -2.0942    1.1993 H   0  0  0  0  0  0  0  0  0  0  0  0
    2.3871   -0.5417    1.7006 H   0  0  0  0  0  0  0  0  0  0  0  0
   -0.0096   -0.2300    0.9782 H   0  0  0  0  0  0  0  0  0  0  0  0
   -4.1599   -1.7306    1.8059 H   0  0  0  0  0  0  0  0  0  0  0  0
   -5.9309   -0.1088    1.2481 H   0  0  0  0  0  0  0  0  0  0  0  0
   -5.3415    2.1048    0.2934 H   0  0  0  0  0  0  0  0  0  0  0  0
   -2.9847    2.7025   -0.0884 H   0  0  0  0  0  0  0  0  0  0  0  0
   -0.8831    2.0473    0.0128 H   0  0  0  0  0  0  0  0  0  0  0  0
  1  2  1  0
  2  3  1  0
  3  4  2  0
  4  5  1  0
  5  6  2  0
  6  7  1  0
  7  8  2  0
  8  9  1  0
  9 10  1  0
 10 11  2  0
 10 12  1  0
 12 13  1  0
 13 14  2  0
 13 15  1  0
 15 16  2  0
 16 17  1  0
 17 18  2  0
 18 19  1  0
 19 20  2  0
 20 21  1  0
  8  3  1  0
 20 15  1  0
  1 22  1  0
  1 23  1  0
  1 24  1  0
  4 25  1  0
  5 26  1  0
  6 27  1  0
  7 28  1  0
  9 29  1  0
  9 30  1  0
 12 31  1  0
 16 32  1  0
 17 33  1  0
 18 34  1  0
 19 35  1  0
 21 36  1  0
M  END
$$$$
