
     RDKit          3D

 32 35  0  0  0  0  0  0  0  0999 V2000
   -5.7027    2.3116    0.0432 C   0  0  0  0  0  0  0  0  0  0  0  0
   -4.3003    2.0878    0.0504 O   0  0  0  0  0  0  0  0  0  0  0  0
   -3.8624    0.7881    0.0291 C   0  0  0  0  0  0  0  0  0  0  0  0
   -4.7032   -0.3366    0.0008 C   0  0  0  0  0  0  0  0  0  0  0  0
   -4.1788   -1.6282   -0.0196 C   0  0  0  0  0  0  0  0  0  0  0  0
   -2.8008   -1.8427   -0.0125 C   0  0  0  0  0  0  0  0  0  0  0  0
   -1.9593   -0.7207    0.0158 C   0  0  0  0  0  0  0  0  0  0  0  0
   -0.2426   -0.6666    0.0309 S   0  0  0  0  0  0  0  0  0  0  0  0
   -0.2686    1.0547    0.0636 C   0  0  0  0  0  0  0  0  0  0  0  0
    0.8113    1.8673    0.0879 N   0  0  0  0  0  0  0  0  0  0  0  0
    2.1319    1.6252    0.0941 C   0  0  0  0  0  0  0  0  0  0  0  0
    3.1122    2.5017    0.1188 N   0  0  0  0  0  0  0  0  0  0  0  0
    4.2889    1.7825    0.1147 N   0  0  0  0  0  0  0  0  0  0  0  0
    3.9572    0.5050    0.0875 C   0  0  0  0  0  0  0  0  0  0  0  0
    4.8784   -0.5952    0.0740 C   0  0  0  0  0  0  0  0  0  0  0  0
    4.5583   -1.9404    0.0457 C   0  0  0  0  0  0  0  0  0  0  0  0
    5.7128   -2.7779    0.0391 C   0  0  0  0  0  0  0  0  0  0  0  0
    6.8778   -2.0452    0.0626 C   0  0  0  0  0  0  0  0  0  0  0  0
    6.5759   -0.3623    0.0923 S   0  0  0  0  0  0  0  0  0  0  0  0
    2.5921    0.3402    0.0732 O   0  0  0  0  0  0  0  0  0  0  0  0
   -1.4766    1.5694    0.0635 N   0  0  0  0  0  0  0  0  0  0  0  0
   -2.4564    0.5811    0.0367 C   0  0  0  0  0  0  0  0  0  0  0  0
   -5.8690    3.3930    0.0625 H   0  0  0  0  0  0  0  0  0  0  0  0
   -6.1751    1.8870    0.9351 H   0  0  0  0  0  0  0  0  0  0  0  0
   -6.1603    1.9215   -0.8718 H   0  0  0  0  0  0  0  0  0  0  0  0
   -5.7840   -0.2333   -0.0061 H   0  0  0  0  0  0  0  0  0  0  0  0
   -4.8533   -2.4822   -0.0415 H   0  0  0  0  0  0  0  0  0  0  0  0
   -2.3934   -2.8492   -0.0284 H   0  0  0  0  0  0  0  0  0  0  0  0
    0.5666    2.8508    0.1047 H   0  0  0  0  0  0  0  0  0  0  0  0
    3.5396   -2.3110    0.0303 H   0  0  0  0  0  0  0  0  0  0  0  0
    5.6891   -3.8608    0.0182 H   0  0  0  0  0  0  0  0  0  0  0  0
    7.8945   -2.4144    0.0638 H   0  0  0  0  0  0  0  0  0  0  0  0
  1  2  1  0
  2  3  1  0
  3  4  2  0
  4  5  1  0
  5  6  2  0
  6  7  1  0
  7  8  1  0
  8  9  1  0
  9 10  1  0
 10 11  1  0
 11 12  2  0
 12 13  1  0
 13 14  2  0
 14 15  1  0
 15 16  2  0
 16 17  1  0
 17 18  2  0
 18 19  1  0
 14 20  1  0
  9 21  2  0
 21 22  1  0
 22  3  1  0
 22  7  2  0
 20 11  1  0
 19 15  1  0
  1 23  1  0
  1 24  1  0
  1 25  1  0
  4 26  1  0
  5 27  1  0
  6 28  1  0
 10 29  1  0
 16 30  1  0
 17 31  1  0
 18 32  1  0
M  END
$$$$
