
     RDKit          3D

 37 39  0  0  0  0  0  0  0  0999 V2000
    3.7356   -1.5649   -1.3520 C   0  0  0  0  0  0  0  0  0  0  0  0
    3.5808   -0.5364   -0.2696 C   0  0  0  0  0  0  0  0  0  0  0  0
    4.6480    0.3090    0.0588 C   0  0  0  0  0  0  0  0  0  0  0  0
    4.5285    1.2280    1.1020 C   0  0  0  0  0  0  0  0  0  0  0  0
    3.3424    1.3066    1.8250 C   0  0  0  0  0  0  0  0  0  0  0  0
    3.3113    2.2116    2.8521 O   0  0  0  0  0  0  0  0  0  0  0  0
    2.2542    0.4868    1.4990 C   0  0  0  0  0  0  0  0  0  0  0  0
    0.9938    0.6066    2.2743 C   0  0  0  0  0  0  0  0  0  0  0  0
    1.0483    1.0050    3.4369 O   0  0  0  0  0  0  0  0  0  0  0  0
   -0.3241    0.2961    1.6893 C   0  0  0  0  0  0  0  0  0  0  0  0
   -1.2915   -0.2988    2.4877 C   0  0  0  0  0  0  0  0  0  0  0  0
   -2.5345   -0.6178    2.0510 N   0  0  0  0  0  0  0  0  0  0  0  0
   -2.8257   -0.3120    0.7714 C   0  0  0  0  0  0  0  0  0  0  0  0
   -1.9431    0.3139   -0.0930 C   0  0  0  0  0  0  0  0  0  0  0  0
   -0.6668    0.6344    0.3790 C   0  0  0  0  0  0  0  0  0  0  0  0
   -2.4285    0.7097   -1.4465 C   0  0  0  0  0  0  0  0  0  0  0  0
   -3.5776   -0.0587   -1.8885 N   0  0  0  0  0  0  0  0  0  0  0  0
   -3.9973    0.1214   -3.2657 C   0  0  0  0  0  0  0  0  0  0  0  0
   -4.4953   -0.5556   -0.9818 C   0  0  0  0  0  0  0  0  0  0  0  0
   -5.6204   -0.9384   -1.2951 O   0  0  0  0  0  0  0  0  0  0  0  0
   -4.0843   -0.6450    0.3118 N   0  0  0  0  0  0  0  0  0  0  0  0
    2.3898   -0.4549    0.4678 C   0  0  0  0  0  0  0  0  0  0  0  0
    4.4306   -1.2184   -2.1241 H   0  0  0  0  0  0  0  0  0  0  0  0
    2.7766   -1.7610   -1.8430 H   0  0  0  0  0  0  0  0  0  0  0  0
    4.1147   -2.4998   -0.9279 H   0  0  0  0  0  0  0  0  0  0  0  0
    5.5875    0.2487   -0.4873 H   0  0  0  0  0  0  0  0  0  0  0  0
    5.3644    1.8728    1.3613 H   0  0  0  0  0  0  0  0  0  0  0  0
    2.5216    2.0118    3.4037 H   0  0  0  0  0  0  0  0  0  0  0  0
   -1.0919   -0.5477    3.5275 H   0  0  0  0  0  0  0  0  0  0  0  0
    0.0333    1.1629   -0.2630 H   0  0  0  0  0  0  0  0  0  0  0  0
   -1.6274    0.5645   -2.1805 H   0  0  0  0  0  0  0  0  0  0  0  0
   -2.7143    1.7680   -1.4362 H   0  0  0  0  0  0  0  0  0  0  0  0
   -4.7639   -0.6070   -3.5445 H   0  0  0  0  0  0  0  0  0  0  0  0
   -3.1350   -0.0054   -3.9264 H   0  0  0  0  0  0  0  0  0  0  0  0
   -4.4066    1.1296   -3.3802 H   0  0  0  0  0  0  0  0  0  0  0  0
   -4.7157   -1.0773    0.9695 H   0  0  0  0  0  0  0  0  0  0  0  0
    1.5825   -1.1464    0.2373 H   0  0  0  0  0  0  0  0  0  0  0  0
  1  2  1  0
  2  3  2  0
  3  4  1  0
  4  5  2  0
  5  6  1  0
  5  7  1  0
  7  8  1  0
  8  9  2  0
  8 10  1  0
 10 11  2  0
 11 12  1  0
 12 13  2  0
 13 14  1  0
 14 15  2  0
 14 16  1  0
 16 17  1  0
 17 18  1  0
 17 19  1  0
 19 20  2  0
 19 21  1  0
  7 22  2  0
 22  2  1  0
 15 10  1  0
 21 13  1  0
  1 23  1  0
  1 24  1  0
  1 25  1  0
  3 26  1  0
  4 27  1  0
  6 28  1  0
 11 29  1  0
 15 30  1  0
 16 31  1  0
 16 32  1  0
 18 33  1  0
 18 34  1  0
 18 35  1  0
 21 36  1  0
 22 37  1  0
M  END
$$$$
