
     RDKit          3D

 56 59  0  0  0  0  0  0  0  0999 V2000
    6.2267   -3.3081    0.6498 C   0  0  0  0  0  0  0  0  0  0  0  0
    5.6520   -2.1179   -0.0962 C   0  0  0  0  0  0  0  0  0  0  0  0
    4.2586   -2.3706   -0.3059 O   0  0  0  0  0  0  0  0  0  0  0  0
    3.5743   -1.2088   -0.5760 C   0  0  0  0  0  0  0  0  0  0  0  0
    2.6571   -0.7960    0.3942 C   0  0  0  0  0  0  0  0  0  0  0  0
    1.9030    0.3608    0.1942 C   0  0  0  0  0  0  0  0  0  0  0  0
    0.9654    0.8099    1.2233 C   0  0  0  0  0  0  0  0  0  0  0  0
   -0.3649    0.6402    1.2093 C   0  0  0  0  0  0  0  0  0  0  0  0
   -1.3645    1.2286    2.4747 S   0  0  0  0  0  0  0  0  0  0  0  0
   -2.8417    0.7196    1.6750 C   0  0  0  0  0  0  0  0  0  0  0  0
   -4.0390    0.9901    2.0896 N   0  0  0  0  0  0  0  0  0  0  0  0
   -4.2530    1.7197    3.2648 C   0  0  0  0  0  0  0  0  0  0  0  0
   -4.4020    1.0610    4.4883 C   0  0  0  0  0  0  0  0  0  0  0  0
   -4.6407    1.7863    5.6573 C   0  0  0  0  0  0  0  0  0  0  0  0
   -4.7452    3.1760    5.6054 C   0  0  0  0  0  0  0  0  0  0  0  0
   -4.6206    3.8381    4.3851 C   0  0  0  0  0  0  0  0  0  0  0  0
   -4.3829    3.1105    3.2175 C   0  0  0  0  0  0  0  0  0  0  0  0
   -2.5511    0.0278    0.5068 N   0  0  0  0  0  0  0  0  0  0  0  0
   -3.5620   -0.5747   -0.3273 C   0  0  0  0  0  0  0  0  0  0  0  0
   -4.7838   -1.0263    0.1997 C   0  0  0  0  0  0  0  0  0  0  0  0
   -5.7628   -1.6133   -0.6117 C   0  0  0  0  0  0  0  0  0  0  0  0
   -5.5402   -1.7679   -1.9741 C   0  0  0  0  0  0  0  0  0  0  0  0
   -4.3381   -1.3388   -2.5226 C   0  0  0  0  0  0  0  0  0  0  0  0
   -3.3624   -0.7496   -1.7081 C   0  0  0  0  0  0  0  0  0  0  0  0
   -1.1963   -0.0533    0.1793 C   0  0  0  0  0  0  0  0  0  0  0  0
   -0.6909   -0.6279   -0.7769 O   0  0  0  0  0  0  0  0  0  0  0  0
    2.0719    1.0930   -0.9831 C   0  0  0  0  0  0  0  0  0  0  0  0
    2.9686    0.6608   -1.9684 C   0  0  0  0  0  0  0  0  0  0  0  0
    3.7155   -0.5065   -1.7835 C   0  0  0  0  0  0  0  0  0  0  0  0
    4.5934   -1.0287   -2.6942 O   0  0  0  0  0  0  0  0  0  0  0  0
    4.5358   -0.5581   -4.0302 C   0  0  0  0  0  0  0  0  0  0  0  0
    5.3441    0.6983   -4.2876 C   0  0  0  0  0  0  0  0  0  0  0  0
    4.9523    1.6918   -4.8785 O   0  0  0  0  0  0  0  0  0  0  0  0
    6.6075    0.6344   -3.8274 O   0  0  0  0  0  0  0  0  0  0  0  0
    6.1134   -4.2237    0.0615 H   0  0  0  0  0  0  0  0  0  0  0  0
    5.6892   -3.4673    1.5897 H   0  0  0  0  0  0  0  0  0  0  0  0
    7.2882   -3.1574    0.8678 H   0  0  0  0  0  0  0  0  0  0  0  0
    6.1694   -2.0132   -1.0550 H   0  0  0  0  0  0  0  0  0  0  0  0
    5.8040   -1.2103    0.4998 H   0  0  0  0  0  0  0  0  0  0  0  0
    2.5390   -1.3884    1.2973 H   0  0  0  0  0  0  0  0  0  0  0  0
    1.4427    1.3224    2.0562 H   0  0  0  0  0  0  0  0  0  0  0  0
   -4.3336   -0.0220    4.5301 H   0  0  0  0  0  0  0  0  0  0  0  0
   -4.7494    1.2676    6.6057 H   0  0  0  0  0  0  0  0  0  0  0  0
   -4.9331    3.7413    6.5148 H   0  0  0  0  0  0  0  0  0  0  0  0
   -4.7140    4.9198    4.3402 H   0  0  0  0  0  0  0  0  0  0  0  0
   -4.3003    3.6274    2.2658 H   0  0  0  0  0  0  0  0  0  0  0  0
   -5.0011   -0.9684    1.2630 H   0  0  0  0  0  0  0  0  0  0  0  0
   -6.6956   -1.9551   -0.1695 H   0  0  0  0  0  0  0  0  0  0  0  0
   -6.2985   -2.2242   -2.6048 H   0  0  0  0  0  0  0  0  0  0  0  0
   -4.1560   -1.4499   -3.5888 H   0  0  0  0  0  0  0  0  0  0  0  0
   -2.4574   -0.4019   -2.2005 H   0  0  0  0  0  0  0  0  0  0  0  0
    1.4985    2.0005   -1.1538 H   0  0  0  0  0  0  0  0  0  0  0  0
    3.0485    1.2631   -2.8662 H   0  0  0  0  0  0  0  0  0  0  0  0
    4.9608   -1.3391   -4.6703 H   0  0  0  0  0  0  0  0  0  0  0  0
    3.5044   -0.4221   -4.3702 H   0  0  0  0  0  0  0  0  0  0  0  0
    6.9969    1.5002   -4.0604 H   0  0  0  0  0  0  0  0  0  0  0  0
  1  2  1  0
  2  3  1  0
  3  4  1  0
  4  5  2  0
  5  6  1  0
  6  7  1  0
  7  8  2  3
  8  9  1  0
  9 10  1  0
 10 11  2  3
 11 12  1  0
 12 13  2  0
 13 14  1  0
 14 15  2  0
 15 16  1  0
 16 17  2  0
 10 18  1  0
 18 19  1  0
 19 20  2  0
 20 21  1  0
 21 22  2  0
 22 23  1  0
 23 24  2  0
 18 25  1  0
 25 26  2  0
  6 27  2  0
 27 28  1  0
 28 29  2  0
 29 30  1  0
 30 31  1  0
 31 32  1  0
 32 33  2  0
 32 34  1  0
 29  4  1  0
 25  8  1  0
 17 12  1  0
 24 19  1  0
  1 35  1  0
  1 36  1  0
  1 37  1  0
  2 38  1  0
  2 39  1  0
  5 40  1  0
  7 41  1  0
 13 42  1  0
 14 43  1  0
 15 44  1  0
 16 45  1  0
 17 46  1  0
 20 47  1  0
 21 48  1  0
 22 49  1  0
 23 50  1  0
 24 51  1  0
 27 52  1  0
 28 53  1  0
 31 54  1  0
 31 55  1  0
 34 56  1  0
M  END
$$$$
