
     RDKit          3D

 60 63  0  0  0  0  0  0  0  0999 V2000
   -2.6098    2.9210    1.0130 C   0  0  0  0  0  0  0  0  0  0  0  0
   -3.5482    1.9316    1.6773 C   0  0  0  0  0  0  0  0  0  0  0  0
   -3.9388    0.9096    0.7460 O   0  0  0  0  0  0  0  0  0  0  0  0
   -3.1032   -0.1662    0.6438 C   0  0  0  0  0  0  0  0  0  0  0  0
   -2.0458   -0.2835    1.2489 O   0  0  0  0  0  0  0  0  0  0  0  0
   -3.7067   -1.2047   -0.2926 C   0  0  0  0  0  0  0  0  0  0  0  0
   -4.8826   -1.9117    0.4033 C   0  0  0  0  0  0  0  0  0  0  0  0
   -4.4147   -2.9149    1.4566 C   0  0  0  0  0  0  0  0  0  0  0  0
   -3.4312   -3.9107    0.8533 C   0  0  0  0  0  0  0  0  0  0  0  0
   -2.2617   -3.2007    0.1781 C   0  0  0  0  0  0  0  0  0  0  0  0
   -2.7785   -2.2447   -0.8258 N   0  0  0  0  0  0  0  0  0  0  0  0
   -1.7666   -1.8221   -2.1162 S   0  0  0  0  0  6  0  0  0  0  0  0
   -2.5160   -0.9438   -2.9900 O   0  0  0  0  0  0  0  0  0  0  0  0
   -1.1652   -3.0349   -2.6295 O   0  0  0  0  0  0  0  0  0  0  0  0
   -0.4506   -0.8648   -1.3995 C   0  0  0  0  0  0  0  0  0  0  0  0
    0.6108   -1.5249   -0.7594 C   0  0  0  0  0  0  0  0  0  0  0  0
    1.6871   -0.7992   -0.2304 C   0  0  0  0  0  0  0  0  0  0  0  0
    1.7015    0.5782   -0.3696 C   0  0  0  0  0  0  0  0  0  0  0  0
    0.6467    1.2205   -1.0335 C   0  0  0  0  0  0  0  0  0  0  0  0
   -0.4283    0.5211   -1.5668 C   0  0  0  0  0  0  0  0  0  0  0  0
    0.8910    2.6948   -1.1368 C   0  0  0  0  0  0  0  0  0  0  0  0
    2.0293    2.8839   -0.1205 C   0  0  0  0  0  0  0  0  0  0  0  0
    1.4998    3.4541    1.2000 C   0  0  0  0  0  0  0  0  0  0  0  0
    2.6292    1.5422    0.0745 N   0  0  0  0  0  0  0  0  0  0  0  0
    3.8988    1.4257    0.6372 C   0  0  0  0  0  0  0  0  0  0  0  0
    4.4777    2.4462    1.0453 O   0  0  0  0  0  0  0  0  0  0  0  0
    4.5922    0.0429    0.7090 C   0  0  0  0  0  0  0  0  0  0  0  0
    6.1137    0.0212    1.0590 C   0  0  0  0  0  0  0  0  0  0  0  0
    6.4047   -0.0250   -0.4498 C   0  0  0  0  0  0  0  0  0  0  0  0
    5.0050   -0.6352   -0.6324 C   0  0  0  0  0  0  0  0  0  0  0  0
   -1.6830    2.4291    0.7053 H   0  0  0  0  0  0  0  0  0  0  0  0
   -3.0654    3.3415    0.1093 H   0  0  0  0  0  0  0  0  0  0  0  0
   -2.3562    3.7362    1.6965 H   0  0  0  0  0  0  0  0  0  0  0  0
   -3.1001    1.4955    2.5784 H   0  0  0  0  0  0  0  0  0  0  0  0
   -4.4644    2.4445    1.9889 H   0  0  0  0  0  0  0  0  0  0  0  0
   -4.1243   -0.6547   -1.1443 H   0  0  0  0  0  0  0  0  0  0  0  0
   -5.4738   -2.4459   -0.3521 H   0  0  0  0  0  0  0  0  0  0  0  0
   -5.5552   -1.1846    0.8722 H   0  0  0  0  0  0  0  0  0  0  0  0
   -5.2784   -3.4509    1.8649 H   0  0  0  0  0  0  0  0  0  0  0  0
   -3.9410   -2.3874    2.2923 H   0  0  0  0  0  0  0  0  0  0  0  0
   -3.9541   -4.5336    0.1168 H   0  0  0  0  0  0  0  0  0  0  0  0
   -3.0564   -4.5824    1.6335 H   0  0  0  0  0  0  0  0  0  0  0  0
   -1.6373   -3.9617   -0.3017 H   0  0  0  0  0  0  0  0  0  0  0  0
   -1.6447   -2.6918    0.9251 H   0  0  0  0  0  0  0  0  0  0  0  0
    0.6081   -2.6097   -0.6718 H   0  0  0  0  0  0  0  0  0  0  0  0
    2.4587   -1.3516    0.2839 H   0  0  0  0  0  0  0  0  0  0  0  0
   -1.2161    1.0411   -2.1036 H   0  0  0  0  0  0  0  0  0  0  0  0
    1.2358    2.9307   -2.1503 H   0  0  0  0  0  0  0  0  0  0  0  0
    0.0037    3.2911   -0.9076 H   0  0  0  0  0  0  0  0  0  0  0  0
    2.7869    3.5689   -0.5217 H   0  0  0  0  0  0  0  0  0  0  0  0
    0.7494    2.7939    1.6483 H   0  0  0  0  0  0  0  0  0  0  0  0
    2.3027    3.5793    1.9331 H   0  0  0  0  0  0  0  0  0  0  0  0
    1.0388    4.4338    1.0386 H   0  0  0  0  0  0  0  0  0  0  0  0
    4.0561   -0.6132    1.4059 H   0  0  0  0  0  0  0  0  0  0  0  0
    6.5153    0.8897    1.5883 H   0  0  0  0  0  0  0  0  0  0  0  0
    6.4254   -0.8835    1.5958 H   0  0  0  0  0  0  0  0  0  0  0  0
    7.2427   -0.6545   -0.7563 H   0  0  0  0  0  0  0  0  0  0  0  0
    6.5164    0.9638   -0.9079 H   0  0  0  0  0  0  0  0  0  0  0  0
    4.9912   -1.7312   -0.5916 H   0  0  0  0  0  0  0  0  0  0  0  0
    4.4795   -0.3088   -1.5337 H   0  0  0  0  0  0  0  0  0  0  0  0
  1  2  1  0
  2  3  1  0
  3  4  1  0
  4  5  2  0
  4  6  1  0
  6  7  1  0
  7  8  1  0
  8  9  1  0
  9 10  1  0
 10 11  1  0
 11 12  1  0
 12 13  2  0
 12 14  2  0
 12 15  1  0
 15 16  2  0
 16 17  1  0
 17 18  2  0
 18 19  1  0
 19 20  2  0
 19 21  1  0
 21 22  1  0
 22 23  1  0
 22 24  1  0
 24 25  1  0
 25 26  2  0
 25 27  1  0
 27 28  1  0
 28 29  1  0
 29 30  1  0
 11  6  1  0
 20 15  1  0
 30 27  1  0
 24 18  1  0
  1 31  1  0
  1 32  1  0
  1 33  1  0
  2 34  1  0
  2 35  1  0
  6 36  1  0
  7 37  1  0
  7 38  1  0
  8 39  1  0
  8 40  1  0
  9 41  1  0
  9 42  1  0
 10 43  1  0
 10 44  1  0
 16 45  1  0
 17 46  1  0
 20 47  1  0
 21 48  1  0
 21 49  1  0
 22 50  1  0
 23 51  1  0
 23 52  1  0
 23 53  1  0
 27 54  1  0
 28 55  1  0
 28 56  1  0
 29 57  1  0
 29 58  1  0
 30 59  1  0
 30 60  1  0
M  END
$$$$
