
     RDKit          3D

 51 54  0  0  0  0  0  0  0  0999 V2000
    2.2225   -1.8040   -1.8951 C   0  0  0  0  0  0  0  0  0  0  0  0
    2.3042   -0.2757   -1.8407 C   0  0  0  0  0  0  0  0  0  0  0  0
    1.0499    0.3535   -2.4860 C   0  0  0  0  0  0  0  0  0  0  0  0
    0.2963    0.8346   -1.2884 C   0  0  0  0  0  0  0  0  0  0  0  0
   -0.9912    1.3521   -1.2648 C   0  0  0  0  0  0  0  0  0  0  0  0
   -1.4874    1.8156   -0.0425 C   0  0  0  0  0  0  0  0  0  0  0  0
   -3.1276    2.5112    0.0320 S   0  0  0  0  0  6  0  0  0  0  0  0
   -3.4885    2.9083   -1.3133 O   0  0  0  0  0  0  0  0  0  0  0  0
   -3.1461    3.4657    1.1202 O   0  0  0  0  0  0  0  0  0  0  0  0
   -4.0955    1.1774    0.4699 N   0  0  0  0  0  0  0  0  0  0  0  0
   -3.9179    0.6540    1.8464 C   0  0  0  0  0  0  0  0  0  0  0  0
   -5.1296   -0.1946    2.2249 C   0  0  0  0  0  0  0  0  0  0  0  0
   -5.3581   -1.3164    1.2156 C   0  0  0  0  0  0  0  0  0  0  0  0
   -5.4520   -0.7566   -0.2011 C   0  0  0  0  0  0  0  0  0  0  0  0
   -4.2360    0.1021   -0.5410 C   0  0  0  0  0  0  0  0  0  0  0  0
   -0.6877    1.8040    1.1123 C   0  0  0  0  0  0  0  0  0  0  0  0
    0.6097    1.2809    1.0650 C   0  0  0  0  0  0  0  0  0  0  0  0
    1.0903    0.7885   -0.1393 C   0  0  0  0  0  0  0  0  0  0  0  0
    2.3489    0.2165   -0.4378 N   0  0  0  0  0  0  0  0  0  0  0  0
    3.4136    0.1100    0.4591 C   0  0  0  0  0  0  0  0  0  0  0  0
    3.3269    0.4776    1.6391 O   0  0  0  0  0  0  0  0  0  0  0  0
    4.7538   -0.4858   -0.0845 C   0  0  0  0  0  0  0  0  0  0  0  0
    6.0722    0.0515    0.5410 C   0  0  0  0  0  0  0  0  0  0  0  0
    6.0815   -1.1753    1.4680 C   0  0  0  0  0  0  0  0  0  0  0  0
    5.1692   -1.8827    0.4523 C   0  0  0  0  0  0  0  0  0  0  0  0
    2.1476   -2.1490   -2.9317 H   0  0  0  0  0  0  0  0  0  0  0  0
    3.1065   -2.2717   -1.4552 H   0  0  0  0  0  0  0  0  0  0  0  0
    1.3497   -2.1769   -1.3476 H   0  0  0  0  0  0  0  0  0  0  0  0
    3.1969    0.0595   -2.3787 H   0  0  0  0  0  0  0  0  0  0  0  0
    1.3293    1.2121   -3.1067 H   0  0  0  0  0  0  0  0  0  0  0  0
    0.4714   -0.3557   -3.0854 H   0  0  0  0  0  0  0  0  0  0  0  0
   -1.5858    1.4089   -2.1722 H   0  0  0  0  0  0  0  0  0  0  0  0
   -3.0053    0.0508    1.9054 H   0  0  0  0  0  0  0  0  0  0  0  0
   -3.8358    1.4758    2.5645 H   0  0  0  0  0  0  0  0  0  0  0  0
   -4.9877   -0.6190    3.2249 H   0  0  0  0  0  0  0  0  0  0  0  0
   -6.0232    0.4409    2.2667 H   0  0  0  0  0  0  0  0  0  0  0  0
   -4.5318   -2.0356    1.2724 H   0  0  0  0  0  0  0  0  0  0  0  0
   -6.2765   -1.8597    1.4635 H   0  0  0  0  0  0  0  0  0  0  0  0
   -6.3635   -0.1523   -0.2906 H   0  0  0  0  0  0  0  0  0  0  0  0
   -5.5379   -1.5792   -0.9197 H   0  0  0  0  0  0  0  0  0  0  0  0
   -3.3323   -0.5173   -0.5598 H   0  0  0  0  0  0  0  0  0  0  0  0
   -4.3832    0.5269   -1.5388 H   0  0  0  0  0  0  0  0  0  0  0  0
   -1.0646    2.2067    2.0506 H   0  0  0  0  0  0  0  0  0  0  0  0
    1.2091    1.2767    1.9693 H   0  0  0  0  0  0  0  0  0  0  0  0
    4.8267   -0.4347   -1.1754 H   0  0  0  0  0  0  0  0  0  0  0  0
    6.9114    0.0771   -0.1643 H   0  0  0  0  0  0  0  0  0  0  0  0
    6.0123    1.0195    1.0460 H   0  0  0  0  0  0  0  0  0  0  0  0
    7.0579   -1.6387    1.6310 H   0  0  0  0  0  0  0  0  0  0  0  0
    5.6064   -0.9988    2.4395 H   0  0  0  0  0  0  0  0  0  0  0  0
    5.7105   -2.4897   -0.2826 H   0  0  0  0  0  0  0  0  0  0  0  0
    4.3708   -2.4889    0.8892 H   0  0  0  0  0  0  0  0  0  0  0  0
  1  2  1  0
  2  3  1  0
  3  4  1  0
  4  5  2  0
  5  6  1  0
  6  7  1  0
  7  8  2  0
  7  9  2  0
  7 10  1  0
 10 11  1  0
 11 12  1  0
 12 13  1  0
 13 14  1  0
 14 15  1  0
  6 16  2  0
 16 17  1  0
 17 18  2  0
 18 19  1  0
 19 20  1  0
 20 21  2  0
 20 22  1  0
 22 23  1  0
 23 24  1  0
 24 25  1  0
 19  2  1  0
 25 22  1  0
 18  4  1  0
 15 10  1  0
  1 26  1  0
  1 27  1  0
  1 28  1  0
  2 29  1  0
  3 30  1  0
  3 31  1  0
  5 32  1  0
 11 33  1  0
 11 34  1  0
 12 35  1  0
 12 36  1  0
 13 37  1  0
 13 38  1  0
 14 39  1  0
 14 40  1  0
 15 41  1  0
 15 42  1  0
 16 43  1  0
 17 44  1  0
 22 45  1  0
 23 46  1  0
 23 47  1  0
 24 48  1  0
 24 49  1  0
 25 50  1  0
 25 51  1  0
M  END
$$$$
