
     RDKit          3D

 40 42  0  0  0  0  0  0  0  0999 V2000
    4.2752    2.8014    1.2729 C   0  0  0  0  0  0  0  0  0  0  0  0
    3.6231    2.8009   -0.0968 C   0  0  0  0  0  0  0  0  0  0  0  0
    2.6572    1.7452   -0.1823 O   0  0  0  0  0  0  0  0  0  0  0  0
    3.1328    0.5288   -0.5726 C   0  0  0  0  0  0  0  0  0  0  0  0
    4.3010    0.2844   -0.8409 O   0  0  0  0  0  0  0  0  0  0  0  0
    2.0120   -0.4754   -0.6178 C   0  0  0  0  0  0  0  0  0  0  0  0
    0.7707   -0.0533   -0.3227 N   0  0  0  0  0  0  0  0  0  0  0  0
   -0.2134   -0.9648   -0.3607 C   0  0  0  0  0  0  0  0  0  0  0  0
   -1.5511   -0.5626   -0.0906 N   0  0  0  0  0  0  0  0  0  0  0  0
   -2.0210    0.6494    0.4766 C   0  0  0  0  0  0  0  0  0  0  0  0
   -1.2379    1.3877    1.3786 C   0  0  0  0  0  0  0  0  0  0  0  0
   -1.7211    2.5483    1.9878 C   0  0  0  0  0  0  0  0  0  0  0  0
   -3.0138    2.9819    1.7270 C   0  0  0  0  0  0  0  0  0  0  0  0
   -3.8272    2.2459    0.8692 C   0  0  0  0  0  0  0  0  0  0  0  0
   -3.3527    1.0732    0.2523 C   0  0  0  0  0  0  0  0  0  0  0  0
   -4.2906    0.3127   -0.6471 C   0  0  0  0  0  0  0  0  0  0  0  0
    0.0345   -2.3163   -0.6781 C   0  0  0  0  0  0  0  0  0  0  0  0
   -0.9446   -3.3440   -0.7028 C   0  0  0  0  0  0  0  0  0  0  0  0
   -0.6024   -4.6525   -1.0373 C   0  0  0  0  0  0  0  0  0  0  0  0
    0.7164   -4.9530   -1.3463 C   0  0  0  0  0  0  0  0  0  0  0  0
    1.6832   -3.9452   -1.3105 C   0  0  0  0  0  0  0  0  0  0  0  0
    1.3667   -2.6341   -0.9775 C   0  0  0  0  0  0  0  0  0  0  0  0
    2.3479   -1.7333   -0.9549 N   0  0  0  0  0  0  0  0  0  0  0  0
    4.9726    3.6382    1.3702 H   0  0  0  0  0  0  0  0  0  0  0  0
    3.5173    2.8792    2.0594 H   0  0  0  0  0  0  0  0  0  0  0  0
    4.8212    1.8690    1.4483 H   0  0  0  0  0  0  0  0  0  0  0  0
    3.0836    3.7417   -0.2476 H   0  0  0  0  0  0  0  0  0  0  0  0
    4.3690    2.7265   -0.8964 H   0  0  0  0  0  0  0  0  0  0  0  0
   -2.1326   -0.8566   -0.8665 H   0  0  0  0  0  0  0  0  0  0  0  0
   -0.2306    1.0655    1.6278 H   0  0  0  0  0  0  0  0  0  0  0  0
   -1.0838    3.1051    2.6693 H   0  0  0  0  0  0  0  0  0  0  0  0
   -3.3927    3.8840    2.1994 H   0  0  0  0  0  0  0  0  0  0  0  0
   -4.8431    2.5906    0.6882 H   0  0  0  0  0  0  0  0  0  0  0  0
   -5.2944    0.7511   -0.6487 H   0  0  0  0  0  0  0  0  0  0  0  0
   -3.9214    0.3274   -1.6774 H   0  0  0  0  0  0  0  0  0  0  0  0
   -4.3898   -0.7230   -0.3064 H   0  0  0  0  0  0  0  0  0  0  0  0
   -1.9788   -3.1298   -0.4418 H   0  0  0  0  0  0  0  0  0  0  0  0
   -1.3598   -5.4323   -1.0496 H   0  0  0  0  0  0  0  0  0  0  0  0
    1.0017   -5.9691   -1.6076 H   0  0  0  0  0  0  0  0  0  0  0  0
    2.7168   -4.1930   -1.5461 H   0  0  0  0  0  0  0  0  0  0  0  0
  1  2  1  0
  2  3  1  0
  3  4  1  0
  4  5  2  0
  4  6  1  0
  6  7  2  0
  7  8  1  0
  8  9  1  0
  9 10  1  0
 10 11  2  0
 11 12  1  0
 12 13  2  0
 13 14  1  0
 14 15  2  0
 15 16  1  0
  8 17  2  0
 17 18  1  0
 18 19  2  0
 19 20  1  0
 20 21  2  0
 21 22  1  0
 22 23  2  0
 23  6  1  0
 15 10  1  0
 22 17  1  0
  1 24  1  0
  1 25  1  0
  1 26  1  0
  2 27  1  0
  2 28  1  0
  9 29  1  0
 11 30  1  0
 12 31  1  0
 13 32  1  0
 14 33  1  0
 16 34  1  0
 16 35  1  0
 16 36  1  0
 18 37  1  0
 19 38  1  0
 20 39  1  0
 21 40  1  0
M  END
$$$$
