
     RDKit          3D

 52 55  0  0  0  0  0  0  0  0999 V2000
    6.1031   -0.4220   -2.4848 C   0  0  0  0  0  0  0  0  0  0  0  0
    5.7046    0.8915   -1.8341 C   0  0  0  0  0  0  0  0  0  0  0  0
    5.3275    0.8333   -0.3354 C   0  0  0  0  0  0  0  0  0  0  0  0
    6.5243    0.5478    0.5782 C   0  0  0  0  0  0  0  0  0  0  0  0
    4.0566    0.0838   -0.0698 N   0  0  0  0  0  0  0  0  0  0  0  0
    2.9045    0.8699   -0.2751 C   0  0  0  0  0  0  0  0  0  0  0  0
    2.9524    2.0311   -0.6885 O   0  0  0  0  0  0  0  0  0  0  0  0
    1.5827    0.2480    0.0165 C   0  0  0  0  0  0  0  0  0  0  0  0
    0.5018    1.0512   -0.0712 C   0  0  0  0  0  0  0  0  0  0  0  0
   -0.9002    0.6953    0.1616 C   0  0  0  0  0  0  0  0  0  0  0  0
   -1.4061    0.5918    1.4573 C   0  0  0  0  0  0  0  0  0  0  0  0
   -2.7625    0.2942    1.6734 C   0  0  0  0  0  0  0  0  0  0  0  0
   -3.6317    0.0716    0.5862 C   0  0  0  0  0  0  0  0  0  0  0  0
   -3.1048    0.1662   -0.7176 C   0  0  0  0  0  0  0  0  0  0  0  0
   -1.7536    0.4925   -0.9228 C   0  0  0  0  0  0  0  0  0  0  0  0
   -3.9942   -0.0558   -1.9138 C   0  0  0  0  0  0  0  0  0  0  0  0
   -5.1852   -0.9306   -1.5505 C   0  0  0  0  0  0  0  0  0  0  0  0
   -5.8884   -0.3554   -0.3313 C   0  0  0  0  0  0  0  0  0  0  0  0
   -4.9720   -0.2273    0.7943 N   0  0  0  0  0  0  0  0  0  0  0  0
   -5.4618   -0.5022    2.1384 C   0  0  0  0  0  0  0  0  0  0  0  0
   -4.7718    0.3900    3.1581 C   0  0  0  0  0  0  0  0  0  0  0  0
   -3.2667    0.1762    3.0891 C   0  0  0  0  0  0  0  0  0  0  0  0
    1.5124   -1.1783    0.3623 C   0  0  0  0  0  0  0  0  0  0  0  0
    0.4930   -1.8084    0.6075 O   0  0  0  0  0  0  0  0  0  0  0  0
    2.7241   -1.8012    0.3962 N   0  0  0  0  0  0  0  0  0  0  0  0
    3.9773   -1.2775    0.2176 C   0  0  0  0  0  0  0  0  0  0  0  0
    5.2036   -2.4063    0.3956 S   0  0  0  0  0  0  0  0  0  0  0  0
    5.2670   -1.1260   -2.5044 H   0  0  0  0  0  0  0  0  0  0  0  0
    6.9538   -0.8850   -1.9782 H   0  0  0  0  0  0  0  0  0  0  0  0
    6.3991   -0.2441   -3.5243 H   0  0  0  0  0  0  0  0  0  0  0  0
    4.8664    1.3091   -2.4051 H   0  0  0  0  0  0  0  0  0  0  0  0
    6.5361    1.5976   -1.9557 H   0  0  0  0  0  0  0  0  0  0  0  0
    5.1007    1.8775   -0.0756 H   0  0  0  0  0  0  0  0  0  0  0  0
    6.2088    0.4415    1.6214 H   0  0  0  0  0  0  0  0  0  0  0  0
    7.2299    1.3864    0.5348 H   0  0  0  0  0  0  0  0  0  0  0  0
    7.0946   -0.3349    0.2842 H   0  0  0  0  0  0  0  0  0  0  0  0
    0.6185    2.0988   -0.3496 H   0  0  0  0  0  0  0  0  0  0  0  0
   -0.7498    0.7443    2.3105 H   0  0  0  0  0  0  0  0  0  0  0  0
   -1.3714    0.5763   -1.9374 H   0  0  0  0  0  0  0  0  0  0  0  0
   -3.4320   -0.5404   -2.7206 H   0  0  0  0  0  0  0  0  0  0  0  0
   -4.3374    0.9186   -2.2818 H   0  0  0  0  0  0  0  0  0  0  0  0
   -5.8792   -0.9905   -2.3961 H   0  0  0  0  0  0  0  0  0  0  0  0
   -4.8459   -1.9521   -1.3341 H   0  0  0  0  0  0  0  0  0  0  0  0
   -6.3102    0.6299   -0.5643 H   0  0  0  0  0  0  0  0  0  0  0  0
   -6.7282   -1.0094   -0.0676 H   0  0  0  0  0  0  0  0  0  0  0  0
   -5.2945   -1.5597    2.3772 H   0  0  0  0  0  0  0  0  0  0  0  0
   -6.5429   -0.3267    2.1918 H   0  0  0  0  0  0  0  0  0  0  0  0
   -5.1367    0.1683    4.1670 H   0  0  0  0  0  0  0  0  0  0  0  0
   -5.0086    1.4415    2.9492 H   0  0  0  0  0  0  0  0  0  0  0  0
   -2.7740    0.9164    3.7304 H   0  0  0  0  0  0  0  0  0  0  0  0
   -3.0101   -0.8203    3.4688 H   0  0  0  0  0  0  0  0  0  0  0  0
    2.6773   -2.7863    0.6266 H   0  0  0  0  0  0  0  0  0  0  0  0
  1  2  1  0
  2  3  1  0
  3  4  1  0
  3  5  1  0
  5  6  1  0
  6  7  2  0
  6  8  1  0
  8  9  2  3
  9 10  1  0
 10 11  2  0
 11 12  1  0
 12 13  2  0
 13 14  1  0
 14 15  2  0
 14 16  1  0
 16 17  1  0
 17 18  1  0
 18 19  1  0
 19 20  1  0
 20 21  1  0
 21 22  1  0
  8 23  1  0
 23 24  2  0
 23 25  1  0
 25 26  1  0
 26 27  2  0
 26  5  1  0
 15 10  1  0
 22 12  1  0
 19 13  1  0
  1 28  1  0
  1 29  1  0
  1 30  1  0
  2 31  1  0
  2 32  1  0
  3 33  1  0
  4 34  1  0
  4 35  1  0
  4 36  1  0
  9 37  1  0
 11 38  1  0
 15 39  1  0
 16 40  1  0
 16 41  1  0
 17 42  1  0
 17 43  1  0
 18 44  1  0
 18 45  1  0
 20 46  1  0
 20 47  1  0
 21 48  1  0
 21 49  1  0
 22 50  1  0
 22 51  1  0
 25 52  1  0
M  END
$$$$
