
     RDKit          3D

 51 54  0  0  0  0  0  0  0  0999 V2000
    1.9957   -1.6104   -2.0992 C   0  0  0  0  0  0  0  0  0  0  0  0
    2.3279   -0.2094   -1.5684 C   0  0  0  0  0  0  0  0  0  0  0  0
    1.2588    0.8009   -2.0367 C   0  0  0  0  0  0  0  0  0  0  0  0
    0.4190    0.9403   -0.8054 C   0  0  0  0  0  0  0  0  0  0  0  0
   -0.8039    1.5849   -0.6917 C   0  0  0  0  0  0  0  0  0  0  0  0
   -1.3786    1.6746    0.5804 C   0  0  0  0  0  0  0  0  0  0  0  0
   -2.9390    2.5146    0.7804 S   0  0  0  0  0  6  0  0  0  0  0  0
   -2.9777    3.0455    2.1265 O   0  0  0  0  0  0  0  0  0  0  0  0
   -3.1119    3.3810   -0.3673 O   0  0  0  0  0  0  0  0  0  0  0  0
   -4.0776    1.2502    0.6679 N   0  0  0  0  0  0  0  0  0  0  0  0
   -4.1018    0.2794    1.7891 C   0  0  0  0  0  0  0  0  0  0  0  0
   -5.4262   -0.4804    1.7715 C   0  0  0  0  0  0  0  0  0  0  0  0
   -5.6570   -1.1614    0.4253 C   0  0  0  0  0  0  0  0  0  0  0  0
   -5.5421   -0.1542   -0.7156 C   0  0  0  0  0  0  0  0  0  0  0  0
   -4.2166    0.6016   -0.6580 C   0  0  0  0  0  0  0  0  0  0  0  0
   -0.7118    1.1756    1.7127 C   0  0  0  0  0  0  0  0  0  0  0  0
    0.5243    0.5338    1.5766 C   0  0  0  0  0  0  0  0  0  0  0  0
    1.0743    0.4095    0.3105 C   0  0  0  0  0  0  0  0  0  0  0  0
    2.2951   -0.1812   -0.0835 N   0  0  0  0  0  0  0  0  0  0  0  0
    3.2744   -0.6645    0.7822 C   0  0  0  0  0  0  0  0  0  0  0  0
    3.1036   -0.7497    2.0048 O   0  0  0  0  0  0  0  0  0  0  0  0
    4.6315   -1.0653    0.1322 C   0  0  0  0  0  0  0  0  0  0  0  0
    5.7399   -1.6325    1.0699 C   0  0  0  0  0  0  0  0  0  0  0  0
    6.7680   -0.8835    0.2034 C   0  0  0  0  0  0  0  0  0  0  0  0
    5.6337    0.0845   -0.1779 C   0  0  0  0  0  0  0  0  0  0  0  0
    2.0267   -1.6224   -3.1938 H   0  0  0  0  0  0  0  0  0  0  0  0
    0.9955   -1.9302   -1.7852 H   0  0  0  0  0  0  0  0  0  0  0  0
    2.6994   -2.3635   -1.7360 H   0  0  0  0  0  0  0  0  0  0  0  0
    3.3184    0.0854   -1.9286 H   0  0  0  0  0  0  0  0  0  0  0  0
    1.7207    1.7673   -2.2676 H   0  0  0  0  0  0  0  0  0  0  0  0
    0.6853    0.4539   -2.9012 H   0  0  0  0  0  0  0  0  0  0  0  0
   -1.2877    2.0210   -1.5610 H   0  0  0  0  0  0  0  0  0  0  0  0
   -4.0148    0.7965    2.7497 H   0  0  0  0  0  0  0  0  0  0  0  0
   -3.2660   -0.4230    1.6975 H   0  0  0  0  0  0  0  0  0  0  0  0
   -6.2507    0.2159    1.9699 H   0  0  0  0  0  0  0  0  0  0  0  0
   -5.4355   -1.2287    2.5717 H   0  0  0  0  0  0  0  0  0  0  0  0
   -4.9181   -1.9600    0.2860 H   0  0  0  0  0  0  0  0  0  0  0  0
   -6.6467   -1.6311    0.4098 H   0  0  0  0  0  0  0  0  0  0  0  0
   -6.3734    0.5593   -0.6521 H   0  0  0  0  0  0  0  0  0  0  0  0
   -5.6330   -0.6714   -1.6772 H   0  0  0  0  0  0  0  0  0  0  0  0
   -4.2128    1.3501   -1.4564 H   0  0  0  0  0  0  0  0  0  0  0  0
   -3.3830   -0.0888   -0.8286 H   0  0  0  0  0  0  0  0  0  0  0  0
   -1.1448    1.2901    2.7048 H   0  0  0  0  0  0  0  0  0  0  0  0
    1.0240    0.1512    2.4605 H   0  0  0  0  0  0  0  0  0  0  0  0
    4.5018   -1.7347   -0.7270 H   0  0  0  0  0  0  0  0  0  0  0  0
    5.6973   -1.2723    2.1043 H   0  0  0  0  0  0  0  0  0  0  0  0
    5.8392   -2.7213    1.0792 H   0  0  0  0  0  0  0  0  0  0  0  0
    7.6116   -0.4416    0.7392 H   0  0  0  0  0  0  0  0  0  0  0  0
    7.1473   -1.4725   -0.6394 H   0  0  0  0  0  0  0  0  0  0  0  0
    5.5455    0.9498    0.4897 H   0  0  0  0  0  0  0  0  0  0  0  0
    5.6515    0.4366   -1.2125 H   0  0  0  0  0  0  0  0  0  0  0  0
  1  2  1  0
  2  3  1  0
  3  4  1  0
  4  5  2  0
  5  6  1  0
  6  7  1  0
  7  8  2  0
  7  9  2  0
  7 10  1  0
 10 11  1  0
 11 12  1  0
 12 13  1  0
 13 14  1  0
 14 15  1  0
  6 16  2  0
 16 17  1  0
 17 18  2  0
 18 19  1  0
 19 20  1  0
 20 21  2  0
 20 22  1  0
 22 23  1  0
 23 24  1  0
 24 25  1  0
 19  2  1  0
 25 22  1  0
 18  4  1  0
 15 10  1  0
  1 26  1  0
  1 27  1  0
  1 28  1  0
  2 29  1  0
  3 30  1  0
  3 31  1  0
  5 32  1  0
 11 33  1  0
 11 34  1  0
 12 35  1  0
 12 36  1  0
 13 37  1  0
 13 38  1  0
 14 39  1  0
 14 40  1  0
 15 41  1  0
 15 42  1  0
 16 43  1  0
 17 44  1  0
 22 45  1  0
 23 46  1  0
 23 47  1  0
 24 48  1  0
 24 49  1  0
 25 50  1  0
 25 51  1  0
M  END
$$$$
