
     RDKit          3D

 38 40  0  0  0  0  0  0  0  0999 V2000
   -1.1524    0.6551    4.1651 C   0  0  0  0  0  0  0  0  0  0  0  0
   -0.7468    0.4254    2.8162 O   0  0  0  0  0  0  0  0  0  0  0  0
   -0.0093    1.4313    2.2991 C   0  0  0  0  0  0  0  0  0  0  0  0
    0.3210    2.4752    2.8289 O   0  0  0  0  0  0  0  0  0  0  0  0
    0.3773    1.0745    0.8772 C   0  0  0  0  0  0  0  0  0  0  0  0
    1.4786    0.4074    0.7278 N   0  0  0  0  0  0  0  0  0  0  0  0
    1.8786    0.0657   -0.5561 N   0  0  0  0  0  0  0  0  0  0  0  0
    3.1119   -0.6841   -0.5914 C   0  0  0  0  0  0  0  0  0  0  0  0
    3.7988   -0.9717    0.6061 C   0  0  0  0  0  0  0  0  0  0  0  0
    4.9964   -1.6966    0.6158 C   0  0  0  0  0  0  0  0  0  0  0  0
    5.5400   -2.1557   -0.5767 C   0  0  0  0  0  0  0  0  0  0  0  0
    4.8849   -1.8886   -1.7730 C   0  0  0  0  0  0  0  0  0  0  0  0
    3.6857   -1.1619   -1.7791 C   0  0  0  0  0  0  0  0  0  0  0  0
    1.1451    0.4339   -1.6919 C   0  0  0  0  0  0  0  0  0  0  0  0
    1.4070    0.2061   -2.8708 O   0  0  0  0  0  0  0  0  0  0  0  0
   -0.1050    1.1894   -1.4460 C   0  0  0  0  0  0  0  0  0  0  0  0
   -0.5165    1.5002   -0.2168 C   0  0  0  0  0  0  0  0  0  0  0  0
   -1.9680    2.3724    0.1092 S   0  0  0  0  0  0  0  0  0  0  0  0
   -3.1700    1.2005   -0.4953 C   0  0  0  0  0  0  0  0  0  0  0  0
   -3.3880   -0.0165    0.1620 C   0  0  0  0  0  0  0  0  0  0  0  0
   -4.3377   -0.9193   -0.3247 C   0  0  0  0  0  0  0  0  0  0  0  0
   -5.0757   -0.6027   -1.4634 C   0  0  0  0  0  0  0  0  0  0  0  0
   -6.2450   -1.7133   -2.0605 Cl  0  0  0  0  0  0  0  0  0  0  0  0
   -4.8749    0.6107   -2.1179 C   0  0  0  0  0  0  0  0  0  0  0  0
   -3.9251    1.5135   -1.6315 C   0  0  0  0  0  0  0  0  0  0  0  0
   -0.2791    0.7580    4.8170 H   0  0  0  0  0  0  0  0  0  0  0  0
   -1.7898    1.5428    4.2275 H   0  0  0  0  0  0  0  0  0  0  0  0
   -1.7320   -0.2107    4.4968 H   0  0  0  0  0  0  0  0  0  0  0  0
    3.4137   -0.6302    1.5640 H   0  0  0  0  0  0  0  0  0  0  0  0
    5.4993   -1.8973    1.5581 H   0  0  0  0  0  0  0  0  0  0  0  0
    6.4695   -2.7183   -0.5752 H   0  0  0  0  0  0  0  0  0  0  0  0
    5.3020   -2.2438   -2.7123 H   0  0  0  0  0  0  0  0  0  0  0  0
    3.2302   -0.9952   -2.7489 H   0  0  0  0  0  0  0  0  0  0  0  0
   -0.6593    1.4610   -2.3369 H   0  0  0  0  0  0  0  0  0  0  0  0
   -2.8300   -0.2758    1.0586 H   0  0  0  0  0  0  0  0  0  0  0  0
   -4.4985   -1.8633    0.1900 H   0  0  0  0  0  0  0  0  0  0  0  0
   -5.4541    0.8615   -3.0029 H   0  0  0  0  0  0  0  0  0  0  0  0
   -3.7830    2.4604   -2.1483 H   0  0  0  0  0  0  0  0  0  0  0  0
  1  2  1  0
  2  3  1  0
  3  4  2  0
  3  5  1  0
  5  6  2  0
  6  7  1  0
  7  8  1  0
  8  9  2  0
  9 10  1  0
 10 11  2  0
 11 12  1  0
 12 13  2  0
  7 14  1  0
 14 15  2  0
 14 16  1  0
 16 17  2  0
 17 18  1  0
 18 19  1  0
 19 20  2  0
 20 21  1  0
 21 22  2  0
 22 23  1  0
 22 24  1  0
 24 25  2  0
 17  5  1  0
 25 19  1  0
 13  8  1  0
  1 26  1  0
  1 27  1  0
  1 28  1  0
  9 29  1  0
 10 30  1  0
 11 31  1  0
 12 32  1  0
 13 33  1  0
 16 34  1  0
 20 35  1  0
 21 36  1  0
 24 37  1  0
 25 38  1  0
M  END
$$$$
