
     RDKit          3D

 61 66  0  0  0  0  0  0  0  0999 V2000
   -2.0656   -0.2113   -2.0388 O   0  0  0  0  0  0  0  0  0  0  0  0
   -2.6160   -0.4475   -0.9551 C   0  0  0  0  0  0  0  0  0  0  0  0
   -1.8327   -1.2130    0.0926 C   0  0  0  0  0  0  0  0  0  0  0  0
   -0.6325   -0.5057    0.4610 N   0  0  0  0  0  0  0  0  0  0  0  0
   -0.6344    0.4110    1.4470 N   0  0  0  0  0  0  0  0  0  0  0  0
    0.6386    0.7394    1.6067 N   0  0  0  0  0  0  0  0  0  0  0  0
    1.3624   -0.0187    0.7096 C   0  0  0  0  0  0  0  0  0  0  0  0
    2.8082    0.0784    0.5790 C   0  0  0  0  0  0  0  0  0  0  0  0
    3.4689   -0.4727   -0.5251 C   0  0  0  0  0  0  0  0  0  0  0  0
    4.8597   -0.3561   -0.6621 C   0  0  0  0  0  0  0  0  0  0  0  0
    5.6318    0.2862    0.3117 C   0  0  0  0  0  0  0  0  0  0  0  0
    7.0248    0.4260    0.2377 N   0  0  0  0  0  0  0  0  0  0  0  0
    7.6477    0.4078   -1.1007 C   0  0  0  0  0  0  0  0  0  0  0  0
    9.1379    0.7614   -0.9719 C   0  0  0  0  0  0  0  0  0  0  0  0
    9.8171   -0.1622   -0.1012 O   0  0  0  0  0  0  0  0  0  0  0  0
    9.2363   -0.1087    1.2127 C   0  0  0  0  0  0  0  0  0  0  0  0
    7.7376   -0.4601    1.1889 C   0  0  0  0  0  0  0  0  0  0  0  0
    4.9593    0.8241    1.4182 C   0  0  0  0  0  0  0  0  0  0  0  0
    3.5689    0.7311    1.5514 C   0  0  0  0  0  0  0  0  0  0  0  0
    0.5834   -0.8463   -0.0098 N   0  0  0  0  0  0  0  0  0  0  0  0
   -3.9790   -0.1989   -0.6884 N   0  0  0  0  0  0  0  0  0  0  0  0
   -4.4939   -0.1785    0.6392 C   0  0  0  0  0  0  0  0  0  0  0  0
   -3.9473    0.6947    1.5890 C   0  0  0  0  0  0  0  0  0  0  0  0
   -4.4079    0.6767    2.9052 C   0  0  0  0  0  0  0  0  0  0  0  0
   -5.4118   -0.2131    3.2783 C   0  0  0  0  0  0  0  0  0  0  0  0
   -5.9747   -1.0737    2.3337 C   0  0  0  0  0  0  0  0  0  0  0  0
   -5.5225   -1.0545    1.0068 C   0  0  0  0  0  0  0  0  0  0  0  0
   -6.1497   -1.9265   -0.0420 C   0  0  0  0  0  0  0  0  0  0  0  0
   -6.9586   -1.0623   -0.9992 C   0  0  0  0  0  0  0  0  0  0  0  0
   -6.2319    0.0094   -1.7919 C   0  0  0  0  0  0  0  0  0  0  0  0
   -7.0313    0.6601   -2.7604 C   0  0  0  0  0  0  0  0  0  0  0  0
   -6.5080    1.6276   -3.6135 C   0  0  0  0  0  0  0  0  0  0  0  0
   -5.1670    1.9603   -3.5233 C   0  0  0  0  0  0  0  0  0  0  0  0
   -4.3590    1.3316   -2.5751 C   0  0  0  0  0  0  0  0  0  0  0  0
   -4.8643    0.3621   -1.6815 C   0  0  0  0  0  0  0  0  0  0  0  0
   -1.5330   -2.1670   -0.3536 H   0  0  0  0  0  0  0  0  0  0  0  0
   -2.3811   -1.4597    1.0000 H   0  0  0  0  0  0  0  0  0  0  0  0
    2.9071   -0.9930   -1.2957 H   0  0  0  0  0  0  0  0  0  0  0  0
    5.3216   -0.8036   -1.5375 H   0  0  0  0  0  0  0  0  0  0  0  0
    7.1603    1.1344   -1.7601 H   0  0  0  0  0  0  0  0  0  0  0  0
    7.5630   -0.5900   -1.5464 H   0  0  0  0  0  0  0  0  0  0  0  0
    9.6215    0.7086   -1.9485 H   0  0  0  0  0  0  0  0  0  0  0  0
    9.2708    1.7762   -0.5840 H   0  0  0  0  0  0  0  0  0  0  0  0
    9.3973    0.8934    1.6343 H   0  0  0  0  0  0  0  0  0  0  0  0
    9.7764   -0.8316    1.8399 H   0  0  0  0  0  0  0  0  0  0  0  0
    7.3409   -0.3593    2.2030 H   0  0  0  0  0  0  0  0  0  0  0  0
    7.6175   -1.5031    0.8723 H   0  0  0  0  0  0  0  0  0  0  0  0
    5.5251    1.3441    2.1905 H   0  0  0  0  0  0  0  0  0  0  0  0
    3.0927    1.1749    2.4230 H   0  0  0  0  0  0  0  0  0  0  0  0
   -3.1795    1.4141    1.3134 H   0  0  0  0  0  0  0  0  0  0  0  0
   -3.9786    1.3592    3.6350 H   0  0  0  0  0  0  0  0  0  0  0  0
   -5.7645   -0.2230    4.3066 H   0  0  0  0  0  0  0  0  0  0  0  0
   -6.7692   -1.7534    2.6332 H   0  0  0  0  0  0  0  0  0  0  0  0
   -6.8104   -2.6676    0.4246 H   0  0  0  0  0  0  0  0  0  0  0  0
   -5.3771   -2.4982   -0.5686 H   0  0  0  0  0  0  0  0  0  0  0  0
   -7.4361   -1.7419   -1.7187 H   0  0  0  0  0  0  0  0  0  0  0  0
   -7.7679   -0.5717   -0.4439 H   0  0  0  0  0  0  0  0  0  0  0  0
   -8.0850    0.3974   -2.8588 H   0  0  0  0  0  0  0  0  0  0  0  0
   -7.1456    2.1118   -4.3474 H   0  0  0  0  0  0  0  0  0  0  0  0
   -4.7393    2.7136   -4.1791 H   0  0  0  0  0  0  0  0  0  0  0  0
   -3.3219    1.6572   -2.5252 H   0  0  0  0  0  0  0  0  0  0  0  0
  1  2  2  0
  2  3  1  0
  3  4  1  0
  4  5  1  0
  5  6  2  0
  6  7  1  0
  7  8  1  0
  8  9  2  0
  9 10  1  0
 10 11  2  0
 11 12  1  0
 12 13  1  0
 13 14  1  0
 14 15  1  0
 15 16  1  0
 16 17  1  0
 11 18  1  0
 18 19  2  0
  7 20  2  0
  2 21  1  0
 21 22  1  0
 22 23  2  0
 23 24  1  0
 24 25  2  0
 25 26  1  0
 26 27  2  0
 27 28  1  0
 28 29  1  0
 29 30  1  0
 30 31  2  0
 31 32  1  0
 32 33  2  0
 33 34  1  0
 34 35  2  0
 20  4  1  0
 35 21  1  0
 19  8  1  0
 27 22  1  0
 35 30  1  0
 17 12  1  0
  3 36  1  0
  3 37  1  0
  9 38  1  0
 10 39  1  0
 13 40  1  0
 13 41  1  0
 14 42  1  0
 14 43  1  0
 16 44  1  0
 16 45  1  0
 17 46  1  0
 17 47  1  0
 18 48  1  0
 19 49  1  0
 23 50  1  0
 24 51  1  0
 25 52  1  0
 26 53  1  0
 28 54  1  0
 28 55  1  0
 29 56  1  0
 29 57  1  0
 31 58  1  0
 32 59  1  0
 33 60  1  0
 34 61  1  0
M  END
$$$$
