
     RDKit          3D

 47 48  0  0  0  0  0  0  0  0999 V2000
    3.1969    1.1662   -2.3575 C   0  0  0  0  0  0  0  0  0  0  0  0
    1.8336    1.2989   -1.9441 O   0  0  0  0  0  0  0  0  0  0  0  0
    1.7812    1.6813   -0.6276 C   0  0  0  0  0  0  0  0  0  0  0  0
    1.6210    3.0409   -0.3533 C   0  0  0  0  0  0  0  0  0  0  0  0
    1.5417    3.4794    0.9695 C   0  0  0  0  0  0  0  0  0  0  0  0
    1.6119    2.5608    2.0179 C   0  0  0  0  0  0  0  0  0  0  0  0
    1.7464    1.1984    1.7454 C   0  0  0  0  0  0  0  0  0  0  0  0
    1.8082    0.7521    0.4195 C   0  0  0  0  0  0  0  0  0  0  0  0
    1.9294   -0.7072    0.1893 C   0  0  0  0  0  0  0  0  0  0  0  0
    2.8830   -1.2727    0.7209 O   0  0  0  0  0  0  0  0  0  0  0  0
    0.9693   -1.3446   -0.6055 N   0  0  0  0  0  0  0  0  0  0  0  0
   -0.1745   -0.6372   -1.0417 N   0  0  0  0  0  0  0  0  0  0  0  0
   -1.1862   -0.3433   -0.1519 C   0  0  0  0  0  0  0  0  0  0  0  0
   -1.3276   -0.8591    0.9497 O   0  0  0  0  0  0  0  0  0  0  0  0
   -1.9927    0.6413   -0.7032 O   0  0  0  0  0  0  0  0  0  0  0  0
   -2.9907    1.1036    0.1572 C   0  0  0  0  0  0  0  0  0  0  0  0
   -2.6712    2.0009    1.1758 C   0  0  0  0  0  0  0  0  0  0  0  0
   -3.6892    2.4933    1.9910 C   0  0  0  0  0  0  0  0  0  0  0  0
   -5.0115    2.0989    1.7724 C   0  0  0  0  0  0  0  0  0  0  0  0
   -5.3207    1.2142    0.7360 C   0  0  0  0  0  0  0  0  0  0  0  0
   -4.3074    0.7173   -0.0826 C   0  0  0  0  0  0  0  0  0  0  0  0
    0.9620   -2.8066   -0.8960 C   0  0  0  0  0  0  0  0  0  0  0  0
    0.8035   -3.6120    0.4076 C   0  0  0  0  0  0  0  0  0  0  0  0
   -0.1828   -3.2281   -1.8507 C   0  0  0  0  0  0  0  0  0  0  0  0
    2.2829   -3.2070   -1.5870 C   0  0  0  0  0  0  0  0  0  0  0  0
    3.7351    2.1149   -2.2524 H   0  0  0  0  0  0  0  0  0  0  0  0
    3.1987    0.8903   -3.4163 H   0  0  0  0  0  0  0  0  0  0  0  0
    3.7091    0.3739   -1.8015 H   0  0  0  0  0  0  0  0  0  0  0  0
    1.5645    3.7591   -1.1669 H   0  0  0  0  0  0  0  0  0  0  0  0
    1.4280    4.5396    1.1841 H   0  0  0  0  0  0  0  0  0  0  0  0
    1.5566    2.9035    3.0486 H   0  0  0  0  0  0  0  0  0  0  0  0
    1.7906    0.4815    2.5630 H   0  0  0  0  0  0  0  0  0  0  0  0
   -0.0263    0.0184   -1.8036 H   0  0  0  0  0  0  0  0  0  0  0  0
   -1.6429    2.3075    1.3400 H   0  0  0  0  0  0  0  0  0  0  0  0
   -3.4538    3.1826    2.7975 H   0  0  0  0  0  0  0  0  0  0  0  0
   -5.8034    2.4822    2.4113 H   0  0  0  0  0  0  0  0  0  0  0  0
   -6.3516    0.9133    0.5683 H   0  0  0  0  0  0  0  0  0  0  0  0
   -4.5431    0.0338   -0.8923 H   0  0  0  0  0  0  0  0  0  0  0  0
   -0.1220   -3.3416    0.9272 H   0  0  0  0  0  0  0  0  0  0  0  0
    0.7706   -4.6888    0.2059 H   0  0  0  0  0  0  0  0  0  0  0  0
    1.6305   -3.4381    1.1030 H   0  0  0  0  0  0  0  0  0  0  0  0
   -0.1308   -2.6831   -2.8004 H   0  0  0  0  0  0  0  0  0  0  0  0
   -0.1308   -4.2985   -2.0823 H   0  0  0  0  0  0  0  0  0  0  0  0
   -1.1684   -3.0440   -1.4083 H   0  0  0  0  0  0  0  0  0  0  0  0
    2.4465   -2.6086   -2.4908 H   0  0  0  0  0  0  0  0  0  0  0  0
    3.1523   -3.0642   -0.9385 H   0  0  0  0  0  0  0  0  0  0  0  0
    2.2742   -4.2633   -1.8796 H   0  0  0  0  0  0  0  0  0  0  0  0
  1  2  1  0
  2  3  1  0
  3  4  2  0
  4  5  1  0
  5  6  2  0
  6  7  1  0
  7  8  2  0
  8  9  1  0
  9 10  2  0
  9 11  1  0
 11 12  1  0
 12 13  1  0
 13 14  2  0
 13 15  1  0
 15 16  1  0
 16 17  2  0
 17 18  1  0
 18 19  2  0
 19 20  1  0
 20 21  2  0
 11 22  1  0
 22 23  1  0
 22 24  1  0
 22 25  1  0
  8  3  1  0
 21 16  1  0
  1 26  1  0
  1 27  1  0
  1 28  1  0
  4 29  1  0
  5 30  1  0
  6 31  1  0
  7 32  1  0
 12 33  1  0
 17 34  1  0
 18 35  1  0
 19 36  1  0
 20 37  1  0
 21 38  1  0
 23 39  1  0
 23 40  1  0
 23 41  1  0
 24 42  1  0
 24 43  1  0
 24 44  1  0
 25 45  1  0
 25 46  1  0
 25 47  1  0
M  END
$$$$
