
     RDKit          3D

 46 49  0  0  0  0  0  0  0  0999 V2000
   -3.2517    2.2695    1.2896 O   0  0  0  0  0  0  0  0  0  0  0  0
   -2.5853    1.5378    0.5486 C   0  0  0  0  0  0  0  0  0  0  0  0
   -1.2672    1.3158    0.8530 N   0  0  0  0  0  0  0  0  0  0  0  0
   -0.3460    0.6199    0.0584 C   0  0  0  0  0  0  0  0  0  0  0  0
    0.8918    0.2958    0.6199 C   0  0  0  0  0  0  0  0  0  0  0  0
    1.8534   -0.3701   -0.1481 C   0  0  0  0  0  0  0  0  0  0  0  0
    3.1420   -0.7380    0.4874 C   0  0  0  0  0  0  0  0  0  0  0  0
    3.1124   -1.1817    1.6325 O   0  0  0  0  0  0  0  0  0  0  0  0
    4.3201   -0.5860   -0.2452 N   0  0  0  0  0  0  0  0  0  0  0  0
    4.5443    0.5670   -1.1285 C   0  0  0  0  0  0  0  0  0  0  0  0
    5.2749    1.6796   -0.3591 C   0  0  0  0  0  0  0  0  0  0  0  0
    6.5009    1.1958    0.2150 O   0  0  0  0  0  0  0  0  0  0  0  0
    6.2509    0.0984    1.1144 C   0  0  0  0  0  0  0  0  0  0  0  0
    5.5612   -1.0545    0.3766 C   0  0  0  0  0  0  0  0  0  0  0  0
    1.5709   -0.7343   -1.4684 C   0  0  0  0  0  0  0  0  0  0  0  0
    0.3437   -0.3855   -2.0357 C   0  0  0  0  0  0  0  0  0  0  0  0
   -0.6179    0.2942   -1.2780 C   0  0  0  0  0  0  0  0  0  0  0  0
   -2.1205    0.8175   -2.0748 S   0  0  0  0  0  0  0  0  0  0  0  0
   -3.2405    0.7675   -0.6253 C   0  0  0  0  0  0  0  0  0  0  0  0
   -3.5953   -0.6266   -0.2281 N   0  0  0  0  0  0  0  0  0  0  0  0
   -4.4054   -1.3215   -1.2628 C   0  0  0  0  0  0  0  0  0  0  0  0
   -5.8548   -0.8145   -1.3788 C   0  0  0  0  0  0  0  0  0  0  0  0
   -6.5356   -0.8804   -0.1211 O   0  0  0  0  0  0  0  0  0  0  0  0
   -5.8225   -0.1605    0.8920 C   0  0  0  0  0  0  0  0  0  0  0  0
   -4.3843   -0.6871    1.0304 C   0  0  0  0  0  0  0  0  0  0  0  0
   -0.9681    1.7025    1.7391 H   0  0  0  0  0  0  0  0  0  0  0  0
    1.1149    0.5406    1.6559 H   0  0  0  0  0  0  0  0  0  0  0  0
    3.6123    0.9630   -1.5352 H   0  0  0  0  0  0  0  0  0  0  0  0
    5.1663    0.2140   -1.9588 H   0  0  0  0  0  0  0  0  0  0  0  0
    4.6455    2.0852    0.4419 H   0  0  0  0  0  0  0  0  0  0  0  0
    5.5266    2.4998   -1.0383 H   0  0  0  0  0  0  0  0  0  0  0  0
    5.6449    0.4590    1.9537 H   0  0  0  0  0  0  0  0  0  0  0  0
    7.2159   -0.2326    1.5101 H   0  0  0  0  0  0  0  0  0  0  0  0
    6.2037   -1.4163   -0.4347 H   0  0  0  0  0  0  0  0  0  0  0  0
    5.3668   -1.8904    1.0561 H   0  0  0  0  0  0  0  0  0  0  0  0
    2.2988   -1.2878   -2.0570 H   0  0  0  0  0  0  0  0  0  0  0  0
    0.1421   -0.6499   -3.0717 H   0  0  0  0  0  0  0  0  0  0  0  0
   -4.1299    1.3394   -0.9104 H   0  0  0  0  0  0  0  0  0  0  0  0
   -3.9229   -1.2972   -2.2448 H   0  0  0  0  0  0  0  0  0  0  0  0
   -4.4371   -2.3837   -0.9845 H   0  0  0  0  0  0  0  0  0  0  0  0
   -5.8996    0.2118   -1.7591 H   0  0  0  0  0  0  0  0  0  0  0  0
   -6.4072   -1.4462   -2.0821 H   0  0  0  0  0  0  0  0  0  0  0  0
   -6.3592   -0.3063    1.8349 H   0  0  0  0  0  0  0  0  0  0  0  0
   -5.8477    0.9101    0.6612 H   0  0  0  0  0  0  0  0  0  0  0  0
   -4.4350   -1.7441    1.3259 H   0  0  0  0  0  0  0  0  0  0  0  0
   -3.8706   -0.1889    1.8581 H   0  0  0  0  0  0  0  0  0  0  0  0
  1  2  2  0
  2  3  1  0
  3  4  1  0
  4  5  2  0
  5  6  1  0
  6  7  1  0
  7  8  2  0
  7  9  1  0
  9 10  1  0
 10 11  1  0
 11 12  1  0
 12 13  1  0
 13 14  1  0
  6 15  2  0
 15 16  1  0
 16 17  2  0
 17 18  1  0
 18 19  1  0
 19 20  1  0
 20 21  1  0
 21 22  1  0
 22 23  1  0
 23 24  1  0
 24 25  1  0
 19  2  1  0
 25 20  1  0
 17  4  1  0
 14  9  1  0
  3 26  1  0
  5 27  1  0
 10 28  1  0
 10 29  1  0
 11 30  1  0
 11 31  1  0
 13 32  1  0
 13 33  1  0
 14 34  1  0
 14 35  1  0
 15 36  1  0
 16 37  1  0
 19 38  1  0
 21 39  1  0
 21 40  1  0
 22 41  1  0
 22 42  1  0
 24 43  1  0
 24 44  1  0
 25 45  1  0
 25 46  1  0
M  END
$$$$
