
     RDKit          3D

 62 65  0  0  0  0  0  0  0  0999 V2000
    0.5155   -1.0998    3.7702 C   0  0  0  0  0  0  0  0  0  0  0  0
    0.4149    0.1833    2.9916 C   0  0  0  0  0  0  0  0  0  0  0  0
    0.8009    1.3547    3.6837 C   0  0  0  0  0  0  0  0  0  0  0  0
    0.7335    2.6173    3.0959 C   0  0  0  0  0  0  0  0  0  0  0  0
    1.1288    3.7129    3.8067 O   0  0  0  0  0  0  0  0  0  0  0  0
    0.2607    2.7719    1.7990 C   0  0  0  0  0  0  0  0  0  0  0  0
    0.1393    4.1124    1.0918 C   0  0  0  0  0  0  0  0  0  0  0  0
   -0.8403    5.0584    1.7899 C   0  0  0  0  0  0  0  0  0  0  0  0
    1.5015    4.7768    0.8787 C   0  0  0  0  0  0  0  0  0  0  0  0
   -0.1179    1.6065    1.1091 C   0  0  0  0  0  0  0  0  0  0  0  0
   -0.0213    0.2896    1.6514 C   0  0  0  0  0  0  0  0  0  0  0  0
   -0.4575   -0.8525    0.6983 C   0  0  0  0  0  0  0  0  0  0  0  0
    0.1533   -0.7589   -0.7327 C   0  0  0  0  0  0  0  0  0  0  0  0
   -0.7016   -0.9465   -1.8516 C   0  0  0  0  0  0  0  0  0  0  0  0
   -0.2604   -0.8797   -3.1905 C   0  0  0  0  0  0  0  0  0  0  0  0
   -1.2905   -1.1264   -4.2822 C   0  0  0  0  0  0  0  0  0  0  0  0
   -1.7174    0.1727   -4.9686 C   0  0  0  0  0  0  0  0  0  0  0  0
   -0.8690   -2.1948   -5.2957 C   0  0  0  0  0  0  0  0  0  0  0  0
    1.0861   -0.5948   -3.3991 C   0  0  0  0  0  0  0  0  0  0  0  0
    1.6528   -0.4380   -4.6304 O   0  0  0  0  0  0  0  0  0  0  0  0
    1.9613   -0.4407   -2.3251 C   0  0  0  0  0  0  0  0  0  0  0  0
    1.5253   -0.5345   -0.9912 C   0  0  0  0  0  0  0  0  0  0  0  0
    2.5681   -0.2984    0.0692 C   0  0  0  0  0  0  0  0  0  0  0  0
   -1.9060   -0.5973    0.6131 O   0  0  0  0  0  0  0  0  0  0  0  0
   -2.6634   -1.6027    1.1204 C   0  0  0  0  0  0  0  0  0  0  0  0
   -3.8709   -1.6200    1.2376 O   0  0  0  0  0  0  0  0  0  0  0  0
   -1.7501   -2.6841    1.4324 C   0  0  0  0  0  0  0  0  0  0  0  0
   -2.0776   -3.9581    1.8701 C   0  0  0  0  0  0  0  0  0  0  0  0
   -1.0421   -4.8760    2.0220 C   0  0  0  0  0  0  0  0  0  0  0  0
    0.2752   -4.5057    1.7165 C   0  0  0  0  0  0  0  0  0  0  0  0
    0.5721   -3.2113    1.2722 C   0  0  0  0  0  0  0  0  0  0  0  0
   -0.4563   -2.2813    1.1606 C   0  0  0  0  0  0  0  0  0  0  0  0
    1.3271   -1.7196    3.3827 H   0  0  0  0  0  0  0  0  0  0  0  0
    0.7492   -0.9122    4.8258 H   0  0  0  0  0  0  0  0  0  0  0  0
   -0.4360   -1.6361    3.7720 H   0  0  0  0  0  0  0  0  0  0  0  0
    1.1568    1.2687    4.7081 H   0  0  0  0  0  0  0  0  0  0  0  0
    1.4127    3.4350    4.6921 H   0  0  0  0  0  0  0  0  0  0  0  0
   -0.2729    3.9308    0.0898 H   0  0  0  0  0  0  0  0  0  0  0  0
   -1.8137    4.5775    1.9371 H   0  0  0  0  0  0  0  0  0  0  0  0
   -0.4788    5.3833    2.7712 H   0  0  0  0  0  0  0  0  0  0  0  0
   -0.9990    5.9580    1.1860 H   0  0  0  0  0  0  0  0  0  0  0  0
    1.3993    5.6614    0.2411 H   0  0  0  0  0  0  0  0  0  0  0  0
    1.9550    5.1037    1.8194 H   0  0  0  0  0  0  0  0  0  0  0  0
    2.2004    4.0896    0.3912 H   0  0  0  0  0  0  0  0  0  0  0  0
   -0.5046    1.7226    0.0939 H   0  0  0  0  0  0  0  0  0  0  0  0
   -1.7580   -1.1504   -1.6785 H   0  0  0  0  0  0  0  0  0  0  0  0
   -2.1941   -1.5300   -3.8019 H   0  0  0  0  0  0  0  0  0  0  0  0
   -2.0711    0.9056   -4.2340 H   0  0  0  0  0  0  0  0  0  0  0  0
   -2.5363   -0.0174   -5.6706 H   0  0  0  0  0  0  0  0  0  0  0  0
   -0.9018    0.6369   -5.5301 H   0  0  0  0  0  0  0  0  0  0  0  0
   -0.5328   -3.1062   -4.7894 H   0  0  0  0  0  0  0  0  0  0  0  0
   -0.0640   -1.8603   -5.9557 H   0  0  0  0  0  0  0  0  0  0  0  0
   -1.7166   -2.4631   -5.9363 H   0  0  0  0  0  0  0  0  0  0  0  0
    0.9658   -0.1765   -5.2592 H   0  0  0  0  0  0  0  0  0  0  0  0
    3.0060   -0.2252   -2.5406 H   0  0  0  0  0  0  0  0  0  0  0  0
    2.3685   -0.8532    0.9856 H   0  0  0  0  0  0  0  0  0  0  0  0
    2.6357    0.7691    0.2967 H   0  0  0  0  0  0  0  0  0  0  0  0
    3.5519   -0.6331   -0.2753 H   0  0  0  0  0  0  0  0  0  0  0  0
   -3.1090   -4.2320    2.0676 H   0  0  0  0  0  0  0  0  0  0  0  0
   -1.2575   -5.8880    2.3577 H   0  0  0  0  0  0  0  0  0  0  0  0
    1.0747   -5.2364    1.8182 H   0  0  0  0  0  0  0  0  0  0  0  0
    1.5961   -2.9577    1.0219 H   0  0  0  0  0  0  0  0  0  0  0  0
  1  2  1  0
  2  3  2  0
  3  4  1  0
  4  5  1  0
  4  6  2  0
  6  7  1  0
  7  8  1  0
  7  9  1  0
  6 10  1  0
 10 11  2  0
 11 12  1  0
 12 13  1  0
 13 14  2  0
 14 15  1  0
 15 16  1  0
 16 17  1  0
 16 18  1  0
 15 19  2  0
 19 20  1  0
 19 21  1  0
 21 22  2  0
 22 23  1  0
 12 24  1  0
 24 25  1  0
 25 26  2  0
 25 27  1  0
 27 28  2  0
 28 29  1  0
 29 30  2  0
 30 31  1  0
 31 32  2  0
 11  2  1  0
 32 12  1  0
 22 13  1  0
 32 27  1  0
  1 33  1  0
  1 34  1  0
  1 35  1  0
  3 36  1  0
  5 37  1  0
  7 38  1  0
  8 39  1  0
  8 40  1  0
  8 41  1  0
  9 42  1  0
  9 43  1  0
  9 44  1  0
 10 45  1  0
 14 46  1  0
 16 47  1  0
 17 48  1  0
 17 49  1  0
 17 50  1  0
 18 51  1  0
 18 52  1  0
 18 53  1  0
 20 54  1  0
 21 55  1  0
 23 56  1  0
 23 57  1  0
 23 58  1  0
 28 59  1  0
 29 60  1  0
 30 61  1  0
 31 62  1  0
M  END
$$$$
