
     RDKit          3D

 42 44  0  0  0  0  0  0  0  0999 V2000
   -5.5125    0.9017    0.1700 C   0  0  0  0  0  0  0  0  0  0  0  0
   -4.6271    0.6584   -1.0621 C   0  0  0  0  0  0  0  0  0  0  0  0
   -4.5920    1.9507   -1.8980 C   0  0  0  0  0  0  0  0  0  0  0  0
   -5.2233   -0.4630   -1.9270 C   0  0  0  0  0  0  0  0  0  0  0  0
   -3.2541    0.3377   -0.6644 N   0  0  0  0  0  0  0  0  0  0  0  0
   -2.8632   -0.7494    0.0975 C   0  0  0  0  0  0  0  0  0  0  0  0
   -3.6384   -1.5898    0.5421 O   0  0  0  0  0  0  0  0  0  0  0  0
   -1.3998   -0.7849    0.3161 C   0  0  0  0  0  0  0  0  0  0  0  0
   -0.5668    0.1850   -0.2040 N   0  0  0  0  0  0  0  0  0  0  0  0
    0.6300   -0.1816    0.1916 C   0  0  0  0  0  0  0  0  0  0  0  0
    1.8277    0.4230   -0.0467 N   0  0  0  0  0  0  0  0  0  0  0  0
    2.8888   -0.1459    0.4492 C   0  0  0  0  0  0  0  0  0  0  0  0
    4.2234    0.4758    0.2085 C   0  0  0  0  0  0  0  0  0  0  0  0
    4.3028    1.8715    0.1125 C   0  0  0  0  0  0  0  0  0  0  0  0
    5.5325    2.4923   -0.1131 C   0  0  0  0  0  0  0  0  0  0  0  0
    6.6861    1.7229   -0.2539 C   0  0  0  0  0  0  0  0  0  0  0  0
    6.6116    0.3326   -0.1777 C   0  0  0  0  0  0  0  0  0  0  0  0
    5.3831   -0.2935    0.0487 C   0  0  0  0  0  0  0  0  0  0  0  0
    2.8656   -1.3913    1.2834 C   0  0  0  0  0  0  0  0  0  0  0  0
    1.6579   -1.9509    1.4918 C   0  0  0  0  0  0  0  0  0  0  0  0
    1.4399   -3.1762    2.2932 C   0  0  0  0  0  0  0  0  0  0  0  0
    0.8956   -4.1841    1.5700 F   0  0  0  0  0  0  0  0  0  0  0  0
    0.6537   -2.9618    3.3751 F   0  0  0  0  0  0  0  0  0  0  0  0
    2.6183   -3.6608    2.7783 F   0  0  0  0  0  0  0  0  0  0  0  0
    0.5300   -1.3570    0.9450 N   0  0  0  0  0  0  0  0  0  0  0  0
   -0.7634   -1.7342    1.0189 N   0  0  0  0  0  0  0  0  0  0  0  0
   -5.0835    1.6769    0.8154 H   0  0  0  0  0  0  0  0  0  0  0  0
   -6.5176    1.2256   -0.1229 H   0  0  0  0  0  0  0  0  0  0  0  0
   -5.6258   -0.0019    0.7775 H   0  0  0  0  0  0  0  0  0  0  0  0
   -4.1707    2.7825   -1.3213 H   0  0  0  0  0  0  0  0  0  0  0  0
   -3.9684    1.8263   -2.7912 H   0  0  0  0  0  0  0  0  0  0  0  0
   -5.5955    2.2434   -2.2266 H   0  0  0  0  0  0  0  0  0  0  0  0
   -5.3288   -1.3985   -1.3683 H   0  0  0  0  0  0  0  0  0  0  0  0
   -4.5863   -0.6713   -2.7945 H   0  0  0  0  0  0  0  0  0  0  0  0
   -6.2180   -0.1906   -2.2975 H   0  0  0  0  0  0  0  0  0  0  0  0
   -2.4945    0.9452   -0.9638 H   0  0  0  0  0  0  0  0  0  0  0  0
    3.4087    2.4838    0.2142 H   0  0  0  0  0  0  0  0  0  0  0  0
    5.5884    3.5760   -0.1837 H   0  0  0  0  0  0  0  0  0  0  0  0
    7.6429    2.2076   -0.4339 H   0  0  0  0  0  0  0  0  0  0  0  0
    7.5118   -0.2644   -0.3053 H   0  0  0  0  0  0  0  0  0  0  0  0
    5.3534   -1.3789    0.0687 H   0  0  0  0  0  0  0  0  0  0  0  0
    3.7774   -1.7891    1.7118 H   0  0  0  0  0  0  0  0  0  0  0  0
  1  2  1  0
  2  3  1  0
  2  4  1  0
  2  5  1  0
  5  6  1  0
  6  7  2  0
  6  8  1  0
  8  9  1  0
  9 10  2  0
 10 11  1  0
 11 12  2  0
 12 13  1  0
 13 14  2  0
 14 15  1  0
 15 16  2  0
 16 17  1  0
 17 18  2  0
 12 19  1  0
 19 20  2  0
 20 21  1  0
 21 22  1  0
 21 23  1  0
 21 24  1  0
 20 25  1  0
 25 26  1  0
 26  8  2  0
 25 10  1  0
 18 13  1  0
  1 27  1  0
  1 28  1  0
  1 29  1  0
  3 30  1  0
  3 31  1  0
  3 32  1  0
  4 33  1  0
  4 34  1  0
  4 35  1  0
  5 36  1  0
 14 37  1  0
 15 38  1  0
 16 39  1  0
 17 40  1  0
 18 41  1  0
 19 42  1  0
M  END
$$$$
