
     RDKit          3D

 44 45  0  0  0  0  0  0  0  0999 V2000
   -3.3937   -3.1920   -2.5633 C   0  0  0  0  0  0  0  0  0  0  0  0
   -2.4082   -2.4043   -1.9018 O   0  0  0  0  0  0  0  0  0  0  0  0
   -2.8415   -1.4761   -0.9894 C   0  0  0  0  0  0  0  0  0  0  0  0
   -4.1843   -1.2572   -0.6578 C   0  0  0  0  0  0  0  0  0  0  0  0
   -4.5403   -0.2852    0.2890 C   0  0  0  0  0  0  0  0  0  0  0  0
   -5.8306   -0.0094    0.6690 O   0  0  0  0  0  0  0  0  0  0  0  0
   -6.8820   -0.7580    0.0765 C   0  0  0  0  0  0  0  0  0  0  0  0
   -3.5409    0.4837    0.9175 C   0  0  0  0  0  0  0  0  0  0  0  0
   -3.9781    1.4111    1.8293 O   0  0  0  0  0  0  0  0  0  0  0  0
   -3.0027    2.1984    2.4984 C   0  0  0  0  0  0  0  0  0  0  0  0
   -2.2013    0.2694    0.5900 C   0  0  0  0  0  0  0  0  0  0  0  0
   -1.8542   -0.7043   -0.3570 C   0  0  0  0  0  0  0  0  0  0  0  0
   -0.4253   -0.9132   -0.6877 C   0  0  0  0  0  0  0  0  0  0  0  0
    0.5156   -0.2156   -0.1282 N   0  0  0  0  0  0  0  0  0  0  0  0
    1.7885   -0.5011   -0.5153 N   0  0  0  0  0  0  0  0  0  0  0  0
    2.8296    0.2202    0.0539 C   0  0  0  0  0  0  0  0  0  0  0  0
    2.7048    1.1107    0.8924 O   0  0  0  0  0  0  0  0  0  0  0  0
    4.1944   -0.1858   -0.4526 C   0  0  0  0  0  0  0  0  0  0  0  0
    5.2452    0.6501    0.1726 N   0  0  0  0  0  4  0  0  0  0  0  0
    5.6215    1.8090   -0.4184 C   0  0  0  0  0  0  0  0  0  0  0  0
    6.5976    2.6137    0.1578 C   0  0  0  0  0  0  0  0  0  0  0  0
    7.1771    2.2279    1.3590 C   0  0  0  0  0  0  0  0  0  0  0  0
    6.7630    1.0506    1.9674 C   0  0  0  0  0  0  0  0  0  0  0  0
    5.7841    0.2750    1.3572 C   0  0  0  0  0  0  0  0  0  0  0  0
   -4.0655   -2.5644   -3.1580 H   0  0  0  0  0  0  0  0  0  0  0  0
   -3.9502   -3.8079   -1.8492 H   0  0  0  0  0  0  0  0  0  0  0  0
   -2.8741   -3.8669   -3.2501 H   0  0  0  0  0  0  0  0  0  0  0  0
   -4.9609   -1.8414   -1.1341 H   0  0  0  0  0  0  0  0  0  0  0  0
   -6.9223   -0.5931   -1.0052 H   0  0  0  0  0  0  0  0  0  0  0  0
   -7.8260   -0.4044    0.5022 H   0  0  0  0  0  0  0  0  0  0  0  0
   -6.7893   -1.8233    0.3119 H   0  0  0  0  0  0  0  0  0  0  0  0
   -3.5279    2.8688    3.1856 H   0  0  0  0  0  0  0  0  0  0  0  0
   -2.3304    1.5720    3.0939 H   0  0  0  0  0  0  0  0  0  0  0  0
   -2.4437    2.8191    1.7905 H   0  0  0  0  0  0  0  0  0  0  0  0
   -1.4120    0.8483    1.0587 H   0  0  0  0  0  0  0  0  0  0  0  0
   -0.1873   -1.6909   -1.4345 H   0  0  0  0  0  0  0  0  0  0  0  0
    1.9254   -1.2344   -1.2055 H   0  0  0  0  0  0  0  0  0  0  0  0
    4.2537   -0.0562   -1.5380 H   0  0  0  0  0  0  0  0  0  0  0  0
    4.3974   -1.2325   -0.2039 H   0  0  0  0  0  0  0  0  0  0  0  0
    5.1307    2.0889   -1.3462 H   0  0  0  0  0  0  0  0  0  0  0  0
    6.8961    3.5443   -0.3204 H   0  0  0  0  0  0  0  0  0  0  0  0
    7.9369    2.8515    1.8284 H   0  0  0  0  0  0  0  0  0  0  0  0
    7.1918    0.7458    2.9198 H   0  0  0  0  0  0  0  0  0  0  0  0
    5.4191   -0.6407    1.8137 H   0  0  0  0  0  0  0  0  0  0  0  0
  1  2  1  0
  2  3  1  0
  3  4  2  0
  4  5  1  0
  5  6  1  0
  6  7  1  0
  5  8  2  0
  8  9  1  0
  9 10  1  0
  8 11  1  0
 11 12  2  0
 12 13  1  0
 13 14  2  3
 14 15  1  0
 15 16  1  0
 16 17  2  0
 16 18  1  0
 18 19  1  0
 19 20  2  0
 20 21  1  0
 21 22  2  0
 22 23  1  0
 23 24  2  0
 12  3  1  0
 24 19  1  0
  1 25  1  0
  1 26  1  0
  1 27  1  0
  4 28  1  0
  7 29  1  0
  7 30  1  0
  7 31  1  0
 10 32  1  0
 10 33  1  0
 10 34  1  0
 11 35  1  0
 13 36  1  0
 15 37  1  0
 18 38  1  0
 18 39  1  0
 20 40  1  0
 21 41  1  0
 22 42  1  0
 23 43  1  0
 24 44  1  0
M  CHG  1  19   1
M  END
$$$$
