
     RDKit          3D

 52 54  0  0  0  0  0  0  0  0999 V2000
    3.0679   -0.1765    1.5739 O   0  0  0  0  0  0  0  0  0  0  0  0
    3.5042    0.9667    1.4577 C   0  0  0  0  0  0  0  0  0  0  0  0
    4.9781    1.3247    1.5293 C   0  0  0  0  0  0  0  0  0  0  0  0
    5.8989    0.1391    1.2482 C   0  0  0  0  0  0  0  0  0  0  0  0
    5.9856   -0.1746   -0.2279 C   0  0  0  0  0  0  0  0  0  0  0  0
    6.8452    0.5570   -1.0600 C   0  0  0  0  0  0  0  0  0  0  0  0
    6.9084    0.2816   -2.4282 C   0  0  0  0  0  0  0  0  0  0  0  0
    6.1166   -0.7261   -2.9751 C   0  0  0  0  0  0  0  0  0  0  0  0
    5.2586   -1.4584   -2.1566 C   0  0  0  0  0  0  0  0  0  0  0  0
    5.1908   -1.1835   -0.7906 C   0  0  0  0  0  0  0  0  0  0  0  0
    2.6886    2.0843    1.3125 N   0  0  0  0  0  0  0  0  0  0  0  0
    1.3038    2.1652    1.2495 C   0  0  0  0  0  0  0  0  0  0  0  0
    0.6902    3.7004    1.0216 S   0  0  0  0  0  0  0  0  0  0  0  0
    0.6537    0.9591    1.3665 N   0  0  0  0  0  0  0  0  0  0  0  0
   -0.7074    0.5918    1.4306 C   0  0  0  0  0  0  0  0  0  0  0  0
   -0.9812   -0.7844    1.3392 C   0  0  0  0  0  0  0  0  0  0  0  0
   -2.2923   -1.2684    1.3831 C   0  0  0  0  0  0  0  0  0  0  0  0
   -3.3485   -0.3679    1.5193 C   0  0  0  0  0  0  0  0  0  0  0  0
   -5.0227   -0.9651    1.6097 S   0  0  0  0  0  6  0  0  0  0  0  0
   -4.9678   -2.3608    1.9938 O   0  0  0  0  0  0  0  0  0  0  0  0
   -5.7848   -0.0069    2.3832 O   0  0  0  0  0  0  0  0  0  0  0  0
   -5.5627   -0.8868    0.0053 N   0  0  0  0  0  0  0  0  0  0  0  0
   -4.9479   -1.8338   -0.9670 C   0  0  0  0  0  0  0  0  0  0  0  0
   -5.7894   -1.8548   -2.2505 C   0  0  0  0  0  0  0  0  0  0  0  0
   -5.9009   -0.5399   -2.8187 O   0  0  0  0  0  0  0  0  0  0  0  0
   -6.5373    0.3538   -1.8906 C   0  0  0  0  0  0  0  0  0  0  0  0
   -5.7292    0.4679   -0.5921 C   0  0  0  0  0  0  0  0  0  0  0  0
   -3.0940    0.9983    1.6597 C   0  0  0  0  0  0  0  0  0  0  0  0
   -1.7769    1.4718    1.6080 C   0  0  0  0  0  0  0  0  0  0  0  0
    5.1897    2.1530    0.8431 H   0  0  0  0  0  0  0  0  0  0  0  0
    5.1613    1.6863    2.5472 H   0  0  0  0  0  0  0  0  0  0  0  0
    6.9081    0.3788    1.6097 H   0  0  0  0  0  0  0  0  0  0  0  0
    5.5858   -0.7524    1.8047 H   0  0  0  0  0  0  0  0  0  0  0  0
    7.4748    1.3444   -0.6472 H   0  0  0  0  0  0  0  0  0  0  0  0
    7.5782    0.8526   -3.0663 H   0  0  0  0  0  0  0  0  0  0  0  0
    6.1677   -0.9411   -4.0394 H   0  0  0  0  0  0  0  0  0  0  0  0
    4.6383   -2.2448   -2.5838 H   0  0  0  0  0  0  0  0  0  0  0  0
    4.5111   -1.7615   -0.1662 H   0  0  0  0  0  0  0  0  0  0  0  0
    3.1409    2.9848    1.2183 H   0  0  0  0  0  0  0  0  0  0  0  0
    1.2986    0.1665    1.3741 H   0  0  0  0  0  0  0  0  0  0  0  0
   -0.1699   -1.5015    1.2277 H   0  0  0  0  0  0  0  0  0  0  0  0
   -2.4746   -2.3402    1.3165 H   0  0  0  0  0  0  0  0  0  0  0  0
   -4.9094   -2.8451   -0.5515 H   0  0  0  0  0  0  0  0  0  0  0  0
   -3.9307   -1.5012   -1.2021 H   0  0  0  0  0  0  0  0  0  0  0  0
   -6.7949   -2.2471   -2.0578 H   0  0  0  0  0  0  0  0  0  0  0  0
   -5.3147   -2.4973   -2.9968 H   0  0  0  0  0  0  0  0  0  0  0  0
   -7.5553   -0.0013   -1.6929 H   0  0  0  0  0  0  0  0  0  0  0  0
   -6.6115    1.3330   -2.3733 H   0  0  0  0  0  0  0  0  0  0  0  0
   -4.7420    0.8868   -0.8157 H   0  0  0  0  0  0  0  0  0  0  0  0
   -6.2558    1.1334    0.0977 H   0  0  0  0  0  0  0  0  0  0  0  0
   -3.9082    1.7039    1.8199 H   0  0  0  0  0  0  0  0  0  0  0  0
   -1.6350    2.5362    1.7477 H   0  0  0  0  0  0  0  0  0  0  0  0
  1  2  2  0
  2  3  1  0
  3  4  1  0
  4  5  1  0
  5  6  2  0
  6  7  1  0
  7  8  2  0
  8  9  1  0
  9 10  2  0
  2 11  1  0
 11 12  1  0
 12 13  2  0
 12 14  1  0
 14 15  1  0
 15 16  2  0
 16 17  1  0
 17 18  2  0
 18 19  1  0
 19 20  2  0
 19 21  2  0
 19 22  1  0
 22 23  1  0
 23 24  1  0
 24 25  1  0
 25 26  1  0
 26 27  1  0
 18 28  1  0
 28 29  2  0
 10  5  1  0
 29 15  1  0
 27 22  1  0
  3 30  1  0
  3 31  1  0
  4 32  1  0
  4 33  1  0
  6 34  1  0
  7 35  1  0
  8 36  1  0
  9 37  1  0
 10 38  1  0
 11 39  1  0
 14 40  1  0
 16 41  1  0
 17 42  1  0
 23 43  1  0
 23 44  1  0
 24 45  1  0
 24 46  1  0
 26 47  1  0
 26 48  1  0
 27 49  1  0
 27 50  1  0
 28 51  1  0
 29 52  1  0
M  END
$$$$
