
     RDKit          3D

 40 42  0  0  0  0  0  0  0  0999 V2000
   -5.3839    1.7530    1.1874 C   0  0  0  0  0  0  0  0  0  0  0  0
   -4.3281    0.6695    0.9792 C   0  0  0  0  0  0  0  0  0  0  0  0
   -2.9156    1.2843    0.9201 C   0  0  0  0  0  0  0  0  0  0  0  0
   -1.8249    0.2058    0.8153 C   0  0  0  0  0  0  0  0  0  0  0  0
   -2.1660   -0.8568   -0.1946 C   0  0  0  0  0  0  0  0  0  0  0  0
   -1.2901   -1.8772   -0.7300 C   0  0  0  0  0  0  0  0  0  0  0  0
    0.1437   -2.0716   -0.4850 C   0  0  0  0  0  0  0  0  0  0  0  0
    0.5946   -3.1852   -0.2480 O   0  0  0  0  0  0  0  0  0  0  0  0
    0.8725   -0.9068   -0.6215 N   0  0  0  0  0  0  0  0  0  0  0  0
    2.2542   -0.7255   -0.4209 C   0  0  0  0  0  0  0  0  0  0  0  0
    3.1108   -1.7145    0.0576 C   0  0  0  0  0  0  0  0  0  0  0  0
    4.4730   -1.4440    0.2347 C   0  0  0  0  0  0  0  0  0  0  0  0
    5.0019   -0.1852   -0.0590 C   0  0  0  0  0  0  0  0  0  0  0  0
    6.3433   -0.0686    0.1623 O   0  0  0  0  0  0  0  0  0  0  0  0
    6.9527    1.1804   -0.1125 C   0  0  0  0  0  0  0  0  0  0  0  0
    8.2716    1.0921    0.1688 F   0  0  0  0  0  0  0  0  0  0  0  0
    6.4254    2.1594    0.6541 F   0  0  0  0  0  0  0  0  0  0  0  0
    6.8230    1.5108   -1.4154 F   0  0  0  0  0  0  0  0  0  0  0  0
    4.1474    0.8074   -0.5338 C   0  0  0  0  0  0  0  0  0  0  0  0
    2.7835    0.5373   -0.7112 C   0  0  0  0  0  0  0  0  0  0  0  0
   -1.9976   -2.7600   -1.5292 C   0  0  0  0  0  0  0  0  0  0  0  0
   -3.6408   -2.3376   -1.7037 S   0  0  0  0  0  0  0  0  0  0  0  0
   -3.4622   -1.0125   -0.6559 C   0  0  0  0  0  0  0  0  0  0  0  0
   -4.6261   -0.1357   -0.3029 C   0  0  0  0  0  0  0  0  0  0  0  0
   -5.3797    2.4771    0.3657 H   0  0  0  0  0  0  0  0  0  0  0  0
   -6.3848    1.3127    1.2469 H   0  0  0  0  0  0  0  0  0  0  0  0
   -5.2014    2.2983    2.1194 H   0  0  0  0  0  0  0  0  0  0  0  0
   -4.3678   -0.0131    1.8394 H   0  0  0  0  0  0  0  0  0  0  0  0
   -2.8464    1.9548    0.0530 H   0  0  0  0  0  0  0  0  0  0  0  0
   -2.7275    1.8967    1.8101 H   0  0  0  0  0  0  0  0  0  0  0  0
   -1.7003   -0.2777    1.7923 H   0  0  0  0  0  0  0  0  0  0  0  0
   -0.8789    0.6973    0.5732 H   0  0  0  0  0  0  0  0  0  0  0  0
    0.3618   -0.1099   -0.9773 H   0  0  0  0  0  0  0  0  0  0  0  0
    2.7564   -2.7096    0.3084 H   0  0  0  0  0  0  0  0  0  0  0  0
    5.1231   -2.2328    0.6082 H   0  0  0  0  0  0  0  0  0  0  0  0
    4.4977    1.8058   -0.7796 H   0  0  0  0  0  0  0  0  0  0  0  0
    2.1447    1.3346   -1.0841 H   0  0  0  0  0  0  0  0  0  0  0  0
   -1.6106   -3.6351   -2.0356 H   0  0  0  0  0  0  0  0  0  0  0  0
   -4.8152    0.5469   -1.1415 H   0  0  0  0  0  0  0  0  0  0  0  0
   -5.5336   -0.7334   -0.1543 H   0  0  0  0  0  0  0  0  0  0  0  0
  1  2  1  0
  2  3  1  0
  3  4  1  0
  4  5  1  0
  5  6  1  0
  6  7  1  0
  7  8  2  0
  7  9  1  0
  9 10  1  0
 10 11  2  0
 11 12  1  0
 12 13  2  0
 13 14  1  0
 14 15  1  0
 15 16  1  0
 15 17  1  0
 15 18  1  0
 13 19  1  0
 19 20  2  0
  6 21  2  0
 21 22  1  0
 22 23  1  0
 23 24  1  0
 24  2  1  0
 23  5  2  0
 20 10  1  0
  1 25  1  0
  1 26  1  0
  1 27  1  0
  2 28  1  0
  3 29  1  0
  3 30  1  0
  4 31  1  0
  4 32  1  0
  9 33  1  0
 11 34  1  0
 12 35  1  0
 19 36  1  0
 20 37  1  0
 21 38  1  0
 24 39  1  0
 24 40  1  0
M  END
$$$$
