
     RDKit          3D

 44 45  0  0  0  0  0  0  0  0999 V2000
   -3.2544   -3.0289   -2.6970 C   0  0  0  0  0  0  0  0  0  0  0  0
   -2.2955   -2.3836   -1.8640 O   0  0  0  0  0  0  0  0  0  0  0  0
   -2.7570   -1.4577   -0.9588 C   0  0  0  0  0  0  0  0  0  0  0  0
   -4.1076   -1.1434   -0.7648 C   0  0  0  0  0  0  0  0  0  0  0  0
   -4.4916   -0.1802    0.1847 C   0  0  0  0  0  0  0  0  0  0  0  0
   -5.7928    0.1692    0.4448 O   0  0  0  0  0  0  0  0  0  0  0  0
   -6.7869   -0.2329   -0.4909 C   0  0  0  0  0  0  0  0  0  0  0  0
   -3.5151    0.4648    0.9682 C   0  0  0  0  0  0  0  0  0  0  0  0
   -3.9726    1.3859    1.8737 O   0  0  0  0  0  0  0  0  0  0  0  0
   -3.0866    1.7645    2.9193 C   0  0  0  0  0  0  0  0  0  0  0  0
   -2.1664    0.1652    0.7705 C   0  0  0  0  0  0  0  0  0  0  0  0
   -1.7906   -0.7930   -0.1847 C   0  0  0  0  0  0  0  0  0  0  0  0
   -0.3538   -1.0997   -0.3734 C   0  0  0  0  0  0  0  0  0  0  0  0
    0.5715   -0.4633    0.2779 N   0  0  0  0  0  0  0  0  0  0  0  0
    1.8551   -0.8365    0.0243 N   0  0  0  0  0  0  0  0  0  0  0  0
    2.8763   -0.1647    0.6798 C   0  0  0  0  0  0  0  0  0  0  0  0
    2.7203    0.7383    1.5015 O   0  0  0  0  0  0  0  0  0  0  0  0
    4.2655   -0.6263    0.2981 C   0  0  0  0  0  0  0  0  0  0  0  0
    5.2007    0.5242    0.3388 N   0  0  0  0  0  4  0  0  0  0  0  0
    5.5075    1.1840   -0.8032 C   0  0  0  0  0  0  0  0  0  0  0  0
    6.3663    2.2793   -0.7808 C   0  0  0  0  0  0  0  0  0  0  0  0
    6.9003    2.7046    0.4274 C   0  0  0  0  0  0  0  0  0  0  0  0
    6.5642    2.0283    1.5929 C   0  0  0  0  0  0  0  0  0  0  0  0
    5.7043    0.9376    1.5278 C   0  0  0  0  0  0  0  0  0  0  0  0
   -3.7911   -2.3017   -3.3174 H   0  0  0  0  0  0  0  0  0  0  0  0
   -3.9472   -3.6353   -2.1013 H   0  0  0  0  0  0  0  0  0  0  0  0
   -2.7133   -3.7052   -3.3685 H   0  0  0  0  0  0  0  0  0  0  0  0
   -4.8704   -1.6560   -1.3393 H   0  0  0  0  0  0  0  0  0  0  0  0
   -6.9394   -1.3202   -0.4568 H   0  0  0  0  0  0  0  0  0  0  0  0
   -7.7291    0.2457   -0.2025 H   0  0  0  0  0  0  0  0  0  0  0  0
   -6.5402    0.1040   -1.5059 H   0  0  0  0  0  0  0  0  0  0  0  0
   -2.6810    0.8892    3.4367 H   0  0  0  0  0  0  0  0  0  0  0  0
   -3.6630    2.3404    3.6472 H   0  0  0  0  0  0  0  0  0  0  0  0
   -2.2892    2.4123    2.5408 H   0  0  0  0  0  0  0  0  0  0  0  0
   -1.3953    0.6700    1.3422 H   0  0  0  0  0  0  0  0  0  0  0  0
   -0.0946   -1.8901   -1.0988 H   0  0  0  0  0  0  0  0  0  0  0  0
    2.0064   -1.6407   -0.5779 H   0  0  0  0  0  0  0  0  0  0  0  0
    4.6194   -1.3793    1.0079 H   0  0  0  0  0  0  0  0  0  0  0  0
    4.2842   -1.0498   -0.7092 H   0  0  0  0  0  0  0  0  0  0  0  0
    5.0590    0.8377   -1.7292 H   0  0  0  0  0  0  0  0  0  0  0  0
    6.6068    2.8093   -1.7009 H   0  0  0  0  0  0  0  0  0  0  0  0
    7.5645    3.5673    0.4655 H   0  0  0  0  0  0  0  0  0  0  0  0
    6.9565    2.3628    2.5515 H   0  0  0  0  0  0  0  0  0  0  0  0
    5.3956    0.4040    2.4217 H   0  0  0  0  0  0  0  0  0  0  0  0
  1  2  1  0
  2  3  1  0
  3  4  2  0
  4  5  1  0
  5  6  1  0
  6  7  1  0
  5  8  2  0
  8  9  1  0
  9 10  1  0
  8 11  1  0
 11 12  2  0
 12 13  1  0
 13 14  2  3
 14 15  1  0
 15 16  1  0
 16 17  2  0
 16 18  1  0
 18 19  1  0
 19 20  2  0
 20 21  1  0
 21 22  2  0
 22 23  1  0
 23 24  2  0
 12  3  1  0
 24 19  1  0
  1 25  1  0
  1 26  1  0
  1 27  1  0
  4 28  1  0
  7 29  1  0
  7 30  1  0
  7 31  1  0
 10 32  1  0
 10 33  1  0
 10 34  1  0
 11 35  1  0
 13 36  1  0
 15 37  1  0
 18 38  1  0
 18 39  1  0
 20 40  1  0
 21 41  1  0
 22 42  1  0
 23 43  1  0
 24 44  1  0
M  CHG  1  19   1
M  END
$$$$
