
     RDKit          3D

 60 64  0  0  0  0  0  0  0  0999 V2000
    8.0981   -1.5439    1.3379 C   0  0  0  0  0  0  0  0  0  0  0  0
    6.8585   -0.8536    1.1980 O   0  0  0  0  0  0  0  0  0  0  0  0
    6.6942   -0.1360    0.0369 C   0  0  0  0  0  0  0  0  0  0  0  0
    7.7617    0.5304   -0.5872 C   0  0  0  0  0  0  0  0  0  0  0  0
    7.5511    1.2922   -1.7393 C   0  0  0  0  0  0  0  0  0  0  0  0
    6.2729    1.4046   -2.2708 C   0  0  0  0  0  0  0  0  0  0  0  0
    5.2017    0.7603   -1.6463 C   0  0  0  0  0  0  0  0  0  0  0  0
    5.3907   -0.0163   -0.4833 C   0  0  0  0  0  0  0  0  0  0  0  0
    4.2454   -0.6918    0.1356 C   0  0  0  0  0  0  0  0  0  0  0  0
    4.1990   -1.7306    0.9539 N   0  0  0  0  0  0  0  0  0  0  0  0
    2.8535   -1.9091    1.1808 C   0  0  0  0  0  0  0  0  0  0  0  0
    2.3931   -2.9382    2.0622 C   0  0  0  0  0  0  0  0  0  0  0  0
    1.9838   -3.7653    2.7790 N   0  0  0  0  0  0  0  0  0  0  0  0
    2.1048   -0.9750    0.4815 C   0  0  0  0  0  0  0  0  0  0  0  0
    0.7904   -0.6800    0.3080 N   0  0  0  0  0  0  0  0  0  0  0  0
   -0.2889   -1.5422    0.7940 C   0  0  0  0  0  0  0  0  0  0  0  0
   -1.5649   -1.4092   -0.0822 C   0  0  0  0  0  0  0  0  0  0  0  0
   -2.0717   -0.0327   -0.3349 N   0  0  0  0  0  0  0  0  0  0  0  0
   -3.4017    0.2164    0.2985 C   0  0  0  0  0  0  0  0  0  0  0  0
   -4.4952   -0.7524   -0.1826 C   0  0  0  0  0  0  0  0  0  0  0  0
   -5.4707   -1.2058    0.7224 C   0  0  0  0  0  0  0  0  0  0  0  0
   -6.4765   -2.0801    0.3072 C   0  0  0  0  0  0  0  0  0  0  0  0
   -6.5236   -2.5118   -1.0183 C   0  0  0  0  0  0  0  0  0  0  0  0
   -5.5747   -2.0607   -1.9318 C   0  0  0  0  0  0  0  0  0  0  0  0
   -4.5689   -1.1864   -1.5180 C   0  0  0  0  0  0  0  0  0  0  0  0
   -3.9029    1.6591    0.1357 C   0  0  0  0  0  0  0  0  0  0  0  0
   -3.9937    2.2667   -1.1301 C   0  0  0  0  0  0  0  0  0  0  0  0
   -4.4742    3.5712   -1.2657 C   0  0  0  0  0  0  0  0  0  0  0  0
   -4.8803    4.2860   -0.1396 C   0  0  0  0  0  0  0  0  0  0  0  0
   -4.8029    3.6979    1.1246 C   0  0  0  0  0  0  0  0  0  0  0  0
   -4.3168    2.3947    1.2631 C   0  0  0  0  0  0  0  0  0  0  0  0
   -1.0566    0.9715    0.0506 C   0  0  0  0  0  0  0  0  0  0  0  0
    0.3793    0.5690   -0.3564 C   0  0  0  0  0  0  0  0  0  0  0  0
    3.0095   -0.1856   -0.1883 O   0  0  0  0  0  0  0  0  0  0  0  0
    8.3973   -2.0442    0.4064 H   0  0  0  0  0  0  0  0  0  0  0  0
    8.8804   -0.8608    1.6838 H   0  0  0  0  0  0  0  0  0  0  0  0
    7.9658   -2.3141    2.1068 H   0  0  0  0  0  0  0  0  0  0  0  0
    8.7653    0.4881   -0.1767 H   0  0  0  0  0  0  0  0  0  0  0  0
    8.3843    1.8048   -2.2164 H   0  0  0  0  0  0  0  0  0  0  0  0
    6.1078    1.9975   -3.1697 H   0  0  0  0  0  0  0  0  0  0  0  0
    4.2105    0.8619   -2.0805 H   0  0  0  0  0  0  0  0  0  0  0  0
    0.0142   -2.5952    0.7681 H   0  0  0  0  0  0  0  0  0  0  0  0
   -0.5233   -1.2831    1.8372 H   0  0  0  0  0  0  0  0  0  0  0  0
   -1.3371   -1.8389   -1.0747 H   0  0  0  0  0  0  0  0  0  0  0  0
   -2.3361   -2.0643    0.3563 H   0  0  0  0  0  0  0  0  0  0  0  0
   -3.2666    0.0332    1.3754 H   0  0  0  0  0  0  0  0  0  0  0  0
   -5.4522   -0.8803    1.7625 H   0  0  0  0  0  0  0  0  0  0  0  0
   -7.2305   -2.4201    1.0160 H   0  0  0  0  0  0  0  0  0  0  0  0
   -7.3027   -3.1961   -1.3395 H   0  0  0  0  0  0  0  0  0  0  0  0
   -5.6083   -2.3981   -2.9628 H   0  0  0  0  0  0  0  0  0  0  0  0
   -3.8301   -0.8469   -2.2427 H   0  0  0  0  0  0  0  0  0  0  0  0
   -3.6843    1.7161   -2.0192 H   0  0  0  0  0  0  0  0  0  0  0  0
   -4.5430    4.0202   -2.2548 H   0  0  0  0  0  0  0  0  0  0  0  0
   -5.2631    5.2975   -0.2487 H   0  0  0  0  0  0  0  0  0  0  0  0
   -5.1338    4.2510    2.0024 H   0  0  0  0  0  0  0  0  0  0  0  0
   -4.2747    1.9513    2.2557 H   0  0  0  0  0  0  0  0  0  0  0  0
   -1.2729    1.9331   -0.4324 H   0  0  0  0  0  0  0  0  0  0  0  0
   -1.0769    1.1343    1.1376 H   0  0  0  0  0  0  0  0  0  0  0  0
    1.0448    1.3953   -0.0753 H   0  0  0  0  0  0  0  0  0  0  0  0
    0.4417    0.4445   -1.4471 H   0  0  0  0  0  0  0  0  0  0  0  0
  1  2  1  0
  2  3  1  0
  3  4  2  0
  4  5  1  0
  5  6  2  0
  6  7  1  0
  7  8  2  0
  8  9  1  0
  9 10  2  0
 10 11  1  0
 11 12  1  0
 12 13  3  0
 11 14  2  0
 14 15  1  0
 15 16  1  0
 16 17  1  0
 17 18  1  0
 18 19  1  0
 19 20  1  0
 20 21  2  0
 21 22  1  0
 22 23  2  0
 23 24  1  0
 24 25  2  0
 19 26  1  0
 26 27  2  0
 27 28  1  0
 28 29  2  0
 29 30  1  0
 30 31  2  0
 18 32  1  0
 32 33  1  0
 14 34  1  0
  8  3  1  0
 34  9  1  0
 33 15  1  0
 25 20  1  0
 31 26  1  0
  1 35  1  0
  1 36  1  0
  1 37  1  0
  4 38  1  0
  5 39  1  0
  6 40  1  0
  7 41  1  0
 16 42  1  0
 16 43  1  0
 17 44  1  0
 17 45  1  0
 19 46  1  0
 21 47  1  0
 22 48  1  0
 23 49  1  0
 24 50  1  0
 25 51  1  0
 27 52  1  0
 28 53  1  0
 29 54  1  0
 30 55  1  0
 31 56  1  0
 32 57  1  0
 32 58  1  0
 33 59  1  0
 33 60  1  0
M  END
$$$$
