
     RDKit          3D

 43 46  0  0  0  0  0  0  0  0999 V2000
    4.2137    3.0461    1.1025 C   0  0  0  0  0  0  0  0  0  0  0  0
    3.0247    2.2536    1.1022 O   0  0  0  0  0  0  0  0  0  0  0  0
    3.2562    0.9172    1.1399 C   0  0  0  0  0  0  0  0  0  0  0  0
    4.3522    0.3833    1.1913 O   0  0  0  0  0  0  0  0  0  0  0  0
    1.9664    0.1930    1.1160 C   0  0  0  0  0  0  0  0  0  0  0  0
    1.7696   -0.9257    1.8449 C   0  0  0  0  0  0  0  0  0  0  0  0
    2.7817   -1.5071    2.8002 C   0  0  0  0  0  0  0  0  0  0  0  0
    0.5814   -1.6280    1.8041 N   0  0  0  0  0  0  0  0  0  0  0  0
   -0.3939   -1.1098    1.1413 C   0  0  0  0  0  0  0  0  0  0  0  0
   -1.9833   -1.8118    1.1041 S   0  0  0  0  0  0  0  0  0  0  0  0
   -2.6294   -0.4819    0.2227 C   0  0  0  0  0  0  0  0  0  0  0  0
   -3.8821   -0.2646   -0.2040 C   0  0  0  0  0  0  0  0  0  0  0  0
   -5.0606   -1.0553   -0.0413 C   0  0  0  0  0  0  0  0  0  0  0  0
   -5.3583   -2.1246    0.8409 C   0  0  0  0  0  0  0  0  0  0  0  0
   -6.6532   -2.5049    0.5691 C   0  0  0  0  0  0  0  0  0  0  0  0
   -7.1770   -1.7351   -0.4169 O   0  0  0  0  0  0  0  0  0  0  0  0
   -6.2094   -0.8547   -0.7800 C   0  0  0  0  0  0  0  0  0  0  0  0
   -1.5425    0.5000   -0.0763 C   0  0  0  0  0  0  0  0  0  0  0  0
   -1.7212    1.5609   -0.6580 O   0  0  0  0  0  0  0  0  0  0  0  0
   -0.3487    0.0407    0.4214 N   0  0  0  0  0  0  0  0  0  0  0  0
    0.9100    0.7238    0.1846 C   0  0  0  0  0  0  0  0  0  0  0  0
    1.3242    0.5899   -1.2815 C   0  0  0  0  0  0  0  0  0  0  0  0
    1.3492    1.7258   -2.1071 C   0  0  0  0  0  0  0  0  0  0  0  0
    1.7209    1.6223   -3.4485 C   0  0  0  0  0  0  0  0  0  0  0  0
    2.0703    0.3845   -3.9831 C   0  0  0  0  0  0  0  0  0  0  0  0
    2.0452   -0.7527   -3.1794 C   0  0  0  0  0  0  0  0  0  0  0  0
    1.6722   -0.6539   -1.8380 C   0  0  0  0  0  0  0  0  0  0  0  0
    4.8234    2.8226    0.2214 H   0  0  0  0  0  0  0  0  0  0  0  0
    3.9188    4.0982    1.0614 H   0  0  0  0  0  0  0  0  0  0  0  0
    4.7837    2.8812    2.0222 H   0  0  0  0  0  0  0  0  0  0  0  0
    3.4225   -0.7435    3.2504 H   0  0  0  0  0  0  0  0  0  0  0  0
    3.4064   -2.2443    2.2862 H   0  0  0  0  0  0  0  0  0  0  0  0
    2.2776   -2.0121    3.6323 H   0  0  0  0  0  0  0  0  0  0  0  0
   -4.0351    0.6514   -0.7789 H   0  0  0  0  0  0  0  0  0  0  0  0
   -4.7330   -2.5770    1.5963 H   0  0  0  0  0  0  0  0  0  0  0  0
   -7.3117   -3.2615    0.9725 H   0  0  0  0  0  0  0  0  0  0  0  0
   -6.4870   -0.1648   -1.5654 H   0  0  0  0  0  0  0  0  0  0  0  0
    0.7184    1.7812    0.4092 H   0  0  0  0  0  0  0  0  0  0  0  0
    1.0670    2.7013   -1.7146 H   0  0  0  0  0  0  0  0  0  0  0  0
    1.7327    2.5084   -4.0783 H   0  0  0  0  0  0  0  0  0  0  0  0
    2.3595    0.3055   -5.0280 H   0  0  0  0  0  0  0  0  0  0  0  0
    2.3170   -1.7188   -3.5976 H   0  0  0  0  0  0  0  0  0  0  0  0
    1.6617   -1.5591   -1.2331 H   0  0  0  0  0  0  0  0  0  0  0  0
  1  2  1  0
  2  3  1  0
  3  4  2  0
  3  5  1  0
  5  6  2  0
  6  7  1  0
  6  8  1  0
  8  9  2  0
  9 10  1  0
 10 11  1  0
 11 12  2  3
 12 13  1  0
 13 14  1  0
 14 15  2  0
 15 16  1  0
 16 17  1  0
 11 18  1  0
 18 19  2  0
 18 20  1  0
 20 21  1  0
 21 22  1  0
 22 23  2  0
 23 24  1  0
 24 25  2  0
 25 26  1  0
 26 27  2  0
 21  5  1  0
 27 22  1  0
 20  9  1  0
 17 13  2  0
  1 28  1  0
  1 29  1  0
  1 30  1  0
  7 31  1  0
  7 32  1  0
  7 33  1  0
 12 34  1  0
 14 35  1  0
 15 36  1  0
 17 37  1  0
 21 38  1  0
 23 39  1  0
 24 40  1  0
 25 41  1  0
 26 42  1  0
 27 43  1  0
M  END
$$$$
