
     RDKit          3D

 41 42  0  0  0  0  0  0  0  0999 V2000
   -3.5726   -1.6150    0.0038 C   0  0  0  0  0  0  0  0  0  0  0  0
   -3.3307   -0.3805   -0.8538 C   0  0  0  0  0  0  0  0  0  0  0  0
   -2.5270    0.6272   -0.1308 N   0  0  0  0  0  0  0  0  0  0  0  0
   -3.2629    1.8648    0.1930 C   0  0  0  0  0  0  0  0  0  0  0  0
   -4.1041    1.6931    1.4481 C   0  0  0  0  0  0  0  0  0  0  0  0
   -1.1539    0.4610    0.1455 C   0  0  0  0  0  0  0  0  0  0  0  0
   -0.3635   -0.4558   -0.4517 C   0  0  0  0  0  0  0  0  0  0  0  0
    1.0593   -0.5653   -0.1892 C   0  0  0  0  0  0  0  0  0  0  0  0
    1.9076   -0.9384   -1.1663 C   0  0  0  0  0  0  0  0  0  0  0  0
    3.3676   -0.9481   -1.0181 C   0  0  0  0  0  0  0  0  0  0  0  0
    4.2065   -1.3488   -2.0083 C   0  0  0  0  0  0  0  0  0  0  0  0
    3.7337   -1.8027   -3.2751 C   0  0  0  0  0  0  0  0  0  0  0  0
    3.3390   -2.1709   -4.3028 N   0  0  0  0  0  0  0  0  0  0  0  0
    5.6209   -1.3576   -1.8224 C   0  0  0  0  0  0  0  0  0  0  0  0
    6.7694   -1.3601   -1.6549 N   0  0  0  0  0  0  0  0  0  0  0  0
    3.8905   -0.4543    0.3284 C   0  0  0  0  0  0  0  0  0  0  0  0
    2.9267    0.4868    1.0604 C   0  0  0  0  0  0  0  0  0  0  0  0
    1.5502   -0.1732    1.1848 C   0  0  0  0  0  0  0  0  0  0  0  0
    0.5661    0.6816    1.9953 C   0  0  0  0  0  0  0  0  0  0  0  0
   -0.4877    1.3931    1.1496 C   0  0  0  0  0  0  0  0  0  0  0  0
   -4.2074   -2.3271   -0.5329 H   0  0  0  0  0  0  0  0  0  0  0  0
   -4.0729   -1.3540    0.9416 H   0  0  0  0  0  0  0  0  0  0  0  0
   -2.6383   -2.1248    0.2569 H   0  0  0  0  0  0  0  0  0  0  0  0
   -2.8448   -0.6551   -1.7967 H   0  0  0  0  0  0  0  0  0  0  0  0
   -4.3064    0.0332   -1.1371 H   0  0  0  0  0  0  0  0  0  0  0  0
   -2.5791    2.7125    0.3143 H   0  0  0  0  0  0  0  0  0  0  0  0
   -3.9125    2.1440   -0.6460 H   0  0  0  0  0  0  0  0  0  0  0  0
   -4.8891    0.9452    1.2985 H   0  0  0  0  0  0  0  0  0  0  0  0
   -3.4963    1.3729    2.2999 H   0  0  0  0  0  0  0  0  0  0  0  0
   -4.5894    2.6386    1.7097 H   0  0  0  0  0  0  0  0  0  0  0  0
   -0.7596   -1.0982   -1.2312 H   0  0  0  0  0  0  0  0  0  0  0  0
    1.4875   -1.1986   -2.1377 H   0  0  0  0  0  0  0  0  0  0  0  0
    4.8422    0.0772    0.2136 H   0  0  0  0  0  0  0  0  0  0  0  0
    4.0826   -1.3291    0.9639 H   0  0  0  0  0  0  0  0  0  0  0  0
    2.8498    1.4403    0.5210 H   0  0  0  0  0  0  0  0  0  0  0  0
    3.3320    0.7116    2.0543 H   0  0  0  0  0  0  0  0  0  0  0  0
    1.6880   -1.1039    1.7560 H   0  0  0  0  0  0  0  0  0  0  0  0
    1.0940    1.4109    2.6215 H   0  0  0  0  0  0  0  0  0  0  0  0
    0.0392    0.0182    2.6964 H   0  0  0  0  0  0  0  0  0  0  0  0
   -1.2167    1.8132    1.8495 H   0  0  0  0  0  0  0  0  0  0  0  0
   -0.0375    2.2359    0.6102 H   0  0  0  0  0  0  0  0  0  0  0  0
  1  2  1  0
  2  3  1  0
  3  4  1  0
  4  5  1  0
  3  6  1  0
  6  7  2  0
  7  8  1  0
  8  9  2  0
  9 10  1  0
 10 11  2  3
 11 12  1  0
 12 13  3  0
 11 14  1  0
 14 15  3  0
 10 16  1  0
 16 17  1  0
 17 18  1  0
 18 19  1  0
 19 20  1  0
 20  6  1  0
 18  8  1  0
  1 21  1  0
  1 22  1  0
  1 23  1  0
  2 24  1  0
  2 25  1  0
  4 26  1  0
  4 27  1  0
  5 28  1  0
  5 29  1  0
  5 30  1  0
  7 31  1  0
  9 32  1  0
 16 33  1  0
 16 34  1  0
 17 35  1  0
 17 36  1  0
 18 37  1  0
 19 38  1  0
 19 39  1  0
 20 40  1  0
 20 41  1  0
M  END
$$$$
