
     RDKit          3D

 36 37  0  0  0  0  0  0  0  0999 V2000
   -3.0668   -2.7716    1.4845 C   0  0  0  0  0  0  0  0  0  0  0  0
   -2.2501   -1.6818    0.7940 C   0  0  0  0  0  0  0  0  0  0  0  0
   -3.0298   -0.3583    0.7466 C   0  0  0  0  0  0  0  0  0  0  0  0
   -2.1026    0.8656    0.6763 C   0  0  0  0  0  0  0  0  0  0  0  0
   -2.8055    2.0421    0.0055 C   0  0  0  0  0  0  0  0  0  0  0  0
   -0.7942    0.5225   -0.0372 C   0  0  0  0  0  0  0  0  0  0  0  0
   -0.0450   -0.5488    0.6801 N   0  0  0  0  0  0  0  0  0  0  0  0
    1.3549   -0.0346    1.5156 S   0  0  0  0  0  6  0  0  0  0  0  0
    0.9970    1.1285    2.2970 O   0  0  0  0  0  0  0  0  0  0  0  0
    1.9787   -1.1977    2.1063 O   0  0  0  0  0  0  0  0  0  0  0  0
    2.5118    0.5020    0.2764 C   0  0  0  0  0  0  0  0  0  0  0  0
    2.7065    0.1037   -1.0328 C   0  0  0  0  0  0  0  0  0  0  0  0
    3.8028    0.7829   -1.6825 C   0  0  0  0  0  0  0  0  0  0  0  0
    4.2041    0.5010   -3.0526 C   0  0  0  0  0  0  0  0  0  0  0  0
    3.6423   -0.3059   -3.7824 O   0  0  0  0  0  0  0  0  0  0  0  0
    5.2750    1.1741   -3.5129 O   0  0  0  0  0  0  0  0  0  0  0  0
    4.3671    1.6833   -0.8013 C   0  0  0  0  0  0  0  0  0  0  0  0
    5.6854    2.7695   -1.0365 Cl  0  0  0  0  0  0  0  0  0  0  0  0
    3.6344    1.7040    0.7341 S   0  0  0  0  0  0  0  0  0  0  0  0
   -0.8927   -1.4852    1.4740 C   0  0  0  0  0  0  0  0  0  0  0  0
   -2.5413   -3.7323    1.4466 H   0  0  0  0  0  0  0  0  0  0  0  0
   -4.0346   -2.9014    0.9892 H   0  0  0  0  0  0  0  0  0  0  0  0
   -3.2511   -2.5254    2.5365 H   0  0  0  0  0  0  0  0  0  0  0  0
   -2.0726   -2.0066   -0.2412 H   0  0  0  0  0  0  0  0  0  0  0  0
   -3.6743   -0.2511    1.6284 H   0  0  0  0  0  0  0  0  0  0  0  0
   -3.7070   -0.3832   -0.1171 H   0  0  0  0  0  0  0  0  0  0  0  0
   -1.8649    1.1690    1.7040 H   0  0  0  0  0  0  0  0  0  0  0  0
   -2.1680    2.9320    0.0148 H   0  0  0  0  0  0  0  0  0  0  0  0
   -3.0520    1.8171   -1.0361 H   0  0  0  0  0  0  0  0  0  0  0  0
   -3.7343    2.2883    0.5301 H   0  0  0  0  0  0  0  0  0  0  0  0
   -0.1795    1.4211   -0.1475 H   0  0  0  0  0  0  0  0  0  0  0  0
   -0.9915    0.1692   -1.0580 H   0  0  0  0  0  0  0  0  0  0  0  0
    2.0999   -0.6625   -1.5082 H   0  0  0  0  0  0  0  0  0  0  0  0
    5.4019    0.8237   -4.4206 H   0  0  0  0  0  0  0  0  0  0  0  0
   -0.3731   -2.4509    1.5329 H   0  0  0  0  0  0  0  0  0  0  0  0
   -1.0308   -1.1025    2.4925 H   0  0  0  0  0  0  0  0  0  0  0  0
  1  2  1  0
  2  3  1  0
  3  4  1  0
  4  5  1  0
  4  6  1  0
  6  7  1  0
  7  8  1  0
  8  9  2  0
  8 10  2  0
  8 11  1  0
 11 12  2  0
 12 13  1  0
 13 14  1  0
 14 15  2  0
 14 16  1  0
 13 17  2  0
 17 18  1  0
 17 19  1  0
  7 20  1  0
 20  2  1  0
 19 11  1  0
  1 21  1  0
  1 22  1  0
  1 23  1  0
  2 24  1  0
  3 25  1  0
  3 26  1  0
  4 27  1  0
  5 28  1  0
  5 29  1  0
  5 30  1  0
  6 31  1  0
  6 32  1  0
 12 33  1  0
 16 34  1  0
 20 35  1  0
 20 36  1  0
M  END
$$$$
