
     RDKit          3D

 47 49  0  0  0  0  0  0  0  0999 V2000
    0.7884    1.6094   -3.1869 O   0  0  0  0  0  0  0  0  0  0  0  0
    0.7334    1.4758   -1.9681 C   0  0  0  0  0  0  0  0  0  0  0  0
    1.2879    2.5348   -1.0319 C   0  0  0  0  0  0  0  0  0  0  0  0
    2.6280    3.0824   -1.5115 C   0  0  0  0  0  0  0  0  0  0  0  0
    3.9853    1.8490   -1.4339 S   0  0  0  0  0  0  0  0  0  0  0  0
    4.0830    1.5945    0.3279 C   0  0  0  0  0  0  0  0  0  0  0  0
    4.5799    2.5912    1.1718 C   0  0  0  0  0  0  0  0  0  0  0  0
    4.6492    2.3759    2.5492 C   0  0  0  0  0  0  0  0  0  0  0  0
    4.2236    1.1619    3.0898 C   0  0  0  0  0  0  0  0  0  0  0  0
    3.7326    0.1620    2.2517 C   0  0  0  0  0  0  0  0  0  0  0  0
    3.6703    0.3753    0.8720 C   0  0  0  0  0  0  0  0  0  0  0  0
    0.1260    0.4374   -1.2899 N   0  0  0  0  0  0  0  0  0  0  0  0
   -0.3853   -0.7723   -1.8225 C   0  0  0  0  0  0  0  0  0  0  0  0
   -0.1900   -1.1522   -3.1546 C   0  0  0  0  0  0  0  0  0  0  0  0
   -0.6371   -2.3945   -3.6194 C   0  0  0  0  0  0  0  0  0  0  0  0
   -1.2727   -3.2821   -2.7578 C   0  0  0  0  0  0  0  0  0  0  0  0
   -1.4901   -2.9187   -1.4308 C   0  0  0  0  0  0  0  0  0  0  0  0
   -1.0816   -1.6581   -0.9716 C   0  0  0  0  0  0  0  0  0  0  0  0
   -1.3544   -1.2791    0.4382 C   0  0  0  0  0  0  0  0  0  0  0  0
   -0.4118   -0.8675    1.1147 O   0  0  0  0  0  0  0  0  0  0  0  0
   -2.6557   -1.3363    0.9138 N   0  0  0  0  0  0  0  0  0  0  0  0
   -3.8759   -1.4496    0.1173 C   0  0  0  0  0  0  0  0  0  0  0  0
   -5.0039   -1.3664    1.1330 C   0  0  0  0  0  0  0  0  0  0  0  0
   -4.4183   -0.4675    2.2122 C   0  0  0  0  0  0  0  0  0  0  0  0
   -2.9626   -0.9031    2.2682 C   0  0  0  0  0  0  0  0  0  0  0  0
    1.3629    2.1590   -0.0049 H   0  0  0  0  0  0  0  0  0  0  0  0
    0.5500    3.3470   -1.0090 H   0  0  0  0  0  0  0  0  0  0  0  0
    2.9106    3.9549   -0.9138 H   0  0  0  0  0  0  0  0  0  0  0  0
    2.5585    3.4197   -2.5529 H   0  0  0  0  0  0  0  0  0  0  0  0
    4.9263    3.5374    0.7629 H   0  0  0  0  0  0  0  0  0  0  0  0
    5.0442    3.1515    3.2008 H   0  0  0  0  0  0  0  0  0  0  0  0
    4.2839    0.9899    4.1622 H   0  0  0  0  0  0  0  0  0  0  0  0
    3.4032   -0.7864    2.6686 H   0  0  0  0  0  0  0  0  0  0  0  0
    3.2869   -0.4151    0.2305 H   0  0  0  0  0  0  0  0  0  0  0  0
    0.0964    0.4965   -0.2693 H   0  0  0  0  0  0  0  0  0  0  0  0
    0.3409   -0.5154   -3.8559 H   0  0  0  0  0  0  0  0  0  0  0  0
   -0.4600   -2.6751   -4.6545 H   0  0  0  0  0  0  0  0  0  0  0  0
   -1.5914   -4.2569   -3.1175 H   0  0  0  0  0  0  0  0  0  0  0  0
   -1.9647   -3.6240   -0.7528 H   0  0  0  0  0  0  0  0  0  0  0  0
   -3.9044   -0.6101   -0.5842 H   0  0  0  0  0  0  0  0  0  0  0  0
   -3.9115   -2.3854   -0.4393 H   0  0  0  0  0  0  0  0  0  0  0  0
   -5.9303   -0.9767    0.7026 H   0  0  0  0  0  0  0  0  0  0  0  0
   -5.2093   -2.3576    1.5500 H   0  0  0  0  0  0  0  0  0  0  0  0
   -4.4834    0.5789    1.8937 H   0  0  0  0  0  0  0  0  0  0  0  0
   -4.9259   -0.5660    3.1746 H   0  0  0  0  0  0  0  0  0  0  0  0
   -2.3006   -0.0997    2.6014 H   0  0  0  0  0  0  0  0  0  0  0  0
   -2.8306   -1.7688    2.9258 H   0  0  0  0  0  0  0  0  0  0  0  0
  1  2  2  0
  2  3  1  0
  3  4  1  0
  4  5  1  0
  5  6  1  0
  6  7  2  0
  7  8  1  0
  8  9  2  0
  9 10  1  0
 10 11  2  0
  2 12  1  0
 12 13  1  0
 13 14  2  0
 14 15  1  0
 15 16  2  0
 16 17  1  0
 17 18  2  0
 18 19  1  0
 19 20  2  0
 19 21  1  0
 21 22  1  0
 22 23  1  0
 23 24  1  0
 24 25  1  0
 11  6  1  0
 18 13  1  0
 25 21  1  0
  3 26  1  0
  3 27  1  0
  4 28  1  0
  4 29  1  0
  7 30  1  0
  8 31  1  0
  9 32  1  0
 10 33  1  0
 11 34  1  0
 12 35  1  0
 14 36  1  0
 15 37  1  0
 16 38  1  0
 17 39  1  0
 22 40  1  0
 22 41  1  0
 23 42  1  0
 23 43  1  0
 24 44  1  0
 24 45  1  0
 25 46  1  0
 25 47  1  0
M  END
$$$$
