
     RDKit          3D

 61 65  0  0  0  0  0  0  0  0999 V2000
    2.5611    4.8496    2.9204 C   0  0  0  0  0  0  0  0  0  0  0  0
    3.1145    3.5539    2.7237 O   0  0  0  0  0  0  0  0  0  0  0  0
    2.7220    2.8858    1.5970 C   0  0  0  0  0  0  0  0  0  0  0  0
    3.4743    1.7496    1.2957 C   0  0  0  0  0  0  0  0  0  0  0  0
    3.1810    0.9725    0.1707 C   0  0  0  0  0  0  0  0  0  0  0  0
    2.1056    1.3057   -0.6618 C   0  0  0  0  0  0  0  0  0  0  0  0
    1.7523    0.5196   -1.9092 C   0  0  0  0  0  0  0  0  0  0  0  0
    2.2401   -0.8544   -1.9556 N   0  0  0  0  0  0  0  0  0  0  0  0
    3.3709   -1.1008   -2.7448 C   0  0  0  0  0  0  0  0  0  0  0  0
    3.9679   -0.2183   -3.3676 O   0  0  0  0  0  0  0  0  0  0  0  0
    3.7996   -2.5660   -2.9078 C   0  0  0  0  0  0  0  0  0  0  0  0
    3.1255   -3.1840   -4.1298 C   0  0  0  0  0  0  0  0  0  0  0  0
    3.5364   -3.3498   -1.7106 N   0  0  0  0  0  0  0  0  0  0  0  0
    2.2688   -3.1709   -1.1636 C   0  0  0  0  0  0  0  0  0  0  0  0
    1.7773   -4.2652   -0.5631 N   0  0  0  0  0  0  0  0  0  0  0  0
    0.5933   -4.1205    0.0267 C   0  0  0  0  0  0  0  0  0  0  0  0
   -0.1256   -2.9969    0.0711 N   0  0  0  0  0  0  0  0  0  0  0  0
    0.3945   -1.8967   -0.5241 C   0  0  0  0  0  0  0  0  0  0  0  0
   -0.3933   -0.7284   -0.4464 N   0  0  0  0  0  0  0  0  0  0  0  0
   -0.5731   -0.3356    0.9795 C   0  0  0  0  0  0  0  0  0  0  0  0
   -1.7229    0.6830    1.1477 C   0  0  0  0  0  0  0  0  0  0  0  0
   -3.0074    0.1332    0.6614 N   0  0  0  0  0  0  0  0  0  0  0  0
   -4.1961    0.4750    1.2886 C   0  0  0  0  0  0  0  0  0  0  0  0
   -5.3059   -0.3848    1.3166 C   0  0  0  0  0  0  0  0  0  0  0  0
   -6.5062   -0.0284    1.9448 C   0  0  0  0  0  0  0  0  0  0  0  0
   -6.6306    1.2109    2.5598 C   0  0  0  0  0  0  0  0  0  0  0  0
   -5.5555    2.0900    2.5426 C   0  0  0  0  0  0  0  0  0  0  0  0
   -4.3594    1.7233    1.9134 C   0  0  0  0  0  0  0  0  0  0  0  0
   -2.9078   -1.0345   -0.2353 C   0  0  0  0  0  0  0  0  0  0  0  0
   -1.6819   -0.9103   -1.1682 C   0  0  0  0  0  0  0  0  0  0  0  0
    1.6182   -1.9294   -1.2127 C   0  0  0  0  0  0  0  0  0  0  0  0
    1.3624    2.4585   -0.3576 C   0  0  0  0  0  0  0  0  0  0  0  0
    1.6607    3.2380    0.7660 C   0  0  0  0  0  0  0  0  0  0  0  0
    1.4914    4.7885    3.1450 H   0  0  0  0  0  0  0  0  0  0  0  0
    2.7479    5.4987    2.0571 H   0  0  0  0  0  0  0  0  0  0  0  0
    3.0585    5.2974    3.7862 H   0  0  0  0  0  0  0  0  0  0  0  0
    4.3075    1.4710    1.9360 H   0  0  0  0  0  0  0  0  0  0  0  0
    3.8069    0.1099   -0.0425 H   0  0  0  0  0  0  0  0  0  0  0  0
    2.1788    1.0835   -2.7493 H   0  0  0  0  0  0  0  0  0  0  0  0
    0.6782    0.5309   -2.1108 H   0  0  0  0  0  0  0  0  0  0  0  0
    4.8859   -2.5666   -3.0615 H   0  0  0  0  0  0  0  0  0  0  0  0
    3.3839   -2.6253   -5.0358 H   0  0  0  0  0  0  0  0  0  0  0  0
    2.0328   -3.1771   -4.0456 H   0  0  0  0  0  0  0  0  0  0  0  0
    3.4436   -4.2235   -4.2669 H   0  0  0  0  0  0  0  0  0  0  0  0
    3.7536   -4.3405   -1.7424 H   0  0  0  0  0  0  0  0  0  0  0  0
    0.1748   -4.9935    0.5162 H   0  0  0  0  0  0  0  0  0  0  0  0
   -0.7988   -1.2010    1.6173 H   0  0  0  0  0  0  0  0  0  0  0  0
    0.3558    0.1043    1.3564 H   0  0  0  0  0  0  0  0  0  0  0  0
   -1.7791    0.9389    2.2129 H   0  0  0  0  0  0  0  0  0  0  0  0
   -1.4980    1.5976    0.5866 H   0  0  0  0  0  0  0  0  0  0  0  0
   -5.2548   -1.3709    0.8660 H   0  0  0  0  0  0  0  0  0  0  0  0
   -7.3390   -0.7263    1.9522 H   0  0  0  0  0  0  0  0  0  0  0  0
   -7.5600    1.4911    3.0467 H   0  0  0  0  0  0  0  0  0  0  0  0
   -5.6422    3.0659    3.0119 H   0  0  0  0  0  0  0  0  0  0  0  0
   -3.5541    2.4525    1.9003 H   0  0  0  0  0  0  0  0  0  0  0  0
   -2.8427   -1.9537    0.3598 H   0  0  0  0  0  0  0  0  0  0  0  0
   -3.7958   -1.1035   -0.8753 H   0  0  0  0  0  0  0  0  0  0  0  0
   -1.8174   -0.0191   -1.7952 H   0  0  0  0  0  0  0  0  0  0  0  0
   -1.6533   -1.7634   -1.8593 H   0  0  0  0  0  0  0  0  0  0  0  0
    0.5318    2.7533   -0.9964 H   0  0  0  0  0  0  0  0  0  0  0  0
    1.0430    4.1073    0.9634 H   0  0  0  0  0  0  0  0  0  0  0  0
  1  2  1  0
  2  3  1  0
  3  4  2  0
  4  5  1  0
  5  6  2  0
  6  7  1  0
  7  8  1  0
  8  9  1  0
  9 10  2  0
  9 11  1  0
 11 12  1  0
 11 13  1  0
 13 14  1  0
 14 15  2  0
 15 16  1  0
 16 17  2  0
 17 18  1  0
 18 19  1  0
 19 20  1  0
 20 21  1  0
 21 22  1  0
 22 23  1  0
 23 24  2  0
 24 25  1  0
 25 26  2  0
 26 27  1  0
 27 28  2  0
 22 29  1  0
 29 30  1  0
 18 31  2  0
  6 32  1  0
 32 33  2  0
 33  3  1  0
 31  8  1  0
 31 14  1  0
 30 19  1  0
 28 23  1  0
  1 34  1  0
  1 35  1  0
  1 36  1  0
  4 37  1  0
  5 38  1  0
  7 39  1  0
  7 40  1  0
 11 41  1  0
 12 42  1  0
 12 43  1  0
 12 44  1  0
 13 45  1  0
 16 46  1  0
 20 47  1  0
 20 48  1  0
 21 49  1  0
 21 50  1  0
 24 51  1  0
 25 52  1  0
 26 53  1  0
 27 54  1  0
 28 55  1  0
 29 56  1  0
 29 57  1  0
 30 58  1  0
 30 59  1  0
 32 60  1  0
 33 61  1  0
M  END
$$$$
