
     RDKit          3D

 39 40  0  0  0  0  0  0  0  0999 V2000
   -0.0814   -1.6007    3.1106 C   0  0  0  0  0  0  0  0  0  0  0  0
    0.3751   -0.3743    2.3281 C   0  0  0  0  0  0  0  0  0  0  0  0
    1.1565   -0.7567    1.0615 C   0  0  0  0  0  0  0  0  0  0  0  0
    1.8395    0.7383    0.2311 S   0  0  0  0  0  0  0  0  0  0  0  0
    3.2487    1.0361    1.1838 C   0  0  0  0  0  0  0  0  0  0  0  0
    3.5832    0.4449    2.3073 N   0  0  0  0  0  0  0  0  0  0  0  0
    4.7687    0.9982    2.7360 N   0  0  0  0  0  0  0  0  0  0  0  0
    5.1235    1.9055    1.8553 C   0  0  0  0  0  0  0  0  0  0  0  0
    4.1940    1.9653    0.8603 N   0  0  0  0  0  0  0  0  0  0  0  0
    4.2360    2.8381   -0.2811 C   0  0  0  0  0  0  0  0  0  0  0  0
    0.2741   -1.5048    0.0485 C   0  0  0  0  0  0  0  0  0  0  0  0
    0.5316   -2.6675   -0.2595 O   0  0  0  0  0  0  0  0  0  0  0  0
   -0.7976   -0.7678   -0.4189 N   0  0  0  0  0  0  0  0  0  0  0  0
   -1.8336   -1.1670   -1.2902 C   0  0  0  0  0  0  0  0  0  0  0  0
   -1.9629   -2.4611   -1.7971 C   0  0  0  0  0  0  0  0  0  0  0  0
   -3.0230   -2.7805   -2.6481 C   0  0  0  0  0  0  0  0  0  0  0  0
   -3.9605   -1.8105   -2.9926 C   0  0  0  0  0  0  0  0  0  0  0  0
   -3.8432   -0.5125   -2.4910 C   0  0  0  0  0  0  0  0  0  0  0  0
   -2.7823   -0.1820   -1.6425 C   0  0  0  0  0  0  0  0  0  0  0  0
   -2.5707    1.0633   -1.0935 O   0  0  0  0  0  0  0  0  0  0  0  0
   -3.4646    2.0993   -1.4841 C   0  0  0  0  0  0  0  0  0  0  0  0
   -0.7813   -2.2084    2.5296 H   0  0  0  0  0  0  0  0  0  0  0  0
    0.7720   -2.2274    3.3891 H   0  0  0  0  0  0  0  0  0  0  0  0
   -0.5900   -1.2924    4.0297 H   0  0  0  0  0  0  0  0  0  0  0  0
   -0.5064    0.2313    2.0865 H   0  0  0  0  0  0  0  0  0  0  0  0
    0.9987    0.2314    2.9952 H   0  0  0  0  0  0  0  0  0  0  0  0
    1.9878   -1.4256    1.3142 H   0  0  0  0  0  0  0  0  0  0  0  0
    6.0112    2.5210    1.8979 H   0  0  0  0  0  0  0  0  0  0  0  0
    3.3349    3.4567   -0.2867 H   0  0  0  0  0  0  0  0  0  0  0  0
    5.1165    3.4830   -0.2136 H   0  0  0  0  0  0  0  0  0  0  0  0
    4.2957    2.2320   -1.1886 H   0  0  0  0  0  0  0  0  0  0  0  0
   -0.8432    0.2131   -0.1572 H   0  0  0  0  0  0  0  0  0  0  0  0
   -1.2566   -3.2456   -1.5449 H   0  0  0  0  0  0  0  0  0  0  0  0
   -3.1146   -3.7913   -3.0380 H   0  0  0  0  0  0  0  0  0  0  0  0
   -4.7864   -2.0667   -3.6518 H   0  0  0  0  0  0  0  0  0  0  0  0
   -4.5971    0.2119   -2.7787 H   0  0  0  0  0  0  0  0  0  0  0  0
   -3.4295    2.2647   -2.5661 H   0  0  0  0  0  0  0  0  0  0  0  0
   -4.4837    1.8862   -1.1457 H   0  0  0  0  0  0  0  0  0  0  0  0
   -3.1389    3.0221   -0.9950 H   0  0  0  0  0  0  0  0  0  0  0  0
  1  2  1  0
  2  3  1  0
  3  4  1  0
  4  5  1  0
  5  6  2  0
  6  7  1  0
  7  8  2  0
  8  9  1  0
  9 10  1  0
  3 11  1  0
 11 12  2  0
 11 13  1  0
 13 14  1  0
 14 15  2  0
 15 16  1  0
 16 17  2  0
 17 18  1  0
 18 19  2  0
 19 20  1  0
 20 21  1  0
  9  5  1  0
 19 14  1  0
  1 22  1  0
  1 23  1  0
  1 24  1  0
  2 25  1  0
  2 26  1  0
  3 27  1  0
  8 28  1  0
 10 29  1  0
 10 30  1  0
 10 31  1  0
 13 32  1  0
 15 33  1  0
 16 34  1  0
 17 35  1  0
 18 36  1  0
 21 37  1  0
 21 38  1  0
 21 39  1  0
M  END
$$$$
