
     RDKit          3D

 51 53  0  0  0  0  0  0  0  0999 V2000
   -2.5610    2.5248   -1.8690 O   0  0  0  0  0  0  0  0  0  0  0  0
   -2.7555    1.6698   -1.0060 C   0  0  0  0  0  0  0  0  0  0  0  0
   -1.7060    1.3804    0.0813 C   0  0  0  0  0  0  0  0  0  0  0  0
   -2.1195    0.3024    0.9338 O   0  0  0  0  0  0  0  0  0  0  0  0
   -1.4925    0.2581    2.1340 C   0  0  0  0  0  0  0  0  0  0  0  0
   -0.6516    1.0538    2.5294 O   0  0  0  0  0  0  0  0  0  0  0  0
   -1.9689   -0.9174    2.9433 C   0  0  0  0  0  0  0  0  0  0  0  0
   -0.9955   -2.0886    2.8663 C   0  0  0  0  0  0  0  0  0  0  0  0
    0.3460   -1.7700    3.3679 N   0  0  0  0  0  0  0  0  0  0  0  0
    1.3327   -1.4310    2.4519 C   0  0  0  0  0  0  0  0  0  0  0  0
    1.1823   -1.4424    1.2375 O   0  0  0  0  0  0  0  0  0  0  0  0
    2.5918   -1.0463    3.1522 C   0  0  0  0  0  0  0  0  0  0  0  0
    3.7612   -0.6591    2.6185 C   0  0  0  0  0  0  0  0  0  0  0  0
    4.0847   -0.5253    1.2114 C   0  0  0  0  0  0  0  0  0  0  0  0
    5.2946   -0.1189    0.7862 C   0  0  0  0  0  0  0  0  0  0  0  0
    5.6628    0.0159   -0.6320 C   0  0  0  0  0  0  0  0  0  0  0  0
    5.2832   -0.9315   -1.5925 C   0  0  0  0  0  0  0  0  0  0  0  0
    5.6927   -0.7966   -2.9239 C   0  0  0  0  0  0  0  0  0  0  0  0
    6.4927    0.2791   -3.3032 C   0  0  0  0  0  0  0  0  0  0  0  0
    6.8841    1.2221   -2.3547 C   0  0  0  0  0  0  0  0  0  0  0  0
    6.4737    1.0913   -1.0273 C   0  0  0  0  0  0  0  0  0  0  0  0
    2.3587   -1.1647    4.8636 S   0  0  0  0  0  0  0  0  0  0  0  0
    0.6915   -1.6974    4.7041 C   0  0  0  0  0  0  0  0  0  0  0  0
   -0.2572   -2.0507    6.0315 S   0  0  0  0  0  0  0  0  0  0  0  0
   -3.8948    0.8996   -0.8695 N   0  0  0  0  0  0  0  0  0  0  0  0
   -5.0633    0.9211   -1.6539 C   0  0  0  0  0  0  0  0  0  0  0  0
   -5.2538    1.7451   -2.7628 C   0  0  0  0  0  0  0  0  0  0  0  0
   -6.4592    1.6871   -3.4688 C   0  0  0  0  0  0  0  0  0  0  0  0
   -6.6393    2.4781   -4.5320 F   0  0  0  0  0  0  0  0  0  0  0  0
   -7.4836    0.8196   -3.0854 C   0  0  0  0  0  0  0  0  0  0  0  0
   -7.3028   -0.0072   -1.9754 C   0  0  0  0  0  0  0  0  0  0  0  0
   -6.1004    0.0520   -1.2738 C   0  0  0  0  0  0  0  0  0  0  0  0
   -5.9457   -0.7272   -0.1912 F   0  0  0  0  0  0  0  0  0  0  0  0
   -1.5760    2.3056    0.6560 H   0  0  0  0  0  0  0  0  0  0  0  0
   -0.7723    1.0921   -0.4176 H   0  0  0  0  0  0  0  0  0  0  0  0
   -2.1160   -0.5699    3.9728 H   0  0  0  0  0  0  0  0  0  0  0  0
   -2.9565   -1.2257    2.5833 H   0  0  0  0  0  0  0  0  0  0  0  0
   -0.9197   -2.4358    1.8297 H   0  0  0  0  0  0  0  0  0  0  0  0
   -1.3961   -2.9267    3.4481 H   0  0  0  0  0  0  0  0  0  0  0  0
    4.5760   -0.4103    3.3037 H   0  0  0  0  0  0  0  0  0  0  0  0
    3.3149   -0.7604    0.4829 H   0  0  0  0  0  0  0  0  0  0  0  0
    6.0784    0.1426    1.4952 H   0  0  0  0  0  0  0  0  0  0  0  0
    4.6746   -1.7883   -1.3158 H   0  0  0  0  0  0  0  0  0  0  0  0
    5.3922   -1.5368   -3.6607 H   0  0  0  0  0  0  0  0  0  0  0  0
    6.8136    0.3809   -4.3366 H   0  0  0  0  0  0  0  0  0  0  0  0
    7.5072    2.0637   -2.6507 H   0  0  0  0  0  0  0  0  0  0  0  0
    6.7889    1.8399   -0.3038 H   0  0  0  0  0  0  0  0  0  0  0  0
   -3.8958    0.2442   -0.0900 H   0  0  0  0  0  0  0  0  0  0  0  0
   -4.4975    2.4372   -3.1115 H   0  0  0  0  0  0  0  0  0  0  0  0
   -8.4095    0.8016   -3.6532 H   0  0  0  0  0  0  0  0  0  0  0  0
   -8.0883   -0.6798   -1.6451 H   0  0  0  0  0  0  0  0  0  0  0  0
  1  2  2  0
  2  3  1  0
  3  4  1  0
  4  5  1  0
  5  6  2  0
  5  7  1  0
  7  8  1  0
  8  9  1  0
  9 10  1  0
 10 11  2  0
 10 12  1  0
 12 13  2  3
 13 14  1  0
 14 15  2  3
 15 16  1  0
 16 17  2  0
 17 18  1  0
 18 19  2  0
 19 20  1  0
 20 21  2  0
 12 22  1  0
 22 23  1  0
 23 24  2  0
  2 25  1  0
 25 26  1  0
 26 27  2  0
 27 28  1  0
 28 29  1  0
 28 30  2  0
 30 31  1  0
 31 32  2  0
 32 33  1  0
 23  9  1  0
 32 26  1  0
 21 16  1  0
  3 34  1  0
  3 35  1  0
  7 36  1  0
  7 37  1  0
  8 38  1  0
  8 39  1  0
 13 40  1  0
 14 41  1  0
 15 42  1  0
 17 43  1  0
 18 44  1  0
 19 45  1  0
 20 46  1  0
 21 47  1  0
 25 48  1  0
 27 49  1  0
 30 50  1  0
 31 51  1  0
M  END
$$$$
