
     RDKit          3D

 54 56  0  0  0  0  0  0  0  0999 V2000
    6.8101    2.1700   -0.9627 C   0  0  0  0  0  0  0  0  0  0  0  0
    5.9822    1.7600    0.1179 O   0  0  0  0  0  0  0  0  0  0  0  0
    5.1705    0.6810   -0.1006 C   0  0  0  0  0  0  0  0  0  0  0  0
    4.3800    0.3151    0.9904 C   0  0  0  0  0  0  0  0  0  0  0  0
    3.5045   -0.7691    0.9029 C   0  0  0  0  0  0  0  0  0  0  0  0
    3.4036   -1.5076   -0.2832 C   0  0  0  0  0  0  0  0  0  0  0  0
    2.4531   -2.6775   -0.3748 C   0  0  0  0  0  0  0  0  0  0  0  0
    1.0509   -2.2889   -0.2216 N   0  0  0  0  0  0  0  0  0  0  0  0
    0.5276   -1.5900   -1.3912 C   0  0  0  0  0  0  0  0  0  0  0  0
   -0.9466   -1.1901   -1.2210 C   0  0  0  0  0  0  0  0  0  0  0  0
   -1.1844   -0.0579   -0.1862 C   0  0  0  0  0  0  0  0  0  0  0  0
   -1.0898   -0.5197    1.2663 C   0  0  0  0  0  0  0  0  0  0  0  0
   -1.9463   -1.5060    1.7865 C   0  0  0  0  0  0  0  0  0  0  0  0
   -1.8422   -1.9060    3.1199 C   0  0  0  0  0  0  0  0  0  0  0  0
   -0.8849   -1.3213    3.9389 C   0  0  0  0  0  0  0  0  0  0  0  0
   -0.7855   -1.7083    5.2176 F   0  0  0  0  0  0  0  0  0  0  0  0
   -0.0305   -0.3413    3.4521 C   0  0  0  0  0  0  0  0  0  0  0  0
   -0.1337    0.0608    2.1196 C   0  0  0  0  0  0  0  0  0  0  0  0
   -2.4862    0.7124   -0.4301 C   0  0  0  0  0  0  0  0  0  0  0  0
   -2.5317    2.0859   -0.1453 C   0  0  0  0  0  0  0  0  0  0  0  0
   -3.7053    2.8184   -0.3420 C   0  0  0  0  0  0  0  0  0  0  0  0
   -4.8606    2.1986   -0.8181 C   0  0  0  0  0  0  0  0  0  0  0  0
   -5.9371    3.0290   -0.9658 O   0  0  0  0  0  0  0  0  0  0  0  0
   -7.1450    2.4386   -1.4278 C   0  0  0  0  0  0  0  0  0  0  0  0
   -4.8322    0.8328   -1.0937 C   0  0  0  0  0  0  0  0  0  0  0  0
   -3.6566    0.0960   -0.8979 C   0  0  0  0  0  0  0  0  0  0  0  0
    4.1994   -1.1379   -1.3751 C   0  0  0  0  0  0  0  0  0  0  0  0
    5.0770   -0.0505   -1.2848 C   0  0  0  0  0  0  0  0  0  0  0  0
    7.5164    1.3808   -1.2408 H   0  0  0  0  0  0  0  0  0  0  0  0
    7.3921    3.0344   -0.6286 H   0  0  0  0  0  0  0  0  0  0  0  0
    6.2098    2.4854   -1.8225 H   0  0  0  0  0  0  0  0  0  0  0  0
    4.4450    0.8795    1.9170 H   0  0  0  0  0  0  0  0  0  0  0  0
    2.8912   -1.0356    1.7612 H   0  0  0  0  0  0  0  0  0  0  0  0
    2.6001   -3.2363   -1.3074 H   0  0  0  0  0  0  0  0  0  0  0  0
    2.7112   -3.3740    0.4329 H   0  0  0  0  0  0  0  0  0  0  0  0
    0.4918   -3.1203   -0.0397 H   0  0  0  0  0  0  0  0  0  0  0  0
    0.6027   -2.2447   -2.2683 H   0  0  0  0  0  0  0  0  0  0  0  0
    1.1122   -0.6885   -1.6066 H   0  0  0  0  0  0  0  0  0  0  0  0
   -1.2834   -0.8415   -2.2073 H   0  0  0  0  0  0  0  0  0  0  0  0
   -1.5474   -2.0793   -0.9922 H   0  0  0  0  0  0  0  0  0  0  0  0
   -0.3779    0.6695   -0.3629 H   0  0  0  0  0  0  0  0  0  0  0  0
   -2.7051   -1.9654    1.1590 H   0  0  0  0  0  0  0  0  0  0  0  0
   -2.5028   -2.6654    3.5243 H   0  0  0  0  0  0  0  0  0  0  0  0
    0.7106    0.1021    4.1085 H   0  0  0  0  0  0  0  0  0  0  0  0
    0.5463    0.8227    1.7443 H   0  0  0  0  0  0  0  0  0  0  0  0
   -1.6515    2.5977    0.2381 H   0  0  0  0  0  0  0  0  0  0  0  0
   -3.7187    3.8818   -0.1165 H   0  0  0  0  0  0  0  0  0  0  0  0
   -7.5068    1.6787   -0.7271 H   0  0  0  0  0  0  0  0  0  0  0  0
   -7.9022    3.2266   -1.4838 H   0  0  0  0  0  0  0  0  0  0  0  0
   -7.0219    2.0233   -2.4335 H   0  0  0  0  0  0  0  0  0  0  0  0
   -5.7070    0.3059   -1.4591 H   0  0  0  0  0  0  0  0  0  0  0  0
   -3.6750   -0.9693   -1.1124 H   0  0  0  0  0  0  0  0  0  0  0  0
    4.1395   -1.6922   -2.3088 H   0  0  0  0  0  0  0  0  0  0  0  0
    5.6707    0.1975   -2.1578 H   0  0  0  0  0  0  0  0  0  0  0  0
  1  2  1  0
  2  3  1  0
  3  4  2  0
  4  5  1  0
  5  6  2  0
  6  7  1  0
  7  8  1  0
  8  9  1  0
  9 10  1  0
 10 11  1  0
 11 12  1  0
 12 13  2  0
 13 14  1  0
 14 15  2  0
 15 16  1  0
 15 17  1  0
 17 18  2  0
 11 19  1  0
 19 20  2  0
 20 21  1  0
 21 22  2  0
 22 23  1  0
 23 24  1  0
 22 25  1  0
 25 26  2  0
  6 27  1  0
 27 28  2  0
 28  3  1  0
 18 12  1  0
 26 19  1  0
  1 29  1  0
  1 30  1  0
  1 31  1  0
  4 32  1  0
  5 33  1  0
  7 34  1  0
  7 35  1  0
  8 36  1  0
  9 37  1  0
  9 38  1  0
 10 39  1  0
 10 40  1  0
 11 41  1  0
 13 42  1  0
 14 43  1  0
 17 44  1  0
 18 45  1  0
 20 46  1  0
 21 47  1  0
 24 48  1  0
 24 49  1  0
 24 50  1  0
 25 51  1  0
 26 52  1  0
 27 53  1  0
 28 54  1  0
M  END
$$$$
