
     RDKit          3D

 61 64  0  0  0  0  0  0  0  0999 V2000
  -10.0117    0.1058    1.5400 C   0  0  0  0  0  0  0  0  0  0  0  0
   -8.6098   -0.1065    1.3686 O   0  0  0  0  0  0  0  0  0  0  0  0
   -8.2563   -0.4566    0.1040 C   0  0  0  0  0  0  0  0  0  0  0  0
   -9.0208   -0.5916   -0.8389 O   0  0  0  0  0  0  0  0  0  0  0  0
   -6.7846   -0.6559    0.0063 C   0  0  0  0  0  0  0  0  0  0  0  0
   -5.9365   -0.5565    1.1177 C   0  0  0  0  0  0  0  0  0  0  0  0
   -4.5597   -0.7581    0.9737 C   0  0  0  0  0  0  0  0  0  0  0  0
   -4.0110   -1.0591   -0.2806 C   0  0  0  0  0  0  0  0  0  0  0  0
   -2.5225   -1.2967   -0.4365 C   0  0  0  0  0  0  0  0  0  0  0  0
   -1.8662   -0.3342   -1.3427 N   0  0  0  0  0  0  0  0  0  0  0  0
   -1.8203    1.0116   -0.7416 C   0  0  0  0  0  0  0  0  0  0  0  0
   -1.1363    2.0162   -1.6720 C   0  0  0  0  0  0  0  0  0  0  0  0
    0.2751    1.5605   -2.0536 C   0  0  0  0  0  0  0  0  0  0  0  0
    1.0674    1.5978   -0.8578 O   0  0  0  0  0  0  0  0  0  0  0  0
    2.4293    1.5864   -0.9435 C   0  0  0  0  0  0  0  0  0  0  0  0
    3.1902    1.7050   -2.1073 C   0  0  0  0  0  0  0  0  0  0  0  0
    4.5888    1.6790   -2.0433 C   0  0  0  0  0  0  0  0  0  0  0  0
    5.2340    1.5239   -0.8169 C   0  0  0  0  0  0  0  0  0  0  0  0
    4.4730    1.3882    0.3456 C   0  0  0  0  0  0  0  0  0  0  0  0
    5.1146    1.2297    1.6693 C   0  0  0  0  0  0  0  0  0  0  0  0
    4.8137    2.0186    2.5613 O   0  0  0  0  0  0  0  0  0  0  0  0
    6.0010    0.1833    1.8499 N   0  0  0  0  0  0  0  0  0  0  0  0
    6.6198   -0.0357    3.1458 C   0  0  0  0  0  0  0  0  0  0  0  0
    7.5392   -1.2292    2.9287 C   0  0  0  0  0  0  0  0  0  0  0  0
    6.7946   -2.0359    1.8708 C   0  0  0  0  0  0  0  0  0  0  0  0
    6.2118   -0.9568    0.9659 C   0  0  0  0  0  0  0  0  0  0  0  0
    3.0779    1.4427    0.2850 C   0  0  0  0  0  0  0  0  0  0  0  0
    0.2031    0.1415   -2.6217 C   0  0  0  0  0  0  0  0  0  0  0  0
   -0.5074   -0.8067   -1.6556 C   0  0  0  0  0  0  0  0  0  0  0  0
   -4.8641   -1.1552   -1.3899 C   0  0  0  0  0  0  0  0  0  0  0  0
   -6.2400   -0.9569   -1.2478 C   0  0  0  0  0  0  0  0  0  0  0  0
  -10.3665    0.9002    0.8750 H   0  0  0  0  0  0  0  0  0  0  0  0
  -10.5625   -0.8243    1.3629 H   0  0  0  0  0  0  0  0  0  0  0  0
  -10.1822    0.4189    2.5740 H   0  0  0  0  0  0  0  0  0  0  0  0
   -6.3317   -0.3250    2.1039 H   0  0  0  0  0  0  0  0  0  0  0  0
   -3.9185   -0.6745    1.8486 H   0  0  0  0  0  0  0  0  0  0  0  0
   -2.0300   -1.3032    0.5459 H   0  0  0  0  0  0  0  0  0  0  0  0
   -2.4156   -2.3158   -0.8350 H   0  0  0  0  0  0  0  0  0  0  0  0
   -1.3035    0.9893    0.2273 H   0  0  0  0  0  0  0  0  0  0  0  0
   -2.8357    1.3804   -0.5555 H   0  0  0  0  0  0  0  0  0  0  0  0
   -1.0894    2.9881   -1.1649 H   0  0  0  0  0  0  0  0  0  0  0  0
   -1.7409    2.1473   -2.5789 H   0  0  0  0  0  0  0  0  0  0  0  0
    0.6602    2.2700   -2.7945 H   0  0  0  0  0  0  0  0  0  0  0  0
    2.7303    1.8304   -3.0819 H   0  0  0  0  0  0  0  0  0  0  0  0
    5.1737    1.7898   -2.9534 H   0  0  0  0  0  0  0  0  0  0  0  0
    6.3194    1.5282   -0.7688 H   0  0  0  0  0  0  0  0  0  0  0  0
    7.1517    0.8620    3.4777 H   0  0  0  0  0  0  0  0  0  0  0  0
    5.8282   -0.2684    3.8670 H   0  0  0  0  0  0  0  0  0  0  0  0
    7.7225   -1.7932    3.8478 H   0  0  0  0  0  0  0  0  0  0  0  0
    8.5056   -0.8959    2.5299 H   0  0  0  0  0  0  0  0  0  0  0  0
    5.9851   -2.6064    2.3421 H   0  0  0  0  0  0  0  0  0  0  0  0
    7.4384   -2.7362    1.3319 H   0  0  0  0  0  0  0  0  0  0  0  0
    5.2806   -1.2724    0.4860 H   0  0  0  0  0  0  0  0  0  0  0  0
    6.9377   -0.6617    0.2015 H   0  0  0  0  0  0  0  0  0  0  0  0
    2.4937    1.3668    1.1997 H   0  0  0  0  0  0  0  0  0  0  0  0
   -0.3328    0.1575   -3.5801 H   0  0  0  0  0  0  0  0  0  0  0  0
    1.2055   -0.2540   -2.8202 H   0  0  0  0  0  0  0  0  0  0  0  0
   -0.5624   -1.7920   -2.1361 H   0  0  0  0  0  0  0  0  0  0  0  0
    0.0885   -0.9276   -0.7410 H   0  0  0  0  0  0  0  0  0  0  0  0
   -4.4525   -1.3795   -2.3721 H   0  0  0  0  0  0  0  0  0  0  0  0
   -6.8832   -1.0372   -2.1218 H   0  0  0  0  0  0  0  0  0  0  0  0
  1  2  1  0
  2  3  1  0
  3  4  2  0
  3  5  1  0
  5  6  2  0
  6  7  1  0
  7  8  2  0
  8  9  1  0
  9 10  1  0
 10 11  1  0
 11 12  1  0
 12 13  1  0
 13 14  1  0
 14 15  1  0
 15 16  2  0
 16 17  1  0
 17 18  2  0
 18 19  1  0
 19 20  1  0
 20 21  2  0
 20 22  1  0
 22 23  1  0
 23 24  1  0
 24 25  1  0
 25 26  1  0
 19 27  2  0
 13 28  1  0
 28 29  1  0
  8 30  1  0
 30 31  2  0
 31  5  1  0
 29 10  1  0
 27 15  1  0
 26 22  1  0
  1 32  1  0
  1 33  1  0
  1 34  1  0
  6 35  1  0
  7 36  1  0
  9 37  1  0
  9 38  1  0
 11 39  1  0
 11 40  1  0
 12 41  1  0
 12 42  1  0
 13 43  1  0
 16 44  1  0
 17 45  1  0
 18 46  1  0
 23 47  1  0
 23 48  1  0
 24 49  1  0
 24 50  1  0
 25 51  1  0
 25 52  1  0
 26 53  1  0
 26 54  1  0
 27 55  1  0
 28 56  1  0
 28 57  1  0
 29 58  1  0
 29 59  1  0
 30 60  1  0
 31 61  1  0
M  END
$$$$
