
     RDKit          3D

 39 41  0  0  0  0  0  0  0  0999 V2000
    3.7108   -0.6291    2.2896 O   0  0  0  0  0  0  0  0  0  0  0  0
    3.9664   -0.5108    1.0961 C   0  0  0  0  0  0  0  0  0  0  0  0
    3.0823   -0.0904    0.1187 N   0  0  0  0  0  0  0  0  0  0  0  0
    1.7336    0.2846    0.2604 C   0  0  0  0  0  0  0  0  0  0  0  0
    1.0464    0.2893    1.4743 C   0  0  0  0  0  0  0  0  0  0  0  0
   -0.2985    0.6759    1.5289 C   0  0  0  0  0  0  0  0  0  0  0  0
   -0.9797    1.0632    0.3688 C   0  0  0  0  0  0  0  0  0  0  0  0
   -2.4319    1.4881    0.4279 C   0  0  0  0  0  0  0  0  0  0  0  0
   -3.3162    0.6541   -0.4013 N   0  0  0  0  0  0  0  0  0  0  0  0
   -3.3529   -0.7463    0.0824 C   0  0  0  0  0  0  0  0  0  0  0  0
   -4.6433   -1.4644   -0.3394 C   0  0  0  0  0  0  0  0  0  0  0  0
   -5.8172   -0.8731    0.2362 O   0  0  0  0  0  0  0  0  0  0  0  0
   -5.6768    0.5329    0.4786 C   0  0  0  0  0  0  0  0  0  0  0  0
   -4.6827    1.2140   -0.4746 C   0  0  0  0  0  0  0  0  0  0  0  0
   -0.2869    1.0603   -0.8479 C   0  0  0  0  0  0  0  0  0  0  0  0
    1.0554    0.6735   -0.9006 C   0  0  0  0  0  0  0  0  0  0  0  0
    5.2833   -0.8136    0.5620 C   0  0  0  0  0  0  0  0  0  0  0  0
    6.4366   -1.2562    1.1824 C   0  0  0  0  0  0  0  0  0  0  0  0
    7.4208   -1.3829    0.1722 C   0  0  0  0  0  0  0  0  0  0  0  0
    6.8130   -1.0110   -1.0043 C   0  0  0  0  0  0  0  0  0  0  0  0
    7.6491   -0.9801   -2.7123 Br  0  0  0  0  0  0  0  0  0  0  0  0
    5.5171   -0.6637   -0.7816 O   0  0  0  0  0  0  0  0  0  0  0  0
    3.4713   -0.0536   -0.8175 H   0  0  0  0  0  0  0  0  0  0  0  0
    1.5250   -0.0030    2.4035 H   0  0  0  0  0  0  0  0  0  0  0  0
   -0.8071    0.6675    2.4904 H   0  0  0  0  0  0  0  0  0  0  0  0
   -2.7832    1.5096    1.4681 H   0  0  0  0  0  0  0  0  0  0  0  0
   -2.4631    2.5271    0.0730 H   0  0  0  0  0  0  0  0  0  0  0  0
   -2.4907   -1.2914   -0.3169 H   0  0  0  0  0  0  0  0  0  0  0  0
   -3.2963   -0.7754    1.1787 H   0  0  0  0  0  0  0  0  0  0  0  0
   -4.6141   -2.5106   -0.0182 H   0  0  0  0  0  0  0  0  0  0  0  0
   -4.7555   -1.4624   -1.4301 H   0  0  0  0  0  0  0  0  0  0  0  0
   -5.3704    0.6705    1.5220 H   0  0  0  0  0  0  0  0  0  0  0  0
   -6.6690    0.9829    0.3702 H   0  0  0  0  0  0  0  0  0  0  0  0
   -5.0333    1.0597   -1.5030 H   0  0  0  0  0  0  0  0  0  0  0  0
   -4.6872    2.2982   -0.3116 H   0  0  0  0  0  0  0  0  0  0  0  0
   -0.7988    1.3517   -1.7630 H   0  0  0  0  0  0  0  0  0  0  0  0
    1.5576    0.6799   -1.8645 H   0  0  0  0  0  0  0  0  0  0  0  0
    6.5401   -1.4594    2.2403 H   0  0  0  0  0  0  0  0  0  0  0  0
    8.4458   -1.7057    0.2905 H   0  0  0  0  0  0  0  0  0  0  0  0
  1  2  2  0
  2  3  1  0
  3  4  1  0
  4  5  2  0
  5  6  1  0
  6  7  2  0
  7  8  1  0
  8  9  1  0
  9 10  1  0
 10 11  1  0
 11 12  1  0
 12 13  1  0
 13 14  1  0
  7 15  1  0
 15 16  2  0
  2 17  1  0
 17 18  2  0
 18 19  1  0
 19 20  2  0
 20 21  1  0
 20 22  1  0
 16  4  1  0
 22 17  1  0
 14  9  1  0
  3 23  1  0
  5 24  1  0
  6 25  1  0
  8 26  1  0
  8 27  1  0
 10 28  1  0
 10 29  1  0
 11 30  1  0
 11 31  1  0
 13 32  1  0
 13 33  1  0
 14 34  1  0
 14 35  1  0
 15 36  1  0
 16 37  1  0
 18 38  1  0
 19 39  1  0
M  END
$$$$
