
     RDKit          3D

 71 74  0  0  0  0  0  0  0  0999 V2000
    8.6313   -0.4408    2.0062 C   0  0  0  0  0  0  0  0  0  0  0  0
    8.4103    0.1363    0.6162 C   0  0  0  0  0  0  0  0  0  0  0  0
    7.4112   -0.6385   -0.1321 N   0  0  0  0  0  0  0  0  0  0  0  0
    7.9084   -1.8012   -0.8798 C   0  0  0  0  0  0  0  0  0  0  0  0
    7.4499   -3.1113   -0.2529 C   0  0  0  0  0  0  0  0  0  0  0  0
    6.0760   -0.2472   -0.1759 C   0  0  0  0  0  0  0  0  0  0  0  0
    5.5316    0.6664    0.7436 C   0  0  0  0  0  0  0  0  0  0  0  0
    4.1874    1.0699    0.7026 C   0  0  0  0  0  0  0  0  0  0  0  0
    3.3271    0.5602   -0.2649 C   0  0  0  0  0  0  0  0  0  0  0  0
    1.9342    1.0122   -0.3132 C   0  0  0  0  0  0  0  0  0  0  0  0
    0.8604    0.2070   -0.2326 C   0  0  0  0  0  0  0  0  0  0  0  0
    0.8875   -1.2794    0.0339 C   0  0  0  0  0  0  0  0  0  0  0  0
   -0.4968   -1.5938    0.5888 C   0  0  0  0  0  0  0  0  0  0  0  0
   -1.2946   -0.3972    0.1932 C   0  0  0  0  0  0  0  0  0  0  0  0
   -2.7654   -0.4278    0.2401 C   0  0  0  0  0  0  0  0  0  0  0  0
   -3.4174   -1.4156    0.7701 N   0  0  0  0  0  0  0  0  0  0  0  0
   -4.7872   -1.3446    0.7928 N   0  0  0  0  0  0  0  0  0  0  0  0
   -5.5296   -0.1843    0.9826 C   0  0  0  0  0  0  0  0  0  0  0  0
   -5.0910    0.9552    1.1049 O   0  0  0  0  0  0  0  0  0  0  0  0
   -6.9985   -0.4444    1.1047 C   0  0  0  0  0  0  0  0  0  0  0  0
   -7.7704    0.2127    2.1368 C   0  0  0  0  0  0  0  0  0  0  0  0
   -9.0884    0.0006    2.2446 C   0  0  0  0  0  0  0  0  0  0  0  0
   -9.7877   -0.9095    1.2956 C   0  0  0  0  0  0  0  0  0  0  0  0
  -10.9924   -1.1022    1.4296 O   0  0  0  0  0  0  0  0  0  0  0  0
   -8.9885   -1.4797    0.3031 N   0  0  0  0  0  0  0  0  0  0  0  0
   -9.6007   -2.3622   -0.6778 C   0  0  0  0  0  0  0  0  0  0  0  0
   -7.6240   -1.2392    0.2205 C   0  0  0  0  0  0  0  0  0  0  0  0
   -0.5446    0.6214   -0.2568 C   0  0  0  0  0  0  0  0  0  0  0  0
   -0.9439    1.8721   -0.6991 N   0  0  0  0  0  0  0  0  0  0  0  0
   -1.8328    2.7540    0.0884 C   0  0  0  0  0  0  0  0  0  0  0  0
   -1.5271    4.2277   -0.2250 C   0  0  0  0  0  0  0  0  0  0  0  0
   -1.7060    4.5768   -1.6085 O   0  0  0  0  0  0  0  0  0  0  0  0
   -1.5590    3.4570   -2.4953 C   0  0  0  0  0  0  0  0  0  0  0  0
   -0.5265    2.4324   -2.0008 C   0  0  0  0  0  0  0  0  0  0  0  0
    3.8362   -0.3416   -1.1960 C   0  0  0  0  0  0  0  0  0  0  0  0
    5.1819   -0.7373   -1.1431 C   0  0  0  0  0  0  0  0  0  0  0  0
    7.7018   -0.4742    2.5833 H   0  0  0  0  0  0  0  0  0  0  0  0
    9.3536    0.1707    2.5572 H   0  0  0  0  0  0  0  0  0  0  0  0
    9.0282   -1.4600    1.9526 H   0  0  0  0  0  0  0  0  0  0  0  0
    8.1402    1.1967    0.6793 H   0  0  0  0  0  0  0  0  0  0  0  0
    9.3660    0.1284    0.0773 H   0  0  0  0  0  0  0  0  0  0  0  0
    9.0056   -1.8044   -0.8876 H   0  0  0  0  0  0  0  0  0  0  0  0
    7.6196   -1.7487   -1.9353 H   0  0  0  0  0  0  0  0  0  0  0  0
    6.3594   -3.2005   -0.2330 H   0  0  0  0  0  0  0  0  0  0  0  0
    7.8454   -3.9594   -0.8217 H   0  0  0  0  0  0  0  0  0  0  0  0
    7.8096   -3.2000    0.7778 H   0  0  0  0  0  0  0  0  0  0  0  0
    6.1389    1.0831    1.5407 H   0  0  0  0  0  0  0  0  0  0  0  0
    3.8257    1.7796    1.4430 H   0  0  0  0  0  0  0  0  0  0  0  0
    1.8124    2.0886   -0.3881 H   0  0  0  0  0  0  0  0  0  0  0  0
    1.6648   -1.5753    0.7463 H   0  0  0  0  0  0  0  0  0  0  0  0
    1.0470   -1.8236   -0.9045 H   0  0  0  0  0  0  0  0  0  0  0  0
   -0.4734   -1.6952    1.6795 H   0  0  0  0  0  0  0  0  0  0  0  0
   -0.8844   -2.5221    0.1574 H   0  0  0  0  0  0  0  0  0  0  0  0
   -3.2719    0.4168   -0.2470 H   0  0  0  0  0  0  0  0  0  0  0  0
   -5.2278   -2.2295    1.0241 H   0  0  0  0  0  0  0  0  0  0  0  0
   -7.2560    0.8879    2.8151 H   0  0  0  0  0  0  0  0  0  0  0  0
   -9.6995    0.4744    3.0016 H   0  0  0  0  0  0  0  0  0  0  0  0
  -10.6869   -2.4163   -0.5556 H   0  0  0  0  0  0  0  0  0  0  0  0
   -9.3804   -1.9903   -1.6839 H   0  0  0  0  0  0  0  0  0  0  0  0
   -9.1825   -3.3672   -0.5568 H   0  0  0  0  0  0  0  0  0  0  0  0
   -7.1007   -1.7196   -0.6015 H   0  0  0  0  0  0  0  0  0  0  0  0
   -2.8759    2.5451   -0.1704 H   0  0  0  0  0  0  0  0  0  0  0  0
   -1.6957    2.5745    1.1612 H   0  0  0  0  0  0  0  0  0  0  0  0
   -0.4914    4.4653    0.0431 H   0  0  0  0  0  0  0  0  0  0  0  0
   -2.1774    4.8816    0.3642 H   0  0  0  0  0  0  0  0  0  0  0  0
   -2.5439    2.9904   -2.6143 H   0  0  0  0  0  0  0  0  0  0  0  0
   -1.2607    3.8488   -3.4728 H   0  0  0  0  0  0  0  0  0  0  0  0
   -0.4231    1.6324   -2.7436 H   0  0  0  0  0  0  0  0  0  0  0  0
    0.4406    2.9351   -1.8926 H   0  0  0  0  0  0  0  0  0  0  0  0
    3.2002   -0.7418   -1.9818 H   0  0  0  0  0  0  0  0  0  0  0  0
    5.5119   -1.4356   -1.9053 H   0  0  0  0  0  0  0  0  0  0  0  0
  1  2  1  0
  2  3  1  0
  3  4  1  0
  4  5  1  0
  3  6  1  0
  6  7  2  0
  7  8  1  0
  8  9  2  0
  9 10  1  0
 10 11  2  3
 11 12  1  0
 12 13  1  0
 13 14  1  0
 14 15  1  0
 15 16  2  3
 16 17  1  0
 17 18  1  0
 18 19  2  0
 18 20  1  0
 20 21  1  0
 21 22  2  0
 22 23  1  0
 23 24  2  0
 23 25  1  0
 25 26  1  0
 25 27  1  0
 14 28  2  0
 28 29  1  0
 29 30  1  0
 30 31  1  0
 31 32  1  0
 32 33  1  0
 33 34  1  0
  9 35  1  0
 35 36  2  0
 36  6  1  0
 28 11  1  0
 34 29  1  0
 27 20  2  0
  1 37  1  0
  1 38  1  0
  1 39  1  0
  2 40  1  0
  2 41  1  0
  4 42  1  0
  4 43  1  0
  5 44  1  0
  5 45  1  0
  5 46  1  0
  7 47  1  0
  8 48  1  0
 10 49  1  0
 12 50  1  0
 12 51  1  0
 13 52  1  0
 13 53  1  0
 15 54  1  0
 17 55  1  0
 21 56  1  0
 22 57  1  0
 26 58  1  0
 26 59  1  0
 26 60  1  0
 27 61  1  0
 30 62  1  0
 30 63  1  0
 31 64  1  0
 31 65  1  0
 33 66  1  0
 33 67  1  0
 34 68  1  0
 34 69  1  0
 35 70  1  0
 36 71  1  0
M  END
$$$$
