
     RDKit          3D

 43 44  0  0  0  0  0  0  0  0999 V2000
   -2.5161    1.6365    0.1565 O   0  0  0  0  0  0  0  0  0  0  0  0
   -1.9446    0.8581    0.9159 C   0  0  0  0  0  0  0  0  0  0  0  0
   -0.4720    1.0366    1.3298 C   0  0  0  0  0  0  0  0  0  0  0  0
    0.1932    2.1866    0.8198 O   0  0  0  0  0  0  0  0  0  0  0  0
    0.5358    2.0611   -0.5608 C   0  0  0  0  0  0  0  0  0  0  0  0
    1.8650    1.3301   -0.7561 C   0  0  0  0  0  0  0  0  0  0  0  0
    2.0335    0.5145   -1.6583 O   0  0  0  0  0  0  0  0  0  0  0  0
    2.8062    1.7271    0.1938 N   0  0  0  0  0  0  0  0  0  0  0  0
    4.0101    1.1076    0.4106 N   0  0  0  0  0  0  0  0  0  0  0  0
    4.6768    0.7115   -0.6280 C   0  0  0  0  0  0  0  0  0  0  0  0
    5.9624   -0.0054   -0.4960 C   0  0  0  0  0  0  0  0  0  0  0  0
    6.5155   -0.2670    0.7635 C   0  0  0  0  0  0  0  0  0  0  0  0
    7.7317   -0.9455    0.8583 C   0  0  0  0  0  0  0  0  0  0  0  0
    8.3808   -1.3556   -0.3018 C   0  0  0  0  0  0  0  0  0  0  0  0
    9.5474   -2.0067   -0.2089 F   0  0  0  0  0  0  0  0  0  0  0  0
    7.8377   -1.1010   -1.5575 C   0  0  0  0  0  0  0  0  0  0  0  0
    6.6216   -0.4224   -1.6586 C   0  0  0  0  0  0  0  0  0  0  0  0
   -2.5061   -0.2828    1.4954 N   0  0  0  0  0  0  0  0  0  0  0  0
   -3.8319   -0.6282    1.4235 N   0  0  0  0  0  0  0  0  0  0  0  0
   -4.4597   -0.4083    0.3109 C   0  0  0  0  0  0  0  0  0  0  0  0
   -5.9001   -0.7054    0.1628 C   0  0  0  0  0  0  0  0  0  0  0  0
   -6.6382   -1.2420    1.2249 C   0  0  0  0  0  0  0  0  0  0  0  0
   -7.9970   -1.5138    1.0561 C   0  0  0  0  0  0  0  0  0  0  0  0
   -8.6034   -1.2468   -0.1671 C   0  0  0  0  0  0  0  0  0  0  0  0
   -9.9070   -1.5082   -0.3272 F   0  0  0  0  0  0  0  0  0  0  0  0
   -7.8779   -0.7119   -1.2273 C   0  0  0  0  0  0  0  0  0  0  0  0
   -6.5184   -0.4382   -1.0645 C   0  0  0  0  0  0  0  0  0  0  0  0
    0.0866    0.1300    1.0682 H   0  0  0  0  0  0  0  0  0  0  0  0
   -0.4568    1.1301    2.4216 H   0  0  0  0  0  0  0  0  0  0  0  0
    0.6529    3.0700   -0.9702 H   0  0  0  0  0  0  0  0  0  0  0  0
   -0.2485    1.5520   -1.1299 H   0  0  0  0  0  0  0  0  0  0  0  0
    2.4190    2.1821    1.0204 H   0  0  0  0  0  0  0  0  0  0  0  0
    4.3413    0.9090   -1.6607 H   0  0  0  0  0  0  0  0  0  0  0  0
    6.0058    0.0544    1.6687 H   0  0  0  0  0  0  0  0  0  0  0  0
    8.1750   -1.1563    1.8264 H   0  0  0  0  0  0  0  0  0  0  0  0
    8.3639   -1.4338   -2.4469 H   0  0  0  0  0  0  0  0  0  0  0  0
    6.1974   -0.2283   -2.6406 H   0  0  0  0  0  0  0  0  0  0  0  0
   -2.0472   -0.6658    2.3173 H   0  0  0  0  0  0  0  0  0  0  0  0
   -3.9565   -0.0198   -0.5911 H   0  0  0  0  0  0  0  0  0  0  0  0
   -6.1626   -1.4481    2.1807 H   0  0  0  0  0  0  0  0  0  0  0  0
   -8.5844   -1.9295    1.8687 H   0  0  0  0  0  0  0  0  0  0  0  0
   -8.3761   -0.5105   -2.1706 H   0  0  0  0  0  0  0  0  0  0  0  0
   -5.9550   -0.0160   -1.8929 H   0  0  0  0  0  0  0  0  0  0  0  0
  1  2  2  0
  2  3  1  0
  3  4  1  0
  4  5  1  0
  5  6  1  0
  6  7  2  0
  6  8  1  0
  8  9  1  0
  9 10  2  3
 10 11  1  0
 11 12  2  0
 12 13  1  0
 13 14  2  0
 14 15  1  0
 14 16  1  0
 16 17  2  0
  2 18  1  0
 18 19  1  0
 19 20  2  3
 20 21  1  0
 21 22  2  0
 22 23  1  0
 23 24  2  0
 24 25  1  0
 24 26  1  0
 26 27  2  0
 17 11  1  0
 27 21  1  0
  3 28  1  0
  3 29  1  0
  5 30  1  0
  5 31  1  0
  8 32  1  0
 10 33  1  0
 12 34  1  0
 13 35  1  0
 16 36  1  0
 17 37  1  0
 18 38  1  0
 20 39  1  0
 22 40  1  0
 23 41  1  0
 26 42  1  0
 27 43  1  0
M  END
$$$$
