
     RDKit          3D

 47 48  0  0  0  0  0  0  0  0999 V2000
    3.9930   -0.1221    0.6187 C   0  0  0  0  0  0  0  0  0  0  0  0
    2.6360    0.0194    1.0496 O   0  0  0  0  0  0  0  0  0  0  0  0
    2.1021    1.1740    0.5364 C   0  0  0  0  0  0  0  0  0  0  0  0
    2.0954    2.3044    1.3559 C   0  0  0  0  0  0  0  0  0  0  0  0
    1.5438    3.4991    0.8895 C   0  0  0  0  0  0  0  0  0  0  0  0
    0.9906    3.5634   -0.3902 C   0  0  0  0  0  0  0  0  0  0  0  0
    0.9726    2.4275   -1.2013 C   0  0  0  0  0  0  0  0  0  0  0  0
    1.5081    1.2220   -0.7310 C   0  0  0  0  0  0  0  0  0  0  0  0
    1.4412    0.0438   -1.6275 C   0  0  0  0  0  0  0  0  0  0  0  0
    1.9557    0.1653   -2.7375 O   0  0  0  0  0  0  0  0  0  0  0  0
    0.8069   -1.1164   -1.1680 N   0  0  0  0  0  0  0  0  0  0  0  0
    0.1217   -1.1097    0.0685 N   0  0  0  0  0  0  0  0  0  0  0  0
   -1.0989   -0.4772    0.1778 C   0  0  0  0  0  0  0  0  0  0  0  0
   -1.7994   -0.1299   -0.7646 O   0  0  0  0  0  0  0  0  0  0  0  0
   -1.3827   -0.2846    1.5221 O   0  0  0  0  0  0  0  0  0  0  0  0
   -2.5450    0.4520    1.7620 C   0  0  0  0  0  0  0  0  0  0  0  0
   -3.6538   -0.2121    2.2831 C   0  0  0  0  0  0  0  0  0  0  0  0
   -4.8056    0.5162    2.5785 C   0  0  0  0  0  0  0  0  0  0  0  0
   -4.8330    1.8969    2.3646 C   0  0  0  0  0  0  0  0  0  0  0  0
   -3.7078    2.5547    1.8592 C   0  0  0  0  0  0  0  0  0  0  0  0
   -2.5529    1.8326    1.5623 C   0  0  0  0  0  0  0  0  0  0  0  0
    0.6486   -2.3584   -1.9770 C   0  0  0  0  0  0  0  0  0  0  0  0
   -0.1859   -2.0729   -3.2402 C   0  0  0  0  0  0  0  0  0  0  0  0
   -0.0516   -3.5017   -1.2012 C   0  0  0  0  0  0  0  0  0  0  0  0
    2.0371   -2.8903   -2.3908 C   0  0  0  0  0  0  0  0  0  0  0  0
    4.5992    0.7359    0.9289 H   0  0  0  0  0  0  0  0  0  0  0  0
    4.4030   -1.0164    1.0961 H   0  0  0  0  0  0  0  0  0  0  0  0
    4.0549   -0.2596   -0.4653 H   0  0  0  0  0  0  0  0  0  0  0  0
    2.5226    2.2574    2.3536 H   0  0  0  0  0  0  0  0  0  0  0  0
    1.5478    4.3825    1.5236 H   0  0  0  0  0  0  0  0  0  0  0  0
    0.5677    4.4962   -0.7559 H   0  0  0  0  0  0  0  0  0  0  0  0
    0.5301    2.4751   -2.1949 H   0  0  0  0  0  0  0  0  0  0  0  0
    0.7067   -1.1271    0.8990 H   0  0  0  0  0  0  0  0  0  0  0  0
   -3.6254   -1.2839    2.4542 H   0  0  0  0  0  0  0  0  0  0  0  0
   -5.6825    0.0101    2.9757 H   0  0  0  0  0  0  0  0  0  0  0  0
   -5.7335    2.4619    2.5928 H   0  0  0  0  0  0  0  0  0  0  0  0
   -3.7329    3.6295    1.6965 H   0  0  0  0  0  0  0  0  0  0  0  0
   -1.6760    2.3405    1.1720 H   0  0  0  0  0  0  0  0  0  0  0  0
   -1.1725   -1.6749   -2.9783 H   0  0  0  0  0  0  0  0  0  0  0  0
    0.2968   -1.3426   -3.8974 H   0  0  0  0  0  0  0  0  0  0  0  0
   -0.3389   -2.9855   -3.8280 H   0  0  0  0  0  0  0  0  0  0  0  0
    0.4920   -3.7518   -0.2826 H   0  0  0  0  0  0  0  0  0  0  0  0
   -1.0781   -3.2350   -0.9256 H   0  0  0  0  0  0  0  0  0  0  0  0
   -0.1092   -4.4134   -1.8075 H   0  0  0  0  0  0  0  0  0  0  0  0
    2.5698   -2.1970   -3.0482 H   0  0  0  0  0  0  0  0  0  0  0  0
    1.9538   -3.8407   -2.9306 H   0  0  0  0  0  0  0  0  0  0  0  0
    2.6684   -3.0573   -1.5102 H   0  0  0  0  0  0  0  0  0  0  0  0
  1  2  1  0
  2  3  1  0
  3  4  2  0
  4  5  1  0
  5  6  2  0
  6  7  1  0
  7  8  2  0
  8  9  1  0
  9 10  2  0
  9 11  1  0
 11 12  1  0
 12 13  1  0
 13 14  2  0
 13 15  1  0
 15 16  1  0
 16 17  2  0
 17 18  1  0
 18 19  2  0
 19 20  1  0
 20 21  2  0
 11 22  1  0
 22 23  1  0
 22 24  1  0
 22 25  1  0
  8  3  1  0
 21 16  1  0
  1 26  1  0
  1 27  1  0
  1 28  1  0
  4 29  1  0
  5 30  1  0
  6 31  1  0
  7 32  1  0
 12 33  1  0
 17 34  1  0
 18 35  1  0
 19 36  1  0
 20 37  1  0
 21 38  1  0
 23 39  1  0
 23 40  1  0
 23 41  1  0
 24 42  1  0
 24 43  1  0
 24 44  1  0
 25 45  1  0
 25 46  1  0
 25 47  1  0
M  END
$$$$
