
     RDKit          3D

 34 36  0  0  0  0  0  0  0  0999 V2000
    1.4909   -2.2218   -1.8231 S   0  0  0  0  0  0  0  0  0  0  0  0
    1.7790   -1.1453   -0.5639 C   0  0  0  0  0  0  0  0  0  0  0  0
    0.7949   -0.4487    0.0799 N   0  0  0  0  0  0  0  0  0  0  0  0
    0.4824    0.7402   -0.3264 C   0  0  0  0  0  0  0  0  0  0  0  0
    1.2984    1.6459   -1.6474 S   0  0  0  0  0  0  0  0  0  0  0  0
    0.2327    3.0089   -1.4276 C   0  0  0  0  0  0  0  0  0  0  0  0
   -0.6391    2.7821   -0.4382 C   0  0  0  0  0  0  0  0  0  0  0  0
   -0.5193    1.5528    0.1941 N   0  0  0  0  0  0  0  0  0  0  0  0
   -1.4362    1.0729    1.2189 C   0  0  0  0  0  0  0  0  0  0  0  0
   -2.7436    0.6085    0.6163 C   0  0  0  0  0  0  0  0  0  0  0  0
   -2.8178   -0.6193   -0.0590 C   0  0  0  0  0  0  0  0  0  0  0  0
   -4.0196   -1.0454   -0.6261 C   0  0  0  0  0  0  0  0  0  0  0  0
   -5.1593   -0.2504   -0.5256 C   0  0  0  0  0  0  0  0  0  0  0  0
   -5.0988    0.9723    0.1402 C   0  0  0  0  0  0  0  0  0  0  0  0
   -3.8974    1.4018    0.7073 C   0  0  0  0  0  0  0  0  0  0  0  0
    3.0121   -0.9268    0.0079 N   0  0  0  0  0  0  0  0  0  0  0  0
    4.2598   -1.4813   -0.4080 C   0  0  0  0  0  0  0  0  0  0  0  0
    4.7281   -2.8101    0.1171 C   0  0  0  0  0  0  0  0  0  0  0  0
    5.4158   -1.5513    0.5538 C   0  0  0  0  0  0  0  0  0  0  0  0
    0.2841    3.9003   -2.0364 H   0  0  0  0  0  0  0  0  0  0  0  0
   -1.4176    3.4609   -0.1144 H   0  0  0  0  0  0  0  0  0  0  0  0
   -0.9980    0.2548    1.8046 H   0  0  0  0  0  0  0  0  0  0  0  0
   -1.6243    1.8744    1.9452 H   0  0  0  0  0  0  0  0  0  0  0  0
   -1.9357   -1.2511   -0.1520 H   0  0  0  0  0  0  0  0  0  0  0  0
   -4.0628   -1.9972   -1.1497 H   0  0  0  0  0  0  0  0  0  0  0  0
   -6.0938   -0.5835   -0.9694 H   0  0  0  0  0  0  0  0  0  0  0  0
   -5.9883    1.5924    0.2152 H   0  0  0  0  0  0  0  0  0  0  0  0
   -3.8696    2.3607    1.2193 H   0  0  0  0  0  0  0  0  0  0  0  0
    3.0068   -0.2848    0.7896 H   0  0  0  0  0  0  0  0  0  0  0  0
    4.5133   -1.2360   -1.4377 H   0  0  0  0  0  0  0  0  0  0  0  0
    4.1015   -3.3276    0.8343 H   0  0  0  0  0  0  0  0  0  0  0  0
    5.2457   -3.4667   -0.5725 H   0  0  0  0  0  0  0  0  0  0  0  0
    6.4085   -1.3554    0.1650 H   0  0  0  0  0  0  0  0  0  0  0  0
    5.2673   -1.2264    1.5765 H   0  0  0  0  0  0  0  0  0  0  0  0
  1  2  2  0
  2  3  1  0
  3  4  2  3
  4  5  1  0
  5  6  1  0
  6  7  2  0
  7  8  1  0
  8  9  1  0
  9 10  1  0
 10 11  2  0
 11 12  1  0
 12 13  2  0
 13 14  1  0
 14 15  2  0
  2 16  1  0
 16 17  1  0
 17 18  1  0
 18 19  1  0
  8  4  1  0
 15 10  1  0
 19 17  1  0
  6 20  1  0
  7 21  1  0
  9 22  1  0
  9 23  1  0
 11 24  1  0
 12 25  1  0
 13 26  1  0
 14 27  1  0
 15 28  1  0
 16 29  1  0
 17 30  1  0
 18 31  1  0
 18 32  1  0
 19 33  1  0
 19 34  1  0
M  END
$$$$
