
     RDKit          3D

 33 34  0  0  0  0  0  0  0  0999 V2000
    3.7904   -1.4948   -2.3537 C   0  0  0  0  0  0  0  0  0  0  0  0
    2.4346   -0.8071   -2.3605 C   0  0  0  0  0  0  0  0  0  0  0  0
    1.3841   -1.5969   -1.5907 C   0  0  0  0  0  0  0  0  0  0  0  0
    1.7050   -2.4519   -0.7571 O   0  0  0  0  0  0  0  0  0  0  0  0
   -0.0789   -1.2514   -1.7809 C   0  0  0  0  0  0  0  0  0  0  0  0
   -0.4655   -1.3139   -3.1943 C   0  0  0  0  0  0  0  0  0  0  0  0
   -0.7873   -1.4312   -4.3056 N   0  0  0  0  0  0  0  0  0  0  0  0
   -0.3224    0.0917   -1.1830 C   0  0  0  0  0  0  0  0  0  0  0  0
   -0.0514    1.2430   -1.7635 N   0  0  0  0  0  0  0  0  0  0  0  0
   -0.3241    2.2450   -0.8762 N   0  0  0  0  0  0  0  0  0  0  0  0
   -0.7406    1.7074    0.2512 C   0  0  0  0  0  0  0  0  0  0  0  0
   -0.7976    0.3426    0.0929 N   0  0  0  0  0  0  0  0  0  0  0  0
   -1.2235   -0.6416    1.0709 C   0  0  0  0  0  0  0  0  0  0  0  0
   -2.2968   -0.1669    2.0449 C   0  0  0  0  0  0  0  0  0  0  0  0
   -1.7645    0.7029    3.1819 C   0  0  0  0  0  0  0  0  0  0  0  0
   -0.7550    1.7747    2.7762 C   0  0  0  0  0  0  0  0  0  0  0  0
   -1.1156    2.4799    1.4740 C   0  0  0  0  0  0  0  0  0  0  0  0
    4.5217   -0.9122   -2.9238 H   0  0  0  0  0  0  0  0  0  0  0  0
    4.1707   -1.6113   -1.3331 H   0  0  0  0  0  0  0  0  0  0  0  0
    3.7289   -2.4930   -2.7991 H   0  0  0  0  0  0  0  0  0  0  0  0
    2.5215    0.1857   -1.9067 H   0  0  0  0  0  0  0  0  0  0  0  0
    2.1139   -0.6884   -3.3976 H   0  0  0  0  0  0  0  0  0  0  0  0
   -0.6566   -2.0235   -1.2619 H   0  0  0  0  0  0  0  0  0  0  0  0
   -1.6497   -1.4821    0.5149 H   0  0  0  0  0  0  0  0  0  0  0  0
   -0.3278   -0.9975    1.5925 H   0  0  0  0  0  0  0  0  0  0  0  0
   -2.7847   -1.0418    2.4927 H   0  0  0  0  0  0  0  0  0  0  0  0
   -3.0808    0.3737    1.5020 H   0  0  0  0  0  0  0  0  0  0  0  0
   -2.6207    1.1836    3.6691 H   0  0  0  0  0  0  0  0  0  0  0  0
   -1.3025    0.0646    3.9429 H   0  0  0  0  0  0  0  0  0  0  0  0
   -0.7110    2.5167    3.5856 H   0  0  0  0  0  0  0  0  0  0  0  0
    0.2507    1.3360    2.7110 H   0  0  0  0  0  0  0  0  0  0  0  0
   -2.1872    2.7214    1.4406 H   0  0  0  0  0  0  0  0  0  0  0  0
   -0.5776    3.4367    1.4445 H   0  0  0  0  0  0  0  0  0  0  0  0
  1  2  1  0
  2  3  1  0
  3  4  2  0
  3  5  1  0
  5  6  1  0
  6  7  3  0
  5  8  1  0
  8  9  2  0
  9 10  1  0
 10 11  2  0
 11 12  1  0
 12 13  1  0
 13 14  1  0
 14 15  1  0
 15 16  1  0
 16 17  1  0
 12  8  1  0
 17 11  1  0
  1 18  1  0
  1 19  1  0
  1 20  1  0
  2 21  1  0
  2 22  1  0
  5 23  1  0
 13 24  1  0
 13 25  1  0
 14 26  1  0
 14 27  1  0
 15 28  1  0
 15 29  1  0
 16 30  1  0
 16 31  1  0
 17 32  1  0
 17 33  1  0
M  END
$$$$
