
     RDKit          3D

 45 47  0  0  0  0  0  0  0  0999 V2000
    7.5902    0.3537   -0.5885 C   0  0  0  0  0  0  0  0  0  0  0  0
    7.1352   -0.4895    0.5899 C   0  0  0  0  0  0  0  0  0  0  0  0
    6.2529    0.2513    1.4317 O   0  0  0  0  0  0  0  0  0  0  0  0
    4.9110    0.2023    1.1831 C   0  0  0  0  0  0  0  0  0  0  0  0
    4.1200    0.8337    2.1439 C   0  0  0  0  0  0  0  0  0  0  0  0
    2.7277    0.8645    2.0168 C   0  0  0  0  0  0  0  0  0  0  0  0
    2.1021    0.2620    0.9213 C   0  0  0  0  0  0  0  0  0  0  0  0
    0.6975    0.3400    0.8543 N   0  0  0  0  0  0  0  0  0  0  0  0
   -0.1378   -0.2812   -0.0487 C   0  0  0  0  0  0  0  0  0  0  0  0
    0.1825   -1.0853   -0.9130 O   0  0  0  0  0  0  0  0  0  0  0  0
   -1.4456    0.1128    0.1534 N   0  0  0  0  0  0  0  0  0  0  0  0
   -2.5048   -0.3615   -0.7290 C   0  0  0  0  0  0  0  0  0  0  0  0
   -2.4631    0.4223   -2.0568 C   0  0  0  0  0  0  0  0  0  0  0  0
   -3.6866    0.2437   -2.9646 C   0  0  0  0  0  0  0  0  0  0  0  0
   -4.7783   -0.6568   -2.3952 C   0  0  0  0  0  0  0  0  0  0  0  0
   -5.0040   -0.3810   -0.9324 C   0  0  0  0  0  0  0  0  0  0  0  0
   -6.2962   -0.3285   -0.3981 C   0  0  0  0  0  0  0  0  0  0  0  0
   -6.4796   -0.1428    0.9707 C   0  0  0  0  0  0  0  0  0  0  0  0
   -5.3756   -0.0321    1.8129 C   0  0  0  0  0  0  0  0  0  0  0  0
   -4.0832   -0.0958    1.2882 C   0  0  0  0  0  0  0  0  0  0  0  0
   -3.8806   -0.2484   -0.0911 C   0  0  0  0  0  0  0  0  0  0  0  0
    2.8947   -0.3581   -0.0447 C   0  0  0  0  0  0  0  0  0  0  0  0
    4.2912   -0.3886    0.0850 C   0  0  0  0  0  0  0  0  0  0  0  0
    8.0468    1.2856   -0.2386 H   0  0  0  0  0  0  0  0  0  0  0  0
    6.7490    0.6348   -1.2288 H   0  0  0  0  0  0  0  0  0  0  0  0
    8.3215   -0.1902   -1.1932 H   0  0  0  0  0  0  0  0  0  0  0  0
    8.0131   -0.7315    1.1999 H   0  0  0  0  0  0  0  0  0  0  0  0
    6.7132   -1.4515    0.2788 H   0  0  0  0  0  0  0  0  0  0  0  0
    4.5925    1.3050    3.0024 H   0  0  0  0  0  0  0  0  0  0  0  0
    2.1482    1.3641    2.7879 H   0  0  0  0  0  0  0  0  0  0  0  0
    0.2345    0.7884    1.6298 H   0  0  0  0  0  0  0  0  0  0  0  0
   -1.5667    1.0511    0.5014 H   0  0  0  0  0  0  0  0  0  0  0  0
   -2.3232   -1.4254   -0.9318 H   0  0  0  0  0  0  0  0  0  0  0  0
   -1.5567    0.1597   -2.6167 H   0  0  0  0  0  0  0  0  0  0  0  0
   -2.3627    1.4957   -1.8396 H   0  0  0  0  0  0  0  0  0  0  0  0
   -3.3724   -0.1409   -3.9423 H   0  0  0  0  0  0  0  0  0  0  0  0
   -4.1133    1.2370   -3.1592 H   0  0  0  0  0  0  0  0  0  0  0  0
   -5.7008   -0.5088   -2.9688 H   0  0  0  0  0  0  0  0  0  0  0  0
   -4.4951   -1.7106   -2.5094 H   0  0  0  0  0  0  0  0  0  0  0  0
   -7.1649   -0.4412   -1.0422 H   0  0  0  0  0  0  0  0  0  0  0  0
   -7.4842   -0.1027    1.3835 H   0  0  0  0  0  0  0  0  0  0  0  0
   -5.5210    0.0896    2.8832 H   0  0  0  0  0  0  0  0  0  0  0  0
   -3.2410   -0.0416    1.9728 H   0  0  0  0  0  0  0  0  0  0  0  0
    2.4578   -0.8259   -0.9220 H   0  0  0  0  0  0  0  0  0  0  0  0
    4.8559   -0.8771   -0.7015 H   0  0  0  0  0  0  0  0  0  0  0  0
  1  2  1  0
  2  3  1  0
  3  4  1  0
  4  5  2  0
  5  6  1  0
  6  7  2  0
  7  8  1  0
  8  9  1  0
  9 10  2  0
  9 11  1  0
 11 12  1  0
 12 13  1  0
 13 14  1  0
 14 15  1  0
 15 16  1  0
 16 17  2  0
 17 18  1  0
 18 19  2  0
 19 20  1  0
 20 21  2  0
  7 22  1  0
 22 23  2  0
 23  4  1  0
 21 12  1  0
 21 16  1  0
  1 24  1  0
  1 25  1  0
  1 26  1  0
  2 27  1  0
  2 28  1  0
  5 29  1  0
  6 30  1  0
  8 31  1  0
 11 32  1  0
 12 33  1  0
 13 34  1  0
 13 35  1  0
 14 36  1  0
 14 37  1  0
 15 38  1  0
 15 39  1  0
 17 40  1  0
 18 41  1  0
 19 42  1  0
 20 43  1  0
 22 44  1  0
 23 45  1  0
M  END
$$$$
