
     RDKit          3D

 41 43  0  0  0  0  0  0  0  0999 V2000
   -3.3470   -3.1319    1.6337 C   0  0  0  0  0  0  0  0  0  0  0  0
   -3.9030   -1.7647    1.2636 C   0  0  0  0  0  0  0  0  0  0  0  0
   -3.5018   -1.3104   -0.1440 C   0  0  0  0  0  0  0  0  0  0  0  0
   -2.0072   -1.0571   -0.3530 C   0  0  0  0  0  0  0  0  0  0  0  0
   -1.4356    0.4009    0.5701 S   0  0  0  0  0  0  0  0  0  0  0  0
    0.2200    0.4901    0.0484 C   0  0  0  0  0  0  0  0  0  0  0  0
    0.8271   -0.5738   -0.3797 N   0  0  0  0  0  0  0  0  0  0  0  0
    2.0519   -0.1203   -0.7941 C   0  0  0  0  0  0  0  0  0  0  0  0
    3.0789   -0.8180   -1.2986 C   0  0  0  0  0  0  0  0  0  0  0  0
    3.1657   -2.2331   -1.5285 C   0  0  0  0  0  0  0  0  0  0  0  0
    2.1836   -3.2294   -1.2324 C   0  0  0  0  0  0  0  0  0  0  0  0
    2.5976   -4.4988   -1.5714 C   0  0  0  0  0  0  0  0  0  0  0  0
    4.1647   -4.5031   -2.2530 S   0  0  0  0  0  0  0  0  0  0  0  0
    4.2921   -2.8024   -2.0925 C   0  0  0  0  0  0  0  0  0  0  0  0
    2.1349    1.3558   -0.5946 C   0  0  0  0  0  0  0  0  0  0  0  0
    3.0973    2.0488   -0.8779 O   0  0  0  0  0  0  0  0  0  0  0  0
    0.9283    1.6637   -0.0094 N   0  0  0  0  0  0  0  0  0  0  0  0
    0.5834    2.9747    0.4197 C   0  0  0  0  0  0  0  0  0  0  0  0
    1.0854    4.0985   -0.2604 C   0  0  0  0  0  0  0  0  0  0  0  0
    0.7600    5.3983    0.1414 C   0  0  0  0  0  0  0  0  0  0  0  0
   -0.0622    5.6027    1.2440 C   0  0  0  0  0  0  0  0  0  0  0  0
   -0.5507    4.5063    1.9471 C   0  0  0  0  0  0  0  0  0  0  0  0
   -0.2248    3.2076    1.5418 C   0  0  0  0  0  0  0  0  0  0  0  0
   -2.2550   -3.1214    1.7029 H   0  0  0  0  0  0  0  0  0  0  0  0
   -3.7359   -3.4398    2.6098 H   0  0  0  0  0  0  0  0  0  0  0  0
   -3.6411   -3.8853    0.8971 H   0  0  0  0  0  0  0  0  0  0  0  0
   -4.9981   -1.8138    1.3082 H   0  0  0  0  0  0  0  0  0  0  0  0
   -3.5957   -1.0308    2.0164 H   0  0  0  0  0  0  0  0  0  0  0  0
   -3.8226   -2.0759   -0.8605 H   0  0  0  0  0  0  0  0  0  0  0  0
   -4.0686   -0.4056   -0.3994 H   0  0  0  0  0  0  0  0  0  0  0  0
   -1.4258   -1.9343   -0.0588 H   0  0  0  0  0  0  0  0  0  0  0  0
   -1.8296   -0.8775   -1.4169 H   0  0  0  0  0  0  0  0  0  0  0  0
    3.9688   -0.2453   -1.5611 H   0  0  0  0  0  0  0  0  0  0  0  0
    1.2156   -3.0407   -0.7857 H   0  0  0  0  0  0  0  0  0  0  0  0
    2.0541   -5.4256   -1.4484 H   0  0  0  0  0  0  0  0  0  0  0  0
    5.1972   -2.3102   -2.4229 H   0  0  0  0  0  0  0  0  0  0  0  0
    1.7187    3.9891   -1.1366 H   0  0  0  0  0  0  0  0  0  0  0  0
    1.1522    6.2481   -0.4119 H   0  0  0  0  0  0  0  0  0  0  0  0
   -0.3129    6.6129    1.5595 H   0  0  0  0  0  0  0  0  0  0  0  0
   -1.1766    4.6573    2.8244 H   0  0  0  0  0  0  0  0  0  0  0  0
   -0.5828    2.3944    2.1632 H   0  0  0  0  0  0  0  0  0  0  0  0
  1  2  1  0
  2  3  1  0
  3  4  1  0
  4  5  1  0
  5  6  1  0
  6  7  2  0
  7  8  1  0
  8  9  2  3
  9 10  1  0
 10 11  1  0
 11 12  2  0
 12 13  1  0
 13 14  1  0
  8 15  1  0
 15 16  2  0
 15 17  1  0
 17 18  1  0
 18 19  2  0
 19 20  1  0
 20 21  2  0
 21 22  1  0
 22 23  2  0
 17  6  1  0
 23 18  1  0
 14 10  2  0
  1 24  1  0
  1 25  1  0
  1 26  1  0
  2 27  1  0
  2 28  1  0
  3 29  1  0
  3 30  1  0
  4 31  1  0
  4 32  1  0
  9 33  1  0
 11 34  1  0
 12 35  1  0
 14 36  1  0
 19 37  1  0
 20 38  1  0
 21 39  1  0
 22 40  1  0
 23 41  1  0
M  END
$$$$
