
     RDKit          3D

 34 36  0  0  0  0  0  0  0  0999 V2000
   -0.2734   -0.2256   -1.9340 O   0  0  0  0  0  0  0  0  0  0  0  0
   -0.3496   -0.7405   -0.8226 C   0  0  0  0  0  0  0  0  0  0  0  0
   -1.6740   -1.2942   -0.3079 C   0  0  0  0  0  0  0  0  0  0  0  0
   -2.7966   -0.2805   -0.1752 C   0  0  0  0  0  0  0  0  0  0  0  0
   -2.5204    1.0895   -0.0144 C   0  0  0  0  0  0  0  0  0  0  0  0
   -3.5511    2.0285    0.1107 C   0  0  0  0  0  0  0  0  0  0  0  0
   -4.8838    1.6248    0.0907 C   0  0  0  0  0  0  0  0  0  0  0  0
   -5.1932    0.2748   -0.0433 C   0  0  0  0  0  0  0  0  0  0  0  0
   -4.1560   -0.6646   -0.1632 C   0  0  0  0  0  0  0  0  0  0  0  0
   -4.5476   -2.0696   -0.2473 N   0  0  0  0  0  4  0  0  0  0  0  0
   -5.4566   -2.3604   -1.0362 O   0  0  0  0  0  0  0  0  0  0  0  0
   -3.9589   -2.8708    0.4925 O   0  0  0  0  0  1  0  0  0  0  0  0
    0.6857   -0.8775    0.0889 N   0  0  0  0  0  0  0  0  0  0  0  0
    2.0239   -0.4529   -0.0618 C   0  0  0  0  0  0  0  0  0  0  0  0
    2.8986   -0.7170    1.0176 C   0  0  0  0  0  0  0  0  0  0  0  0
    4.2446   -0.3358    0.9723 C   0  0  0  0  0  0  0  0  0  0  0  0
    4.6870    0.3061   -0.1608 C   0  0  0  0  0  0  0  0  0  0  0  0
    3.8449    0.5672   -1.2142 C   0  0  0  0  0  0  0  0  0  0  0  0
    2.5123    0.2023   -1.1968 C   0  0  0  0  0  0  0  0  0  0  0  0
    4.4781    1.2087   -2.2340 O   0  0  0  0  0  0  0  0  0  0  0  0
    5.8141    1.3153   -1.7022 C   0  0  0  0  0  0  0  0  0  0  0  0
    5.9529    0.7477   -0.3826 O   0  0  0  0  0  0  0  0  0  0  0  0
   -1.5311   -1.7756    0.6662 H   0  0  0  0  0  0  0  0  0  0  0  0
   -1.9530   -2.0740   -1.0274 H   0  0  0  0  0  0  0  0  0  0  0  0
   -1.4958    1.4600   -0.0017 H   0  0  0  0  0  0  0  0  0  0  0  0
   -3.3070    3.0840    0.2165 H   0  0  0  0  0  0  0  0  0  0  0  0
   -5.6778    2.3622    0.1823 H   0  0  0  0  0  0  0  0  0  0  0  0
   -6.2357   -0.0379   -0.0477 H   0  0  0  0  0  0  0  0  0  0  0  0
    0.4711   -1.3387    0.9645 H   0  0  0  0  0  0  0  0  0  0  0  0
    2.5396   -1.2259    1.9092 H   0  0  0  0  0  0  0  0  0  0  0  0
    4.9169   -0.5381    1.7983 H   0  0  0  0  0  0  0  0  0  0  0  0
    1.8971    0.4339   -2.0570 H   0  0  0  0  0  0  0  0  0  0  0  0
    6.5041    0.7995   -2.3800 H   0  0  0  0  0  0  0  0  0  0  0  0
    6.0908    2.3750   -1.6585 H   0  0  0  0  0  0  0  0  0  0  0  0
  1  2  2  0
  2  3  1  0
  3  4  1  0
  4  5  2  0
  5  6  1  0
  6  7  2  0
  7  8  1  0
  8  9  2  0
  9 10  1  0
 10 11  2  0
 10 12  1  0
  2 13  1  0
 13 14  1  0
 14 15  2  0
 15 16  1  0
 16 17  2  0
 17 18  1  0
 18 19  2  0
 18 20  1  0
 20 21  1  0
 21 22  1  0
  9  4  1  0
 19 14  1  0
 22 17  1  0
  3 23  1  0
  3 24  1  0
  5 25  1  0
  6 26  1  0
  7 27  1  0
  8 28  1  0
 13 29  1  0
 15 30  1  0
 16 31  1  0
 19 32  1  0
 21 33  1  0
 21 34  1  0
M  CHG  2  10   1  12  -1
M  END
$$$$
