
     RDKit          3D

 41 44  0  0  0  0  0  0  0  0999 V2000
    0.1607    1.1067   -1.6741 O   0  0  0  0  0  0  0  0  0  0  0  0
   -0.1407    0.4923   -0.6617 C   0  0  0  0  0  0  0  0  0  0  0  0
   -0.6563    1.1420    0.4017 O   0  0  0  0  0  0  0  0  0  0  0  0
   -0.0641   -1.0130   -0.4681 C   0  0  0  0  0  0  0  0  0  0  0  0
    1.3762   -1.4948   -0.6820 C   0  0  0  0  0  0  0  0  0  0  0  0
    2.2957   -1.0835    0.4286 C   0  0  0  0  0  0  0  0  0  0  0  0
    2.4716   -1.7494    1.6262 C   0  0  0  0  0  0  0  0  0  0  0  0
    3.3838   -1.0567    2.3748 N   0  0  0  0  0  0  0  0  0  0  0  0
    3.8090    0.0590    1.6930 C   0  0  0  0  0  0  0  0  0  0  0  0
    4.7232    1.0503    2.0697 C   0  0  0  0  0  0  0  0  0  0  0  0
    4.9730    2.0814    1.1600 C   0  0  0  0  0  0  0  0  0  0  0  0
    4.3345    2.1160   -0.0767 C   0  0  0  0  0  0  0  0  0  0  0  0
    3.4237    1.1162   -0.4376 C   0  0  0  0  0  0  0  0  0  0  0  0
    3.1504    0.0656    0.4630 C   0  0  0  0  0  0  0  0  0  0  0  0
   -0.9467   -1.6655   -1.4688 N   0  0  0  0  0  0  0  0  0  0  0  0
   -2.4179   -2.2864   -0.9624 S   0  0  0  0  0  6  0  0  0  0  0  0
   -3.0853   -2.8347   -2.1197 O   0  0  0  0  0  0  0  0  0  0  0  0
   -2.1507   -3.0999    0.2050 O   0  0  0  0  0  0  0  0  0  0  0  0
   -3.3363   -0.8906   -0.4367 C   0  0  0  0  0  0  0  0  0  0  0  0
   -3.9205   -0.8474    0.8473 C   0  0  0  0  0  0  0  0  0  0  0  0
   -4.6621    0.2630    1.3133 C   0  0  0  0  0  0  0  0  0  0  0  0
   -4.8771    1.4181    0.5414 C   0  0  0  0  0  0  0  0  0  0  0  0
   -4.3056    1.4231   -0.7542 C   0  0  0  0  0  0  0  0  0  0  0  0
   -4.3789    2.4303   -1.6365 N   0  0  0  0  0  0  0  0  0  0  0  0
   -3.5514    1.9366   -2.9882 S   0  0  0  0  0  0  0  0  0  0  0  0
   -3.0424    0.4330   -2.5041 N   0  0  0  0  0  0  0  0  0  0  0  0
   -3.5187    0.2398   -1.2627 C   0  0  0  0  0  0  0  0  0  0  0  0
   -0.6123    2.0896    0.1506 H   0  0  0  0  0  0  0  0  0  0  0  0
   -0.3831   -1.2631    0.5502 H   0  0  0  0  0  0  0  0  0  0  0  0
    1.7680   -1.1323   -1.6412 H   0  0  0  0  0  0  0  0  0  0  0  0
    1.3868   -2.5912   -0.7518 H   0  0  0  0  0  0  0  0  0  0  0  0
    2.0260   -2.6596    2.0073 H   0  0  0  0  0  0  0  0  0  0  0  0
    3.7044   -1.3217    3.2959 H   0  0  0  0  0  0  0  0  0  0  0  0
    5.2259    1.0239    3.0310 H   0  0  0  0  0  0  0  0  0  0  0  0
    5.6799    2.8657    1.4214 H   0  0  0  0  0  0  0  0  0  0  0  0
    4.5459    2.9242   -0.7726 H   0  0  0  0  0  0  0  0  0  0  0  0
    2.9373    1.1562   -1.4086 H   0  0  0  0  0  0  0  0  0  0  0  0
   -0.9917   -1.2248   -2.3935 H   0  0  0  0  0  0  0  0  0  0  0  0
   -3.8035   -1.7027    1.5160 H   0  0  0  0  0  0  0  0  0  0  0  0
   -5.0857    0.2214    2.3180 H   0  0  0  0  0  0  0  0  0  0  0  0
   -5.4453    2.2630    0.9128 H   0  0  0  0  0  0  0  0  0  0  0  0
  1  2  2  0
  2  3  1  0
  2  4  1  0
  4  5  1  0
  5  6  1  0
  6  7  2  0
  7  8  1  0
  8  9  1  0
  9 10  2  0
 10 11  1  0
 11 12  2  0
 12 13  1  0
 13 14  2  0
  4 15  1  0
 15 16  1  0
 16 17  2  0
 16 18  2  0
 16 19  1  0
 19 20  2  0
 20 21  1  0
 21 22  2  0
 22 23  1  0
 23 24  2  0
 24 25  1  0
 25 26  1  0
 26 27  2  0
 14  6  1  0
 27 19  1  0
 14  9  1  0
 27 23  1  0
  3 28  1  0
  4 29  1  0
  5 30  1  0
  5 31  1  0
  7 32  1  0
  8 33  1  0
 10 34  1  0
 11 35  1  0
 12 36  1  0
 13 37  1  0
 15 38  1  0
 20 39  1  0
 21 40  1  0
 22 41  1  0
M  END
$$$$
