
     RDKit          3D

 39 39  0  0  0  0  0  0  0  0999 V2000
   -3.1023   -3.3108   -2.6717 C   0  0  0  0  0  0  0  0  0  0  0  0
   -2.6177   -1.9722   -2.7797 O   0  0  0  0  0  0  0  0  0  0  0  0
   -2.0469   -1.4971   -1.6339 C   0  0  0  0  0  0  0  0  0  0  0  0
   -2.0089   -2.1028   -0.5692 O   0  0  0  0  0  0  0  0  0  0  0  0
   -1.5394   -0.0653   -1.8529 C   0  0  0  0  0  0  0  0  0  0  0  0
   -2.6910    0.9478   -1.7526 C   0  0  0  0  0  0  0  0  0  0  0  0
   -3.5740    0.8666   -0.5008 C   0  0  0  0  0  0  0  0  0  0  0  0
   -2.7073    1.3447    1.0285 S   0  0  0  0  0  0  0  0  0  0  0  0
   -4.0211    0.9687    2.2142 C   0  0  0  0  0  0  0  0  0  0  0  0
   -0.4575    0.2444   -0.9258 N   0  0  0  0  0  0  0  0  0  0  0  0
    0.8002   -0.2413   -1.1567 C   0  0  0  0  0  0  0  0  0  0  0  0
    1.1276   -0.8465   -2.1686 O   0  0  0  0  0  0  0  0  0  0  0  0
    1.6398    0.0303   -0.1187 N   0  0  0  0  0  0  0  0  0  0  0  0
    3.0481   -0.2821   -0.2184 C   0  0  0  0  0  0  0  0  0  0  0  0
    3.8176    0.2086    0.9882 C   0  0  0  0  0  0  0  0  0  0  0  0
    5.0483   -0.3616    1.3062 C   0  0  0  0  0  0  0  0  0  0  0  0
    5.7528    0.1287    2.4024 C   0  0  0  0  0  0  0  0  0  0  0  0
    5.2186    1.1751    3.1444 C   0  0  0  0  0  0  0  0  0  0  0  0
    3.9958    1.6953    2.7567 C   0  0  0  0  0  0  0  0  0  0  0  0
    3.2882    1.2441    1.6981 N   0  0  0  0  0  0  0  0  0  0  0  0
   -3.4955   -3.6085   -3.6476 H   0  0  0  0  0  0  0  0  0  0  0  0
   -2.2908   -3.9943   -2.4028 H   0  0  0  0  0  0  0  0  0  0  0  0
   -3.9144   -3.3644   -1.9400 H   0  0  0  0  0  0  0  0  0  0  0  0
   -1.1149   -0.0160   -2.8639 H   0  0  0  0  0  0  0  0  0  0  0  0
   -3.3510    0.7876   -2.6159 H   0  0  0  0  0  0  0  0  0  0  0  0
   -2.2948    1.9662   -1.8588 H   0  0  0  0  0  0  0  0  0  0  0  0
   -3.9867   -0.1401   -0.3843 H   0  0  0  0  0  0  0  0  0  0  0  0
   -4.4186    1.5528   -0.6270 H   0  0  0  0  0  0  0  0  0  0  0  0
   -3.6760    1.2112    3.2228 H   0  0  0  0  0  0  0  0  0  0  0  0
   -4.9110    1.5656    1.9981 H   0  0  0  0  0  0  0  0  0  0  0  0
   -4.2723   -0.0945    2.1791 H   0  0  0  0  0  0  0  0  0  0  0  0
   -0.7157    0.2714    0.0553 H   0  0  0  0  0  0  0  0  0  0  0  0
    1.4295    0.8456    0.4443 H   0  0  0  0  0  0  0  0  0  0  0  0
    3.1419   -1.3689   -0.3234 H   0  0  0  0  0  0  0  0  0  0  0  0
    3.4501    0.1923   -1.1207 H   0  0  0  0  0  0  0  0  0  0  0  0
    5.4545   -1.1757    0.7144 H   0  0  0  0  0  0  0  0  0  0  0  0
    6.7121   -0.3026    2.6743 H   0  0  0  0  0  0  0  0  0  0  0  0
    5.7434    1.5775    4.0034 H   0  0  0  0  0  0  0  0  0  0  0  0
    3.5389    2.5155    3.3031 H   0  0  0  0  0  0  0  0  0  0  0  0
  1  2  1  0
  2  3  1  0
  3  4  2  0
  3  5  1  0
  5  6  1  0
  6  7  1  0
  7  8  1  0
  8  9  1  0
  5 10  1  0
 10 11  1  0
 11 12  2  0
 11 13  1  0
 13 14  1  0
 14 15  1  0
 15 16  2  0
 16 17  1  0
 17 18  2  0
 18 19  1  0
 19 20  2  0
 20 15  1  0
  1 21  1  0
  1 22  1  0
  1 23  1  0
  5 24  1  0
  6 25  1  0
  6 26  1  0
  7 27  1  0
  7 28  1  0
  9 29  1  0
  9 30  1  0
  9 31  1  0
 10 32  1  0
 13 33  1  0
 14 34  1  0
 14 35  1  0
 16 36  1  0
 17 37  1  0
 18 38  1  0
 19 39  1  0
M  END
$$$$
