
     RDKit          3D

 45 47  0  0  0  0  0  0  0  0999 V2000
    5.3916   -2.0442   -3.3781 C   0  0  0  0  0  0  0  0  0  0  0  0
    4.9149   -1.1024   -2.2964 C   0  0  0  0  0  0  0  0  0  0  0  0
    5.6389   -0.8915   -1.2422 N   0  0  0  0  0  0  0  0  0  0  0  0
    3.5851   -0.3965   -2.4888 C   0  0  0  0  0  0  0  0  0  0  0  0
    3.6961    0.5003   -3.6466 C   0  0  0  0  0  0  0  0  0  0  0  0
    3.8138    1.1391   -4.6094 N   0  0  0  0  0  0  0  0  0  0  0  0
    3.0658    0.3439   -1.2718 C   0  0  0  0  0  0  0  0  0  0  0  0
    2.5765    1.4763   -1.3394 O   0  0  0  0  0  0  0  0  0  0  0  0
    3.0487   -0.4233    0.0535 C   0  0  0  0  0  0  0  0  0  0  0  0
    1.8278   -0.2335    0.7733 O   0  0  0  0  0  0  0  0  0  0  0  0
    0.7472   -0.7566    0.1451 C   0  0  0  0  0  0  0  0  0  0  0  0
    0.7602   -1.3781   -0.9057 O   0  0  0  0  0  0  0  0  0  0  0  0
   -0.4814   -0.3763    0.8631 C   0  0  0  0  0  0  0  0  0  0  0  0
   -1.4422    0.2972    0.1063 C   0  0  0  0  0  0  0  0  0  0  0  0
   -2.6175    0.6857    0.7242 C   0  0  0  0  0  0  0  0  0  0  0  0
   -3.7002    1.4079    0.0234 C   0  0  0  0  0  0  0  0  0  0  0  0
   -4.5162    2.3235    0.7169 C   0  0  0  0  0  0  0  0  0  0  0  0
   -5.5448    3.0220    0.0770 C   0  0  0  0  0  0  0  0  0  0  0  0
   -5.7861    2.8160   -1.2777 C   0  0  0  0  0  0  0  0  0  0  0  0
   -4.9994    1.9091   -1.9809 C   0  0  0  0  0  0  0  0  0  0  0  0
   -5.3310    1.6132   -3.8195 Br  0  0  0  0  0  0  0  0  0  0  0  0
   -3.9697    1.2105   -1.3437 C   0  0  0  0  0  0  0  0  0  0  0  0
   -2.8391    0.4268    2.0366 N   0  0  0  0  0  0  0  0  0  0  0  0
   -1.9219   -0.2384    2.7589 C   0  0  0  0  0  0  0  0  0  0  0  0
   -2.2042   -0.5017    4.0926 C   0  0  0  0  0  0  0  0  0  0  0  0
   -1.3178   -1.2020    4.9134 C   0  0  0  0  0  0  0  0  0  0  0  0
   -0.1159   -1.6579    4.3933 C   0  0  0  0  0  0  0  0  0  0  0  0
    0.1924   -1.4049    3.0579 C   0  0  0  0  0  0  0  0  0  0  0  0
   -0.7007   -0.6838    2.2228 C   0  0  0  0  0  0  0  0  0  0  0  0
    4.5523   -2.6421   -3.7433 H   0  0  0  0  0  0  0  0  0  0  0  0
    6.1605   -2.7189   -2.9923 H   0  0  0  0  0  0  0  0  0  0  0  0
    5.8101   -1.4654   -4.2056 H   0  0  0  0  0  0  0  0  0  0  0  0
    6.5215   -1.4214   -1.2818 H   0  0  0  0  0  0  0  0  0  0  0  0
    2.8423   -1.1709   -2.7179 H   0  0  0  0  0  0  0  0  0  0  0  0
    3.2085   -1.4957   -0.1031 H   0  0  0  0  0  0  0  0  0  0  0  0
    3.8642   -0.0437    0.6764 H   0  0  0  0  0  0  0  0  0  0  0  0
   -1.2487    0.5291   -0.9365 H   0  0  0  0  0  0  0  0  0  0  0  0
   -4.3469    2.5002    1.7790 H   0  0  0  0  0  0  0  0  0  0  0  0
   -6.1549    3.7235    0.6404 H   0  0  0  0  0  0  0  0  0  0  0  0
   -6.5870    3.3597   -1.7711 H   0  0  0  0  0  0  0  0  0  0  0  0
   -3.3887    0.4944   -1.9200 H   0  0  0  0  0  0  0  0  0  0  0  0
   -3.1487   -0.1537    4.5061 H   0  0  0  0  0  0  0  0  0  0  0  0
   -1.5740   -1.3900    5.9529 H   0  0  0  0  0  0  0  0  0  0  0  0
    0.5798   -2.2077    5.0221 H   0  0  0  0  0  0  0  0  0  0  0  0
    1.1391   -1.7779    2.6741 H   0  0  0  0  0  0  0  0  0  0  0  0
  1  2  1  0
  2  3  2  3
  2  4  1  0
  4  5  1  0
  5  6  3  0
  4  7  1  0
  7  8  2  0
  7  9  1  0
  9 10  1  0
 10 11  1  0
 11 12  2  0
 11 13  1  0
 13 14  2  0
 14 15  1  0
 15 16  1  0
 16 17  2  0
 17 18  1  0
 18 19  2  0
 19 20  1  0
 20 21  1  0
 20 22  2  0
 15 23  2  0
 23 24  1  0
 24 25  2  0
 25 26  1  0
 26 27  2  0
 27 28  1  0
 28 29  2  0
 29 13  1  0
 22 16  1  0
 29 24  1  0
  1 30  1  0
  1 31  1  0
  1 32  1  0
  3 33  1  0
  4 34  1  0
  9 35  1  0
  9 36  1  0
 14 37  1  0
 17 38  1  0
 18 39  1  0
 19 40  1  0
 22 41  1  0
 25 42  1  0
 26 43  1  0
 27 44  1  0
 28 45  1  0
M  END
$$$$
