
     RDKit          3D

 39 41  0  0  0  0  0  0  0  0999 V2000
   -6.7983    1.8057    1.6727 C   0  0  0  0  0  0  0  0  0  0  0  0
   -5.3988    1.2588    1.4556 C   0  0  0  0  0  0  0  0  0  0  0  0
   -5.0694    1.4307    0.0780 O   0  0  0  0  0  0  0  0  0  0  0  0
   -3.8530    0.9611   -0.3402 C   0  0  0  0  0  0  0  0  0  0  0  0
   -3.6351    1.0777   -1.7129 C   0  0  0  0  0  0  0  0  0  0  0  0
   -2.4397    0.6421   -2.2956 C   0  0  0  0  0  0  0  0  0  0  0  0
   -1.4365    0.0809   -1.4844 C   0  0  0  0  0  0  0  0  0  0  0  0
   -0.2108   -0.3913   -1.9175 N   0  0  0  0  0  0  0  0  0  0  0  0
    0.4731   -0.8279   -0.8959 C   0  0  0  0  0  0  0  0  0  0  0  0
    1.7296   -1.3644   -0.8563 N   0  0  0  0  0  0  0  0  0  0  0  0
    2.5373   -1.4399   -1.9673 C   0  0  0  0  0  0  0  0  0  0  0  0
    2.2662   -1.0861   -3.1097 O   0  0  0  0  0  0  0  0  0  0  0  0
    3.9084   -2.0067   -1.6618 C   0  0  0  0  0  0  0  0  0  0  0  0
    4.8530   -0.9151   -1.1765 C   0  0  0  0  0  0  0  0  0  0  0  0
    4.5645   -0.4963    0.1868 N   0  0  0  0  0  0  0  0  0  0  0  0
    3.9114    0.6539    0.5420 C   0  0  0  0  0  0  0  0  0  0  0  0
    3.7721    0.6557    1.9126 C   0  0  0  0  0  0  0  0  0  0  0  0
    4.3729   -0.5291    2.4001 C   0  0  0  0  0  0  0  0  0  0  0  0
    4.8603   -1.2200    1.3124 C   0  0  0  0  0  0  0  0  0  0  0  0
   -0.2769   -0.7266    0.6308 S   0  0  0  0  0  0  0  0  0  0  0  0
   -1.6663   -0.0223   -0.1106 C   0  0  0  0  0  0  0  0  0  0  0  0
   -2.8678    0.4082    0.4848 C   0  0  0  0  0  0  0  0  0  0  0  0
   -7.1050    1.6888    2.7155 H   0  0  0  0  0  0  0  0  0  0  0  0
   -6.8417    2.8679    1.4096 H   0  0  0  0  0  0  0  0  0  0  0  0
   -7.5189    1.2877    1.0309 H   0  0  0  0  0  0  0  0  0  0  0  0
   -4.6959    1.8150    2.0873 H   0  0  0  0  0  0  0  0  0  0  0  0
   -5.3845    0.1948    1.7203 H   0  0  0  0  0  0  0  0  0  0  0  0
   -4.4061    1.5132   -2.3450 H   0  0  0  0  0  0  0  0  0  0  0  0
   -2.2756    0.7353   -3.3648 H   0  0  0  0  0  0  0  0  0  0  0  0
    2.0875   -1.5858    0.0625 H   0  0  0  0  0  0  0  0  0  0  0  0
    3.8174   -2.8242   -0.9364 H   0  0  0  0  0  0  0  0  0  0  0  0
    4.2960   -2.4486   -2.5878 H   0  0  0  0  0  0  0  0  0  0  0  0
    4.8073   -0.0275   -1.8183 H   0  0  0  0  0  0  0  0  0  0  0  0
    5.8871   -1.2779   -1.1787 H   0  0  0  0  0  0  0  0  0  0  0  0
    3.5916    1.3748   -0.2010 H   0  0  0  0  0  0  0  0  0  0  0  0
    3.2963    1.4322    2.4979 H   0  0  0  0  0  0  0  0  0  0  0  0
    4.4522   -0.8390    3.4346 H   0  0  0  0  0  0  0  0  0  0  0  0
    5.3927   -2.1608    1.2556 H   0  0  0  0  0  0  0  0  0  0  0  0
   -2.9964    0.3048    1.5552 H   0  0  0  0  0  0  0  0  0  0  0  0
  1  2  1  0
  2  3  1  0
  3  4  1  0
  4  5  2  0
  5  6  1  0
  6  7  2  0
  7  8  1  0
  8  9  2  0
  9 10  1  0
 10 11  1  0
 11 12  2  0
 11 13  1  0
 13 14  1  0
 14 15  1  0
 15 16  1  0
 16 17  2  0
 17 18  1  0
 18 19  2  0
  9 20  1  0
 20 21  1  0
 21 22  2  0
 22  4  1  0
 21  7  1  0
 19 15  1  0
  1 23  1  0
  1 24  1  0
  1 25  1  0
  2 26  1  0
  2 27  1  0
  5 28  1  0
  6 29  1  0
 10 30  1  0
 13 31  1  0
 13 32  1  0
 14 33  1  0
 14 34  1  0
 16 35  1  0
 17 36  1  0
 18 37  1  0
 19 38  1  0
 22 39  1  0
M  END
$$$$
