
     RDKit          3D

 28 30  0  0  0  0  0  0  0  0999 V2000
    3.2788    0.5745    2.7102 O   0  0  0  0  0  0  0  0  0  0  0  0
    2.9695    0.1755    1.5914 C   0  0  0  0  0  0  0  0  0  0  0  0
    1.5560    0.2015    1.1600 C   0  0  0  0  0  0  0  0  0  0  0  0
    1.2221   -0.2368   -0.0669 C   0  0  0  0  0  0  0  0  0  0  0  0
   -0.2118   -0.2385   -0.5755 C   0  0  0  0  0  0  0  0  0  0  0  0
   -1.1141    0.2752    0.4077 O   0  0  0  0  0  0  0  0  0  0  0  0
   -2.4392    0.3281    0.0757 C   0  0  0  0  0  0  0  0  0  0  0  0
   -2.9986   -0.0734   -1.1374 C   0  0  0  0  0  0  0  0  0  0  0  0
   -4.3784    0.0367   -1.3439 C   0  0  0  0  0  0  0  0  0  0  0  0
   -5.2059    0.5480   -0.3407 C   0  0  0  0  0  0  0  0  0  0  0  0
   -6.8982    0.6535   -0.6687 Cl  0  0  0  0  0  0  0  0  0  0  0  0
   -4.6484    0.9510    0.8756 C   0  0  0  0  0  0  0  0  0  0  0  0
   -5.6024    1.5929    2.1651 Cl  0  0  0  0  0  0  0  0  0  0  0  0
   -3.2692    0.8393    1.0779 C   0  0  0  0  0  0  0  0  0  0  0  0
    2.1469   -0.7229   -0.9721 N   0  0  0  0  0  0  0  0  0  0  0  0
    3.3726   -0.7355   -0.5731 C   0  0  0  0  0  0  0  0  0  0  0  0
    4.7255   -1.3047   -1.5384 S   0  0  0  0  0  0  0  0  0  0  0  0
    5.8345   -0.9466   -0.2417 C   0  0  0  0  0  0  0  0  0  0  0  0
    5.1995   -0.4386    0.8209 C   0  0  0  0  0  0  0  0  0  0  0  0
    3.8375   -0.3166    0.6508 N   0  0  0  0  0  0  0  0  0  0  0  0
    0.8414    0.5841    1.8774 H   0  0  0  0  0  0  0  0  0  0  0  0
   -0.2559    0.3858   -1.4768 H   0  0  0  0  0  0  0  0  0  0  0  0
   -0.4862   -1.2720   -0.8219 H   0  0  0  0  0  0  0  0  0  0  0  0
   -2.3956   -0.4764   -1.9455 H   0  0  0  0  0  0  0  0  0  0  0  0
   -4.8022   -0.2799   -2.2946 H   0  0  0  0  0  0  0  0  0  0  0  0
   -2.8318    1.1521    2.0236 H   0  0  0  0  0  0  0  0  0  0  0  0
    6.8990   -1.1234   -0.3148 H   0  0  0  0  0  0  0  0  0  0  0  0
    5.6545   -0.1329    1.7549 H   0  0  0  0  0  0  0  0  0  0  0  0
  1  2  2  0
  2  3  1  0
  3  4  2  0
  4  5  1  0
  5  6  1  0
  6  7  1  0
  7  8  2  0
  8  9  1  0
  9 10  2  0
 10 11  1  0
 10 12  1  0
 12 13  1  0
 12 14  2  0
  4 15  1  0
 15 16  2  0
 16 17  1  0
 17 18  1  0
 18 19  2  0
 19 20  1  0
 20  2  1  0
 14  7  1  0
 20 16  1  0
  3 21  1  0
  5 22  1  0
  5 23  1  0
  8 24  1  0
  9 25  1  0
 14 26  1  0
 18 27  1  0
 19 28  1  0
M  END
$$$$
