
     RDKit          3D

 45 47  0  0  0  0  0  0  0  0999 V2000
    1.8061    1.1127    1.1106 O   0  0  0  0  0  0  0  0  0  0  0  0
    1.6844    0.0088    0.5705 C   0  0  0  0  0  0  0  0  0  0  0  0
    2.7130   -1.0785    0.8434 C   0  0  0  0  0  0  0  0  0  0  0  0
    3.7766   -1.3620   -0.6123 S   0  0  0  0  0  0  0  0  0  0  0  0
    5.1022   -0.2194   -0.2723 C   0  0  0  0  0  0  0  0  0  0  0  0
    6.3915   -0.7217   -0.0628 C   0  0  0  0  0  0  0  0  0  0  0  0
    7.4569    0.1457    0.1943 C   0  0  0  0  0  0  0  0  0  0  0  0
    7.2334    1.5201    0.2337 C   0  0  0  0  0  0  0  0  0  0  0  0
    8.6716    2.6957    0.5818 Br  0  0  0  0  0  0  0  0  0  0  0  0
    5.9574    2.0332    0.0129 C   0  0  0  0  0  0  0  0  0  0  0  0
    4.8942    1.1630   -0.2457 C   0  0  0  0  0  0  0  0  0  0  0  0
    0.6234   -0.2615   -0.2833 N   0  0  0  0  0  0  0  0  0  0  0  0
   -0.4060    0.7635   -0.4759 C   0  0  0  0  0  0  0  0  0  0  0  0
   -1.6810    0.3933    0.2988 C   0  0  0  0  0  0  0  0  0  0  0  0
   -2.1663   -0.9666   -0.1349 N   0  0  0  0  0  0  0  0  0  0  0  0
   -3.6565   -1.4442    0.5591 S   0  0  0  0  0  6  0  0  0  0  0  0
   -4.0064   -2.7381    0.0135 O   0  0  0  0  0  0  0  0  0  0  0  0
   -3.5475   -1.2372    1.9879 O   0  0  0  0  0  0  0  0  0  0  0  0
   -4.7983   -0.2617   -0.1060 C   0  0  0  0  0  0  0  0  0  0  0  0
   -5.4457    0.6428    0.7398 C   0  0  0  0  0  0  0  0  0  0  0  0
   -6.3381    1.5670    0.1966 C   0  0  0  0  0  0  0  0  0  0  0  0
   -6.5816    1.5797   -1.1786 C   0  0  0  0  0  0  0  0  0  0  0  0
   -5.9379    0.6674   -2.0171 C   0  0  0  0  0  0  0  0  0  0  0  0
   -5.0442   -0.2597   -1.4826 C   0  0  0  0  0  0  0  0  0  0  0  0
   -1.0936   -2.0061    0.0500 C   0  0  0  0  0  0  0  0  0  0  0  0
    0.1852   -1.5980   -0.7036 C   0  0  0  0  0  0  0  0  0  0  0  0
    3.3200   -0.7878    1.7080 H   0  0  0  0  0  0  0  0  0  0  0  0
    2.2095   -2.0069    1.1265 H   0  0  0  0  0  0  0  0  0  0  0  0
    6.5785   -1.7927   -0.0969 H   0  0  0  0  0  0  0  0  0  0  0  0
    8.4513   -0.2604    0.3589 H   0  0  0  0  0  0  0  0  0  0  0  0
    5.7764    3.1047    0.0364 H   0  0  0  0  0  0  0  0  0  0  0  0
    3.9086    1.5838   -0.4297 H   0  0  0  0  0  0  0  0  0  0  0  0
   -0.0510    1.7504   -0.1637 H   0  0  0  0  0  0  0  0  0  0  0  0
   -0.6180    0.8143   -1.5508 H   0  0  0  0  0  0  0  0  0  0  0  0
   -2.4433    1.1491    0.0900 H   0  0  0  0  0  0  0  0  0  0  0  0
   -1.4735    0.3837    1.3752 H   0  0  0  0  0  0  0  0  0  0  0  0
   -5.2654    0.6334    1.8124 H   0  0  0  0  0  0  0  0  0  0  0  0
   -6.8492    2.2752    0.8446 H   0  0  0  0  0  0  0  0  0  0  0  0
   -7.2815    2.2993   -1.5976 H   0  0  0  0  0  0  0  0  0  0  0  0
   -6.1383    0.6768   -3.0858 H   0  0  0  0  0  0  0  0  0  0  0  0
   -4.5473   -0.9758   -2.1334 H   0  0  0  0  0  0  0  0  0  0  0  0
   -1.4356   -2.9675   -0.3463 H   0  0  0  0  0  0  0  0  0  0  0  0
   -0.8767   -2.1187    1.1190 H   0  0  0  0  0  0  0  0  0  0  0  0
   -0.0147   -1.5471   -1.7807 H   0  0  0  0  0  0  0  0  0  0  0  0
    0.9570   -2.3523   -0.5490 H   0  0  0  0  0  0  0  0  0  0  0  0
  1  2  2  0
  2  3  1  0
  3  4  1  0
  4  5  1  0
  5  6  2  0
  6  7  1  0
  7  8  2  0
  8  9  1  0
  8 10  1  0
 10 11  2  0
  2 12  1  0
 12 13  1  0
 13 14  1  0
 14 15  1  0
 15 16  1  0
 16 17  2  0
 16 18  2  0
 16 19  1  0
 19 20  2  0
 20 21  1  0
 21 22  2  0
 22 23  1  0
 23 24  2  0
 15 25  1  0
 25 26  1  0
 11  5  1  0
 26 12  1  0
 24 19  1  0
  3 27  1  0
  3 28  1  0
  6 29  1  0
  7 30  1  0
 10 31  1  0
 11 32  1  0
 13 33  1  0
 13 34  1  0
 14 35  1  0
 14 36  1  0
 20 37  1  0
 21 38  1  0
 22 39  1  0
 23 40  1  0
 24 41  1  0
 25 42  1  0
 25 43  1  0
 26 44  1  0
 26 45  1  0
M  END
$$$$
