
     RDKit          3D

 48 49  0  0  0  0  0  0  0  0999 V2000
    0.5914    3.0036   -0.8439 C   0  0  0  0  0  0  0  0  0  0  0  0
    1.2835    1.7716   -0.6815 O   0  0  0  0  0  0  0  0  0  0  0  0
    0.5371    0.6209   -0.7351 C   0  0  0  0  0  0  0  0  0  0  0  0
   -0.7493    0.5417   -1.2764 C   0  0  0  0  0  0  0  0  0  0  0  0
   -1.4492   -0.6778   -1.3049 C   0  0  0  0  0  0  0  0  0  0  0  0
   -2.8363   -0.7533   -1.8922 C   0  0  0  0  0  0  0  0  0  0  0  0
   -3.8375    0.0529   -1.2035 N   0  0  0  0  0  0  0  0  0  0  0  0
   -4.3927   -0.4201    0.0790 C   0  0  0  0  0  0  0  0  0  0  0  0
   -5.6338    0.4659    0.3265 C   0  0  0  0  0  0  0  0  0  0  0  0
   -4.8742   -1.8770   -0.0008 C   0  0  0  0  0  0  0  0  0  0  0  0
   -3.4101   -0.2390    1.2666 C   0  0  0  0  0  0  0  0  0  0  0  0
   -4.0383   -0.4226    2.5342 O   0  0  0  0  0  0  0  0  0  0  0  0
   -0.8295   -1.8282   -0.7982 C   0  0  0  0  0  0  0  0  0  0  0  0
    0.4568   -1.7595   -0.2584 C   0  0  0  0  0  0  0  0  0  0  0  0
    1.2175   -3.3502    0.4400 Br  0  0  0  0  0  0  0  0  0  0  0  0
    1.1470   -0.5451   -0.2434 C   0  0  0  0  0  0  0  0  0  0  0  0
    2.3966   -0.4685    0.3235 O   0  0  0  0  0  0  0  0  0  0  0  0
    3.4174   -0.5254   -0.6786 C   0  0  0  0  0  0  0  0  0  0  0  0
    4.7068    0.0032   -0.1000 C   0  0  0  0  0  0  0  0  0  0  0  0
    5.4586    0.9541   -0.8044 C   0  0  0  0  0  0  0  0  0  0  0  0
    6.6510    1.4525   -0.2760 C   0  0  0  0  0  0  0  0  0  0  0  0
    7.1010    0.9959    0.9582 C   0  0  0  0  0  0  0  0  0  0  0  0
    8.5637    1.6186    1.6126 Cl  0  0  0  0  0  0  0  0  0  0  0  0
    6.3724    0.0426    1.6659 C   0  0  0  0  0  0  0  0  0  0  0  0
    5.1816   -0.4566    1.1364 C   0  0  0  0  0  0  0  0  0  0  0  0
   -0.2885    3.0644   -0.1958 H   0  0  0  0  0  0  0  0  0  0  0  0
    1.2734    3.8093   -0.5515 H   0  0  0  0  0  0  0  0  0  0  0  0
    0.3211    3.1577   -1.8934 H   0  0  0  0  0  0  0  0  0  0  0  0
   -1.2274    1.4203   -1.6987 H   0  0  0  0  0  0  0  0  0  0  0  0
   -3.1633   -1.7912   -2.0019 H   0  0  0  0  0  0  0  0  0  0  0  0
   -2.7642   -0.3819   -2.9215 H   0  0  0  0  0  0  0  0  0  0  0  0
   -3.5177    1.0102   -1.1103 H   0  0  0  0  0  0  0  0  0  0  0  0
   -6.1767    0.1620    1.2296 H   0  0  0  0  0  0  0  0  0  0  0  0
   -6.3412    0.4061   -0.5090 H   0  0  0  0  0  0  0  0  0  0  0  0
   -5.3527    1.5159    0.4519 H   0  0  0  0  0  0  0  0  0  0  0  0
   -4.0361   -2.5796   -0.0522 H   0  0  0  0  0  0  0  0  0  0  0  0
   -5.5018   -2.0372   -0.8822 H   0  0  0  0  0  0  0  0  0  0  0  0
   -5.4752   -2.1479    0.8746 H   0  0  0  0  0  0  0  0  0  0  0  0
   -2.5731   -0.9385    1.2126 H   0  0  0  0  0  0  0  0  0  0  0  0
   -2.9959    0.7736    1.2618 H   0  0  0  0  0  0  0  0  0  0  0  0
   -4.2305   -1.3702    2.6332 H   0  0  0  0  0  0  0  0  0  0  0  0
   -1.3575   -2.7789   -0.8201 H   0  0  0  0  0  0  0  0  0  0  0  0
    3.1441    0.0563   -1.5683 H   0  0  0  0  0  0  0  0  0  0  0  0
    3.5709   -1.5681   -0.9910 H   0  0  0  0  0  0  0  0  0  0  0  0
    5.1134    1.3271   -1.7654 H   0  0  0  0  0  0  0  0  0  0  0  0
    7.2146    2.1956   -0.8316 H   0  0  0  0  0  0  0  0  0  0  0  0
    6.7198   -0.3109    2.6292 H   0  0  0  0  0  0  0  0  0  0  0  0
    4.6131   -1.1943    1.7004 H   0  0  0  0  0  0  0  0  0  0  0  0
  1  2  1  0
  2  3  1  0
  3  4  2  0
  4  5  1  0
  5  6  1  0
  6  7  1  0
  7  8  1  0
  8  9  1  0
  8 10  1  0
  8 11  1  0
 11 12  1  0
  5 13  2  0
 13 14  1  0
 14 15  1  0
 14 16  2  0
 16 17  1  0
 17 18  1  0
 18 19  1  0
 19 20  2  0
 20 21  1  0
 21 22  2  0
 22 23  1  0
 22 24  1  0
 24 25  2  0
 16  3  1  0
 25 19  1  0
  1 26  1  0
  1 27  1  0
  1 28  1  0
  4 29  1  0
  6 30  1  0
  6 31  1  0
  7 32  1  0
  9 33  1  0
  9 34  1  0
  9 35  1  0
 10 36  1  0
 10 37  1  0
 10 38  1  0
 11 39  1  0
 11 40  1  0
 12 41  1  0
 13 42  1  0
 18 43  1  0
 18 44  1  0
 20 45  1  0
 21 46  1  0
 24 47  1  0
 25 48  1  0
M  END
$$$$
