
     RDKit          3D

 37 39  0  0  0  0  0  0  0  0999 V2000
   -1.6525   -1.6478    1.5283 O   0  0  0  0  0  0  0  0  0  0  0  0
   -1.1417   -0.6457    1.0440 C   0  0  0  0  0  0  0  0  0  0  0  0
    0.2853   -0.2382    1.3732 C   0  0  0  0  0  0  0  0  0  0  0  0
    1.1503   -1.4626    1.6840 C   0  0  0  0  0  0  0  0  0  0  0  0
    2.5991   -0.9659    2.6846 S   0  0  0  0  0  0  0  0  0  0  0  0
    3.6080   -0.2410    1.4118 C   0  0  0  0  0  0  0  0  0  0  0  0
    4.5689    0.7079    1.7794 C   0  0  0  0  0  0  0  0  0  0  0  0
    5.4292    1.2503    0.8234 C   0  0  0  0  0  0  0  0  0  0  0  0
    5.3453    0.8348   -0.5032 C   0  0  0  0  0  0  0  0  0  0  0  0
    4.3977   -0.1191   -0.8764 C   0  0  0  0  0  0  0  0  0  0  0  0
    3.5198   -0.6486    0.0753 C   0  0  0  0  0  0  0  0  0  0  0  0
    2.5970   -1.6131   -0.3499 N   0  0  0  0  0  0  0  0  0  0  0  0
    1.5692   -2.1389    0.3838 C   0  0  0  0  0  0  0  0  0  0  0  0
    0.9256   -3.0730   -0.0989 O   0  0  0  0  0  0  0  0  0  0  0  0
   -1.7693    0.2770    0.2239 N   0  0  0  0  0  0  0  0  0  0  0  0
   -3.0835    0.2330   -0.3160 C   0  0  0  0  0  0  0  0  0  0  0  0
   -3.9185   -0.8755   -0.1158 C   0  0  0  0  0  0  0  0  0  0  0  0
   -5.2117   -0.9234   -0.6515 C   0  0  0  0  0  0  0  0  0  0  0  0
   -5.7034    0.1361   -1.4040 C   0  0  0  0  0  0  0  0  0  0  0  0
   -4.9005    1.2510   -1.6260 C   0  0  0  0  0  0  0  0  0  0  0  0
   -3.5983    1.3030   -1.0884 C   0  0  0  0  0  0  0  0  0  0  0  0
   -2.8073    2.5156   -1.3601 N   0  0  0  0  0  4  0  0  0  0  0  0
   -1.6082    2.5187   -1.0363 O   0  0  0  0  0  0  0  0  0  0  0  0
   -3.3791    3.4741   -1.8989 O   0  0  0  0  0  1  0  0  0  0  0  0
    0.2096    0.4267    2.2432 H   0  0  0  0  0  0  0  0  0  0  0  0
    0.7011    0.3426    0.5412 H   0  0  0  0  0  0  0  0  0  0  0  0
    0.6138   -2.2009    2.2889 H   0  0  0  0  0  0  0  0  0  0  0  0
    4.6621    1.0251    2.8160 H   0  0  0  0  0  0  0  0  0  0  0  0
    6.1724    1.9875    1.1180 H   0  0  0  0  0  0  0  0  0  0  0  0
    6.0219    1.2500   -1.2465 H   0  0  0  0  0  0  0  0  0  0  0  0
    4.3501   -0.4346   -1.9156 H   0  0  0  0  0  0  0  0  0  0  0  0
    2.7087   -2.0292   -1.2665 H   0  0  0  0  0  0  0  0  0  0  0  0
   -1.2257    1.1053   -0.0225 H   0  0  0  0  0  0  0  0  0  0  0  0
   -3.5934   -1.7425    0.4529 H   0  0  0  0  0  0  0  0  0  0  0  0
   -5.8312   -1.8011   -0.4760 H   0  0  0  0  0  0  0  0  0  0  0  0
   -6.7085    0.0919   -1.8172 H   0  0  0  0  0  0  0  0  0  0  0  0
   -5.3026    2.0703   -2.2198 H   0  0  0  0  0  0  0  0  0  0  0  0
  1  2  2  0
  2  3  1  0
  3  4  1  0
  4  5  1  0
  5  6  1  0
  6  7  2  0
  7  8  1  0
  8  9  2  0
  9 10  1  0
 10 11  2  0
 11 12  1  0
 12 13  1  0
 13 14  2  0
  2 15  1  0
 15 16  1  0
 16 17  2  0
 17 18  1  0
 18 19  2  0
 19 20  1  0
 20 21  2  0
 21 22  1  0
 22 23  2  0
 22 24  1  0
 13  4  1  0
 21 16  1  0
 11  6  1  0
  3 25  1  0
  3 26  1  0
  4 27  1  0
  7 28  1  0
  8 29  1  0
  9 30  1  0
 10 31  1  0
 12 32  1  0
 15 33  1  0
 17 34  1  0
 18 35  1  0
 19 36  1  0
 20 37  1  0
M  CHG  2  22   1  24  -1
M  END
$$$$
