
     RDKit          3D

 58 61  0  0  0  0  0  0  0  0999 V2000
    9.1315    0.7372    0.2623 C   0  0  0  0  0  0  0  0  0  0  0  0
    7.7973    0.2666   -0.2424 C   0  0  0  0  0  0  0  0  0  0  0  0
    6.8459   -0.2679    0.6335 C   0  0  0  0  0  0  0  0  0  0  0  0
    5.6080   -0.7064    0.1530 C   0  0  0  0  0  0  0  0  0  0  0  0
    5.3052   -0.6284   -1.2139 C   0  0  0  0  0  0  0  0  0  0  0  0
    3.9509   -1.0554   -1.7180 C   0  0  0  0  0  0  0  0  0  0  0  0
    2.9731   -0.0182   -1.4677 N   0  0  0  0  0  0  0  0  0  0  0  0
    2.0825   -0.1081   -0.4176 C   0  0  0  0  0  0  0  0  0  0  0  0
    1.9464   -1.1203    0.2614 O   0  0  0  0  0  0  0  0  0  0  0  0
    1.2481    1.1605   -0.2182 C   0  0  0  0  0  0  0  0  0  0  0  0
    0.4970    1.1384    1.1246 C   0  0  0  0  0  0  0  0  0  0  0  0
   -0.8629    0.4581    0.9927 C   0  0  0  0  0  0  0  0  0  0  0  0
   -1.7969    1.2169    0.0264 C   0  0  0  0  0  0  0  0  0  0  0  0
   -2.7996    0.2634   -0.6544 C   0  0  0  0  0  0  0  0  0  0  0  0
   -3.5575   -0.5243    0.3133 N   0  0  0  0  0  0  0  0  0  0  0  0
   -4.8388   -0.2367    0.7646 C   0  0  0  0  0  0  0  0  0  0  0  0
   -5.1497    1.0705    1.0327 N   0  0  0  0  0  0  0  0  0  0  0  0
   -6.3271    1.5224    1.5656 C   0  0  0  0  0  0  0  0  0  0  0  0
   -6.4381    3.1558    1.9414 S   0  0  0  0  0  0  0  0  0  0  0  0
   -7.3364    0.6249    1.7702 N   0  0  0  0  0  0  0  0  0  0  0  0
   -7.0929   -0.6210    1.5084 C   0  0  0  0  0  0  0  0  0  0  0  0
   -8.1817   -1.6185    1.7217 C   0  0  0  0  0  0  0  0  0  0  0  0
   -7.9824   -2.9211    1.4722 C   0  0  0  0  0  0  0  0  0  0  0  0
   -6.7104   -3.4263    1.0195 C   0  0  0  0  0  0  0  0  0  0  0  0
   -5.6729   -2.6062    0.7952 C   0  0  0  0  0  0  0  0  0  0  0  0
   -5.7895   -1.1703    1.0016 C   0  0  0  0  0  0  0  0  0  0  0  0
   -1.0118    2.0205   -1.0321 C   0  0  0  0  0  0  0  0  0  0  0  0
    0.3019    1.3473   -1.4204 C   0  0  0  0  0  0  0  0  0  0  0  0
    6.2648   -0.1085   -2.0924 C   0  0  0  0  0  0  0  0  0  0  0  0
    7.5025    0.3290   -1.6109 C   0  0  0  0  0  0  0  0  0  0  0  0
    9.1186    0.8806    1.3482 H   0  0  0  0  0  0  0  0  0  0  0  0
    9.9057    0.0009    0.0216 H   0  0  0  0  0  0  0  0  0  0  0  0
    9.3944    1.7002   -0.1903 H   0  0  0  0  0  0  0  0  0  0  0  0
    7.0568   -0.3399    1.6991 H   0  0  0  0  0  0  0  0  0  0  0  0
    4.8731   -1.1050    0.8523 H   0  0  0  0  0  0  0  0  0  0  0  0
    3.6555   -2.0038   -1.2529 H   0  0  0  0  0  0  0  0  0  0  0  0
    3.9776   -1.2196   -2.8023 H   0  0  0  0  0  0  0  0  0  0  0  0
    3.1702    0.8949   -1.8532 H   0  0  0  0  0  0  0  0  0  0  0  0
    1.9556    2.0010   -0.1786 H   0  0  0  0  0  0  0  0  0  0  0  0
    0.3445    2.1710    1.4687 H   0  0  0  0  0  0  0  0  0  0  0  0
    1.0900    0.6414    1.9031 H   0  0  0  0  0  0  0  0  0  0  0  0
   -1.3366    0.3939    1.9795 H   0  0  0  0  0  0  0  0  0  0  0  0
   -0.7147   -0.5755    0.6538 H   0  0  0  0  0  0  0  0  0  0  0  0
   -2.3621    1.9482    0.6179 H   0  0  0  0  0  0  0  0  0  0  0  0
   -2.2502   -0.4394   -1.2993 H   0  0  0  0  0  0  0  0  0  0  0  0
   -3.4834    0.8168   -1.3155 H   0  0  0  0  0  0  0  0  0  0  0  0
   -3.3792   -1.5193    0.2075 H   0  0  0  0  0  0  0  0  0  0  0  0
   -4.4214    1.7613    0.9382 H   0  0  0  0  0  0  0  0  0  0  0  0
   -9.1325   -1.2374    2.0748 H   0  0  0  0  0  0  0  0  0  0  0  0
   -8.7828   -3.6396    1.6300 H   0  0  0  0  0  0  0  0  0  0  0  0
   -6.6161   -4.4986    0.8670 H   0  0  0  0  0  0  0  0  0  0  0  0
   -4.7348   -3.0285    0.4575 H   0  0  0  0  0  0  0  0  0  0  0  0
   -0.7887    3.0212   -0.6339 H   0  0  0  0  0  0  0  0  0  0  0  0
   -1.6241    2.1813   -1.9290 H   0  0  0  0  0  0  0  0  0  0  0  0
    0.0799    0.3807   -1.8939 H   0  0  0  0  0  0  0  0  0  0  0  0
    0.8051    1.9517   -2.1863 H   0  0  0  0  0  0  0  0  0  0  0  0
    6.0570   -0.0383   -3.1586 H   0  0  0  0  0  0  0  0  0  0  0  0
    8.2362    0.7261   -2.3102 H   0  0  0  0  0  0  0  0  0  0  0  0
  1  2  1  0
  2  3  2  0
  3  4  1  0
  4  5  2  0
  5  6  1  0
  6  7  1  0
  7  8  1  0
  8  9  2  0
  8 10  1  0
 10 11  1  0
 11 12  1  0
 12 13  1  0
 13 14  1  0
 14 15  1  0
 15 16  1  0
 16 17  1  0
 17 18  1  0
 18 19  2  0
 18 20  1  0
 20 21  2  0
 21 22  1  0
 22 23  2  0
 23 24  1  0
 24 25  2  0
 25 26  1  0
 13 27  1  0
 27 28  1  0
  5 29  1  0
 29 30  2  0
 30  2  1  0
 28 10  1  0
 26 16  2  0
 26 21  1  0
  1 31  1  0
  1 32  1  0
  1 33  1  0
  3 34  1  0
  4 35  1  0
  6 36  1  0
  6 37  1  0
  7 38  1  0
 10 39  1  0
 11 40  1  0
 11 41  1  0
 12 42  1  0
 12 43  1  0
 13 44  1  0
 14 45  1  0
 14 46  1  0
 15 47  1  0
 17 48  1  0
 22 49  1  0
 23 50  1  0
 24 51  1  0
 25 52  1  0
 27 53  1  0
 27 54  1  0
 28 55  1  0
 28 56  1  0
 29 57  1  0
 30 58  1  0
M  END
$$$$
