
     RDKit          3D

 41 44  0  0  0  0  0  0  0  0999 V2000
   -2.2482   -0.0229   -2.3614 C   0  0  0  0  0  0  0  0  0  0  0  0
   -1.7187   -0.5106   -1.0083 C   0  0  0  0  0  0  0  0  0  0  0  0
   -2.7160   -1.4970   -0.3509 C   0  0  0  0  0  0  0  0  0  0  0  0
   -3.4383   -0.5799    0.5789 C   0  0  0  0  0  0  0  0  0  0  0  0
   -4.6249   -0.8126    1.2565 C   0  0  0  0  0  0  0  0  0  0  0  0
   -5.1039    0.1859    2.1019 C   0  0  0  0  0  0  0  0  0  0  0  0
   -4.3882    1.3800    2.2622 C   0  0  0  0  0  0  0  0  0  0  0  0
   -3.1850    1.5916    1.5775 C   0  0  0  0  0  0  0  0  0  0  0  0
   -2.7122    0.6082    0.7241 C   0  0  0  0  0  0  0  0  0  0  0  0
   -1.5250    0.5981   -0.0283 N   0  0  0  0  0  0  0  0  0  0  0  0
   -0.9277    1.8795   -0.4503 C   0  0  0  0  0  0  0  0  0  0  0  0
    0.5414    1.6949   -0.8616 C   0  0  0  0  0  0  0  0  0  0  0  0
    1.0545    2.3839   -1.7377 O   0  0  0  0  0  0  0  0  0  0  0  0
    1.1666    0.7280   -0.0905 N   0  0  0  0  0  0  0  0  0  0  0  0
    2.5004    0.2916   -0.1399 C   0  0  0  0  0  0  0  0  0  0  0  0
    3.4693    0.8459   -0.9979 C   0  0  0  0  0  0  0  0  0  0  0  0
    4.7863    0.3671   -1.0026 C   0  0  0  0  0  0  0  0  0  0  0  0
    5.1006   -0.6596   -0.1420 C   0  0  0  0  0  0  0  0  0  0  0  0
    4.1614   -1.2043    0.6988 C   0  0  0  0  0  0  0  0  0  0  0  0
    2.8579   -0.7528    0.7249 C   0  0  0  0  0  0  0  0  0  0  0  0
    4.6708   -2.2047    1.4671 O   0  0  0  0  0  0  0  0  0  0  0  0
    6.0410   -2.2229    1.0138 C   0  0  0  0  0  0  0  0  0  0  0  0
    6.3193   -1.2463   -0.0106 O   0  0  0  0  0  0  0  0  0  0  0  0
   -2.4608   -0.8719   -3.0200 H   0  0  0  0  0  0  0  0  0  0  0  0
   -1.5092    0.6040   -2.8707 H   0  0  0  0  0  0  0  0  0  0  0  0
   -3.1677    0.5627   -2.2547 H   0  0  0  0  0  0  0  0  0  0  0  0
   -0.7671   -1.0268   -1.1819 H   0  0  0  0  0  0  0  0  0  0  0  0
   -3.3806   -1.9789   -1.0735 H   0  0  0  0  0  0  0  0  0  0  0  0
   -2.1830   -2.2584    0.2291 H   0  0  0  0  0  0  0  0  0  0  0  0
   -5.1673   -1.7443    1.1360 H   0  0  0  0  0  0  0  0  0  0  0  0
   -6.0330    0.0363    2.6464 H   0  0  0  0  0  0  0  0  0  0  0  0
   -4.7672    2.1477    2.9326 H   0  0  0  0  0  0  0  0  0  0  0  0
   -2.6443    2.5166    1.7387 H   0  0  0  0  0  0  0  0  0  0  0  0
   -1.4870    2.3253   -1.2791 H   0  0  0  0  0  0  0  0  0  0  0  0
   -0.9085    2.5988    0.3759 H   0  0  0  0  0  0  0  0  0  0  0  0
    0.5306    0.2508    0.5475 H   0  0  0  0  0  0  0  0  0  0  0  0
    3.2247    1.6581   -1.6762 H   0  0  0  0  0  0  0  0  0  0  0  0
    5.5328    0.7938   -1.6631 H   0  0  0  0  0  0  0  0  0  0  0  0
    2.1442   -1.2061    1.4034 H   0  0  0  0  0  0  0  0  0  0  0  0
    6.6962   -2.0289    1.8709 H   0  0  0  0  0  0  0  0  0  0  0  0
    6.2657   -3.2201    0.6181 H   0  0  0  0  0  0  0  0  0  0  0  0
  1  2  1  0
  2  3  1  0
  3  4  1  0
  4  5  2  0
  5  6  1  0
  6  7  2  0
  7  8  1  0
  8  9  2  0
  9 10  1  0
 10 11  1  0
 11 12  1  0
 12 13  2  0
 12 14  1  0
 14 15  1  0
 15 16  2  0
 16 17  1  0
 17 18  2  0
 18 19  1  0
 19 20  2  0
 19 21  1  0
 21 22  1  0
 22 23  1  0
 10  2  1  0
 20 15  1  0
  9  4  1  0
 23 18  1  0
  1 24  1  0
  1 25  1  0
  1 26  1  0
  2 27  1  0
  3 28  1  0
  3 29  1  0
  5 30  1  0
  6 31  1  0
  7 32  1  0
  8 33  1  0
 11 34  1  0
 11 35  1  0
 14 36  1  0
 16 37  1  0
 17 38  1  0
 20 39  1  0
 22 40  1  0
 22 41  1  0
M  END
$$$$
