
     RDKit          3D

 62 66  0  0  0  0  0  0  0  0999 V2000
   -1.3391   -4.7315   -2.8248 C   0  0  0  0  0  0  0  0  0  0  0  0
   -1.7933   -3.4239   -2.4983 O   0  0  0  0  0  0  0  0  0  0  0  0
   -2.4717   -3.2815   -1.3182 C   0  0  0  0  0  0  0  0  0  0  0  0
   -2.8053   -4.3079   -0.4342 C   0  0  0  0  0  0  0  0  0  0  0  0
   -3.5041   -4.0213    0.7421 C   0  0  0  0  0  0  0  0  0  0  0  0
   -3.8734   -2.7087    1.0389 C   0  0  0  0  0  0  0  0  0  0  0  0
   -3.5484   -1.6695    0.1596 C   0  0  0  0  0  0  0  0  0  0  0  0
   -3.9165   -0.2831    0.4655 C   0  0  0  0  0  0  0  0  0  0  0  0
   -5.5712    0.1476    0.4373 S   0  0  0  0  0  0  0  0  0  0  0  0
   -5.2426    1.7911    0.8144 C   0  0  0  0  0  0  0  0  0  0  0  0
   -6.1832    2.8268    0.9610 C   0  0  0  0  0  0  0  0  0  0  0  0
   -5.7289    4.1108    1.2734 C   0  0  0  0  0  0  0  0  0  0  0  0
   -4.3749    4.3739    1.4445 C   0  0  0  0  0  0  0  0  0  0  0  0
   -4.0795    5.6747    1.7503 O   0  0  0  0  0  0  0  0  0  0  0  0
   -2.7116    5.9859    1.9845 C   0  0  0  0  0  0  0  0  0  0  0  0
   -3.4491    3.3372    1.2961 C   0  0  0  0  0  0  0  0  0  0  0  0
   -3.8747    2.0182    0.9717 C   0  0  0  0  0  0  0  0  0  0  0  0
   -3.1140    0.8059    0.7663 C   0  0  0  0  0  0  0  0  0  0  0  0
   -1.6641    0.6845    0.8514 C   0  0  0  0  0  0  0  0  0  0  0  0
   -0.8600    1.1480   -0.1954 C   0  0  0  0  0  0  0  0  0  0  0  0
    0.5312    1.0174   -0.1265 C   0  0  0  0  0  0  0  0  0  0  0  0
    1.1245    0.4251    0.9897 C   0  0  0  0  0  0  0  0  0  0  0  0
    2.4662    0.2323    1.1730 O   0  0  0  0  0  0  0  0  0  0  0  0
    3.2915    0.3329    0.0066 C   0  0  0  0  0  0  0  0  0  0  0  0
    4.6990   -0.1551    0.3803 C   0  0  0  0  0  0  0  0  0  0  0  0
    5.6474   -0.1212   -0.7400 N   0  0  0  0  0  0  0  0  0  0  0  0
    7.0124   -0.4206   -0.2966 C   0  0  0  0  0  0  0  0  0  0  0  0
    7.7450   -0.7486   -1.5906 C   0  0  0  0  0  0  0  0  0  0  0  0
    6.6549   -1.1698   -2.5695 C   0  0  0  0  0  0  0  0  0  0  0  0
    5.3643   -1.1292   -1.7650 C   0  0  0  0  0  0  0  0  0  0  0  0
    0.3198   -0.0119    2.0453 C   0  0  0  0  0  0  0  0  0  0  0  0
   -1.0696    0.1116    1.9787 C   0  0  0  0  0  0  0  0  0  0  0  0
   -2.8473   -1.9689   -1.0167 C   0  0  0  0  0  0  0  0  0  0  0  0
   -2.1811   -5.4156   -2.9731 H   0  0  0  0  0  0  0  0  0  0  0  0
   -0.6480   -5.1119   -2.0651 H   0  0  0  0  0  0  0  0  0  0  0  0
   -0.7916   -4.6679   -3.7695 H   0  0  0  0  0  0  0  0  0  0  0  0
   -2.5383   -5.3408   -0.6304 H   0  0  0  0  0  0  0  0  0  0  0  0
   -3.7610   -4.8234    1.4295 H   0  0  0  0  0  0  0  0  0  0  0  0
   -4.4109   -2.5011    1.9615 H   0  0  0  0  0  0  0  0  0  0  0  0
   -7.2447    2.6353    0.8335 H   0  0  0  0  0  0  0  0  0  0  0  0
   -6.4500    4.9174    1.3869 H   0  0  0  0  0  0  0  0  0  0  0  0
   -2.6488    7.0507    2.2291 H   0  0  0  0  0  0  0  0  0  0  0  0
   -2.3195    5.4241    2.8389 H   0  0  0  0  0  0  0  0  0  0  0  0
   -2.1080    5.8149    1.0869 H   0  0  0  0  0  0  0  0  0  0  0  0
   -2.3855    3.5081    1.4224 H   0  0  0  0  0  0  0  0  0  0  0  0
   -1.3113    1.6030   -1.0745 H   0  0  0  0  0  0  0  0  0  0  0  0
    1.1215    1.3897   -0.9575 H   0  0  0  0  0  0  0  0  0  0  0  0
    2.8794   -0.2925   -0.7940 H   0  0  0  0  0  0  0  0  0  0  0  0
    3.3427    1.3778   -0.3222 H   0  0  0  0  0  0  0  0  0  0  0  0
    4.6337   -1.1599    0.8194 H   0  0  0  0  0  0  0  0  0  0  0  0
    5.0674    0.4938    1.1864 H   0  0  0  0  0  0  0  0  0  0  0  0
    7.4711    0.4256    0.2238 H   0  0  0  0  0  0  0  0  0  0  0  0
    7.0379   -1.2939    0.3679 H   0  0  0  0  0  0  0  0  0  0  0  0
    8.2756    0.1300   -1.9762 H   0  0  0  0  0  0  0  0  0  0  0  0
    8.4779   -1.5484   -1.4370 H   0  0  0  0  0  0  0  0  0  0  0  0
    6.8420   -2.1663   -2.9844 H   0  0  0  0  0  0  0  0  0  0  0  0
    6.6148   -0.4596   -3.4054 H   0  0  0  0  0  0  0  0  0  0  0  0
    4.5113   -0.8614   -2.3948 H   0  0  0  0  0  0  0  0  0  0  0  0
    5.1778   -2.1146   -1.3205 H   0  0  0  0  0  0  0  0  0  0  0  0
    0.7778   -0.4651    2.9211 H   0  0  0  0  0  0  0  0  0  0  0  0
   -1.6787   -0.2460    2.8050 H   0  0  0  0  0  0  0  0  0  0  0  0
   -2.5874   -1.1739   -1.7121 H   0  0  0  0  0  0  0  0  0  0  0  0
  1  2  1  0
  2  3  1  0
  3  4  2  0
  4  5  1  0
  5  6  2  0
  6  7  1  0
  7  8  1  0
  8  9  1  0
  9 10  1  0
 10 11  2  0
 11 12  1  0
 12 13  2  0
 13 14  1  0
 14 15  1  0
 13 16  1  0
 16 17  2  0
 17 18  1  0
 18 19  1  0
 19 20  2  0
 20 21  1  0
 21 22  2  0
 22 23  1  0
 23 24  1  0
 24 25  1  0
 25 26  1  0
 26 27  1  0
 27 28  1  0
 28 29  1  0
 29 30  1  0
 22 31  1  0
 31 32  2  0
  7 33  2  0
 33  3  1  0
 18  8  2  0
 32 19  1  0
 17 10  1  0
 30 26  1  0
  1 34  1  0
  1 35  1  0
  1 36  1  0
  4 37  1  0
  5 38  1  0
  6 39  1  0
 11 40  1  0
 12 41  1  0
 15 42  1  0
 15 43  1  0
 15 44  1  0
 16 45  1  0
 20 46  1  0
 21 47  1  0
 24 48  1  0
 24 49  1  0
 25 50  1  0
 25 51  1  0
 27 52  1  0
 27 53  1  0
 28 54  1  0
 28 55  1  0
 29 56  1  0
 29 57  1  0
 30 58  1  0
 30 59  1  0
 31 60  1  0
 32 61  1  0
 33 62  1  0
M  END
$$$$
