
     RDKit          3D

 42 43  0  0  0  0  0  0  0  0999 V2000
    2.9485    1.1362    2.4865 C   0  0  0  0  0  0  0  0  0  0  0  0
    3.6917   -0.0449    1.8897 C   0  0  0  0  0  0  0  0  0  0  0  0
    3.1242   -1.1436    1.4733 N   0  0  0  0  0  0  0  0  0  0  0  0
    1.7563   -1.2067    1.4235 N   0  0  0  0  0  0  0  0  0  0  0  0
    1.0438   -0.4097    0.5208 C   0  0  0  0  0  0  0  0  0  0  0  0
    1.4986    0.5471   -0.0981 O   0  0  0  0  0  0  0  0  0  0  0  0
   -0.4037   -0.8553    0.4100 C   0  0  0  0  0  0  0  0  0  0  0  0
   -1.1939   -0.0045   -0.5810 C   0  0  0  0  0  0  0  0  0  0  0  0
   -2.6590   -0.4351   -0.6358 C   0  0  0  0  0  0  0  0  0  0  0  0
   -3.3630    0.3618   -1.6316 N   0  0  0  0  0  0  0  0  0  0  0  0
   -4.7491    0.2293   -1.7721 C   0  0  0  0  0  0  0  0  0  0  0  0
   -5.4438    1.2151   -2.4892 C   0  0  0  0  0  0  0  0  0  0  0  0
   -6.8187    1.1156   -2.7228 C   0  0  0  0  0  0  0  0  0  0  0  0
   -7.5223    0.0075   -2.2639 C   0  0  0  0  0  0  0  0  0  0  0  0
   -6.8461   -1.0024   -1.5864 C   0  0  0  0  0  0  0  0  0  0  0  0
   -5.4694   -0.8967   -1.3566 C   0  0  0  0  0  0  0  0  0  0  0  0
    5.1837    0.0500    1.8117 C   0  0  0  0  0  0  0  0  0  0  0  0
    5.8333    1.2837    1.7803 C   0  0  0  0  0  0  0  0  0  0  0  0
    7.2156    1.2895    1.7045 C   0  0  0  0  0  0  0  0  0  0  0  0
    7.9708    0.1719    1.6584 N   0  0  0  0  0  0  0  0  0  0  0  0
    7.3161   -1.0083    1.6735 C   0  0  0  0  0  0  0  0  0  0  0  0
    5.9397   -1.1215    1.7463 C   0  0  0  0  0  0  0  0  0  0  0  0
    1.9987    0.8251    2.9289 H   0  0  0  0  0  0  0  0  0  0  0  0
    3.5348    1.5899    3.2914 H   0  0  0  0  0  0  0  0  0  0  0  0
    2.7630    1.8880    1.7153 H   0  0  0  0  0  0  0  0  0  0  0  0
    1.4149   -2.1605    1.5041 H   0  0  0  0  0  0  0  0  0  0  0  0
   -0.4205   -1.9047    0.0931 H   0  0  0  0  0  0  0  0  0  0  0  0
   -0.8573   -0.7883    1.4059 H   0  0  0  0  0  0  0  0  0  0  0  0
   -0.7439   -0.0838   -1.5791 H   0  0  0  0  0  0  0  0  0  0  0  0
   -1.1310    1.0543   -0.2983 H   0  0  0  0  0  0  0  0  0  0  0  0
   -2.7083   -1.4976   -0.9010 H   0  0  0  0  0  0  0  0  0  0  0  0
   -3.1157   -0.2994    0.3521 H   0  0  0  0  0  0  0  0  0  0  0  0
   -3.0811    1.3399   -1.6404 H   0  0  0  0  0  0  0  0  0  0  0  0
   -4.9112    2.0790   -2.8794 H   0  0  0  0  0  0  0  0  0  0  0  0
   -7.3327    1.8995   -3.2721 H   0  0  0  0  0  0  0  0  0  0  0  0
   -8.5898   -0.0767   -2.4472 H   0  0  0  0  0  0  0  0  0  0  0  0
   -7.3850   -1.8819   -1.2443 H   0  0  0  0  0  0  0  0  0  0  0  0
   -4.9767   -1.7187   -0.8479 H   0  0  0  0  0  0  0  0  0  0  0  0
    5.2963    2.2244    1.7931 H   0  0  0  0  0  0  0  0  0  0  0  0
    7.7707    2.2232    1.6734 H   0  0  0  0  0  0  0  0  0  0  0  0
    7.9484   -1.8902    1.6231 H   0  0  0  0  0  0  0  0  0  0  0  0
    5.4735   -2.1006    1.7532 H   0  0  0  0  0  0  0  0  0  0  0  0
  1  2  1  0
  2  3  2  3
  3  4  1  0
  4  5  1  0
  5  6  2  0
  5  7  1  0
  7  8  1  0
  8  9  1  0
  9 10  1  0
 10 11  1  0
 11 12  2  0
 12 13  1  0
 13 14  2  0
 14 15  1  0
 15 16  2  0
  2 17  1  0
 17 18  2  0
 18 19  1  0
 19 20  2  0
 20 21  1  0
 21 22  2  0
 16 11  1  0
 22 17  1  0
  1 23  1  0
  1 24  1  0
  1 25  1  0
  4 26  1  0
  7 27  1  0
  7 28  1  0
  8 29  1  0
  8 30  1  0
  9 31  1  0
  9 32  1  0
 10 33  1  0
 12 34  1  0
 13 35  1  0
 14 36  1  0
 15 37  1  0
 16 38  1  0
 18 39  1  0
 19 40  1  0
 21 41  1  0
 22 42  1  0
M  END
$$$$
