
     RDKit          3D

 46 48  0  0  0  0  0  0  0  0999 V2000
   -6.5772   -1.5581    1.9816 C   0  0  0  0  0  0  0  0  0  0  0  0
   -6.0092   -0.5778    0.9650 C   0  0  0  0  0  0  0  0  0  0  0  0
   -5.3516    0.6124    1.6614 C   0  0  0  0  0  0  0  0  0  0  0  0
   -4.6715    1.8072    0.4583 S   0  0  0  0  0  0  0  0  0  0  0  0
   -3.1468    1.0098   -0.0446 C   0  0  0  0  0  0  0  0  0  0  0  0
   -2.7734   -0.0874    0.6612 N   0  0  0  0  0  0  0  0  0  0  0  0
   -1.6186   -0.7301    0.3373 C   0  0  0  0  0  0  0  0  0  0  0  0
   -1.2765   -1.9034    1.2100 C   0  0  0  0  0  0  0  0  0  0  0  0
   -0.8091   -0.3154   -0.7216 C   0  0  0  0  0  0  0  0  0  0  0  0
    0.4205   -0.9819   -1.1061 C   0  0  0  0  0  0  0  0  0  0  0  0
    0.4926   -2.2938   -1.5127 C   0  0  0  0  0  0  0  0  0  0  0  0
    2.1102   -2.6919   -1.8949 S   0  0  0  0  0  0  0  0  0  0  0  0
    2.6179   -1.0612   -1.5338 C   0  0  0  0  0  0  0  0  0  0  0  0
    4.0022   -0.6827   -1.6627 C   0  0  0  0  0  0  0  0  0  0  0  0
    4.8372   -1.3728   -2.6011 C   0  0  0  0  0  0  0  0  0  0  0  0
    5.5224   -1.9297   -3.3552 N   0  0  0  0  0  0  0  0  0  0  0  0
    4.5250    0.3247   -0.9215 C   0  0  0  0  0  0  0  0  0  0  0  0
    3.8022    1.1677    0.1097 C   0  0  0  0  0  0  0  0  0  0  0  0
    4.8295    2.2140    0.5306 C   0  0  0  0  0  0  0  0  0  0  0  0
    6.1633    1.5173    0.3412 C   0  0  0  0  0  0  0  0  0  0  0  0
    5.9791    0.7531   -0.9623 C   0  0  0  0  0  0  0  0  0  0  0  0
    1.6145   -0.2908   -1.1437 N   0  0  0  0  0  0  0  0  0  0  0  0
   -1.1951    0.8303   -1.4264 C   0  0  0  0  0  0  0  0  0  0  0  0
   -2.3755    1.5050   -1.0932 C   0  0  0  0  0  0  0  0  0  0  0  0
   -2.7417    2.6669   -1.8441 C   0  0  0  0  0  0  0  0  0  0  0  0
   -2.9991    3.6041   -2.4789 N   0  0  0  0  0  0  0  0  0  0  0  0
   -7.3099   -1.0715    2.6325 H   0  0  0  0  0  0  0  0  0  0  0  0
   -5.7823   -1.9732    2.6093 H   0  0  0  0  0  0  0  0  0  0  0  0
   -7.0733   -2.3898    1.4711 H   0  0  0  0  0  0  0  0  0  0  0  0
   -6.8233   -0.2329    0.3148 H   0  0  0  0  0  0  0  0  0  0  0  0
   -5.2917   -1.1110    0.3315 H   0  0  0  0  0  0  0  0  0  0  0  0
   -4.5805    0.2940    2.3713 H   0  0  0  0  0  0  0  0  0  0  0  0
   -6.1081    1.1497    2.2445 H   0  0  0  0  0  0  0  0  0  0  0  0
   -0.2409   -1.8424    1.5591 H   0  0  0  0  0  0  0  0  0  0  0  0
   -1.9179   -1.9242    2.0979 H   0  0  0  0  0  0  0  0  0  0  0  0
   -1.4297   -2.8416    0.6686 H   0  0  0  0  0  0  0  0  0  0  0  0
   -0.2977   -3.0257   -1.6036 H   0  0  0  0  0  0  0  0  0  0  0  0
    3.5235    0.5490    0.9707 H   0  0  0  0  0  0  0  0  0  0  0  0
    2.9146    1.6671   -0.2888 H   0  0  0  0  0  0  0  0  0  0  0  0
    4.6784    2.5512    1.5604 H   0  0  0  0  0  0  0  0  0  0  0  0
    4.7651    3.0918   -0.1249 H   0  0  0  0  0  0  0  0  0  0  0  0
    6.3514    0.8217    1.1688 H   0  0  0  0  0  0  0  0  0  0  0  0
    6.9980    2.2227    0.2935 H   0  0  0  0  0  0  0  0  0  0  0  0
    6.6794   -0.0859   -1.0158 H   0  0  0  0  0  0  0  0  0  0  0  0
    6.1433    1.4182   -1.8179 H   0  0  0  0  0  0  0  0  0  0  0  0
   -0.5698    1.1975   -2.2408 H   0  0  0  0  0  0  0  0  0  0  0  0
  1  2  1  0
  2  3  1  0
  3  4  1  0
  4  5  1  0
  5  6  2  0
  6  7  1  0
  7  8  1  0
  7  9  2  0
  9 10  1  0
 10 11  2  0
 11 12  1  0
 12 13  1  0
 13 14  1  0
 14 15  1  0
 15 16  3  0
 14 17  2  3
 17 18  1  0
 18 19  1  0
 19 20  1  0
 20 21  1  0
 13 22  2  0
  9 23  1  0
 23 24  2  0
 24 25  1  0
 25 26  3  0
 24  5  1  0
 22 10  1  0
 21 17  1  0
  1 27  1  0
  1 28  1  0
  1 29  1  0
  2 30  1  0
  2 31  1  0
  3 32  1  0
  3 33  1  0
  8 34  1  0
  8 35  1  0
  8 36  1  0
 11 37  1  0
 18 38  1  0
 18 39  1  0
 19 40  1  0
 19 41  1  0
 20 42  1  0
 20 43  1  0
 21 44  1  0
 21 45  1  0
 23 46  1  0
M  END
$$$$
