
     RDKit          3D

 35 37  0  0  0  0  0  0  0  0999 V2000
    4.3183   -1.4850    0.3098 C   0  0  0  0  0  0  0  0  0  0  0  0
    5.1618   -0.3997   -0.3422 C   0  0  0  0  0  0  0  0  0  0  0  0
    4.6041    1.0166   -0.1914 C   0  0  0  0  0  0  0  0  0  0  0  0
    3.0889    1.3036   -1.1598 S   0  0  0  0  0  0  0  0  0  0  0  0
    1.8501    0.9711    0.0011 C   0  0  0  0  0  0  0  0  0  0  0  0
    2.0171    0.7628    1.2833 N   0  0  0  0  0  0  0  0  0  0  0  0
    0.7809    0.5140    1.8223 N   0  0  0  0  0  0  0  0  0  0  0  0
   -0.1140    0.5155    0.8476 C   0  0  0  0  0  0  0  0  0  0  0  0
   -1.6130    0.1415    1.1174 C   0  0  0  0  0  0  0  0  0  0  0  0
   -2.0786    0.0678    2.4151 C   0  0  0  0  0  0  0  0  0  0  0  0
   -3.4150   -0.2009    2.3775 N   0  0  0  0  0  0  0  0  0  0  0  0
   -3.8248   -0.3718    1.0760 C   0  0  0  0  0  0  0  0  0  0  0  0
   -5.0978   -0.6881    0.5829 C   0  0  0  0  0  0  0  0  0  0  0  0
   -5.2393   -0.8650   -0.7934 C   0  0  0  0  0  0  0  0  0  0  0  0
   -4.1429   -0.7491   -1.6387 C   0  0  0  0  0  0  0  0  0  0  0  0
   -2.8777   -0.4291   -1.1279 C   0  0  0  0  0  0  0  0  0  0  0  0
   -2.7027   -0.1969    0.2546 C   0  0  0  0  0  0  0  0  0  0  0  0
    0.5164    0.9057   -0.3095 N   0  0  0  0  0  0  0  0  0  0  0  0
   -0.0883    1.3738   -1.5264 C   0  0  0  0  0  0  0  0  0  0  0  0
    4.1376   -1.2616    1.3658 H   0  0  0  0  0  0  0  0  0  0  0  0
    3.3546   -1.6065   -0.1926 H   0  0  0  0  0  0  0  0  0  0  0  0
    4.8396   -2.4463    0.2547 H   0  0  0  0  0  0  0  0  0  0  0  0
    5.3131   -0.6396   -1.4017 H   0  0  0  0  0  0  0  0  0  0  0  0
    6.1557   -0.4214    0.1220 H   0  0  0  0  0  0  0  0  0  0  0  0
    5.3510    1.7175   -0.5809 H   0  0  0  0  0  0  0  0  0  0  0  0
    4.4633    1.2753    0.8630 H   0  0  0  0  0  0  0  0  0  0  0  0
   -1.5683    0.2228    3.3573 H   0  0  0  0  0  0  0  0  0  0  0  0
   -4.0150   -0.2898    3.1860 H   0  0  0  0  0  0  0  0  0  0  0  0
   -5.9483   -0.8078    1.2467 H   0  0  0  0  0  0  0  0  0  0  0  0
   -6.2139   -1.1177   -1.2045 H   0  0  0  0  0  0  0  0  0  0  0  0
   -4.2639   -0.9221   -2.7054 H   0  0  0  0  0  0  0  0  0  0  0  0
   -2.0413   -0.4012   -1.8139 H   0  0  0  0  0  0  0  0  0  0  0  0
   -0.0678    0.5646   -2.2590 H   0  0  0  0  0  0  0  0  0  0  0  0
   -1.1066    1.7119   -1.3285 H   0  0  0  0  0  0  0  0  0  0  0  0
    0.4664    2.2350   -1.9085 H   0  0  0  0  0  0  0  0  0  0  0  0
  1  2  1  0
  2  3  1  0
  3  4  1  0
  4  5  1  0
  5  6  2  0
  6  7  1  0
  7  8  2  0
  8  9  1  0
  9 10  2  0
 10 11  1  0
 11 12  1  0
 12 13  2  0
 13 14  1  0
 14 15  2  0
 15 16  1  0
 16 17  2  0
  8 18  1  0
 18 19  1  0
 18  5  1  0
 17  9  1  0
 17 12  1  0
  1 20  1  0
  1 21  1  0
  1 22  1  0
  2 23  1  0
  2 24  1  0
  3 25  1  0
  3 26  1  0
 10 27  1  0
 11 28  1  0
 13 29  1  0
 14 30  1  0
 15 31  1  0
 16 32  1  0
 19 33  1  0
 19 34  1  0
 19 35  1  0
M  END
$$$$
