
     RDKit          3D

 67 70  0  0  0  0  0  0  0  0999 V2000
   -0.1914    4.1252   -0.8647 C   0  0  0  0  0  0  0  0  0  0  0  0
   -0.0573    2.7228   -0.6824 O   0  0  0  0  0  0  0  0  0  0  0  0
   -0.7834    2.1139    0.3068 C   0  0  0  0  0  0  0  0  0  0  0  0
   -1.6906    2.8061    1.1300 C   0  0  0  0  0  0  0  0  0  0  0  0
   -2.4302    2.1485    2.1210 C   0  0  0  0  0  0  0  0  0  0  0  0
   -3.3258    2.7662    2.9587 O   0  0  0  0  0  0  0  0  0  0  0  0
   -3.4293    4.1830    2.8945 C   0  0  0  0  0  0  0  0  0  0  0  0
   -2.2776    0.7658    2.2827 C   0  0  0  0  0  0  0  0  0  0  0  0
   -3.0297    0.0029    3.2774 C   0  0  0  0  0  0  0  0  0  0  0  0
   -2.8716   -1.3183    3.3855 C   0  0  0  0  0  0  0  0  0  0  0  0
   -1.9449   -2.0651    2.5258 C   0  0  0  0  0  0  0  0  0  0  0  0
   -1.8288   -3.2805    2.6269 O   0  0  0  0  0  0  0  0  0  0  0  0
   -1.2233   -1.3194    1.6094 O   0  0  0  0  0  0  0  0  0  0  0  0
   -1.3713    0.0862    1.4613 C   0  0  0  0  0  0  0  0  0  0  0  0
   -0.5909    0.7286    0.4739 C   0  0  0  0  0  0  0  0  0  0  0  0
    0.3795   -0.1113   -0.3672 C   0  0  0  0  0  0  0  0  0  0  0  0
    1.7823    0.4846   -0.6622 C   0  0  0  0  0  0  0  0  0  0  0  0
    2.5691    0.9085    0.5906 C   0  0  0  0  0  0  0  0  0  0  0  0
    2.7839   -0.1621    1.5760 N   0  0  0  0  0  0  0  0  0  0  0  0
    3.3179    0.3564    2.8454 C   0  0  0  0  0  0  0  0  0  0  0  0
    4.8113    0.0999    3.0353 C   0  0  0  0  0  0  0  0  0  0  0  0
    5.1260   -1.3945    3.0029 C   0  0  0  0  0  0  0  0  0  0  0  0
    4.1528   -2.1716    2.1183 C   0  0  0  0  0  0  0  0  0  0  0  0
    3.5618   -1.2841    1.0247 C   0  0  0  0  0  0  0  0  0  0  0  0
   -0.2850   -0.6426   -1.6393 C   0  0  0  0  0  0  0  0  0  0  0  0
   -0.4870    0.1549   -2.7686 C   0  0  0  0  0  0  0  0  0  0  0  0
   -1.0992   -0.3685   -3.9157 C   0  0  0  0  0  0  0  0  0  0  0  0
   -1.5422   -1.6988   -3.9825 C   0  0  0  0  0  0  0  0  0  0  0  0
   -2.1413   -2.1805   -5.1607 N   0  0  0  0  0  0  0  0  0  0  0  0
   -3.3244   -1.4178   -5.5700 C   0  0  0  0  0  0  0  0  0  0  0  0
   -2.2733   -3.6281   -5.3157 C   0  0  0  0  0  0  0  0  0  0  0  0
   -1.3261   -2.4900   -2.8472 C   0  0  0  0  0  0  0  0  0  0  0  0
   -0.7184   -1.9731   -1.6946 C   0  0  0  0  0  0  0  0  0  0  0  0
    0.1151    4.6711    0.0329 H   0  0  0  0  0  0  0  0  0  0  0  0
    0.4788    4.4216   -1.6775 H   0  0  0  0  0  0  0  0  0  0  0  0
   -1.2111    4.3879   -1.1632 H   0  0  0  0  0  0  0  0  0  0  0  0
   -1.8276    3.8705    0.9910 H   0  0  0  0  0  0  0  0  0  0  0  0
   -2.4665    4.6627    3.1027 H   0  0  0  0  0  0  0  0  0  0  0  0
   -4.1334    4.5006    3.6697 H   0  0  0  0  0  0  0  0  0  0  0  0
   -3.8324    4.5040    1.9280 H   0  0  0  0  0  0  0  0  0  0  0  0
   -3.7238    0.5305    3.9229 H   0  0  0  0  0  0  0  0  0  0  0  0
   -3.4227   -1.9033    4.1110 H   0  0  0  0  0  0  0  0  0  0  0  0
    0.6186   -0.9998    0.2317 H   0  0  0  0  0  0  0  0  0  0  0  0
    1.7243    1.3452   -1.3366 H   0  0  0  0  0  0  0  0  0  0  0  0
    2.3704   -0.2558   -1.2222 H   0  0  0  0  0  0  0  0  0  0  0  0
    2.0242    1.7335    1.0649 H   0  0  0  0  0  0  0  0  0  0  0  0
    3.5350    1.3245    0.2753 H   0  0  0  0  0  0  0  0  0  0  0  0
    2.7715   -0.1383    3.6598 H   0  0  0  0  0  0  0  0  0  0  0  0
    3.1104    1.4271    2.9683 H   0  0  0  0  0  0  0  0  0  0  0  0
    5.3732    0.6128    2.2439 H   0  0  0  0  0  0  0  0  0  0  0  0
    5.1531    0.5267    3.9853 H   0  0  0  0  0  0  0  0  0  0  0  0
    5.0908   -1.8088    4.0180 H   0  0  0  0  0  0  0  0  0  0  0  0
    6.1543   -1.5352    2.6479 H   0  0  0  0  0  0  0  0  0  0  0  0
    3.3406   -2.5785    2.7343 H   0  0  0  0  0  0  0  0  0  0  0  0
    4.6647   -3.0326    1.6738 H   0  0  0  0  0  0  0  0  0  0  0  0
    2.9129   -1.9007    0.3928 H   0  0  0  0  0  0  0  0  0  0  0  0
    4.3818   -0.9186    0.3920 H   0  0  0  0  0  0  0  0  0  0  0  0
   -0.1673    1.1932   -2.7788 H   0  0  0  0  0  0  0  0  0  0  0  0
   -1.1959    0.2773   -4.7830 H   0  0  0  0  0  0  0  0  0  0  0  0
   -3.7448   -1.8342   -6.4924 H   0  0  0  0  0  0  0  0  0  0  0  0
   -4.1027   -1.4566   -4.7992 H   0  0  0  0  0  0  0  0  0  0  0  0
   -3.0876   -0.3709   -5.7858 H   0  0  0  0  0  0  0  0  0  0  0  0
   -3.0303   -4.0396   -4.6386 H   0  0  0  0  0  0  0  0  0  0  0  0
   -1.3161   -4.1346   -5.1471 H   0  0  0  0  0  0  0  0  0  0  0  0
   -2.5767   -3.8686   -6.3410 H   0  0  0  0  0  0  0  0  0  0  0  0
   -1.6378   -3.5294   -2.8199 H   0  0  0  0  0  0  0  0  0  0  0  0
   -0.5850   -2.6306   -0.8374 H   0  0  0  0  0  0  0  0  0  0  0  0
  1  2  1  0
  2  3  1  0
  3  4  2  0
  4  5  1  0
  5  6  1  0
  6  7  1  0
  5  8  2  0
  8  9  1  0
  9 10  2  0
 10 11  1  0
 11 12  2  0
 11 13  1  0
 13 14  1  0
 14 15  2  0
 15 16  1  0
 16 17  1  0
 17 18  1  0
 18 19  1  0
 19 20  1  0
 20 21  1  0
 21 22  1  0
 22 23  1  0
 23 24  1  0
 16 25  1  0
 25 26  2  0
 26 27  1  0
 27 28  2  0
 28 29  1  0
 29 30  1  0
 29 31  1  0
 28 32  1  0
 32 33  2  0
 15  3  1  0
 24 19  1  0
 33 25  1  0
 14  8  1  0
  1 34  1  0
  1 35  1  0
  1 36  1  0
  4 37  1  0
  7 38  1  0
  7 39  1  0
  7 40  1  0
  9 41  1  0
 10 42  1  0
 16 43  1  0
 17 44  1  0
 17 45  1  0
 18 46  1  0
 18 47  1  0
 20 48  1  0
 20 49  1  0
 21 50  1  0
 21 51  1  0
 22 52  1  0
 22 53  1  0
 23 54  1  0
 23 55  1  0
 24 56  1  0
 24 57  1  0
 26 58  1  0
 27 59  1  0
 30 60  1  0
 30 61  1  0
 30 62  1  0
 31 63  1  0
 31 64  1  0
 31 65  1  0
 32 66  1  0
 33 67  1  0
M  END
$$$$
