
     RDKit          3D

 49 52  0  0  0  0  0  0  0  0999 V2000
   -8.3858    1.6353    0.5265 C   0  0  0  0  0  0  0  0  0  0  0  0
   -7.6269    0.8979   -0.4229 O   0  0  0  0  0  0  0  0  0  0  0  0
   -6.6360    0.0930    0.0679 C   0  0  0  0  0  0  0  0  0  0  0  0
   -6.2970   -0.0663    1.4115 C   0  0  0  0  0  0  0  0  0  0  0  0
   -5.2551   -0.9265    1.7788 C   0  0  0  0  0  0  0  0  0  0  0  0
   -4.5438   -1.6435    0.8077 C   0  0  0  0  0  0  0  0  0  0  0  0
   -3.4062   -2.5519    1.1950 C   0  0  0  0  0  0  0  0  0  0  0  0
   -2.1417   -1.8734    1.0531 N   0  0  0  0  0  0  0  0  0  0  0  0
   -1.3189   -2.0607   -0.0365 C   0  0  0  0  0  0  0  0  0  0  0  0
   -1.5570   -2.9173   -0.8857 O   0  0  0  0  0  0  0  0  0  0  0  0
   -0.1601   -1.1783   -0.1144 C   0  0  0  0  0  0  0  0  0  0  0  0
    0.8100   -1.1708   -1.1150 C   0  0  0  0  0  0  0  0  0  0  0  0
    1.7846   -0.1831   -0.8710 C   0  0  0  0  0  0  0  0  0  0  0  0
    1.5338    0.5101    0.2740 C   0  0  0  0  0  0  0  0  0  0  0  0
    0.1637    0.0301    1.0909 S   0  0  0  0  0  0  0  0  0  0  0  0
    2.5537    1.5477    0.5286 C   0  0  0  0  0  0  0  0  0  0  0  0
    3.2516    1.5828   -0.7783 N   0  0  0  0  0  0  0  0  0  0  0  0
    4.5988    2.1265   -0.7968 C   0  0  0  0  0  0  0  0  0  0  0  0
    5.6648    1.3394   -0.0660 C   0  0  0  0  0  0  0  0  0  0  0  0
    5.9447    1.5955    1.2849 C   0  0  0  0  0  0  0  0  0  0  0  0
    6.9310    0.8720    1.9581 C   0  0  0  0  0  0  0  0  0  0  0  0
    7.6541   -0.1121    1.2879 C   0  0  0  0  0  0  0  0  0  0  0  0
    7.3953   -0.3704   -0.0562 C   0  0  0  0  0  0  0  0  0  0  0  0
    6.4093    0.3528   -0.7301 C   0  0  0  0  0  0  0  0  0  0  0  0
    3.0248    0.3150   -1.5161 C   0  0  0  0  0  0  0  0  0  0  0  0
   -4.8832   -1.4722   -0.5398 C   0  0  0  0  0  0  0  0  0  0  0  0
   -5.9226   -0.6129   -0.9027 C   0  0  0  0  0  0  0  0  0  0  0  0
   -7.7525    2.3379    1.0782 H   0  0  0  0  0  0  0  0  0  0  0  0
   -8.9228    0.9670    1.2078 H   0  0  0  0  0  0  0  0  0  0  0  0
   -9.1309    2.2195   -0.0222 H   0  0  0  0  0  0  0  0  0  0  0  0
   -6.8209    0.4644    2.1993 H   0  0  0  0  0  0  0  0  0  0  0  0
   -5.0050   -1.0320    2.8322 H   0  0  0  0  0  0  0  0  0  0  0  0
   -3.4977   -2.8504    2.2452 H   0  0  0  0  0  0  0  0  0  0  0  0
   -3.4315   -3.4687    0.5956 H   0  0  0  0  0  0  0  0  0  0  0  0
   -1.9568   -1.0736    1.6431 H   0  0  0  0  0  0  0  0  0  0  0  0
    0.7914   -1.8484   -1.9606 H   0  0  0  0  0  0  0  0  0  0  0  0
    2.1130    2.5224    0.7561 H   0  0  0  0  0  0  0  0  0  0  0  0
    3.1984    1.2260    1.3511 H   0  0  0  0  0  0  0  0  0  0  0  0
    4.9153    2.2612   -1.8399 H   0  0  0  0  0  0  0  0  0  0  0  0
    4.5765    3.1469   -0.3911 H   0  0  0  0  0  0  0  0  0  0  0  0
    5.3954    2.3650    1.8225 H   0  0  0  0  0  0  0  0  0  0  0  0
    7.1360    1.0777    3.0054 H   0  0  0  0  0  0  0  0  0  0  0  0
    8.4217   -0.6753    1.8121 H   0  0  0  0  0  0  0  0  0  0  0  0
    7.9625   -1.1346   -0.5812 H   0  0  0  0  0  0  0  0  0  0  0  0
    6.2266    0.1423   -1.7815 H   0  0  0  0  0  0  0  0  0  0  0  0
    3.8226   -0.4178   -1.3675 H   0  0  0  0  0  0  0  0  0  0  0  0
    2.8844    0.5079   -2.5833 H   0  0  0  0  0  0  0  0  0  0  0  0
   -4.3355   -2.0056   -1.3154 H   0  0  0  0  0  0  0  0  0  0  0  0
   -6.1759   -0.4910   -1.9531 H   0  0  0  0  0  0  0  0  0  0  0  0
  1  2  1  0
  2  3  1  0
  3  4  2  0
  4  5  1  0
  5  6  2  0
  6  7  1  0
  7  8  1  0
  8  9  1  0
  9 10  2  0
  9 11  1  0
 11 12  2  0
 12 13  1  0
 13 14  2  0
 14 15  1  0
 14 16  1  0
 16 17  1  0
 17 18  1  0
 18 19  1  0
 19 20  2  0
 20 21  1  0
 21 22  2  0
 22 23  1  0
 23 24  2  0
 17 25  1  0
  6 26  1  0
 26 27  2  0
 27  3  1  0
 15 11  1  0
 24 19  1  0
 25 13  1  0
  1 28  1  0
  1 29  1  0
  1 30  1  0
  4 31  1  0
  5 32  1  0
  7 33  1  0
  7 34  1  0
  8 35  1  0
 12 36  1  0
 16 37  1  0
 16 38  1  0
 18 39  1  0
 18 40  1  0
 20 41  1  0
 21 42  1  0
 22 43  1  0
 23 44  1  0
 24 45  1  0
 25 46  1  0
 25 47  1  0
 26 48  1  0
 27 49  1  0
M  END
$$$$
