
     RDKit          3D

 47 48  0  0  0  0  0  0  0  0999 V2000
   -1.4138    3.0707    2.0712 C   0  0  0  0  0  0  0  0  0  0  0  0
    0.0298    2.1488    1.4840 S   0  0  0  0  0  0  0  0  0  0  0  0
   -0.1876    2.3635   -0.3179 C   0  0  0  0  0  0  0  0  0  0  0  0
   -1.2592    1.4453   -0.9057 C   0  0  0  0  0  0  0  0  0  0  0  0
   -0.8438   -0.0312   -0.9304 C   0  0  0  0  0  0  0  0  0  0  0  0
    0.1223   -0.2473   -2.0389 N   0  0  0  0  0  0  0  0  0  0  0  0
    1.2169   -1.5131   -1.8400 S   0  0  0  0  0  6  0  0  0  0  0  0
    1.6233   -1.9192   -3.1666 O   0  0  0  0  0  0  0  0  0  0  0  0
    0.6742   -2.4516   -0.8828 O   0  0  0  0  0  0  0  0  0  0  0  0
    2.5843   -0.6612   -1.0955 C   0  0  0  0  0  0  0  0  0  0  0  0
    2.7502   -0.6906    0.2907 C   0  0  0  0  0  0  0  0  0  0  0  0
    3.8276   -0.0167    0.8678 C   0  0  0  0  0  0  0  0  0  0  0  0
    4.7397    0.6843    0.0667 C   0  0  0  0  0  0  0  0  0  0  0  0
    5.9149    1.3795    0.6895 C   0  0  0  0  0  0  0  0  0  0  0  0
    4.5769    0.6795   -1.3254 C   0  0  0  0  0  0  0  0  0  0  0  0
    3.5000    0.0104   -1.9090 C   0  0  0  0  0  0  0  0  0  0  0  0
   -2.0810   -0.8960   -1.2301 C   0  0  0  0  0  0  0  0  0  0  0  0
   -2.4051   -1.1268   -2.4002 O   0  0  0  0  0  0  0  0  0  0  0  0
   -2.8350   -1.3351   -0.1661 N   0  0  0  0  0  0  0  0  0  0  0  0
   -4.0382   -2.1201   -0.3744 C   0  0  0  0  0  0  0  0  0  0  0  0
   -4.6889   -2.1738    0.9987 C   0  0  0  0  0  0  0  0  0  0  0  0
   -3.4895   -2.1780    1.9372 C   0  0  0  0  0  0  0  0  0  0  0  0
   -2.5026   -1.2437    1.2481 C   0  0  0  0  0  0  0  0  0  0  0  0
   -2.3396    2.5872    1.7510 H   0  0  0  0  0  0  0  0  0  0  0  0
   -1.4002    3.0944    3.1642 H   0  0  0  0  0  0  0  0  0  0  0  0
   -1.3864    4.0995    1.7033 H   0  0  0  0  0  0  0  0  0  0  0  0
    0.7792    2.1773   -0.7968 H   0  0  0  0  0  0  0  0  0  0  0  0
   -0.4409    3.4107   -0.5143 H   0  0  0  0  0  0  0  0  0  0  0  0
   -2.2025    1.5706   -0.3609 H   0  0  0  0  0  0  0  0  0  0  0  0
   -1.4667    1.7780   -1.9321 H   0  0  0  0  0  0  0  0  0  0  0  0
   -0.3910   -0.3147    0.0200 H   0  0  0  0  0  0  0  0  0  0  0  0
   -0.3254   -0.3225   -2.9599 H   0  0  0  0  0  0  0  0  0  0  0  0
    2.0504   -1.2278    0.9260 H   0  0  0  0  0  0  0  0  0  0  0  0
    3.9515   -0.0398    1.9486 H   0  0  0  0  0  0  0  0  0  0  0  0
    5.6659    1.7457    1.6911 H   0  0  0  0  0  0  0  0  0  0  0  0
    6.2168    2.2467    0.0929 H   0  0  0  0  0  0  0  0  0  0  0  0
    6.7609    0.6894    0.7646 H   0  0  0  0  0  0  0  0  0  0  0  0
    5.2899    1.1976   -1.9634 H   0  0  0  0  0  0  0  0  0  0  0  0
    3.3814    0.0160   -2.9902 H   0  0  0  0  0  0  0  0  0  0  0  0
   -3.7367   -3.1172   -0.7147 H   0  0  0  0  0  0  0  0  0  0  0  0
   -4.6796   -1.6630   -1.1337 H   0  0  0  0  0  0  0  0  0  0  0  0
   -5.3359   -3.0458    1.1259 H   0  0  0  0  0  0  0  0  0  0  0  0
   -5.2878   -1.2709    1.1678 H   0  0  0  0  0  0  0  0  0  0  0  0
   -3.7369   -1.8548    2.9520 H   0  0  0  0  0  0  0  0  0  0  0  0
   -3.0689   -3.1894    1.9933 H   0  0  0  0  0  0  0  0  0  0  0  0
   -1.4668   -1.5403    1.4327 H   0  0  0  0  0  0  0  0  0  0  0  0
   -2.6462   -0.2049    1.5617 H   0  0  0  0  0  0  0  0  0  0  0  0
  1  2  1  0
  2  3  1  0
  3  4  1  0
  4  5  1  0
  5  6  1  0
  6  7  1  0
  7  8  2  0
  7  9  2  0
  7 10  1  0
 10 11  2  0
 11 12  1  0
 12 13  2  0
 13 14  1  0
 13 15  1  0
 15 16  2  0
  5 17  1  0
 17 18  2  0
 17 19  1  0
 19 20  1  0
 20 21  1  0
 21 22  1  0
 22 23  1  0
 16 10  1  0
 23 19  1  0
  1 24  1  0
  1 25  1  0
  1 26  1  0
  3 27  1  0
  3 28  1  0
  4 29  1  0
  4 30  1  0
  5 31  1  0
  6 32  1  0
 11 33  1  0
 12 34  1  0
 14 35  1  0
 14 36  1  0
 14 37  1  0
 15 38  1  0
 16 39  1  0
 20 40  1  0
 20 41  1  0
 21 42  1  0
 21 43  1  0
 22 44  1  0
 22 45  1  0
 23 46  1  0
 23 47  1  0
M  END
$$$$
