
     RDKit          3D

 41 42  0  0  0  0  0  0  0  0999 V2000
   -3.8386    1.8996   -0.3128 C   0  0  0  0  0  0  0  0  0  0  0  0
   -3.8368    0.3789   -0.3866 C   0  0  0  0  0  0  0  0  0  0  0  0
   -2.6780   -0.1934    0.3282 N   0  0  0  0  0  0  0  0  0  0  0  0
   -3.0130   -0.8558    1.6050 C   0  0  0  0  0  0  0  0  0  0  0  0
   -3.1213    0.1448    2.7442 C   0  0  0  0  0  0  0  0  0  0  0  0
   -1.3584   -0.1295   -0.1713 C   0  0  0  0  0  0  0  0  0  0  0  0
   -0.2586   -0.2490    0.6041 C   0  0  0  0  0  0  0  0  0  0  0  0
    1.1133   -0.1558    0.1257 C   0  0  0  0  0  0  0  0  0  0  0  0
    2.1503   -0.4242    0.9423 C   0  0  0  0  0  0  0  0  0  0  0  0
    3.5572   -0.3354    0.5334 C   0  0  0  0  0  0  0  0  0  0  0  0
    4.5841   -0.7380    1.3254 C   0  0  0  0  0  0  0  0  0  0  0  0
    5.9415   -0.6096    0.9068 C   0  0  0  0  0  0  0  0  0  0  0  0
    7.0418   -0.4983    0.5544 N   0  0  0  0  0  0  0  0  0  0  0  0
    4.3745   -1.3006    2.6194 C   0  0  0  0  0  0  0  0  0  0  0  0
    4.1925   -1.7552    3.6718 N   0  0  0  0  0  0  0  0  0  0  0  0
    3.7739    0.2607   -0.8526 C   0  0  0  0  0  0  0  0  0  0  0  0
    2.6854   -0.1626   -1.8377 C   0  0  0  0  0  0  0  0  0  0  0  0
    1.3026    0.2477   -1.3192 C   0  0  0  0  0  0  0  0  0  0  0  0
    0.2013   -0.3539   -2.1917 C   0  0  0  0  0  0  0  0  0  0  0  0
   -1.1815    0.0510   -1.6756 C   0  0  0  0  0  0  0  0  0  0  0  0
   -3.8724    2.2490    0.7233 H   0  0  0  0  0  0  0  0  0  0  0  0
   -2.9475    2.3315   -0.7769 H   0  0  0  0  0  0  0  0  0  0  0  0
   -4.7150    2.2998   -0.8324 H   0  0  0  0  0  0  0  0  0  0  0  0
   -4.7760    0.0124    0.0454 H   0  0  0  0  0  0  0  0  0  0  0  0
   -3.8508    0.0532   -1.4316 H   0  0  0  0  0  0  0  0  0  0  0  0
   -2.2681   -1.6216    1.8517 H   0  0  0  0  0  0  0  0  0  0  0  0
   -3.9596   -1.4016    1.5082 H   0  0  0  0  0  0  0  0  0  0  0  0
   -3.2840   -0.3791    3.6914 H   0  0  0  0  0  0  0  0  0  0  0  0
   -2.2142    0.7492    2.8395 H   0  0  0  0  0  0  0  0  0  0  0  0
   -3.9645    0.8255    2.5932 H   0  0  0  0  0  0  0  0  0  0  0  0
   -0.3740   -0.3994    1.6733 H   0  0  0  0  0  0  0  0  0  0  0  0
    1.9333   -0.7283    1.9659 H   0  0  0  0  0  0  0  0  0  0  0  0
    4.7388   -0.0335   -1.2790 H   0  0  0  0  0  0  0  0  0  0  0  0
    3.7829    1.3552   -0.7663 H   0  0  0  0  0  0  0  0  0  0  0  0
    2.8699    0.3040   -2.8129 H   0  0  0  0  0  0  0  0  0  0  0  0
    2.7334   -1.2492   -1.9914 H   0  0  0  0  0  0  0  0  0  0  0  0
    1.2263    1.3436   -1.3712 H   0  0  0  0  0  0  0  0  0  0  0  0
    0.3126   -0.0227   -3.2312 H   0  0  0  0  0  0  0  0  0  0  0  0
    0.2786   -1.4498   -2.1993 H   0  0  0  0  0  0  0  0  0  0  0  0
   -1.3681    1.0994   -1.9351 H   0  0  0  0  0  0  0  0  0  0  0  0
   -1.9139   -0.5591   -2.2166 H   0  0  0  0  0  0  0  0  0  0  0  0
  1  2  1  0
  2  3  1  0
  3  4  1  0
  4  5  1  0
  3  6  1  0
  6  7  2  0
  7  8  1  0
  8  9  2  0
  9 10  1  0
 10 11  2  3
 11 12  1  0
 12 13  3  0
 11 14  1  0
 14 15  3  0
 10 16  1  0
 16 17  1  0
 17 18  1  0
 18 19  1  0
 19 20  1  0
 20  6  1  0
 18  8  1  0
  1 21  1  0
  1 22  1  0
  1 23  1  0
  2 24  1  0
  2 25  1  0
  4 26  1  0
  4 27  1  0
  5 28  1  0
  5 29  1  0
  5 30  1  0
  7 31  1  0
  9 32  1  0
 16 33  1  0
 16 34  1  0
 17 35  1  0
 17 36  1  0
 18 37  1  0
 19 38  1  0
 19 39  1  0
 20 40  1  0
 20 41  1  0
M  END
$$$$
