
     RDKit          3D

 50 53  0  0  0  0  0  0  0  0999 V2000
   -8.1363    1.9141    1.2018 C   0  0  0  0  0  0  0  0  0  0  0  0
   -6.8601    1.1507    0.9995 C   0  0  0  0  0  0  0  0  0  0  0  0
   -6.7402   -0.1687    1.4407 C   0  0  0  0  0  0  0  0  0  0  0  0
   -5.5391   -0.8655    1.2690 C   0  0  0  0  0  0  0  0  0  0  0  0
   -4.4320   -0.2514    0.6676 C   0  0  0  0  0  0  0  0  0  0  0  0
   -3.2625   -1.0334    0.5226 N   0  0  0  0  0  0  0  0  0  0  0  0
   -2.0640   -0.6469   -0.0569 C   0  0  0  0  0  0  0  0  0  0  0  0
   -1.8088    0.4550   -0.5377 O   0  0  0  0  0  0  0  0  0  0  0  0
   -1.0201   -1.7736   -0.0929 C   0  0  0  0  0  0  0  0  0  0  0  0
    0.3316   -1.2603   -0.3579 N   0  0  0  0  0  4  0  0  0  0  0  0
    1.3878   -1.1711    0.5489 C   0  0  0  0  0  0  0  0  0  0  0  0
    2.4773   -0.5800   -0.0812 C   0  0  0  0  0  0  0  0  0  0  0  0
    3.8944   -0.3276    0.5493 C   0  0  0  0  0  0  0  0  0  0  0  0
    4.1369   -0.6777    1.8823 C   0  0  0  0  0  0  0  0  0  0  0  0
    5.3961   -0.4590    2.4503 C   0  0  0  0  0  0  0  0  0  0  0  0
    6.4308    0.0968    1.6925 C   0  0  0  0  0  0  0  0  0  0  0  0
    7.7747    0.3644    2.3080 C   0  0  0  0  0  0  0  0  0  0  0  0
    6.1804    0.4532    0.3642 C   0  0  0  0  0  0  0  0  0  0  0  0
    4.9220    0.2373   -0.2066 C   0  0  0  0  0  0  0  0  0  0  0  0
    1.9955   -0.2939   -1.3454 N   0  0  0  0  0  0  0  0  0  0  0  0
    0.7383   -0.7030   -1.4949 C   0  0  0  0  0  0  0  0  0  0  0  0
    0.2029   -0.4456   -2.8522 C   0  0  0  0  0  0  0  0  0  0  0  0
    1.2405    0.5366   -3.4285 C   0  0  0  0  0  0  0  0  0  0  0  0
    2.5044    0.3531   -2.5450 C   0  0  0  0  0  0  0  0  0  0  0  0
   -4.5458    1.0752    0.2496 C   0  0  0  0  0  0  0  0  0  0  0  0
   -5.7497    1.7706    0.4166 C   0  0  0  0  0  0  0  0  0  0  0  0
   -8.0858    2.4851    2.1332 H   0  0  0  0  0  0  0  0  0  0  0  0
   -8.3127    2.6048    0.3686 H   0  0  0  0  0  0  0  0  0  0  0  0
   -8.9954    1.2375    1.2498 H   0  0  0  0  0  0  0  0  0  0  0  0
   -7.5847   -0.6660    1.9164 H   0  0  0  0  0  0  0  0  0  0  0  0
   -5.4959   -1.8954    1.6132 H   0  0  0  0  0  0  0  0  0  0  0  0
   -3.3392   -1.9744    0.8893 H   0  0  0  0  0  0  0  0  0  0  0  0
   -1.2828   -2.4754   -0.8912 H   0  0  0  0  0  0  0  0  0  0  0  0
   -1.0152   -2.3049    0.8647 H   0  0  0  0  0  0  0  0  0  0  0  0
    1.2330   -1.5549    1.5440 H   0  0  0  0  0  0  0  0  0  0  0  0
    3.3699   -1.1161    2.5142 H   0  0  0  0  0  0  0  0  0  0  0  0
    5.5670   -0.7266    3.4921 H   0  0  0  0  0  0  0  0  0  0  0  0
    7.8284    1.4030    2.6509 H   0  0  0  0  0  0  0  0  0  0  0  0
    8.5749    0.1866    1.5811 H   0  0  0  0  0  0  0  0  0  0  0  0
    7.9567   -0.2984    3.1602 H   0  0  0  0  0  0  0  0  0  0  0  0
    6.9708    0.9029   -0.2355 H   0  0  0  0  0  0  0  0  0  0  0  0
    4.7892    0.5208   -1.2417 H   0  0  0  0  0  0  0  0  0  0  0  0
    0.2074   -1.4080   -3.3712 H   0  0  0  0  0  0  0  0  0  0  0  0
   -0.7998   -0.0261   -2.7912 H   0  0  0  0  0  0  0  0  0  0  0  0
    0.8691    1.5625   -3.3114 H   0  0  0  0  0  0  0  0  0  0  0  0
    1.4390    0.3700   -4.4910 H   0  0  0  0  0  0  0  0  0  0  0  0
    3.2287   -0.3103   -3.0255 H   0  0  0  0  0  0  0  0  0  0  0  0
    2.9569    1.3167   -2.3053 H   0  0  0  0  0  0  0  0  0  0  0  0
   -3.7214    1.6122   -0.2102 H   0  0  0  0  0  0  0  0  0  0  0  0
   -5.8130    2.8049    0.0828 H   0  0  0  0  0  0  0  0  0  0  0  0
  1  2  1  0
  2  3  2  0
  3  4  1  0
  4  5  2  0
  5  6  1  0
  6  7  1  0
  7  8  2  0
  7  9  1  0
  9 10  1  0
 10 11  1  0
 11 12  2  0
 12 13  1  0
 13 14  2  0
 14 15  1  0
 15 16  2  0
 16 17  1  0
 16 18  1  0
 18 19  2  0
 12 20  1  0
 20 21  1  0
 21 22  1  0
 22 23  1  0
 23 24  1  0
  5 25  1  0
 25 26  2  0
 26  2  1  0
 21 10  2  0
 19 13  1  0
 24 20  1  0
  1 27  1  0
  1 28  1  0
  1 29  1  0
  3 30  1  0
  4 31  1  0
  6 32  1  0
  9 33  1  0
  9 34  1  0
 11 35  1  0
 14 36  1  0
 15 37  1  0
 17 38  1  0
 17 39  1  0
 17 40  1  0
 18 41  1  0
 19 42  1  0
 22 43  1  0
 22 44  1  0
 23 45  1  0
 23 46  1  0
 24 47  1  0
 24 48  1  0
 25 49  1  0
 26 50  1  0
M  CHG  1  10   1
M  END
$$$$
