
     RDKit          3D

 34 34  0  0  0  0  0  0  0  0999 V2000
    4.4123   -1.0018   -2.0825 C   0  0  0  0  0  0  0  0  0  0  0  0
    4.0078   -1.0486   -0.7220 O   0  0  0  0  0  0  0  0  0  0  0  0
    2.8769   -0.3532   -0.3706 C   0  0  0  0  0  0  0  0  0  0  0  0
    2.0899    0.3791   -1.2646 C   0  0  0  0  0  0  0  0  0  0  0  0
    0.9532    1.0550   -0.8153 C   0  0  0  0  0  0  0  0  0  0  0  0
    0.5857    1.0132    0.5341 C   0  0  0  0  0  0  0  0  0  0  0  0
   -0.6606    1.7207    1.0001 C   0  0  0  0  0  0  0  0  0  0  0  0
   -1.8328    0.9226    0.7201 N   0  0  0  0  0  0  0  0  0  0  0  0
   -2.6424    1.1883   -0.3537 C   0  0  0  0  0  0  0  0  0  0  0  0
   -2.5143    2.1493   -1.1001 O   0  0  0  0  0  0  0  0  0  0  0  0
   -3.7059    0.1755   -0.5380 C   0  0  0  0  0  0  0  0  0  0  0  0
   -4.5562    0.3022   -1.5663 C   0  0  0  0  0  0  0  0  0  0  0  0
   -5.6393   -0.6481   -1.8302 C   0  0  0  0  0  0  0  0  0  0  0  0
   -6.4249   -0.5623   -2.7559 O   0  0  0  0  0  0  0  0  0  0  0  0
   -5.7041   -1.6553   -0.9453 O   0  0  0  0  0  0  0  0  0  0  0  0
    1.3708    0.2725    1.4310 C   0  0  0  0  0  0  0  0  0  0  0  0
    2.5152   -0.4054    0.9908 C   0  0  0  0  0  0  0  0  0  0  0  0
    3.3346   -1.1504    1.8034 O   0  0  0  0  0  0  0  0  0  0  0  0
    3.0774   -1.1302    3.1994 C   0  0  0  0  0  0  0  0  0  0  0  0
    4.6477    0.0223   -2.3905 H   0  0  0  0  0  0  0  0  0  0  0  0
    5.3263   -1.5956   -2.1802 H   0  0  0  0  0  0  0  0  0  0  0  0
    3.6553   -1.4486   -2.7353 H   0  0  0  0  0  0  0  0  0  0  0  0
    2.3299    0.4431   -2.3204 H   0  0  0  0  0  0  0  0  0  0  0  0
    0.3473    1.6136   -1.5282 H   0  0  0  0  0  0  0  0  0  0  0  0
   -0.7349    2.7075    0.5294 H   0  0  0  0  0  0  0  0  0  0  0  0
   -0.6286    1.8810    2.0834 H   0  0  0  0  0  0  0  0  0  0  0  0
   -1.9296    0.0520    1.2223 H   0  0  0  0  0  0  0  0  0  0  0  0
   -3.7710   -0.6439    0.1657 H   0  0  0  0  0  0  0  0  0  0  0  0
   -4.4886    1.1257   -2.2702 H   0  0  0  0  0  0  0  0  0  0  0  0
   -6.4647   -2.1873   -1.2614 H   0  0  0  0  0  0  0  0  0  0  0  0
    1.0678    0.2359    2.4722 H   0  0  0  0  0  0  0  0  0  0  0  0
    3.8566   -1.7200    3.6919 H   0  0  0  0  0  0  0  0  0  0  0  0
    3.1295   -0.1119    3.5987 H   0  0  0  0  0  0  0  0  0  0  0  0
    2.1138   -1.5970    3.4283 H   0  0  0  0  0  0  0  0  0  0  0  0
  1  2  1  0
  2  3  1  0
  3  4  2  0
  4  5  1  0
  5  6  2  0
  6  7  1  0
  7  8  1  0
  8  9  1  0
  9 10  2  0
  9 11  1  0
 11 12  2  3
 12 13  1  0
 13 14  2  0
 13 15  1  0
  6 16  1  0
 16 17  2  0
 17 18  1  0
 18 19  1  0
 17  3  1  0
  1 20  1  0
  1 21  1  0
  1 22  1  0
  4 23  1  0
  5 24  1  0
  7 25  1  0
  7 26  1  0
  8 27  1  0
 11 28  1  0
 12 29  1  0
 15 30  1  0
 16 31  1  0
 19 32  1  0
 19 33  1  0
 19 34  1  0
M  END
$$$$
