
     RDKit          3D

 50 52  0  0  0  0  0  0  0  0999 V2000
    4.6526    0.4048   -4.9811 C   0  0  0  0  0  0  0  0  0  0  0  0
    3.9265    0.4276   -3.7577 O   0  0  0  0  0  0  0  0  0  0  0  0
    4.6389    0.1847   -2.6046 C   0  0  0  0  0  0  0  0  0  0  0  0
    6.0104   -0.0812   -2.5519 C   0  0  0  0  0  0  0  0  0  0  0  0
    6.6311   -0.3145   -1.3234 C   0  0  0  0  0  0  0  0  0  0  0  0
    5.8871   -0.2829   -0.1468 C   0  0  0  0  0  0  0  0  0  0  0  0
    4.5167   -0.0179   -0.1890 C   0  0  0  0  0  0  0  0  0  0  0  0
    3.8838    0.2166   -1.4110 C   0  0  0  0  0  0  0  0  0  0  0  0
    2.5042    0.4928   -1.5396 N   0  0  0  0  0  0  0  0  0  0  0  0
    1.5444    0.5734   -0.5444 C   0  0  0  0  0  0  0  0  0  0  0  0
    1.7355    0.4092    0.6570 O   0  0  0  0  0  0  0  0  0  0  0  0
    0.1639    0.9017   -1.1213 C   0  0  0  0  0  0  0  0  0  0  0  0
   -0.8304    0.9570   -0.1047 O   0  0  0  0  0  0  0  0  0  0  0  0
   -2.0863    1.1002   -0.5836 C   0  0  0  0  0  0  0  0  0  0  0  0
   -2.4067    1.2915   -1.7457 O   0  0  0  0  0  0  0  0  0  0  0  0
   -3.0393    1.1273    0.5408 C   0  0  0  0  0  0  0  0  0  0  0  0
   -3.7953    2.2999    0.6905 C   0  0  0  0  0  0  0  0  0  0  0  0
   -4.7263    2.3827    1.7282 C   0  0  0  0  0  0  0  0  0  0  0  0
   -5.5162    3.6073    1.9033 N   0  0  0  0  0  4  0  0  0  0  0  0
   -6.3864    3.6096    2.7855 O   0  0  0  0  0  0  0  0  0  0  0  0
   -5.2644    4.5665    1.1610 O   0  0  0  0  0  1  0  0  0  0  0  0
   -4.9100    1.3079    2.6043 C   0  0  0  0  0  0  0  0  0  0  0  0
   -4.1621    0.1380    2.4299 C   0  0  0  0  0  0  0  0  0  0  0  0
   -3.2218    0.0146    1.3903 C   0  0  0  0  0  0  0  0  0  0  0  0
   -2.4949   -1.1678    1.2006 N   0  0  0  0  0  0  0  0  0  0  0  0
   -3.2541   -2.4312    1.1454 C   0  0  0  0  0  0  0  0  0  0  0  0
   -2.6458   -3.3116    2.2322 C   0  0  0  0  0  0  0  0  0  0  0  0
   -1.2076   -2.8313    2.2879 C   0  0  0  0  0  0  0  0  0  0  0  0
   -1.3640   -1.3222    2.1415 C   0  0  0  0  0  0  0  0  0  0  0  0
    3.9469    0.6128   -5.7911 H   0  0  0  0  0  0  0  0  0  0  0  0
    5.4197    1.1858   -4.9995 H   0  0  0  0  0  0  0  0  0  0  0  0
    5.0862   -0.5837   -5.1646 H   0  0  0  0  0  0  0  0  0  0  0  0
    6.6254   -0.1145   -3.4445 H   0  0  0  0  0  0  0  0  0  0  0  0
    7.6978   -0.5212   -1.2836 H   0  0  0  0  0  0  0  0  0  0  0  0
    6.3711   -0.4641    0.8099 H   0  0  0  0  0  0  0  0  0  0  0  0
    3.9716    0.0001    0.7491 H   0  0  0  0  0  0  0  0  0  0  0  0
    2.2148    0.6418   -2.5024 H   0  0  0  0  0  0  0  0  0  0  0  0
   -0.0891    0.1210   -1.8492 H   0  0  0  0  0  0  0  0  0  0  0  0
    0.2284    1.8771   -1.6180 H   0  0  0  0  0  0  0  0  0  0  0  0
   -3.6451    3.1255   -0.0029 H   0  0  0  0  0  0  0  0  0  0  0  0
   -5.6273    1.3590    3.4214 H   0  0  0  0  0  0  0  0  0  0  0  0
   -4.3184   -0.6863    3.1228 H   0  0  0  0  0  0  0  0  0  0  0  0
   -3.0852   -2.8835    0.1611 H   0  0  0  0  0  0  0  0  0  0  0  0
   -4.3364   -2.3207    1.2740 H   0  0  0  0  0  0  0  0  0  0  0  0
   -2.7301   -4.3774    2.0029 H   0  0  0  0  0  0  0  0  0  0  0  0
   -3.1422   -3.1253    3.1919 H   0  0  0  0  0  0  0  0  0  0  0  0
   -0.7004   -3.1121    3.2149 H   0  0  0  0  0  0  0  0  0  0  0  0
   -0.6386   -3.2389    1.4436 H   0  0  0  0  0  0  0  0  0  0  0  0
   -1.5820   -0.8793    3.1217 H   0  0  0  0  0  0  0  0  0  0  0  0
   -0.4505   -0.8689    1.7492 H   0  0  0  0  0  0  0  0  0  0  0  0
  1  2  1  0
  2  3  1  0
  3  4  2  0
  4  5  1  0
  5  6  2  0
  6  7  1  0
  7  8  2  0
  8  9  1  0
  9 10  1  0
 10 11  2  0
 10 12  1  0
 12 13  1  0
 13 14  1  0
 14 15  2  0
 14 16  1  0
 16 17  2  0
 17 18  1  0
 18 19  1  0
 19 20  2  0
 19 21  1  0
 18 22  2  0
 22 23  1  0
 23 24  2  0
 24 25  1  0
 25 26  1  0
 26 27  1  0
 27 28  1  0
 28 29  1  0
  8  3  1  0
 24 16  1  0
 29 25  1  0
  1 30  1  0
  1 31  1  0
  1 32  1  0
  4 33  1  0
  5 34  1  0
  6 35  1  0
  7 36  1  0
  9 37  1  0
 12 38  1  0
 12 39  1  0
 17 40  1  0
 22 41  1  0
 23 42  1  0
 26 43  1  0
 26 44  1  0
 27 45  1  0
 27 46  1  0
 28 47  1  0
 28 48  1  0
 29 49  1  0
 29 50  1  0
M  CHG  2  19   1  21  -1
M  END
$$$$
