
     RDKit          3D

 51 55  0  0  0  0  0  0  0  0999 V2000
    3.0199   -2.8888    0.5149 C   0  0  0  0  0  0  0  0  0  0  0  0
    3.0263   -2.0930   -0.7815 C   0  0  0  0  0  0  0  0  0  0  0  0
    2.5962   -0.7197   -0.5465 N   0  0  0  0  0  0  0  0  0  0  0  0
    1.2903   -0.2312   -0.6663 C   0  0  0  0  0  0  0  0  0  0  0  0
    0.1775   -0.9750   -0.8272 C   0  0  0  0  0  0  0  0  0  0  0  0
   -1.1955   -0.4637   -0.9528 C   0  0  0  0  0  0  0  0  0  0  0  0
   -1.5844    0.0554   -2.1887 C   0  0  0  0  0  0  0  0  0  0  0  0
   -2.8640    0.5443   -2.3651 C   0  0  0  0  0  0  0  0  0  0  0  0
   -3.7575    0.5151   -1.3025 C   0  0  0  0  0  0  0  0  0  0  0  0
   -5.0556    1.0201   -1.4788 C   0  0  0  0  0  0  0  0  0  0  0  0
   -5.9785    1.0215   -0.4299 C   0  0  0  0  0  0  0  0  0  0  0  0
   -7.3731    1.5375   -0.6424 C   0  0  0  0  0  0  0  0  0  0  0  0
   -5.5998    0.4881    0.7999 C   0  0  0  0  0  0  0  0  0  0  0  0
   -4.3085   -0.0196    0.9888 C   0  0  0  0  0  0  0  0  0  0  0  0
   -3.3558   -0.0226   -0.0490 C   0  0  0  0  0  0  0  0  0  0  0  0
   -2.0762   -0.5156    0.0933 N   0  0  0  0  0  4  0  0  0  0  0  0
   -1.6424   -1.1216    1.3895 C   0  0  0  0  0  0  0  0  0  0  0  0
   -1.1795   -0.0462    2.3535 C   0  0  0  0  0  0  0  0  0  0  0  0
    1.1649    1.5359   -0.5476 S   0  0  0  0  0  0  0  0  0  0  0  0
    2.9339    1.6110   -0.2845 C   0  0  0  0  0  0  0  0  0  0  0  0
    3.6174    2.7946   -0.0891 C   0  0  0  0  0  0  0  0  0  0  0  0
    4.9883    2.7425    0.1152 C   0  0  0  0  0  0  0  0  0  0  0  0
    5.6403    1.4899    0.1360 C   0  0  0  0  0  0  0  0  0  0  0  0
    7.3320    1.2680    0.3956 S   0  0  0  0  0  0  0  0  0  0  0  0
    7.1987   -0.4190    0.2976 C   0  0  0  0  0  0  0  0  0  0  0  0
    5.9033   -0.8172    0.0647 C   0  0  0  0  0  0  0  0  0  0  0  0
    4.9624    0.2720   -0.0558 C   0  0  0  0  0  0  0  0  0  0  0  0
    3.5540    0.3242   -0.2970 C   0  0  0  0  0  0  0  0  0  0  0  0
    3.6625   -2.4341    1.2746 H   0  0  0  0  0  0  0  0  0  0  0  0
    2.0096   -2.9483    0.9335 H   0  0  0  0  0  0  0  0  0  0  0  0
    3.3712   -3.9094    0.3345 H   0  0  0  0  0  0  0  0  0  0  0  0
    3.9988   -2.1355   -1.2785 H   0  0  0  0  0  0  0  0  0  0  0  0
    2.3507   -2.5829   -1.4936 H   0  0  0  0  0  0  0  0  0  0  0  0
    0.2492   -2.0566   -0.8867 H   0  0  0  0  0  0  0  0  0  0  0  0
   -0.8827    0.0897   -3.0217 H   0  0  0  0  0  0  0  0  0  0  0  0
   -3.1500    0.9534   -3.3338 H   0  0  0  0  0  0  0  0  0  0  0  0
   -5.3599    1.4249   -2.4453 H   0  0  0  0  0  0  0  0  0  0  0  0
   -8.0172    0.7326   -1.0096 H   0  0  0  0  0  0  0  0  0  0  0  0
   -7.3790    2.3568   -1.3689 H   0  0  0  0  0  0  0  0  0  0  0  0
   -7.7919    1.9283    0.2909 H   0  0  0  0  0  0  0  0  0  0  0  0
   -6.3101    0.4681    1.6268 H   0  0  0  0  0  0  0  0  0  0  0  0
   -4.0930   -0.3991    1.9826 H   0  0  0  0  0  0  0  0  0  0  0  0
   -0.8479   -1.8509    1.2120 H   0  0  0  0  0  0  0  0  0  0  0  0
   -2.4722   -1.7085    1.7939 H   0  0  0  0  0  0  0  0  0  0  0  0
   -1.9573    0.6998    2.5388 H   0  0  0  0  0  0  0  0  0  0  0  0
   -0.9054   -0.4952    3.3132 H   0  0  0  0  0  0  0  0  0  0  0  0
   -0.3040    0.4822    1.9699 H   0  0  0  0  0  0  0  0  0  0  0  0
    3.1042    3.7514   -0.0965 H   0  0  0  0  0  0  0  0  0  0  0  0
    5.5545    3.6588    0.2678 H   0  0  0  0  0  0  0  0  0  0  0  0
    8.0726   -1.0454    0.4187 H   0  0  0  0  0  0  0  0  0  0  0  0
    5.6624   -1.8668   -0.0077 H   0  0  0  0  0  0  0  0  0  0  0  0
  1  2  1  0
  2  3  1  0
  3  4  1  0
  4  5  2  3
  5  6  1  0
  6  7  2  0
  7  8  1  0
  8  9  2  0
  9 10  1  0
 10 11  2  0
 11 12  1  0
 11 13  1  0
 13 14  2  0
 14 15  1  0
 15 16  2  0
 16 17  1  0
 17 18  1  0
  4 19  1  0
 19 20  1  0
 20 21  2  0
 21 22  1  0
 22 23  2  0
 23 24  1  0
 24 25  1  0
 25 26  2  0
 26 27  1  0
 27 28  2  0
 28  3  1  0
 16  6  1  0
 28 20  1  0
 15  9  1  0
 27 23  1  0
  1 29  1  0
  1 30  1  0
  1 31  1  0
  2 32  1  0
  2 33  1  0
  5 34  1  0
  7 35  1  0
  8 36  1  0
 10 37  1  0
 12 38  1  0
 12 39  1  0
 12 40  1  0
 13 41  1  0
 14 42  1  0
 17 43  1  0
 17 44  1  0
 18 45  1  0
 18 46  1  0
 18 47  1  0
 21 48  1  0
 22 49  1  0
 25 50  1  0
 26 51  1  0
M  CHG  1  16   1
M  END
$$$$
