
     RDKit          3D

 43 45  0  0  0  0  0  0  0  0999 V2000
    3.1762   -3.0573   -0.5824 C   0  0  0  0  0  0  0  0  0  0  0  0
    3.8968   -1.9752   -0.0096 O   0  0  0  0  0  0  0  0  0  0  0  0
    3.2624   -0.7636    0.1035 C   0  0  0  0  0  0  0  0  0  0  0  0
    1.9160   -0.5444   -0.2210 C   0  0  0  0  0  0  0  0  0  0  0  0
    1.3299    0.7268   -0.0757 C   0  0  0  0  0  0  0  0  0  0  0  0
   -0.0867    0.8813   -0.4686 C   0  0  0  0  0  0  0  0  0  0  0  0
   -0.3833    1.4568   -1.7441 C   0  0  0  0  0  0  0  0  0  0  0  0
   -0.5753    1.9264   -2.7873 N   0  0  0  0  0  0  0  0  0  0  0  0
   -1.0366    0.4586    0.3884 C   0  0  0  0  0  0  0  0  0  0  0  0
   -2.4854    0.5533    0.1422 C   0  0  0  0  0  0  0  0  0  0  0  0
   -3.0917    1.8074    0.3111 C   0  0  0  0  0  0  0  0  0  0  0  0
   -4.4554    1.9644    0.0895 C   0  0  0  0  0  0  0  0  0  0  0  0
   -5.2256    0.8705   -0.2987 C   0  0  0  0  0  0  0  0  0  0  0  0
   -4.6467   -0.3965   -0.4694 C   0  0  0  0  0  0  0  0  0  0  0  0
   -5.4386   -1.4892   -0.8595 C   0  0  0  0  0  0  0  0  0  0  0  0
   -4.8809   -2.7550   -1.0336 C   0  0  0  0  0  0  0  0  0  0  0  0
   -3.5222   -2.9461   -0.8196 C   0  0  0  0  0  0  0  0  0  0  0  0
   -2.7206   -1.8701   -0.4320 C   0  0  0  0  0  0  0  0  0  0  0  0
   -3.2579   -0.5737   -0.2480 C   0  0  0  0  0  0  0  0  0  0  0  0
    2.1358    1.7698    0.4105 C   0  0  0  0  0  0  0  0  0  0  0  0
    1.5968    3.1097    0.6158 N   0  0  0  0  0  4  0  0  0  0  0  0
    2.2812    4.0591    0.2130 O   0  0  0  0  0  0  0  0  0  0  0  0
    0.5124    3.2077    1.2043 O   0  0  0  0  0  1  0  0  0  0  0  0
    3.4866    1.5685    0.7359 C   0  0  0  0  0  0  0  0  0  0  0  0
    4.0530    0.3021    0.5828 C   0  0  0  0  0  0  0  0  0  0  0  0
    5.3575   -0.0026    0.8785 O   0  0  0  0  0  0  0  0  0  0  0  0
    6.2247    1.0625    1.2447 C   0  0  0  0  0  0  0  0  0  0  0  0
    2.3246   -3.3384    0.0456 H   0  0  0  0  0  0  0  0  0  0  0  0
    3.8498   -3.9181   -0.6338 H   0  0  0  0  0  0  0  0  0  0  0  0
    2.8561   -2.8237   -1.6032 H   0  0  0  0  0  0  0  0  0  0  0  0
    1.3014   -1.3576   -0.5989 H   0  0  0  0  0  0  0  0  0  0  0  0
   -0.7784    0.0197    1.3504 H   0  0  0  0  0  0  0  0  0  0  0  0
   -2.5038    2.6719    0.6161 H   0  0  0  0  0  0  0  0  0  0  0  0
   -4.9187    2.9395    0.2164 H   0  0  0  0  0  0  0  0  0  0  0  0
   -6.2904    1.0165   -0.4694 H   0  0  0  0  0  0  0  0  0  0  0  0
   -6.5051   -1.3603   -1.0333 H   0  0  0  0  0  0  0  0  0  0  0  0
   -5.5091   -3.5884   -1.3369 H   0  0  0  0  0  0  0  0  0  0  0  0
   -3.0837   -3.9312   -0.9547 H   0  0  0  0  0  0  0  0  0  0  0  0
   -1.6619   -2.0574   -0.2736 H   0  0  0  0  0  0  0  0  0  0  0  0
    4.0697    2.4047    1.1110 H   0  0  0  0  0  0  0  0  0  0  0  0
    7.2273    0.6459    1.3805 H   0  0  0  0  0  0  0  0  0  0  0  0
    6.2818    1.8172    0.4534 H   0  0  0  0  0  0  0  0  0  0  0  0
    5.9179    1.5083    2.1963 H   0  0  0  0  0  0  0  0  0  0  0  0
  1  2  1  0
  2  3  1  0
  3  4  2  0
  4  5  1  0
  5  6  1  0
  6  7  1  0
  7  8  3  0
  6  9  2  3
  9 10  1  0
 10 11  2  0
 11 12  1  0
 12 13  2  0
 13 14  1  0
 14 15  2  0
 15 16  1  0
 16 17  2  0
 17 18  1  0
 18 19  2  0
  5 20  2  0
 20 21  1  0
 21 22  2  0
 21 23  1  0
 20 24  1  0
 24 25  2  0
 25 26  1  0
 26 27  1  0
 25  3  1  0
 19 10  1  0
 19 14  1  0
  1 28  1  0
  1 29  1  0
  1 30  1  0
  4 31  1  0
  9 32  1  0
 11 33  1  0
 12 34  1  0
 13 35  1  0
 15 36  1  0
 16 37  1  0
 17 38  1  0
 18 39  1  0
 24 40  1  0
 27 41  1  0
 27 42  1  0
 27 43  1  0
M  CHG  2  21   1  23  -1
M  END
$$$$
