
     RDKit          3D

 46 48  0  0  0  0  0  0  0  0999 V2000
   -1.1265    4.1531   -0.7394 C   0  0  0  0  0  0  0  0  0  0  0  0
   -0.9546    3.3629    0.5543 C   0  0  0  0  0  0  0  0  0  0  0  0
   -0.6992    1.8523    0.4013 C   0  0  0  0  0  0  0  0  0  0  0  0
   -1.9275    1.0139   -0.6845 S   0  0  0  0  0  0  0  0  0  0  0  0
   -3.2823    0.9274    0.3736 C   0  0  0  0  0  0  0  0  0  0  0  0
   -3.2852    1.0678    1.6751 N   0  0  0  0  0  0  0  0  0  0  0  0
   -4.6012    0.9041    2.0393 C   0  0  0  0  0  0  0  0  0  0  0  0
   -5.1930    0.9557    3.3093 C   0  0  0  0  0  0  0  0  0  0  0  0
   -6.5750    0.7519    3.4149 C   0  0  0  0  0  0  0  0  0  0  0  0
   -7.3513    0.5015    2.2802 C   0  0  0  0  0  0  0  0  0  0  0  0
   -6.7797    0.4456    1.0035 C   0  0  0  0  0  0  0  0  0  0  0  0
   -5.4013    0.6525    0.9268 C   0  0  0  0  0  0  0  0  0  0  0  0
   -4.5237    0.6703   -0.1270 N   0  0  0  0  0  0  0  0  0  0  0  0
    0.7178    1.5380   -0.1179 C   0  0  0  0  0  0  0  0  0  0  0  0
    1.5144    2.4207   -0.4244 O   0  0  0  0  0  0  0  0  0  0  0  0
    0.9829    0.1732   -0.1382 N   0  0  0  0  0  0  0  0  0  0  0  0
    2.1748   -0.4740   -0.5160 C   0  0  0  0  0  0  0  0  0  0  0  0
    3.3386    0.1882   -0.8998 C   0  0  0  0  0  0  0  0  0  0  0  0
    4.4821   -0.5371   -1.2609 C   0  0  0  0  0  0  0  0  0  0  0  0
    4.4827   -1.9358   -1.2445 C   0  0  0  0  0  0  0  0  0  0  0  0
    5.6753   -2.5855   -1.6222 N   0  0  0  0  0  0  0  0  0  0  0  0
    5.9058   -3.9472   -1.6951 C   0  0  0  0  0  0  0  0  0  0  0  0
    7.3112   -4.2638   -2.1430 C   0  0  0  0  0  0  0  0  0  0  0  0
    5.1048   -4.8460   -1.4644 O   0  0  0  0  0  0  0  0  0  0  0  0
    3.3195   -2.5979   -0.8580 C   0  0  0  0  0  0  0  0  0  0  0  0
    2.1762   -1.8725   -0.4967 C   0  0  0  0  0  0  0  0  0  0  0  0
   -0.2877    4.0030   -1.4245 H   0  0  0  0  0  0  0  0  0  0  0  0
   -1.1840    5.2231   -0.5129 H   0  0  0  0  0  0  0  0  0  0  0  0
   -2.0508    3.8839   -1.2589 H   0  0  0  0  0  0  0  0  0  0  0  0
   -0.1244    3.8071    1.1186 H   0  0  0  0  0  0  0  0  0  0  0  0
   -1.8495    3.5182    1.1699 H   0  0  0  0  0  0  0  0  0  0  0  0
   -0.7423    1.4015    1.4015 H   0  0  0  0  0  0  0  0  0  0  0  0
   -4.5863    1.1504    4.1867 H   0  0  0  0  0  0  0  0  0  0  0  0
   -7.0472    0.7898    4.3940 H   0  0  0  0  0  0  0  0  0  0  0  0
   -8.4231    0.3470    2.3914 H   0  0  0  0  0  0  0  0  0  0  0  0
   -7.3843    0.2513    0.1242 H   0  0  0  0  0  0  0  0  0  0  0  0
   -4.7438    0.5273   -1.1008 H   0  0  0  0  0  0  0  0  0  0  0  0
    0.2039   -0.4297    0.1036 H   0  0  0  0  0  0  0  0  0  0  0  0
    3.3961    1.2715   -0.9302 H   0  0  0  0  0  0  0  0  0  0  0  0
    5.3687    0.0191   -1.5547 H   0  0  0  0  0  0  0  0  0  0  0  0
    6.4448   -1.9793   -1.8770 H   0  0  0  0  0  0  0  0  0  0  0  0
    8.0276   -3.5590   -1.7108 H   0  0  0  0  0  0  0  0  0  0  0  0
    7.3625   -4.2188   -3.2340 H   0  0  0  0  0  0  0  0  0  0  0  0
    7.5815   -5.2693   -1.8075 H   0  0  0  0  0  0  0  0  0  0  0  0
    3.2632   -3.6814   -0.8240 H   0  0  0  0  0  0  0  0  0  0  0  0
    1.2894   -2.4278   -0.2011 H   0  0  0  0  0  0  0  0  0  0  0  0
  1  2  1  0
  2  3  1  0
  3  4  1  0
  4  5  1  0
  5  6  2  0
  6  7  1  0
  7  8  2  0
  8  9  1  0
  9 10  2  0
 10 11  1  0
 11 12  2  0
 12 13  1  0
  3 14  1  0
 14 15  2  0
 14 16  1  0
 16 17  1  0
 17 18  2  0
 18 19  1  0
 19 20  2  0
 20 21  1  0
 21 22  1  0
 22 23  1  0
 22 24  2  0
 20 25  1  0
 25 26  2  0
 13  5  1  0
 26 17  1  0
 12  7  1  0
  1 27  1  0
  1 28  1  0
  1 29  1  0
  2 30  1  0
  2 31  1  0
  3 32  1  0
  8 33  1  0
  9 34  1  0
 10 35  1  0
 11 36  1  0
 13 37  1  0
 16 38  1  0
 18 39  1  0
 19 40  1  0
 21 41  1  0
 23 42  1  0
 23 43  1  0
 23 44  1  0
 25 45  1  0
 26 46  1  0
M  END
$$$$
