
     RDKit          3D

 46 49  0  0  0  0  0  0  0  0999 V2000
   -4.4786   -1.1255   -2.0357 C   0  0  0  0  0  0  0  0  0  0  0  0
   -4.6334    0.3115   -1.5682 C   0  0  0  0  0  0  0  0  0  0  0  0
   -4.0026    0.6756   -0.2035 C   0  0  0  0  0  0  0  0  0  0  0  0
   -4.8063    0.1687    1.0046 C   0  0  0  0  0  0  0  0  0  0  0  0
   -4.5790   -1.2957    1.3622 C   0  0  0  0  0  0  0  0  0  0  0  0
   -3.1725   -1.7878    1.0418 C   0  0  0  0  0  0  0  0  0  0  0  0
   -2.1664   -0.6554    0.8936 C   0  0  0  0  0  0  0  0  0  0  0  0
   -2.5704    0.3465   -0.0977 N   0  0  0  0  0  0  0  0  0  0  0  0
   -1.6576    1.1424   -0.8163 C   0  0  0  0  0  0  0  0  0  0  0  0
   -2.0473    1.9729   -1.6369 O   0  0  0  0  0  0  0  0  0  0  0  0
   -0.2417    0.9703   -0.5406 C   0  0  0  0  0  0  0  0  0  0  0  0
    0.4494    1.1493    0.6426 C   0  0  0  0  0  0  0  0  0  0  0  0
    1.8438    0.8932    0.4858 C   0  0  0  0  0  0  0  0  0  0  0  0
    2.8998    0.9553    1.4743 C   0  0  0  0  0  0  0  0  0  0  0  0
    2.6550    1.2424    2.6451 O   0  0  0  0  0  0  0  0  0  0  0  0
    4.1786    0.6549    0.9732 N   0  0  0  0  0  0  0  0  0  0  0  0
    5.2555    0.6961    1.8527 C   0  0  0  0  0  0  0  0  0  0  0  0
    6.5030    0.4200    1.4605 C   0  0  0  0  0  0  0  0  0  0  0  0
    6.7652    0.0668    0.0938 C   0  0  0  0  0  0  0  0  0  0  0  0
    5.7766    0.0061   -0.8112 C   0  0  0  0  0  0  0  0  0  0  0  0
    5.9989   -0.3553   -2.2469 C   0  0  0  0  0  0  0  0  0  0  0  0
    4.3660    0.3154   -0.3808 C   0  0  0  0  0  0  0  0  0  0  0  0
    3.4088    0.2537   -1.2637 N   0  0  0  0  0  0  0  0  0  0  0  0
    2.1734    0.5511   -0.8019 C   0  0  0  0  0  0  0  0  0  0  0  0
    0.8087    0.5443   -1.8250 S   0  0  0  0  0  0  0  0  0  0  0  0
   -5.0195   -1.8217   -1.3920 H   0  0  0  0  0  0  0  0  0  0  0  0
   -4.8943   -1.2322   -3.0435 H   0  0  0  0  0  0  0  0  0  0  0  0
   -3.4269   -1.4218   -2.0832 H   0  0  0  0  0  0  0  0  0  0  0  0
   -4.2000    0.9527   -2.3448 H   0  0  0  0  0  0  0  0  0  0  0  0
   -5.7018    0.5605   -1.5454 H   0  0  0  0  0  0  0  0  0  0  0  0
   -4.0626    1.7726   -0.1486 H   0  0  0  0  0  0  0  0  0  0  0  0
   -5.8775    0.3592    0.8694 H   0  0  0  0  0  0  0  0  0  0  0  0
   -4.5070    0.7683    1.8761 H   0  0  0  0  0  0  0  0  0  0  0  0
   -4.7759   -1.4258    2.4338 H   0  0  0  0  0  0  0  0  0  0  0  0
   -5.3122   -1.9309    0.8526 H   0  0  0  0  0  0  0  0  0  0  0  0
   -3.1950   -2.3708    0.1145 H   0  0  0  0  0  0  0  0  0  0  0  0
   -2.8398   -2.4823    1.8222 H   0  0  0  0  0  0  0  0  0  0  0  0
   -2.0413   -0.1348    1.8504 H   0  0  0  0  0  0  0  0  0  0  0  0
   -1.2000   -1.0883    0.6192 H   0  0  0  0  0  0  0  0  0  0  0  0
   -0.0150    1.4543    1.5733 H   0  0  0  0  0  0  0  0  0  0  0  0
    5.0430    0.9655    2.8847 H   0  0  0  0  0  0  0  0  0  0  0  0
    7.3328    0.4575    2.1593 H   0  0  0  0  0  0  0  0  0  0  0  0
    7.7940   -0.1486   -0.1805 H   0  0  0  0  0  0  0  0  0  0  0  0
    7.0547   -0.5594   -2.4553 H   0  0  0  0  0  0  0  0  0  0  0  0
    5.4315   -1.2540   -2.5103 H   0  0  0  0  0  0  0  0  0  0  0  0
    5.6859    0.4632   -2.9033 H   0  0  0  0  0  0  0  0  0  0  0  0
  1  2  1  0
  2  3  1  0
  3  4  1  0
  4  5  1  0
  5  6  1  0
  6  7  1  0
  7  8  1  0
  8  9  1  0
  9 10  2  0
  9 11  1  0
 11 12  2  0
 12 13  1  0
 13 14  1  0
 14 15  2  0
 14 16  1  0
 16 17  1  0
 17 18  2  0
 18 19  1  0
 19 20  2  0
 20 21  1  0
 20 22  1  0
 22 23  2  0
 23 24  1  0
 24 25  1  0
  8  3  1  0
 25 11  1  0
 24 13  2  0
 22 16  1  0
  1 26  1  0
  1 27  1  0
  1 28  1  0
  2 29  1  0
  2 30  1  0
  3 31  1  0
  4 32  1  0
  4 33  1  0
  5 34  1  0
  5 35  1  0
  6 36  1  0
  6 37  1  0
  7 38  1  0
  7 39  1  0
 12 40  1  0
 17 41  1  0
 18 42  1  0
 19 43  1  0
 21 44  1  0
 21 45  1  0
 21 46  1  0
M  END
$$$$
