
     RDKit          3D

 54 57  0  0  0  0  0  0  0  0999 V2000
   -2.3015    5.4727   -2.5756 C   0  0  0  0  0  0  0  0  0  0  0  0
   -2.6206    5.2249   -1.2119 O   0  0  0  0  0  0  0  0  0  0  0  0
   -2.1134    4.0818   -0.6589 C   0  0  0  0  0  0  0  0  0  0  0  0
   -1.2782    3.1637   -1.2923 C   0  0  0  0  0  0  0  0  0  0  0  0
   -0.8286    2.0301   -0.6053 C   0  0  0  0  0  0  0  0  0  0  0  0
   -1.2125    1.7891    0.7234 C   0  0  0  0  0  0  0  0  0  0  0  0
   -0.7219    0.5780    1.5041 C   0  0  0  0  0  0  0  0  0  0  0  0
    0.6659    0.8369    2.0942 C   0  0  0  0  0  0  0  0  0  0  0  0
    1.4961   -0.0909    1.2498 C   0  0  0  0  0  0  0  0  0  0  0  0
    2.9763   -0.0888    1.3107 C   0  0  0  0  0  0  0  0  0  0  0  0
    3.6711    0.7477    2.1888 C   0  0  0  0  0  0  0  0  0  0  0  0
    5.0669    0.7213    2.2159 C   0  0  0  0  0  0  0  0  0  0  0  0
    5.7743   -0.1370    1.3695 C   0  0  0  0  0  0  0  0  0  0  0  0
    5.0889   -0.9789    0.4930 C   0  0  0  0  0  0  0  0  0  0  0  0
    5.6579   -1.8663   -0.3790 O   0  0  0  0  0  0  0  0  0  0  0  0
    7.0784   -1.9296   -0.4030 C   0  0  0  0  0  0  0  0  0  0  0  0
    3.6914   -0.9506    0.4684 C   0  0  0  0  0  0  0  0  0  0  0  0
    0.8172   -0.9017    0.4965 N   0  0  0  0  0  0  0  0  0  0  0  0
   -0.5051   -0.6093    0.6740 N   0  0  0  0  0  0  0  0  0  0  0  0
   -1.4935   -1.3870    0.0741 C   0  0  0  0  0  0  0  0  0  0  0  0
   -2.8644   -1.1349    0.2537 C   0  0  0  0  0  0  0  0  0  0  0  0
   -3.8458   -1.9266   -0.3564 C   0  0  0  0  0  0  0  0  0  0  0  0
   -3.4622   -2.9984   -1.1594 C   0  0  0  0  0  0  0  0  0  0  0  0
   -4.6857   -4.0190   -1.9314 S   0  0  0  0  0  6  0  0  0  0  0  0
   -4.6756   -5.3733   -0.9260 N   0  0  0  0  0  0  0  0  0  0  0  0
   -4.1974   -4.4213   -3.2289 O   0  0  0  0  0  0  0  0  0  0  0  0
   -5.9844   -3.4131   -1.7399 O   0  0  0  0  0  0  0  0  0  0  0  0
   -2.1136   -3.2724   -1.3721 C   0  0  0  0  0  0  0  0  0  0  0  0
   -1.1476   -2.4731   -0.7532 C   0  0  0  0  0  0  0  0  0  0  0  0
   -2.0461    2.7247    1.3538 C   0  0  0  0  0  0  0  0  0  0  0  0
   -2.4914    3.8567    0.6659 C   0  0  0  0  0  0  0  0  0  0  0  0
   -1.2245    5.6152   -2.7081 H   0  0  0  0  0  0  0  0  0  0  0  0
   -2.7995    6.4014   -2.8708 H   0  0  0  0  0  0  0  0  0  0  0  0
   -2.6783    4.6733   -3.2221 H   0  0  0  0  0  0  0  0  0  0  0  0
   -0.9561    3.2936   -2.3201 H   0  0  0  0  0  0  0  0  0  0  0  0
   -0.1795    1.3253   -1.1244 H   0  0  0  0  0  0  0  0  0  0  0  0
   -1.4258    0.3501    2.3143 H   0  0  0  0  0  0  0  0  0  0  0  0
    0.7181    0.5030    3.1362 H   0  0  0  0  0  0  0  0  0  0  0  0
    0.9988    1.8757    2.0178 H   0  0  0  0  0  0  0  0  0  0  0  0
    3.1531    1.4226    2.8635 H   0  0  0  0  0  0  0  0  0  0  0  0
    5.6073    1.3690    2.9014 H   0  0  0  0  0  0  0  0  0  0  0  0
    6.8583   -0.1276    1.4223 H   0  0  0  0  0  0  0  0  0  0  0  0
    7.5095   -0.9748   -0.7233 H   0  0  0  0  0  0  0  0  0  0  0  0
    7.4769   -2.2379    0.5697 H   0  0  0  0  0  0  0  0  0  0  0  0
    7.3676   -2.6896   -1.1362 H   0  0  0  0  0  0  0  0  0  0  0  0
    3.1623   -1.6106   -0.2173 H   0  0  0  0  0  0  0  0  0  0  0  0
   -3.2006   -0.3048    0.8684 H   0  0  0  0  0  0  0  0  0  0  0  0
   -4.8961   -1.6905   -0.2006 H   0  0  0  0  0  0  0  0  0  0  0  0
   -3.9036   -5.3704   -0.2597 H   0  0  0  0  0  0  0  0  0  0  0  0
   -5.5820   -5.4413   -0.4598 H   0  0  0  0  0  0  0  0  0  0  0  0
   -1.8024   -4.0921   -2.0161 H   0  0  0  0  0  0  0  0  0  0  0  0
   -0.0970   -2.6984   -0.9293 H   0  0  0  0  0  0  0  0  0  0  0  0
   -2.3600    2.5825    2.3855 H   0  0  0  0  0  0  0  0  0  0  0  0
   -3.1414    4.5708    1.1662 H   0  0  0  0  0  0  0  0  0  0  0  0
  1  2  1  0
  2  3  1  0
  3  4  2  0
  4  5  1  0
  5  6  2  0
  6  7  1  0
  7  8  1  0
  8  9  1  0
  9 10  1  0
 10 11  2  0
 11 12  1  0
 12 13  2  0
 13 14  1  0
 14 15  1  0
 15 16  1  0
 14 17  2  0
  9 18  2  0
 18 19  1  0
 19 20  1  0
 20 21  2  0
 21 22  1  0
 22 23  2  0
 23 24  1  0
 24 25  1  0
 24 26  2  0
 24 27  2  0
 23 28  1  0
 28 29  2  0
  6 30  1  0
 30 31  2  0
 31  3  1  0
 19  7  1  0
 29 20  1  0
 17 10  1  0
  1 32  1  0
  1 33  1  0
  1 34  1  0
  4 35  1  0
  5 36  1  0
  7 37  1  0
  8 38  1  0
  8 39  1  0
 11 40  1  0
 12 41  1  0
 13 42  1  0
 16 43  1  0
 16 44  1  0
 16 45  1  0
 17 46  1  0
 21 47  1  0
 22 48  1  0
 25 49  1  0
 25 50  1  0
 28 51  1  0
 29 52  1  0
 30 53  1  0
 31 54  1  0
M  END
$$$$
