
     RDKit          3D

 69 73  0  0  0  0  0  0  0  0999 V2000
   -3.6080   -7.2823   -1.1120 C   0  0  0  0  0  0  0  0  0  0  0  0
   -3.7996   -6.0612   -0.4095 O   0  0  0  0  0  0  0  0  0  0  0  0
   -2.6811   -5.4545    0.0937 C   0  0  0  0  0  0  0  0  0  0  0  0
   -1.3696   -5.9126   -0.0377 C   0  0  0  0  0  0  0  0  0  0  0  0
   -0.3140   -5.1895    0.5242 C   0  0  0  0  0  0  0  0  0  0  0  0
   -0.5643   -4.0067    1.2198 C   0  0  0  0  0  0  0  0  0  0  0  0
   -1.8746   -3.5370    1.3628 C   0  0  0  0  0  0  0  0  0  0  0  0
   -2.1367   -2.2882    2.0844 C   0  0  0  0  0  0  0  0  0  0  0  0
   -2.9402   -2.3723    3.5910 S   0  0  0  0  0  0  0  0  0  0  0  0
   -2.8760   -0.6706    3.8233 C   0  0  0  0  0  0  0  0  0  0  0  0
   -3.3838    0.0467    4.9266 C   0  0  0  0  0  0  0  0  0  0  0  0
   -3.2518    1.4403    4.9575 C   0  0  0  0  0  0  0  0  0  0  0  0
   -3.7072    2.2328    5.9851 O   0  0  0  0  0  0  0  0  0  0  0  0
   -4.3951    1.5993    7.0541 C   0  0  0  0  0  0  0  0  0  0  0  0
   -2.6221    2.1105    3.8981 C   0  0  0  0  0  0  0  0  0  0  0  0
   -2.5373    3.4769    4.0140 O   0  0  0  0  0  0  0  0  0  0  0  0
   -1.9382    4.1954    2.9452 C   0  0  0  0  0  0  0  0  0  0  0  0
   -2.1243    1.3811    2.8094 C   0  0  0  0  0  0  0  0  0  0  0  0
   -2.2420   -0.0335    2.7593 C   0  0  0  0  0  0  0  0  0  0  0  0
   -1.8107   -0.9825    1.7558 C   0  0  0  0  0  0  0  0  0  0  0  0
   -1.1206   -0.6524    0.5144 C   0  0  0  0  0  0  0  0  0  0  0  0
   -1.7995   -0.6992   -0.7055 C   0  0  0  0  0  0  0  0  0  0  0  0
   -1.1337   -0.3629   -1.8864 C   0  0  0  0  0  0  0  0  0  0  0  0
    0.2116    0.0154   -1.8665 C   0  0  0  0  0  0  0  0  0  0  0  0
    0.7296    0.3269   -3.0921 O   0  0  0  0  0  0  0  0  0  0  0  0
    2.1487    0.4684   -3.2144 C   0  0  0  0  0  0  0  0  0  0  0  0
    2.5729    1.9346   -3.0141 C   0  0  0  0  0  0  0  0  0  0  0  0
    4.0335    2.1389   -3.0181 N   0  0  0  0  0  0  0  0  0  0  0  0
    4.6403    1.7596   -4.3060 C   0  0  0  0  0  0  0  0  0  0  0  0
    6.0270    2.3700   -4.4962 C   0  0  0  0  0  0  0  0  0  0  0  0
    5.9674    3.8964   -4.5080 C   0  0  0  0  0  0  0  0  0  0  0  0
    4.7765    4.4365   -3.7182 C   0  0  0  0  0  0  0  0  0  0  0  0
    4.3965    3.4964   -2.5769 C   0  0  0  0  0  0  0  0  0  0  0  0
    0.8867    0.0682   -0.6463 C   0  0  0  0  0  0  0  0  0  0  0  0
    0.2223   -0.2628    0.5407 C   0  0  0  0  0  0  0  0  0  0  0  0
   -2.9262   -4.2686    0.7933 C   0  0  0  0  0  0  0  0  0  0  0  0
   -3.1796   -8.0502   -0.4590 H   0  0  0  0  0  0  0  0  0  0  0  0
   -2.9916   -7.1313   -2.0043 H   0  0  0  0  0  0  0  0  0  0  0  0
   -4.5900   -7.6360   -1.4419 H   0  0  0  0  0  0  0  0  0  0  0  0
   -1.1318   -6.8267   -0.5710 H   0  0  0  0  0  0  0  0  0  0  0  0
    0.7064   -5.5488    0.4185 H   0  0  0  0  0  0  0  0  0  0  0  0
    0.2681   -3.4556    1.6514 H   0  0  0  0  0  0  0  0  0  0  0  0
   -3.8662   -0.5034    5.7263 H   0  0  0  0  0  0  0  0  0  0  0  0
   -5.3038    1.1015    6.6998 H   0  0  0  0  0  0  0  0  0  0  0  0
   -3.7415    0.8998    7.5859 H   0  0  0  0  0  0  0  0  0  0  0  0
   -4.6969    2.3753    7.7636 H   0  0  0  0  0  0  0  0  0  0  0  0
   -2.5034    4.0645    2.0170 H   0  0  0  0  0  0  0  0  0  0  0  0
   -0.8893    3.9096    2.8161 H   0  0  0  0  0  0  0  0  0  0  0  0
   -1.9629    5.2592    3.2022 H   0  0  0  0  0  0  0  0  0  0  0  0
   -1.6382    1.8743    1.9750 H   0  0  0  0  0  0  0  0  0  0  0  0
   -2.8452   -0.9950   -0.7473 H   0  0  0  0  0  0  0  0  0  0  0  0
   -1.6684   -0.4022   -2.8321 H   0  0  0  0  0  0  0  0  0  0  0  0
    2.3904    0.1583   -4.2375 H   0  0  0  0  0  0  0  0  0  0  0  0
    2.6910   -0.2213   -2.5561 H   0  0  0  0  0  0  0  0  0  0  0  0
    2.1625    2.2736   -2.0554 H   0  0  0  0  0  0  0  0  0  0  0  0
    2.0886    2.5597   -3.7756 H   0  0  0  0  0  0  0  0  0  0  0  0
    4.7305    0.6685   -4.3536 H   0  0  0  0  0  0  0  0  0  0  0  0
    4.0052    2.0724   -5.1457 H   0  0  0  0  0  0  0  0  0  0  0  0
    6.6866    2.0351   -3.6854 H   0  0  0  0  0  0  0  0  0  0  0  0
    6.4770    2.0108   -5.4285 H   0  0  0  0  0  0  0  0  0  0  0  0
    5.9090    4.2637   -5.5389 H   0  0  0  0  0  0  0  0  0  0  0  0
    6.9024    4.2907   -4.0937 H   0  0  0  0  0  0  0  0  0  0  0  0
    5.0170    5.4318   -3.3259 H   0  0  0  0  0  0  0  0  0  0  0  0
    3.9161    4.5646   -4.3871 H   0  0  0  0  0  0  0  0  0  0  0  0
    3.6047    3.9538   -1.9691 H   0  0  0  0  0  0  0  0  0  0  0  0
    5.2595    3.4029   -1.9036 H   0  0  0  0  0  0  0  0  0  0  0  0
    1.9262    0.3723   -0.5765 H   0  0  0  0  0  0  0  0  0  0  0  0
    0.7619   -0.2148    1.4839 H   0  0  0  0  0  0  0  0  0  0  0  0
   -3.9506   -3.9145    0.8874 H   0  0  0  0  0  0  0  0  0  0  0  0
  1  2  1  0
  2  3  1  0
  3  4  2  0
  4  5  1  0
  5  6  2  0
  6  7  1  0
  7  8  1  0
  8  9  1  0
  9 10  1  0
 10 11  2  0
 11 12  1  0
 12 13  1  0
 13 14  1  0
 12 15  2  0
 15 16  1  0
 16 17  1  0
 15 18  1  0
 18 19  2  0
 19 20  1  0
 20 21  1  0
 21 22  2  0
 22 23  1  0
 23 24  2  0
 24 25  1  0
 25 26  1  0
 26 27  1  0
 27 28  1  0
 28 29  1  0
 29 30  1  0
 30 31  1  0
 31 32  1  0
 32 33  1  0
 24 34  1  0
 34 35  2  0
  7 36  2  0
 36  3  1  0
 20  8  2  0
 35 21  1  0
 19 10  1  0
 33 28  1  0
  1 37  1  0
  1 38  1  0
  1 39  1  0
  4 40  1  0
  5 41  1  0
  6 42  1  0
 11 43  1  0
 14 44  1  0
 14 45  1  0
 14 46  1  0
 17 47  1  0
 17 48  1  0
 17 49  1  0
 18 50  1  0
 22 51  1  0
 23 52  1  0
 26 53  1  0
 26 54  1  0
 27 55  1  0
 27 56  1  0
 29 57  1  0
 29 58  1  0
 30 59  1  0
 30 60  1  0
 31 61  1  0
 31 62  1  0
 32 63  1  0
 32 64  1  0
 33 65  1  0
 33 66  1  0
 34 67  1  0
 35 68  1  0
 36 69  1  0
M  END
$$$$
