
     RDKit          3D

 38 40  0  0  0  0  0  0  0  0999 V2000
   -0.8665   -0.6441   -1.6733 O   0  0  0  0  0  0  0  0  0  0  0  0
   -0.7102    0.5578   -1.8409 C   0  0  0  0  0  0  0  0  0  0  0  0
   -1.7031    1.6318   -1.4579 C   0  0  0  0  0  0  0  0  0  0  0  0
   -2.3783    1.3686   -0.1336 C   0  0  0  0  0  0  0  0  0  0  0  0
   -1.7910    1.8121    1.0585 C   0  0  0  0  0  0  0  0  0  0  0  0
   -2.4015    1.5540    2.2856 C   0  0  0  0  0  0  0  0  0  0  0  0
   -3.6023    0.8459    2.3348 C   0  0  0  0  0  0  0  0  0  0  0  0
   -4.2076    0.3893    1.1550 C   0  0  0  0  0  0  0  0  0  0  0  0
   -5.4923   -0.4006    1.2076 C   0  0  0  0  0  0  0  0  0  0  0  0
   -5.2788   -1.7403    1.3227 F   0  0  0  0  0  0  0  0  0  0  0  0
   -6.2878   -0.0569    2.2602 F   0  0  0  0  0  0  0  0  0  0  0  0
   -6.2644   -0.2385    0.0952 F   0  0  0  0  0  0  0  0  0  0  0  0
   -3.5798    0.6477   -0.0749 C   0  0  0  0  0  0  0  0  0  0  0  0
    0.3777    1.1243   -2.4289 O   0  0  0  0  0  0  0  0  0  0  0  0
    1.4302    0.2158   -2.7646 C   0  0  0  0  0  0  0  0  0  0  0  0
    2.1179   -0.2518   -1.5885 N   0  0  0  0  0  0  0  0  0  0  0  0
    2.5663    0.5482   -0.5779 C   0  0  0  0  0  0  0  0  0  0  0  0
    2.4306    1.7458   -0.4171 O   0  0  0  0  0  0  0  0  0  0  0  0
    3.3077   -0.3178    0.3374 C   0  0  0  0  0  0  0  0  0  0  0  0
    3.9341   -0.0300    1.5341 C   0  0  0  0  0  0  0  0  0  0  0  0
    4.5888   -1.0832    2.1810 C   0  0  0  0  0  0  0  0  0  0  0  0
    4.6024   -2.3790    1.6228 C   0  0  0  0  0  0  0  0  0  0  0  0
    3.9635   -2.6436    0.4073 C   0  0  0  0  0  0  0  0  0  0  0  0
    3.3225   -1.5877   -0.2099 C   0  0  0  0  0  0  0  0  0  0  0  0
    2.6003   -1.5266   -1.4782 C   0  0  0  0  0  0  0  0  0  0  0  0
    2.5341   -2.4473   -2.2698 O   0  0  0  0  0  0  0  0  0  0  0  0
   -2.4450    1.7118   -2.2598 H   0  0  0  0  0  0  0  0  0  0  0  0
   -1.1941    2.6013   -1.4055 H   0  0  0  0  0  0  0  0  0  0  0  0
   -0.8500    2.3601    1.0393 H   0  0  0  0  0  0  0  0  0  0  0  0
   -1.9379    1.9029    3.2050 H   0  0  0  0  0  0  0  0  0  0  0  0
   -4.0658    0.6477    3.3003 H   0  0  0  0  0  0  0  0  0  0  0  0
   -4.0316    0.2755   -0.9945 H   0  0  0  0  0  0  0  0  0  0  0  0
    1.0527   -0.6164   -3.3710 H   0  0  0  0  0  0  0  0  0  0  0  0
    2.1536    0.7710   -3.3719 H   0  0  0  0  0  0  0  0  0  0  0  0
    3.9187    0.9717    1.9501 H   0  0  0  0  0  0  0  0  0  0  0  0
    5.0976   -0.9028    3.1267 H   0  0  0  0  0  0  0  0  0  0  0  0
    5.1197   -3.1820    2.1453 H   0  0  0  0  0  0  0  0  0  0  0  0
    3.9697   -3.6343   -0.0361 H   0  0  0  0  0  0  0  0  0  0  0  0
  1  2  2  0
  2  3  1  0
  3  4  1  0
  4  5  2  0
  5  6  1  0
  6  7  2  0
  7  8  1  0
  8  9  1  0
  9 10  1  0
  9 11  1  0
  9 12  1  0
  8 13  2  0
  2 14  1  0
 14 15  1  0
 15 16  1  0
 16 17  1  0
 17 18  2  0
 17 19  1  0
 19 20  2  0
 20 21  1  0
 21 22  2  0
 22 23  1  0
 23 24  2  0
 24 25  1  0
 25 26  2  0
 13  4  1  0
 25 16  1  0
 24 19  1  0
  3 27  1  0
  3 28  1  0
  5 29  1  0
  6 30  1  0
  7 31  1  0
 13 32  1  0
 15 33  1  0
 15 34  1  0
 20 35  1  0
 21 36  1  0
 22 37  1  0
 23 38  1  0
M  END
$$$$
