
     RDKit          3D

 61 63  0  0  0  0  0  0  0  0999 V2000
   -6.4022   -2.8545    2.3422 C   0  0  0  0  0  0  0  0  0  0  0  0
   -4.9822   -3.3916    2.3990 C   0  0  0  0  0  0  0  0  0  0  0  0
   -3.8858   -2.3852    2.0206 C   0  0  0  0  0  0  0  0  0  0  0  0
   -3.9448   -1.9857    0.6113 N   0  0  0  0  0  0  0  0  0  0  0  0
   -4.6282   -0.7026    0.3953 C   0  0  0  0  0  0  0  0  0  0  0  0
   -5.0779   -0.4355   -1.0487 C   0  0  0  0  0  0  0  0  0  0  0  0
   -5.9929   -1.5160   -1.6050 C   0  0  0  0  0  0  0  0  0  0  0  0
   -2.6698   -2.1511   -0.1147 C   0  0  0  0  0  0  0  0  0  0  0  0
   -1.3555   -1.5945    0.4838 C   0  0  0  0  0  0  0  0  0  0  0  0
   -1.4416   -0.1840    0.8623 N   0  0  0  0  0  0  0  0  0  0  0  0
   -1.1311    1.0110   -0.2629 S   0  0  0  0  0  6  0  0  0  0  0  0
   -1.6744    2.2350    0.2826 O   0  0  0  0  0  0  0  0  0  0  0  0
   -1.5061    0.5231   -1.5706 O   0  0  0  0  0  0  0  0  0  0  0  0
    0.6382    1.1346   -0.1887 C   0  0  0  0  0  0  0  0  0  0  0  0
    1.4186    0.6822   -1.2635 C   0  0  0  0  0  0  0  0  0  0  0  0
    2.8151    0.8031   -1.2247 C   0  0  0  0  0  0  0  0  0  0  0  0
    3.4099    1.3868   -0.1185 C   0  0  0  0  0  0  0  0  0  0  0  0
    2.6159    1.8167    0.9544 C   0  0  0  0  0  0  0  0  0  0  0  0
    1.2314    1.7145    0.9340 C   0  0  0  0  0  0  0  0  0  0  0  0
    3.4456    2.4191    2.0438 C   0  0  0  0  0  0  0  0  0  0  0  0
    4.8578    2.0638    1.5815 C   0  0  0  0  0  0  0  0  0  0  0  0
    4.7627    1.6238    0.1809 N   0  0  0  0  0  0  0  0  0  0  0  0
    5.9306    1.4665   -0.5580 C   0  0  0  0  0  0  0  0  0  0  0  0
    7.0269    1.5713    0.0168 O   0  0  0  0  0  0  0  0  0  0  0  0
    5.8575    1.2237   -2.0826 C   0  0  0  0  0  0  0  0  0  0  0  0
    7.1844    1.4121   -2.8871 C   0  0  0  0  0  0  0  0  0  0  0  0
    6.3368    1.9766   -4.0392 C   0  0  0  0  0  0  0  0  0  0  0  0
    5.2905    2.3661   -2.9803 C   0  0  0  0  0  0  0  0  0  0  0  0
   -6.4991   -1.9335    2.9260 H   0  0  0  0  0  0  0  0  0  0  0  0
   -6.7136   -2.6560    1.3131 H   0  0  0  0  0  0  0  0  0  0  0  0
   -7.0984   -3.5912    2.7575 H   0  0  0  0  0  0  0  0  0  0  0  0
   -4.9068   -4.2783    1.7576 H   0  0  0  0  0  0  0  0  0  0  0  0
   -4.7878   -3.7344    3.4230 H   0  0  0  0  0  0  0  0  0  0  0  0
   -2.9405   -2.8955    2.2395 H   0  0  0  0  0  0  0  0  0  0  0  0
   -3.9140   -1.5145    2.6878 H   0  0  0  0  0  0  0  0  0  0  0  0
   -5.5323   -0.6619    1.0132 H   0  0  0  0  0  0  0  0  0  0  0  0
   -4.0166    0.1376    0.7342 H   0  0  0  0  0  0  0  0  0  0  0  0
   -5.6168    0.5200   -1.0681 H   0  0  0  0  0  0  0  0  0  0  0  0
   -4.2169   -0.3083   -1.7126 H   0  0  0  0  0  0  0  0  0  0  0  0
   -6.8843   -1.6337   -0.9804 H   0  0  0  0  0  0  0  0  0  0  0  0
   -6.3217   -1.2475   -2.6136 H   0  0  0  0  0  0  0  0  0  0  0  0
   -5.4827   -2.4820   -1.6664 H   0  0  0  0  0  0  0  0  0  0  0  0
   -2.7717   -1.7897   -1.1428 H   0  0  0  0  0  0  0  0  0  0  0  0
   -2.5195   -3.2332   -0.2342 H   0  0  0  0  0  0  0  0  0  0  0  0
   -0.5363   -1.7493   -0.2277 H   0  0  0  0  0  0  0  0  0  0  0  0
   -1.0774   -2.1599    1.3800 H   0  0  0  0  0  0  0  0  0  0  0  0
   -2.0964    0.0802    1.5951 H   0  0  0  0  0  0  0  0  0  0  0  0
    0.9471    0.2346   -2.1371 H   0  0  0  0  0  0  0  0  0  0  0  0
    3.3766    0.4169   -2.0626 H   0  0  0  0  0  0  0  0  0  0  0  0
    0.6302    2.0797    1.7617 H   0  0  0  0  0  0  0  0  0  0  0  0
    3.2239    1.9918    3.0258 H   0  0  0  0  0  0  0  0  0  0  0  0
    3.3020    3.5041    2.0699 H   0  0  0  0  0  0  0  0  0  0  0  0
    5.2697    1.2317    2.1669 H   0  0  0  0  0  0  0  0  0  0  0  0
    5.5433    2.9144    1.6724 H   0  0  0  0  0  0  0  0  0  0  0  0
    5.4430    0.2324   -2.3101 H   0  0  0  0  0  0  0  0  0  0  0  0
    7.7337    0.4940   -3.1158 H   0  0  0  0  0  0  0  0  0  0  0  0
    7.8800    2.1443   -2.4592 H   0  0  0  0  0  0  0  0  0  0  0  0
    5.9881    1.2142   -4.7460 H   0  0  0  0  0  0  0  0  0  0  0  0
    6.7804    2.8057   -4.5974 H   0  0  0  0  0  0  0  0  0  0  0  0
    4.2533    2.2656   -3.3082 H   0  0  0  0  0  0  0  0  0  0  0  0
    5.4319    3.3726   -2.5664 H   0  0  0  0  0  0  0  0  0  0  0  0
  1  2  1  0
  2  3  1  0
  3  4  1  0
  4  5  1  0
  5  6  1  0
  6  7  1  0
  4  8  1  0
  8  9  1  0
  9 10  1  0
 10 11  1  0
 11 12  2  0
 11 13  2  0
 11 14  1  0
 14 15  2  0
 15 16  1  0
 16 17  2  0
 17 18  1  0
 18 19  2  0
 18 20  1  0
 20 21  1  0
 21 22  1  0
 22 23  1  0
 23 24  2  0
 23 25  1  0
 25 26  1  0
 26 27  1  0
 27 28  1  0
 19 14  1  0
 28 25  1  0
 22 17  1  0
  1 29  1  0
  1 30  1  0
  1 31  1  0
  2 32  1  0
  2 33  1  0
  3 34  1  0
  3 35  1  0
  5 36  1  0
  5 37  1  0
  6 38  1  0
  6 39  1  0
  7 40  1  0
  7 41  1  0
  7 42  1  0
  8 43  1  0
  8 44  1  0
  9 45  1  0
  9 46  1  0
 10 47  1  0
 15 48  1  0
 16 49  1  0
 19 50  1  0
 20 51  1  0
 20 52  1  0
 21 53  1  0
 21 54  1  0
 25 55  1  0
 26 56  1  0
 26 57  1  0
 27 58  1  0
 27 59  1  0
 28 60  1  0
 28 61  1  0
M  END
$$$$
