
     RDKit          3D

 47 49  0  0  0  0  0  0  0  0999 V2000
    0.7787    2.0498   -2.4339 O   0  0  0  0  0  0  0  0  0  0  0  0
    0.6842    1.5000   -1.3424 C   0  0  0  0  0  0  0  0  0  0  0  0
    1.4651    1.9726   -0.1290 C   0  0  0  0  0  0  0  0  0  0  0  0
    2.3256    3.1831   -0.4686 C   0  0  0  0  0  0  0  0  0  0  0  0
    3.2300    3.7994    0.9986 S   0  0  0  0  0  0  0  0  0  0  0  0
    4.4152    2.4867    1.2329 C   0  0  0  0  0  0  0  0  0  0  0  0
    5.3272    2.1355    0.2329 C   0  0  0  0  0  0  0  0  0  0  0  0
    6.2444    1.1040    0.4463 C   0  0  0  0  0  0  0  0  0  0  0  0
    6.2609    0.4247    1.6631 C   0  0  0  0  0  0  0  0  0  0  0  0
    5.3659    0.7805    2.6701 C   0  0  0  0  0  0  0  0  0  0  0  0
    4.4489    1.8120    2.4572 C   0  0  0  0  0  0  0  0  0  0  0  0
   -0.1180    0.4168   -1.0364 N   0  0  0  0  0  0  0  0  0  0  0  0
   -0.9322   -0.3515   -1.9057 C   0  0  0  0  0  0  0  0  0  0  0  0
   -0.9552   -0.1521   -3.2901 C   0  0  0  0  0  0  0  0  0  0  0  0
   -1.7204   -0.9781   -4.1213 C   0  0  0  0  0  0  0  0  0  0  0  0
   -2.4660   -2.0231   -3.5839 C   0  0  0  0  0  0  0  0  0  0  0  0
   -2.4699   -2.2297   -2.2067 C   0  0  0  0  0  0  0  0  0  0  0  0
   -1.7361   -1.3796   -1.3647 C   0  0  0  0  0  0  0  0  0  0  0  0
   -1.7863   -1.5926    0.1065 C   0  0  0  0  0  0  0  0  0  0  0  0
   -0.7272   -1.5697    0.7339 O   0  0  0  0  0  0  0  0  0  0  0  0
   -3.0136   -1.7492    0.7277 N   0  0  0  0  0  0  0  0  0  0  0  0
   -4.3235   -1.4026    0.1860 C   0  0  0  0  0  0  0  0  0  0  0  0
   -5.1883   -1.1479    1.4147 C   0  0  0  0  0  0  0  0  0  0  0  0
   -4.5687   -2.0637    2.4620 C   0  0  0  0  0  0  0  0  0  0  0  0
   -3.0824   -1.9425    2.1665 C   0  0  0  0  0  0  0  0  0  0  0  0
    2.0848    1.1358    0.2134 H   0  0  0  0  0  0  0  0  0  0  0  0
    0.7472    2.2236    0.6614 H   0  0  0  0  0  0  0  0  0  0  0  0
    3.0266    2.9609   -1.2797 H   0  0  0  0  0  0  0  0  0  0  0  0
    1.6896    4.0038   -0.8193 H   0  0  0  0  0  0  0  0  0  0  0  0
    5.3417    2.6657   -0.7157 H   0  0  0  0  0  0  0  0  0  0  0  0
    6.9493    0.8351   -0.3362 H   0  0  0  0  0  0  0  0  0  0  0  0
    6.9759   -0.3770    1.8292 H   0  0  0  0  0  0  0  0  0  0  0  0
    5.3824    0.2574    3.6227 H   0  0  0  0  0  0  0  0  0  0  0  0
    3.7599    2.0820    3.2538 H   0  0  0  0  0  0  0  0  0  0  0  0
   -0.0747    0.0668   -0.0770 H   0  0  0  0  0  0  0  0  0  0  0  0
   -0.3672    0.6282   -3.7635 H   0  0  0  0  0  0  0  0  0  0  0  0
   -1.7126   -0.8112   -5.1962 H   0  0  0  0  0  0  0  0  0  0  0  0
   -3.0367   -2.6775   -4.2379 H   0  0  0  0  0  0  0  0  0  0  0  0
   -3.0327   -3.0630   -1.7952 H   0  0  0  0  0  0  0  0  0  0  0  0
   -4.2684   -0.5324   -0.4737 H   0  0  0  0  0  0  0  0  0  0  0  0
   -4.7003   -2.2662   -0.3709 H   0  0  0  0  0  0  0  0  0  0  0  0
   -5.0900   -0.1028    1.7322 H   0  0  0  0  0  0  0  0  0  0  0  0
   -6.2468   -1.3539    1.2354 H   0  0  0  0  0  0  0  0  0  0  0  0
   -4.9041   -3.0950    2.2992 H   0  0  0  0  0  0  0  0  0  0  0  0
   -4.8208   -1.7758    3.4861 H   0  0  0  0  0  0  0  0  0  0  0  0
   -2.6505   -1.0603    2.6532 H   0  0  0  0  0  0  0  0  0  0  0  0
   -2.5110   -2.8270    2.4631 H   0  0  0  0  0  0  0  0  0  0  0  0
  1  2  2  0
  2  3  1  0
  3  4  1  0
  4  5  1  0
  5  6  1  0
  6  7  2  0
  7  8  1  0
  8  9  2  0
  9 10  1  0
 10 11  2  0
  2 12  1  0
 12 13  1  0
 13 14  2  0
 14 15  1  0
 15 16  2  0
 16 17  1  0
 17 18  2  0
 18 19  1  0
 19 20  2  0
 19 21  1  0
 21 22  1  0
 22 23  1  0
 23 24  1  0
 24 25  1  0
 11  6  1  0
 18 13  1  0
 25 21  1  0
  3 26  1  0
  3 27  1  0
  4 28  1  0
  4 29  1  0
  7 30  1  0
  8 31  1  0
  9 32  1  0
 10 33  1  0
 11 34  1  0
 12 35  1  0
 14 36  1  0
 15 37  1  0
 16 38  1  0
 17 39  1  0
 22 40  1  0
 22 41  1  0
 23 42  1  0
 23 43  1  0
 24 44  1  0
 24 45  1  0
 25 46  1  0
 25 47  1  0
M  END
$$$$
