
     RDKit          3D

 41 42  0  0  0  0  0  0  0  0999 V2000
   -4.4120   -0.1812   -2.2886 C   0  0  0  0  0  0  0  0  0  0  0  0
   -3.4649   -0.8107   -1.4337 O   0  0  0  0  0  0  0  0  0  0  0  0
   -3.3205   -2.1692   -1.5541 C   0  0  0  0  0  0  0  0  0  0  0  0
   -3.8581   -2.9357   -2.5936 C   0  0  0  0  0  0  0  0  0  0  0  0
   -3.6312   -4.3132   -2.6478 C   0  0  0  0  0  0  0  0  0  0  0  0
   -2.8608   -4.9343   -1.6699 C   0  0  0  0  0  0  0  0  0  0  0  0
   -2.3180   -4.1794   -0.6320 C   0  0  0  0  0  0  0  0  0  0  0  0
   -2.5468   -2.7950   -0.5574 C   0  0  0  0  0  0  0  0  0  0  0  0
   -1.9412   -2.0081    0.5783 C   0  0  0  0  0  0  0  0  0  0  0  0
   -0.8116   -1.2286    0.1251 N   0  0  0  0  0  0  0  0  0  0  0  0
    0.0374   -0.6357    1.0432 C   0  0  0  0  0  0  0  0  0  0  0  0
   -0.0324   -0.8600    2.2476 O   0  0  0  0  0  0  0  0  0  0  0  0
    1.0721    0.2889    0.3921 C   0  0  0  0  0  0  0  0  0  0  0  0
    1.7679    1.0638    1.3529 O   0  0  0  0  0  0  0  0  0  0  0  0
    2.6947    1.9686    0.8956 C   0  0  0  0  0  0  0  0  0  0  0  0
    3.0890    2.0915   -0.4422 C   0  0  0  0  0  0  0  0  0  0  0  0
    4.0453    3.0394   -0.8124 C   0  0  0  0  0  0  0  0  0  0  0  0
    4.6141    3.8686    0.1490 C   0  0  0  0  0  0  0  0  0  0  0  0
    4.2314    3.7536    1.4866 C   0  0  0  0  0  0  0  0  0  0  0  0
    3.2752    2.8062    1.8704 C   0  0  0  0  0  0  0  0  0  0  0  0
    2.8359    2.6264    3.1582 O   0  0  0  0  0  0  0  0  0  0  0  0
    3.4484    3.3989    4.1795 C   0  0  0  0  0  0  0  0  0  0  0  0
   -5.4065   -0.6265   -2.1789 H   0  0  0  0  0  0  0  0  0  0  0  0
   -4.0770   -0.2089   -3.3305 H   0  0  0  0  0  0  0  0  0  0  0  0
   -4.4831    0.8693   -1.9907 H   0  0  0  0  0  0  0  0  0  0  0  0
   -4.4521   -2.4911   -3.3850 H   0  0  0  0  0  0  0  0  0  0  0  0
   -4.0528   -4.9008   -3.4595 H   0  0  0  0  0  0  0  0  0  0  0  0
   -2.6801   -6.0053   -1.7155 H   0  0  0  0  0  0  0  0  0  0  0  0
   -1.7121   -4.6756    0.1239 H   0  0  0  0  0  0  0  0  0  0  0  0
   -1.6165   -2.6735    1.3872 H   0  0  0  0  0  0  0  0  0  0  0  0
   -2.6819   -1.3268    1.0138 H   0  0  0  0  0  0  0  0  0  0  0  0
   -0.9188   -0.7903   -0.7802 H   0  0  0  0  0  0  0  0  0  0  0  0
    1.7719   -0.3573   -0.1516 H   0  0  0  0  0  0  0  0  0  0  0  0
    0.5379    0.9483   -0.3030 H   0  0  0  0  0  0  0  0  0  0  0  0
    2.6770    1.4613   -1.2223 H   0  0  0  0  0  0  0  0  0  0  0  0
    4.3475    3.1281   -1.8529 H   0  0  0  0  0  0  0  0  0  0  0  0
    5.3582    4.6063   -0.1404 H   0  0  0  0  0  0  0  0  0  0  0  0
    4.6961    4.4190    2.2059 H   0  0  0  0  0  0  0  0  0  0  0  0
    3.2479    4.4662    4.0399 H   0  0  0  0  0  0  0  0  0  0  0  0
    3.0066    3.1009    5.1352 H   0  0  0  0  0  0  0  0  0  0  0  0
    4.5240    3.2017    4.2351 H   0  0  0  0  0  0  0  0  0  0  0  0
  1  2  1  0
  2  3  1  0
  3  4  2  0
  4  5  1  0
  5  6  2  0
  6  7  1  0
  7  8  2  0
  8  9  1  0
  9 10  1  0
 10 11  1  0
 11 12  2  0
 11 13  1  0
 13 14  1  0
 14 15  1  0
 15 16  2  0
 16 17  1  0
 17 18  2  0
 18 19  1  0
 19 20  2  0
 20 21  1  0
 21 22  1  0
  8  3  1  0
 20 15  1  0
  1 23  1  0
  1 24  1  0
  1 25  1  0
  4 26  1  0
  5 27  1  0
  6 28  1  0
  7 29  1  0
  9 30  1  0
  9 31  1  0
 10 32  1  0
 13 33  1  0
 13 34  1  0
 16 35  1  0
 17 36  1  0
 18 37  1  0
 19 38  1  0
 22 39  1  0
 22 40  1  0
 22 41  1  0
M  END
$$$$
