
     RDKit          3D

 46 49  0  0  0  0  0  0  0  0999 V2000
   -2.8384    1.1528    0.5592 O   0  0  0  0  0  0  0  0  0  0  0  0
   -3.2413    0.2211   -0.1278 C   0  0  0  0  0  0  0  0  0  0  0  0
   -2.4465   -0.6775   -0.8148 N   0  0  0  0  0  0  0  0  0  0  0  0
   -1.0367   -0.7139   -0.8732 C   0  0  0  0  0  0  0  0  0  0  0  0
   -0.4631   -1.7324   -1.6465 C   0  0  0  0  0  0  0  0  0  0  0  0
    0.9260   -1.8462   -1.7641 C   0  0  0  0  0  0  0  0  0  0  0  0
    1.7679   -0.9458   -1.1145 C   0  0  0  0  0  0  0  0  0  0  0  0
    3.1510   -1.0985   -1.2546 N   0  0  0  0  0  0  0  0  0  0  0  0
    3.9262   -0.2415   -0.6721 C   0  0  0  0  0  0  0  0  0  0  0  0
    3.4685    0.8214    0.0854 N   0  0  0  0  0  0  0  0  0  0  0  0
    2.1103    1.0043    0.3294 C   0  0  0  0  0  0  0  0  0  0  0  0
    1.6571    1.8763    1.0653 O   0  0  0  0  0  0  0  0  0  0  0  0
    1.1965    0.0651   -0.3471 C   0  0  0  0  0  0  0  0  0  0  0  0
   -0.1962    0.1880   -0.2200 C   0  0  0  0  0  0  0  0  0  0  0  0
    4.4081    1.7234    0.7428 C   0  0  0  0  0  0  0  0  0  0  0  0
    5.0816    1.0804    1.9547 C   0  0  0  0  0  0  0  0  0  0  0  0
    5.4472   -0.3960    1.7947 C   0  0  0  0  0  0  0  0  0  0  0  0
    6.1535   -0.7632    0.4900 C   0  0  0  0  0  0  0  0  0  0  0  0
    5.4285   -0.4180   -0.8135 C   0  0  0  0  0  0  0  0  0  0  0  0
   -4.7216    0.0338   -0.2362 C   0  0  0  0  0  0  0  0  0  0  0  0
   -5.5586    0.9284    0.4556 C   0  0  0  0  0  0  0  0  0  0  0  0
   -6.9523    0.7868    0.3809 C   0  0  0  0  0  0  0  0  0  0  0  0
   -7.8233    1.7243    1.1040 N   0  0  0  0  0  4  0  0  0  0  0  0
   -9.0462    1.5371    1.0362 O   0  0  0  0  0  0  0  0  0  0  0  0
   -7.2848    2.6430    1.7348 O   0  0  0  0  0  1  0  0  0  0  0  0
   -7.5247   -0.2420   -0.3798 C   0  0  0  0  0  0  0  0  0  0  0  0
   -6.6949   -1.1288   -1.0662 C   0  0  0  0  0  0  0  0  0  0  0  0
   -5.3086   -0.9871   -0.9912 C   0  0  0  0  0  0  0  0  0  0  0  0
   -4.5549   -1.8660   -1.6694 F   0  0  0  0  0  0  0  0  0  0  0  0
   -2.9198   -1.4026   -1.3440 H   0  0  0  0  0  0  0  0  0  0  0  0
   -1.0856   -2.4543   -2.1697 H   0  0  0  0  0  0  0  0  0  0  0  0
    1.3571   -2.6423   -2.3662 H   0  0  0  0  0  0  0  0  0  0  0  0
   -0.5881    0.9948    0.3919 H   0  0  0  0  0  0  0  0  0  0  0  0
    5.1666    2.0365    0.0180 H   0  0  0  0  0  0  0  0  0  0  0  0
    3.9054    2.6450    1.0579 H   0  0  0  0  0  0  0  0  0  0  0  0
    5.9791    1.6588    2.2047 H   0  0  0  0  0  0  0  0  0  0  0  0
    4.4116    1.1659    2.8197 H   0  0  0  0  0  0  0  0  0  0  0  0
    4.5398   -1.0056    1.8951 H   0  0  0  0  0  0  0  0  0  0  0  0
    6.0881   -0.6875    2.6362 H   0  0  0  0  0  0  0  0  0  0  0  0
    6.3294   -1.8468    0.5050 H   0  0  0  0  0  0  0  0  0  0  0  0
    7.1492   -0.3027    0.4711 H   0  0  0  0  0  0  0  0  0  0  0  0
    5.6278   -1.2051   -1.5516 H   0  0  0  0  0  0  0  0  0  0  0  0
    5.8490    0.4956   -1.2484 H   0  0  0  0  0  0  0  0  0  0  0  0
   -5.1152    1.7294    1.0481 H   0  0  0  0  0  0  0  0  0  0  0  0
   -8.6047   -0.3637   -0.4473 H   0  0  0  0  0  0  0  0  0  0  0  0
   -7.1203   -1.9321   -1.6623 H   0  0  0  0  0  0  0  0  0  0  0  0
  1  2  2  0
  2  3  1  0
  3  4  1  0
  4  5  2  0
  5  6  1  0
  6  7  2  0
  7  8  1  0
  8  9  2  0
  9 10  1  0
 10 11  1  0
 11 12  2  0
 11 13  1  0
 13 14  2  0
 10 15  1  0
 15 16  1  0
 16 17  1  0
 17 18  1  0
 18 19  1  0
  2 20  1  0
 20 21  2  0
 21 22  1  0
 22 23  1  0
 23 24  2  0
 23 25  1  0
 22 26  2  0
 26 27  1  0
 27 28  2  0
 28 29  1  0
 14  4  1  0
 28 20  1  0
 13  7  1  0
 19  9  1  0
  3 30  1  0
  5 31  1  0
  6 32  1  0
 14 33  1  0
 15 34  1  0
 15 35  1  0
 16 36  1  0
 16 37  1  0
 17 38  1  0
 17 39  1  0
 18 40  1  0
 18 41  1  0
 19 42  1  0
 19 43  1  0
 21 44  1  0
 26 45  1  0
 27 46  1  0
M  CHG  2  23   1  25  -1
M  END
$$$$
