
     RDKit          3D

 40 41  0  0  0  0  0  0  0  0999 V2000
   -1.6495    0.7930    2.7334 C   0  0  0  0  0  0  0  0  0  0  0  0
   -2.7217    0.9960    1.7242 C   0  0  0  0  0  0  0  0  0  0  0  0
   -3.8013    1.7210    2.0389 N   0  0  0  0  0  0  0  0  0  0  0  0
   -4.5527    1.7003    0.9295 N   0  0  0  0  0  0  0  0  0  0  0  0
   -5.8175    2.3993    0.9300 C   0  0  0  0  0  0  0  0  0  0  0  0
   -3.9885    0.9963   -0.1050 C   0  0  0  0  0  0  0  0  0  0  0  0
   -4.6471    0.8600   -1.4294 C   0  0  0  0  0  0  0  0  0  0  0  0
   -2.7853    0.5083    0.3882 C   0  0  0  0  0  0  0  0  0  0  0  0
   -1.8383   -0.3102   -0.3350 C   0  0  0  0  0  0  0  0  0  0  0  0
   -0.7471   -0.6890    0.2452 N   0  0  0  0  0  0  0  0  0  0  0  0
    0.0959   -1.4598   -0.4999 N   0  0  0  0  0  0  0  0  0  0  0  0
    1.3108   -1.8568    0.0393 C   0  0  0  0  0  0  0  0  0  0  0  0
    1.7056   -1.5975    1.1725 O   0  0  0  0  0  0  0  0  0  0  0  0
    2.1106   -2.7186   -0.9123 C   0  0  0  0  0  0  0  0  0  0  0  0
    3.5891   -2.7093   -0.5485 C   0  0  0  0  0  0  0  0  0  0  0  0
    4.2095   -1.4187   -0.7980 N   0  0  0  0  0  0  0  0  0  0  0  0
    4.7429   -0.5686    0.1266 C   0  0  0  0  0  0  0  0  0  0  0  0
    5.2136    0.5132   -0.5878 C   0  0  0  0  0  0  0  0  0  0  0  0
    5.8611    1.6775   -0.0733 N   0  0  0  0  0  4  0  0  0  0  0  0
    6.1622    2.5537   -0.8941 O   0  0  0  0  0  0  0  0  0  0  0  0
    6.0789    1.7158    1.1439 O   0  0  0  0  0  1  0  0  0  0  0  0
    4.9169    0.2195   -1.9302 C   0  0  0  0  0  0  0  0  0  0  0  0
    4.3036   -0.9624   -2.0661 N   0  0  0  0  0  0  0  0  0  0  0  0
   -1.8871    1.2970    3.6764 H   0  0  0  0  0  0  0  0  0  0  0  0
   -0.6990    1.1967    2.3706 H   0  0  0  0  0  0  0  0  0  0  0  0
   -1.5212   -0.2725    2.9486 H   0  0  0  0  0  0  0  0  0  0  0  0
   -6.5793    1.7498    0.4921 H   0  0  0  0  0  0  0  0  0  0  0  0
   -6.0969    2.6471    1.9575 H   0  0  0  0  0  0  0  0  0  0  0  0
   -5.7016    3.3124    0.3413 H   0  0  0  0  0  0  0  0  0  0  0  0
   -5.4925    0.1678   -1.3641 H   0  0  0  0  0  0  0  0  0  0  0  0
   -5.0164    1.8271   -1.7856 H   0  0  0  0  0  0  0  0  0  0  0  0
   -3.9559    0.4781   -2.1861 H   0  0  0  0  0  0  0  0  0  0  0  0
   -2.0815   -0.5910   -1.3734 H   0  0  0  0  0  0  0  0  0  0  0  0
   -0.1416   -1.6779   -1.4615 H   0  0  0  0  0  0  0  0  0  0  0  0
    1.7212   -3.7401   -0.8344 H   0  0  0  0  0  0  0  0  0  0  0  0
    1.9585   -2.3773   -1.9426 H   0  0  0  0  0  0  0  0  0  0  0  0
    3.7559   -2.9681    0.5030 H   0  0  0  0  0  0  0  0  0  0  0  0
    4.1342   -3.4379   -1.1598 H   0  0  0  0  0  0  0  0  0  0  0  0
    4.7303   -0.7875    1.1866 H   0  0  0  0  0  0  0  0  0  0  0  0
    5.1212    0.8133   -2.8128 H   0  0  0  0  0  0  0  0  0  0  0  0
  1  2  1  0
  2  3  2  0
  3  4  1  0
  4  5  1  0
  4  6  1  0
  6  7  1  0
  6  8  2  0
  8  9  1  0
  9 10  2  3
 10 11  1  0
 11 12  1  0
 12 13  2  0
 12 14  1  0
 14 15  1  0
 15 16  1  0
 16 17  1  0
 17 18  2  0
 18 19  1  0
 19 20  2  0
 19 21  1  0
 18 22  1  0
 22 23  2  0
  8  2  1  0
 23 16  1  0
  1 24  1  0
  1 25  1  0
  1 26  1  0
  5 27  1  0
  5 28  1  0
  5 29  1  0
  7 30  1  0
  7 31  1  0
  7 32  1  0
  9 33  1  0
 11 34  1  0
 14 35  1  0
 14 36  1  0
 15 37  1  0
 15 38  1  0
 17 39  1  0
 22 40  1  0
M  CHG  2  19   1  21  -1
M  END
$$$$
