
     RDKit          3D

 52 53  0  0  0  0  0  0  0  0999 V2000
    5.6076    1.2633    0.7891 C   0  0  0  0  0  0  0  0  0  0  0  0
    4.8853    0.2429   -0.1190 C   0  0  0  0  0  0  0  0  0  0  0  0
    5.2119    0.6201   -1.5803 C   0  0  0  0  0  0  0  0  0  0  0  0
    5.4741   -1.1513    0.1686 C   0  0  0  0  0  0  0  0  0  0  0  0
    3.3337    0.3051    0.1276 C   0  0  0  0  0  0  0  0  0  0  0  0
    2.8990   -0.1164    1.5435 C   0  0  0  0  0  0  0  0  0  0  0  0
    1.4184    0.1788    1.8093 C   0  0  0  0  0  0  0  0  0  0  0  0
    0.5504    0.1715    0.5463 C   0  0  0  0  0  0  0  0  0  0  0  0
   -0.7913   -0.1842    0.9410 O   0  0  0  0  0  0  0  0  0  0  0  0
   -1.7927    0.2172    0.1141 C   0  0  0  0  0  0  0  0  0  0  0  0
   -1.6554    0.8472   -0.9258 O   0  0  0  0  0  0  0  0  0  0  0  0
   -3.1372   -0.2557    0.6660 C   0  0  0  0  0  0  0  0  0  0  0  0
   -4.4082    0.2602   -0.0908 N   0  0  0  0  0  4  0  0  0  0  0  0
   -4.5206    1.7728    0.0562 C   0  0  0  0  0  0  0  0  0  0  0  0
   -5.6709   -0.4221    0.4702 C   0  0  0  0  0  0  0  0  0  0  0  0
   -6.1026   -1.3912   -0.6129 C   0  0  0  0  0  0  0  0  0  0  0  0
   -5.7342   -0.6679   -1.8894 C   0  0  0  0  0  0  0  0  0  0  0  0
   -4.3493   -0.1307   -1.5857 C   0  0  0  0  0  0  0  0  0  0  0  0
    1.0895   -0.8342   -0.4654 C   0  0  0  0  0  0  0  0  0  0  0  0
    2.5076   -0.4812   -0.9219 C   0  0  0  0  0  0  0  0  0  0  0  0
    5.1959    2.2701    0.6578 H   0  0  0  0  0  0  0  0  0  0  0  0
    6.6777    1.3117    0.5548 H   0  0  0  0  0  0  0  0  0  0  0  0
    5.5275    1.0001    1.8482 H   0  0  0  0  0  0  0  0  0  0  0  0
    6.2945    0.6850   -1.7403 H   0  0  0  0  0  0  0  0  0  0  0  0
    4.8295   -0.1224   -2.2884 H   0  0  0  0  0  0  0  0  0  0  0  0
    4.7802    1.5927   -1.8417 H   0  0  0  0  0  0  0  0  0  0  0  0
    6.5516   -1.1689   -0.0340 H   0  0  0  0  0  0  0  0  0  0  0  0
    5.3411   -1.4386    1.2167 H   0  0  0  0  0  0  0  0  0  0  0  0
    5.0168   -1.9259   -0.4539 H   0  0  0  0  0  0  0  0  0  0  0  0
    3.0477    1.3623    0.0153 H   0  0  0  0  0  0  0  0  0  0  0  0
    3.4902    0.3830    2.3168 H   0  0  0  0  0  0  0  0  0  0  0  0
    3.0654   -1.1934    1.6710 H   0  0  0  0  0  0  0  0  0  0  0  0
    1.0379   -0.5355    2.5506 H   0  0  0  0  0  0  0  0  0  0  0  0
    1.3214    1.1636    2.2846 H   0  0  0  0  0  0  0  0  0  0  0  0
    0.5517    1.1812    0.1143 H   0  0  0  0  0  0  0  0  0  0  0  0
   -3.2444    0.0828    1.7020 H   0  0  0  0  0  0  0  0  0  0  0  0
   -3.1723   -1.3494    0.6162 H   0  0  0  0  0  0  0  0  0  0  0  0
   -3.6375    2.2471   -0.3763 H   0  0  0  0  0  0  0  0  0  0  0  0
   -4.5986    2.0059    1.1220 H   0  0  0  0  0  0  0  0  0  0  0  0
   -5.4180    2.1050   -0.4745 H   0  0  0  0  0  0  0  0  0  0  0  0
   -6.4329    0.3485    0.6319 H   0  0  0  0  0  0  0  0  0  0  0  0
   -5.4369   -0.9095    1.4214 H   0  0  0  0  0  0  0  0  0  0  0  0
   -7.1697   -1.6239   -0.5561 H   0  0  0  0  0  0  0  0  0  0  0  0
   -5.5441   -2.3310   -0.5288 H   0  0  0  0  0  0  0  0  0  0  0  0
   -6.4322    0.1555   -2.0813 H   0  0  0  0  0  0  0  0  0  0  0  0
   -5.7379   -1.3286   -2.7609 H   0  0  0  0  0  0  0  0  0  0  0  0
   -3.5996   -0.9209   -1.7017 H   0  0  0  0  0  0  0  0  0  0  0  0
   -4.0788    0.7408   -2.1891 H   0  0  0  0  0  0  0  0  0  0  0  0
    1.0853   -1.8358   -0.0144 H   0  0  0  0  0  0  0  0  0  0  0  0
    0.4286   -0.9117   -1.3365 H   0  0  0  0  0  0  0  0  0  0  0  0
    3.0072   -1.4108   -1.2133 H   0  0  0  0  0  0  0  0  0  0  0  0
    2.4375    0.1268   -1.8329 H   0  0  0  0  0  0  0  0  0  0  0  0
  1  2  1  0
  2  3  1  0
  2  4  1  0
  2  5  1  0
  5  6  1  0
  6  7  1  0
  7  8  1  0
  8  9  1  0
  9 10  1  0
 10 11  2  0
 10 12  1  0
 12 13  1  0
 13 14  1  0
 13 15  1  0
 15 16  1  0
 16 17  1  0
 17 18  1  0
  8 19  1  0
 19 20  1  0
 20  5  1  0
 18 13  1  0
  1 21  1  0
  1 22  1  0
  1 23  1  0
  3 24  1  0
  3 25  1  0
  3 26  1  0
  4 27  1  0
  4 28  1  0
  4 29  1  0
  5 30  1  0
  6 31  1  0
  6 32  1  0
  7 33  1  0
  7 34  1  0
  8 35  1  0
 12 36  1  0
 12 37  1  0
 14 38  1  0
 14 39  1  0
 14 40  1  0
 15 41  1  0
 15 42  1  0
 16 43  1  0
 16 44  1  0
 17 45  1  0
 17 46  1  0
 18 47  1  0
 18 48  1  0
 19 49  1  0
 19 50  1  0
 20 51  1  0
 20 52  1  0
M  CHG  1  13   1
M  END
$$$$
