
     RDKit          3D

 46 48  0  0  0  0  0  0  0  0999 V2000
    5.1157    0.7266    2.7058 C   0  0  0  0  0  0  0  0  0  0  0  0
    4.8774    0.1559    1.3141 C   0  0  0  0  0  0  0  0  0  0  0  0
    3.5807    0.7135    0.7067 C   0  0  0  0  0  0  0  0  0  0  0  0
    3.4273    0.2918   -0.6913 N   0  0  0  0  0  0  0  0  0  0  0  0
    2.1869    0.2601   -1.3446 C   0  0  0  0  0  0  0  0  0  0  0  0
    2.0939    0.5418   -2.5413 O   0  0  0  0  0  0  0  0  0  0  0  0
    0.9863   -0.1471   -0.5992 C   0  0  0  0  0  0  0  0  0  0  0  0
   -0.3572    0.1314   -0.9674 C   0  0  0  0  0  0  0  0  0  0  0  0
   -1.1248   -0.4886   -0.0126 C   0  0  0  0  0  0  0  0  0  0  0  0
   -2.5775   -0.6285    0.2411 C   0  0  0  0  0  0  0  0  0  0  0  0
   -3.2450    0.3384   -0.5692 O   0  0  0  0  0  0  0  0  0  0  0  0
   -4.6103    0.3702   -0.5090 C   0  0  0  0  0  0  0  0  0  0  0  0
   -5.2061    1.3079   -1.3554 C   0  0  0  0  0  0  0  0  0  0  0  0
   -6.5931    1.4454   -1.4026 C   0  0  0  0  0  0  0  0  0  0  0  0
   -7.3984    0.6459   -0.5945 C   0  0  0  0  0  0  0  0  0  0  0  0
   -6.8203   -0.2944    0.2703 C   0  0  0  0  0  0  0  0  0  0  0  0
   -7.6833   -1.1785    1.1371 C   0  0  0  0  0  0  0  0  0  0  0  0
   -7.8435   -2.4224    0.6070 F   0  0  0  0  0  0  0  0  0  0  0  0
   -8.9386   -0.6883    1.3335 F   0  0  0  0  0  0  0  0  0  0  0  0
   -7.1591   -1.3677    2.3807 F   0  0  0  0  0  0  0  0  0  0  0  0
   -5.4188   -0.4298    0.3006 C   0  0  0  0  0  0  0  0  0  0  0  0
   -0.3034   -1.1212    0.8666 O   0  0  0  0  0  0  0  0  0  0  0  0
    1.0122   -0.9294    0.4947 N   0  0  0  0  0  0  0  0  0  0  0  0
    4.6054    0.5756   -1.5106 C   0  0  0  0  0  0  0  0  0  0  0  0
    5.9007    0.0645   -0.8575 C   0  0  0  0  0  0  0  0  0  0  0  0
    6.0523   -1.4517   -0.9681 C   0  0  0  0  0  0  0  0  0  0  0  0
    6.0159    0.5056    0.5069 O   0  0  0  0  0  0  0  0  0  0  0  0
    5.2337    1.8153    2.6686 H   0  0  0  0  0  0  0  0  0  0  0  0
    6.0432    0.3251    3.1281 H   0  0  0  0  0  0  0  0  0  0  0  0
    4.2910    0.4849    3.3832 H   0  0  0  0  0  0  0  0  0  0  0  0
    4.8195   -0.9354    1.3945 H   0  0  0  0  0  0  0  0  0  0  0  0
    2.7265    0.4435    1.3264 H   0  0  0  0  0  0  0  0  0  0  0  0
    3.6147    1.8107    0.6853 H   0  0  0  0  0  0  0  0  0  0  0  0
   -0.7028    0.7036   -1.8165 H   0  0  0  0  0  0  0  0  0  0  0  0
   -2.7815   -0.4390    1.3015 H   0  0  0  0  0  0  0  0  0  0  0  0
   -2.8926   -1.6416   -0.0336 H   0  0  0  0  0  0  0  0  0  0  0  0
   -4.5827    1.9387   -1.9866 H   0  0  0  0  0  0  0  0  0  0  0  0
   -7.0425    2.1772   -2.0694 H   0  0  0  0  0  0  0  0  0  0  0  0
   -8.4810    0.7600   -0.6400 H   0  0  0  0  0  0  0  0  0  0  0  0
   -4.9924   -1.1699    0.9724 H   0  0  0  0  0  0  0  0  0  0  0  0
    4.4883    0.1480   -2.5128 H   0  0  0  0  0  0  0  0  0  0  0  0
    4.6522    1.6669   -1.6186 H   0  0  0  0  0  0  0  0  0  0  0  0
    6.7469    0.5127   -1.3907 H   0  0  0  0  0  0  0  0  0  0  0  0
    6.1406   -1.7568   -2.0159 H   0  0  0  0  0  0  0  0  0  0  0  0
    5.1987   -1.9838   -0.5369 H   0  0  0  0  0  0  0  0  0  0  0  0
    6.9448   -1.7872   -0.4298 H   0  0  0  0  0  0  0  0  0  0  0  0
  1  2  1  0
  2  3  1  0
  3  4  1  0
  4  5  1  0
  5  6  2  0
  5  7  1  0
  7  8  1  0
  8  9  2  0
  9 10  1  0
 10 11  1  0
 11 12  1  0
 12 13  2  0
 13 14  1  0
 14 15  2  0
 15 16  1  0
 16 17  1  0
 17 18  1  0
 17 19  1  0
 17 20  1  0
 16 21  2  0
  9 22  1  0
 22 23  1  0
  4 24  1  0
 24 25  1  0
 25 26  1  0
 25 27  1  0
 27  2  1  0
 23  7  2  0
 21 12  1  0
  1 28  1  0
  1 29  1  0
  1 30  1  0
  2 31  1  0
  3 32  1  0
  3 33  1  0
  8 34  1  0
 10 35  1  0
 10 36  1  0
 13 37  1  0
 14 38  1  0
 15 39  1  0
 21 40  1  0
 24 41  1  0
 24 42  1  0
 25 43  1  0
 26 44  1  0
 26 45  1  0
 26 46  1  0
M  END
$$$$
