
     RDKit          3D

 56 59  0  0  0  0  0  0  0  0999 V2000
    7.0045    0.9015   -2.2707 C   0  0  0  0  0  0  0  0  0  0  0  0
    7.2617    0.8569   -0.8699 O   0  0  0  0  0  0  0  0  0  0  0  0
    6.1229    0.6530   -0.1168 C   0  0  0  0  0  0  0  0  0  0  0  0
    6.3017    0.5630    1.2511 C   0  0  0  0  0  0  0  0  0  0  0  0
    5.1798    0.3534    2.0485 C   0  0  0  0  0  0  0  0  0  0  0  0
    3.9112    0.2386    1.4633 C   0  0  0  0  0  0  0  0  0  0  0  0
    2.7506    0.0031    2.3712 C   0  0  0  0  0  0  0  0  0  0  0  0
    2.9340   -0.1075    3.5805 O   0  0  0  0  0  0  0  0  0  0  0  0
    1.4996   -0.0799    1.8114 N   0  0  0  0  0  0  0  0  0  0  0  0
    0.3003   -0.2665    2.6048 C   0  0  0  0  0  0  0  0  0  0  0  0
   -0.1544    1.0652    3.2509 C   0  0  0  0  0  0  0  0  0  0  0  0
   -0.8436    2.0033    2.2382 C   0  0  0  0  0  0  0  0  0  0  0  0
   -2.1080    1.3665    1.6271 C   0  0  0  0  0  0  0  0  0  0  0  0
   -1.8332   -0.0460    1.2363 C   0  0  0  0  0  0  0  0  0  0  0  0
   -0.7493   -0.7820    1.6794 C   0  0  0  0  0  0  0  0  0  0  0  0
   -0.8568   -2.0063    1.0125 C   0  0  0  0  0  0  0  0  0  0  0  0
   -1.8985   -2.0415    0.1832 N   0  0  0  0  0  0  0  0  0  0  0  0
   -2.5279   -0.8408    0.3351 N   0  0  0  0  0  0  0  0  0  0  0  0
   -3.7553   -0.5776   -0.3495 C   0  0  0  0  0  0  0  0  0  0  0  0
   -4.7387    0.1820    0.3074 C   0  0  0  0  0  0  0  0  0  0  0  0
   -5.9766    0.4140   -0.2873 C   0  0  0  0  0  0  0  0  0  0  0  0
   -6.2584   -0.1286   -1.5347 C   0  0  0  0  0  0  0  0  0  0  0  0
   -5.3055   -0.9034   -2.2138 C   0  0  0  0  0  0  0  0  0  0  0  0
   -5.6837   -1.4690   -3.5591 C   0  0  0  0  0  0  0  0  0  0  0  0
   -4.0208   -1.1044   -1.6434 C   0  0  0  0  0  0  0  0  0  0  0  0
   -2.9715   -1.8500   -2.4349 C   0  0  0  0  0  0  0  0  0  0  0  0
    3.8408    0.3435    0.0724 C   0  0  0  0  0  0  0  0  0  0  0  0
    2.6062    0.2392   -0.5427 O   0  0  0  0  0  0  0  0  0  0  0  0
    2.6684    0.2407   -1.9677 C   0  0  0  0  0  0  0  0  0  0  0  0
    4.9212    0.5529   -0.7220 N   0  0  0  0  0  0  0  0  0  0  0  0
    6.5747   -0.0413   -2.6285 H   0  0  0  0  0  0  0  0  0  0  0  0
    6.3548    1.7481   -2.5276 H   0  0  0  0  0  0  0  0  0  0  0  0
    7.9617    1.0480   -2.7826 H   0  0  0  0  0  0  0  0  0  0  0  0
    7.2900    0.6521    1.6875 H   0  0  0  0  0  0  0  0  0  0  0  0
    5.2987    0.2754    3.1269 H   0  0  0  0  0  0  0  0  0  0  0  0
    1.3951    0.0854    0.8151 H   0  0  0  0  0  0  0  0  0  0  0  0
    0.5135   -0.9978    3.3933 H   0  0  0  0  0  0  0  0  0  0  0  0
    0.6953    1.5853    3.7083 H   0  0  0  0  0  0  0  0  0  0  0  0
   -0.8658    0.8461    4.0573 H   0  0  0  0  0  0  0  0  0  0  0  0
   -0.1362    2.2559    1.4379 H   0  0  0  0  0  0  0  0  0  0  0  0
   -1.1150    2.9445    2.7301 H   0  0  0  0  0  0  0  0  0  0  0  0
   -2.8979    1.3868    2.3859 H   0  0  0  0  0  0  0  0  0  0  0  0
   -2.4358    1.9643    0.7702 H   0  0  0  0  0  0  0  0  0  0  0  0
   -0.2016   -2.8666    1.0692 H   0  0  0  0  0  0  0  0  0  0  0  0
   -4.5955    0.5514    1.3168 H   0  0  0  0  0  0  0  0  0  0  0  0
   -6.7335    0.9900    0.2373 H   0  0  0  0  0  0  0  0  0  0  0  0
   -7.2398    0.0419   -1.9723 H   0  0  0  0  0  0  0  0  0  0  0  0
   -6.7675   -1.4505   -3.7077 H   0  0  0  0  0  0  0  0  0  0  0  0
   -5.2189   -0.8849   -4.3588 H   0  0  0  0  0  0  0  0  0  0  0  0
   -5.3764   -2.5164   -3.6386 H   0  0  0  0  0  0  0  0  0  0  0  0
   -2.9742   -2.9109   -2.1690 H   0  0  0  0  0  0  0  0  0  0  0  0
   -3.1374   -1.7642   -3.5131 H   0  0  0  0  0  0  0  0  0  0  0  0
   -1.9739   -1.4251   -2.2766 H   0  0  0  0  0  0  0  0  0  0  0  0
    3.2850   -0.5856   -2.3401 H   0  0  0  0  0  0  0  0  0  0  0  0
    1.6515    0.0897   -2.3451 H   0  0  0  0  0  0  0  0  0  0  0  0
    3.0281    1.2050   -2.3433 H   0  0  0  0  0  0  0  0  0  0  0  0
  1  2  1  0
  2  3  1  0
  3  4  2  0
  4  5  1  0
  5  6  2  0
  6  7  1  0
  7  8  2  0
  7  9  1  0
  9 10  1  0
 10 11  1  0
 11 12  1  0
 12 13  1  0
 13 14  1  0
 14 15  2  0
 15 16  1  0
 16 17  2  0
 17 18  1  0
 18 19  1  0
 19 20  2  0
 20 21  1  0
 21 22  2  0
 22 23  1  0
 23 24  1  0
 23 25  2  0
 25 26  1  0
  6 27  1  0
 27 28  1  0
 28 29  1  0
 27 30  2  0
 30  3  1  0
 15 10  1  0
 25 19  1  0
 18 14  1  0
  1 31  1  0
  1 32  1  0
  1 33  1  0
  4 34  1  0
  5 35  1  0
  9 36  1  0
 10 37  1  0
 11 38  1  0
 11 39  1  0
 12 40  1  0
 12 41  1  0
 13 42  1  0
 13 43  1  0
 16 44  1  0
 20 45  1  0
 21 46  1  0
 22 47  1  0
 24 48  1  0
 24 49  1  0
 24 50  1  0
 26 51  1  0
 26 52  1  0
 26 53  1  0
 29 54  1  0
 29 55  1  0
 29 56  1  0
M  END
$$$$
