
     RDKit          3D

 47 51  0  0  0  0  0  0  0  0999 V2000
   -4.3724   -1.7452    1.3130 C   0  0  0  0  0  0  0  0  0  0  0  0
   -4.8203   -0.5531    0.5472 C   0  0  0  0  0  0  0  0  0  0  0  0
   -4.0412    0.4889    0.0456 C   0  0  0  0  0  0  0  0  0  0  0  0
   -2.6092    0.7581    0.0353 C   0  0  0  0  0  0  0  0  0  0  0  0
   -2.1588    1.8981    0.0876 O   0  0  0  0  0  0  0  0  0  0  0  0
   -1.8325   -0.3869   -0.0780 N   0  0  0  0  0  0  0  0  0  0  0  0
   -0.4251   -0.4869   -0.0608 C   0  0  0  0  0  0  0  0  0  0  0  0
    0.1172   -1.7531   -0.3019 C   0  0  0  0  0  0  0  0  0  0  0  0
    1.5025   -1.9614   -0.2993 C   0  0  0  0  0  0  0  0  0  0  0  0
    2.3690   -0.8822   -0.0473 C   0  0  0  0  0  0  0  0  0  0  0  0
    3.7488   -0.9408   -0.0133 N   0  0  0  0  0  0  0  0  0  0  0  0
    4.2751    0.2395    0.2391 C   0  0  0  0  0  0  0  0  0  0  0  0
    5.6273    0.4487    0.3438 N   0  0  0  0  0  0  0  0  0  0  0  0
    6.4800   -0.6827   -0.0793 C   0  0  0  0  0  0  0  0  0  0  0  0
    7.9316   -0.4613    0.3657 C   0  0  0  0  0  0  0  0  0  0  0  0
    8.4448    0.7892   -0.1172 O   0  0  0  0  0  0  0  0  0  0  0  0
    7.6548    1.8693    0.3995 C   0  0  0  0  0  0  0  0  0  0  0  0
    6.1858    1.7599   -0.0386 C   0  0  0  0  0  0  0  0  0  0  0  0
    3.0935    1.4845    0.4781 S   0  0  0  0  0  0  0  0  0  0  0  0
    1.8188    0.3705    0.1965 C   0  0  0  0  0  0  0  0  0  0  0  0
    0.4275    0.5928    0.1966 C   0  0  0  0  0  0  0  0  0  0  0  0
   -4.8504    1.4277   -0.5367 O   0  0  0  0  0  0  0  0  0  0  0  0
   -6.1296    0.9877   -0.4481 C   0  0  0  0  0  0  0  0  0  0  0  0
   -7.2471    1.6584   -0.9392 C   0  0  0  0  0  0  0  0  0  0  0  0
   -8.4840    1.0365   -0.7450 C   0  0  0  0  0  0  0  0  0  0  0  0
   -8.5766   -0.1929   -0.0884 C   0  0  0  0  0  0  0  0  0  0  0  0
   -7.4308   -0.8412    0.3961 C   0  0  0  0  0  0  0  0  0  0  0  0
   -6.1742   -0.2338    0.2073 C   0  0  0  0  0  0  0  0  0  0  0  0
   -3.5236   -1.5030    1.9602 H   0  0  0  0  0  0  0  0  0  0  0  0
   -5.1722   -2.1269    1.9557 H   0  0  0  0  0  0  0  0  0  0  0  0
   -4.0744   -2.5464    0.6296 H   0  0  0  0  0  0  0  0  0  0  0  0
   -2.3341   -1.2417   -0.2742 H   0  0  0  0  0  0  0  0  0  0  0  0
   -0.5255   -2.6074   -0.5015 H   0  0  0  0  0  0  0  0  0  0  0  0
    1.9172   -2.9462   -0.4899 H   0  0  0  0  0  0  0  0  0  0  0  0
    6.4433   -0.7674   -1.1729 H   0  0  0  0  0  0  0  0  0  0  0  0
    6.1319   -1.6276    0.3549 H   0  0  0  0  0  0  0  0  0  0  0  0
    8.0163   -0.4840    1.4589 H   0  0  0  0  0  0  0  0  0  0  0  0
    8.5679   -1.2574   -0.0337 H   0  0  0  0  0  0  0  0  0  0  0  0
    7.7381    1.8812    1.4931 H   0  0  0  0  0  0  0  0  0  0  0  0
    8.0842    2.8036    0.0240 H   0  0  0  0  0  0  0  0  0  0  0  0
    5.6418    2.5886    0.4264 H   0  0  0  0  0  0  0  0  0  0  0  0
    6.1218    1.8695   -1.1285 H   0  0  0  0  0  0  0  0  0  0  0  0
    0.0575    1.5910    0.4011 H   0  0  0  0  0  0  0  0  0  0  0  0
   -7.1542    2.6132   -1.4425 H   0  0  0  0  0  0  0  0  0  0  0  0
   -9.3875    1.5210   -1.1095 H   0  0  0  0  0  0  0  0  0  0  0  0
   -9.5521   -0.6539    0.0524 H   0  0  0  0  0  0  0  0  0  0  0  0
   -7.5207   -1.7945    0.9080 H   0  0  0  0  0  0  0  0  0  0  0  0
  1  2  1  0
  2  3  2  0
  3  4  1  0
  4  5  2  0
  4  6  1  0
  6  7  1  0
  7  8  2  0
  8  9  1  0
  9 10  2  0
 10 11  1  0
 11 12  2  0
 12 13  1  0
 13 14  1  0
 14 15  1  0
 15 16  1  0
 16 17  1  0
 17 18  1  0
 12 19  1  0
 19 20  1  0
 20 21  2  0
  3 22  1  0
 22 23  1  0
 23 24  2  0
 24 25  1  0
 25 26  2  0
 26 27  1  0
 27 28  2  0
 28  2  1  0
 21  7  1  0
 28 23  1  0
 20 10  1  0
 18 13  1  0
  1 29  1  0
  1 30  1  0
  1 31  1  0
  6 32  1  0
  8 33  1  0
  9 34  1  0
 14 35  1  0
 14 36  1  0
 15 37  1  0
 15 38  1  0
 17 39  1  0
 17 40  1  0
 18 41  1  0
 18 42  1  0
 21 43  1  0
 24 44  1  0
 25 45  1  0
 26 46  1  0
 27 47  1  0
M  END
$$$$
