
     RDKit          3D

 54 57  0  0  0  0  0  0  0  0999 V2000
   -2.4860    5.7786   -2.6109 C   0  0  0  0  0  0  0  0  0  0  0  0
   -2.6868    4.3545   -2.3974 N   0  0  0  0  0  0  0  0  0  0  0  0
   -1.7806    3.7015   -1.5751 C   0  0  0  0  0  0  0  0  0  0  0  0
   -0.9342    4.3076   -0.9290 O   0  0  0  0  0  0  0  0  0  0  0  0
   -1.9281    2.2432   -1.4653 C   0  0  0  0  0  0  0  0  0  0  0  0
   -0.9954    1.3657   -0.9280 C   0  0  0  0  0  0  0  0  0  0  0  0
    0.6484    1.8456   -0.4052 S   0  0  0  0  0  0  0  0  0  0  0  0
    1.1778    0.3594    0.4993 C   0  0  0  0  0  0  0  0  0  0  0  0
    2.5785    0.5516    1.0580 C   0  0  0  0  0  0  0  0  0  0  0  0
    3.5310    0.9515    0.3910 O   0  0  0  0  0  0  0  0  0  0  0  0
    2.7077    0.2007    2.3882 N   0  0  0  0  0  0  0  0  0  0  0  0
    4.0132    0.1818    3.0294 C   0  0  0  0  0  0  0  0  0  0  0  0
    4.8062   -1.0744    2.6666 C   0  0  0  0  0  0  0  0  0  0  0  0
    6.2042   -1.0973    3.2615 C   0  0  0  0  0  0  0  0  0  0  0  0
    6.4900   -2.5793    3.2933 C   0  0  0  0  0  0  0  0  0  0  0  0
    5.1426   -3.1540    3.6770 C   0  0  0  0  0  0  0  0  0  0  0  0
    4.1406   -2.2450    3.1927 O   0  0  0  0  0  0  0  0  0  0  0  0
   -1.2377    0.0378   -0.8294 N   0  0  0  0  0  0  0  0  0  0  0  0
   -2.4181   -0.4199   -1.2585 C   0  0  0  0  0  0  0  0  0  0  0  0
   -2.6663   -1.8661   -1.2209 C   0  0  0  0  0  0  0  0  0  0  0  0
   -3.2268   -2.4923   -2.3572 C   0  0  0  0  0  0  0  0  0  0  0  0
   -3.4634   -3.8685   -2.3984 C   0  0  0  0  0  0  0  0  0  0  0  0
   -3.1453   -4.6582   -1.3006 C   0  0  0  0  0  0  0  0  0  0  0  0
   -2.6055   -4.0678   -0.1591 C   0  0  0  0  0  0  0  0  0  0  0  0
   -2.3717   -2.6853   -0.1144 C   0  0  0  0  0  0  0  0  0  0  0  0
   -1.7673   -2.0571    1.3832 Cl  0  0  0  0  0  0  0  0  0  0  0  0
   -3.3546    0.3540   -1.8253 N   0  0  0  0  0  0  0  0  0  0  0  0
   -3.0976    1.6756   -1.9228 C   0  0  0  0  0  0  0  0  0  0  0  0
   -4.0877    2.4758   -2.5341 N   0  0  0  0  0  0  0  0  0  0  0  0
   -5.3266    1.8262   -2.9436 C   0  0  0  0  0  0  0  0  0  0  0  0
   -3.8989    3.8161   -2.8014 C   0  0  0  0  0  0  0  0  0  0  0  0
   -4.7640    4.4983   -3.3571 O   0  0  0  0  0  0  0  0  0  0  0  0
   -1.4199    6.0200   -2.6372 H   0  0  0  0  0  0  0  0  0  0  0  0
   -2.9409    6.0988   -3.5545 H   0  0  0  0  0  0  0  0  0  0  0  0
   -2.9550    6.3244   -1.7865 H   0  0  0  0  0  0  0  0  0  0  0  0
    1.2056   -0.5162   -0.1609 H   0  0  0  0  0  0  0  0  0  0  0  0
    0.4727    0.1731    1.3148 H   0  0  0  0  0  0  0  0  0  0  0  0
    2.0076   -0.4097    2.7904 H   0  0  0  0  0  0  0  0  0  0  0  0
    4.5633    1.0819    2.7389 H   0  0  0  0  0  0  0  0  0  0  0  0
    3.8207    0.2164    4.1061 H   0  0  0  0  0  0  0  0  0  0  0  0
    4.8598   -1.2016    1.5790 H   0  0  0  0  0  0  0  0  0  0  0  0
    6.2022   -0.7002    4.2856 H   0  0  0  0  0  0  0  0  0  0  0  0
    6.9295   -0.5274    2.6720 H   0  0  0  0  0  0  0  0  0  0  0  0
    7.2858   -2.8605    3.9869 H   0  0  0  0  0  0  0  0  0  0  0  0
    6.7722   -2.9251    2.2915 H   0  0  0  0  0  0  0  0  0  0  0  0
    5.0339   -3.2164    4.7646 H   0  0  0  0  0  0  0  0  0  0  0  0
    4.9732   -4.1481    3.2518 H   0  0  0  0  0  0  0  0  0  0  0  0
   -3.4781   -1.8954   -3.2351 H   0  0  0  0  0  0  0  0  0  0  0  0
   -3.8907   -4.3204   -3.2913 H   0  0  0  0  0  0  0  0  0  0  0  0
   -3.3250   -5.7302   -1.3266 H   0  0  0  0  0  0  0  0  0  0  0  0
   -2.3736   -4.6919    0.7021 H   0  0  0  0  0  0  0  0  0  0  0  0
   -5.1101    1.1046   -3.7372 H   0  0  0  0  0  0  0  0  0  0  0  0
   -6.0546    2.5452   -3.3276 H   0  0  0  0  0  0  0  0  0  0  0  0
   -5.7761    1.3182   -2.0851 H   0  0  0  0  0  0  0  0  0  0  0  0
  1  2  1  0
  2  3  1  0
  3  4  2  0
  3  5  1  0
  5  6  2  0
  6  7  1  0
  7  8  1  0
  8  9  1  0
  9 10  2  0
  9 11  1  0
 11 12  1  0
 12 13  1  0
 13 14  1  0
 14 15  1  0
 15 16  1  0
 16 17  1  0
  6 18  1  0
 18 19  2  0
 19 20  1  0
 20 21  2  0
 21 22  1  0
 22 23  2  0
 23 24  1  0
 24 25  2  0
 25 26  1  0
 19 27  1  0
 27 28  2  0
 28 29  1  0
 29 30  1  0
 29 31  1  0
 31 32  2  0
 31  2  1  0
 28  5  1  0
 17 13  1  0
 25 20  1  0
  1 33  1  0
  1 34  1  0
  1 35  1  0
  8 36  1  0
  8 37  1  0
 11 38  1  0
 12 39  1  0
 12 40  1  0
 13 41  1  0
 14 42  1  0
 14 43  1  0
 15 44  1  0
 15 45  1  0
 16 46  1  0
 16 47  1  0
 21 48  1  0
 22 49  1  0
 23 50  1  0
 24 51  1  0
 30 52  1  0
 30 53  1  0
 30 54  1  0
M  END
$$$$
