
     RDKit          3D

 36 38  0  0  0  0  0  0  0  0999 V2000
   -1.1902   -0.3423    2.3839 O   0  0  0  0  0  0  0  0  0  0  0  0
   -0.4388   -0.1081    1.4424 C   0  0  0  0  0  0  0  0  0  0  0  0
   -0.8123   -0.0640    0.1142 N   0  0  0  0  0  0  0  0  0  0  0  0
   -2.0219   -0.7399   -0.1861 O   0  0  0  0  0  0  0  0  0  0  0  0
   -3.0643    0.2294   -0.3286 C   0  0  0  0  0  0  0  0  0  0  0  0
   -4.3126   -0.4639   -0.8097 C   0  0  0  0  0  0  0  0  0  0  0  0
   -4.3677   -1.0029   -2.1038 C   0  0  0  0  0  0  0  0  0  0  0  0
   -5.5232   -1.6418   -2.5565 C   0  0  0  0  0  0  0  0  0  0  0  0
   -6.6339   -1.7507   -1.7199 C   0  0  0  0  0  0  0  0  0  0  0  0
   -6.5884   -1.2265   -0.4280 C   0  0  0  0  0  0  0  0  0  0  0  0
   -5.4331   -0.5880    0.0267 C   0  0  0  0  0  0  0  0  0  0  0  0
    0.9838    0.1415    1.6147 C   0  0  0  0  0  0  0  0  0  0  0  0
    1.6657    0.2051    2.8059 C   0  0  0  0  0  0  0  0  0  0  0  0
    2.9766    0.4488    2.5337 O   0  0  0  0  0  0  0  0  0  0  0  0
    3.0368    0.5161    1.1650 C   0  0  0  0  0  0  0  0  0  0  0  0
    4.3511    0.7544    0.5731 C   0  0  0  0  0  0  0  0  0  0  0  0
    5.4966    0.9482    1.3602 C   0  0  0  0  0  0  0  0  0  0  0  0
    6.7429    1.1673    0.7670 C   0  0  0  0  0  0  0  0  0  0  0  0
    6.8597    1.1984   -0.6214 C   0  0  0  0  0  0  0  0  0  0  0  0
    5.7325    1.0093   -1.4174 C   0  0  0  0  0  0  0  0  0  0  0  0
    4.4867    0.7895   -0.8233 C   0  0  0  0  0  0  0  0  0  0  0  0
    1.8712    0.3411    0.5659 N   0  0  0  0  0  0  0  0  0  0  0  0
   -0.0645   -0.1783   -0.5659 H   0  0  0  0  0  0  0  0  0  0  0  0
   -2.7721    0.9954   -1.0576 H   0  0  0  0  0  0  0  0  0  0  0  0
   -3.2396    0.7225    0.6352 H   0  0  0  0  0  0  0  0  0  0  0  0
   -3.5034   -0.9334   -2.7612 H   0  0  0  0  0  0  0  0  0  0  0  0
   -5.5545   -2.0578   -3.5611 H   0  0  0  0  0  0  0  0  0  0  0  0
   -7.5325   -2.2498   -2.0706 H   0  0  0  0  0  0  0  0  0  0  0  0
   -7.4513   -1.3163    0.2276 H   0  0  0  0  0  0  0  0  0  0  0  0
   -5.4111   -0.1947    1.0423 H   0  0  0  0  0  0  0  0  0  0  0  0
    1.3913    0.1074    3.8455 H   0  0  0  0  0  0  0  0  0  0  0  0
    5.4309    0.9295    2.4471 H   0  0  0  0  0  0  0  0  0  0  0  0
    7.6221    1.3139    1.3899 H   0  0  0  0  0  0  0  0  0  0  0  0
    7.8295    1.3706   -1.0826 H   0  0  0  0  0  0  0  0  0  0  0  0
    5.8218    1.0281   -2.5001 H   0  0  0  0  0  0  0  0  0  0  0  0
    3.6162    0.6422   -1.4602 H   0  0  0  0  0  0  0  0  0  0  0  0
  1  2  2  0
  2  3  1  0
  3  4  1  0
  4  5  1  0
  5  6  1  0
  6  7  2  0
  7  8  1  0
  8  9  2  0
  9 10  1  0
 10 11  2  0
  2 12  1  0
 12 13  2  0
 13 14  1  0
 14 15  1  0
 15 16  1  0
 16 17  2  0
 17 18  1  0
 18 19  2  0
 19 20  1  0
 20 21  2  0
 15 22  2  0
 11  6  1  0
 22 12  1  0
 21 16  1  0
  3 23  1  0
  5 24  1  0
  5 25  1  0
  7 26  1  0
  8 27  1  0
  9 28  1  0
 10 29  1  0
 11 30  1  0
 13 31  1  0
 17 32  1  0
 18 33  1  0
 19 34  1  0
 20 35  1  0
 21 36  1  0
M  END
$$$$
