
     RDKit          3D

 43 46  0  0  0  0  0  0  0  0999 V2000
   -3.7405   -2.5635    1.8960 C   0  0  0  0  0  0  0  0  0  0  0  0
   -3.9520   -2.4659    0.3967 C   0  0  0  0  0  0  0  0  0  0  0  0
   -3.9134   -1.0950   -0.0212 O   0  0  0  0  0  0  0  0  0  0  0  0
   -2.6764   -0.5872   -0.2819 C   0  0  0  0  0  0  0  0  0  0  0  0
   -1.6304   -1.2192   -0.2012 O   0  0  0  0  0  0  0  0  0  0  0  0
   -2.7840    0.8075   -0.6742 C   0  0  0  0  0  0  0  0  0  0  0  0
   -3.9375    1.5667   -0.8368 C   0  0  0  0  0  0  0  0  0  0  0  0
   -3.5200    2.8733   -1.2057 C   0  0  0  0  0  0  0  0  0  0  0  0
   -4.2172    4.4092   -1.5959 S   0  0  0  0  0  0  0  0  0  0  0  0
   -2.6421    5.0636   -1.8131 C   0  0  0  0  0  0  0  0  0  0  0  0
   -1.6209    4.1605   -1.6061 C   0  0  0  0  0  0  0  0  0  0  0  0
   -2.1591    2.8898   -1.2576 C   0  0  0  0  0  0  0  0  0  0  0  0
   -1.6999    1.6280   -0.9420 N   0  0  0  0  0  0  0  0  0  0  0  0
   -0.2889    1.2644   -0.9300 C   0  0  0  0  0  0  0  0  0  0  0  0
    0.2742    1.1391    0.4721 C   0  0  0  0  0  0  0  0  0  0  0  0
   -0.2177    1.7115    1.4443 O   0  0  0  0  0  0  0  0  0  0  0  0
    1.5034    0.3159    0.6739 C   0  0  0  0  0  0  0  0  0  0  0  0
    1.8451   -0.0598    1.9825 C   0  0  0  0  0  0  0  0  0  0  0  0
    2.9917   -0.8199    2.2260 C   0  0  0  0  0  0  0  0  0  0  0  0
    3.8065   -1.2012    1.1644 C   0  0  0  0  0  0  0  0  0  0  0  0
    3.4609   -0.8464   -0.1434 C   0  0  0  0  0  0  0  0  0  0  0  0
    2.3231   -0.0764   -0.3909 C   0  0  0  0  0  0  0  0  0  0  0  0
    4.2017   -1.2104   -1.2398 O   0  0  0  0  0  0  0  0  0  0  0  0
    5.1202   -2.2635   -0.9216 C   0  0  0  0  0  0  0  0  0  0  0  0
    5.8474   -1.9656    0.3792 C   0  0  0  0  0  0  0  0  0  0  0  0
    4.9269   -1.9266    1.4757 O   0  0  0  0  0  0  0  0  0  0  0  0
   -2.7527   -2.1866    2.1795 H   0  0  0  0  0  0  0  0  0  0  0  0
   -3.8285   -3.6001    2.2333 H   0  0  0  0  0  0  0  0  0  0  0  0
   -4.4784   -1.9546    2.4286 H   0  0  0  0  0  0  0  0  0  0  0  0
   -3.2217   -3.0713   -0.1524 H   0  0  0  0  0  0  0  0  0  0  0  0
   -4.9446   -2.8505    0.1402 H   0  0  0  0  0  0  0  0  0  0  0  0
   -4.9559    1.2271   -0.7007 H   0  0  0  0  0  0  0  0  0  0  0  0
   -2.5465    6.1057   -2.0857 H   0  0  0  0  0  0  0  0  0  0  0  0
   -0.5706    4.4044   -1.6942 H   0  0  0  0  0  0  0  0  0  0  0  0
    0.2720    2.0360   -1.4671 H   0  0  0  0  0  0  0  0  0  0  0  0
   -0.2035    0.3278   -1.4878 H   0  0  0  0  0  0  0  0  0  0  0  0
    1.2174    0.2386    2.8209 H   0  0  0  0  0  0  0  0  0  0  0  0
    3.2514   -1.1028    3.2426 H   0  0  0  0  0  0  0  0  0  0  0  0
    2.1052    0.1975   -1.4178 H   0  0  0  0  0  0  0  0  0  0  0  0
    5.8354   -2.3396   -1.7465 H   0  0  0  0  0  0  0  0  0  0  0  0
    4.5627   -3.2066   -0.8638 H   0  0  0  0  0  0  0  0  0  0  0  0
    6.5819   -2.7490    0.5904 H   0  0  0  0  0  0  0  0  0  0  0  0
    6.3752   -1.0050    0.3332 H   0  0  0  0  0  0  0  0  0  0  0  0
  1  2  1  0
  2  3  1  0
  3  4  1  0
  4  5  2  0
  4  6  1  0
  6  7  2  0
  7  8  1  0
  8  9  1  0
  9 10  1  0
 10 11  2  0
 11 12  1  0
 12 13  1  0
 13 14  1  0
 14 15  1  0
 15 16  2  0
 15 17  1  0
 17 18  2  0
 18 19  1  0
 19 20  2  0
 20 21  1  0
 21 22  2  0
 21 23  1  0
 23 24  1  0
 24 25  1  0
 25 26  1  0
 13  6  1  0
 22 17  1  0
 12  8  2  0
 26 20  1  0
  1 27  1  0
  1 28  1  0
  1 29  1  0
  2 30  1  0
  2 31  1  0
  7 32  1  0
 10 33  1  0
 11 34  1  0
 14 35  1  0
 14 36  1  0
 18 37  1  0
 19 38  1  0
 22 39  1  0
 24 40  1  0
 24 41  1  0
 25 42  1  0
 25 43  1  0
M  END
$$$$
