
     RDKit          3D

 54 56  0  0  0  0  0  0  0  0999 V2000
   -4.0457   -1.5065    3.2521 C   0  0  0  0  0  0  0  0  0  0  0  0
   -3.8938   -1.8986    1.7947 C   0  0  0  0  0  0  0  0  0  0  0  0
   -2.6313   -1.4393    1.2948 O   0  0  0  0  0  0  0  0  0  0  0  0
   -2.6180   -0.1818    0.7647 C   0  0  0  0  0  0  0  0  0  0  0  0
   -3.5937    0.5568    0.7060 O   0  0  0  0  0  0  0  0  0  0  0  0
   -1.2877    0.2015    0.3099 C   0  0  0  0  0  0  0  0  0  0  0  0
   -1.0623    0.7816   -0.9302 C   0  0  0  0  0  0  0  0  0  0  0  0
   -1.9136    1.0597   -1.9538 N   0  0  0  0  0  0  0  0  0  0  0  0
   -2.6705    2.0937   -1.7761 C   0  0  0  0  0  0  0  0  0  0  0  0
   -3.6027    2.5769   -2.6685 N   0  0  0  0  0  0  0  0  0  0  0  0
   -4.1972    3.8873   -2.4675 C   0  0  0  0  0  0  0  0  0  0  0  0
   -3.6341    2.0548   -4.0267 C   0  0  0  0  0  0  0  0  0  0  0  0
    0.6094    1.0823   -1.1785 S   0  0  0  0  0  0  0  0  0  0  0  0
    1.0499    0.4501    0.3423 C   0  0  0  0  0  0  0  0  0  0  0  0
    2.4320    0.4781    0.7794 C   0  0  0  0  0  0  0  0  0  0  0  0
    3.5054    0.1225    0.1328 N   0  0  0  0  0  0  0  0  0  0  0  0
    3.3733   -0.3908   -1.1193 N   0  0  0  0  0  0  0  0  0  0  0  0
    4.5401   -0.6137   -1.8816 C   0  0  0  0  0  0  0  0  0  0  0  0
    4.4179   -0.9452   -3.2388 C   0  0  0  0  0  0  0  0  0  0  0  0
    5.5452   -1.2319   -4.0143 C   0  0  0  0  0  0  0  0  0  0  0  0
    6.8119   -1.2118   -3.4361 C   0  0  0  0  0  0  0  0  0  0  0  0
    6.9491   -0.9149   -2.0825 C   0  0  0  0  0  0  0  0  0  0  0  0
    5.8190   -0.6293   -1.3107 C   0  0  0  0  0  0  0  0  0  0  0  0
   -0.0602    0.0328    1.0571 C   0  0  0  0  0  0  0  0  0  0  0  0
    0.0632   -0.5010    2.4093 C   0  0  0  0  0  0  0  0  0  0  0  0
    0.7002   -1.7287    2.6309 C   0  0  0  0  0  0  0  0  0  0  0  0
    0.8042   -2.2396    3.9269 C   0  0  0  0  0  0  0  0  0  0  0  0
    0.2697   -1.5256    4.9981 C   0  0  0  0  0  0  0  0  0  0  0  0
    0.3929   -2.1580    6.5930 Cl  0  0  0  0  0  0  0  0  0  0  0  0
   -0.3668   -0.3036    4.7862 C   0  0  0  0  0  0  0  0  0  0  0  0
   -0.4716    0.2100    3.4912 C   0  0  0  0  0  0  0  0  0  0  0  0
   -3.2171   -1.9072    3.8451 H   0  0  0  0  0  0  0  0  0  0  0  0
   -4.9864   -1.8863    3.6605 H   0  0  0  0  0  0  0  0  0  0  0  0
   -4.0258   -0.4186    3.3700 H   0  0  0  0  0  0  0  0  0  0  0  0
   -3.8972   -2.9897    1.7041 H   0  0  0  0  0  0  0  0  0  0  0  0
   -4.7274   -1.5242    1.1899 H   0  0  0  0  0  0  0  0  0  0  0  0
   -2.6219    2.7014   -0.8511 H   0  0  0  0  0  0  0  0  0  0  0  0
   -5.1354    3.9851   -3.0234 H   0  0  0  0  0  0  0  0  0  0  0  0
   -3.5107    4.6715   -2.8024 H   0  0  0  0  0  0  0  0  0  0  0  0
   -4.4280    4.0555   -1.4101 H   0  0  0  0  0  0  0  0  0  0  0  0
   -2.7840    2.4375   -4.6009 H   0  0  0  0  0  0  0  0  0  0  0  0
   -3.5962    0.9601   -4.0292 H   0  0  0  0  0  0  0  0  0  0  0  0
   -4.5560    2.3451   -4.5417 H   0  0  0  0  0  0  0  0  0  0  0  0
    2.5948    0.8134    1.8185 H   0  0  0  0  0  0  0  0  0  0  0  0
    2.5720   -0.1100   -1.6848 H   0  0  0  0  0  0  0  0  0  0  0  0
    3.4371   -0.9838   -3.7054 H   0  0  0  0  0  0  0  0  0  0  0  0
    5.4312   -1.4777   -5.0665 H   0  0  0  0  0  0  0  0  0  0  0  0
    7.6893   -1.4368   -4.0358 H   0  0  0  0  0  0  0  0  0  0  0  0
    7.9325   -0.9106   -1.6208 H   0  0  0  0  0  0  0  0  0  0  0  0
    5.9415   -0.4147   -0.2522 H   0  0  0  0  0  0  0  0  0  0  0  0
    1.1118   -2.2995    1.8000 H   0  0  0  0  0  0  0  0  0  0  0  0
    1.2988   -3.1935    4.0915 H   0  0  0  0  0  0  0  0  0  0  0  0
   -0.7849    0.2512    5.6221 H   0  0  0  0  0  0  0  0  0  0  0  0
   -0.9722    1.1638    3.3376 H   0  0  0  0  0  0  0  0  0  0  0  0
  1  2  1  0
  2  3  1  0
  3  4  1  0
  4  5  2  0
  4  6  1  0
  6  7  2  0
  7  8  1  0
  8  9  2  3
  9 10  1  0
 10 11  1  0
 10 12  1  0
  7 13  1  0
 13 14  1  0
 14 15  1  0
 15 16  2  3
 16 17  1  0
 17 18  1  0
 18 19  2  0
 19 20  1  0
 20 21  2  0
 21 22  1  0
 22 23  2  0
 14 24  2  0
 24 25  1  0
 25 26  2  0
 26 27  1  0
 27 28  2  0
 28 29  1  0
 28 30  1  0
 30 31  2  0
 24  6  1  0
 31 25  1  0
 23 18  1  0
  1 32  1  0
  1 33  1  0
  1 34  1  0
  2 35  1  0
  2 36  1  0
  9 37  1  0
 11 38  1  0
 11 39  1  0
 11 40  1  0
 12 41  1  0
 12 42  1  0
 12 43  1  0
 15 44  1  0
 17 45  1  0
 19 46  1  0
 20 47  1  0
 21 48  1  0
 22 49  1  0
 23 50  1  0
 26 51  1  0
 27 52  1  0
 30 53  1  0
 31 54  1  0
M  END
$$$$
