
     RDKit          3D

 50 52  0  0  0  0  0  0  0  0999 V2000
    4.8223    0.9700   -3.2199 C   0  0  0  0  0  0  0  0  0  0  0  0
    4.2643    0.9925   -1.8268 C   0  0  0  0  0  0  0  0  0  0  0  0
    3.6450    2.1452   -1.3296 C   0  0  0  0  0  0  0  0  0  0  0  0
    3.1503    2.1762   -0.0232 C   0  0  0  0  0  0  0  0  0  0  0  0
    3.2753    1.0572    0.8024 C   0  0  0  0  0  0  0  0  0  0  0  0
    2.6040    1.0792    2.4502 S   0  0  0  0  0  0  0  0  0  0  0  0
    0.9268    0.4429    2.1020 C   0  0  0  0  0  0  0  0  0  0  0  0
    0.9663   -1.0380    1.7250 C   0  0  0  0  0  0  0  0  0  0  0  0
    1.3935   -1.8619    2.5429 O   0  0  0  0  0  0  0  0  0  0  0  0
    0.5079   -1.4505    0.4688 N   0  0  0  0  0  0  0  0  0  0  0  0
    0.1760   -0.5189   -0.6194 C   0  0  0  0  0  0  0  0  0  0  0  0
   -1.2557   -0.1251   -0.5512 C   0  0  0  0  0  0  0  0  0  0  0  0
   -1.8961    0.5714    0.3618 N   0  0  0  0  0  0  0  0  0  0  0  0
   -3.1918    0.5733   -0.1145 C   0  0  0  0  0  0  0  0  0  0  0  0
   -4.2828    1.2295    0.5993 C   0  0  0  0  0  0  0  0  0  0  0  0
   -4.0305    1.9243    1.7917 C   0  0  0  0  0  0  0  0  0  0  0  0
   -5.0696    2.5509    2.4846 C   0  0  0  0  0  0  0  0  0  0  0  0
   -6.3736    2.4831    1.9973 C   0  0  0  0  0  0  0  0  0  0  0  0
   -6.6400    1.7967    0.8142 C   0  0  0  0  0  0  0  0  0  0  0  0
   -5.6013    1.1737    0.1182 C   0  0  0  0  0  0  0  0  0  0  0  0
   -3.3386   -0.0761   -1.2832 N   0  0  0  0  0  0  0  0  0  0  0  0
   -2.0559   -0.5320   -1.5758 O   0  0  0  0  0  0  0  0  0  0  0  0
    0.5397   -2.9012    0.1742 C   0  0  0  0  0  0  0  0  0  0  0  0
    1.8785   -3.2964   -0.4545 C   0  0  0  0  0  0  0  0  0  0  0  0
   -0.6287   -3.3939   -0.6819 C   0  0  0  0  0  0  0  0  0  0  0  0
    3.9269   -0.0807    0.3238 C   0  0  0  0  0  0  0  0  0  0  0  0
    4.4163   -0.1144   -0.9838 C   0  0  0  0  0  0  0  0  0  0  0  0
    5.8630    1.3085   -3.2123 H   0  0  0  0  0  0  0  0  0  0  0  0
    4.2426    1.6216   -3.8828 H   0  0  0  0  0  0  0  0  0  0  0  0
    4.7798   -0.0396   -3.6404 H   0  0  0  0  0  0  0  0  0  0  0  0
    3.5499    3.0312   -1.9545 H   0  0  0  0  0  0  0  0  0  0  0  0
    2.6716    3.0822    0.3425 H   0  0  0  0  0  0  0  0  0  0  0  0
    0.4484    1.0865    1.3683 H   0  0  0  0  0  0  0  0  0  0  0  0
    0.3312    0.5240    3.0181 H   0  0  0  0  0  0  0  0  0  0  0  0
    0.4209   -0.9784   -1.5817 H   0  0  0  0  0  0  0  0  0  0  0  0
    0.7984    0.3743   -0.5523 H   0  0  0  0  0  0  0  0  0  0  0  0
   -3.0211    1.9796    2.1946 H   0  0  0  0  0  0  0  0  0  0  0  0
   -4.8610    3.0854    3.4089 H   0  0  0  0  0  0  0  0  0  0  0  0
   -7.1824    2.9653    2.5393 H   0  0  0  0  0  0  0  0  0  0  0  0
   -7.6591    1.7382    0.4373 H   0  0  0  0  0  0  0  0  0  0  0  0
   -5.8332    0.6346   -0.7995 H   0  0  0  0  0  0  0  0  0  0  0  0
    0.4618   -3.4403    1.1264 H   0  0  0  0  0  0  0  0  0  0  0  0
    2.7111   -3.0375    0.2067 H   0  0  0  0  0  0  0  0  0  0  0  0
    2.0427   -2.7868   -1.4092 H   0  0  0  0  0  0  0  0  0  0  0  0
    1.9202   -4.3750   -0.6336 H   0  0  0  0  0  0  0  0  0  0  0  0
   -1.5872   -3.1099   -0.2344 H   0  0  0  0  0  0  0  0  0  0  0  0
   -0.6103   -4.4861   -0.7614 H   0  0  0  0  0  0  0  0  0  0  0  0
   -0.5961   -2.9942   -1.7016 H   0  0  0  0  0  0  0  0  0  0  0  0
    4.0562   -0.9509    0.9656 H   0  0  0  0  0  0  0  0  0  0  0  0
    4.9242   -1.0097   -1.3364 H   0  0  0  0  0  0  0  0  0  0  0  0
  1  2  1  0
  2  3  2  0
  3  4  1  0
  4  5  2  0
  5  6  1  0
  6  7  1  0
  7  8  1  0
  8  9  2  0
  8 10  1  0
 10 11  1  0
 11 12  1  0
 12 13  2  0
 13 14  1  0
 14 15  1  0
 15 16  2  0
 16 17  1  0
 17 18  2  0
 18 19  1  0
 19 20  2  0
 14 21  2  0
 21 22  1  0
 10 23  1  0
 23 24  1  0
 23 25  1  0
  5 26  1  0
 26 27  2  0
 27  2  1  0
 22 12  1  0
 20 15  1  0
  1 28  1  0
  1 29  1  0
  1 30  1  0
  3 31  1  0
  4 32  1  0
  7 33  1  0
  7 34  1  0
 11 35  1  0
 11 36  1  0
 16 37  1  0
 17 38  1  0
 18 39  1  0
 19 40  1  0
 20 41  1  0
 23 42  1  0
 24 43  1  0
 24 44  1  0
 24 45  1  0
 25 46  1  0
 25 47  1  0
 25 48  1  0
 26 49  1  0
 27 50  1  0
M  END
$$$$
