
     RDKit          3D

 43 44  0  0  0  0  0  0  0  0999 V2000
   -6.6511    1.4799   -1.8577 C   0  0  0  0  0  0  0  0  0  0  0  0
   -5.8992    1.0650   -0.6028 C   0  0  0  0  0  0  0  0  0  0  0  0
   -4.4815    0.5999   -0.9276 C   0  0  0  0  0  0  0  0  0  0  0  0
   -3.7470    0.2207    0.3012 C   0  0  0  0  0  0  0  0  0  0  0  0
   -2.9640    0.9484    1.0696 N   0  0  0  0  0  0  0  0  0  0  0  0
   -2.5444    0.1170    2.0828 N   0  0  0  0  0  0  0  0  0  0  0  0
   -3.0805   -1.0670    1.8538 C   0  0  0  0  0  0  0  0  0  0  0  0
   -2.8015   -2.4744    2.8277 S   0  0  0  0  0  0  0  0  0  0  0  0
   -1.3843   -1.9255    3.8219 C   0  0  0  0  0  0  0  0  0  0  0  0
   -0.1048   -1.9405    2.9970 C   0  0  0  0  0  0  0  0  0  0  0  0
    0.6127   -2.9376    2.9766 O   0  0  0  0  0  0  0  0  0  0  0  0
    0.1246   -0.7563    2.3161 N   0  0  0  0  0  0  0  0  0  0  0  0
    1.2029   -0.4437    1.4657 C   0  0  0  0  0  0  0  0  0  0  0  0
    2.3090   -1.2705    1.2657 C   0  0  0  0  0  0  0  0  0  0  0  0
    3.3390   -0.8850    0.3962 C   0  0  0  0  0  0  0  0  0  0  0  0
    3.2734    0.3367   -0.2829 C   0  0  0  0  0  0  0  0  0  0  0  0
    4.3346    0.7918   -1.2214 C   0  0  0  0  0  0  0  0  0  0  0  0
    4.2513    1.8145   -1.8828 O   0  0  0  0  0  0  0  0  0  0  0  0
    5.3746   -0.0782   -1.2240 O   0  0  0  0  0  0  0  0  0  0  0  0
    6.4691    0.2600   -2.0886 C   0  0  0  0  0  0  0  0  0  0  0  0
    6.2229   -0.2888   -3.4816 C   0  0  0  0  0  0  0  0  0  0  0  0
    2.1664    1.1679   -0.0814 C   0  0  0  0  0  0  0  0  0  0  0  0
    1.1407    0.7799    0.7872 C   0  0  0  0  0  0  0  0  0  0  0  0
   -3.8711   -1.0706    0.7361 O   0  0  0  0  0  0  0  0  0  0  0  0
   -6.1433    2.3079   -2.3625 H   0  0  0  0  0  0  0  0  0  0  0  0
   -7.6641    1.8080   -1.6029 H   0  0  0  0  0  0  0  0  0  0  0  0
   -6.7306    0.6449   -2.5616 H   0  0  0  0  0  0  0  0  0  0  0  0
   -5.8686    1.9119    0.0930 H   0  0  0  0  0  0  0  0  0  0  0  0
   -6.4526    0.2620   -0.1004 H   0  0  0  0  0  0  0  0  0  0  0  0
   -4.5136   -0.2525   -1.6167 H   0  0  0  0  0  0  0  0  0  0  0  0
   -3.9339    1.4014   -1.4373 H   0  0  0  0  0  0  0  0  0  0  0  0
   -1.5558   -0.9377    4.2620 H   0  0  0  0  0  0  0  0  0  0  0  0
   -1.2540   -2.6225    4.6567 H   0  0  0  0  0  0  0  0  0  0  0  0
   -0.6181   -0.0584    2.3519 H   0  0  0  0  0  0  0  0  0  0  0  0
    2.4058   -2.2263    1.7720 H   0  0  0  0  0  0  0  0  0  0  0  0
    4.1825   -1.5564    0.2603 H   0  0  0  0  0  0  0  0  0  0  0  0
    6.6428    1.3424   -2.1079 H   0  0  0  0  0  0  0  0  0  0  0  0
    7.3668   -0.2022   -1.6643 H   0  0  0  0  0  0  0  0  0  0  0  0
    6.0683   -1.3721   -3.4452 H   0  0  0  0  0  0  0  0  0  0  0  0
    7.0719   -0.0758   -4.1376 H   0  0  0  0  0  0  0  0  0  0  0  0
    5.3206    0.1462   -3.9226 H   0  0  0  0  0  0  0  0  0  0  0  0
    2.0943    2.1218   -0.6009 H   0  0  0  0  0  0  0  0  0  0  0  0
    0.2896    1.4459    0.9174 H   0  0  0  0  0  0  0  0  0  0  0  0
  1  2  1  0
  2  3  1  0
  3  4  1  0
  4  5  2  0
  5  6  1  0
  6  7  2  0
  7  8  1  0
  8  9  1  0
  9 10  1  0
 10 11  2  0
 10 12  1  0
 12 13  1  0
 13 14  2  0
 14 15  1  0
 15 16  2  0
 16 17  1  0
 17 18  2  0
 17 19  1  0
 19 20  1  0
 20 21  1  0
 16 22  1  0
 22 23  2  0
  7 24  1  0
 24  4  1  0
 23 13  1  0
  1 25  1  0
  1 26  1  0
  1 27  1  0
  2 28  1  0
  2 29  1  0
  3 30  1  0
  3 31  1  0
  9 32  1  0
  9 33  1  0
 12 34  1  0
 14 35  1  0
 15 36  1  0
 20 37  1  0
 20 38  1  0
 21 39  1  0
 21 40  1  0
 21 41  1  0
 22 42  1  0
 23 43  1  0
M  END
$$$$
