
     RDKit          3D

 46 50  0  0  0  0  0  0  0  0999 V2000
    4.7662   -0.9159   -1.3053 O   0  0  0  0  0  0  0  0  0  0  0  0
    5.2385   -0.1922   -0.4419 C   0  0  0  0  0  0  0  0  0  0  0  0
    4.6347    0.2133    0.7324 O   0  0  0  0  0  0  0  0  0  0  0  0
    3.3433   -0.2942    0.8931 C   0  0  0  0  0  0  0  0  0  0  0  0
    3.1513   -1.3486    1.7857 C   0  0  0  0  0  0  0  0  0  0  0  0
    1.8621   -1.8404    1.9907 C   0  0  0  0  0  0  0  0  0  0  0  0
    0.7822   -1.2626    1.3104 C   0  0  0  0  0  0  0  0  0  0  0  0
   -0.5878   -1.7662    1.5155 C   0  0  0  0  0  0  0  0  0  0  0  0
   -0.8100   -2.6947    2.2841 O   0  0  0  0  0  0  0  0  0  0  0  0
   -1.6689   -1.0841    0.7547 C   0  0  0  0  0  0  0  0  0  0  0  0
   -2.9543   -1.5830    0.9132 O   0  0  0  0  0  0  0  0  0  0  0  0
   -4.0149   -0.7560    0.6401 C   0  0  0  0  0  0  0  0  0  0  0  0
   -4.2887    0.3456    1.4474 C   0  0  0  0  0  0  0  0  0  0  0  0
   -5.3883    1.1541    1.1571 C   0  0  0  0  0  0  0  0  0  0  0  0
   -6.2282    0.8591    0.0699 C   0  0  0  0  0  0  0  0  0  0  0  0
   -7.3370    1.6641   -0.2359 C   0  0  0  0  0  0  0  0  0  0  0  0
   -8.1671    1.3551   -1.3148 C   0  0  0  0  0  0  0  0  0  0  0  0
   -7.9011    0.2375   -2.1005 C   0  0  0  0  0  0  0  0  0  0  0  0
   -6.8034   -0.5744   -1.8105 C   0  0  0  0  0  0  0  0  0  0  0  0
   -5.9569   -0.2767   -0.7306 C   0  0  0  0  0  0  0  0  0  0  0  0
   -4.8492   -1.0829   -0.4278 C   0  0  0  0  0  0  0  0  0  0  0  0
   -1.3063   -0.0816   -0.0633 C   0  0  0  0  0  0  0  0  0  0  0  0
   -0.0356    0.4072   -0.2517 O   0  0  0  0  0  0  0  0  0  0  0  0
    0.9872   -0.1965    0.4343 C   0  0  0  0  0  0  0  0  0  0  0  0
    2.2725    0.3011    0.2260 C   0  0  0  0  0  0  0  0  0  0  0  0
    6.5992    0.3833   -0.5368 C   0  0  0  0  0  0  0  0  0  0  0  0
    7.1363    1.2175    0.4378 C   0  0  0  0  0  0  0  0  0  0  0  0
    8.3800    1.7554    0.3692 N   0  0  0  0  0  0  0  0  0  0  0  0
    9.1194    1.4449   -0.7228 C   0  0  0  0  0  0  0  0  0  0  0  0
    8.6685    0.6229   -1.7443 C   0  0  0  0  0  0  0  0  0  0  0  0
    9.7644    0.2430   -3.2299 Br  0  0  0  0  0  0  0  0  0  0  0  0
    7.3895    0.0832   -1.6518 C   0  0  0  0  0  0  0  0  0  0  0  0
    3.9929   -1.7888    2.3129 H   0  0  0  0  0  0  0  0  0  0  0  0
    1.6985   -2.6691    2.6770 H   0  0  0  0  0  0  0  0  0  0  0  0
   -3.6586    0.5727    2.3026 H   0  0  0  0  0  0  0  0  0  0  0  0
   -5.5914    2.0143    1.7913 H   0  0  0  0  0  0  0  0  0  0  0  0
   -7.5646    2.5399    0.3677 H   0  0  0  0  0  0  0  0  0  0  0  0
   -9.0229    1.9865   -1.5393 H   0  0  0  0  0  0  0  0  0  0  0  0
   -8.5487   -0.0049   -2.9391 H   0  0  0  0  0  0  0  0  0  0  0  0
   -6.6137   -1.4445   -2.4352 H   0  0  0  0  0  0  0  0  0  0  0  0
   -4.6283   -1.9658   -1.0224 H   0  0  0  0  0  0  0  0  0  0  0  0
   -1.9974    0.4675   -0.6903 H   0  0  0  0  0  0  0  0  0  0  0  0
    2.4353    1.1319   -0.4533 H   0  0  0  0  0  0  0  0  0  0  0  0
    6.5853    1.4973    1.3320 H   0  0  0  0  0  0  0  0  0  0  0  0
   10.1098    1.8914   -0.7466 H   0  0  0  0  0  0  0  0  0  0  0  0
    7.0064   -0.5656   -2.4366 H   0  0  0  0  0  0  0  0  0  0  0  0
  1  2  2  0
  2  3  1  0
  3  4  1  0
  4  5  2  0
  5  6  1  0
  6  7  2  0
  7  8  1  0
  8  9  2  0
  8 10  1  0
 10 11  1  0
 11 12  1  0
 12 13  2  0
 13 14  1  0
 14 15  2  0
 15 16  1  0
 16 17  2  0
 17 18  1  0
 18 19  2  0
 19 20  1  0
 20 21  2  0
 10 22  2  0
 22 23  1  0
 23 24  1  0
 24 25  2  0
  2 26  1  0
 26 27  2  0
 27 28  1  0
 28 29  2  0
 29 30  1  0
 30 31  1  0
 30 32  2  0
 25  4  1  0
 32 26  1  0
 24  7  1  0
 21 12  1  0
 20 15  1  0
  5 33  1  0
  6 34  1  0
 13 35  1  0
 14 36  1  0
 16 37  1  0
 17 38  1  0
 18 39  1  0
 19 40  1  0
 21 41  1  0
 22 42  1  0
 25 43  1  0
 27 44  1  0
 29 45  1  0
 32 46  1  0
M  END
$$$$
