
     RDKit          3D

 46 48  0  0  0  0  0  0  0  0999 V2000
   -1.0032    1.4740   -3.4082 N   0  0  0  0  0  0  0  0  0  0  0  0
   -0.1997    0.6224   -2.7457 C   0  0  0  0  0  0  0  0  0  0  0  0
    0.7781   -0.0077   -3.3295 N   0  0  0  0  0  0  0  0  0  0  0  0
    1.3423   -0.8591   -2.2427 C   0  0  0  0  0  0  0  0  0  0  0  0
    0.7751   -0.3066   -0.9147 C   0  0  0  0  0  0  0  0  0  0  0  0
    1.7818    0.6209   -0.2071 C   0  0  0  0  0  0  0  0  0  0  0  0
    2.9400   -0.1226    0.4205 C   0  0  0  0  0  0  0  0  0  0  0  0
    4.2248   -0.0353   -0.1333 C   0  0  0  0  0  0  0  0  0  0  0  0
    5.2912   -0.7258    0.4442 C   0  0  0  0  0  0  0  0  0  0  0  0
    5.0780   -1.5009    1.5770 C   0  0  0  0  0  0  0  0  0  0  0  0
    6.1483   -2.1575    2.1083 O   0  0  0  0  0  0  0  0  0  0  0  0
    3.8127   -1.5978    2.1457 C   0  0  0  0  0  0  0  0  0  0  0  0
    2.7449   -0.9075    1.5673 C   0  0  0  0  0  0  0  0  0  0  0  0
   -0.4035    0.4147   -1.4158 N   0  0  0  0  0  0  0  0  0  0  0  0
   -1.1945    1.2693   -0.5396 C   0  0  0  0  0  0  0  0  0  0  0  0
   -1.7471    0.5063    0.6831 C   0  0  0  0  0  0  0  0  0  0  0  0
   -2.4679    1.4711    1.6494 C   0  0  0  0  0  0  0  0  0  0  0  0
   -3.9759    1.4920    1.4302 C   0  0  0  0  0  0  0  0  0  0  0  0
   -4.6007    0.1137    1.6523 C   0  0  0  0  0  0  0  0  0  0  0  0
   -3.6539   -1.0422    1.3270 C   0  0  0  0  0  0  0  0  0  0  0  0
   -2.6554   -0.6613    0.2416 C   0  0  0  0  0  0  0  0  0  0  0  0
   -0.8050    1.4203   -4.4025 H   0  0  0  0  0  0  0  0  0  0  0  0
   -1.9830    1.2921   -3.2380 H   0  0  0  0  0  0  0  0  0  0  0  0
    1.0044   -1.8896   -2.4052 H   0  0  0  0  0  0  0  0  0  0  0  0
    2.4342   -0.8496   -2.2898 H   0  0  0  0  0  0  0  0  0  0  0  0
    0.4786   -1.1371   -0.2646 H   0  0  0  0  0  0  0  0  0  0  0  0
    2.1534    1.3843   -0.9034 H   0  0  0  0  0  0  0  0  0  0  0  0
    1.2907    1.1797    0.5988 H   0  0  0  0  0  0  0  0  0  0  0  0
    4.4048    0.5680   -1.0210 H   0  0  0  0  0  0  0  0  0  0  0  0
    6.2850   -0.6580    0.0108 H   0  0  0  0  0  0  0  0  0  0  0  0
    5.8521   -2.6513    2.8900 H   0  0  0  0  0  0  0  0  0  0  0  0
    3.6392   -2.1985    3.0327 H   0  0  0  0  0  0  0  0  0  0  0  0
    1.7590   -0.9824    2.0214 H   0  0  0  0  0  0  0  0  0  0  0  0
   -0.5881    2.1238   -0.2175 H   0  0  0  0  0  0  0  0  0  0  0  0
   -2.0462    1.6937   -1.0846 H   0  0  0  0  0  0  0  0  0  0  0  0
   -0.9007    0.0861    1.2417 H   0  0  0  0  0  0  0  0  0  0  0  0
   -2.2714    1.1505    2.6812 H   0  0  0  0  0  0  0  0  0  0  0  0
   -2.0622    2.4860    1.5659 H   0  0  0  0  0  0  0  0  0  0  0  0
   -4.4466    2.2193    2.1014 H   0  0  0  0  0  0  0  0  0  0  0  0
   -4.1886    1.8292    0.4080 H   0  0  0  0  0  0  0  0  0  0  0  0
   -5.5070    0.0364    1.0394 H   0  0  0  0  0  0  0  0  0  0  0  0
   -4.9282    0.0170    2.6945 H   0  0  0  0  0  0  0  0  0  0  0  0
   -4.2361   -1.9179    1.0184 H   0  0  0  0  0  0  0  0  0  0  0  0
   -3.1081   -1.3341    2.2331 H   0  0  0  0  0  0  0  0  0  0  0  0
   -2.0384   -1.5317   -0.0107 H   0  0  0  0  0  0  0  0  0  0  0  0
   -3.2073   -0.3965   -0.6696 H   0  0  0  0  0  0  0  0  0  0  0  0
  1  2  1  0
  2  3  2  0
  3  4  1  0
  4  5  1  0
  5  6  1  0
  6  7  1  0
  7  8  2  0
  8  9  1  0
  9 10  2  0
 10 11  1  0
 10 12  1  0
 12 13  2  0
  5 14  1  0
 14 15  1  0
 15 16  1  0
 16 17  1  0
 17 18  1  0
 18 19  1  0
 19 20  1  0
 20 21  1  0
 14  2  1  0
 21 16  1  0
 13  7  1  0
  1 22  1  0
  1 23  1  0
  4 24  1  0
  4 25  1  0
  5 26  1  0
  6 27  1  0
  6 28  1  0
  8 29  1  0
  9 30  1  0
 11 31  1  0
 12 32  1  0
 13 33  1  0
 15 34  1  0
 15 35  1  0
 16 36  1  0
 17 37  1  0
 17 38  1  0
 18 39  1  0
 18 40  1  0
 19 41  1  0
 19 42  1  0
 20 43  1  0
 20 44  1  0
 21 45  1  0
 21 46  1  0
M  END
$$$$
