
     RDKit          3D

 47 49  0  0  0  0  0  0  0  0999 V2000
    6.2098    0.0297   -5.2115 C   0  0  0  0  0  0  0  0  0  0  0  0
    5.1673   -0.3914   -4.3403 O   0  0  0  0  0  0  0  0  0  0  0  0
    4.8053    0.4768   -3.3467 C   0  0  0  0  0  0  0  0  0  0  0  0
    5.3460    1.7394   -3.1244 C   0  0  0  0  0  0  0  0  0  0  0  0
    4.8652    2.5215   -2.0741 C   0  0  0  0  0  0  0  0  0  0  0  0
    3.8523    2.0438   -1.2353 C   0  0  0  0  0  0  0  0  0  0  0  0
    3.3166    0.7722   -1.4247 C   0  0  0  0  0  0  0  0  0  0  0  0
    2.2741    0.1963   -0.6554 N   0  0  0  0  0  0  0  0  0  0  0  0
    1.7527    0.4961    0.6001 C   0  0  0  0  0  0  0  0  0  0  0  0
    2.4812    1.5032    1.7398 S   0  0  0  0  0  0  0  0  0  0  0  0
    0.5242   -0.1662    0.8678 N   0  0  0  0  0  0  0  0  0  0  0  0
    0.0501   -1.3386    0.1089 C   0  0  0  0  0  0  0  0  0  0  0  0
   -0.9697   -2.2084    0.8458 C   0  0  0  0  0  0  0  0  0  0  0  0
   -2.1152   -1.3614    1.3145 C   0  0  0  0  0  0  0  0  0  0  0  0
   -3.4364   -1.8236    1.2944 C   0  0  0  0  0  0  0  0  0  0  0  0
   -4.4771   -1.0093    1.7544 C   0  0  0  0  0  0  0  0  0  0  0  0
   -5.8012   -1.3739    1.7642 O   0  0  0  0  0  0  0  0  0  0  0  0
   -6.1345   -2.6661    1.2798 C   0  0  0  0  0  0  0  0  0  0  0  0
   -4.1866    0.2774    2.2517 C   0  0  0  0  0  0  0  0  0  0  0  0
   -5.2624    1.0109    2.6890 O   0  0  0  0  0  0  0  0  0  0  0  0
   -5.0183    2.3325    3.1476 C   0  0  0  0  0  0  0  0  0  0  0  0
   -2.8597    0.7233    2.2860 C   0  0  0  0  0  0  0  0  0  0  0  0
   -1.8191   -0.0883    1.8119 C   0  0  0  0  0  0  0  0  0  0  0  0
   -0.3801    0.3627    1.9137 C   0  0  0  0  0  0  0  0  0  0  0  0
    3.7916    0.0078   -2.5023 C   0  0  0  0  0  0  0  0  0  0  0  0
    5.9186    0.9246   -5.7714 H   0  0  0  0  0  0  0  0  0  0  0  0
    6.3853   -0.7726   -5.9347 H   0  0  0  0  0  0  0  0  0  0  0  0
    7.1428    0.1923   -4.6617 H   0  0  0  0  0  0  0  0  0  0  0  0
    6.1310    2.1492   -3.7503 H   0  0  0  0  0  0  0  0  0  0  0  0
    5.2722    3.5165   -1.9089 H   0  0  0  0  0  0  0  0  0  0  0  0
    3.4850    2.7173   -0.4708 H   0  0  0  0  0  0  0  0  0  0  0  0
    1.8848   -0.6180   -1.0990 H   0  0  0  0  0  0  0  0  0  0  0  0
    0.9056   -1.9733   -0.1460 H   0  0  0  0  0  0  0  0  0  0  0  0
   -0.3814   -0.9564   -0.8249 H   0  0  0  0  0  0  0  0  0  0  0  0
   -0.5057   -2.6870    1.7167 H   0  0  0  0  0  0  0  0  0  0  0  0
   -1.3189   -3.0002    0.1734 H   0  0  0  0  0  0  0  0  0  0  0  0
   -3.6289   -2.8211    0.9142 H   0  0  0  0  0  0  0  0  0  0  0  0
   -7.2192   -2.7849    1.3624 H   0  0  0  0  0  0  0  0  0  0  0  0
   -5.8688   -2.7728    0.2229 H   0  0  0  0  0  0  0  0  0  0  0  0
   -5.6680   -3.4486    1.8872 H   0  0  0  0  0  0  0  0  0  0  0  0
   -4.5811    2.9520    2.3576 H   0  0  0  0  0  0  0  0  0  0  0  0
   -4.3888    2.3287    4.0434 H   0  0  0  0  0  0  0  0  0  0  0  0
   -5.9811    2.7747    3.4212 H   0  0  0  0  0  0  0  0  0  0  0  0
   -2.6077    1.7006    2.6853 H   0  0  0  0  0  0  0  0  0  0  0  0
   -0.3541    1.4576    1.8710 H   0  0  0  0  0  0  0  0  0  0  0  0
    0.0135    0.0391    2.8851 H   0  0  0  0  0  0  0  0  0  0  0  0
    3.3887   -0.9837   -2.6945 H   0  0  0  0  0  0  0  0  0  0  0  0
  1  2  1  0
  2  3  1  0
  3  4  2  0
  4  5  1  0
  5  6  2  0
  6  7  1  0
  7  8  1  0
  8  9  1  0
  9 10  2  0
  9 11  1  0
 11 12  1  0
 12 13  1  0
 13 14  1  0
 14 15  2  0
 15 16  1  0
 16 17  1  0
 17 18  1  0
 16 19  2  0
 19 20  1  0
 20 21  1  0
 19 22  1  0
 22 23  2  0
 23 24  1  0
  7 25  2  0
 25  3  1  0
 24 11  1  0
 23 14  1  0
  1 26  1  0
  1 27  1  0
  1 28  1  0
  4 29  1  0
  5 30  1  0
  6 31  1  0
  8 32  1  0
 12 33  1  0
 12 34  1  0
 13 35  1  0
 13 36  1  0
 15 37  1  0
 18 38  1  0
 18 39  1  0
 18 40  1  0
 21 41  1  0
 21 42  1  0
 21 43  1  0
 22 44  1  0
 24 45  1  0
 24 46  1  0
 25 47  1  0
M  END
$$$$
