
     RDKit          3D

 55 57  0  0  0  0  0  0  0  0999 V2000
   -0.4767    5.1986    0.8740 C   0  0  0  0  0  0  0  0  0  0  0  0
    0.6811    4.4310    1.5138 C   0  0  0  0  0  0  0  0  0  0  0  0
    1.9621    4.6213    0.7037 C   0  0  0  0  0  0  0  0  0  0  0  0
    0.3356    2.9460    1.7751 C   0  0  0  0  0  0  0  0  0  0  0  0
    0.0912    2.0679    0.5306 C   0  0  0  0  0  0  0  0  0  0  0  0
    1.3835    1.5654   -0.0908 C   0  0  0  0  0  0  0  0  0  0  0  0
    2.2493    0.9107    0.4824 O   0  0  0  0  0  0  0  0  0  0  0  0
    1.4261    1.8509   -1.4239 O   0  0  0  0  0  0  0  0  0  0  0  0
    2.4580    1.1883   -2.1608 C   0  0  0  0  0  0  0  0  0  0  0  0
    2.0717   -0.2486   -2.5410 C   0  0  0  0  0  0  0  0  0  0  0  0
    1.8960   -0.5596   -3.7162 O   0  0  0  0  0  0  0  0  0  0  0  0
    1.9617   -1.0899   -1.4461 N   0  0  0  0  0  0  0  0  0  0  0  0
    1.4722   -2.4109   -1.4128 C   0  0  0  0  0  0  0  0  0  0  0  0
    1.0813   -3.1291   -2.5456 C   0  0  0  0  0  0  0  0  0  0  0  0
    0.5811   -4.4305   -2.4246 C   0  0  0  0  0  0  0  0  0  0  0  0
    0.4678   -5.0232   -1.1685 C   0  0  0  0  0  0  0  0  0  0  0  0
    0.8573   -4.3107   -0.0376 C   0  0  0  0  0  0  0  0  0  0  0  0
    0.7177   -5.0360    1.5170 Cl  0  0  0  0  0  0  0  0  0  0  0  0
    1.3584   -3.0129   -0.1537 C   0  0  0  0  0  0  0  0  0  0  0  0
   -0.7599    0.8933    0.7596 N   0  0  0  0  0  0  0  0  0  0  0  0
   -0.7228    0.0398    1.8403 C   0  0  0  0  0  0  0  0  0  0  0  0
    0.0653    0.2789    2.8801 O   0  0  0  0  0  0  0  0  0  0  0  0
   -1.5894   -1.0036    1.5862 C   0  0  0  0  0  0  0  0  0  0  0  0
   -2.1416   -0.7964    0.2873 C   0  0  0  0  0  0  0  0  0  0  0  0
   -1.6179    0.3832   -0.1950 C   0  0  0  0  0  0  0  0  0  0  0  0
   -1.7907    1.0106   -1.3523 O   0  0  0  0  0  0  0  0  0  0  0  0
   -3.0901   -1.7539   -0.3597 C   0  0  0  0  0  0  0  0  0  0  0  0
   -3.3747   -2.9562    0.5092 C   0  0  0  0  0  0  0  0  0  0  0  0
   -2.8596   -3.1486    1.7391 C   0  0  0  0  0  0  0  0  0  0  0  0
   -1.9241   -2.1882    2.4340 C   0  0  0  0  0  0  0  0  0  0  0  0
   -1.3974    5.0672    1.4508 H   0  0  0  0  0  0  0  0  0  0  0  0
   -0.6646    4.8728   -0.1528 H   0  0  0  0  0  0  0  0  0  0  0  0
   -0.2533    6.2722    0.8416 H   0  0  0  0  0  0  0  0  0  0  0  0
    0.8559    4.8827    2.4992 H   0  0  0  0  0  0  0  0  0  0  0  0
    1.8318    4.3223   -0.3399 H   0  0  0  0  0  0  0  0  0  0  0  0
    2.2621    5.6750    0.7037 H   0  0  0  0  0  0  0  0  0  0  0  0
    2.7864    4.0431    1.1333 H   0  0  0  0  0  0  0  0  0  0  0  0
   -0.5617    2.9299    2.4105 H   0  0  0  0  0  0  0  0  0  0  0  0
    1.1487    2.5194    2.3784 H   0  0  0  0  0  0  0  0  0  0  0  0
   -0.4395    2.6764   -0.2090 H   0  0  0  0  0  0  0  0  0  0  0  0
    2.6065    1.7548   -3.0861 H   0  0  0  0  0  0  0  0  0  0  0  0
    3.4157    1.1958   -1.6275 H   0  0  0  0  0  0  0  0  0  0  0  0
    2.1979   -0.6826   -0.5407 H   0  0  0  0  0  0  0  0  0  0  0  0
    1.1546   -2.7062   -3.5426 H   0  0  0  0  0  0  0  0  0  0  0  0
    0.2833   -4.9776   -3.3157 H   0  0  0  0  0  0  0  0  0  0  0  0
    0.0776   -6.0325   -1.0800 H   0  0  0  0  0  0  0  0  0  0  0  0
    1.6456   -2.4696    0.7435 H   0  0  0  0  0  0  0  0  0  0  0  0
   -0.0414   -0.4563    3.5077 H   0  0  0  0  0  0  0  0  0  0  0  0
   -2.4081    0.4811   -1.8860 H   0  0  0  0  0  0  0  0  0  0  0  0
   -4.0354   -1.2422   -0.5768 H   0  0  0  0  0  0  0  0  0  0  0  0
   -2.6672   -2.0977   -1.3106 H   0  0  0  0  0  0  0  0  0  0  0  0
   -4.0437   -3.7042    0.0925 H   0  0  0  0  0  0  0  0  0  0  0  0
   -3.1254   -4.0459    2.2923 H   0  0  0  0  0  0  0  0  0  0  0  0
   -2.3949   -1.8485    3.3642 H   0  0  0  0  0  0  0  0  0  0  0  0
   -1.0038   -2.7169    2.7026 H   0  0  0  0  0  0  0  0  0  0  0  0
  1  2  1  0
  2  3  1  0
  2  4  1  0
  4  5  1  0
  5  6  1  0
  6  7  2  0
  6  8  1  0
  8  9  1  0
  9 10  1  0
 10 11  2  0
 10 12  1  0
 12 13  1  0
 13 14  2  0
 14 15  1  0
 15 16  2  0
 16 17  1  0
 17 18  1  0
 17 19  2  0
  5 20  1  0
 20 21  1  0
 21 22  1  0
 21 23  2  0
 23 24  1  0
 24 25  2  0
 25 26  1  0
 24 27  1  0
 27 28  1  0
 28 29  2  0
 29 30  1  0
 19 13  1  0
 25 20  1  0
 30 23  1  0
  1 31  1  0
  1 32  1  0
  1 33  1  0
  2 34  1  0
  3 35  1  0
  3 36  1  0
  3 37  1  0
  4 38  1  0
  4 39  1  0
  5 40  1  0
  9 41  1  0
  9 42  1  0
 12 43  1  0
 14 44  1  0
 15 45  1  0
 16 46  1  0
 19 47  1  0
 22 48  1  0
 26 49  1  0
 27 50  1  0
 27 51  1  0
 28 52  1  0
 29 53  1  0
 30 54  1  0
 30 55  1  0
M  END
$$$$
