
     RDKit          3D

 98 98  0  0  0  0  0  0  0  0999 V2000
   13.4390   -4.3424    1.5556 C   0  0  0  0  0  0  0  0  0  0  0  0
   13.7152   -2.8523    1.4273 C   0  0  0  0  0  0  0  0  0  0  0  0
   12.9881   -2.1943    0.2524 C   0  0  0  0  0  0  0  0  0  0  0  0
   11.4677   -2.1513    0.4267 C   0  0  0  0  0  0  0  0  0  0  0  0
   10.7306   -1.5568   -0.7786 C   0  0  0  0  0  0  0  0  0  0  0  0
   11.0112   -0.0654   -0.9905 C   0  0  0  0  0  0  0  0  0  0  0  0
   10.1827    0.5432   -2.1285 C   0  0  0  0  0  0  0  0  0  0  0  0
    8.9071    1.2652   -1.6822 C   0  0  0  0  0  0  0  0  0  0  0  0
    7.8704    0.3608   -1.0161 C   0  0  0  0  0  0  0  0  0  0  0  0
    6.5643    1.1158   -0.7496 C   0  0  0  0  0  0  0  0  0  0  0  0
    5.5468    0.2233   -0.0365 C   0  0  0  0  0  0  0  0  0  0  0  0
    4.1854    0.8945    0.1739 C   0  0  0  0  0  0  0  0  0  0  0  0
    4.2554    2.1329    1.0726 C   0  0  0  0  0  0  0  0  0  0  0  0
    2.8817    2.6387    1.5208 C   0  0  0  0  0  0  0  0  0  0  0  0
    1.9897    3.0899    0.3637 C   0  0  0  0  0  0  0  0  0  0  0  0
    0.7129    3.7198    0.8727 C   0  0  0  0  0  0  0  0  0  0  0  0
    0.6437    4.4695    1.8359 O   0  0  0  0  0  0  0  0  0  0  0  0
   -0.3323    3.3526    0.0848 O   0  0  0  0  0  0  0  0  0  0  0  0
   -1.6159    3.8752    0.4548 C   0  0  0  0  0  0  0  0  0  0  0  0
   -2.2790    2.9159    1.3982 C   0  0  0  0  0  0  0  0  0  0  0  0
   -3.2783    2.0454    1.1366 C   0  0  0  0  0  0  0  0  0  0  0  0
   -3.8310    1.8372   -0.2497 C   0  0  0  0  0  0  0  0  0  0  0  0
   -3.7547    1.1890    2.2218 C   0  0  0  0  0  0  0  0  0  0  0  0
   -4.8814    0.4667    2.3447 C   0  0  0  0  0  0  0  0  0  0  0  0
   -6.0407    0.4591    1.4791 C   0  0  0  0  0  0  0  0  0  0  0  0
   -6.8513   -0.5905    1.2381 C   0  0  0  0  0  0  0  0  0  0  0  0
   -6.6165   -1.9805    1.7816 C   0  0  0  0  0  0  0  0  0  0  0  0
   -8.0352   -0.3769    0.4036 C   0  0  0  0  0  0  0  0  0  0  0  0
   -8.8415   -1.3280   -0.0983 C   0  0  0  0  0  0  0  0  0  0  0  0
  -10.0435   -1.0363   -0.8789 C   0  0  0  0  0  0  0  0  0  0  0  0
   -9.9859   -0.3945   -2.0726 C   0  0  0  0  0  0  0  0  0  0  0  0
   -8.7084   -0.0068   -2.7832 C   0  0  0  0  0  0  0  0  0  0  0  0
  -11.2254   -0.0006   -2.8468 C   0  0  0  0  0  0  0  0  0  0  0  0
  -12.5196   -0.1032   -2.0493 C   0  0  0  0  0  0  0  0  0  0  0  0
  -12.5499   -1.3984   -1.2558 C   0  0  0  0  0  0  0  0  0  0  0  0
  -11.3758   -1.4981   -0.2433 C   0  0  0  0  0  0  0  0  0  0  0  0
  -11.6874   -0.6145    0.9865 C   0  0  0  0  0  0  0  0  0  0  0  0
  -11.3264   -2.9740    0.2221 C   0  0  0  0  0  0  0  0  0  0  0  0
   13.6573   -4.8659    0.6198 H   0  0  0  0  0  0  0  0  0  0  0  0
   14.0673   -4.7732    2.3414 H   0  0  0  0  0  0  0  0  0  0  0  0
   12.3977   -4.5372    1.8241 H   0  0  0  0  0  0  0  0  0  0  0  0
   14.7941   -2.7119    1.2903 H   0  0  0  0  0  0  0  0  0  0  0  0
   13.4446   -2.3488    2.3629 H   0  0  0  0  0  0  0  0  0  0  0  0
   13.3713   -1.1722    0.1538 H   0  0  0  0  0  0  0  0  0  0  0  0
   13.2406   -2.7191   -0.6764 H   0  0  0  0  0  0  0  0  0  0  0  0
   11.0877   -3.1668    0.5783 H   0  0  0  0  0  0  0  0  0  0  0  0
   11.2150   -1.5815    1.3288 H   0  0  0  0  0  0  0  0  0  0  0  0
   11.0011   -2.1140   -1.6847 H   0  0  0  0  0  0  0  0  0  0  0  0
    9.6581   -1.7173   -0.6271 H   0  0  0  0  0  0  0  0  0  0  0  0
   12.0701    0.0499   -1.2513 H   0  0  0  0  0  0  0  0  0  0  0  0
   10.8541    0.4929   -0.0600 H   0  0  0  0  0  0  0  0  0  0  0  0
    9.9430   -0.2165   -2.8819 H   0  0  0  0  0  0  0  0  0  0  0  0
   10.8081    1.2913   -2.6337 H   0  0  0  0  0  0  0  0  0  0  0  0
    9.1716    2.0812   -0.9978 H   0  0  0  0  0  0  0  0  0  0  0  0
    8.4590    1.7371   -2.5660 H   0  0  0  0  0  0  0  0  0  0  0  0
    8.2648   -0.0125   -0.0634 H   0  0  0  0  0  0  0  0  0  0  0  0
    7.6683   -0.5057   -1.6579 H   0  0  0  0  0  0  0  0  0  0  0  0
    6.7814    2.0020   -0.1412 H   0  0  0  0  0  0  0  0  0  0  0  0
    6.1428    1.4686   -1.6984 H   0  0  0  0  0  0  0  0  0  0  0  0
    5.3925   -0.6891   -0.6263 H   0  0  0  0  0  0  0  0  0  0  0  0
    5.9498   -0.0936    0.9336 H   0  0  0  0  0  0  0  0  0  0  0  0
    3.5090    0.1571    0.6230 H   0  0  0  0  0  0  0  0  0  0  0  0
    3.7633    1.1640   -0.8016 H   0  0  0  0  0  0  0  0  0  0  0  0
    4.8421    1.8968    1.9686 H   0  0  0  0  0  0  0  0  0  0  0  0
    4.7802    2.9434    0.5533 H   0  0  0  0  0  0  0  0  0  0  0  0
    3.0365    3.4744    2.2139 H   0  0  0  0  0  0  0  0  0  0  0  0
    2.3686    1.8585    2.0972 H   0  0  0  0  0  0  0  0  0  0  0  0
    2.5001    3.8286   -0.2634 H   0  0  0  0  0  0  0  0  0  0  0  0
    1.7335    2.2255   -0.2610 H   0  0  0  0  0  0  0  0  0  0  0  0
   -1.5376    4.8689    0.9110 H   0  0  0  0  0  0  0  0  0  0  0  0
   -2.1860    4.0184   -0.4664 H   0  0  0  0  0  0  0  0  0  0  0  0
   -1.8917    2.9913    2.4136 H   0  0  0  0  0  0  0  0  0  0  0  0
   -4.0143    0.7759   -0.4506 H   0  0  0  0  0  0  0  0  0  0  0  0
   -4.7621    2.3932   -0.3832 H   0  0  0  0  0  0  0  0  0  0  0  0
   -3.1355    2.1597   -1.0299 H   0  0  0  0  0  0  0  0  0  0  0  0
   -3.0576    1.1020    3.0582 H   0  0  0  0  0  0  0  0  0  0  0  0
   -4.9749   -0.1446    3.2416 H   0  0  0  0  0  0  0  0  0  0  0  0
   -6.2701    1.4209    1.0243 H   0  0  0  0  0  0  0  0  0  0  0  0
   -6.5346   -2.7077    0.9661 H   0  0  0  0  0  0  0  0  0  0  0  0
   -5.6936   -2.0691    2.3601 H   0  0  0  0  0  0  0  0  0  0  0  0
   -7.4412   -2.2789    2.4366 H   0  0  0  0  0  0  0  0  0  0  0  0
   -8.2822    0.6618    0.1871 H   0  0  0  0  0  0  0  0  0  0  0  0
   -8.6512   -2.3807    0.0870 H   0  0  0  0  0  0  0  0  0  0  0  0
   -8.5372    1.0719   -2.6830 H   0  0  0  0  0  0  0  0  0  0  0  0
   -7.8256   -0.5338   -2.4128 H   0  0  0  0  0  0  0  0  0  0  0  0
   -8.7814   -0.2418   -3.8507 H   0  0  0  0  0  0  0  0  0  0  0  0
  -11.2961   -0.6411   -3.7353 H   0  0  0  0  0  0  0  0  0  0  0  0
  -11.1260    1.0329   -3.2065 H   0  0  0  0  0  0  0  0  0  0  0  0
  -12.6209    0.7608   -1.3800 H   0  0  0  0  0  0  0  0  0  0  0  0
  -13.3746   -0.0664   -2.7349 H   0  0  0  0  0  0  0  0  0  0  0  0
  -13.5109   -1.4805   -0.7339 H   0  0  0  0  0  0  0  0  0  0  0  0
  -12.5112   -2.2398   -1.9593 H   0  0  0  0  0  0  0  0  0  0  0  0
  -11.7050    0.4479    0.7262 H   0  0  0  0  0  0  0  0  0  0  0  0
  -10.9430   -0.7462    1.7804 H   0  0  0  0  0  0  0  0  0  0  0  0
  -12.6626   -0.8663    1.4161 H   0  0  0  0  0  0  0  0  0  0  0  0
  -11.0138   -3.6361   -0.5941 H   0  0  0  0  0  0  0  0  0  0  0  0
  -12.3123   -3.3112    0.5649 H   0  0  0  0  0  0  0  0  0  0  0  0
  -10.6319   -3.1204    1.0574 H   0  0  0  0  0  0  0  0  0  0  0  0
  1  2  1  0
  2  3  1  0
  3  4  1  0
  4  5  1  0
  5  6  1  0
  6  7  1  0
  7  8  1  0
  8  9  1  0
  9 10  1  0
 10 11  1  0
 11 12  1  0
 12 13  1  0
 13 14  1  0
 14 15  1  0
 15 16  1  0
 16 17  2  0
 16 18  1  0
 18 19  1  0
 19 20  1  0
 20 21  2  3
 21 22  1  0
 21 23  1  0
 23 24  2  3
 24 25  1  0
 25 26  2  3
 26 27  1  0
 26 28  1  0
 28 29  2  3
 29 30  1  0
 30 31  2  0
 31 32  1  0
 31 33  1  0
 33 34  1  0
 34 35  1  0
 35 36  1  0
 36 37  1  0
 36 38  1  0
 36 30  1  0
  1 39  1  0
  1 40  1  0
  1 41  1  0
  2 42  1  0
  2 43  1  0
  3 44  1  0
  3 45  1  0
  4 46  1  0
  4 47  1  0
  5 48  1  0
  5 49  1  0
  6 50  1  0
  6 51  1  0
  7 52  1  0
  7 53  1  0
  8 54  1  0
  8 55  1  0
  9 56  1  0
  9 57  1  0
 10 58  1  0
 10 59  1  0
 11 60  1  0
 11 61  1  0
 12 62  1  0
 12 63  1  0
 13 64  1  0
 13 65  1  0
 14 66  1  0
 14 67  1  0
 15 68  1  0
 15 69  1  0
 19 70  1  0
 19 71  1  0
 20 72  1  0
 22 73  1  0
 22 74  1  0
 22 75  1  0
 23 76  1  0
 24 77  1  0
 25 78  1  0
 27 79  1  0
 27 80  1  0
 27 81  1  0
 28 82  1  0
 29 83  1  0
 32 84  1  0
 32 85  1  0
 32 86  1  0
 33 87  1  0
 33 88  1  0
 34 89  1  0
 34 90  1  0
 35 91  1  0
 35 92  1  0
 37 93  1  0
 37 94  1  0
 37 95  1  0
 38 96  1  0
 38 97  1  0
 38 98  1  0
M  END
$$$$
