
     RDKit          3D

 26 27  0  0  0  0  0  0  0  0999 V2000
    4.5813    1.0812   -0.4359 O   0  0  0  0  0  0  0  0  0  0  0  0
    3.4677    0.8428   -0.8661 C   0  0  0  0  0  0  0  0  0  0  0  0
    3.0805    1.2737   -2.0787 O   0  0  0  0  0  0  0  0  0  0  0  0
    2.4123    0.0732   -0.1634 C   0  0  0  0  0  0  0  0  0  0  0  0
    2.7140   -0.4668    1.0923 C   0  0  0  0  0  0  0  0  0  0  0  0
    1.7512   -1.1942    1.7917 C   0  0  0  0  0  0  0  0  0  0  0  0
    0.4842   -1.3864    1.2394 C   0  0  0  0  0  0  0  0  0  0  0  0
    0.1652   -0.8583   -0.0201 C   0  0  0  0  0  0  0  0  0  0  0  0
   -1.2156   -1.0524   -0.6069 C   0  0  0  0  0  0  0  0  0  0  0  0
   -2.0882    0.0743   -0.3518 N   0  0  0  0  0  0  0  0  0  0  0  0
   -2.8349    0.2255    0.7910 C   0  0  0  0  0  0  0  0  0  0  0  0
   -2.8082   -0.7536    1.7391 O   0  0  0  0  0  0  0  0  0  0  0  0
   -3.5425    1.3596    0.8466 C   0  0  0  0  0  0  0  0  0  0  0  0
   -3.2987    2.3248   -0.5768 S   0  0  0  0  0  0  0  0  0  0  0  0
   -2.1867    1.1188   -1.2556 C   0  0  0  0  0  0  0  0  0  0  0  0
   -1.6390    1.2424   -2.3384 O   0  0  0  0  0  0  0  0  0  0  0  0
    1.1386   -0.1212   -0.7151 C   0  0  0  0  0  0  0  0  0  0  0  0
    3.8580    1.7618   -2.4203 H   0  0  0  0  0  0  0  0  0  0  0  0
    3.6995   -0.3200    1.5299 H   0  0  0  0  0  0  0  0  0  0  0  0
    1.9876   -1.6087    2.7685 H   0  0  0  0  0  0  0  0  0  0  0  0
   -0.2601   -1.9487    1.8006 H   0  0  0  0  0  0  0  0  0  0  0  0
   -1.1220   -1.1979   -1.6908 H   0  0  0  0  0  0  0  0  0  0  0  0
   -1.6759   -1.9706   -0.2214 H   0  0  0  0  0  0  0  0  0  0  0  0
   -3.3720   -0.4737    2.4805 H   0  0  0  0  0  0  0  0  0  0  0  0
   -4.1929    1.6704    1.6506 H   0  0  0  0  0  0  0  0  0  0  0  0
    0.8965    0.3040   -1.6884 H   0  0  0  0  0  0  0  0  0  0  0  0
  1  2  2  0
  2  3  1  0
  2  4  1  0
  4  5  2  0
  5  6  1  0
  6  7  2  0
  7  8  1  0
  8  9  1  0
  9 10  1  0
 10 11  1  0
 11 12  1  0
 11 13  2  0
 13 14  1  0
 14 15  1  0
 15 16  2  0
  8 17  2  0
 17  4  1  0
 15 10  1  0
  3 18  1  0
  5 19  1  0
  6 20  1  0
  7 21  1  0
  9 22  1  0
  9 23  1  0
 12 24  1  0
 13 25  1  0
 17 26  1  0
M  END
$$$$
