
     RDKit          3D

 64 68  0  0  0  0  0  0  0  0999 V2000
   -5.2410    1.5301   -2.6027 C   0  0  0  0  0  0  0  0  0  0  0  0
   -4.8309    0.1293   -2.1200 C   0  0  0  0  0  0  0  0  0  0  0  0
   -5.4623   -0.1603   -0.7511 C   0  0  0  0  0  0  0  0  0  0  0  0
   -5.3927   -0.8986   -3.1232 C   0  0  0  0  0  0  0  0  0  0  0  0
   -3.2814    0.0369   -2.1445 C   0  0  0  0  0  0  0  0  0  0  0  0
   -2.6858   -0.1892   -3.2030 O   0  0  0  0  0  0  0  0  0  0  0  0
   -2.4574    0.3440   -0.9299 C   0  0  0  0  0  0  0  0  0  0  0  0
   -2.7906    1.5440   -0.2381 C   0  0  0  0  0  0  0  0  0  0  0  0
   -3.0927    2.5126    0.3245 N   0  0  0  0  0  0  0  0  0  0  0  0
   -1.3273   -0.3493   -0.6472 C   0  0  0  0  0  0  0  0  0  0  0  0
   -0.1240    0.2961    0.4576 S   0  0  0  0  0  0  0  0  0  0  0  0
    1.1016   -0.6914   -0.2352 C   0  0  0  0  0  0  0  0  0  0  0  0
    2.4277   -0.5762   -0.0715 C   0  0  0  0  0  0  0  0  0  0  0  0
    3.0986    0.3680    0.7584 C   0  0  0  0  0  0  0  0  0  0  0  0
    3.9557    1.3350    0.2916 C   0  0  0  0  0  0  0  0  0  0  0  0
    4.3518    2.0752    1.3843 N   0  0  0  0  0  0  0  0  0  0  0  0
    5.2091    3.2121    1.4087 C   0  0  0  0  0  0  0  0  0  0  0  0
    5.7987    3.7063    0.2370 C   0  0  0  0  0  0  0  0  0  0  0  0
    6.6290    4.8300    0.2904 C   0  0  0  0  0  0  0  0  0  0  0  0
    6.8771    5.4641    1.5066 C   0  0  0  0  0  0  0  0  0  0  0  0
    6.2993    4.9760    2.6765 C   0  0  0  0  0  0  0  0  0  0  0  0
    5.4685    3.8543    2.6305 C   0  0  0  0  0  0  0  0  0  0  0  0
    3.8037    1.5954    2.5299 N   0  0  0  0  0  0  0  0  0  0  0  0
    3.0643    0.5377    2.1688 C   0  0  0  0  0  0  0  0  0  0  0  0
    2.3680   -0.2582    3.1733 C   0  0  0  0  0  0  0  0  0  0  0  0
    2.3405   -1.6548    3.1197 C   0  0  0  0  0  0  0  0  0  0  0  0
    1.6548   -2.3722    4.0988 C   0  0  0  0  0  0  0  0  0  0  0  0
    1.0171   -1.6665    5.1052 C   0  0  0  0  0  0  0  0  0  0  0  0
    1.0229   -0.3203    5.1968 N   0  0  0  0  0  0  0  0  0  0  0  0
    1.7075    0.3518    4.2351 C   0  0  0  0  0  0  0  0  0  0  0  0
    0.5188   -1.7571   -1.0926 C   0  0  0  0  0  0  0  0  0  0  0  0
    1.1909   -2.6846   -1.5253 O   0  0  0  0  0  0  0  0  0  0  0  0
   -0.8646   -1.5374   -1.2255 N   0  0  0  0  0  0  0  0  0  0  0  0
   -1.6773   -2.6026   -1.7267 C   0  0  0  0  0  0  0  0  0  0  0  0
   -1.2895   -3.3431   -2.8541 C   0  0  0  0  0  0  0  0  0  0  0  0
   -2.0726   -4.4057   -3.3138 C   0  0  0  0  0  0  0  0  0  0  0  0
   -3.2355   -4.7422   -2.6358 C   0  0  0  0  0  0  0  0  0  0  0  0
   -3.9848   -5.7631   -3.0710 F   0  0  0  0  0  0  0  0  0  0  0  0
   -3.6295   -4.0394   -1.5049 C   0  0  0  0  0  0  0  0  0  0  0  0
   -2.8528   -2.9698   -1.0508 C   0  0  0  0  0  0  0  0  0  0  0  0
   -6.3297    1.6192   -2.6820 H   0  0  0  0  0  0  0  0  0  0  0  0
   -4.8970    2.3128   -1.9212 H   0  0  0  0  0  0  0  0  0  0  0  0
   -4.8132    1.7509   -3.5872 H   0  0  0  0  0  0  0  0  0  0  0  0
   -6.5456   -0.3058   -0.8380 H   0  0  0  0  0  0  0  0  0  0  0  0
   -5.3145    0.6618   -0.0453 H   0  0  0  0  0  0  0  0  0  0  0  0
   -5.0404   -1.0612   -0.2930 H   0  0  0  0  0  0  0  0  0  0  0  0
   -4.9571   -0.7742   -4.1219 H   0  0  0  0  0  0  0  0  0  0  0  0
   -6.4798   -0.7984   -3.2277 H   0  0  0  0  0  0  0  0  0  0  0  0
   -5.1854   -1.9235   -2.8000 H   0  0  0  0  0  0  0  0  0  0  0  0
    3.0736   -1.2535   -0.6287 H   0  0  0  0  0  0  0  0  0  0  0  0
    4.2812    1.5690   -0.7104 H   0  0  0  0  0  0  0  0  0  0  0  0
    5.6439    3.2415   -0.7305 H   0  0  0  0  0  0  0  0  0  0  0  0
    7.0831    5.2111   -0.6202 H   0  0  0  0  0  0  0  0  0  0  0  0
    7.5225    6.3381    1.5451 H   0  0  0  0  0  0  0  0  0  0  0  0
    6.4952    5.4664    3.6274 H   0  0  0  0  0  0  0  0  0  0  0  0
    5.0282    3.4917    3.5578 H   0  0  0  0  0  0  0  0  0  0  0  0
    2.8671   -2.1941    2.3373 H   0  0  0  0  0  0  0  0  0  0  0  0
    1.6277   -3.4553    4.0828 H   0  0  0  0  0  0  0  0  0  0  0  0
    0.4735   -2.1813    5.8923 H   0  0  0  0  0  0  0  0  0  0  0  0
    1.7012    1.4333    4.3460 H   0  0  0  0  0  0  0  0  0  0  0  0
   -0.3862   -3.0890   -3.4041 H   0  0  0  0  0  0  0  0  0  0  0  0
   -1.7771   -4.9700   -4.1926 H   0  0  0  0  0  0  0  0  0  0  0  0
   -4.5323   -4.3343   -0.9798 H   0  0  0  0  0  0  0  0  0  0  0  0
   -3.1519   -2.4720   -0.1330 H   0  0  0  0  0  0  0  0  0  0  0  0
  1  2  1  0
  2  3  1  0
  2  4  1  0
  2  5  1  0
  5  6  2  0
  5  7  1  0
  7  8  1  0
  8  9  3  0
  7 10  2  3
 10 11  1  0
 11 12  1  0
 12 13  2  3
 13 14  1  0
 14 15  2  0
 15 16  1  0
 16 17  1  0
 17 18  2  0
 18 19  1  0
 19 20  2  0
 20 21  1  0
 21 22  2  0
 16 23  1  0
 23 24  2  0
 24 25  1  0
 25 26  2  0
 26 27  1  0
 27 28  2  0
 28 29  1  0
 29 30  2  0
 12 31  1  0
 31 32  2  0
 31 33  1  0
 33 34  1  0
 34 35  2  0
 35 36  1  0
 36 37  2  0
 37 38  1  0
 37 39  1  0
 39 40  2  0
 33 10  1  0
 40 34  1  0
 24 14  1  0
 30 25  1  0
 22 17  1  0
  1 41  1  0
  1 42  1  0
  1 43  1  0
  3 44  1  0
  3 45  1  0
  3 46  1  0
  4 47  1  0
  4 48  1  0
  4 49  1  0
 13 50  1  0
 15 51  1  0
 18 52  1  0
 19 53  1  0
 20 54  1  0
 21 55  1  0
 22 56  1  0
 26 57  1  0
 27 58  1  0
 28 59  1  0
 30 60  1  0
 35 61  1  0
 36 62  1  0
 39 63  1  0
 40 64  1  0
M  END
$$$$
