
     RDKit          3D

 41 42  0  0  0  0  0  0  0  0999 V2000
   -5.5060    0.9269    3.0608 C   0  0  0  0  0  0  0  0  0  0  0  0
   -6.2481    0.8506    1.7464 C   0  0  0  0  0  0  0  0  0  0  0  0
   -7.4823    0.8973    1.7639 O   0  0  0  0  0  0  0  0  0  0  0  0
   -5.5170    0.8070    0.5582 N   0  0  0  0  0  0  0  0  0  0  0  0
   -6.2411    1.1080   -0.6743 C   0  0  0  0  0  0  0  0  0  0  0  0
   -4.1285    0.4929    0.4408 C   0  0  0  0  0  0  0  0  0  0  0  0
   -3.3403    1.1025   -0.5402 C   0  0  0  0  0  0  0  0  0  0  0  0
   -1.9823    0.7835   -0.6728 C   0  0  0  0  0  0  0  0  0  0  0  0
   -1.3726   -0.1682    0.1548 C   0  0  0  0  0  0  0  0  0  0  0  0
    0.0010   -0.3982   -0.0751 N   0  0  0  0  0  0  0  0  0  0  0  0
    0.9379   -1.2329    0.4873 C   0  0  0  0  0  0  0  0  0  0  0  0
    0.7852   -2.3610    1.7083 S   0  0  0  0  0  0  0  0  0  0  0  0
    2.2147   -1.1108   -0.0467 N   0  0  0  0  0  0  0  0  0  0  0  0
    2.6625   -0.2692   -1.0462 C   0  0  0  0  0  0  0  0  0  0  0  0
    1.9368    0.4640   -1.7107 O   0  0  0  0  0  0  0  0  0  0  0  0
    4.1101   -0.3566   -1.3419 C   0  0  0  0  0  0  0  0  0  0  0  0
    5.0443   -0.4585   -0.3851 C   0  0  0  0  0  0  0  0  0  0  0  0
    6.4243   -0.5048   -0.7252 C   0  0  0  0  0  0  0  0  0  0  0  0
    7.5254   -0.5560    0.1224 C   0  0  0  0  0  0  0  0  0  0  0  0
    8.6919   -0.5914   -0.6782 C   0  0  0  0  0  0  0  0  0  0  0  0
    8.2544   -0.5617   -1.9768 C   0  0  0  0  0  0  0  0  0  0  0  0
    6.9015   -0.5113   -2.0180 O   0  0  0  0  0  0  0  0  0  0  0  0
   -2.1620   -0.7967    1.1116 C   0  0  0  0  0  0  0  0  0  0  0  0
   -3.5232   -0.4747    1.2476 C   0  0  0  0  0  0  0  0  0  0  0  0
   -4.5342    1.4147    2.9589 H   0  0  0  0  0  0  0  0  0  0  0  0
   -6.0923    1.5400    3.7538 H   0  0  0  0  0  0  0  0  0  0  0  0
   -5.4017   -0.0709    3.4920 H   0  0  0  0  0  0  0  0  0  0  0  0
   -6.1002    2.1661   -0.9166 H   0  0  0  0  0  0  0  0  0  0  0  0
   -5.8788    0.4797   -1.4946 H   0  0  0  0  0  0  0  0  0  0  0  0
   -7.3141    0.9241   -0.5670 H   0  0  0  0  0  0  0  0  0  0  0  0
   -3.7515    1.8609   -1.2008 H   0  0  0  0  0  0  0  0  0  0  0  0
   -1.4065    1.2987   -1.4399 H   0  0  0  0  0  0  0  0  0  0  0  0
    0.3872    0.1678   -0.8337 H   0  0  0  0  0  0  0  0  0  0  0  0
    2.8771   -1.7514    0.3689 H   0  0  0  0  0  0  0  0  0  0  0  0
    4.3649   -0.2530   -2.3926 H   0  0  0  0  0  0  0  0  0  0  0  0
    4.7837   -0.4850    0.6683 H   0  0  0  0  0  0  0  0  0  0  0  0
    7.4860   -0.5643    1.2033 H   0  0  0  0  0  0  0  0  0  0  0  0
    9.7207   -0.6324   -0.3492 H   0  0  0  0  0  0  0  0  0  0  0  0
    8.7518   -0.5699   -2.9367 H   0  0  0  0  0  0  0  0  0  0  0  0
   -1.7772   -1.5595    1.7747 H   0  0  0  0  0  0  0  0  0  0  0  0
   -4.1015   -1.0459    1.9680 H   0  0  0  0  0  0  0  0  0  0  0  0
  1  2  1  0
  2  3  2  0
  2  4  1  0
  4  5  1  0
  4  6  1  0
  6  7  2  0
  7  8  1  0
  8  9  2  0
  9 10  1  0
 10 11  1  0
 11 12  2  0
 11 13  1  0
 13 14  1  0
 14 15  2  0
 14 16  1  0
 16 17  2  3
 17 18  1  0
 18 19  2  0
 19 20  1  0
 20 21  2  0
 21 22  1  0
  9 23  1  0
 23 24  2  0
 24  6  1  0
 22 18  1  0
  1 25  1  0
  1 26  1  0
  1 27  1  0
  5 28  1  0
  5 29  1  0
  5 30  1  0
  7 31  1  0
  8 32  1  0
 10 33  1  0
 13 34  1  0
 16 35  1  0
 17 36  1  0
 19 37  1  0
 20 38  1  0
 21 39  1  0
 23 40  1  0
 24 41  1  0
M  END
$$$$
