
     RDKit          3D

 61 65  0  0  0  0  0  0  0  0999 V2000
   -4.7822   -0.9984   -2.4858 C   0  0  0  0  0  0  0  0  0  0  0  0
   -4.3320   -0.6449   -1.1859 O   0  0  0  0  0  0  0  0  0  0  0  0
   -3.6756   -1.6053   -0.4573 C   0  0  0  0  0  0  0  0  0  0  0  0
   -3.3432   -2.8758   -0.9425 C   0  0  0  0  0  0  0  0  0  0  0  0
   -2.6575   -3.7880   -0.1347 C   0  0  0  0  0  0  0  0  0  0  0  0
   -2.2945   -3.4412    1.1633 C   0  0  0  0  0  0  0  0  0  0  0  0
   -2.6183   -2.1795    1.6583 C   0  0  0  0  0  0  0  0  0  0  0  0
   -3.3110   -1.2550    0.8593 C   0  0  0  0  0  0  0  0  0  0  0  0
   -3.6202    0.0666    1.4210 C   0  0  0  0  0  0  0  0  0  0  0  0
   -5.1517    0.3035    2.1416 S   0  0  0  0  0  0  0  0  0  0  0  0
   -4.8012    1.9343    2.5558 C   0  0  0  0  0  0  0  0  0  0  0  0
   -5.6548    2.8386    3.2196 C   0  0  0  0  0  0  0  0  0  0  0  0
   -5.2040    4.1350    3.4754 C   0  0  0  0  0  0  0  0  0  0  0  0
   -3.9342    4.5288    3.0808 C   0  0  0  0  0  0  0  0  0  0  0  0
   -3.0910    3.6282    2.4234 C   0  0  0  0  0  0  0  0  0  0  0  0
   -3.5160    2.3013    2.1506 C   0  0  0  0  0  0  0  0  0  0  0  0
   -2.8365    1.2061    1.4950 C   0  0  0  0  0  0  0  0  0  0  0  0
   -1.4789    1.2356    0.9642 C   0  0  0  0  0  0  0  0  0  0  0  0
   -1.2576    1.2601   -0.4148 C   0  0  0  0  0  0  0  0  0  0  0  0
    0.0475    1.2911   -0.9109 C   0  0  0  0  0  0  0  0  0  0  0  0
    1.1412    1.2997   -0.0410 C   0  0  0  0  0  0  0  0  0  0  0  0
    2.3597    1.3287   -0.6599 O   0  0  0  0  0  0  0  0  0  0  0  0
    3.5187    1.2388    0.1720 C   0  0  0  0  0  0  0  0  0  0  0  0
    4.7873    1.2129   -0.7060 C   0  0  0  0  0  0  0  0  0  0  0  0
    5.1297   -0.0517   -1.3790 N   0  0  0  0  0  0  0  0  0  0  0  0
    4.0759   -0.5633   -2.2503 C   0  0  0  0  0  0  0  0  0  0  0  0
    4.6446   -1.6360   -3.1873 C   0  0  0  0  0  0  0  0  0  0  0  0
    5.6647   -2.5545   -2.5098 C   0  0  0  0  0  0  0  0  0  0  0  0
    5.5294   -2.5052   -0.9949 C   0  0  0  0  0  0  0  0  0  0  0  0
    5.6627   -1.0701   -0.4666 C   0  0  0  0  0  0  0  0  0  0  0  0
    0.9196    1.2854    1.3366 C   0  0  0  0  0  0  0  0  0  0  0  0
   -0.3867    1.2537    1.8378 C   0  0  0  0  0  0  0  0  0  0  0  0
   -3.9384   -1.2146   -3.1489 H   0  0  0  0  0  0  0  0  0  0  0  0
   -5.4837   -1.8383   -2.4483 H   0  0  0  0  0  0  0  0  0  0  0  0
   -5.3168   -0.1377   -2.8995 H   0  0  0  0  0  0  0  0  0  0  0  0
   -3.5985   -3.1879   -1.9496 H   0  0  0  0  0  0  0  0  0  0  0  0
   -2.4039   -4.7711   -0.5236 H   0  0  0  0  0  0  0  0  0  0  0  0
   -1.7588   -4.1501    1.7890 H   0  0  0  0  0  0  0  0  0  0  0  0
   -2.3289   -1.9136    2.6725 H   0  0  0  0  0  0  0  0  0  0  0  0
   -6.6511    2.5327    3.5262 H   0  0  0  0  0  0  0  0  0  0  0  0
   -5.8567    4.8398    3.9850 H   0  0  0  0  0  0  0  0  0  0  0  0
   -3.5915    5.5413    3.2790 H   0  0  0  0  0  0  0  0  0  0  0  0
   -2.1002    3.9527    2.1134 H   0  0  0  0  0  0  0  0  0  0  0  0
   -2.0957    1.2522   -1.1078 H   0  0  0  0  0  0  0  0  0  0  0  0
    0.2126    1.3059   -1.9852 H   0  0  0  0  0  0  0  0  0  0  0  0
    3.5678    2.1316    0.8075 H   0  0  0  0  0  0  0  0  0  0  0  0
    3.4718    0.3479    0.8075 H   0  0  0  0  0  0  0  0  0  0  0  0
    5.6436    1.5084   -0.0863 H   0  0  0  0  0  0  0  0  0  0  0  0
    4.6949    1.9873   -1.4782 H   0  0  0  0  0  0  0  0  0  0  0  0
    3.6571    0.2372   -2.8721 H   0  0  0  0  0  0  0  0  0  0  0  0
    3.2491   -0.9842   -1.6642 H   0  0  0  0  0  0  0  0  0  0  0  0
    5.1200   -1.1626   -4.0555 H   0  0  0  0  0  0  0  0  0  0  0  0
    3.8134   -2.2352   -3.5786 H   0  0  0  0  0  0  0  0  0  0  0  0
    6.6776   -2.2387   -2.7903 H   0  0  0  0  0  0  0  0  0  0  0  0
    5.5457   -3.5811   -2.8739 H   0  0  0  0  0  0  0  0  0  0  0  0
    6.2872   -3.1437   -0.5269 H   0  0  0  0  0  0  0  0  0  0  0  0
    4.5507   -2.9117   -0.7091 H   0  0  0  0  0  0  0  0  0  0  0  0
    6.7249   -0.8504   -0.3042 H   0  0  0  0  0  0  0  0  0  0  0  0
    5.1830   -1.0352    0.5180 H   0  0  0  0  0  0  0  0  0  0  0  0
    1.7370    1.2999    2.0492 H   0  0  0  0  0  0  0  0  0  0  0  0
   -0.5462    1.2394    2.9137 H   0  0  0  0  0  0  0  0  0  0  0  0
  1  2  1  0
  2  3  1  0
  3  4  2  0
  4  5  1  0
  5  6  2  0
  6  7  1  0
  7  8  2  0
  8  9  1  0
  9 10  1  0
 10 11  1  0
 11 12  2  0
 12 13  1  0
 13 14  2  0
 14 15  1  0
 15 16  2  0
 16 17  1  0
 17 18  1  0
 18 19  2  0
 19 20  1  0
 20 21  2  0
 21 22  1  0
 22 23  1  0
 23 24  1  0
 24 25  1  0
 25 26  1  0
 26 27  1  0
 27 28  1  0
 28 29  1  0
 29 30  1  0
 21 31  1  0
 31 32  2  0
  8  3  1  0
 17  9  2  0
 32 18  1  0
 16 11  1  0
 30 25  1  0
  1 33  1  0
  1 34  1  0
  1 35  1  0
  4 36  1  0
  5 37  1  0
  6 38  1  0
  7 39  1  0
 12 40  1  0
 13 41  1  0
 14 42  1  0
 15 43  1  0
 19 44  1  0
 20 45  1  0
 23 46  1  0
 23 47  1  0
 24 48  1  0
 24 49  1  0
 26 50  1  0
 26 51  1  0
 27 52  1  0
 27 53  1  0
 28 54  1  0
 28 55  1  0
 29 56  1  0
 29 57  1  0
 30 58  1  0
 30 59  1  0
 31 60  1  0
 32 61  1  0
M  END
$$$$
