
     RDKit          3D

 46 48  0  0  0  0  0  0  0  0999 V2000
   -6.0660    1.8474    3.5049 C   0  0  0  0  0  0  0  0  0  0  0  0
   -5.9940    1.5658    2.0536 C   0  0  0  0  0  0  0  0  0  0  0  0
   -6.9813    2.1126    1.2911 O   0  0  0  0  0  0  0  0  0  0  0  0
   -6.7458    1.7439    0.0099 C   0  0  0  0  0  0  0  0  0  0  0  0
   -5.6162    0.9646   -0.0644 C   0  0  0  0  0  0  0  0  0  0  0  0
   -5.1093    0.8413    1.2667 C   0  0  0  0  0  0  0  0  0  0  0  0
   -3.9420    0.1307    1.7764 C   0  0  0  0  0  0  0  0  0  0  0  0
   -3.6775    0.0720    2.9732 O   0  0  0  0  0  0  0  0  0  0  0  0
   -3.1565   -0.4605    0.8120 N   0  0  0  0  0  0  0  0  0  0  0  0
   -1.8975   -1.0869    1.1392 C   0  0  0  0  0  0  0  0  0  0  0  0
   -0.7457   -0.1740    0.8041 C   0  0  0  0  0  0  0  0  0  0  0  0
   -0.3899    0.8601    1.6808 C   0  0  0  0  0  0  0  0  0  0  0  0
    0.6606    1.7223    1.3695 C   0  0  0  0  0  0  0  0  0  0  0  0
    1.3625    1.5649    0.1754 C   0  0  0  0  0  0  0  0  0  0  0  0
    1.0147    0.5485   -0.7245 C   0  0  0  0  0  0  0  0  0  0  0  0
    1.7965    0.3634   -1.9971 C   0  0  0  0  0  0  0  0  0  0  0  0
    3.0165   -0.3606   -1.7392 N   0  0  0  0  0  0  0  0  0  0  0  0
    3.9337   -0.5589   -2.7436 C   0  0  0  0  0  0  0  0  0  0  0  0
    3.7891   -0.0893   -3.8682 O   0  0  0  0  0  0  0  0  0  0  0  0
    5.0666   -1.4098   -2.4079 C   0  0  0  0  0  0  0  0  0  0  0  0
    5.8956   -2.1008   -3.3452 C   0  0  0  0  0  0  0  0  0  0  0  0
    6.8396   -2.7815   -2.6188 C   0  0  0  0  0  0  0  0  0  0  0  0
    6.6701   -2.5480   -1.2955 O   0  0  0  0  0  0  0  0  0  0  0  0
    5.6093   -1.6998   -1.1631 C   0  0  0  0  0  0  0  0  0  0  0  0
    5.3172   -1.2812    0.2262 C   0  0  0  0  0  0  0  0  0  0  0  0
   -0.0385   -0.3202   -0.3990 C   0  0  0  0  0  0  0  0  0  0  0  0
   -5.1637    2.3687    3.8395 H   0  0  0  0  0  0  0  0  0  0  0  0
   -6.9280    2.4782    3.7450 H   0  0  0  0  0  0  0  0  0  0  0  0
   -6.1624    0.9163    4.0715 H   0  0  0  0  0  0  0  0  0  0  0  0
   -7.4579    2.1057   -0.7189 H   0  0  0  0  0  0  0  0  0  0  0  0
   -5.2196    0.5381   -0.9738 H   0  0  0  0  0  0  0  0  0  0  0  0
   -3.3276   -0.2471   -0.1576 H   0  0  0  0  0  0  0  0  0  0  0  0
   -1.8597   -1.3726    2.1963 H   0  0  0  0  0  0  0  0  0  0  0  0
   -1.8345   -2.0105    0.5532 H   0  0  0  0  0  0  0  0  0  0  0  0
   -0.9361    0.9979    2.6134 H   0  0  0  0  0  0  0  0  0  0  0  0
    0.9299    2.5185    2.0592 H   0  0  0  0  0  0  0  0  0  0  0  0
    2.1843    2.2412   -0.0529 H   0  0  0  0  0  0  0  0  0  0  0  0
    2.0383    1.3334   -2.4476 H   0  0  0  0  0  0  0  0  0  0  0  0
    1.2127   -0.1961   -2.7377 H   0  0  0  0  0  0  0  0  0  0  0  0
    3.0355   -0.9737   -0.9385 H   0  0  0  0  0  0  0  0  0  0  0  0
    5.7966   -2.0948   -4.4226 H   0  0  0  0  0  0  0  0  0  0  0  0
    7.6610   -3.4343   -2.8796 H   0  0  0  0  0  0  0  0  0  0  0  0
    6.1783   -1.4553    0.8799 H   0  0  0  0  0  0  0  0  0  0  0  0
    4.4708   -1.8475    0.6260 H   0  0  0  0  0  0  0  0  0  0  0  0
    5.0791   -0.2140    0.2709 H   0  0  0  0  0  0  0  0  0  0  0  0
   -0.3087   -1.1180   -1.0890 H   0  0  0  0  0  0  0  0  0  0  0  0
  1  2  1  0
  2  3  1  0
  3  4  1  0
  4  5  2  0
  5  6  1  0
  6  7  1  0
  7  8  2  0
  7  9  1  0
  9 10  1  0
 10 11  1  0
 11 12  2  0
 12 13  1  0
 13 14  2  0
 14 15  1  0
 15 16  1  0
 16 17  1  0
 17 18  1  0
 18 19  2  0
 18 20  1  0
 20 21  1  0
 21 22  2  0
 22 23  1  0
 23 24  1  0
 24 25  1  0
 15 26  2  0
  6  2  2  0
 26 11  1  0
 24 20  2  0
  1 27  1  0
  1 28  1  0
  1 29  1  0
  4 30  1  0
  5 31  1  0
  9 32  1  0
 10 33  1  0
 10 34  1  0
 12 35  1  0
 13 36  1  0
 14 37  1  0
 16 38  1  0
 16 39  1  0
 17 40  1  0
 21 41  1  0
 22 42  1  0
 25 43  1  0
 25 44  1  0
 25 45  1  0
 26 46  1  0
M  END
$$$$
