
     RDKit          3D

 46 48  0  0  0  0  0  0  0  0999 V2000
   -1.8783    1.9500   -0.0159 C   0  0  0  0  0  0  0  0  0  0  0  0
   -2.1663    0.5009    0.2848 C   0  0  0  0  0  0  0  0  0  0  0  0
   -3.3115   -0.1030   -0.1030 C   0  0  0  0  0  0  0  0  0  0  0  0
   -4.4248    0.5404   -0.8075 C   0  0  0  0  0  0  0  0  0  0  0  0
   -4.6007    0.3225   -2.1777 C   0  0  0  0  0  0  0  0  0  0  0  0
   -5.6608    0.9292   -2.8540 C   0  0  0  0  0  0  0  0  0  0  0  0
   -6.5492    1.7531   -2.1637 C   0  0  0  0  0  0  0  0  0  0  0  0
   -6.3802    1.9710   -0.7968 C   0  0  0  0  0  0  0  0  0  0  0  0
   -5.3211    1.3651   -0.1186 C   0  0  0  0  0  0  0  0  0  0  0  0
   -1.1703   -0.3168    0.9877 C   0  0  0  0  0  0  0  0  0  0  0  0
   -0.0183   -0.0101    1.6060 C   0  0  0  0  0  0  0  0  0  0  0  0
    0.7425    1.5169    1.8405 S   0  0  0  0  0  0  0  0  0  0  0  0
    2.0947    0.8366    2.7230 C   0  0  0  0  0  0  0  0  0  0  0  0
    3.3355    1.7367    3.3766 S   0  0  0  0  0  0  0  0  0  0  0  0
    1.9444   -0.5308    2.7861 N   0  0  0  0  0  0  0  0  0  0  0  0
    2.9704   -1.4042    3.4719 N   0  0  0  0  0  0  0  0  0  0  0  0
    3.9532   -2.4032    2.5009 S   0  0  0  0  0  6  0  0  0  0  0  0
    3.3588   -3.7180    2.4302 O   0  0  0  0  0  0  0  0  0  0  0  0
    5.3014   -2.2131    2.9944 O   0  0  0  0  0  0  0  0  0  0  0  0
    3.8742   -1.6647    0.8865 C   0  0  0  0  0  0  0  0  0  0  0  0
    4.7218   -0.6004    0.5703 C   0  0  0  0  0  0  0  0  0  0  0  0
    4.6321   -0.0025   -0.6873 C   0  0  0  0  0  0  0  0  0  0  0  0
    3.7066   -0.4678   -1.6317 C   0  0  0  0  0  0  0  0  0  0  0  0
    3.6392    0.1572   -2.9948 C   0  0  0  0  0  0  0  0  0  0  0  0
    2.8963   -1.5667   -1.3166 C   0  0  0  0  0  0  0  0  0  0  0  0
    2.9804   -2.1696   -0.0615 C   0  0  0  0  0  0  0  0  0  0  0  0
    0.8043   -1.0928    2.2340 C   0  0  0  0  0  0  0  0  0  0  0  0
    0.4961   -2.2756    2.2277 O   0  0  0  0  0  0  0  0  0  0  0  0
   -0.9211    2.0545   -0.5374 H   0  0  0  0  0  0  0  0  0  0  0  0
   -1.8647    2.5408    0.9053 H   0  0  0  0  0  0  0  0  0  0  0  0
   -2.6220    2.4114   -0.6723 H   0  0  0  0  0  0  0  0  0  0  0  0
   -3.4915   -1.1576    0.1005 H   0  0  0  0  0  0  0  0  0  0  0  0
   -3.9133   -0.3167   -2.7262 H   0  0  0  0  0  0  0  0  0  0  0  0
   -5.7934    0.7590   -3.9194 H   0  0  0  0  0  0  0  0  0  0  0  0
   -7.3744    2.2248   -2.6912 H   0  0  0  0  0  0  0  0  0  0  0  0
   -7.0736    2.6117   -0.2585 H   0  0  0  0  0  0  0  0  0  0  0  0
   -5.1992    1.5398    0.9477 H   0  0  0  0  0  0  0  0  0  0  0  0
   -1.4365   -1.3788    1.0053 H   0  0  0  0  0  0  0  0  0  0  0  0
    3.5733   -0.8967    4.1288 H   0  0  0  0  0  0  0  0  0  0  0  0
    5.4508   -0.2313    1.2888 H   0  0  0  0  0  0  0  0  0  0  0  0
    5.2940    0.8267   -0.9313 H   0  0  0  0  0  0  0  0  0  0  0  0
    4.3641   -0.3202   -3.6613 H   0  0  0  0  0  0  0  0  0  0  0  0
    3.8568    1.2292   -2.9423 H   0  0  0  0  0  0  0  0  0  0  0  0
    2.6381    0.0500   -3.4255 H   0  0  0  0  0  0  0  0  0  0  0  0
    2.1979   -1.9636   -2.0512 H   0  0  0  0  0  0  0  0  0  0  0  0
    2.3443   -3.0232    0.1702 H   0  0  0  0  0  0  0  0  0  0  0  0
  1  2  1  0
  2  3  2  3
  3  4  1  0
  4  5  2  0
  5  6  1  0
  6  7  2  0
  7  8  1  0
  8  9  2  0
  2 10  1  0
 10 11  2  3
 11 12  1  0
 12 13  1  0
 13 14  2  0
 13 15  1  0
 15 16  1  0
 16 17  1  0
 17 18  2  0
 17 19  2  0
 17 20  1  0
 20 21  2  0
 21 22  1  0
 22 23  2  0
 23 24  1  0
 23 25  1  0
 25 26  2  0
 15 27  1  0
 27 28  2  0
  9  4  1  0
 27 11  1  0
 26 20  1  0
  1 29  1  0
  1 30  1  0
  1 31  1  0
  3 32  1  0
  5 33  1  0
  6 34  1  0
  7 35  1  0
  8 36  1  0
  9 37  1  0
 10 38  1  0
 16 39  1  0
 21 40  1  0
 22 41  1  0
 24 42  1  0
 24 43  1  0
 24 44  1  0
 25 45  1  0
 26 46  1  0
M  END
$$$$
