
     RDKit          3D

 49 51  0  0  0  0  0  0  0  0999 V2000
   -8.3551    0.1224   -0.8893 C   0  0  0  0  0  0  0  0  0  0  0  0
   -7.5864   -0.2576    0.3512 C   0  0  0  0  0  0  0  0  0  0  0  0
   -8.1831   -0.5616    1.3838 O   0  0  0  0  0  0  0  0  0  0  0  0
   -6.2064   -0.2523    0.2593 N   0  0  0  0  0  0  0  0  0  0  0  0
   -5.4544    0.0478   -0.9632 C   0  0  0  0  0  0  0  0  0  0  0  0
   -4.0009   -0.4631   -0.9305 C   0  0  0  0  0  0  0  0  0  0  0  0
   -3.2862    0.0250    0.2581 N   0  0  0  0  0  0  0  0  0  0  0  0
   -1.9033    0.1126    0.2906 C   0  0  0  0  0  0  0  0  0  0  0  0
   -1.0885   -0.5359   -0.6444 C   0  0  0  0  0  0  0  0  0  0  0  0
    0.3110   -0.4366   -0.6047 C   0  0  0  0  0  0  0  0  0  0  0  0
    0.9591    0.3252    0.3724 C   0  0  0  0  0  0  0  0  0  0  0  0
    2.3687    0.3462    0.3104 N   0  0  0  0  0  0  0  0  0  0  0  0
    3.3473    0.9823    1.0357 C   0  0  0  0  0  0  0  0  0  0  0  0
    3.2256    2.0541    2.3100 S   0  0  0  0  0  0  0  0  0  0  0  0
    4.6449    0.6794    0.6403 N   0  0  0  0  0  0  0  0  0  0  0  0
    5.0799   -0.1539   -0.3826 C   0  0  0  0  0  0  0  0  0  0  0  0
    4.3224   -0.7024   -1.1787 O   0  0  0  0  0  0  0  0  0  0  0  0
    6.5522   -0.3236   -0.5094 C   0  0  0  0  0  0  0  0  0  0  0  0
    7.4025   -0.2919    0.6041 C   0  0  0  0  0  0  0  0  0  0  0  0
    8.7791   -0.4572    0.4333 C   0  0  0  0  0  0  0  0  0  0  0  0
    9.3074   -0.6620   -0.8413 C   0  0  0  0  0  0  0  0  0  0  0  0
    8.4624   -0.7119   -1.9492 C   0  0  0  0  0  0  0  0  0  0  0  0
    7.0862   -0.5484   -1.7845 C   0  0  0  0  0  0  0  0  0  0  0  0
    0.1680    0.9779    1.3071 C   0  0  0  0  0  0  0  0  0  0  0  0
   -1.2342    0.8715    1.2616 C   0  0  0  0  0  0  0  0  0  0  0  0
   -4.0773    0.2200    1.4892 C   0  0  0  0  0  0  0  0  0  0  0  0
   -5.4088   -0.5522    1.4504 C   0  0  0  0  0  0  0  0  0  0  0  0
   -9.4075    0.2732   -0.6296 H   0  0  0  0  0  0  0  0  0  0  0  0
   -8.2904   -0.6808   -1.6276 H   0  0  0  0  0  0  0  0  0  0  0  0
   -7.9766    1.0585   -1.3080 H   0  0  0  0  0  0  0  0  0  0  0  0
   -5.4605    1.1390   -1.0737 H   0  0  0  0  0  0  0  0  0  0  0  0
   -5.9727   -0.3782   -1.8278 H   0  0  0  0  0  0  0  0  0  0  0  0
   -3.9956   -1.5600   -0.9283 H   0  0  0  0  0  0  0  0  0  0  0  0
   -3.5139   -0.1193   -1.8507 H   0  0  0  0  0  0  0  0  0  0  0  0
   -1.5200   -1.1605   -1.4207 H   0  0  0  0  0  0  0  0  0  0  0  0
    0.8845   -0.9733   -1.3577 H   0  0  0  0  0  0  0  0  0  0  0  0
    2.7537   -0.2188   -0.4493 H   0  0  0  0  0  0  0  0  0  0  0  0
    5.3401    1.1807    1.1759 H   0  0  0  0  0  0  0  0  0  0  0  0
    7.0159   -0.1716    1.6122 H   0  0  0  0  0  0  0  0  0  0  0  0
    9.4415   -0.4373    1.2960 H   0  0  0  0  0  0  0  0  0  0  0  0
   10.3794   -0.7936   -0.9707 H   0  0  0  0  0  0  0  0  0  0  0  0
    8.8742   -0.8823   -2.9411 H   0  0  0  0  0  0  0  0  0  0  0  0
    6.4325   -0.5943   -2.6535 H   0  0  0  0  0  0  0  0  0  0  0  0
    0.5814    1.5869    2.0987 H   0  0  0  0  0  0  0  0  0  0  0  0
   -1.7958    1.4286    2.0073 H   0  0  0  0  0  0  0  0  0  0  0  0
   -3.5243   -0.1236    2.3717 H   0  0  0  0  0  0  0  0  0  0  0  0
   -4.2815    1.2911    1.6075 H   0  0  0  0  0  0  0  0  0  0  0  0
   -5.2129   -1.6314    1.4315 H   0  0  0  0  0  0  0  0  0  0  0  0
   -5.9836   -0.3393    2.3581 H   0  0  0  0  0  0  0  0  0  0  0  0
  1  2  1  0
  2  3  2  0
  2  4  1  0
  4  5  1  0
  5  6  1  0
  6  7  1  0
  7  8  1  0
  8  9  2  0
  9 10  1  0
 10 11  2  0
 11 12  1  0
 12 13  1  0
 13 14  2  0
 13 15  1  0
 15 16  1  0
 16 17  2  0
 16 18  1  0
 18 19  2  0
 19 20  1  0
 20 21  2  0
 21 22  1  0
 22 23  2  0
 11 24  1  0
 24 25  2  0
  7 26  1  0
 26 27  1  0
 27  4  1  0
 25  8  1  0
 23 18  1  0
  1 28  1  0
  1 29  1  0
  1 30  1  0
  5 31  1  0
  5 32  1  0
  6 33  1  0
  6 34  1  0
  9 35  1  0
 10 36  1  0
 12 37  1  0
 15 38  1  0
 19 39  1  0
 20 40  1  0
 21 41  1  0
 22 42  1  0
 23 43  1  0
 24 44  1  0
 25 45  1  0
 26 46  1  0
 26 47  1  0
 27 48  1  0
 27 49  1  0
M  END
$$$$
