
     RDKit          3D

 41 44  0  0  0  0  0  0  0  0999 V2000
   -5.5442   -2.6313    0.4216 C   0  0  0  0  0  0  0  0  0  0  0  0
   -5.7604   -1.2717   -0.2475 C   0  0  0  0  0  0  0  0  0  0  0  0
   -6.8218   -0.4592    0.4984 C   0  0  0  0  0  0  0  0  0  0  0  0
   -4.4583   -0.5012   -0.3791 C   0  0  0  0  0  0  0  0  0  0  0  0
   -3.7177   -0.1076    0.7451 C   0  0  0  0  0  0  0  0  0  0  0  0
   -2.5208    0.6000    0.6013 C   0  0  0  0  0  0  0  0  0  0  0  0
   -2.0399    0.9216   -0.6708 C   0  0  0  0  0  0  0  0  0  0  0  0
   -0.7916    1.6689   -0.8429 C   0  0  0  0  0  0  0  0  0  0  0  0
    0.4392    1.2005   -0.5929 C   0  0  0  0  0  0  0  0  0  0  0  0
    0.8684   -0.4000   -0.0156 S   0  0  0  0  0  0  0  0  0  0  0  0
    2.5254    0.0358   -0.0656 C   0  0  0  0  0  0  0  0  0  0  0  0
    3.6506   -0.5569    0.2098 N   0  0  0  0  0  0  0  0  0  0  0  0
    4.5782    0.4400   -0.0803 C   0  0  0  0  0  0  0  0  0  0  0  0
    6.0122    0.2267    0.0813 C   0  0  0  0  0  0  0  0  0  0  0  0
    6.4958   -1.0022    0.5363 C   0  0  0  0  0  0  0  0  0  0  0  0
    7.8635   -1.1631    0.6758 C   0  0  0  0  0  0  0  0  0  0  0  0
    8.7644   -0.1978    0.3969 N   0  0  0  0  0  0  0  0  0  0  0  0
    8.2766    0.9818   -0.0415 C   0  0  0  0  0  0  0  0  0  0  0  0
    6.9276    1.2401   -0.2135 C   0  0  0  0  0  0  0  0  0  0  0  0
    4.0376    1.5998   -0.5161 N   0  0  0  0  0  0  0  0  0  0  0  0
    2.7284    1.2969   -0.4909 N   0  0  0  0  0  0  0  0  0  0  0  0
    1.6356    2.0671   -0.8240 C   0  0  0  0  0  0  0  0  0  0  0  0
    1.7010    3.2163   -1.2206 O   0  0  0  0  0  0  0  0  0  0  0  0
   -2.7754    0.5416   -1.7961 C   0  0  0  0  0  0  0  0  0  0  0  0
   -3.9723   -0.1658   -1.6511 C   0  0  0  0  0  0  0  0  0  0  0  0
   -4.7930   -3.2184   -0.1186 H   0  0  0  0  0  0  0  0  0  0  0  0
   -5.2054   -2.5290    1.4583 H   0  0  0  0  0  0  0  0  0  0  0  0
   -6.4758   -3.2075    0.4320 H   0  0  0  0  0  0  0  0  0  0  0  0
   -6.1533   -1.4674   -1.2541 H   0  0  0  0  0  0  0  0  0  0  0  0
   -6.5354   -0.2670    1.5381 H   0  0  0  0  0  0  0  0  0  0  0  0
   -7.7775   -0.9942    0.5106 H   0  0  0  0  0  0  0  0  0  0  0  0
   -6.9860    0.5093    0.0129 H   0  0  0  0  0  0  0  0  0  0  0  0
   -4.0669   -0.3475    1.7469 H   0  0  0  0  0  0  0  0  0  0  0  0
   -1.9740    0.8962    1.4934 H   0  0  0  0  0  0  0  0  0  0  0  0
   -0.9219    2.6809   -1.2257 H   0  0  0  0  0  0  0  0  0  0  0  0
    5.8259   -1.8211    0.7787 H   0  0  0  0  0  0  0  0  0  0  0  0
    8.2835   -2.1016    1.0264 H   0  0  0  0  0  0  0  0  0  0  0  0
    9.0232    1.7406   -0.2584 H   0  0  0  0  0  0  0  0  0  0  0  0
    6.6034    2.2127   -0.5702 H   0  0  0  0  0  0  0  0  0  0  0  0
   -2.4253    0.7870   -2.7963 H   0  0  0  0  0  0  0  0  0  0  0  0
   -4.5236   -0.4534   -2.5440 H   0  0  0  0  0  0  0  0  0  0  0  0
  1  2  1  0
  2  3  1  0
  2  4  1  0
  4  5  2  0
  5  6  1  0
  6  7  2  0
  7  8  1  0
  8  9  2  3
  9 10  1  0
 10 11  1  0
 11 12  2  0
 12 13  1  0
 13 14  1  0
 14 15  2  0
 15 16  1  0
 16 17  2  0
 17 18  1  0
 18 19  2  0
 13 20  2  0
 20 21  1  0
 21 22  1  0
 22 23  2  0
  7 24  1  0
 24 25  2  0
 25  4  1  0
 22  9  1  0
 21 11  1  0
 19 14  1  0
  1 26  1  0
  1 27  1  0
  1 28  1  0
  2 29  1  0
  3 30  1  0
  3 31  1  0
  3 32  1  0
  5 33  1  0
  6 34  1  0
  8 35  1  0
 15 36  1  0
 16 37  1  0
 18 38  1  0
 19 39  1  0
 24 40  1  0
 25 41  1  0
M  END
$$$$
