
     RDKit          3D

 62 65  0  0  0  0  0  0  0  0999 V2000
   10.1344    1.5841    0.4257 C   0  0  0  0  0  0  0  0  0  0  0  0
    8.7579    1.2188   -0.0447 C   0  0  0  0  0  0  0  0  0  0  0  0
    8.1206    0.0717    0.4399 C   0  0  0  0  0  0  0  0  0  0  0  0
    6.8518   -0.2817   -0.0240 C   0  0  0  0  0  0  0  0  0  0  0  0
    6.2022    0.4970   -0.9914 C   0  0  0  0  0  0  0  0  0  0  0  0
    4.8243    0.1187   -1.4692 C   0  0  0  0  0  0  0  0  0  0  0  0
    3.8154    0.5798   -0.5417 N   0  0  0  0  0  0  0  0  0  0  0  0
    3.2836   -0.2497    0.4217 C   0  0  0  0  0  0  0  0  0  0  0  0
    3.5557   -1.4406    0.5135 O   0  0  0  0  0  0  0  0  0  0  0  0
    2.3760    0.4811    1.3914 C   0  0  0  0  0  0  0  0  0  0  0  0
    1.5201   -0.4611    2.2345 C   0  0  0  0  0  0  0  0  0  0  0  0
    0.2790   -0.9199    1.5310 C   0  0  0  0  0  0  0  0  0  0  0  0
    0.0569   -2.1559    0.8743 C   0  0  0  0  0  0  0  0  0  0  0  0
    0.9919   -3.2973    0.6943 C   0  0  0  0  0  0  0  0  0  0  0  0
   -1.1759   -2.2384    0.3697 N   0  0  0  0  0  0  0  0  0  0  0  0
   -1.7863   -1.0683    0.7009 N   0  0  0  0  0  0  0  0  0  0  0  0
   -3.1491   -0.8437    0.3355 C   0  0  0  0  0  0  0  0  0  0  0  0
   -3.8599   -1.8321   -0.3267 C   0  0  0  0  0  0  0  0  0  0  0  0
   -5.1958   -1.5972   -0.6590 C   0  0  0  0  0  0  0  0  0  0  0  0
   -5.7984   -0.3845   -0.3420 C   0  0  0  0  0  0  0  0  0  0  0  0
   -7.1563   -0.1618   -0.6496 N   0  0  0  0  0  0  0  0  0  0  0  0
   -7.6598    1.1254   -0.1160 C   0  0  0  0  0  0  0  0  0  0  0  0
   -9.1627    1.2577   -0.4077 C   0  0  0  0  0  0  0  0  0  0  0  0
   -9.4363    1.1451   -1.8146 O   0  0  0  0  0  0  0  0  0  0  0  0
   -8.9897   -0.1292   -2.3029 C   0  0  0  0  0  0  0  0  0  0  0  0
   -7.4789   -0.3226   -2.0847 C   0  0  0  0  0  0  0  0  0  0  0  0
   -5.0686    0.5431    0.3154 N   0  0  0  0  0  0  0  0  0  0  0  0
   -3.7437    0.3233    0.6499 N   0  0  0  0  0  0  0  0  0  0  0  0
   -0.9192   -0.2305    1.3943 C   0  0  0  0  0  0  0  0  0  0  0  0
   -1.2930    1.1268    1.8792 C   0  0  0  0  0  0  0  0  0  0  0  0
    6.8428    1.6435   -1.4770 C   0  0  0  0  0  0  0  0  0  0  0  0
    8.1135    1.9955   -1.0132 C   0  0  0  0  0  0  0  0  0  0  0  0
   10.8811    1.2366   -0.2951 H   0  0  0  0  0  0  0  0  0  0  0  0
   10.3516    1.1328    1.3997 H   0  0  0  0  0  0  0  0  0  0  0  0
   10.2270    2.6691    0.5424 H   0  0  0  0  0  0  0  0  0  0  0  0
    8.6053   -0.5552    1.1840 H   0  0  0  0  0  0  0  0  0  0  0  0
    6.3668   -1.1717    0.3745 H   0  0  0  0  0  0  0  0  0  0  0  0
    4.7548   -0.9657   -1.6138 H   0  0  0  0  0  0  0  0  0  0  0  0
    4.6139    0.5885   -2.4358 H   0  0  0  0  0  0  0  0  0  0  0  0
    3.7164    1.5798   -0.4284 H   0  0  0  0  0  0  0  0  0  0  0  0
    1.7536    1.1974    0.8421 H   0  0  0  0  0  0  0  0  0  0  0  0
    3.0338    1.0517    2.0589 H   0  0  0  0  0  0  0  0  0  0  0  0
    1.2160    0.0697    3.1461 H   0  0  0  0  0  0  0  0  0  0  0  0
    2.1027   -1.3226    2.5799 H   0  0  0  0  0  0  0  0  0  0  0  0
    1.6770   -3.3908    1.5422 H   0  0  0  0  0  0  0  0  0  0  0  0
    1.5775   -3.1659   -0.2183 H   0  0  0  0  0  0  0  0  0  0  0  0
    0.4459   -4.2434    0.6124 H   0  0  0  0  0  0  0  0  0  0  0  0
   -3.4061   -2.7863   -0.5753 H   0  0  0  0  0  0  0  0  0  0  0  0
   -5.7619   -2.3888   -1.1378 H   0  0  0  0  0  0  0  0  0  0  0  0
   -7.5104    1.1836    0.9693 H   0  0  0  0  0  0  0  0  0  0  0  0
   -7.1317    1.9606   -0.5959 H   0  0  0  0  0  0  0  0  0  0  0  0
   -9.7373    0.4934    0.1298 H   0  0  0  0  0  0  0  0  0  0  0  0
   -9.5205    2.2383   -0.0779 H   0  0  0  0  0  0  0  0  0  0  0  0
   -9.5624   -0.9214   -1.8051 H   0  0  0  0  0  0  0  0  0  0  0  0
   -9.2186   -0.1732   -3.3726 H   0  0  0  0  0  0  0  0  0  0  0  0
   -6.9294    0.4275   -2.6685 H   0  0  0  0  0  0  0  0  0  0  0  0
   -7.2083   -1.3169   -2.4547 H   0  0  0  0  0  0  0  0  0  0  0  0
   -0.4519    1.6159    2.3815 H   0  0  0  0  0  0  0  0  0  0  0  0
   -1.5849    1.7739    1.0452 H   0  0  0  0  0  0  0  0  0  0  0  0
   -2.1124    1.0714    2.6024 H   0  0  0  0  0  0  0  0  0  0  0  0
    6.3614    2.2696   -2.2242 H   0  0  0  0  0  0  0  0  0  0  0  0
    8.5985    2.8826   -1.4141 H   0  0  0  0  0  0  0  0  0  0  0  0
  1  2  1  0
  2  3  2  0
  3  4  1  0
  4  5  2  0
  5  6  1  0
  6  7  1  0
  7  8  1  0
  8  9  2  0
  8 10  1  0
 10 11  1  0
 11 12  1  0
 12 13  1  0
 13 14  1  0
 13 15  2  0
 15 16  1  0
 16 17  1  0
 17 18  2  0
 18 19  1  0
 19 20  2  0
 20 21  1  0
 21 22  1  0
 22 23  1  0
 23 24  1  0
 24 25  1  0
 25 26  1  0
 20 27  1  0
 27 28  2  0
 16 29  1  0
 29 30  1  0
  5 31  1  0
 31 32  2  0
 32  2  1  0
 29 12  2  0
 28 17  1  0
 26 21  1  0
  1 33  1  0
  1 34  1  0
  1 35  1  0
  3 36  1  0
  4 37  1  0
  6 38  1  0
  6 39  1  0
  7 40  1  0
 10 41  1  0
 10 42  1  0
 11 43  1  0
 11 44  1  0
 14 45  1  0
 14 46  1  0
 14 47  1  0
 18 48  1  0
 19 49  1  0
 22 50  1  0
 22 51  1  0
 23 52  1  0
 23 53  1  0
 25 54  1  0
 25 55  1  0
 26 56  1  0
 26 57  1  0
 30 58  1  0
 30 59  1  0
 30 60  1  0
 31 61  1  0
 32 62  1  0
M  END
$$$$
