
     RDKit          3D

 58 61  0  0  0  0  0  0  0  0999 V2000
    2.0987    0.8872    0.4002 O   0  0  0  0  0  0  0  0  0  0  0  0
    2.0043   -0.2061   -0.1529 C   0  0  0  0  0  0  0  0  0  0  0  0
    2.9785   -0.7362   -1.1867 C   0  0  0  0  0  0  0  0  0  0  0  0
    4.2404    0.1166   -1.3285 C   0  0  0  0  0  0  0  0  0  0  0  0
    5.2032    0.0615   -0.1231 C   0  0  0  0  0  0  0  0  0  0  0  0
    5.8059   -1.3386    0.0810 C   0  0  0  0  0  0  0  0  0  0  0  0
    6.8231   -1.3619    1.2209 C   0  0  0  0  0  0  0  0  0  0  0  0
    7.9177   -0.3192    1.0266 C   0  0  0  0  0  0  0  0  0  0  0  0
    7.3301    1.0737    0.8322 C   0  0  0  0  0  0  0  0  0  0  0  0
    6.3230    1.1006   -0.3141 C   0  0  0  0  0  0  0  0  0  0  0  0
    0.9577   -1.0775    0.1001 N   0  0  0  0  0  0  0  0  0  0  0  0
   -0.1455   -0.5280    0.8044 N   0  0  0  0  0  0  0  0  0  0  0  0
   -1.3649   -0.6138    0.1551 C   0  0  0  0  0  0  0  0  0  0  0  0
   -1.5296   -1.2890   -0.8547 O   0  0  0  0  0  0  0  0  0  0  0  0
   -2.3227    0.1371    0.7888 N   0  0  0  0  0  0  0  0  0  0  0  0
   -3.7279    0.2048    0.3734 C   0  0  0  0  0  0  0  0  0  0  0  0
   -4.4280   -1.1699    0.5012 C   0  0  0  0  0  0  0  0  0  0  0  0
   -5.9145   -1.0565    0.1180 C   0  0  0  0  0  0  0  0  0  0  0  0
   -6.0276   -0.5528   -1.3310 C   0  0  0  0  0  0  0  0  0  0  0  0
   -5.3667    0.8296   -1.4645 C   0  0  0  0  0  0  0  0  0  0  0  0
   -6.0632    1.8187   -0.5177 C   0  0  0  0  0  0  0  0  0  0  0  0
   -5.9458    1.3257    0.9326 C   0  0  0  0  0  0  0  0  0  0  0  0
   -6.6075   -0.0558    1.0566 C   0  0  0  0  0  0  0  0  0  0  0  0
   -4.4599    1.2072    1.3064 C   0  0  0  0  0  0  0  0  0  0  0  0
   -3.8802    0.7188   -1.0811 C   0  0  0  0  0  0  0  0  0  0  0  0
    3.2251   -1.7765   -0.9556 H   0  0  0  0  0  0  0  0  0  0  0  0
    2.4502   -0.7335   -2.1486 H   0  0  0  0  0  0  0  0  0  0  0  0
    4.7770   -0.2084   -2.2291 H   0  0  0  0  0  0  0  0  0  0  0  0
    3.9447    1.1590   -1.5054 H   0  0  0  0  0  0  0  0  0  0  0  0
    4.6512    0.3307    0.7864 H   0  0  0  0  0  0  0  0  0  0  0  0
    5.0196   -2.0660    0.3072 H   0  0  0  0  0  0  0  0  0  0  0  0
    6.2928   -1.6711   -0.8442 H   0  0  0  0  0  0  0  0  0  0  0  0
    7.2731   -2.3590    1.2917 H   0  0  0  0  0  0  0  0  0  0  0  0
    6.3076   -1.1766    2.1713 H   0  0  0  0  0  0  0  0  0  0  0  0
    8.5259   -0.5860    0.1530 H   0  0  0  0  0  0  0  0  0  0  0  0
    8.5866   -0.3209    1.8940 H   0  0  0  0  0  0  0  0  0  0  0  0
    6.8385    1.3970    1.7582 H   0  0  0  0  0  0  0  0  0  0  0  0
    8.1356    1.7888    0.6316 H   0  0  0  0  0  0  0  0  0  0  0  0
    5.8910    2.1063   -0.3869 H   0  0  0  0  0  0  0  0  0  0  0  0
    6.8483    0.9108   -1.2595 H   0  0  0  0  0  0  0  0  0  0  0  0
    0.6892   -1.7478   -0.6228 H   0  0  0  0  0  0  0  0  0  0  0  0
    0.0667    0.3837    1.2104 H   0  0  0  0  0  0  0  0  0  0  0  0
   -2.1435    0.2645    1.7750 H   0  0  0  0  0  0  0  0  0  0  0  0
   -3.9457   -1.9145   -0.1432 H   0  0  0  0  0  0  0  0  0  0  0  0
   -4.3350   -1.5464    1.5282 H   0  0  0  0  0  0  0  0  0  0  0  0
   -6.3938   -2.0376    0.2067 H   0  0  0  0  0  0  0  0  0  0  0  0
   -7.0831   -0.4919   -1.6237 H   0  0  0  0  0  0  0  0  0  0  0  0
   -5.5484   -1.2647   -2.0140 H   0  0  0  0  0  0  0  0  0  0  0  0
   -5.4555    1.1835   -2.4976 H   0  0  0  0  0  0  0  0  0  0  0  0
   -7.1197    1.9228   -0.7949 H   0  0  0  0  0  0  0  0  0  0  0  0
   -5.6091    2.8127   -0.6140 H   0  0  0  0  0  0  0  0  0  0  0  0
   -6.4411    2.0348    1.6052 H   0  0  0  0  0  0  0  0  0  0  0  0
   -6.5462   -0.4093    2.0931 H   0  0  0  0  0  0  0  0  0  0  0  0
   -7.6733    0.0159    0.8069 H   0  0  0  0  0  0  0  0  0  0  0  0
   -3.9823    2.1941    1.2489 H   0  0  0  0  0  0  0  0  0  0  0  0
   -4.3692    0.8849    2.3523 H   0  0  0  0  0  0  0  0  0  0  0  0
   -3.3828    0.0481   -1.7907 H   0  0  0  0  0  0  0  0  0  0  0  0
   -3.3925    1.6964   -1.1890 H   0  0  0  0  0  0  0  0  0  0  0  0
  1  2  2  0
  2  3  1  0
  3  4  1  0
  4  5  1  0
  5  6  1  0
  6  7  1  0
  7  8  1  0
  8  9  1  0
  9 10  1  0
  2 11  1  0
 11 12  1  0
 12 13  1  0
 13 14  2  0
 13 15  1  0
 15 16  1  0
 16 17  1  0
 17 18  1  0
 18 19  1  0
 19 20  1  0
 20 21  1  0
 21 22  1  0
 22 23  1  0
 22 24  1  0
 20 25  1  0
 10  5  1  0
 24 16  1  0
 25 16  1  0
 23 18  1  0
  3 26  1  0
  3 27  1  0
  4 28  1  0
  4 29  1  0
  5 30  1  0
  6 31  1  0
  6 32  1  0
  7 33  1  0
  7 34  1  0
  8 35  1  0
  8 36  1  0
  9 37  1  0
  9 38  1  0
 10 39  1  0
 10 40  1  0
 11 41  1  0
 12 42  1  0
 15 43  1  0
 17 44  1  0
 17 45  1  0
 18 46  1  0
 19 47  1  0
 19 48  1  0
 20 49  1  0
 21 50  1  0
 21 51  1  0
 22 52  1  0
 23 53  1  0
 23 54  1  0
 24 55  1  0
 24 56  1  0
 25 57  1  0
 25 58  1  0
M  END
$$$$
