
     RDKit          3D

 44 47  0  0  0  0  0  0  0  0999 V2000
    8.0601   -1.9768    1.0155 C   0  0  0  0  0  0  0  0  0  0  0  0
    6.6490   -1.4178    1.0512 C   0  0  0  0  0  0  0  0  0  0  0  0
    6.3913   -0.7958   -0.2051 O   0  0  0  0  0  0  0  0  0  0  0  0
    5.1724   -0.1996   -0.3930 C   0  0  0  0  0  0  0  0  0  0  0  0
    4.1406   -0.1906    0.5522 C   0  0  0  0  0  0  0  0  0  0  0  0
    2.9230    0.4409    0.2696 C   0  0  0  0  0  0  0  0  0  0  0  0
    2.7240    1.0643   -0.9676 C   0  0  0  0  0  0  0  0  0  0  0  0
    1.4462    1.7524   -1.3009 C   0  0  0  0  0  0  0  0  0  0  0  0
    1.5016    2.7748   -1.9720 O   0  0  0  0  0  0  0  0  0  0  0  0
    0.3081    1.1232   -0.8306 N   0  0  0  0  0  0  0  0  0  0  0  0
   -1.0266    1.5643   -0.9575 C   0  0  0  0  0  0  0  0  0  0  0  0
   -1.3948    2.7844   -1.5230 C   0  0  0  0  0  0  0  0  0  0  0  0
   -2.7411    3.1485   -1.6045 C   0  0  0  0  0  0  0  0  0  0  0  0
   -3.7322    2.2956   -1.1179 C   0  0  0  0  0  0  0  0  0  0  0  0
   -3.3888    1.0665   -0.5419 C   0  0  0  0  0  0  0  0  0  0  0  0
   -4.3969    0.1465   -0.0189 C   0  0  0  0  0  0  0  0  0  0  0  0
   -4.2186   -1.0351    0.5505 N   0  0  0  0  0  0  0  0  0  0  0  0
   -5.4954   -1.4421    0.8383 C   0  0  0  0  0  0  0  0  0  0  0  0
   -5.9900   -2.6026    1.4418 C   0  0  0  0  0  0  0  0  0  0  0  0
   -7.3771   -2.6980    1.5845 C   0  0  0  0  0  0  0  0  0  0  0  0
   -8.1840   -1.6565    1.1298 C   0  0  0  0  0  0  0  0  0  0  0  0
   -7.7512   -0.5165    0.5409 N   0  0  0  0  0  0  0  0  0  0  0  0
   -6.4112   -0.4797    0.4295 C   0  0  0  0  0  0  0  0  0  0  0  0
   -5.7045    0.5458   -0.1233 O   0  0  0  0  0  0  0  0  0  0  0  0
   -2.0295    0.7153   -0.4682 C   0  0  0  0  0  0  0  0  0  0  0  0
    3.7546    1.0777   -1.9107 C   0  0  0  0  0  0  0  0  0  0  0  0
    4.9664    0.4440   -1.6259 C   0  0  0  0  0  0  0  0  0  0  0  0
    6.1996    0.4777   -2.8390 Cl  0  0  0  0  0  0  0  0  0  0  0  0
    8.7862   -1.1788    0.8284 H   0  0  0  0  0  0  0  0  0  0  0  0
    8.3094   -2.4670    1.9607 H   0  0  0  0  0  0  0  0  0  0  0  0
    8.1668   -2.7021    0.2019 H   0  0  0  0  0  0  0  0  0  0  0  0
    5.9433   -2.2391    1.2202 H   0  0  0  0  0  0  0  0  0  0  0  0
    6.5756   -0.6838    1.8619 H   0  0  0  0  0  0  0  0  0  0  0  0
    4.2538   -0.6590    1.5250 H   0  0  0  0  0  0  0  0  0  0  0  0
    2.1537    0.4635    1.0379 H   0  0  0  0  0  0  0  0  0  0  0  0
    0.4267    0.2125   -0.4061 H   0  0  0  0  0  0  0  0  0  0  0  0
   -0.6571    3.4810   -1.9097 H   0  0  0  0  0  0  0  0  0  0  0  0
   -3.0146    4.1024   -2.0497 H   0  0  0  0  0  0  0  0  0  0  0  0
   -4.7732    2.6038   -1.1942 H   0  0  0  0  0  0  0  0  0  0  0  0
   -5.3234   -3.3867    1.7799 H   0  0  0  0  0  0  0  0  0  0  0  0
   -7.8240   -3.5740    2.0446 H   0  0  0  0  0  0  0  0  0  0  0  0
   -9.2656   -1.7220    1.2366 H   0  0  0  0  0  0  0  0  0  0  0  0
   -1.7630   -0.2409   -0.0211 H   0  0  0  0  0  0  0  0  0  0  0  0
    3.6104    1.5796   -2.8656 H   0  0  0  0  0  0  0  0  0  0  0  0
  1  2  1  0
  2  3  1  0
  3  4  1  0
  4  5  2  0
  5  6  1  0
  6  7  2  0
  7  8  1  0
  8  9  2  0
  8 10  1  0
 10 11  1  0
 11 12  2  0
 12 13  1  0
 13 14  2  0
 14 15  1  0
 15 16  1  0
 16 17  2  0
 17 18  1  0
 18 19  2  0
 19 20  1  0
 20 21  2  0
 21 22  1  0
 22 23  2  0
 23 24  1  0
 15 25  2  0
  7 26  1  0
 26 27  2  0
 27 28  1  0
 27  4  1  0
 25 11  1  0
 24 16  1  0
 23 18  1  0
  1 29  1  0
  1 30  1  0
  1 31  1  0
  2 32  1  0
  2 33  1  0
  5 34  1  0
  6 35  1  0
 10 36  1  0
 12 37  1  0
 13 38  1  0
 14 39  1  0
 19 40  1  0
 20 41  1  0
 21 42  1  0
 25 43  1  0
 26 44  1  0
M  END
$$$$
