
     RDKit          3D

 43 44  0  0  0  0  0  0  0  0999 V2000
    0.3046    2.1576    2.6060 C   0  0  0  0  0  0  0  0  0  0  0  0
   -0.8256    2.2400    1.6026 C   0  0  0  0  0  0  0  0  0  0  0  0
   -0.9696    0.9539    0.9853 O   0  0  0  0  0  0  0  0  0  0  0  0
   -2.0210    0.8752    0.1089 C   0  0  0  0  0  0  0  0  0  0  0  0
   -2.7294    1.8356   -0.1697 O   0  0  0  0  0  0  0  0  0  0  0  0
   -2.2205   -0.4696   -0.4532 C   0  0  0  0  0  0  0  0  0  0  0  0
   -1.3791   -1.5557   -0.2401 C   0  0  0  0  0  0  0  0  0  0  0  0
   -0.1915   -1.5703    0.4789 N   0  0  0  0  0  0  0  0  0  0  0  0
    0.6085   -2.6647    0.7692 C   0  0  0  0  0  0  0  0  0  0  0  0
    0.3547   -3.8500    0.5789 O   0  0  0  0  0  0  0  0  0  0  0  0
    1.9052   -2.2631    1.4860 C   0  0  0  0  0  0  0  0  0  0  0  0
    2.3777   -0.9374    1.2392 O   0  0  0  0  0  0  0  0  0  0  0  0
    2.9241   -0.7685    0.0099 C   0  0  0  0  0  0  0  0  0  0  0  0
    2.9526   -1.5973   -0.8810 O   0  0  0  0  0  0  0  0  0  0  0  0
    3.4563    0.6046   -0.1374 C   0  0  0  0  0  0  0  0  0  0  0  0
    3.8569    1.3628    0.9623 C   0  0  0  0  0  0  0  0  0  0  0  0
    4.3516    2.6321    0.7242 C   0  0  0  0  0  0  0  0  0  0  0  0
    4.4688    3.1714   -0.5076 N   0  0  0  0  0  0  0  0  0  0  0  0
    4.0891    2.4081   -1.5546 C   0  0  0  0  0  0  0  0  0  0  0  0
    3.5807    1.1291   -1.4233 C   0  0  0  0  0  0  0  0  0  0  0  0
   -1.9236   -2.9558   -1.0241 S   0  0  0  0  0  0  0  0  0  0  0  0
   -3.2842   -2.1765   -1.6797 C   0  0  0  0  0  0  0  0  0  0  0  0
   -4.2293   -2.9498   -2.5414 C   0  0  0  0  0  0  0  0  0  0  0  0
   -3.3467   -0.8442   -1.3061 C   0  0  0  0  0  0  0  0  0  0  0  0
   -4.4396    0.0971   -1.7199 C   0  0  0  0  0  0  0  0  0  0  0  0
    1.2385    1.8947    2.1065 H   0  0  0  0  0  0  0  0  0  0  0  0
    0.1130    1.3720    3.3452 H   0  0  0  0  0  0  0  0  0  0  0  0
    0.4390    3.1114    3.1247 H   0  0  0  0  0  0  0  0  0  0  0  0
   -1.7522    2.5082    2.1205 H   0  0  0  0  0  0  0  0  0  0  0  0
   -0.5933    2.9928    0.8411 H   0  0  0  0  0  0  0  0  0  0  0  0
    0.1074   -0.6732    0.8507 H   0  0  0  0  0  0  0  0  0  0  0  0
    1.7177   -2.3426    2.5610 H   0  0  0  0  0  0  0  0  0  0  0  0
    2.6887   -2.9896    1.2375 H   0  0  0  0  0  0  0  0  0  0  0  0
    3.7995    0.9821    1.9754 H   0  0  0  0  0  0  0  0  0  0  0  0
    4.6820    3.2690    1.5397 H   0  0  0  0  0  0  0  0  0  0  0  0
    4.2123    2.8659   -2.5300 H   0  0  0  0  0  0  0  0  0  0  0  0
    3.2958    0.5543   -2.2996 H   0  0  0  0  0  0  0  0  0  0  0  0
   -5.2120   -3.0089   -2.0630 H   0  0  0  0  0  0  0  0  0  0  0  0
   -3.8855   -3.9712   -2.7307 H   0  0  0  0  0  0  0  0  0  0  0  0
   -4.3466   -2.4558   -3.5117 H   0  0  0  0  0  0  0  0  0  0  0  0
   -4.9286    0.5251   -0.8379 H   0  0  0  0  0  0  0  0  0  0  0  0
   -4.0327    0.9072   -2.3337 H   0  0  0  0  0  0  0  0  0  0  0  0
   -5.2137   -0.4060   -2.3073 H   0  0  0  0  0  0  0  0  0  0  0  0
  1  2  1  0
  2  3  1  0
  3  4  1  0
  4  5  2  0
  4  6  1  0
  6  7  2  0
  7  8  1  0
  8  9  1  0
  9 10  2  0
  9 11  1  0
 11 12  1  0
 12 13  1  0
 13 14  2  0
 13 15  1  0
 15 16  2  0
 16 17  1  0
 17 18  2  0
 18 19  1  0
 19 20  2  0
  7 21  1  0
 21 22  1  0
 22 23  1  0
 22 24  2  0
 24 25  1  0
 24  6  1  0
 20 15  1  0
  1 26  1  0
  1 27  1  0
  1 28  1  0
  2 29  1  0
  2 30  1  0
  8 31  1  0
 11 32  1  0
 11 33  1  0
 16 34  1  0
 17 35  1  0
 19 36  1  0
 20 37  1  0
 23 38  1  0
 23 39  1  0
 23 40  1  0
 25 41  1  0
 25 42  1  0
 25 43  1  0
M  END
$$$$
