
     RDKit          3D

 39 41  0  0  0  0  0  0  0  0999 V2000
   -1.7973   -3.2082   -0.2490 C   0  0  0  0  0  0  0  0  0  0  0  0
   -1.5800   -2.0321   -1.1918 C   0  0  0  0  0  0  0  0  0  0  0  0
   -1.9408   -0.7563   -0.5654 N   0  0  0  0  0  0  0  0  0  0  0  0
   -1.0296    0.0586    0.0876 C   0  0  0  0  0  0  0  0  0  0  0  0
    0.3719   -0.4264    0.1832 C   0  0  0  0  0  0  0  0  0  0  0  0
    1.3729    0.4062   -0.1396 C   0  0  0  0  0  0  0  0  0  0  0  0
    2.7967    0.0540   -0.0574 C   0  0  0  0  0  0  0  0  0  0  0  0
    3.2738   -1.2295   -0.3770 C   0  0  0  0  0  0  0  0  0  0  0  0
    4.6413   -1.5246   -0.3171 C   0  0  0  0  0  0  0  0  0  0  0  0
    5.5330   -0.5274    0.0537 C   0  0  0  0  0  0  0  0  0  0  0  0
    6.8794   -0.7512    0.1301 O   0  0  0  0  0  0  0  0  0  0  0  0
    5.0701    0.7495    0.3566 C   0  0  0  0  0  0  0  0  0  0  0  0
    5.9546    1.7272    0.7139 O   0  0  0  0  0  0  0  0  0  0  0  0
    3.7152    1.0499    0.2995 C   0  0  0  0  0  0  0  0  0  0  0  0
   -1.3369    1.1988    0.6241 N   0  0  0  0  0  0  0  0  0  0  0  0
   -2.6588    1.6448    0.5510 C   0  0  0  0  0  0  0  0  0  0  0  0
   -2.9873    2.8790    1.1170 C   0  0  0  0  0  0  0  0  0  0  0  0
   -4.2996    3.3579    1.0705 C   0  0  0  0  0  0  0  0  0  0  0  0
   -5.2972    2.6022    0.4556 C   0  0  0  0  0  0  0  0  0  0  0  0
   -4.9808    1.3687   -0.1123 C   0  0  0  0  0  0  0  0  0  0  0  0
   -3.6619    0.9005   -0.0596 C   0  0  0  0  0  0  0  0  0  0  0  0
   -3.2872   -0.3940   -0.6505 C   0  0  0  0  0  0  0  0  0  0  0  0
   -4.1546   -1.0865   -1.1799 O   0  0  0  0  0  0  0  0  0  0  0  0
   -2.8480   -3.2873    0.0486 H   0  0  0  0  0  0  0  0  0  0  0  0
   -1.2025   -3.1041    0.6636 H   0  0  0  0  0  0  0  0  0  0  0  0
   -1.5115   -4.1441   -0.7389 H   0  0  0  0  0  0  0  0  0  0  0  0
   -2.1885   -2.1776   -2.0923 H   0  0  0  0  0  0  0  0  0  0  0  0
   -0.5383   -2.0115   -1.5267 H   0  0  0  0  0  0  0  0  0  0  0  0
    0.5355   -1.4289    0.5540 H   0  0  0  0  0  0  0  0  0  0  0  0
    1.1528    1.4246   -0.4574 H   0  0  0  0  0  0  0  0  0  0  0  0
    2.5868   -2.0125   -0.6888 H   0  0  0  0  0  0  0  0  0  0  0  0
    4.9817   -2.5241   -0.5672 H   0  0  0  0  0  0  0  0  0  0  0  0
    7.0469   -1.6796   -0.1062 H   0  0  0  0  0  0  0  0  0  0  0  0
    6.8287    1.2898    0.6859 H   0  0  0  0  0  0  0  0  0  0  0  0
    3.3853    2.0565    0.5425 H   0  0  0  0  0  0  0  0  0  0  0  0
   -2.2113    3.4687    1.5988 H   0  0  0  0  0  0  0  0  0  0  0  0
   -4.5404    4.3202    1.5156 H   0  0  0  0  0  0  0  0  0  0  0  0
   -6.3187    2.9729    0.4188 H   0  0  0  0  0  0  0  0  0  0  0  0
   -5.7555    0.7760   -0.5933 H   0  0  0  0  0  0  0  0  0  0  0  0
  1  2  1  0
  2  3  1  0
  3  4  1  0
  4  5  1  0
  5  6  2  3
  6  7  1  0
  7  8  2  0
  8  9  1  0
  9 10  2  0
 10 11  1  0
 10 12  1  0
 12 13  1  0
 12 14  2  0
  4 15  2  0
 15 16  1  0
 16 17  2  0
 17 18  1  0
 18 19  2  0
 19 20  1  0
 20 21  2  0
 21 22  1  0
 22 23  2  0
 22  3  1  0
 14  7  1  0
 21 16  1  0
  1 24  1  0
  1 25  1  0
  1 26  1  0
  2 27  1  0
  2 28  1  0
  5 29  1  0
  6 30  1  0
  8 31  1  0
  9 32  1  0
 11 33  1  0
 13 34  1  0
 14 35  1  0
 17 36  1  0
 18 37  1  0
 19 38  1  0
 20 39  1  0
M  END
$$$$
