
     RDKit          3D

 37 37  0  0  0  0  0  0  0  0999 V2000
   -4.3413    1.5773   -0.6311 C   0  0  0  0  0  0  0  0  0  0  0  0
   -3.8962    0.1230   -0.6908 C   0  0  0  0  0  0  0  0  0  0  0  0
   -2.9360   -0.1797    0.3798 N   0  0  0  0  0  0  0  0  0  0  0  0
   -3.5190   -0.6870    1.6301 C   0  0  0  0  0  0  0  0  0  0  0  0
   -3.5730   -2.2081    1.6304 C   0  0  0  0  0  0  0  0  0  0  0  0
   -1.5666    0.0037    0.2222 C   0  0  0  0  0  0  0  0  0  0  0  0
   -1.0169    0.6150   -0.9208 C   0  0  0  0  0  0  0  0  0  0  0  0
    0.3633    0.8047   -1.0897 C   0  0  0  0  0  0  0  0  0  0  0  0
    1.2443    0.3789   -0.1030 C   0  0  0  0  0  0  0  0  0  0  0  0
    2.6936    0.5801   -0.2976 C   0  0  0  0  0  0  0  0  0  0  0  0
    3.5580    0.1855    0.5756 N   0  0  0  0  0  0  0  0  0  0  0  0
    5.0014    0.4416    0.3008 C   0  0  0  0  0  0  0  0  0  0  0  0
    5.2410    1.8249   -0.1459 C   0  0  0  0  0  0  0  0  0  0  0  0
    5.4104    2.9104   -0.5207 N   0  0  0  0  0  0  0  0  0  0  0  0
    5.5135   -0.5813   -0.6792 C   0  0  0  0  0  0  0  0  0  0  0  0
    4.8928   -1.6631   -1.0426 N   0  0  0  0  0  0  0  0  0  0  0  0
    6.8365   -0.4413   -1.2426 C   0  0  0  0  0  0  0  0  0  0  0  0
    7.9105   -0.2928   -1.6599 N   0  0  0  0  0  0  0  0  0  0  0  0
    0.7471   -0.2291    1.0435 C   0  0  0  0  0  0  0  0  0  0  0  0
   -0.6361   -0.4089    1.1945 C   0  0  0  0  0  0  0  0  0  0  0  0
   -4.8112    1.8056    0.3313 H   0  0  0  0  0  0  0  0  0  0  0  0
   -5.0708    1.7816   -1.4211 H   0  0  0  0  0  0  0  0  0  0  0  0
   -3.5004    2.2653   -0.7601 H   0  0  0  0  0  0  0  0  0  0  0  0
   -3.4956   -0.1249   -1.6800 H   0  0  0  0  0  0  0  0  0  0  0  0
   -4.7831   -0.5144   -0.5818 H   0  0  0  0  0  0  0  0  0  0  0  0
   -4.5420   -0.3051    1.7415 H   0  0  0  0  0  0  0  0  0  0  0  0
   -2.9851   -0.3125    2.5106 H   0  0  0  0  0  0  0  0  0  0  0  0
   -4.1712   -2.5804    0.7922 H   0  0  0  0  0  0  0  0  0  0  0  0
   -4.0278   -2.5694    2.5581 H   0  0  0  0  0  0  0  0  0  0  0  0
   -2.5757   -2.6502    1.5472 H   0  0  0  0  0  0  0  0  0  0  0  0
   -1.6560    0.9782   -1.7201 H   0  0  0  0  0  0  0  0  0  0  0  0
    0.7209    1.2877   -1.9952 H   0  0  0  0  0  0  0  0  0  0  0  0
    2.9884    1.0735   -1.2424 H   0  0  0  0  0  0  0  0  0  0  0  0
    5.5396    0.2801    1.2425 H   0  0  0  0  0  0  0  0  0  0  0  0
    3.9880   -1.7007   -0.5456 H   0  0  0  0  0  0  0  0  0  0  0  0
    1.4161   -0.5691    1.8297 H   0  0  0  0  0  0  0  0  0  0  0  0
   -0.9614   -0.8991    2.1071 H   0  0  0  0  0  0  0  0  0  0  0  0
  1  2  1  0
  2  3  1  0
  3  4  1  0
  4  5  1  0
  3  6  1  0
  6  7  2  0
  7  8  1  0
  8  9  2  0
  9 10  1  0
 10 11  2  3
 11 12  1  0
 12 13  1  0
 13 14  3  0
 12 15  1  0
 15 16  2  3
 15 17  1  0
 17 18  3  0
  9 19  1  0
 19 20  2  0
 20  6  1  0
  1 21  1  0
  1 22  1  0
  1 23  1  0
  2 24  1  0
  2 25  1  0
  4 26  1  0
  4 27  1  0
  5 28  1  0
  5 29  1  0
  5 30  1  0
  7 31  1  0
  8 32  1  0
 10 33  1  0
 12 34  1  0
 16 35  1  0
 19 36  1  0
 20 37  1  0
M  END
$$$$
