
     RDKit          3D

 60 63  0  0  0  0  0  0  0  0999 V2000
   -5.5770   -3.2581    2.6022 C   0  0  0  0  0  0  0  0  0  0  0  0
   -6.1704   -2.7433    1.3043 C   0  0  0  0  0  0  0  0  0  0  0  0
   -5.2707   -1.8237    0.6692 O   0  0  0  0  0  0  0  0  0  0  0  0
   -5.3260   -0.5353    1.1053 C   0  0  0  0  0  0  0  0  0  0  0  0
   -6.1312   -0.1088    1.9251 O   0  0  0  0  0  0  0  0  0  0  0  0
   -4.3311    0.3489    0.3683 C   0  0  0  0  0  0  0  0  0  0  0  0
   -5.0209    0.8874   -0.8996 C   0  0  0  0  0  0  0  0  0  0  0  0
   -4.0153    1.4456   -1.8993 C   0  0  0  0  0  0  0  0  0  0  0  0
   -2.9904    0.3909   -2.3227 C   0  0  0  0  0  0  0  0  0  0  0  0
   -2.8762   -0.7671   -1.3329 C   0  0  0  0  0  0  0  0  0  0  0  0
   -2.9889   -0.2314    0.0361 N   0  0  0  0  0  0  0  0  0  0  0  0
   -2.2229   -1.1003    1.2747 S   0  0  0  0  0  6  0  0  0  0  0  0
   -2.5683   -0.4844    2.5374 O   0  0  0  0  0  0  0  0  0  0  0  0
   -2.4244   -2.5122    1.0352 O   0  0  0  0  0  0  0  0  0  0  0  0
   -0.5112   -0.7235    0.9660 C   0  0  0  0  0  0  0  0  0  0  0  0
    0.3496   -1.7152    0.4668 C   0  0  0  0  0  0  0  0  0  0  0  0
    1.6948   -1.4173    0.2206 C   0  0  0  0  0  0  0  0  0  0  0  0
    2.1565   -0.1403    0.5002 C   0  0  0  0  0  0  0  0  0  0  0  0
    1.2914    0.8366    1.0046 C   0  0  0  0  0  0  0  0  0  0  0  0
   -0.0476    0.5670    1.2421 C   0  0  0  0  0  0  0  0  0  0  0  0
    1.9911    2.1520    1.1446 C   0  0  0  0  0  0  0  0  0  0  0  0
    3.4697    1.7304    1.0038 C   0  0  0  0  0  0  0  0  0  0  0  0
    4.1291    1.6523    2.3872 C   0  0  0  0  0  0  0  0  0  0  0  0
    3.4526    0.3989    0.3449 N   0  0  0  0  0  0  0  0  0  0  0  0
    4.5144   -0.2278   -0.3042 C   0  0  0  0  0  0  0  0  0  0  0  0
    4.4471   -1.3871   -0.7320 O   0  0  0  0  0  0  0  0  0  0  0  0
    5.7988    0.6278   -0.5107 C   0  0  0  0  0  0  0  0  0  0  0  0
    7.0218   -0.0604   -1.1891 C   0  0  0  0  0  0  0  0  0  0  0  0
    7.3078    1.2802   -1.8891 C   0  0  0  0  0  0  0  0  0  0  0  0
    5.8120    1.6033   -1.7234 C   0  0  0  0  0  0  0  0  0  0  0  0
   -6.2441   -3.9881    3.0695 H   0  0  0  0  0  0  0  0  0  0  0  0
   -5.4035   -2.4401    3.3086 H   0  0  0  0  0  0  0  0  0  0  0  0
   -4.6080   -3.7338    2.4212 H   0  0  0  0  0  0  0  0  0  0  0  0
   -6.3161   -3.5780    0.6109 H   0  0  0  0  0  0  0  0  0  0  0  0
   -7.1528   -2.2857    1.4668 H   0  0  0  0  0  0  0  0  0  0  0  0
   -4.1210    1.2041    1.0258 H   0  0  0  0  0  0  0  0  0  0  0  0
   -5.7419    1.6660   -0.6210 H   0  0  0  0  0  0  0  0  0  0  0  0
   -5.6063    0.0958   -1.3866 H   0  0  0  0  0  0  0  0  0  0  0  0
   -3.4917    2.2952   -1.4427 H   0  0  0  0  0  0  0  0  0  0  0  0
   -4.5321    1.8376   -2.7824 H   0  0  0  0  0  0  0  0  0  0  0  0
   -2.0146    0.8791   -2.4387 H   0  0  0  0  0  0  0  0  0  0  0  0
   -3.2512   -0.0111   -3.3090 H   0  0  0  0  0  0  0  0  0  0  0  0
   -1.9183   -1.2710   -1.4934 H   0  0  0  0  0  0  0  0  0  0  0  0
   -3.6659   -1.5054   -1.5129 H   0  0  0  0  0  0  0  0  0  0  0  0
   -0.0177   -2.7196    0.2653 H   0  0  0  0  0  0  0  0  0  0  0  0
    2.3486   -2.1925   -0.1651 H   0  0  0  0  0  0  0  0  0  0  0  0
   -0.7170    1.3328    1.6232 H   0  0  0  0  0  0  0  0  0  0  0  0
    1.7721    2.6479    2.0947 H   0  0  0  0  0  0  0  0  0  0  0  0
    1.6984    2.8047    0.3145 H   0  0  0  0  0  0  0  0  0  0  0  0
    4.0162    2.4492    0.3857 H   0  0  0  0  0  0  0  0  0  0  0  0
    4.1418    2.6394    2.8613 H   0  0  0  0  0  0  0  0  0  0  0  0
    3.5896    0.9657    3.0497 H   0  0  0  0  0  0  0  0  0  0  0  0
    5.1603    1.2949    2.3300 H   0  0  0  0  0  0  0  0  0  0  0  0
    6.1242    1.1224    0.4126 H   0  0  0  0  0  0  0  0  0  0  0  0
    6.7688   -0.8693   -1.8844 H   0  0  0  0  0  0  0  0  0  0  0  0
    7.8036   -0.4106   -0.5097 H   0  0  0  0  0  0  0  0  0  0  0  0
    7.9681    1.9436   -1.3189 H   0  0  0  0  0  0  0  0  0  0  0  0
    7.6694    1.2134   -2.9180 H   0  0  0  0  0  0  0  0  0  0  0  0
    5.1918    1.2796   -2.5675 H   0  0  0  0  0  0  0  0  0  0  0  0
    5.5851    2.6486   -1.4979 H   0  0  0  0  0  0  0  0  0  0  0  0
  1  2  1  0
  2  3  1  0
  3  4  1  0
  4  5  2  0
  4  6  1  0
  6  7  1  0
  7  8  1  0
  8  9  1  0
  9 10  1  0
 10 11  1  0
 11 12  1  0
 12 13  2  0
 12 14  2  0
 12 15  1  0
 15 16  2  0
 16 17  1  0
 17 18  2  0
 18 19  1  0
 19 20  2  0
 19 21  1  0
 21 22  1  0
 22 23  1  0
 22 24  1  0
 24 25  1  0
 25 26  2  0
 25 27  1  0
 27 28  1  0
 28 29  1  0
 29 30  1  0
 11  6  1  0
 20 15  1  0
 30 27  1  0
 24 18  1  0
  1 31  1  0
  1 32  1  0
  1 33  1  0
  2 34  1  0
  2 35  1  0
  6 36  1  0
  7 37  1  0
  7 38  1  0
  8 39  1  0
  8 40  1  0
  9 41  1  0
  9 42  1  0
 10 43  1  0
 10 44  1  0
 16 45  1  0
 17 46  1  0
 20 47  1  0
 21 48  1  0
 21 49  1  0
 22 50  1  0
 23 51  1  0
 23 52  1  0
 23 53  1  0
 27 54  1  0
 28 55  1  0
 28 56  1  0
 29 57  1  0
 29 58  1  0
 30 59  1  0
 30 60  1  0
M  END
$$$$
