
     RDKit          3D

 50 52  0  0  0  0  0  0  0  0999 V2000
    3.0424    1.9888    2.2729 O   0  0  0  0  0  0  0  0  0  0  0  0
    2.5684    1.9576    0.9217 C   0  0  0  0  0  0  0  0  0  0  0  0
    3.7510    2.2188   -0.0227 C   0  0  0  0  0  0  0  0  0  0  0  0
    4.7304    1.1870    0.1541 O   0  0  0  0  0  0  0  0  0  0  0  0
    5.6017    1.0562   -0.9714 C   0  0  0  0  0  0  0  0  0  0  0  0
    5.0257   -0.0099   -1.8528 C   0  0  0  0  0  0  0  0  0  0  0  0
    4.9497   -1.3678   -1.6069 C   0  0  0  0  0  0  0  0  0  0  0  0
    4.3271   -2.0833   -2.6689 C   0  0  0  0  0  0  0  0  0  0  0  0
    3.9392   -1.2477   -3.6913 C   0  0  0  0  0  0  0  0  0  0  0  0
    4.3451    0.3840   -3.3737 S   0  0  0  0  0  0  0  0  0  0  0  0
    1.9074    0.5899    0.6037 C   0  0  0  0  0  0  0  0  0  0  0  0
    0.7250    0.2546    1.4227 N   0  0  0  0  0  0  0  0  0  0  0  0
    0.2132   -1.0950    1.1074 C   0  0  0  0  0  0  0  0  0  0  0  0
   -0.9536   -1.1448    0.0928 C   0  0  0  0  0  0  0  0  0  0  0  0
   -2.0888   -0.3210    0.5407 N   0  0  0  0  0  0  0  0  0  0  0  0
   -3.3875   -0.6175    0.1628 C   0  0  0  0  0  0  0  0  0  0  0  0
   -3.6693   -1.3538   -0.9998 C   0  0  0  0  0  0  0  0  0  0  0  0
   -4.9799   -1.6492   -1.3953 C   0  0  0  0  0  0  0  0  0  0  0  0
   -6.0559   -1.2144   -0.6284 C   0  0  0  0  0  0  0  0  0  0  0  0
   -5.8248   -0.4870    0.5419 C   0  0  0  0  0  0  0  0  0  0  0  0
   -6.9712    0.0067    1.3876 C   0  0  0  0  0  0  0  0  0  0  0  0
   -8.1139   -0.7196    1.2250 F   0  0  0  0  0  0  0  0  0  0  0  0
   -7.3079    1.2982    1.1067 F   0  0  0  0  0  0  0  0  0  0  0  0
   -6.7009   -0.0244    2.7260 F   0  0  0  0  0  0  0  0  0  0  0  0
   -4.4963   -0.1914    0.9135 C   0  0  0  0  0  0  0  0  0  0  0  0
   -1.7779    0.7361    1.5183 C   0  0  0  0  0  0  0  0  0  0  0  0
   -0.3428    1.2714    1.3009 C   0  0  0  0  0  0  0  0  0  0  0  0
    3.7381    1.2992    2.3235 H   0  0  0  0  0  0  0  0  0  0  0  0
    1.8478    2.7744    0.8070 H   0  0  0  0  0  0  0  0  0  0  0  0
    3.3918    2.2561   -1.0567 H   0  0  0  0  0  0  0  0  0  0  0  0
    4.2287    3.1731    0.2240 H   0  0  0  0  0  0  0  0  0  0  0  0
    5.7550    2.0182   -1.4786 H   0  0  0  0  0  0  0  0  0  0  0  0
    6.5735    0.7212   -0.5947 H   0  0  0  0  0  0  0  0  0  0  0  0
    5.3223   -1.8239   -0.6997 H   0  0  0  0  0  0  0  0  0  0  0  0
    4.1703   -3.1573   -2.6829 H   0  0  0  0  0  0  0  0  0  0  0  0
    3.4507   -1.5156   -4.6194 H   0  0  0  0  0  0  0  0  0  0  0  0
    2.6558   -0.1916    0.7821 H   0  0  0  0  0  0  0  0  0  0  0  0
    1.6444    0.5556   -0.4608 H   0  0  0  0  0  0  0  0  0  0  0  0
    1.0209   -1.7573    0.7703 H   0  0  0  0  0  0  0  0  0  0  0  0
   -0.1411   -1.5292    2.0525 H   0  0  0  0  0  0  0  0  0  0  0  0
   -1.2509   -2.1957   -0.0112 H   0  0  0  0  0  0  0  0  0  0  0  0
   -0.6108   -0.7900   -0.8864 H   0  0  0  0  0  0  0  0  0  0  0  0
   -2.8616   -1.6947   -1.6444 H   0  0  0  0  0  0  0  0  0  0  0  0
   -5.1531   -2.2136   -2.3082 H   0  0  0  0  0  0  0  0  0  0  0  0
   -7.0719   -1.4469   -0.9440 H   0  0  0  0  0  0  0  0  0  0  0  0
   -4.3432    0.3670    1.8349 H   0  0  0  0  0  0  0  0  0  0  0  0
   -1.8883    0.3460    2.5385 H   0  0  0  0  0  0  0  0  0  0  0  0
   -2.4628    1.5870    1.4013 H   0  0  0  0  0  0  0  0  0  0  0  0
   -0.1534    2.0656    2.0296 H   0  0  0  0  0  0  0  0  0  0  0  0
   -0.3180    1.7301    0.3032 H   0  0  0  0  0  0  0  0  0  0  0  0
  1  2  1  0
  2  3  1  0
  3  4  1  0
  4  5  1  0
  5  6  1  0
  6  7  2  0
  7  8  1  0
  8  9  2  0
  9 10  1  0
  2 11  1  0
 11 12  1  0
 12 13  1  0
 13 14  1  0
 14 15  1  0
 15 16  1  0
 16 17  2  0
 17 18  1  0
 18 19  2  0
 19 20  1  0
 20 21  1  0
 21 22  1  0
 21 23  1  0
 21 24  1  0
 20 25  2  0
 15 26  1  0
 26 27  1  0
 10  6  1  0
 27 12  1  0
 25 16  1  0
  1 28  1  0
  2 29  1  0
  3 30  1  0
  3 31  1  0
  5 32  1  0
  5 33  1  0
  7 34  1  0
  8 35  1  0
  9 36  1  0
 11 37  1  0
 11 38  1  0
 13 39  1  0
 13 40  1  0
 14 41  1  0
 14 42  1  0
 17 43  1  0
 18 44  1  0
 19 45  1  0
 25 46  1  0
 26 47  1  0
 26 48  1  0
 27 49  1  0
 27 50  1  0
M  END
$$$$
