
     RDKit          3D

 51 54  0  0  0  0  0  0  0  0999 V2000
    1.1028    3.2212    0.2326 O   0  0  0  0  0  0  0  0  0  0  0  0
    1.3218    2.0392   -0.0367 C   0  0  0  0  0  0  0  0  0  0  0  0
    2.6686    1.5044   -0.1004 C   0  0  0  0  0  0  0  0  0  0  0  0
    3.2508    0.5184    0.6756 C   0  0  0  0  0  0  0  0  0  0  0  0
    4.6119    0.2800    0.3177 C   0  0  0  0  0  0  0  0  0  0  0  0
    5.0150    1.1199   -0.7027 C   0  0  0  0  0  0  0  0  0  0  0  0
    3.7786    2.1672   -1.2209 S   0  0  0  0  0  0  0  0  0  0  0  0
    6.3766    1.1264   -1.3269 C   0  0  0  0  0  0  0  0  0  0  0  0
    7.3787    0.3724   -0.4376 C   0  0  0  0  0  0  0  0  0  0  0  0
    6.7933   -0.9456    0.0912 C   0  0  0  0  0  0  0  0  0  0  0  0
    5.5450   -0.7048    0.9545 C   0  0  0  0  0  0  0  0  0  0  0  0
    0.2604    1.1593   -0.2664 N   0  0  0  0  0  0  0  0  0  0  0  0
    0.3657   -0.1849   -0.8391 C   0  0  0  0  0  0  0  0  0  0  0  0
   -0.6017   -1.1696   -0.1665 C   0  0  0  0  0  0  0  0  0  0  0  0
   -1.9995   -0.6326   -0.0127 N   0  0  0  0  0  0  0  0  0  0  0  0
   -3.2036   -1.7830   -0.3726 S   0  0  0  0  0  6  0  0  0  0  0  0
   -2.8807   -2.9944    0.3520 O   0  0  0  0  0  0  0  0  0  0  0  0
   -3.3544   -1.8031   -1.8066 O   0  0  0  0  0  0  0  0  0  0  0  0
   -4.6530   -1.0883    0.4034 C   0  0  0  0  0  0  0  0  0  0  0  0
   -4.6752   -1.1431    1.8099 C   0  0  0  0  0  0  0  0  0  0  0  0
   -5.7658   -0.6492    2.5215 C   0  0  0  0  0  0  0  0  0  0  0  0
   -6.8447   -0.1046    1.8362 C   0  0  0  0  0  0  0  0  0  0  0  0
   -6.8309   -0.0525    0.4406 C   0  0  0  0  0  0  0  0  0  0  0  0
   -5.7369   -0.5411   -0.3067 C   0  0  0  0  0  0  0  0  0  0  0  0
   -5.7890   -0.4323   -1.8119 C   0  0  0  0  0  0  0  0  0  0  0  0
   -4.7494    0.2812   -2.3222 F   0  0  0  0  0  0  0  0  0  0  0  0
   -5.8305   -1.6333   -2.4402 F   0  0  0  0  0  0  0  0  0  0  0  0
   -6.9042    0.2296   -2.2470 F   0  0  0  0  0  0  0  0  0  0  0  0
   -2.1845    0.7201   -0.6192 C   0  0  0  0  0  0  0  0  0  0  0  0
   -1.0975    1.6840   -0.1231 C   0  0  0  0  0  0  0  0  0  0  0  0
    2.7236    0.0002    1.4681 H   0  0  0  0  0  0  0  0  0  0  0  0
    6.3204    0.6338   -2.3058 H   0  0  0  0  0  0  0  0  0  0  0  0
    6.7327    2.1500   -1.4889 H   0  0  0  0  0  0  0  0  0  0  0  0
    7.6615    1.0058    0.4141 H   0  0  0  0  0  0  0  0  0  0  0  0
    8.2946    0.1745   -1.0062 H   0  0  0  0  0  0  0  0  0  0  0  0
    7.5467   -1.4800    0.6806 H   0  0  0  0  0  0  0  0  0  0  0  0
    6.5353   -1.5899   -0.7590 H   0  0  0  0  0  0  0  0  0  0  0  0
    5.0308   -1.6567    1.1296 H   0  0  0  0  0  0  0  0  0  0  0  0
    5.8497   -0.3137    1.9331 H   0  0  0  0  0  0  0  0  0  0  0  0
    0.1239   -0.0902   -1.9052 H   0  0  0  0  0  0  0  0  0  0  0  0
    1.3813   -0.5792   -0.7907 H   0  0  0  0  0  0  0  0  0  0  0  0
   -0.5953   -2.1024   -0.7410 H   0  0  0  0  0  0  0  0  0  0  0  0
   -0.2412   -1.3990    0.8433 H   0  0  0  0  0  0  0  0  0  0  0  0
   -3.8384   -1.5768    2.3573 H   0  0  0  0  0  0  0  0  0  0  0  0
   -5.7752   -0.6969    3.6081 H   0  0  0  0  0  0  0  0  0  0  0  0
   -7.7023    0.2766    2.3860 H   0  0  0  0  0  0  0  0  0  0  0  0
   -7.6943    0.3788   -0.0682 H   0  0  0  0  0  0  0  0  0  0  0  0
   -3.1581    1.1315   -0.3382 H   0  0  0  0  0  0  0  0  0  0  0  0
   -2.1455    0.6416   -1.7116 H   0  0  0  0  0  0  0  0  0  0  0  0
   -1.1749    2.6352   -0.6624 H   0  0  0  0  0  0  0  0  0  0  0  0
   -1.2433    1.8960    0.9435 H   0  0  0  0  0  0  0  0  0  0  0  0
  1  2  2  0
  2  3  1  0
  3  4  2  0
  4  5  1  0
  5  6  2  0
  6  7  1  0
  6  8  1  0
  8  9  1  0
  9 10  1  0
 10 11  1  0
  2 12  1  0
 12 13  1  0
 13 14  1  0
 14 15  1  0
 15 16  1  0
 16 17  2  0
 16 18  2  0
 16 19  1  0
 19 20  2  0
 20 21  1  0
 21 22  2  0
 22 23  1  0
 23 24  2  0
 24 25  1  0
 25 26  1  0
 25 27  1  0
 25 28  1  0
 15 29  1  0
 29 30  1  0
  7  3  1  0
 30 12  1  0
 11  5  1  0
 24 19  1  0
  4 31  1  0
  8 32  1  0
  8 33  1  0
  9 34  1  0
  9 35  1  0
 10 36  1  0
 10 37  1  0
 11 38  1  0
 11 39  1  0
 13 40  1  0
 13 41  1  0
 14 42  1  0
 14 43  1  0
 20 44  1  0
 21 45  1  0
 22 46  1  0
 23 47  1  0
 29 48  1  0
 29 49  1  0
 30 50  1  0
 30 51  1  0
M  END
$$$$
