
     RDKit          3D

 47 49  0  0  0  0  0  0  0  0999 V2000
    5.5897   -3.2620    1.2862 C   0  0  0  0  0  0  0  0  0  0  0  0
    5.2361   -1.8058    1.0012 C   0  0  0  0  0  0  0  0  0  0  0  0
    4.1618   -1.6618    0.0099 N   0  0  0  0  0  0  0  0  0  0  0  0
    2.8903   -2.2599    0.4759 C   0  0  0  0  0  0  0  0  0  0  0  0
    1.6260   -1.6555   -0.1767 C   0  0  0  0  0  0  0  0  0  0  0  0
    1.5006   -0.2078    0.1182 N   0  0  0  0  0  0  0  0  0  0  0  0
    0.2686    0.4697    0.1401 C   0  0  0  0  0  0  0  0  0  0  0  0
   -0.8740   -0.0359   -0.3721 C   0  0  0  0  0  0  0  0  0  0  0  0
   -2.1564    0.6536   -0.3813 C   0  0  0  0  0  0  0  0  0  0  0  0
   -3.2771    0.0237   -0.7832 C   0  0  0  0  0  0  0  0  0  0  0  0
   -4.6002    0.6578   -0.8287 C   0  0  0  0  0  0  0  0  0  0  0  0
   -5.7389   -0.0269   -1.1090 C   0  0  0  0  0  0  0  0  0  0  0  0
   -5.7420   -1.4302   -1.3647 C   0  0  0  0  0  0  0  0  0  0  0  0
   -5.7324   -2.5722   -1.5726 N   0  0  0  0  0  0  0  0  0  0  0  0
   -7.0044    0.6278   -1.1730 C   0  0  0  0  0  0  0  0  0  0  0  0
   -8.0275    1.1735   -1.2229 N   0  0  0  0  0  0  0  0  0  0  0  0
   -4.5914    2.1558   -0.5471 C   0  0  0  0  0  0  0  0  0  0  0  0
   -3.5625    2.5360    0.5166 C   0  0  0  0  0  0  0  0  0  0  0  0
   -2.1594    2.0914    0.0890 C   0  0  0  0  0  0  0  0  0  0  0  0
   -1.1612    2.2879    1.2308 C   0  0  0  0  0  0  0  0  0  0  0  0
    0.2385    1.8405    0.8059 C   0  0  0  0  0  0  0  0  0  0  0  0
    2.7965    0.4746    0.3444 C   0  0  0  0  0  0  0  0  0  0  0  0
    3.9598   -0.2471   -0.3728 C   0  0  0  0  0  0  0  0  0  0  0  0
    4.7717   -3.7902    1.7857 H   0  0  0  0  0  0  0  0  0  0  0  0
    5.8347   -3.7963    0.3621 H   0  0  0  0  0  0  0  0  0  0  0  0
    6.4640   -3.3114    1.9437 H   0  0  0  0  0  0  0  0  0  0  0  0
    4.9792   -1.2979    1.9392 H   0  0  0  0  0  0  0  0  0  0  0  0
    6.1450   -1.3268    0.6158 H   0  0  0  0  0  0  0  0  0  0  0  0
    2.7887   -2.1392    1.5634 H   0  0  0  0  0  0  0  0  0  0  0  0
    2.9095   -3.3356    0.2669 H   0  0  0  0  0  0  0  0  0  0  0  0
    1.6481   -1.8054   -1.2628 H   0  0  0  0  0  0  0  0  0  0  0  0
    0.7617   -2.1997    0.2219 H   0  0  0  0  0  0  0  0  0  0  0  0
   -0.8610   -1.0179   -0.8363 H   0  0  0  0  0  0  0  0  0  0  0  0
   -3.1991   -1.0193   -1.0888 H   0  0  0  0  0  0  0  0  0  0  0  0
   -4.3647    2.6869   -1.4809 H   0  0  0  0  0  0  0  0  0  0  0  0
   -5.5683    2.5142   -0.2054 H   0  0  0  0  0  0  0  0  0  0  0  0
   -3.5772    3.6217    0.6712 H   0  0  0  0  0  0  0  0  0  0  0  0
   -3.8384    2.0749    1.4746 H   0  0  0  0  0  0  0  0  0  0  0  0
   -1.8431    2.7179   -0.7579 H   0  0  0  0  0  0  0  0  0  0  0  0
   -1.1300    3.3413    1.5343 H   0  0  0  0  0  0  0  0  0  0  0  0
   -1.4742    1.7131    2.1132 H   0  0  0  0  0  0  0  0  0  0  0  0
    0.6583    2.5783    0.1106 H   0  0  0  0  0  0  0  0  0  0  0  0
    0.8695    1.8387    1.7028 H   0  0  0  0  0  0  0  0  0  0  0  0
    2.9935    0.5276    1.4217 H   0  0  0  0  0  0  0  0  0  0  0  0
    2.7578    1.4996   -0.0415 H   0  0  0  0  0  0  0  0  0  0  0  0
    4.8817    0.3347   -0.2496 H   0  0  0  0  0  0  0  0  0  0  0  0
    3.7515   -0.2363   -1.4510 H   0  0  0  0  0  0  0  0  0  0  0  0
  1  2  1  0
  2  3  1  0
  3  4  1  0
  4  5  1  0
  5  6  1  0
  6  7  1  0
  7  8  2  0
  8  9  1  0
  9 10  2  0
 10 11  1  0
 11 12  2  3
 12 13  1  0
 13 14  3  0
 12 15  1  0
 15 16  3  0
 11 17  1  0
 17 18  1  0
 18 19  1  0
 19 20  1  0
 20 21  1  0
  6 22  1  0
 22 23  1  0
 23  3  1  0
 21  7  1  0
 19  9  1  0
  1 24  1  0
  1 25  1  0
  1 26  1  0
  2 27  1  0
  2 28  1  0
  4 29  1  0
  4 30  1  0
  5 31  1  0
  5 32  1  0
  8 33  1  0
 10 34  1  0
 17 35  1  0
 17 36  1  0
 18 37  1  0
 18 38  1  0
 19 39  1  0
 20 40  1  0
 20 41  1  0
 21 42  1  0
 21 43  1  0
 22 44  1  0
 22 45  1  0
 23 46  1  0
 23 47  1  0
M  END
$$$$
