
     RDKit          3D

 47 50  0  0  0  0  0  0  0  0999 V2000
    7.4330   -1.6301    0.2069 C   0  0  0  0  0  0  0  0  0  0  0  0
    6.4449   -1.3314   -0.6472 C   0  0  0  0  0  0  0  0  0  0  0  0
    5.9694    0.0642   -0.9445 C   0  0  0  0  0  0  0  0  0  0  0  0
    4.6743    0.2664   -0.3116 N   0  0  0  0  0  0  0  0  0  0  0  0
    4.6597    0.8254    0.9498 C   0  0  0  0  0  0  0  0  0  0  0  0
    5.6594    1.2268    1.5435 O   0  0  0  0  0  0  0  0  0  0  0  0
    3.4443    0.9543    1.5510 N   0  0  0  0  0  0  0  0  0  0  0  0
    2.2161    0.7578    0.9941 C   0  0  0  0  0  0  0  0  0  0  0  0
    1.2096    1.1147    1.5925 O   0  0  0  0  0  0  0  0  0  0  0  0
    2.2369    0.1287   -0.3437 C   0  0  0  0  0  0  0  0  0  0  0  0
    1.1309   -0.2416   -1.0214 C   0  0  0  0  0  0  0  0  0  0  0  0
   -0.2646   -0.1316   -0.5884 C   0  0  0  0  0  0  0  0  0  0  0  0
   -0.7904   -0.9998    0.3687 C   0  0  0  0  0  0  0  0  0  0  0  0
   -2.1428   -0.9183    0.7423 C   0  0  0  0  0  0  0  0  0  0  0  0
   -2.9883    0.0558    0.1739 C   0  0  0  0  0  0  0  0  0  0  0  0
   -2.4423    0.9340   -0.7835 C   0  0  0  0  0  0  0  0  0  0  0  0
   -1.0959    0.8251   -1.1708 C   0  0  0  0  0  0  0  0  0  0  0  0
   -3.3065    1.9878   -1.4271 C   0  0  0  0  0  0  0  0  0  0  0  0
   -4.4825    2.3480   -0.5312 C   0  0  0  0  0  0  0  0  0  0  0  0
   -5.2189    1.0824   -0.1214 C   0  0  0  0  0  0  0  0  0  0  0  0
   -4.3242    0.1439    0.5433 N   0  0  0  0  0  0  0  0  0  0  0  0
   -4.8303   -0.6445    1.6589 C   0  0  0  0  0  0  0  0  0  0  0  0
   -4.1785   -2.0179    1.6899 C   0  0  0  0  0  0  0  0  0  0  0  0
   -2.6679   -1.8647    1.7917 C   0  0  0  0  0  0  0  0  0  0  0  0
    3.5438   -0.1165   -1.0172 C   0  0  0  0  0  0  0  0  0  0  0  0
    3.5973   -0.6270   -2.1364 O   0  0  0  0  0  0  0  0  0  0  0  0
    7.7377   -2.6596    0.3685 H   0  0  0  0  0  0  0  0  0  0  0  0
    7.9520   -0.8590    0.7701 H   0  0  0  0  0  0  0  0  0  0  0  0
    5.9543   -2.1363   -1.1919 H   0  0  0  0  0  0  0  0  0  0  0  0
    6.6895    0.8094   -0.5874 H   0  0  0  0  0  0  0  0  0  0  0  0
    5.8887    0.1949   -2.0296 H   0  0  0  0  0  0  0  0  0  0  0  0
    3.4484    1.4117    2.4518 H   0  0  0  0  0  0  0  0  0  0  0  0
    1.2207   -0.6819   -2.0149 H   0  0  0  0  0  0  0  0  0  0  0  0
   -0.1535   -1.7503    0.8302 H   0  0  0  0  0  0  0  0  0  0  0  0
   -0.6997    1.5027   -1.9235 H   0  0  0  0  0  0  0  0  0  0  0  0
   -2.7198    2.8931   -1.6224 H   0  0  0  0  0  0  0  0  0  0  0  0
   -3.6662    1.6064   -2.3905 H   0  0  0  0  0  0  0  0  0  0  0  0
   -4.1231    2.8728    0.3636 H   0  0  0  0  0  0  0  0  0  0  0  0
   -5.1609    3.0287   -1.0572 H   0  0  0  0  0  0  0  0  0  0  0  0
   -5.6596    0.5965   -1.0004 H   0  0  0  0  0  0  0  0  0  0  0  0
   -6.0473    1.3561    0.5428 H   0  0  0  0  0  0  0  0  0  0  0  0
   -4.6426   -0.1087    2.5975 H   0  0  0  0  0  0  0  0  0  0  0  0
   -5.9159   -0.7722    1.5720 H   0  0  0  0  0  0  0  0  0  0  0  0
   -4.5550   -2.5991    2.5387 H   0  0  0  0  0  0  0  0  0  0  0  0
   -4.4362   -2.5699    0.7766 H   0  0  0  0  0  0  0  0  0  0  0  0
   -2.3944   -1.4758    2.7801 H   0  0  0  0  0  0  0  0  0  0  0  0
   -2.2034   -2.8515    1.6794 H   0  0  0  0  0  0  0  0  0  0  0  0
  1  2  2  0
  2  3  1  0
  3  4  1  0
  4  5  1  0
  5  6  2  0
  5  7  1  0
  7  8  1  0
  8  9  2  0
  8 10  1  0
 10 11  2  3
 11 12  1  0
 12 13  2  0
 13 14  1  0
 14 15  2  0
 15 16  1  0
 16 17  2  0
 16 18  1  0
 18 19  1  0
 19 20  1  0
 20 21  1  0
 21 22  1  0
 22 23  1  0
 23 24  1  0
 10 25  1  0
 25 26  2  0
 25  4  1  0
 17 12  1  0
 24 14  1  0
 21 15  1  0
  1 27  1  0
  1 28  1  0
  2 29  1  0
  3 30  1  0
  3 31  1  0
  7 32  1  0
 11 33  1  0
 13 34  1  0
 17 35  1  0
 18 36  1  0
 18 37  1  0
 19 38  1  0
 19 39  1  0
 20 40  1  0
 20 41  1  0
 22 42  1  0
 22 43  1  0
 23 44  1  0
 23 45  1  0
 24 46  1  0
 24 47  1  0
M  END
$$$$
