
     RDKit          3D

 63 64  0  0  0  0  0  0  0  0999 V2000
   -2.7817   -1.7396   -3.7699 C   0  0  0  0  0  0  0  0  0  0  0  0
   -2.1456   -2.3342   -2.5138 C   0  0  0  0  0  0  0  0  0  0  0  0
   -2.4401   -3.8348   -2.4454 C   0  0  0  0  0  0  0  0  0  0  0  0
   -2.6381   -1.6489   -1.2232 C   0  0  0  0  0  0  0  0  0  0  0  0
   -2.3443   -0.1449   -1.1394 C   0  0  0  0  0  0  0  0  0  0  0  0
   -0.9133    0.1227   -1.2272 N   0  0  0  0  0  0  0  0  0  0  0  0
   -0.4313    1.3386   -1.6276 C   0  0  0  0  0  0  0  0  0  0  0  0
   -1.1711    2.1927   -2.1130 O   0  0  0  0  0  0  0  0  0  0  0  0
    0.9836    1.5836   -1.4799 C   0  0  0  0  0  0  0  0  0  0  0  0
    1.5460    2.7061   -2.0556 N   0  0  0  0  0  0  0  0  0  0  0  0
    2.8797    2.7094   -1.8037 C   0  0  0  0  0  0  0  0  0  0  0  0
    3.2231    1.6743   -1.0801 N   0  0  0  0  0  0  0  0  0  0  0  0
    2.0519    0.9604   -0.8352 C   0  0  0  0  0  0  0  0  0  0  0  0
    2.0315   -0.2888   -0.0514 C   0  0  0  0  0  0  0  0  0  0  0  0
    1.1497   -1.1286   -0.2505 O   0  0  0  0  0  0  0  0  0  0  0  0
    3.0334   -0.5166    0.9012 N   0  0  0  0  0  0  0  0  0  0  0  0
    3.0470   -1.8194    1.5469 C   0  0  0  0  0  0  0  0  0  0  0  0
    3.7225    0.5630    1.6122 C   0  0  0  0  0  0  0  0  0  0  0  0
    5.2201    0.3714    1.6744 C   0  0  0  0  0  0  0  0  0  0  0  0
    5.8670    0.1578    2.9018 C   0  0  0  0  0  0  0  0  0  0  0  0
    7.2504   -0.0259    2.9522 C   0  0  0  0  0  0  0  0  0  0  0  0
    8.0008    0.0063    1.7793 C   0  0  0  0  0  0  0  0  0  0  0  0
    7.3704    0.2248    0.5556 C   0  0  0  0  0  0  0  0  0  0  0  0
    5.9880    0.4045    0.5033 C   0  0  0  0  0  0  0  0  0  0  0  0
   -2.8712    0.3943    0.1998 C   0  0  0  0  0  0  0  0  0  0  0  0
   -2.1899    0.5576    1.2042 O   0  0  0  0  0  0  0  0  0  0  0  0
   -4.2120    0.6227    0.1023 O   0  0  0  0  0  0  0  0  0  0  0  0
   -4.9590    1.1447    1.2296 C   0  0  0  0  0  0  0  0  0  0  0  0
   -4.4477    2.5279    1.6460 C   0  0  0  0  0  0  0  0  0  0  0  0
   -6.3985    1.2914    0.7099 C   0  0  0  0  0  0  0  0  0  0  0  0
   -4.9592    0.1545    2.3991 C   0  0  0  0  0  0  0  0  0  0  0  0
   -2.4784   -2.3002   -4.6609 H   0  0  0  0  0  0  0  0  0  0  0  0
   -3.8747   -1.7643   -3.7104 H   0  0  0  0  0  0  0  0  0  0  0  0
   -2.4718   -0.7016   -3.9207 H   0  0  0  0  0  0  0  0  0  0  0  0
   -1.0580   -2.2157   -2.5908 H   0  0  0  0  0  0  0  0  0  0  0  0
   -1.9660   -4.2851   -1.5670 H   0  0  0  0  0  0  0  0  0  0  0  0
   -3.5165   -4.0263   -2.3856 H   0  0  0  0  0  0  0  0  0  0  0  0
   -2.0532   -4.3490   -3.3318 H   0  0  0  0  0  0  0  0  0  0  0  0
   -2.1768   -2.1507   -0.3609 H   0  0  0  0  0  0  0  0  0  0  0  0
   -3.7197   -1.8086   -1.1196 H   0  0  0  0  0  0  0  0  0  0  0  0
   -2.8515    0.4050   -1.9398 H   0  0  0  0  0  0  0  0  0  0  0  0
   -0.2926   -0.5020   -0.7149 H   0  0  0  0  0  0  0  0  0  0  0  0
    1.0265    3.3914   -2.5895 H   0  0  0  0  0  0  0  0  0  0  0  0
    3.5436    3.4821   -2.1677 H   0  0  0  0  0  0  0  0  0  0  0  0
    4.0689   -2.0978    1.8153 H   0  0  0  0  0  0  0  0  0  0  0  0
    2.4284   -1.7739    2.4479 H   0  0  0  0  0  0  0  0  0  0  0  0
    2.6491   -2.5931    0.8846 H   0  0  0  0  0  0  0  0  0  0  0  0
    3.4999    1.5533    1.2115 H   0  0  0  0  0  0  0  0  0  0  0  0
    3.3038    0.5795    2.6272 H   0  0  0  0  0  0  0  0  0  0  0  0
    5.2964    0.1274    3.8269 H   0  0  0  0  0  0  0  0  0  0  0  0
    7.7430   -0.1953    3.9068 H   0  0  0  0  0  0  0  0  0  0  0  0
    9.0772   -0.1359    1.8164 H   0  0  0  0  0  0  0  0  0  0  0  0
    7.9535    0.2516   -0.3609 H   0  0  0  0  0  0  0  0  0  0  0  0
    5.5062    0.5677   -0.4591 H   0  0  0  0  0  0  0  0  0  0  0  0
   -5.1214    2.9998    2.3693 H   0  0  0  0  0  0  0  0  0  0  0  0
   -3.4578    2.4754    2.1083 H   0  0  0  0  0  0  0  0  0  0  0  0
   -4.3547    3.1857    0.7754 H   0  0  0  0  0  0  0  0  0  0  0  0
   -6.4330    1.9674   -0.1522 H   0  0  0  0  0  0  0  0  0  0  0  0
   -7.0730    1.6794    1.4794 H   0  0  0  0  0  0  0  0  0  0  0  0
   -6.7886    0.3275    0.3633 H   0  0  0  0  0  0  0  0  0  0  0  0
   -5.2608   -0.8429    2.0618 H   0  0  0  0  0  0  0  0  0  0  0  0
   -5.6429    0.4752    3.1918 H   0  0  0  0  0  0  0  0  0  0  0  0
   -3.9671    0.0468    2.8445 H   0  0  0  0  0  0  0  0  0  0  0  0
  1  2  1  0
  2  3  1  0
  2  4  1  0
  4  5  1  0
  5  6  1  0
  6  7  1  0
  7  8  2  0
  7  9  1  0
  9 10  1  0
 10 11  1  0
 11 12  2  0
 12 13  1  0
 13 14  1  0
 14 15  2  0
 14 16  1  0
 16 17  1  0
 16 18  1  0
 18 19  1  0
 19 20  2  0
 20 21  1  0
 21 22  2  0
 22 23  1  0
 23 24  2  0
  5 25  1  0
 25 26  2  0
 25 27  1  0
 27 28  1  0
 28 29  1  0
 28 30  1  0
 28 31  1  0
 13  9  2  0
 24 19  1  0
  1 32  1  0
  1 33  1  0
  1 34  1  0
  2 35  1  0
  3 36  1  0
  3 37  1  0
  3 38  1  0
  4 39  1  0
  4 40  1  0
  5 41  1  0
  6 42  1  0
 10 43  1  0
 11 44  1  0
 17 45  1  0
 17 46  1  0
 17 47  1  0
 18 48  1  0
 18 49  1  0
 20 50  1  0
 21 51  1  0
 22 52  1  0
 23 53  1  0
 24 54  1  0
 29 55  1  0
 29 56  1  0
 29 57  1  0
 30 58  1  0
 30 59  1  0
 30 60  1  0
 31 61  1  0
 31 62  1  0
 31 63  1  0
M  END
$$$$
