
     RDKit          3D

 50 53  0  0  0  0  0  0  0  0999 V2000
    7.4822    1.5904   -1.8598 C   0  0  0  0  0  0  0  0  0  0  0  0
    6.3192    0.8844   -1.2365 C   0  0  0  0  0  0  0  0  0  0  0  0
    5.0132    1.2223   -1.5870 C   0  0  0  0  0  0  0  0  0  0  0  0
    3.9230    0.6179   -1.0563 N   0  0  0  0  0  0  0  0  0  0  0  0
    4.2004   -0.3600   -0.1460 C   0  0  0  0  0  0  0  0  0  0  0  0
    3.0410   -1.0607    0.4724 C   0  0  0  0  0  0  0  0  0  0  0  0
    3.1960   -1.9186    1.3329 O   0  0  0  0  0  0  0  0  0  0  0  0
    1.8126   -0.6519    0.0022 N   0  0  0  0  0  0  0  0  0  0  0  0
    0.5706   -1.1112    0.5804 C   0  0  0  0  0  0  0  0  0  0  0  0
    0.2663   -0.3559    1.8959 C   0  0  0  0  0  0  0  0  0  0  0  0
   -1.2233   -0.4433    2.3411 C   0  0  0  0  0  0  0  0  0  0  0  0
   -1.6096   -1.9023    2.6592 C   0  0  0  0  0  0  0  0  0  0  0  0
   -1.4060    0.3866    3.6261 C   0  0  0  0  0  0  0  0  0  0  0  0
   -2.1574    0.1385    1.2327 C   0  0  0  0  0  0  0  0  0  0  0  0
   -1.7443   -0.3229   -0.1263 C   0  0  0  0  0  0  0  0  0  0  0  0
   -0.5183   -0.8977   -0.4132 C   0  0  0  0  0  0  0  0  0  0  0  0
   -0.6138   -1.2860   -1.7531 C   0  0  0  0  0  0  0  0  0  0  0  0
   -1.7853   -0.9608   -2.2927 N   0  0  0  0  0  0  0  0  0  0  0  0
   -2.4761   -0.3111   -1.3083 N   0  0  0  0  0  0  0  0  0  0  0  0
   -3.7568    0.2455   -1.6182 C   0  0  0  0  0  0  0  0  0  0  0  0
   -4.3609   -0.0924   -2.8436 C   0  0  0  0  0  0  0  0  0  0  0  0
   -5.6118    0.4228   -3.1932 C   0  0  0  0  0  0  0  0  0  0  0  0
   -6.2725    1.2900   -2.3295 C   0  0  0  0  0  0  0  0  0  0  0  0
   -5.6788    1.6470   -1.1216 C   0  0  0  0  0  0  0  0  0  0  0  0
   -4.4256    1.1321   -0.7669 C   0  0  0  0  0  0  0  0  0  0  0  0
    5.4938   -0.7031    0.2114 C   0  0  0  0  0  0  0  0  0  0  0  0
    6.5788   -0.0880   -0.3260 N   0  0  0  0  0  0  0  0  0  0  0  0
    8.4283    1.2007   -1.4706 H   0  0  0  0  0  0  0  0  0  0  0  0
    7.4749    1.4468   -2.9447 H   0  0  0  0  0  0  0  0  0  0  0  0
    7.4378    2.6612   -1.6383 H   0  0  0  0  0  0  0  0  0  0  0  0
    4.8074    2.0002   -2.3157 H   0  0  0  0  0  0  0  0  0  0  0  0
    1.8129    0.1451   -0.6300 H   0  0  0  0  0  0  0  0  0  0  0  0
    0.6615   -2.1838    0.7921 H   0  0  0  0  0  0  0  0  0  0  0  0
    0.9250   -0.7320    2.6899 H   0  0  0  0  0  0  0  0  0  0  0  0
    0.5285    0.7053    1.7702 H   0  0  0  0  0  0  0  0  0  0  0  0
   -0.9439   -2.3263    3.4195 H   0  0  0  0  0  0  0  0  0  0  0  0
   -2.6334   -1.9609    3.0462 H   0  0  0  0  0  0  0  0  0  0  0  0
   -1.5596   -2.5493    1.7780 H   0  0  0  0  0  0  0  0  0  0  0  0
   -0.7819   -0.0006    4.4393 H   0  0  0  0  0  0  0  0  0  0  0  0
   -1.1288    1.4345    3.4651 H   0  0  0  0  0  0  0  0  0  0  0  0
   -2.4481    0.3664    3.9646 H   0  0  0  0  0  0  0  0  0  0  0  0
   -2.0946    1.2337    1.2529 H   0  0  0  0  0  0  0  0  0  0  0  0
   -3.1916   -0.1529    1.4477 H   0  0  0  0  0  0  0  0  0  0  0  0
    0.1178   -1.8055   -2.3593 H   0  0  0  0  0  0  0  0  0  0  0  0
   -3.8699   -0.7706   -3.5401 H   0  0  0  0  0  0  0  0  0  0  0  0
   -6.0652    0.1446   -4.1411 H   0  0  0  0  0  0  0  0  0  0  0  0
   -7.2445    1.6934   -2.6008 H   0  0  0  0  0  0  0  0  0  0  0  0
   -6.1882    2.3380   -0.4540 H   0  0  0  0  0  0  0  0  0  0  0  0
   -4.0016    1.4817    0.1642 H   0  0  0  0  0  0  0  0  0  0  0  0
    5.7003   -1.4813    0.9385 H   0  0  0  0  0  0  0  0  0  0  0  0
  1  2  1  0
  2  3  2  0
  3  4  1  0
  4  5  2  0
  5  6  1  0
  6  7  2  0
  6  8  1  0
  8  9  1  0
  9 10  1  0
 10 11  1  0
 11 12  1  0
 11 13  1  0
 11 14  1  0
 14 15  1  0
 15 16  2  0
 16 17  1  0
 17 18  2  0
 18 19  1  0
 19 20  1  0
 20 21  2  0
 21 22  1  0
 22 23  2  0
 23 24  1  0
 24 25  2  0
  5 26  1  0
 26 27  2  0
 27  2  1  0
 16  9  1  0
 25 20  1  0
 19 15  1  0
  1 28  1  0
  1 29  1  0
  1 30  1  0
  3 31  1  0
  8 32  1  0
  9 33  1  0
 10 34  1  0
 10 35  1  0
 12 36  1  0
 12 37  1  0
 12 38  1  0
 13 39  1  0
 13 40  1  0
 13 41  1  0
 14 42  1  0
 14 43  1  0
 17 44  1  0
 21 45  1  0
 22 46  1  0
 23 47  1  0
 24 48  1  0
 25 49  1  0
 26 50  1  0
M  END
$$$$
