
     RDKit          3D

 37 39  0  0  0  0  0  0  0  0999 V2000
   -0.9488   -3.3991   -1.8170 C   0  0  0  0  0  0  0  0  0  0  0  0
   -2.1480   -2.6930   -1.4891 O   0  0  0  0  0  0  0  0  0  0  0  0
   -2.0201   -1.3400   -1.7597 C   0  0  0  0  0  0  0  0  0  0  0  0
   -2.9357   -0.8078   -2.6728 C   0  0  0  0  0  0  0  0  0  0  0  0
   -2.9157    0.5502   -2.9750 C   0  0  0  0  0  0  0  0  0  0  0  0
   -2.0013    1.4148   -2.3524 C   0  0  0  0  0  0  0  0  0  0  0  0
   -1.9396    2.7573   -2.6361 O   0  0  0  0  0  0  0  0  0  0  0  0
   -3.2151    3.3908   -2.7098 C   0  0  0  0  0  0  0  0  0  0  0  0
   -1.0845    0.8640   -1.4322 C   0  0  0  0  0  0  0  0  0  0  0  0
    0.1612    1.6411   -0.5343 S   0  0  0  0  0  0  0  0  0  0  0  0
    0.5728    0.1561    0.2524 C   0  0  0  0  0  0  0  0  0  0  0  0
    1.5553    0.0416    1.1981 N   0  0  0  0  0  0  0  0  0  0  0  0
    2.3440    1.1908    1.6410 C   0  0  0  0  0  0  0  0  0  0  0  0
    3.5391    0.7374    2.4778 C   0  0  0  0  0  0  0  0  0  0  0  0
    3.1034   -0.0568    3.7087 C   0  0  0  0  0  0  0  0  0  0  0  0
    1.8185   -0.8511    3.4718 C   0  0  0  0  0  0  0  0  0  0  0  0
    1.6141   -1.1880    1.9953 C   0  0  0  0  0  0  0  0  0  0  0  0
   -0.1532   -0.8623   -0.1478 N   0  0  0  0  0  0  0  0  0  0  0  0
   -1.0878   -0.4921   -1.1063 C   0  0  0  0  0  0  0  0  0  0  0  0
   -1.1532   -4.4682   -1.7007 H   0  0  0  0  0  0  0  0  0  0  0  0
   -0.1217   -3.1529   -1.1459 H   0  0  0  0  0  0  0  0  0  0  0  0
   -0.6653   -3.2228   -2.8627 H   0  0  0  0  0  0  0  0  0  0  0  0
   -3.6542   -1.4651   -3.1585 H   0  0  0  0  0  0  0  0  0  0  0  0
   -3.6167    0.9257   -3.7147 H   0  0  0  0  0  0  0  0  0  0  0  0
   -3.6713    3.2188   -3.6889 H   0  0  0  0  0  0  0  0  0  0  0  0
   -3.8846    3.0606   -1.9060 H   0  0  0  0  0  0  0  0  0  0  0  0
   -3.0674    4.4730   -2.5906 H   0  0  0  0  0  0  0  0  0  0  0  0
    1.7175    1.8769    2.2282 H   0  0  0  0  0  0  0  0  0  0  0  0
    2.7375    1.7431    0.7778 H   0  0  0  0  0  0  0  0  0  0  0  0
    4.1898    0.1008    1.8629 H   0  0  0  0  0  0  0  0  0  0  0  0
    4.1409    1.6012    2.7873 H   0  0  0  0  0  0  0  0  0  0  0  0
    3.9152   -0.7357    3.9975 H   0  0  0  0  0  0  0  0  0  0  0  0
    2.9524    0.6201    4.5614 H   0  0  0  0  0  0  0  0  0  0  0  0
    0.9617   -0.2592    3.8240 H   0  0  0  0  0  0  0  0  0  0  0  0
    1.8318   -1.7677    4.0729 H   0  0  0  0  0  0  0  0  0  0  0  0
    0.6947   -1.7807    1.9138 H   0  0  0  0  0  0  0  0  0  0  0  0
    2.4343   -1.8219    1.6297 H   0  0  0  0  0  0  0  0  0  0  0  0
  1  2  1  0
  2  3  1  0
  3  4  2  0
  4  5  1  0
  5  6  2  0
  6  7  1  0
  7  8  1  0
  6  9  1  0
  9 10  1  0
 10 11  1  0
 11 12  1  0
 12 13  1  0
 13 14  1  0
 14 15  1  0
 15 16  1  0
 16 17  1  0
 11 18  2  0
 18 19  1  0
 19  3  1  0
 19  9  2  0
 17 12  1  0
  1 20  1  0
  1 21  1  0
  1 22  1  0
  4 23  1  0
  5 24  1  0
  8 25  1  0
  8 26  1  0
  8 27  1  0
 13 28  1  0
 13 29  1  0
 14 30  1  0
 14 31  1  0
 15 32  1  0
 15 33  1  0
 16 34  1  0
 16 35  1  0
 17 36  1  0
 17 37  1  0
M  END
$$$$
