
     RDKit          3D

 52 54  0  0  0  0  0  0  0  0999 V2000
    4.0968    2.7012   -0.7595 C   0  0  0  0  0  0  0  0  0  0  0  0
    3.4731    2.3783    0.5961 C   0  0  0  0  0  0  0  0  0  0  0  0
    4.3117    1.4000    1.4453 C   0  0  0  0  0  0  0  0  0  0  0  0
    4.1834   -0.0960    1.1234 C   0  0  0  0  0  0  0  0  0  0  0  0
    4.7016   -0.5261   -0.2248 C   0  0  0  0  0  0  0  0  0  0  0  0
    3.8482   -1.1541   -1.1430 C   0  0  0  0  0  0  0  0  0  0  0  0
    4.3245   -1.5591   -2.3912 C   0  0  0  0  0  0  0  0  0  0  0  0
    5.6592   -1.3488   -2.7309 C   0  0  0  0  0  0  0  0  0  0  0  0
    6.5206   -0.7404   -1.8202 C   0  0  0  0  0  0  0  0  0  0  0  0
    6.0463   -0.3354   -0.5716 C   0  0  0  0  0  0  0  0  0  0  0  0
    2.0963    1.9379    0.4216 N   0  0  0  0  0  0  0  0  0  0  0  0
    1.1788    2.0036    1.4506 C   0  0  0  0  0  0  0  0  0  0  0  0
    1.4176    2.4965    2.5462 O   0  0  0  0  0  0  0  0  0  0  0  0
   -0.1472    1.3855    1.1792 C   0  0  0  0  0  0  0  0  0  0  0  0
   -0.7049    1.3664   -0.1030 C   0  0  0  0  0  0  0  0  0  0  0  0
   -1.9554    0.7734   -0.3121 C   0  0  0  0  0  0  0  0  0  0  0  0
   -2.6622    0.1939    0.7505 C   0  0  0  0  0  0  0  0  0  0  0  0
   -3.9167   -0.3787    0.4531 N   0  0  0  0  0  0  0  0  0  0  0  0
   -4.7391   -1.0835    1.3144 C   0  0  0  0  0  0  0  0  0  0  0  0
   -4.4882   -1.4115    2.4672 O   0  0  0  0  0  0  0  0  0  0  0  0
   -6.0406   -1.5123    0.7292 C   0  0  0  0  0  0  0  0  0  0  0  0
   -6.5765   -2.7456    1.1240 C   0  0  0  0  0  0  0  0  0  0  0  0
   -7.7948   -3.1819    0.6009 C   0  0  0  0  0  0  0  0  0  0  0  0
   -8.4866   -2.3838   -0.3100 C   0  0  0  0  0  0  0  0  0  0  0  0
   -7.9610   -1.1478   -0.6863 C   0  0  0  0  0  0  0  0  0  0  0  0
   -8.9127   -0.0592   -1.9048 Br  0  0  0  0  0  0  0  0  0  0  0  0
   -6.7441   -0.7018   -0.1702 C   0  0  0  0  0  0  0  0  0  0  0  0
   -2.1067    0.2334    2.0307 C   0  0  0  0  0  0  0  0  0  0  0  0
   -0.8586    0.8302    2.2459 C   0  0  0  0  0  0  0  0  0  0  0  0
    4.0381    1.8607   -1.4555 H   0  0  0  0  0  0  0  0  0  0  0  0
    3.5625    3.5342   -1.2309 H   0  0  0  0  0  0  0  0  0  0  0  0
    5.1455    2.9959   -0.6528 H   0  0  0  0  0  0  0  0  0  0  0  0
    3.4358    3.3226    1.1561 H   0  0  0  0  0  0  0  0  0  0  0  0
    5.3643    1.7075    1.4194 H   0  0  0  0  0  0  0  0  0  0  0  0
    3.9988    1.5179    2.4919 H   0  0  0  0  0  0  0  0  0  0  0  0
    4.7401   -0.6622    1.8822 H   0  0  0  0  0  0  0  0  0  0  0  0
    3.1387   -0.4083    1.2431 H   0  0  0  0  0  0  0  0  0  0  0  0
    2.8066   -1.3386   -0.8904 H   0  0  0  0  0  0  0  0  0  0  0  0
    3.6558   -2.0459   -3.0961 H   0  0  0  0  0  0  0  0  0  0  0  0
    6.0309   -1.6670   -3.7013 H   0  0  0  0  0  0  0  0  0  0  0  0
    7.5646   -0.5854   -2.0800 H   0  0  0  0  0  0  0  0  0  0  0  0
    6.7358    0.1276    0.1307 H   0  0  0  0  0  0  0  0  0  0  0  0
    1.9139    1.3009   -0.3424 H   0  0  0  0  0  0  0  0  0  0  0  0
   -0.1955    1.8336   -0.9411 H   0  0  0  0  0  0  0  0  0  0  0  0
   -2.3683    0.7765   -1.3179 H   0  0  0  0  0  0  0  0  0  0  0  0
   -4.2060   -0.3218   -0.5145 H   0  0  0  0  0  0  0  0  0  0  0  0
   -6.0437   -3.3676    1.8417 H   0  0  0  0  0  0  0  0  0  0  0  0
   -8.2058   -4.1406    0.9087 H   0  0  0  0  0  0  0  0  0  0  0  0
   -9.4370   -2.7285   -0.7104 H   0  0  0  0  0  0  0  0  0  0  0  0
   -6.3703    0.2803   -0.4444 H   0  0  0  0  0  0  0  0  0  0  0  0
   -2.6224   -0.1823    2.8911 H   0  0  0  0  0  0  0  0  0  0  0  0
   -0.4451    0.8568    3.2525 H   0  0  0  0  0  0  0  0  0  0  0  0
  1  2  1  0
  2  3  1  0
  3  4  1  0
  4  5  1  0
  5  6  2  0
  6  7  1  0
  7  8  2  0
  8  9  1  0
  9 10  2  0
  2 11  1  0
 11 12  1  0
 12 13  2  0
 12 14  1  0
 14 15  2  0
 15 16  1  0
 16 17  2  0
 17 18  1  0
 18 19  1  0
 19 20  2  0
 19 21  1  0
 21 22  2  0
 22 23  1  0
 23 24  2  0
 24 25  1  0
 25 26  1  0
 25 27  2  0
 17 28  1  0
 28 29  2  0
 10  5  1  0
 29 14  1  0
 27 21  1  0
  1 30  1  0
  1 31  1  0
  1 32  1  0
  2 33  1  0
  3 34  1  0
  3 35  1  0
  4 36  1  0
  4 37  1  0
  6 38  1  0
  7 39  1  0
  8 40  1  0
  9 41  1  0
 10 42  1  0
 11 43  1  0
 15 44  1  0
 16 45  1  0
 18 46  1  0
 22 47  1  0
 23 48  1  0
 24 49  1  0
 27 50  1  0
 28 51  1  0
 29 52  1  0
M  END
$$$$
