
     RDKit          3D

 45 47  0  0  0  0  0  0  0  0999 V2000
   -7.7243   -1.4598   -0.1615 N   0  0  0  0  0  0  0  0  0  0  0  0
   -7.5201    0.1976    0.0160 S   0  0  0  0  0  6  0  0  0  0  0  0
   -7.9989    0.5125    1.3419 O   0  0  0  0  0  0  0  0  0  0  0  0
   -8.0777    0.7968   -1.1734 O   0  0  0  0  0  0  0  0  0  0  0  0
   -5.7595    0.3533   -0.0207 C   0  0  0  0  0  0  0  0  0  0  0  0
   -5.0391    0.3838    1.1736 C   0  0  0  0  0  0  0  0  0  0  0  0
   -3.6494    0.5302    1.1349 C   0  0  0  0  0  0  0  0  0  0  0  0
   -2.9756    0.6730   -0.0869 C   0  0  0  0  0  0  0  0  0  0  0  0
   -1.5696    0.7818   -0.0370 N   0  0  0  0  0  0  0  0  0  0  0  0
   -0.6586    1.3084   -0.9462 C   0  0  0  0  0  0  0  0  0  0  0  0
   -1.0290    2.4451   -2.1283 S   0  0  0  0  0  0  0  0  0  0  0  0
    0.6538    0.8388   -0.6870 N   0  0  0  0  0  0  0  0  0  0  0  0
    0.8623   -0.5787   -0.3162 C   0  0  0  0  0  0  0  0  0  0  0  0
    2.1836   -0.8117    0.4378 C   0  0  0  0  0  0  0  0  0  0  0  0
    3.3200   -0.2750   -0.3344 N   0  0  0  0  0  0  0  0  0  0  0  0
    4.6181   -0.6047    0.0922 C   0  0  0  0  0  0  0  0  0  0  0  0
    4.9115   -1.1273    1.3603 C   0  0  0  0  0  0  0  0  0  0  0  0
    6.2232   -1.4457    1.7340 C   0  0  0  0  0  0  0  0  0  0  0  0
    7.2719   -1.2566    0.8401 C   0  0  0  0  0  0  0  0  0  0  0  0
    7.0080   -0.7540   -0.4285 C   0  0  0  0  0  0  0  0  0  0  0  0
    5.6961   -0.4364   -0.7944 C   0  0  0  0  0  0  0  0  0  0  0  0
    3.1556    1.1646   -0.6492 C   0  0  0  0  0  0  0  0  0  0  0  0
    1.8242    1.4182   -1.3832 C   0  0  0  0  0  0  0  0  0  0  0  0
   -3.7110    0.6241   -1.2743 C   0  0  0  0  0  0  0  0  0  0  0  0
   -5.1025    0.4785   -1.2454 C   0  0  0  0  0  0  0  0  0  0  0  0
   -8.2235   -1.6532   -1.0303 H   0  0  0  0  0  0  0  0  0  0  0  0
   -8.1802   -1.8410    0.6679 H   0  0  0  0  0  0  0  0  0  0  0  0
   -5.5459    0.2964    2.1321 H   0  0  0  0  0  0  0  0  0  0  0  0
   -3.1041    0.5512    2.0753 H   0  0  0  0  0  0  0  0  0  0  0  0
   -1.1614    0.6566    0.8802 H   0  0  0  0  0  0  0  0  0  0  0  0
    0.0356   -0.9652    0.2856 H   0  0  0  0  0  0  0  0  0  0  0  0
    0.8613   -1.1483   -1.2546 H   0  0  0  0  0  0  0  0  0  0  0  0
    2.1251   -0.3200    1.4174 H   0  0  0  0  0  0  0  0  0  0  0  0
    2.3004   -1.8910    0.5939 H   0  0  0  0  0  0  0  0  0  0  0  0
    4.1306   -1.2846    2.0971 H   0  0  0  0  0  0  0  0  0  0  0  0
    6.4212   -1.8420    2.7264 H   0  0  0  0  0  0  0  0  0  0  0  0
    8.2890   -1.5064    1.1287 H   0  0  0  0  0  0  0  0  0  0  0  0
    7.8169   -0.6153   -1.1404 H   0  0  0  0  0  0  0  0  0  0  0  0
    5.5135   -0.0755   -1.8037 H   0  0  0  0  0  0  0  0  0  0  0  0
    3.1710    1.7419    0.2849 H   0  0  0  0  0  0  0  0  0  0  0  0
    3.9644    1.5418   -1.2850 H   0  0  0  0  0  0  0  0  0  0  0  0
    1.6979    2.4997   -1.4934 H   0  0  0  0  0  0  0  0  0  0  0  0
    1.8593    0.9733   -2.3856 H   0  0  0  0  0  0  0  0  0  0  0  0
   -3.2263    0.6681   -2.2445 H   0  0  0  0  0  0  0  0  0  0  0  0
   -5.6582    0.4566   -2.1804 H   0  0  0  0  0  0  0  0  0  0  0  0
  1  2  1  0
  2  3  2  0
  2  4  2  0
  2  5  1  0
  5  6  2  0
  6  7  1  0
  7  8  2  0
  8  9  1  0
  9 10  1  0
 10 11  2  0
 10 12  1  0
 12 13  1  0
 13 14  1  0
 14 15  1  0
 15 16  1  0
 16 17  2  0
 17 18  1  0
 18 19  2  0
 19 20  1  0
 20 21  2  0
 15 22  1  0
 22 23  1  0
  8 24  1  0
 24 25  2  0
 25  5  1  0
 23 12  1  0
 21 16  1  0
  1 26  1  0
  1 27  1  0
  6 28  1  0
  7 29  1  0
  9 30  1  0
 13 31  1  0
 13 32  1  0
 14 33  1  0
 14 34  1  0
 17 35  1  0
 18 36  1  0
 19 37  1  0
 20 38  1  0
 21 39  1  0
 22 40  1  0
 22 41  1  0
 23 42  1  0
 23 43  1  0
 24 44  1  0
 25 45  1  0
M  END
$$$$
