
     RDKit          3D

 54 57  0  0  0  0  0  0  0  0999 V2000
   -3.2192    5.6457    0.7930 C   0  0  0  0  0  0  0  0  0  0  0  0
   -2.8986    5.2549   -0.5353 O   0  0  0  0  0  0  0  0  0  0  0  0
   -2.1892    4.0938   -0.6813 C   0  0  0  0  0  0  0  0  0  0  0  0
   -1.9418    3.7212   -2.0054 C   0  0  0  0  0  0  0  0  0  0  0  0
   -1.2243    2.5581   -2.2993 C   0  0  0  0  0  0  0  0  0  0  0  0
   -0.7363    1.7435   -1.2654 C   0  0  0  0  0  0  0  0  0  0  0  0
    0.0654    0.4976   -1.6042 C   0  0  0  0  0  0  0  0  0  0  0  0
    1.5675    0.7611   -1.4762 C   0  0  0  0  0  0  0  0  0  0  0  0
    1.9026   -0.1279   -0.3101 C   0  0  0  0  0  0  0  0  0  0  0  0
    3.2512   -0.1321    0.3035 C   0  0  0  0  0  0  0  0  0  0  0  0
    4.3148    0.5755   -0.2648 C   0  0  0  0  0  0  0  0  0  0  0  0
    5.5712    0.5467    0.3433 C   0  0  0  0  0  0  0  0  0  0  0  0
    5.7713   -0.1816    1.5193 C   0  0  0  0  0  0  0  0  0  0  0  0
    4.7154   -0.8912    2.0910 C   0  0  0  0  0  0  0  0  0  0  0  0
    4.7753   -1.6333    3.2378 O   0  0  0  0  0  0  0  0  0  0  0  0
    6.0400   -1.7299    3.8838 C   0  0  0  0  0  0  0  0  0  0  0  0
    3.4597   -0.8657    1.4769 C   0  0  0  0  0  0  0  0  0  0  0  0
    0.9359   -0.8939    0.0947 N   0  0  0  0  0  0  0  0  0  0  0  0
   -0.1583   -0.6088   -0.6705 N   0  0  0  0  0  0  0  0  0  0  0  0
   -1.2982   -1.4078   -0.6049 C   0  0  0  0  0  0  0  0  0  0  0  0
   -1.3745   -2.4748    0.3116 C   0  0  0  0  0  0  0  0  0  0  0  0
   -2.4997   -3.3017    0.3994 C   0  0  0  0  0  0  0  0  0  0  0  0
   -3.5822   -3.0658   -0.4444 C   0  0  0  0  0  0  0  0  0  0  0  0
   -5.0117   -4.1076   -0.3764 S   0  0  0  0  0  6  0  0  0  0  0  0
   -4.8675   -4.9735   -1.8184 N   0  0  0  0  0  0  0  0  0  0  0  0
   -4.8271   -5.0911    0.6687 O   0  0  0  0  0  0  0  0  0  0  0  0
   -6.1873   -3.2744   -0.4672 O   0  0  0  0  0  0  0  0  0  0  0  0
   -3.5528   -2.0109   -1.3536 C   0  0  0  0  0  0  0  0  0  0  0  0
   -2.4168   -1.1965   -1.4298 C   0  0  0  0  0  0  0  0  0  0  0  0
   -0.9833    2.1297    0.0621 C   0  0  0  0  0  0  0  0  0  0  0  0
   -1.7065    3.2928    0.3517 C   0  0  0  0  0  0  0  0  0  0  0  0
   -2.3158    5.8168    1.3857 H   0  0  0  0  0  0  0  0  0  0  0  0
   -3.8715    4.9068    1.2734 H   0  0  0  0  0  0  0  0  0  0  0  0
   -3.7658    6.5930    0.7454 H   0  0  0  0  0  0  0  0  0  0  0  0
   -2.3110    4.3464   -2.8142 H   0  0  0  0  0  0  0  0  0  0  0  0
   -1.0505    2.2979   -3.3406 H   0  0  0  0  0  0  0  0  0  0  0  0
   -0.1563    0.1759   -2.6296 H   0  0  0  0  0  0  0  0  0  0  0  0
    1.8249    1.8051   -1.2747 H   0  0  0  0  0  0  0  0  0  0  0  0
    2.1048    0.4059   -2.3629 H   0  0  0  0  0  0  0  0  0  0  0  0
    4.1940    1.1507   -1.1786 H   0  0  0  0  0  0  0  0  0  0  0  0
    6.4018    1.0919   -0.1021 H   0  0  0  0  0  0  0  0  0  0  0  0
    6.7626   -0.1760    1.9611 H   0  0  0  0  0  0  0  0  0  0  0  0
    5.9051   -2.3181    4.7962 H   0  0  0  0  0  0  0  0  0  0  0  0
    6.4163   -0.7431    4.1815 H   0  0  0  0  0  0  0  0  0  0  0  0
    6.7583   -2.2602    3.2522 H   0  0  0  0  0  0  0  0  0  0  0  0
    2.6392   -1.4249    1.9264 H   0  0  0  0  0  0  0  0  0  0  0  0
   -0.5370   -2.6666    0.9805 H   0  0  0  0  0  0  0  0  0  0  0  0
   -2.5128   -4.1113    1.1280 H   0  0  0  0  0  0  0  0  0  0  0  0
   -4.7599   -5.9634   -1.5866 H   0  0  0  0  0  0  0  0  0  0  0  0
   -4.0974   -4.6459   -2.4021 H   0  0  0  0  0  0  0  0  0  0  0  0
   -4.4056   -1.8087   -2.0015 H   0  0  0  0  0  0  0  0  0  0  0  0
   -2.4324   -0.3827   -2.1497 H   0  0  0  0  0  0  0  0  0  0  0  0
   -0.6145    1.5201    0.8879 H   0  0  0  0  0  0  0  0  0  0  0  0
   -1.8712    3.5382    1.3949 H   0  0  0  0  0  0  0  0  0  0  0  0
  1  2  1  0
  2  3  1  0
  3  4  2  0
  4  5  1  0
  5  6  2  0
  6  7  1  0
  7  8  1  0
  8  9  1  0
  9 10  1  0
 10 11  2  0
 11 12  1  0
 12 13  2  0
 13 14  1  0
 14 15  1  0
 15 16  1  0
 14 17  2  0
  9 18  2  0
 18 19  1  0
 19 20  1  0
 20 21  2  0
 21 22  1  0
 22 23  2  0
 23 24  1  0
 24 25  1  0
 24 26  2  0
 24 27  2  0
 23 28  1  0
 28 29  2  0
  6 30  1  0
 30 31  2  0
 31  3  1  0
 19  7  1  0
 29 20  1  0
 17 10  1  0
  1 32  1  0
  1 33  1  0
  1 34  1  0
  4 35  1  0
  5 36  1  0
  7 37  1  0
  8 38  1  0
  8 39  1  0
 11 40  1  0
 12 41  1  0
 13 42  1  0
 16 43  1  0
 16 44  1  0
 16 45  1  0
 17 46  1  0
 21 47  1  0
 22 48  1  0
 25 49  1  0
 25 50  1  0
 28 51  1  0
 29 52  1  0
 30 53  1  0
 31 54  1  0
M  END
$$$$
