
     RDKit          3D

 48 50  0  0  0  0  0  0  0  0999 V2000
   -2.3612   -1.4550   -3.2477 C   0  0  0  0  0  0  0  0  0  0  0  0
   -2.0709   -0.3182   -2.2877 C   0  0  0  0  0  0  0  0  0  0  0  0
   -1.3160   -0.8473   -1.1881 O   0  0  0  0  0  0  0  0  0  0  0  0
   -1.0026    0.0666   -0.2274 C   0  0  0  0  0  0  0  0  0  0  0  0
   -1.2609    1.2592   -0.3028 O   0  0  0  0  0  0  0  0  0  0  0  0
   -0.1955   -0.5594    0.8844 C   0  0  0  0  0  0  0  0  0  0  0  0
    1.1865   -1.0026    0.4437 C   0  0  0  0  0  0  0  0  0  0  0  0
    1.9645   -0.1563   -0.5369 C   0  0  0  0  0  0  0  0  0  0  0  0
    2.7152    1.2125    0.3121 S   0  0  0  0  0  6  0  0  0  0  0  0
    1.6749    1.9585    0.9928 O   0  0  0  0  0  0  0  0  0  0  0  0
    3.8823    0.7466    1.0334 O   0  0  0  0  0  0  0  0  0  0  0  0
    3.2926    2.2252   -1.0307 C   0  0  0  0  0  0  0  0  0  0  0  0
    2.4518    3.2075   -1.5620 C   0  0  0  0  0  0  0  0  0  0  0  0
    2.9068    3.9980   -2.6168 C   0  0  0  0  0  0  0  0  0  0  0  0
    4.1932    3.8109   -3.1263 C   0  0  0  0  0  0  0  0  0  0  0  0
    5.0331    2.8391   -2.5791 C   0  0  0  0  0  0  0  0  0  0  0  0
    4.5869    2.0431   -1.5247 C   0  0  0  0  0  0  0  0  0  0  0  0
    1.7768   -2.0638    0.8996 N   0  0  0  0  0  0  0  0  0  0  0  0
    1.2211   -2.8345    1.8816 C   0  0  0  0  0  0  0  0  0  0  0  0
    1.8054   -3.7756    2.4030 O   0  0  0  0  0  0  0  0  0  0  0  0
   -0.0418   -2.5302    2.2921 N   0  0  0  0  0  0  0  0  0  0  0  0
   -0.9200   -1.7874    1.4286 C   0  0  0  0  0  0  0  0  0  0  0  0
   -2.2076   -1.4485    2.1551 C   0  0  0  0  0  0  0  0  0  0  0  0
   -2.1976   -0.7186    3.3548 C   0  0  0  0  0  0  0  0  0  0  0  0
   -3.3916   -0.4045    4.0055 C   0  0  0  0  0  0  0  0  0  0  0  0
   -4.6088   -0.8166    3.4681 C   0  0  0  0  0  0  0  0  0  0  0  0
   -4.6342   -1.5443    2.2804 C   0  0  0  0  0  0  0  0  0  0  0  0
   -3.4416   -1.8594    1.6268 C   0  0  0  0  0  0  0  0  0  0  0  0
   -1.4282   -1.9065   -3.6024 H   0  0  0  0  0  0  0  0  0  0  0  0
   -2.9278   -2.2465   -2.7461 H   0  0  0  0  0  0  0  0  0  0  0  0
   -2.9336   -1.1022   -4.1102 H   0  0  0  0  0  0  0  0  0  0  0  0
   -1.4866    0.4567   -2.7966 H   0  0  0  0  0  0  0  0  0  0  0  0
   -3.0116    0.1067   -1.9198 H   0  0  0  0  0  0  0  0  0  0  0  0
   -0.0609    0.1895    1.6735 H   0  0  0  0  0  0  0  0  0  0  0  0
    2.7625   -0.7438   -1.0006 H   0  0  0  0  0  0  0  0  0  0  0  0
    1.3099    0.2327   -1.3189 H   0  0  0  0  0  0  0  0  0  0  0  0
    1.4527    3.3691   -1.1615 H   0  0  0  0  0  0  0  0  0  0  0  0
    2.2634    4.7673   -3.0369 H   0  0  0  0  0  0  0  0  0  0  0  0
    4.5474    4.4338   -3.9446 H   0  0  0  0  0  0  0  0  0  0  0  0
    6.0394    2.7090   -2.9708 H   0  0  0  0  0  0  0  0  0  0  0  0
    5.2523    1.2982   -1.0936 H   0  0  0  0  0  0  0  0  0  0  0  0
   -0.4286   -3.2289    2.9147 H   0  0  0  0  0  0  0  0  0  0  0  0
   -1.1516   -2.4847    0.6113 H   0  0  0  0  0  0  0  0  0  0  0  0
   -1.2577   -0.3903    3.7960 H   0  0  0  0  0  0  0  0  0  0  0  0
   -3.3710    0.1622    4.9333 H   0  0  0  0  0  0  0  0  0  0  0  0
   -5.5375   -0.5708    3.9766 H   0  0  0  0  0  0  0  0  0  0  0  0
   -5.5853   -1.8671    1.8636 H   0  0  0  0  0  0  0  0  0  0  0  0
   -3.4880   -2.4297    0.7010 H   0  0  0  0  0  0  0  0  0  0  0  0
  1  2  1  0
  2  3  1  0
  3  4  1  0
  4  5  2  0
  4  6  1  0
  6  7  1  0
  7  8  1  0
  8  9  1  0
  9 10  2  0
  9 11  2  0
  9 12  1  0
 12 13  2  0
 13 14  1  0
 14 15  2  0
 15 16  1  0
 16 17  2  0
  7 18  2  0
 18 19  1  0
 19 20  2  0
 19 21  1  0
 21 22  1  0
 22 23  1  0
 23 24  2  0
 24 25  1  0
 25 26  2  0
 26 27  1  0
 27 28  2  0
 22  6  1  0
 28 23  1  0
 17 12  1  0
  1 29  1  0
  1 30  1  0
  1 31  1  0
  2 32  1  0
  2 33  1  0
  6 34  1  0
  8 35  1  0
  8 36  1  0
 13 37  1  0
 14 38  1  0
 15 39  1  0
 16 40  1  0
 17 41  1  0
 21 42  1  0
 22 43  1  0
 24 44  1  0
 25 45  1  0
 26 46  1  0
 27 47  1  0
 28 48  1  0
M  END
$$$$
