
     RDKit          3D

 71 75  0  0  0  0  0  0  0  0999 V2000
   -1.0594    0.6549    5.8594 C   0  0  0  0  0  0  0  0  0  0  0  0
   -0.2292    1.7548    5.2121 C   0  0  0  0  0  0  0  0  0  0  0  0
    0.1074    1.4115    3.8180 N   0  0  0  0  0  0  0  0  0  0  0  0
    1.3075    0.7777    3.5200 C   0  0  0  0  0  0  0  0  0  0  0  0
    1.7369    0.3909    2.3098 C   0  0  0  0  0  0  0  0  0  0  0  0
    3.0650   -0.2786    2.2038 C   0  0  0  0  0  0  0  0  0  0  0  0
    3.7457   -0.5275    3.1954 O   0  0  0  0  0  0  0  0  0  0  0  0
    3.4579   -0.5999    0.9290 N   0  0  0  0  0  0  0  0  0  0  0  0
    4.6519   -1.3739    0.6698 C   0  0  0  0  0  0  0  0  0  0  0  0
    5.0597   -1.3449   -0.8017 C   0  0  0  0  0  0  0  0  0  0  0  0
    5.5421    0.0482   -1.2345 C   0  0  0  0  0  0  0  0  0  0  0  0
    5.9571    0.2049   -2.6273 N   0  0  0  0  0  0  0  0  0  0  0  0
    4.8983    0.0415   -3.6179 C   0  0  0  0  0  0  0  0  0  0  0  0
    5.6605   -0.0235   -4.9366 C   0  0  0  0  0  0  0  0  0  0  0  0
    7.1003   -0.3599   -4.5569 C   0  0  0  0  0  0  0  0  0  0  0  0
    7.0545   -0.6483   -3.0645 C   0  0  0  0  0  0  0  0  0  0  0  0
    0.8292    0.6537    1.1697 C   0  0  0  0  0  0  0  0  0  0  0  0
    1.1080    0.2931    0.0273 O   0  0  0  0  0  0  0  0  0  0  0  0
   -0.4564    1.3442    1.4443 C   0  0  0  0  0  0  0  0  0  0  0  0
   -1.3085    1.6155    0.3631 C   0  0  0  0  0  0  0  0  0  0  0  0
   -2.5448    2.2101    0.5995 C   0  0  0  0  0  0  0  0  0  0  0  0
   -3.6257    2.5729   -0.7695 S   0  0  0  0  0  6  0  0  0  0  0  0
   -4.6264    3.5014   -0.2876 O   0  0  0  0  0  0  0  0  0  0  0  0
   -2.7830    2.9018   -1.8984 O   0  0  0  0  0  0  0  0  0  0  0  0
   -4.3886    1.0951   -1.0778 N   0  0  0  0  0  0  0  0  0  0  0  0
   -3.5691   -0.0029   -1.6356 C   0  0  0  0  0  0  0  0  0  0  0  0
   -4.4816   -0.9894   -2.3635 C   0  0  0  0  0  0  0  0  0  0  0  0
   -5.5942   -1.4760   -1.4697 C   0  0  0  0  0  0  0  0  0  0  0  0
   -6.2359   -2.6908   -1.7458 C   0  0  0  0  0  0  0  0  0  0  0  0
   -7.2848   -3.1325   -0.9404 C   0  0  0  0  0  0  0  0  0  0  0  0
   -7.7071   -2.3610    0.1393 C   0  0  0  0  0  0  0  0  0  0  0  0
   -7.0843   -1.1431    0.4133 C   0  0  0  0  0  0  0  0  0  0  0  0
   -6.0298   -0.6843   -0.3912 C   0  0  0  0  0  0  0  0  0  0  0  0
   -5.3637    0.6372   -0.0625 C   0  0  0  0  0  0  0  0  0  0  0  0
   -2.9104    2.5749    1.8942 C   0  0  0  0  0  0  0  0  0  0  0  0
   -2.0447    2.3135    2.9647 C   0  0  0  0  0  0  0  0  0  0  0  0
   -0.7985    1.6917    2.7713 C   0  0  0  0  0  0  0  0  0  0  0  0
   -2.0100    0.5043    5.3387 H   0  0  0  0  0  0  0  0  0  0  0  0
   -0.5215   -0.2990    5.8517 H   0  0  0  0  0  0  0  0  0  0  0  0
   -1.2807    0.9111    6.9005 H   0  0  0  0  0  0  0  0  0  0  0  0
   -0.7344    2.7242    5.2833 H   0  0  0  0  0  0  0  0  0  0  0  0
    0.6931    1.8803    5.7949 H   0  0  0  0  0  0  0  0  0  0  0  0
    1.9293    0.6003    4.3971 H   0  0  0  0  0  0  0  0  0  0  0  0
    2.7769   -0.4717    0.1786 H   0  0  0  0  0  0  0  0  0  0  0  0
    4.4327   -2.4048    0.9703 H   0  0  0  0  0  0  0  0  0  0  0  0
    5.4636   -1.0113    1.3104 H   0  0  0  0  0  0  0  0  0  0  0  0
    4.2111   -1.6683   -1.4155 H   0  0  0  0  0  0  0  0  0  0  0  0
    5.8636   -2.0767   -0.9406 H   0  0  0  0  0  0  0  0  0  0  0  0
    6.3854    0.3426   -0.5953 H   0  0  0  0  0  0  0  0  0  0  0  0
    4.7548    0.7858   -1.0330 H   0  0  0  0  0  0  0  0  0  0  0  0
    4.3373   -0.8897   -3.4820 H   0  0  0  0  0  0  0  0  0  0  0  0
    4.1919    0.8774   -3.6064 H   0  0  0  0  0  0  0  0  0  0  0  0
    5.6248    0.9368   -5.4635 H   0  0  0  0  0  0  0  0  0  0  0  0
    5.2352   -0.7863   -5.5977 H   0  0  0  0  0  0  0  0  0  0  0  0
    7.7474    0.5026   -4.7614 H   0  0  0  0  0  0  0  0  0  0  0  0
    7.4852   -1.2111   -5.1269 H   0  0  0  0  0  0  0  0  0  0  0  0
    8.0012   -0.3941   -2.5776 H   0  0  0  0  0  0  0  0  0  0  0  0
    6.8481   -1.7131   -2.9055 H   0  0  0  0  0  0  0  0  0  0  0  0
   -1.0037    1.3632   -0.6508 H   0  0  0  0  0  0  0  0  0  0  0  0
   -2.8359    0.3810   -2.3517 H   0  0  0  0  0  0  0  0  0  0  0  0
   -3.0268   -0.5100   -0.8286 H   0  0  0  0  0  0  0  0  0  0  0  0
   -4.9310   -0.5074   -3.2406 H   0  0  0  0  0  0  0  0  0  0  0  0
   -3.8799   -1.8366   -2.7129 H   0  0  0  0  0  0  0  0  0  0  0  0
   -5.9231   -3.2978   -2.5926 H   0  0  0  0  0  0  0  0  0  0  0  0
   -7.7766   -4.0770   -1.1591 H   0  0  0  0  0  0  0  0  0  0  0  0
   -8.5270   -2.7056    0.7644 H   0  0  0  0  0  0  0  0  0  0  0  0
   -7.4317   -0.5496    1.2563 H   0  0  0  0  0  0  0  0  0  0  0  0
   -4.8606    0.5204    0.9038 H   0  0  0  0  0  0  0  0  0  0  0  0
   -6.1512    1.3936    0.0321 H   0  0  0  0  0  0  0  0  0  0  0  0
   -3.8610    3.0703    2.0853 H   0  0  0  0  0  0  0  0  0  0  0  0
   -2.3826    2.6154    3.9516 H   0  0  0  0  0  0  0  0  0  0  0  0
  1  2  1  0
  2  3  1  0
  3  4  1  0
  4  5  2  0
  5  6  1  0
  6  7  2  0
  6  8  1  0
  8  9  1  0
  9 10  1  0
 10 11  1  0
 11 12  1  0
 12 13  1  0
 13 14  1  0
 14 15  1  0
 15 16  1  0
  5 17  1  0
 17 18  2  0
 17 19  1  0
 19 20  2  0
 20 21  1  0
 21 22  1  0
 22 23  2  0
 22 24  2  0
 22 25  1  0
 25 26  1  0
 26 27  1  0
 27 28  1  0
 28 29  2  0
 29 30  1  0
 30 31  2  0
 31 32  1  0
 32 33  2  0
 33 34  1  0
 21 35  2  0
 35 36  1  0
 36 37  2  0
 37  3  1  0
 16 12  1  0
 37 19  1  0
 34 25  1  0
 33 28  1  0
  1 38  1  0
  1 39  1  0
  1 40  1  0
  2 41  1  0
  2 42  1  0
  4 43  1  0
  8 44  1  0
  9 45  1  0
  9 46  1  0
 10 47  1  0
 10 48  1  0
 11 49  1  0
 11 50  1  0
 13 51  1  0
 13 52  1  0
 14 53  1  0
 14 54  1  0
 15 55  1  0
 15 56  1  0
 16 57  1  0
 16 58  1  0
 20 59  1  0
 26 60  1  0
 26 61  1  0
 27 62  1  0
 27 63  1  0
 29 64  1  0
 30 65  1  0
 31 66  1  0
 32 67  1  0
 34 68  1  0
 34 69  1  0
 35 70  1  0
 36 71  1  0
M  END
$$$$
