
     RDKit          3D

 40 43  0  0  0  0  0  0  0  0999 V2000
   -2.4538    4.6210   -0.2588 C   0  0  0  0  0  0  0  0  0  0  0  0
   -1.3717    3.9200   -0.6212 C   0  0  0  0  0  0  0  0  0  0  0  0
   -0.6754    2.9184    0.2568 C   0  0  0  0  0  0  0  0  0  0  0  0
   -1.0891    1.5682   -0.1234 N   0  0  0  0  0  0  0  0  0  0  0  0
   -0.4662    0.8157   -1.1065 C   0  0  0  0  0  0  0  0  0  0  0  0
    0.8820    1.5239   -1.9748 S   0  0  0  0  0  0  0  0  0  0  0  0
    1.8986    0.0559   -2.2924 C   0  0  0  0  0  0  0  0  0  0  0  0
    2.4400   -0.5481   -1.0139 C   0  0  0  0  0  0  0  0  0  0  0  0
    2.0496   -1.7716   -0.6200 C   0  0  0  0  0  0  0  0  0  0  0  0
    2.6000   -2.3511    0.6256 C   0  0  0  0  0  0  0  0  0  0  0  0
    2.2505   -3.4685    0.9928 O   0  0  0  0  0  0  0  0  0  0  0  0
    3.4976   -1.5425    1.2761 N   0  0  0  0  0  0  0  0  0  0  0  0
    4.1406   -1.8633    2.4534 C   0  0  0  0  0  0  0  0  0  0  0  0
    4.9791   -0.9151    2.8877 C   0  0  0  0  0  0  0  0  0  0  0  0
    5.0013    0.4592    1.8161 S   0  0  0  0  0  0  0  0  0  0  0  0
    3.8276   -0.3115    0.7599 C   0  0  0  0  0  0  0  0  0  0  0  0
    3.3637    0.2127   -0.3228 N   0  0  0  0  0  0  0  0  0  0  0  0
   -0.8238   -0.3809   -1.4454 N   0  0  0  0  0  0  0  0  0  0  0  0
   -1.9092   -0.9675   -0.7929 C   0  0  0  0  0  0  0  0  0  0  0  0
   -2.3072   -2.2530   -1.1644 C   0  0  0  0  0  0  0  0  0  0  0  0
   -3.3950   -2.8709   -0.5429 C   0  0  0  0  0  0  0  0  0  0  0  0
   -4.0993   -2.2012    0.4569 C   0  0  0  0  0  0  0  0  0  0  0  0
   -3.7130   -0.9148    0.8349 C   0  0  0  0  0  0  0  0  0  0  0  0
   -2.6177   -0.3089    0.2062 C   0  0  0  0  0  0  0  0  0  0  0  0
   -2.1787    1.0473    0.5767 C   0  0  0  0  0  0  0  0  0  0  0  0
   -2.7809    1.6363    1.4728 O   0  0  0  0  0  0  0  0  0  0  0  0
   -2.9071    5.3382   -0.9353 H   0  0  0  0  0  0  0  0  0  0  0  0
   -2.9218    4.4812    0.7126 H   0  0  0  0  0  0  0  0  0  0  0  0
   -0.9433    4.0921   -1.6065 H   0  0  0  0  0  0  0  0  0  0  0  0
   -0.9121    3.0995    1.3119 H   0  0  0  0  0  0  0  0  0  0  0  0
    0.4080    3.0416    0.1749 H   0  0  0  0  0  0  0  0  0  0  0  0
    1.3281   -0.6699   -2.8835 H   0  0  0  0  0  0  0  0  0  0  0  0
    2.7426    0.3642   -2.9197 H   0  0  0  0  0  0  0  0  0  0  0  0
    1.3302   -2.3741   -1.1648 H   0  0  0  0  0  0  0  0  0  0  0  0
    3.9423   -2.8142    2.9345 H   0  0  0  0  0  0  0  0  0  0  0  0
    5.5795   -0.9678    3.7891 H   0  0  0  0  0  0  0  0  0  0  0  0
   -1.7751   -2.7725   -1.9547 H   0  0  0  0  0  0  0  0  0  0  0  0
   -3.6984   -3.8680   -0.8448 H   0  0  0  0  0  0  0  0  0  0  0  0
   -4.9517   -2.6758    0.9378 H   0  0  0  0  0  0  0  0  0  0  0  0
   -4.2706   -0.3841    1.6054 H   0  0  0  0  0  0  0  0  0  0  0  0
  1  2  2  0
  2  3  1  0
  3  4  1  0
  4  5  1  0
  5  6  1  0
  6  7  1  0
  7  8  1  0
  8  9  2  0
  9 10  1  0
 10 11  2  0
 10 12  1  0
 12 13  1  0
 13 14  2  0
 14 15  1  0
 15 16  1  0
 16 17  2  0
  5 18  2  0
 18 19  1  0
 19 20  2  0
 20 21  1  0
 21 22  2  0
 22 23  1  0
 23 24  2  0
 24 25  1  0
 25 26  2  0
 25  4  1  0
 17  8  1  0
 24 19  1  0
 16 12  1  0
  1 27  1  0
  1 28  1  0
  2 29  1  0
  3 30  1  0
  3 31  1  0
  7 32  1  0
  7 33  1  0
  9 34  1  0
 13 35  1  0
 14 36  1  0
 20 37  1  0
 21 38  1  0
 22 39  1  0
 23 40  1  0
M  END
$$$$
