
     RDKit          3D

 73 78  0  0  0  0  0  0  0  0999 V2000
   -9.0433    2.8574    0.9070 C   0  0  0  0  0  0  0  0  0  0  0  0
   -8.4714    1.8254   -0.0202 C   0  0  0  0  0  0  0  0  0  0  0  0
   -9.2787    1.1895   -0.9602 C   0  0  0  0  0  0  0  0  0  0  0  0
   -8.7372    0.2179   -1.7985 C   0  0  0  0  0  0  0  0  0  0  0  0
   -7.3791   -0.1405   -1.7122 C   0  0  0  0  0  0  0  0  0  0  0  0
   -6.8627   -1.1597   -2.6934 C   0  0  0  0  0  0  0  0  0  0  0  0
   -6.5509    0.4521   -0.7307 C   0  0  0  0  0  0  0  0  0  0  0  0
   -5.2121    0.0663   -0.5841 N   0  0  0  0  0  0  0  0  0  0  0  0
   -5.0015   -1.3382   -0.1564 C   0  0  0  0  0  0  0  0  0  0  0  0
   -3.8756   -1.4826    0.8860 C   0  0  0  0  0  0  0  0  0  0  0  0
   -2.6350   -0.8112    0.4787 N   0  0  0  0  0  0  0  0  0  0  0  0
   -1.4171   -1.3872    0.8143 C   0  0  0  0  0  0  0  0  0  0  0  0
   -1.3633   -2.4210    1.4838 O   0  0  0  0  0  0  0  0  0  0  0  0
   -0.1451   -0.7243    0.2847 C   0  0  0  0  0  0  0  0  0  0  0  0
   -0.0224   -0.9020   -1.2399 C   0  0  0  0  0  0  0  0  0  0  0  0
    1.3300   -1.4630   -1.6713 C   0  0  0  0  0  0  0  0  0  0  0  0
    2.4988   -0.7587   -0.9828 C   0  0  0  0  0  0  0  0  0  0  0  0
    2.2888   -0.6610    0.4630 N   0  0  0  0  0  0  0  0  0  0  0  0
    3.4357   -0.6321    1.2637 C   0  0  0  0  0  0  0  0  0  0  0  0
    3.3735   -1.1155    2.5421 N   0  0  0  0  0  0  0  0  0  0  0  0
    4.4673   -1.0733    3.3288 C   0  0  0  0  0  0  0  0  0  0  0  0
    5.6883   -0.5959    3.0327 N   0  0  0  0  0  0  0  0  0  0  0  0
    5.7203   -0.1209    1.7771 C   0  0  0  0  0  0  0  0  0  0  0  0
    4.6857   -0.0940    0.8574 C   0  0  0  0  0  0  0  0  0  0  0  0
    5.1185    0.4918   -0.3192 N   0  0  0  0  0  0  0  0  0  0  0  0
    6.3825    0.8164   -0.1205 C   0  0  0  0  0  0  0  0  0  0  0  0
    6.7955    0.4455    1.1375 N   0  0  0  0  0  0  0  0  0  0  0  0
    8.1057    0.5516    1.7417 C   0  0  0  0  0  0  0  0  0  0  0  0
    9.2883    0.9469    0.8523 C   0  0  0  0  0  0  0  0  0  0  0  0
    9.3544    0.1552   -0.4512 C   0  0  0  0  0  0  0  0  0  0  0  0
    8.4371    0.6792   -1.5626 C   0  0  0  0  0  0  0  0  0  0  0  0
    7.2443    1.5168   -1.1100 C   0  0  0  0  0  0  0  0  0  0  0  0
    1.0832   -1.2704    1.0298 C   0  0  0  0  0  0  0  0  0  0  0  0
   -2.8053    0.4778   -0.2111 C   0  0  0  0  0  0  0  0  0  0  0  0
   -4.2331    1.0430   -0.0806 C   0  0  0  0  0  0  0  0  0  0  0  0
   -7.1250    1.4420    0.0919 C   0  0  0  0  0  0  0  0  0  0  0  0
   -8.3122    3.6482    1.1032 H   0  0  0  0  0  0  0  0  0  0  0  0
   -9.3300    2.3926    1.8551 H   0  0  0  0  0  0  0  0  0  0  0  0
   -9.9262    3.3356    0.4689 H   0  0  0  0  0  0  0  0  0  0  0  0
  -10.3310    1.4478   -1.0525 H   0  0  0  0  0  0  0  0  0  0  0  0
   -9.3815   -0.2546   -2.5375 H   0  0  0  0  0  0  0  0  0  0  0  0
   -7.4872   -1.1922   -3.5935 H   0  0  0  0  0  0  0  0  0  0  0  0
   -6.8654   -2.1560   -2.2412 H   0  0  0  0  0  0  0  0  0  0  0  0
   -5.8513   -0.9089   -3.0287 H   0  0  0  0  0  0  0  0  0  0  0  0
   -5.9163   -1.7774    0.2595 H   0  0  0  0  0  0  0  0  0  0  0  0
   -4.7216   -1.9212   -1.0408 H   0  0  0  0  0  0  0  0  0  0  0  0
   -4.1828   -1.0285    1.8357 H   0  0  0  0  0  0  0  0  0  0  0  0
   -3.6941   -2.5452    1.0775 H   0  0  0  0  0  0  0  0  0  0  0  0
   -0.1942    0.3477    0.5113 H   0  0  0  0  0  0  0  0  0  0  0  0
   -0.1649    0.0756   -1.7193 H   0  0  0  0  0  0  0  0  0  0  0  0
   -0.8111   -1.5575   -1.6319 H   0  0  0  0  0  0  0  0  0  0  0  0
    1.3627   -2.5351   -1.4359 H   0  0  0  0  0  0  0  0  0  0  0  0
    1.4361   -1.3830   -2.7592 H   0  0  0  0  0  0  0  0  0  0  0  0
    2.6116    0.2489   -1.3973 H   0  0  0  0  0  0  0  0  0  0  0  0
    3.4027   -1.3318   -1.2234 H   0  0  0  0  0  0  0  0  0  0  0  0
    4.3428   -1.4800    4.3287 H   0  0  0  0  0  0  0  0  0  0  0  0
    8.0175    1.2674    2.5685 H   0  0  0  0  0  0  0  0  0  0  0  0
    8.3222   -0.4318    2.1809 H   0  0  0  0  0  0  0  0  0  0  0  0
   10.2069    0.7565    1.4237 H   0  0  0  0  0  0  0  0  0  0  0  0
    9.2817    2.0244    0.6548 H   0  0  0  0  0  0  0  0  0  0  0  0
    9.1237   -0.8985   -0.2523 H   0  0  0  0  0  0  0  0  0  0  0  0
   10.3853    0.1673   -0.8277 H   0  0  0  0  0  0  0  0  0  0  0  0
    9.0359    1.2943   -2.2466 H   0  0  0  0  0  0  0  0  0  0  0  0
    8.0888   -0.1749   -2.1576 H   0  0  0  0  0  0  0  0  0  0  0  0
    7.5717    2.4786   -0.6985 H   0  0  0  0  0  0  0  0  0  0  0  0
    6.6424    1.7653   -1.9929 H   0  0  0  0  0  0  0  0  0  0  0  0
    1.1487   -2.3643    0.9663 H   0  0  0  0  0  0  0  0  0  0  0  0
    0.9664   -1.0159    2.0914 H   0  0  0  0  0  0  0  0  0  0  0  0
   -2.5720    0.3102   -1.2682 H   0  0  0  0  0  0  0  0  0  0  0  0
   -2.0923    1.2046    0.1879 H   0  0  0  0  0  0  0  0  0  0  0  0
   -4.2979    1.9759   -0.6530 H   0  0  0  0  0  0  0  0  0  0  0  0
   -4.4241    1.2726    0.9747 H   0  0  0  0  0  0  0  0  0  0  0  0
   -6.5299    1.9204    0.8642 H   0  0  0  0  0  0  0  0  0  0  0  0
  1  2  1  0
  2  3  2  0
  3  4  1  0
  4  5  2  0
  5  6  1  0
  5  7  1  0
  7  8  1  0
  8  9  1  0
  9 10  1  0
 10 11  1  0
 11 12  1  0
 12 13  2  0
 12 14  1  0
 14 15  1  0
 15 16  1  0
 16 17  1  0
 17 18  1  0
 18 19  1  0
 19 20  2  0
 20 21  1  0
 21 22  2  0
 22 23  1  0
 23 24  2  0
 24 25  1  0
 25 26  2  0
 26 27  1  0
 27 28  1  0
 28 29  1  0
 29 30  1  0
 30 31  1  0
 31 32  1  0
 18 33  1  0
 11 34  1  0
 34 35  1  0
  7 36  2  0
 36  2  1  0
 35  8  1  0
 33 14  1  0
 24 19  1  0
 32 26  1  0
 27 23  1  0
  1 37  1  0
  1 38  1  0
  1 39  1  0
  3 40  1  0
  4 41  1  0
  6 42  1  0
  6 43  1  0
  6 44  1  0
  9 45  1  0
  9 46  1  0
 10 47  1  0
 10 48  1  0
 14 49  1  0
 15 50  1  0
 15 51  1  0
 16 52  1  0
 16 53  1  0
 17 54  1  0
 17 55  1  0
 21 56  1  0
 28 57  1  0
 28 58  1  0
 29 59  1  0
 29 60  1  0
 30 61  1  0
 30 62  1  0
 31 63  1  0
 31 64  1  0
 32 65  1  0
 32 66  1  0
 33 67  1  0
 33 68  1  0
 34 69  1  0
 34 70  1  0
 35 71  1  0
 35 72  1  0
 36 73  1  0
M  END
$$$$
