
     RDKit          3D

 51 53  0  0  0  0  0  0  0  0999 V2000
   -5.2128    3.8230    0.9165 O   0  0  0  0  0  0  0  0  0  0  0  0
   -4.3146    2.9880    0.8848 C   0  0  0  0  0  0  0  0  0  0  0  0
   -2.8805    3.3769    1.2657 C   0  0  0  0  0  0  0  0  0  0  0  0
   -1.9271    3.2612    0.2080 O   0  0  0  0  0  0  0  0  0  0  0  0
   -1.4229    2.0176   -0.0015 C   0  0  0  0  0  0  0  0  0  0  0  0
   -1.7712    1.0182    0.6142 O   0  0  0  0  0  0  0  0  0  0  0  0
   -0.3553    2.0563   -1.0625 C   0  0  0  0  0  0  0  0  0  0  0  0
   -0.4269    0.8551   -2.0050 C   0  0  0  0  0  0  0  0  0  0  0  0
   -0.0530   -0.4230   -1.3887 N   0  0  0  0  0  0  0  0  0  0  0  0
    1.2636   -0.6057   -0.9917 C   0  0  0  0  0  0  0  0  0  0  0  0
    2.1538    0.2212   -1.1355 O   0  0  0  0  0  0  0  0  0  0  0  0
    1.4488   -1.9544   -0.3846 C   0  0  0  0  0  0  0  0  0  0  0  0
    2.5577   -2.4840    0.1544 C   0  0  0  0  0  0  0  0  0  0  0  0
    3.8568   -1.8563    0.2875 C   0  0  0  0  0  0  0  0  0  0  0  0
    4.9094   -2.4846    0.8364 C   0  0  0  0  0  0  0  0  0  0  0  0
    6.2396   -1.8774    0.9974 C   0  0  0  0  0  0  0  0  0  0  0  0
    6.7920   -1.0137    0.0421 C   0  0  0  0  0  0  0  0  0  0  0  0
    8.0722   -0.4820    0.2192 C   0  0  0  0  0  0  0  0  0  0  0  0
    8.8176   -0.8160    1.3476 C   0  0  0  0  0  0  0  0  0  0  0  0
    8.2863   -1.6857    2.2971 C   0  0  0  0  0  0  0  0  0  0  0  0
    7.0065   -2.2180    2.1198 C   0  0  0  0  0  0  0  0  0  0  0  0
   -0.0398   -2.8265   -0.4597 S   0  0  0  0  0  0  0  0  0  0  0  0
   -0.8965   -1.5049   -1.2396 C   0  0  0  0  0  0  0  0  0  0  0  0
   -2.4909   -1.6522   -1.7098 S   0  0  0  0  0  0  0  0  0  0  0  0
   -4.4567    1.6397    0.6068 N   0  0  0  0  0  0  0  0  0  0  0  0
   -5.6264    0.9752    0.1757 C   0  0  0  0  0  0  0  0  0  0  0  0
   -5.6679   -0.4109    0.3727 C   0  0  0  0  0  0  0  0  0  0  0  0
   -6.7907   -1.1409   -0.0119 C   0  0  0  0  0  0  0  0  0  0  0  0
   -6.8203   -2.4625    0.2032 F   0  0  0  0  0  0  0  0  0  0  0  0
   -7.8811   -0.5234   -0.6103 C   0  0  0  0  0  0  0  0  0  0  0  0
   -7.8398    0.8488   -0.8403 C   0  0  0  0  0  0  0  0  0  0  0  0
   -6.7182    1.5886   -0.4563 C   0  0  0  0  0  0  0  0  0  0  0  0
   -6.6995    2.8823   -0.8005 F   0  0  0  0  0  0  0  0  0  0  0  0
   -2.8908    4.4309    1.5656 H   0  0  0  0  0  0  0  0  0  0  0  0
   -2.5670    2.8082    2.1500 H   0  0  0  0  0  0  0  0  0  0  0  0
    0.6126    2.1429   -0.5606 H   0  0  0  0  0  0  0  0  0  0  0  0
   -0.4955    2.9622   -1.6650 H   0  0  0  0  0  0  0  0  0  0  0  0
    0.2769    1.0243   -2.8299 H   0  0  0  0  0  0  0  0  0  0  0  0
   -1.4244    0.7985   -2.4489 H   0  0  0  0  0  0  0  0  0  0  0  0
    2.4984   -3.4994    0.5480 H   0  0  0  0  0  0  0  0  0  0  0  0
    3.9671   -0.8322   -0.0601 H   0  0  0  0  0  0  0  0  0  0  0  0
    4.8134   -3.4996    1.2158 H   0  0  0  0  0  0  0  0  0  0  0  0
    6.2380   -0.7510   -0.8560 H   0  0  0  0  0  0  0  0  0  0  0  0
    8.4875    0.1896   -0.5277 H   0  0  0  0  0  0  0  0  0  0  0  0
    9.8132   -0.4023    1.4844 H   0  0  0  0  0  0  0  0  0  0  0  0
    8.8673   -1.9516    3.1762 H   0  0  0  0  0  0  0  0  0  0  0  0
    6.6105   -2.8949    2.8733 H   0  0  0  0  0  0  0  0  0  0  0  0
   -3.6659    1.0459    0.8589 H   0  0  0  0  0  0  0  0  0  0  0  0
   -4.8448   -0.9428    0.8403 H   0  0  0  0  0  0  0  0  0  0  0  0
   -8.7434   -1.1131   -0.9041 H   0  0  0  0  0  0  0  0  0  0  0  0
   -8.6651    1.3541   -1.3329 H   0  0  0  0  0  0  0  0  0  0  0  0
  1  2  2  0
  2  3  1  0
  3  4  1  0
  4  5  1  0
  5  6  2  0
  5  7  1  0
  7  8  1  0
  8  9  1  0
  9 10  1  0
 10 11  2  0
 10 12  1  0
 12 13  2  3
 13 14  1  0
 14 15  2  3
 15 16  1  0
 16 17  2  0
 17 18  1  0
 18 19  2  0
 19 20  1  0
 20 21  2  0
 12 22  1  0
 22 23  1  0
 23 24  2  0
  2 25  1  0
 25 26  1  0
 26 27  2  0
 27 28  1  0
 28 29  1  0
 28 30  2  0
 30 31  1  0
 31 32  2  0
 32 33  1  0
 23  9  1  0
 32 26  1  0
 21 16  1  0
  3 34  1  0
  3 35  1  0
  7 36  1  0
  7 37  1  0
  8 38  1  0
  8 39  1  0
 13 40  1  0
 14 41  1  0
 15 42  1  0
 17 43  1  0
 18 44  1  0
 19 45  1  0
 20 46  1  0
 21 47  1  0
 25 48  1  0
 27 49  1  0
 30 50  1  0
 31 51  1  0
M  END
$$$$
