
     RDKit          3D

 39 41  0  0  0  0  0  0  0  0999 V2000
   -1.9680   -0.8051   -2.5792 C   0  0  0  0  0  0  0  0  0  0  0  0
   -2.6825   -0.3398   -1.3382 C   0  0  0  0  0  0  0  0  0  0  0  0
   -4.0819   -0.2154   -1.4319 C   0  0  0  0  0  0  0  0  0  0  0  0
   -4.8310    0.3056   -0.3831 C   0  0  0  0  0  0  0  0  0  0  0  0
   -4.1925    0.7171    0.7797 C   0  0  0  0  0  0  0  0  0  0  0  0
   -2.8013    0.5818    0.9207 C   0  0  0  0  0  0  0  0  0  0  0  0
   -2.1804    1.0249    2.2204 C   0  0  0  0  0  0  0  0  0  0  0  0
   -2.0399    0.0107   -0.1307 C   0  0  0  0  0  0  0  0  0  0  0  0
   -0.6415   -0.1163    0.0706 N   0  0  0  0  0  0  0  0  0  0  0  0
    0.1376   -1.1894   -0.3129 C   0  0  0  0  0  0  0  0  0  0  0  0
   -0.2851   -2.2341   -0.8036 O   0  0  0  0  0  0  0  0  0  0  0  0
    1.6384   -1.0294   -0.0641 C   0  0  0  0  0  0  0  0  0  0  0  0
    2.0606   -0.7796    1.3949 C   0  0  0  0  0  0  0  0  0  0  0  0
    3.0231    0.4185    1.2718 C   0  0  0  0  0  0  0  0  0  0  0  0
    4.2865   -0.0165    0.5034 C   0  0  0  0  0  0  0  0  0  0  0  0
    3.7891   -0.1351   -0.9484 C   0  0  0  0  0  0  0  0  0  0  0  0
    2.2826    0.1633   -0.8144 C   0  0  0  0  0  0  0  0  0  0  0  0
    2.3165    1.2820    0.2318 C   0  0  0  0  0  0  0  0  0  0  0  0
   -1.9420   -1.8975   -2.6216 H   0  0  0  0  0  0  0  0  0  0  0  0
   -0.9545   -0.3989   -2.6434 H   0  0  0  0  0  0  0  0  0  0  0  0
   -2.4873   -0.4469   -3.4761 H   0  0  0  0  0  0  0  0  0  0  0  0
   -4.5939   -0.5087   -2.3467 H   0  0  0  0  0  0  0  0  0  0  0  0
   -5.9090    0.4028   -0.4793 H   0  0  0  0  0  0  0  0  0  0  0  0
   -4.7916    1.1356    1.5856 H   0  0  0  0  0  0  0  0  0  0  0  0
   -1.6539    0.1909    2.6958 H   0  0  0  0  0  0  0  0  0  0  0  0
   -1.4831    1.8505    2.0453 H   0  0  0  0  0  0  0  0  0  0  0  0
   -2.9354    1.3791    2.9306 H   0  0  0  0  0  0  0  0  0  0  0  0
   -0.2687    0.4157    0.8406 H   0  0  0  0  0  0  0  0  0  0  0  0
    2.0909   -1.9693   -0.4103 H   0  0  0  0  0  0  0  0  0  0  0  0
    2.5607   -1.6557    1.8218 H   0  0  0  0  0  0  0  0  0  0  0  0
    1.2130   -0.5355    2.0433 H   0  0  0  0  0  0  0  0  0  0  0  0
    3.2367    0.9059    2.2250 H   0  0  0  0  0  0  0  0  0  0  0  0
    4.6973   -0.9603    0.8758 H   0  0  0  0  0  0  0  0  0  0  0  0
    5.0684    0.7481    0.5705 H   0  0  0  0  0  0  0  0  0  0  0  0
    4.2796    0.6166   -1.5778 H   0  0  0  0  0  0  0  0  0  0  0  0
    3.9946   -1.1212   -1.3764 H   0  0  0  0  0  0  0  0  0  0  0  0
    1.8005    0.4247   -1.7589 H   0  0  0  0  0  0  0  0  0  0  0  0
    2.9121    2.1460   -0.0842 H   0  0  0  0  0  0  0  0  0  0  0  0
    1.3354    1.6350    0.5536 H   0  0  0  0  0  0  0  0  0  0  0  0
  1  2  1  0
  2  3  2  0
  3  4  1  0
  4  5  2  0
  5  6  1  0
  6  7  1  0
  6  8  2  0
  8  9  1  0
  9 10  1  0
 10 11  2  0
 10 12  1  0
 12 13  1  0
 13 14  1  0
 14 15  1  0
 15 16  1  0
 16 17  1  0
 17 18  1  0
  8  2  1  0
 17 12  1  0
 18 14  1  0
  1 19  1  0
  1 20  1  0
  1 21  1  0
  3 22  1  0
  4 23  1  0
  5 24  1  0
  7 25  1  0
  7 26  1  0
  7 27  1  0
  9 28  1  0
 12 29  1  0
 13 30  1  0
 13 31  1  0
 14 32  1  0
 15 33  1  0
 15 34  1  0
 16 35  1  0
 16 36  1  0
 17 37  1  0
 18 38  1  0
 18 39  1  0
M  END
$$$$
