
     RDKit          3D

 52 55  0  0  0  0  0  0  0  0999 V2000
    7.0195   -2.3156   -1.0049 C   0  0  0  0  0  0  0  0  0  0  0  0
    5.5798   -1.9933   -0.6280 C   0  0  0  0  0  0  0  0  0  0  0  0
    5.3735   -0.5206   -0.2139 C   0  0  0  0  0  0  0  0  0  0  0  0
    5.6669    0.4776   -1.3440 C   0  0  0  0  0  0  0  0  0  0  0  0
    4.0257   -0.3106    0.4016 N   0  0  0  0  0  0  0  0  0  0  0  0
    2.9237   -0.4012   -0.4599 C   0  0  0  0  0  0  0  0  0  0  0  0
    3.0227   -0.6957   -1.6516 O   0  0  0  0  0  0  0  0  0  0  0  0
    1.5793   -0.1359    0.1273 C   0  0  0  0  0  0  0  0  0  0  0  0
    0.5350   -0.1339   -0.7274 C   0  0  0  0  0  0  0  0  0  0  0  0
   -0.8761    0.0937   -0.4088 C   0  0  0  0  0  0  0  0  0  0  0  0
   -1.4275    1.3676   -0.5433 C   0  0  0  0  0  0  0  0  0  0  0  0
   -2.7829    1.5933   -0.2495 C   0  0  0  0  0  0  0  0  0  0  0  0
   -3.6179    0.5318    0.1536 C   0  0  0  0  0  0  0  0  0  0  0  0
   -3.0510   -0.7534    0.2725 C   0  0  0  0  0  0  0  0  0  0  0  0
   -1.6875   -0.9627    0.0047 C   0  0  0  0  0  0  0  0  0  0  0  0
   -3.8920   -1.9185    0.7284 C   0  0  0  0  0  0  0  0  0  0  0  0
   -5.3689   -1.6724    0.4561 C   0  0  0  0  0  0  0  0  0  0  0  0
   -5.7714   -0.3150    1.0105 C   0  0  0  0  0  0  0  0  0  0  0  0
   -4.9640    0.7449    0.4216 N   0  0  0  0  0  0  0  0  0  0  0  0
   -5.5677    2.0526    0.2007 C   0  0  0  0  0  0  0  0  0  0  0  0
   -4.5748    3.1706    0.4757 C   0  0  0  0  0  0  0  0  0  0  0  0
   -3.3418    2.9852   -0.3966 C   0  0  0  0  0  0  0  0  0  0  0  0
    1.4483    0.1049    1.5738 C   0  0  0  0  0  0  0  0  0  0  0  0
    0.4062    0.3459    2.1679 O   0  0  0  0  0  0  0  0  0  0  0  0
    2.6245    0.0425    2.2610 N   0  0  0  0  0  0  0  0  0  0  0  0
    3.8908   -0.1387    1.7787 C   0  0  0  0  0  0  0  0  0  0  0  0
    5.1037   -0.1222    2.9400 S   0  0  0  0  0  0  0  0  0  0  0  0
    7.3279   -1.7758   -1.9050 H   0  0  0  0  0  0  0  0  0  0  0  0
    7.7063   -2.0585   -0.1924 H   0  0  0  0  0  0  0  0  0  0  0  0
    7.1230   -3.3863   -1.2084 H   0  0  0  0  0  0  0  0  0  0  0  0
    4.9317   -2.2602   -1.4696 H   0  0  0  0  0  0  0  0  0  0  0  0
    5.2879   -2.6440    0.2059 H   0  0  0  0  0  0  0  0  0  0  0  0
    6.1363   -0.3040    0.5377 H   0  0  0  0  0  0  0  0  0  0  0  0
    5.1444    0.2308   -2.2721 H   0  0  0  0  0  0  0  0  0  0  0  0
    6.7376    0.4963   -1.5738 H   0  0  0  0  0  0  0  0  0  0  0  0
    5.3766    1.4919   -1.0494 H   0  0  0  0  0  0  0  0  0  0  0  0
    0.6941   -0.3145   -1.7906 H   0  0  0  0  0  0  0  0  0  0  0  0
   -0.8043    2.1977   -0.8669 H   0  0  0  0  0  0  0  0  0  0  0  0
   -1.2665   -1.9588    0.1173 H   0  0  0  0  0  0  0  0  0  0  0  0
   -3.7270   -2.0687    1.8023 H   0  0  0  0  0  0  0  0  0  0  0  0
   -3.5841   -2.8345    0.2106 H   0  0  0  0  0  0  0  0  0  0  0  0
   -5.5581   -1.7009   -0.6250 H   0  0  0  0  0  0  0  0  0  0  0  0
   -5.9720   -2.4646    0.9131 H   0  0  0  0  0  0  0  0  0  0  0  0
   -5.6569   -0.2959    2.1013 H   0  0  0  0  0  0  0  0  0  0  0  0
   -6.8334   -0.1478    0.7947 H   0  0  0  0  0  0  0  0  0  0  0  0
   -5.9298    2.1103   -0.8331 H   0  0  0  0  0  0  0  0  0  0  0  0
   -6.4387    2.1863    0.8533 H   0  0  0  0  0  0  0  0  0  0  0  0
   -4.2878    3.1580    1.5354 H   0  0  0  0  0  0  0  0  0  0  0  0
   -5.0342    4.1446    0.2746 H   0  0  0  0  0  0  0  0  0  0  0  0
   -2.5896    3.7291   -0.1091 H   0  0  0  0  0  0  0  0  0  0  0  0
   -3.5940    3.1526   -1.4507 H   0  0  0  0  0  0  0  0  0  0  0  0
    2.5347    0.1963    3.2578 H   0  0  0  0  0  0  0  0  0  0  0  0
  1  2  1  0
  2  3  1  0
  3  4  1  0
  3  5  1  0
  5  6  1  0
  6  7  2  0
  6  8  1  0
  8  9  2  3
  9 10  1  0
 10 11  2  0
 11 12  1  0
 12 13  2  0
 13 14  1  0
 14 15  2  0
 14 16  1  0
 16 17  1  0
 17 18  1  0
 18 19  1  0
 19 20  1  0
 20 21  1  0
 21 22  1  0
  8 23  1  0
 23 24  2  0
 23 25  1  0
 25 26  1  0
 26 27  2  0
 26  5  1  0
 15 10  1  0
 22 12  1  0
 19 13  1  0
  1 28  1  0
  1 29  1  0
  1 30  1  0
  2 31  1  0
  2 32  1  0
  3 33  1  0
  4 34  1  0
  4 35  1  0
  4 36  1  0
  9 37  1  0
 11 38  1  0
 15 39  1  0
 16 40  1  0
 16 41  1  0
 17 42  1  0
 17 43  1  0
 18 44  1  0
 18 45  1  0
 20 46  1  0
 20 47  1  0
 21 48  1  0
 21 49  1  0
 22 50  1  0
 22 51  1  0
 25 52  1  0
M  END
$$$$
