
     RDKit          3D

 61 65  0  0  0  0  0  0  0  0999 V2000
    3.0828   -0.0601    0.4625 C   0  0  0  0  0  0  0  0  0  0  0  0
    3.2805    0.5558   -0.8748 C   0  0  0  0  0  0  0  0  0  0  0  0
    2.3460    0.7401   -1.8805 C   0  0  0  0  0  0  0  0  0  0  0  0
    0.8886    0.3800   -1.9122 C   0  0  0  0  0  0  0  0  0  0  0  0
   -0.0017    1.5573   -1.5037 C   0  0  0  0  0  0  0  0  0  0  0  0
   -1.3030    1.1002   -1.1058 O   0  0  0  0  0  0  0  0  0  0  0  0
   -1.3866    0.6401    0.1772 C   0  0  0  0  0  0  0  0  0  0  0  0
   -0.4243    0.5684    0.9326 O   0  0  0  0  0  0  0  0  0  0  0  0
   -2.8127    0.2252    0.5271 C   0  0  0  0  0  0  0  0  0  0  0  0
   -2.8580   -0.3578    1.9602 C   0  0  0  0  0  0  0  0  0  0  0  0
   -4.2888   -0.7801    2.3274 C   0  0  0  0  0  0  0  0  0  0  0  0
   -4.7749   -1.8436    1.3313 C   0  0  0  0  0  0  0  0  0  0  0  0
   -4.7537   -1.2745   -0.0951 C   0  0  0  0  0  0  0  0  0  0  0  0
   -5.6748   -0.0445   -0.1649 C   0  0  0  0  0  0  0  0  0  0  0  0
   -5.2032    1.0430    0.8288 C   0  0  0  0  0  0  0  0  0  0  0  0
   -6.1274    2.2615    0.7604 C   0  0  0  0  0  0  0  0  0  0  0  0
   -5.2115    0.4466    2.2545 C   0  0  0  0  0  0  0  0  0  0  0  0
   -3.7545    1.4487    0.4673 C   0  0  0  0  0  0  0  0  0  0  0  0
   -3.3188   -0.8550   -0.4547 C   0  0  0  0  0  0  0  0  0  0  0  0
    3.0782    1.4998   -3.2362 S   0  0  0  0  0  0  0  0  0  0  0  0
    4.5930    1.5690   -2.4522 C   0  0  0  0  0  0  0  0  0  0  0  0
    4.5392    1.0270   -1.2476 N   0  0  0  0  0  4  0  0  0  0  0  0
    5.7389    0.9922   -0.3976 C   0  0  0  0  0  0  0  0  0  0  0  0
    6.2774   -0.4122   -0.2675 C   0  0  0  0  0  0  0  0  0  0  0  0
    6.5141   -1.2173   -1.3935 C   0  0  0  0  0  0  0  0  0  0  0  0
    7.0251   -2.5081   -1.2469 C   0  0  0  0  0  0  0  0  0  0  0  0
    7.3177   -3.0051    0.0200 C   0  0  0  0  0  0  0  0  0  0  0  0
    7.1071   -2.2117    1.1438 C   0  0  0  0  0  0  0  0  0  0  0  0
    6.5955   -0.9209    1.0030 C   0  0  0  0  0  0  0  0  0  0  0  0
    2.0233   -0.2144    0.6794 H   0  0  0  0  0  0  0  0  0  0  0  0
    3.5660   -1.0394    0.5116 H   0  0  0  0  0  0  0  0  0  0  0  0
    3.4794    0.5774    1.2572 H   0  0  0  0  0  0  0  0  0  0  0  0
    0.7135   -0.4846   -1.2613 H   0  0  0  0  0  0  0  0  0  0  0  0
    0.5951    0.0363   -2.9124 H   0  0  0  0  0  0  0  0  0  0  0  0
    0.4447    2.1622   -0.7039 H   0  0  0  0  0  0  0  0  0  0  0  0
   -0.1418    2.2325   -2.3557 H   0  0  0  0  0  0  0  0  0  0  0  0
   -2.4949    0.3832    2.6848 H   0  0  0  0  0  0  0  0  0  0  0  0
   -2.1852   -1.2221    2.0411 H   0  0  0  0  0  0  0  0  0  0  0  0
   -4.3027   -1.1913    3.3430 H   0  0  0  0  0  0  0  0  0  0  0  0
   -5.7907   -2.1658    1.5914 H   0  0  0  0  0  0  0  0  0  0  0  0
   -4.1344   -2.7321    1.3898 H   0  0  0  0  0  0  0  0  0  0  0  0
   -5.1029   -2.0358   -0.8010 H   0  0  0  0  0  0  0  0  0  0  0  0
   -5.6813    0.3518   -1.1887 H   0  0  0  0  0  0  0  0  0  0  0  0
   -6.7061   -0.3439    0.0628 H   0  0  0  0  0  0  0  0  0  0  0  0
   -7.1583    1.9904    1.0136 H   0  0  0  0  0  0  0  0  0  0  0  0
   -5.8072    3.0416    1.4599 H   0  0  0  0  0  0  0  0  0  0  0  0
   -6.1329    2.6960   -0.2452 H   0  0  0  0  0  0  0  0  0  0  0  0
   -6.2313    0.1578    2.5394 H   0  0  0  0  0  0  0  0  0  0  0  0
   -4.8822    1.1987    2.9825 H   0  0  0  0  0  0  0  0  0  0  0  0
   -3.3957    2.2291    1.1522 H   0  0  0  0  0  0  0  0  0  0  0  0
   -3.7353    1.8953   -0.5360 H   0  0  0  0  0  0  0  0  0  0  0  0
   -3.2966   -0.4821   -1.4867 H   0  0  0  0  0  0  0  0  0  0  0  0
   -2.6548   -1.7290   -0.4317 H   0  0  0  0  0  0  0  0  0  0  0  0
    5.4781    1.9994   -2.9050 H   0  0  0  0  0  0  0  0  0  0  0  0
    5.4823    1.4206    0.5781 H   0  0  0  0  0  0  0  0  0  0  0  0
    6.5221    1.6325   -0.8223 H   0  0  0  0  0  0  0  0  0  0  0  0
    6.3135   -0.8633   -2.4019 H   0  0  0  0  0  0  0  0  0  0  0  0
    7.2040   -3.1297   -2.1223 H   0  0  0  0  0  0  0  0  0  0  0  0
    7.7205   -4.0102    0.1313 H   0  0  0  0  0  0  0  0  0  0  0  0
    7.3488   -2.6005    2.1312 H   0  0  0  0  0  0  0  0  0  0  0  0
    6.4531   -0.3247    1.9029 H   0  0  0  0  0  0  0  0  0  0  0  0
  1  2  1  0
  2  3  2  0
  3  4  1  0
  4  5  1  0
  5  6  1  0
  6  7  1  0
  7  8  2  0
  7  9  1  0
  9 10  1  0
 10 11  1  0
 11 12  1  0
 12 13  1  0
 13 14  1  0
 14 15  1  0
 15 16  1  0
 15 17  1  0
 15 18  1  0
 13 19  1  0
  3 20  1  0
 20 21  1  0
 21 22  2  0
 22 23  1  0
 23 24  1  0
 24 25  2  0
 25 26  1  0
 26 27  2  0
 27 28  1  0
 28 29  2  0
 22  2  1  0
 29 24  1  0
 18  9  1  0
 19  9  1  0
 17 11  1  0
  1 30  1  0
  1 31  1  0
  1 32  1  0
  4 33  1  0
  4 34  1  0
  5 35  1  0
  5 36  1  0
 10 37  1  0
 10 38  1  0
 11 39  1  0
 12 40  1  0
 12 41  1  0
 13 42  1  0
 14 43  1  0
 14 44  1  0
 16 45  1  0
 16 46  1  0
 16 47  1  0
 17 48  1  0
 17 49  1  0
 18 50  1  0
 18 51  1  0
 19 52  1  0
 19 53  1  0
 21 54  1  0
 23 55  1  0
 23 56  1  0
 25 57  1  0
 26 58  1  0
 27 59  1  0
 28 60  1  0
 29 61  1  0
M  CHG  1  22   1
M  END
$$$$
