
     RDKit          3D

 55 59  0  0  0  0  0  0  0  0999 V2000
   -6.8376   -0.8541   -1.4970 C   0  0  0  0  0  0  0  0  0  0  0  0
   -5.6792   -0.0539   -0.9794 C   0  0  0  0  0  0  0  0  0  0  0  0
   -5.8940    1.2156   -0.4314 C   0  0  0  0  0  0  0  0  0  0  0  0
   -4.8210    1.9732    0.0460 C   0  0  0  0  0  0  0  0  0  0  0  0
   -3.5108    1.4783   -0.0218 C   0  0  0  0  0  0  0  0  0  0  0  0
   -2.3536    2.3005    0.4850 C   0  0  0  0  0  0  0  0  0  0  0  0
   -2.1295    2.1733    2.2753 S   0  0  0  0  0  0  0  0  0  0  0  0
   -1.1247    0.7387    2.3302 C   0  0  0  0  0  0  0  0  0  0  0  0
   -1.7271   -0.3769    2.6337 N   0  0  0  0  0  0  0  0  0  0  0  0
   -0.9860   -1.5762    2.7266 C   0  0  0  0  0  0  0  0  0  0  0  0
   -1.6564   -2.7706    2.9996 C   0  0  0  0  0  0  0  0  0  0  0  0
   -0.9514   -3.9767    3.1026 C   0  0  0  0  0  0  0  0  0  0  0  0
    0.4316   -3.9926    2.9380 C   0  0  0  0  0  0  0  0  0  0  0  0
    1.1164   -2.8072    2.6646 C   0  0  0  0  0  0  0  0  0  0  0  0
    0.4079   -1.6060    2.5561 C   0  0  0  0  0  0  0  0  0  0  0  0
    1.0497   -0.3452    2.2401 C   0  0  0  0  0  0  0  0  0  0  0  0
    2.3260   -0.0947    2.0346 N   0  0  0  0  0  0  0  0  0  0  0  0
    2.3867    1.2357    1.7078 C   0  0  0  0  0  0  0  0  0  0  0  0
    3.6923    1.8667    1.3741 C   0  0  0  0  0  0  0  0  0  0  0  0
    3.6214    2.4648   -0.0211 C   0  0  0  0  0  0  0  0  0  0  0  0
    2.9746    3.4864   -0.2471 O   0  0  0  0  0  0  0  0  0  0  0  0
    4.2581    1.7326   -0.9958 N   0  0  0  0  0  0  0  0  0  0  0  0
    4.0648    2.0472   -2.3937 C   0  0  0  0  0  0  0  0  0  0  0  0
    4.5222    0.9084   -3.2329 C   0  0  0  0  0  0  0  0  0  0  0  0
    4.4294   -0.4662   -3.1173 C   0  0  0  0  0  0  0  0  0  0  0  0
    5.0381   -1.0085   -4.2702 C   0  0  0  0  0  0  0  0  0  0  0  0
    5.4580    0.0619   -5.0238 C   0  0  0  0  0  0  0  0  0  0  0  0
    5.1518    1.2290   -4.4017 O   0  0  0  0  0  0  0  0  0  0  0  0
    1.1163    1.7952    1.6904 C   0  0  0  0  0  0  0  0  0  0  0  0
    0.6919    3.0017    1.3207 O   0  0  0  0  0  0  0  0  0  0  0  0
    0.2638    0.7838    2.1005 N   0  0  0  0  0  0  0  0  0  0  0  0
   -3.3011    0.2032   -0.5611 C   0  0  0  0  0  0  0  0  0  0  0  0
   -4.3747   -0.5557   -1.0359 C   0  0  0  0  0  0  0  0  0  0  0  0
   -7.3153   -0.3277   -2.3293 H   0  0  0  0  0  0  0  0  0  0  0  0
   -7.5736   -1.0144   -0.7026 H   0  0  0  0  0  0  0  0  0  0  0  0
   -6.5181   -1.8372   -1.8598 H   0  0  0  0  0  0  0  0  0  0  0  0
   -6.8997    1.6197   -0.3659 H   0  0  0  0  0  0  0  0  0  0  0  0
   -5.0143    2.9531    0.4769 H   0  0  0  0  0  0  0  0  0  0  0  0
   -2.5318    3.3554    0.2451 H   0  0  0  0  0  0  0  0  0  0  0  0
   -1.4374    2.0280   -0.0481 H   0  0  0  0  0  0  0  0  0  0  0  0
   -2.7320   -2.7583    3.1324 H   0  0  0  0  0  0  0  0  0  0  0  0
   -1.4847   -4.9015    3.3181 H   0  0  0  0  0  0  0  0  0  0  0  0
    0.9778   -4.9307    3.0195 H   0  0  0  0  0  0  0  0  0  0  0  0
    2.1958   -2.8202    2.5359 H   0  0  0  0  0  0  0  0  0  0  0  0
    3.9276    2.6672    2.0850 H   0  0  0  0  0  0  0  0  0  0  0  0
    4.5039    1.1298    1.4331 H   0  0  0  0  0  0  0  0  0  0  0  0
    4.6069    0.8176   -0.7581 H   0  0  0  0  0  0  0  0  0  0  0  0
    4.6166    2.9653   -2.6164 H   0  0  0  0  0  0  0  0  0  0  0  0
    2.9975    2.2366   -2.5755 H   0  0  0  0  0  0  0  0  0  0  0  0
    3.9641   -1.0082   -2.3045 H   0  0  0  0  0  0  0  0  0  0  0  0
    5.1520   -2.0528   -4.5269 H   0  0  0  0  0  0  0  0  0  0  0  0
    5.9591    0.1544   -5.9780 H   0  0  0  0  0  0  0  0  0  0  0  0
    1.4345    3.4823    0.8856 H   0  0  0  0  0  0  0  0  0  0  0  0
   -2.3012   -0.2154   -0.6142 H   0  0  0  0  0  0  0  0  0  0  0  0
   -4.1818   -1.5456   -1.4478 H   0  0  0  0  0  0  0  0  0  0  0  0
  1  2  1  0
  2  3  2  0
  3  4  1  0
  4  5  2  0
  5  6  1  0
  6  7  1  0
  7  8  1  0
  8  9  2  0
  9 10  1  0
 10 11  2  0
 11 12  1  0
 12 13  2  0
 13 14  1  0
 14 15  2  0
 15 16  1  0
 16 17  2  0
 17 18  1  0
 18 19  1  0
 19 20  1  0
 20 21  2  0
 20 22  1  0
 22 23  1  0
 23 24  1  0
 24 25  2  0
 25 26  1  0
 26 27  2  0
 27 28  1  0
 18 29  2  0
 29 30  1  0
 29 31  1  0
  5 32  1  0
 32 33  2  0
 33  2  1  0
 31  8  1  0
 15 10  1  0
 31 16  1  0
 28 24  1  0
  1 34  1  0
  1 35  1  0
  1 36  1  0
  3 37  1  0
  4 38  1  0
  6 39  1  0
  6 40  1  0
 11 41  1  0
 12 42  1  0
 13 43  1  0
 14 44  1  0
 19 45  1  0
 19 46  1  0
 22 47  1  0
 23 48  1  0
 23 49  1  0
 25 50  1  0
 26 51  1  0
 27 52  1  0
 30 53  1  0
 32 54  1  0
 33 55  1  0
M  END
$$$$
