
     RDKit          3D

 52 55  0  0  0  0  0  0  0  0999 V2000
    9.4205    0.9386    1.1650 C   0  0  0  0  0  0  0  0  0  0  0  0
    7.9994    0.4107    1.2470 C   0  0  0  0  0  0  0  0  0  0  0  0
    7.2691    0.9404    0.1419 O   0  0  0  0  0  0  0  0  0  0  0  0
    5.9608    0.5622    0.0252 C   0  0  0  0  0  0  0  0  0  0  0  0
    5.2612   -0.2637    0.9022 C   0  0  0  0  0  0  0  0  0  0  0  0
    3.9143   -0.5732    0.6632 C   0  0  0  0  0  0  0  0  0  0  0  0
    3.2533   -0.0667   -0.4564 C   0  0  0  0  0  0  0  0  0  0  0  0
    1.8991   -0.3218   -0.7572 N   0  0  0  0  0  0  0  0  0  0  0  0
    1.0599   -1.2356   -0.1542 C   0  0  0  0  0  0  0  0  0  0  0  0
    1.4183   -2.0628    0.6794 O   0  0  0  0  0  0  0  0  0  0  0  0
   -0.2728   -1.1456   -0.5678 N   0  0  0  0  0  0  0  0  0  0  0  0
   -1.2394   -2.1070   -0.0368 C   0  0  0  0  0  0  0  0  0  0  0  0
   -2.3377   -1.3849    0.7343 C   0  0  0  0  0  0  0  0  0  0  0  0
   -2.9829   -0.2505   -0.0880 C   0  0  0  0  0  0  0  0  0  0  0  0
   -4.4225   -0.4150   -0.2000 N   0  0  0  0  0  0  0  0  0  0  0  0
   -5.0775   -1.5187   -0.7931 C   0  0  0  0  0  0  0  0  0  0  0  0
   -4.5695   -2.5120   -1.2858 O   0  0  0  0  0  0  0  0  0  0  0  0
   -6.4524   -1.2598   -0.7133 N   0  0  0  0  0  0  0  0  0  0  0  0
   -6.6468   -0.0312   -0.0958 C   0  0  0  0  0  0  0  0  0  0  0  0
   -7.8287    0.6158    0.1844 C   0  0  0  0  0  0  0  0  0  0  0  0
   -7.7316    1.8581    0.8166 C   0  0  0  0  0  0  0  0  0  0  0  0
   -6.4745    2.4083    1.1442 C   0  0  0  0  0  0  0  0  0  0  0  0
   -5.2863    1.7284    0.8474 C   0  0  0  0  0  0  0  0  0  0  0  0
   -5.3976    0.5036    0.2246 C   0  0  0  0  0  0  0  0  0  0  0  0
   -2.3410   -0.0848   -1.4741 C   0  0  0  0  0  0  0  0  0  0  0  0
   -0.8207   -0.0528   -1.3704 C   0  0  0  0  0  0  0  0  0  0  0  0
    3.9575    0.7696   -1.3292 C   0  0  0  0  0  0  0  0  0  0  0  0
    5.3001    1.0783   -1.0896 C   0  0  0  0  0  0  0  0  0  0  0  0
    9.8887    0.6401    0.2211 H   0  0  0  0  0  0  0  0  0  0  0  0
   10.0251    0.5610    1.9943 H   0  0  0  0  0  0  0  0  0  0  0  0
    9.4273    2.0334    1.1919 H   0  0  0  0  0  0  0  0  0  0  0  0
    8.0214   -0.6842    1.2000 H   0  0  0  0  0  0  0  0  0  0  0  0
    7.5503    0.7388    2.1915 H   0  0  0  0  0  0  0  0  0  0  0  0
    5.7254   -0.6871    1.7866 H   0  0  0  0  0  0  0  0  0  0  0  0
    3.4075   -1.2120    1.3803 H   0  0  0  0  0  0  0  0  0  0  0  0
    1.5617    0.0870   -1.6118 H   0  0  0  0  0  0  0  0  0  0  0  0
   -0.7583   -2.8436    0.6142 H   0  0  0  0  0  0  0  0  0  0  0  0
   -1.6557   -2.6628   -0.8851 H   0  0  0  0  0  0  0  0  0  0  0  0
   -3.0791   -2.1115    1.0862 H   0  0  0  0  0  0  0  0  0  0  0  0
   -1.8977   -0.9441    1.6390 H   0  0  0  0  0  0  0  0  0  0  0  0
   -2.7954    0.6779    0.4645 H   0  0  0  0  0  0  0  0  0  0  0  0
   -7.1586   -1.8870   -1.0606 H   0  0  0  0  0  0  0  0  0  0  0  0
   -8.7909    0.1883   -0.0696 H   0  0  0  0  0  0  0  0  0  0  0  0
   -8.6367    2.4105    1.0614 H   0  0  0  0  0  0  0  0  0  0  0  0
   -6.4296    3.3774    1.6378 H   0  0  0  0  0  0  0  0  0  0  0  0
   -4.3298    2.1633    1.1080 H   0  0  0  0  0  0  0  0  0  0  0  0
   -2.7015    0.8345   -1.9516 H   0  0  0  0  0  0  0  0  0  0  0  0
   -2.6385   -0.9060   -2.1379 H   0  0  0  0  0  0  0  0  0  0  0  0
   -0.3843   -0.1110   -2.3737 H   0  0  0  0  0  0  0  0  0  0  0  0
   -0.4974    0.8926   -0.9187 H   0  0  0  0  0  0  0  0  0  0  0  0
    3.4789    1.1907   -2.2088 H   0  0  0  0  0  0  0  0  0  0  0  0
    5.8358    1.7260   -1.7792 H   0  0  0  0  0  0  0  0  0  0  0  0
  1  2  1  0
  2  3  1  0
  3  4  1  0
  4  5  2  0
  5  6  1  0
  6  7  2  0
  7  8  1  0
  8  9  1  0
  9 10  2  0
  9 11  1  0
 11 12  1  0
 12 13  1  0
 13 14  1  0
 14 15  1  0
 15 16  1  0
 16 17  2  0
 16 18  1  0
 18 19  1  0
 19 20  2  0
 20 21  1  0
 21 22  2  0
 22 23  1  0
 23 24  2  0
 14 25  1  0
 25 26  1  0
  7 27  1  0
 27 28  2  0
 28  4  1  0
 26 11  1  0
 24 15  1  0
 24 19  1  0
  1 29  1  0
  1 30  1  0
  1 31  1  0
  2 32  1  0
  2 33  1  0
  5 34  1  0
  6 35  1  0
  8 36  1  0
 12 37  1  0
 12 38  1  0
 13 39  1  0
 13 40  1  0
 14 41  1  0
 18 42  1  0
 20 43  1  0
 21 44  1  0
 22 45  1  0
 23 46  1  0
 25 47  1  0
 25 48  1  0
 26 49  1  0
 26 50  1  0
 27 51  1  0
 28 52  1  0
M  END
$$$$
