
     RDKit          3D

 61 64  0  0  0  0  0  0  0  0999 V2000
    6.9948   -2.8847   -2.5339 C   0  0  0  0  0  0  0  0  0  0  0  0
    6.6948   -1.5881   -1.8415 C   0  0  0  0  0  0  0  0  0  0  0  0
    6.3122   -0.4676   -2.5890 C   0  0  0  0  0  0  0  0  0  0  0  0
    6.0037    0.7368   -1.9522 C   0  0  0  0  0  0  0  0  0  0  0  0
    6.0687    0.8422   -0.5564 C   0  0  0  0  0  0  0  0  0  0  0  0
    5.7233    2.1429    0.1257 C   0  0  0  0  0  0  0  0  0  0  0  0
    4.2924    2.3596    0.2277 N   0  0  0  0  0  0  0  0  0  0  0  0
    3.4540    1.5918    1.1135 C   0  0  0  0  0  0  0  0  0  0  0  0
    2.1098    2.3000    1.0156 C   0  0  0  0  0  0  0  0  0  0  0  0
    0.9566    1.3761    1.3633 C   0  0  0  0  0  0  0  0  0  0  0  0
    1.1503    0.2888    1.8984 O   0  0  0  0  0  0  0  0  0  0  0  0
   -0.2776    1.9360    1.0835 N   0  0  0  0  0  0  0  0  0  0  0  0
   -1.5510    1.3844    1.3410 C   0  0  0  0  0  0  0  0  0  0  0  0
   -1.7614    0.1866    2.0324 C   0  0  0  0  0  0  0  0  0  0  0  0
   -3.0595   -0.2898    2.2541 C   0  0  0  0  0  0  0  0  0  0  0  0
   -4.1533    0.4201    1.7536 C   0  0  0  0  0  0  0  0  0  0  0  0
   -5.8102   -0.1674    2.0450 S   0  0  0  0  0  6  0  0  0  0  0  0
   -5.7790   -0.9902    3.2357 O   0  0  0  0  0  0  0  0  0  0  0  0
   -6.6896    0.9773    1.9475 O   0  0  0  0  0  0  0  0  0  0  0  0
   -6.1010   -1.1738    0.7092 N   0  0  0  0  0  0  0  0  0  0  0  0
   -5.4939   -2.5265    0.7340 C   0  0  0  0  0  0  0  0  0  0  0  0
   -5.2011   -3.0543   -0.6660 C   0  0  0  0  0  0  0  0  0  0  0  0
   -6.4021   -2.8904   -1.5878 C   0  0  0  0  0  0  0  0  0  0  0  0
   -6.9668   -1.4689   -1.5653 C   0  0  0  0  0  0  0  0  0  0  0  0
   -6.2198   -0.5371   -0.6152 C   0  0  0  0  0  0  0  0  0  0  0  0
   -3.9604    1.6299    1.0822 C   0  0  0  0  0  0  0  0  0  0  0  0
   -2.6621    2.1067    0.8792 C   0  0  0  0  0  0  0  0  0  0  0  0
    2.0917    2.8187   -0.4223 C   0  0  0  0  0  0  0  0  0  0  0  0
    3.5510    3.0083   -0.7453 C   0  0  0  0  0  0  0  0  0  0  0  0
    3.9775    3.6174   -1.7139 O   0  0  0  0  0  0  0  0  0  0  0  0
    6.4374   -0.2850    0.1907 C   0  0  0  0  0  0  0  0  0  0  0  0
    6.7490   -1.4897   -0.4473 C   0  0  0  0  0  0  0  0  0  0  0  0
    7.6652   -2.7193   -3.3833 H   0  0  0  0  0  0  0  0  0  0  0  0
    6.0642   -3.3379   -2.8932 H   0  0  0  0  0  0  0  0  0  0  0  0
    7.4861   -3.5954   -1.8599 H   0  0  0  0  0  0  0  0  0  0  0  0
    6.2491   -0.5275   -3.6732 H   0  0  0  0  0  0  0  0  0  0  0  0
    5.7078    1.5975   -2.5518 H   0  0  0  0  0  0  0  0  0  0  0  0
    6.1721    2.9698   -0.4364 H   0  0  0  0  0  0  0  0  0  0  0  0
    6.1445    2.1806    1.1362 H   0  0  0  0  0  0  0  0  0  0  0  0
    3.8601    1.6184    2.1285 H   0  0  0  0  0  0  0  0  0  0  0  0
    3.4188    0.5581    0.7567 H   0  0  0  0  0  0  0  0  0  0  0  0
    2.0922    3.1485    1.7144 H   0  0  0  0  0  0  0  0  0  0  0  0
   -0.2846    2.8492    0.6413 H   0  0  0  0  0  0  0  0  0  0  0  0
   -0.9375   -0.3982    2.4319 H   0  0  0  0  0  0  0  0  0  0  0  0
   -3.1998   -1.2108    2.8167 H   0  0  0  0  0  0  0  0  0  0  0  0
   -6.2001   -3.1977    1.2354 H   0  0  0  0  0  0  0  0  0  0  0  0
   -4.5643   -2.5384    1.3102 H   0  0  0  0  0  0  0  0  0  0  0  0
   -4.3411   -2.5208   -1.0895 H   0  0  0  0  0  0  0  0  0  0  0  0
   -4.9140   -4.1104   -0.6101 H   0  0  0  0  0  0  0  0  0  0  0  0
   -6.1258   -3.1680   -2.6124 H   0  0  0  0  0  0  0  0  0  0  0  0
   -7.1903   -3.5913   -1.2838 H   0  0  0  0  0  0  0  0  0  0  0  0
   -8.0233   -1.5161   -1.2753 H   0  0  0  0  0  0  0  0  0  0  0  0
   -6.9477   -1.0470   -2.5761 H   0  0  0  0  0  0  0  0  0  0  0  0
   -6.7816    0.3995   -0.5467 H   0  0  0  0  0  0  0  0  0  0  0  0
   -5.2267   -0.3019   -1.0104 H   0  0  0  0  0  0  0  0  0  0  0  0
   -4.8074    2.2093    0.7216 H   0  0  0  0  0  0  0  0  0  0  0  0
   -2.5377    3.0499    0.3514 H   0  0  0  0  0  0  0  0  0  0  0  0
    1.5663    3.7743   -0.4950 H   0  0  0  0  0  0  0  0  0  0  0  0
    1.6576    2.1023   -1.1250 H   0  0  0  0  0  0  0  0  0  0  0  0
    6.4833   -0.2350    1.2755 H   0  0  0  0  0  0  0  0  0  0  0  0
    7.0358   -2.3516    0.1547 H   0  0  0  0  0  0  0  0  0  0  0  0
  1  2  1  0
  2  3  2  0
  3  4  1  0
  4  5  2  0
  5  6  1  0
  6  7  1  0
  7  8  1  0
  8  9  1  0
  9 10  1  0
 10 11  2  0
 10 12  1  0
 12 13  1  0
 13 14  2  0
 14 15  1  0
 15 16  2  0
 16 17  1  0
 17 18  2  0
 17 19  2  0
 17 20  1  0
 20 21  1  0
 21 22  1  0
 22 23  1  0
 23 24  1  0
 24 25  1  0
 16 26  1  0
 26 27  2  0
  9 28  1  0
 28 29  1  0
 29 30  2  0
  5 31  1  0
 31 32  2  0
 32  2  1  0
 29  7  1  0
 27 13  1  0
 25 20  1  0
  1 33  1  0
  1 34  1  0
  1 35  1  0
  3 36  1  0
  4 37  1  0
  6 38  1  0
  6 39  1  0
  8 40  1  0
  8 41  1  0
  9 42  1  0
 12 43  1  0
 14 44  1  0
 15 45  1  0
 21 46  1  0
 21 47  1  0
 22 48  1  0
 22 49  1  0
 23 50  1  0
 23 51  1  0
 24 52  1  0
 24 53  1  0
 25 54  1  0
 25 55  1  0
 26 56  1  0
 27 57  1  0
 28 58  1  0
 28 59  1  0
 31 60  1  0
 32 61  1  0
M  END
$$$$
