
     RDKit          3D

 40 41  0  0  0  0  0  0  0  0999 V2000
    4.9439    1.5112   -1.5940 C   0  0  0  0  0  0  0  0  0  0  0  0
    4.4951    1.6249   -0.1492 C   0  0  0  0  0  0  0  0  0  0  0  0
    3.1046    1.2947   -0.0364 O   0  0  0  0  0  0  0  0  0  0  0  0
    2.8114   -0.0304    0.1181 C   0  0  0  0  0  0  0  0  0  0  0  0
    3.6650   -0.9098    0.1715 O   0  0  0  0  0  0  0  0  0  0  0  0
    1.3741   -0.2970    0.2348 C   0  0  0  0  0  0  0  0  0  0  0  0
    0.3205    0.5959    0.0319 C   0  0  0  0  0  0  0  0  0  0  0  0
    0.3474    2.0250   -0.4042 C   0  0  0  0  0  0  0  0  0  0  0  0
   -0.8584   -0.0735    0.3099 N   0  0  0  0  0  0  0  0  0  0  0  0
   -2.1910    0.5283    0.3397 C   0  0  0  0  0  0  0  0  0  0  0  0
   -2.6863    0.5626   -0.9958 O   0  0  0  0  0  0  0  0  0  0  0  0
   -4.1006    0.7501   -1.0729 C   0  0  0  0  0  0  0  0  0  0  0  0
   -4.5535    2.1112   -0.5428 C   0  0  0  0  0  0  0  0  0  0  0  0
   -4.5985    2.1055    0.8844 O   0  0  0  0  0  0  0  0  0  0  0  0
   -0.6020   -1.4022    0.5930 C   0  0  0  0  0  0  0  0  0  0  0  0
   -1.4722   -2.4720    0.8743 C   0  0  0  0  0  0  0  0  0  0  0  0
   -0.9182   -3.7248    1.1471 C   0  0  0  0  0  0  0  0  0  0  0  0
    0.4550   -3.9014    1.1373 C   0  0  0  0  0  0  0  0  0  0  0  0
    0.9369   -5.1490    1.4123 O   0  0  0  0  0  0  0  0  0  0  0  0
    1.3194   -2.8443    0.8530 C   0  0  0  0  0  0  0  0  0  0  0  0
    0.7848   -1.5652    0.5681 C   0  0  0  0  0  0  0  0  0  0  0  0
    4.8446    0.4834   -1.9570 H   0  0  0  0  0  0  0  0  0  0  0  0
    5.9876    1.8200   -1.7013 H   0  0  0  0  0  0  0  0  0  0  0  0
    4.3213    2.1386   -2.2402 H   0  0  0  0  0  0  0  0  0  0  0  0
    4.6054    2.6606    0.1885 H   0  0  0  0  0  0  0  0  0  0  0  0
    5.1096    1.0051    0.5136 H   0  0  0  0  0  0  0  0  0  0  0  0
   -0.6215    2.3754   -0.7699 H   0  0  0  0  0  0  0  0  0  0  0  0
    0.6501    2.6675    0.4285 H   0  0  0  0  0  0  0  0  0  0  0  0
    1.0529    2.1631   -1.2297 H   0  0  0  0  0  0  0  0  0  0  0  0
   -2.8290   -0.0715    0.9962 H   0  0  0  0  0  0  0  0  0  0  0  0
   -2.0942    1.5364    0.7536 H   0  0  0  0  0  0  0  0  0  0  0  0
   -4.3589    0.6803   -2.1343 H   0  0  0  0  0  0  0  0  0  0  0  0
   -4.6014   -0.0714   -0.5481 H   0  0  0  0  0  0  0  0  0  0  0  0
   -3.8590    2.8988   -0.8500 H   0  0  0  0  0  0  0  0  0  0  0  0
   -5.5551    2.3573   -0.9088 H   0  0  0  0  0  0  0  0  0  0  0  0
   -5.4128    1.6417    1.1489 H   0  0  0  0  0  0  0  0  0  0  0  0
   -2.5497   -2.3467    0.8754 H   0  0  0  0  0  0  0  0  0  0  0  0
   -1.5679   -4.5679    1.3660 H   0  0  0  0  0  0  0  0  0  0  0  0
    1.9061   -5.1195    1.3472 H   0  0  0  0  0  0  0  0  0  0  0  0
    2.3946   -2.9911    0.8414 H   0  0  0  0  0  0  0  0  0  0  0  0
  1  2  1  0
  2  3  1  0
  3  4  1  0
  4  5  2  0
  4  6  1  0
  6  7  2  0
  7  8  1  0
  7  9  1  0
  9 10  1  0
 10 11  1  0
 11 12  1  0
 12 13  1  0
 13 14  1  0
  9 15  1  0
 15 16  2  0
 16 17  1  0
 17 18  2  0
 18 19  1  0
 18 20  1  0
 20 21  2  0
 21  6  1  0
 21 15  1  0
  1 22  1  0
  1 23  1  0
  1 24  1  0
  2 25  1  0
  2 26  1  0
  8 27  1  0
  8 28  1  0
  8 29  1  0
 10 30  1  0
 10 31  1  0
 12 32  1  0
 12 33  1  0
 13 34  1  0
 13 35  1  0
 14 36  1  0
 16 37  1  0
 17 38  1  0
 19 39  1  0
 20 40  1  0
M  END
$$$$
