
     RDKit          3D

 35 36  0  0  0  0  0  0  0  0999 V2000
   -5.8630   -0.0526   -0.4292 C   0  0  0  0  0  0  0  0  0  0  0  0
   -4.3851   -0.0761   -0.1756 C   0  0  0  0  0  0  0  0  0  0  0  0
   -3.8658   -0.7593    0.9274 C   0  0  0  0  0  0  0  0  0  0  0  0
   -2.4855   -0.8093    1.1445 C   0  0  0  0  0  0  0  0  0  0  0  0
   -1.5977   -0.1702    0.2637 C   0  0  0  0  0  0  0  0  0  0  0  0
   -0.1928   -0.2501    0.5156 N   0  0  0  0  0  0  0  0  0  0  0  0
    0.2634   -1.1948    1.3817 N   0  0  0  0  0  0  0  0  0  0  0  0
    1.5860   -1.1970    1.2268 C   0  0  0  0  0  0  0  0  0  0  0  0
    2.4093   -2.1962    1.9530 C   0  0  0  0  0  0  0  0  0  0  0  0
    2.0182   -0.1747    0.3453 C   0  0  0  0  0  0  0  0  0  0  0  0
    3.3420    0.0721    0.0143 N   0  0  0  0  0  0  0  0  0  0  0  0
    3.8179    0.8007   -1.0588 C   0  0  0  0  0  0  0  0  0  0  0  0
    3.1377    1.3473   -1.9239 O   0  0  0  0  0  0  0  0  0  0  0  0
    5.3318    0.9441   -1.0899 C   0  0  0  0  0  0  0  0  0  0  0  0
    6.1521   -0.4642   -0.3723 Cl  0  0  0  0  0  0  0  0  0  0  0  0
    0.8630    0.5127    0.0151 C   0  0  0  0  0  0  0  0  0  0  0  0
    0.6849    1.8452   -0.6226 C   0  0  0  0  0  0  0  0  0  0  0  0
   -2.1173    0.4786   -0.8614 C   0  0  0  0  0  0  0  0  0  0  0  0
   -3.5002    0.5251   -1.0765 C   0  0  0  0  0  0  0  0  0  0  0  0
   -6.1524   -0.9158   -1.0364 H   0  0  0  0  0  0  0  0  0  0  0  0
   -6.4213   -0.0787    0.5125 H   0  0  0  0  0  0  0  0  0  0  0  0
   -6.1545    0.8633   -0.9538 H   0  0  0  0  0  0  0  0  0  0  0  0
   -4.5299   -1.2609    1.6278 H   0  0  0  0  0  0  0  0  0  0  0  0
   -2.1162   -1.3461    2.0169 H   0  0  0  0  0  0  0  0  0  0  0  0
    1.7892   -2.8846    2.5365 H   0  0  0  0  0  0  0  0  0  0  0  0
    2.9987   -2.7900    1.2469 H   0  0  0  0  0  0  0  0  0  0  0  0
    3.0968   -1.6944    2.6414 H   0  0  0  0  0  0  0  0  0  0  0  0
    4.0299   -0.5060    0.4880 H   0  0  0  0  0  0  0  0  0  0  0  0
    5.6670    1.0270   -2.1271 H   0  0  0  0  0  0  0  0  0  0  0  0
    5.6213    1.8386   -0.5323 H   0  0  0  0  0  0  0  0  0  0  0  0
    0.6057    1.7570   -1.7097 H   0  0  0  0  0  0  0  0  0  0  0  0
    1.5282    2.5026   -0.3863 H   0  0  0  0  0  0  0  0  0  0  0  0
   -0.2005    2.3632   -0.2408 H   0  0  0  0  0  0  0  0  0  0  0  0
   -1.4799    0.9174   -1.6206 H   0  0  0  0  0  0  0  0  0  0  0  0
   -3.8809    1.0261   -1.9644 H   0  0  0  0  0  0  0  0  0  0  0  0
  1  2  1  0
  2  3  2  0
  3  4  1  0
  4  5  2  0
  5  6  1  0
  6  7  1  0
  7  8  2  0
  8  9  1  0
  8 10  1  0
 10 11  1  0
 11 12  1  0
 12 13  2  0
 12 14  1  0
 14 15  1  0
 10 16  2  0
 16 17  1  0
  5 18  1  0
 18 19  2  0
 19  2  1  0
 16  6  1  0
  1 20  1  0
  1 21  1  0
  1 22  1  0
  3 23  1  0
  4 24  1  0
  9 25  1  0
  9 26  1  0
  9 27  1  0
 11 28  1  0
 14 29  1  0
 14 30  1  0
 17 31  1  0
 17 32  1  0
 17 33  1  0
 18 34  1  0
 19 35  1  0
M  END
$$$$
