
     RDKit          3D

 62 64  0  0  0  0  0  0  0  0999 V2000
    8.1729    4.7819    0.2930 C   0  0  0  0  0  0  0  0  0  0  0  0
    7.6085    4.1583    1.4423 O   0  0  0  0  0  0  0  0  0  0  0  0
    6.3239    3.7039    1.3291 C   0  0  0  0  0  0  0  0  0  0  0  0
    5.8102    3.1138    2.4864 C   0  0  0  0  0  0  0  0  0  0  0  0
    4.5085    2.6074    2.5110 C   0  0  0  0  0  0  0  0  0  0  0  0
    3.6963    2.6897    1.3745 C   0  0  0  0  0  0  0  0  0  0  0  0
    2.2925    2.1371    1.3940 C   0  0  0  0  0  0  0  0  0  0  0  0
    2.2127    0.7759    0.7052 C   0  0  0  0  0  0  0  0  0  0  0  0
    0.8055    0.2066    0.7382 C   0  0  0  0  0  0  0  0  0  0  0  0
   -0.1305    0.7983    1.2635 O   0  0  0  0  0  0  0  0  0  0  0  0
    0.7421   -1.0129    0.0998 N   0  0  0  0  0  0  0  0  0  0  0  0
   -0.3663   -1.8694   -0.0565 C   0  0  0  0  0  0  0  0  0  0  0  0
   -1.6135   -1.6489    0.5238 C   0  0  0  0  0  0  0  0  0  0  0  0
   -2.6423   -2.5701    0.3012 C   0  0  0  0  0  0  0  0  0  0  0  0
   -4.2260   -2.2872    1.0523 S   0  0  0  0  0  6  0  0  0  0  0  0
   -4.0147   -2.2814    2.4831 O   0  0  0  0  0  0  0  0  0  0  0  0
   -5.1839   -3.1841    0.4393 O   0  0  0  0  0  0  0  0  0  0  0  0
   -4.6261   -0.7088    0.5455 N   0  0  0  0  0  0  0  0  0  0  0  0
   -4.7761   -0.5170   -0.9217 C   0  0  0  0  0  0  0  0  0  0  0  0
   -5.2189    0.9110   -1.2199 C   0  0  0  0  0  0  0  0  0  0  0  0
   -6.5845    1.2185   -0.6068 C   0  0  0  0  0  0  0  0  0  0  0  0
   -6.9078    0.3097    0.5763 C   0  0  0  0  0  0  0  0  0  0  0  0
   -5.6583   -0.0295    1.3795 C   0  0  0  0  0  0  0  0  0  0  0  0
   -2.4417   -3.7038   -0.4899 C   0  0  0  0  0  0  0  0  0  0  0  0
   -1.1896   -3.9280   -1.0639 C   0  0  0  0  0  0  0  0  0  0  0  0
   -0.1392   -3.0208   -0.8545 C   0  0  0  0  0  0  0  0  0  0  0  0
    1.1623   -3.2074   -1.4119 N   0  0  0  0  0  0  0  0  0  0  0  0
    1.1314   -3.1463   -2.8785 C   0  0  0  0  0  0  0  0  0  0  0  0
    1.7979   -4.4212   -0.8856 C   0  0  0  0  0  0  0  0  0  0  0  0
    4.2160    3.2766    0.2140 C   0  0  0  0  0  0  0  0  0  0  0  0
    5.5220    3.7802    0.1900 C   0  0  0  0  0  0  0  0  0  0  0  0
    9.1849    5.1074    0.5549 H   0  0  0  0  0  0  0  0  0  0  0  0
    7.6017    5.6716    0.0006 H   0  0  0  0  0  0  0  0  0  0  0  0
    8.2567    4.0722   -0.5357 H   0  0  0  0  0  0  0  0  0  0  0  0
    6.4283    3.0502    3.3791 H   0  0  0  0  0  0  0  0  0  0  0  0
    4.1353    2.1547    3.4276 H   0  0  0  0  0  0  0  0  0  0  0  0
    1.6190    2.8552    0.9089 H   0  0  0  0  0  0  0  0  0  0  0  0
    1.9417    2.0553    2.4310 H   0  0  0  0  0  0  0  0  0  0  0  0
    2.5194    0.8661   -0.3443 H   0  0  0  0  0  0  0  0  0  0  0  0
    2.8865    0.0612    1.1929 H   0  0  0  0  0  0  0  0  0  0  0  0
    1.5712   -1.3735   -0.3699 H   0  0  0  0  0  0  0  0  0  0  0  0
   -1.8047   -0.7854    1.1535 H   0  0  0  0  0  0  0  0  0  0  0  0
   -3.8127   -0.6889   -1.4117 H   0  0  0  0  0  0  0  0  0  0  0  0
   -5.5014   -1.2279   -1.3333 H   0  0  0  0  0  0  0  0  0  0  0  0
   -4.4775    1.6121   -0.8146 H   0  0  0  0  0  0  0  0  0  0  0  0
   -5.2523    1.0813   -2.3024 H   0  0  0  0  0  0  0  0  0  0  0  0
   -6.6011    2.2680   -0.2902 H   0  0  0  0  0  0  0  0  0  0  0  0
   -7.3709    1.1135   -1.3631 H   0  0  0  0  0  0  0  0  0  0  0  0
   -7.3656   -0.6189    0.2090 H   0  0  0  0  0  0  0  0  0  0  0  0
   -7.6529    0.7932    1.2188 H   0  0  0  0  0  0  0  0  0  0  0  0
   -5.9485   -0.6457    2.2377 H   0  0  0  0  0  0  0  0  0  0  0  0
   -5.2086    0.8840    1.7875 H   0  0  0  0  0  0  0  0  0  0  0  0
   -3.2461   -4.4181   -0.6519 H   0  0  0  0  0  0  0  0  0  0  0  0
   -1.0401   -4.8175   -1.6684 H   0  0  0  0  0  0  0  0  0  0  0  0
    0.6949   -2.2021   -3.2220 H   0  0  0  0  0  0  0  0  0  0  0  0
    2.1540   -3.1888   -3.2675 H   0  0  0  0  0  0  0  0  0  0  0  0
    0.5705   -3.9788   -3.3205 H   0  0  0  0  0  0  0  0  0  0  0  0
    2.8465   -4.4469   -1.2009 H   0  0  0  0  0  0  0  0  0  0  0  0
    1.7894   -4.4274    0.2108 H   0  0  0  0  0  0  0  0  0  0  0  0
    1.3155   -5.3348   -1.2499 H   0  0  0  0  0  0  0  0  0  0  0  0
    3.6042    3.3511   -0.6819 H   0  0  0  0  0  0  0  0  0  0  0  0
    5.8799    4.2251   -0.7334 H   0  0  0  0  0  0  0  0  0  0  0  0
  1  2  1  0
  2  3  1  0
  3  4  2  0
  4  5  1  0
  5  6  2  0
  6  7  1  0
  7  8  1  0
  8  9  1  0
  9 10  2  0
  9 11  1  0
 11 12  1  0
 12 13  2  0
 13 14  1  0
 14 15  1  0
 15 16  2  0
 15 17  2  0
 15 18  1  0
 18 19  1  0
 19 20  1  0
 20 21  1  0
 21 22  1  0
 22 23  1  0
 14 24  2  0
 24 25  1  0
 25 26  2  0
 26 27  1  0
 27 28  1  0
 27 29  1  0
  6 30  1  0
 30 31  2  0
 31  3  1  0
 26 12  1  0
 23 18  1  0
  1 32  1  0
  1 33  1  0
  1 34  1  0
  4 35  1  0
  5 36  1  0
  7 37  1  0
  7 38  1  0
  8 39  1  0
  8 40  1  0
 11 41  1  0
 13 42  1  0
 19 43  1  0
 19 44  1  0
 20 45  1  0
 20 46  1  0
 21 47  1  0
 21 48  1  0
 22 49  1  0
 22 50  1  0
 23 51  1  0
 23 52  1  0
 24 53  1  0
 25 54  1  0
 28 55  1  0
 28 56  1  0
 28 57  1  0
 29 58  1  0
 29 59  1  0
 29 60  1  0
 30 61  1  0
 31 62  1  0
M  END
$$$$
