
     RDKit          3D

 70 75  0  0  0  0  0  0  0  0999 V2000
   -2.7643   -2.9759   -5.6981 C   0  0  0  0  0  0  0  0  0  0  0  0
   -2.2527   -1.9512   -4.7305 C   0  0  0  0  0  0  0  0  0  0  0  0
   -3.0195   -0.8309   -4.3946 C   0  0  0  0  0  0  0  0  0  0  0  0
   -2.5330    0.1128   -3.4858 C   0  0  0  0  0  0  0  0  0  0  0  0
   -1.2685   -0.0416   -2.9005 C   0  0  0  0  0  0  0  0  0  0  0  0
   -0.7469    0.9775   -1.9070 C   0  0  0  0  0  0  0  0  0  0  0  0
   -1.1856    0.7073   -0.5383 N   0  0  0  0  0  0  0  0  0  0  0  0
   -2.4319    1.2252   -0.1504 C   0  0  0  0  0  0  0  0  0  0  0  0
   -3.0351    2.0762   -0.8081 O   0  0  0  0  0  0  0  0  0  0  0  0
   -2.9545    0.7329    1.2185 C   0  0  0  0  0  0  0  0  0  0  0  0
   -4.4587    1.0310    1.3498 C   0  0  0  0  0  0  0  0  0  0  0  0
   -5.0015    0.7543    2.7352 C   0  0  0  0  0  0  0  0  0  0  0  0
   -4.8403    1.6938    3.7630 C   0  0  0  0  0  0  0  0  0  0  0  0
   -5.3294    1.4311    5.0437 C   0  0  0  0  0  0  0  0  0  0  0  0
   -5.9816    0.2284    5.3086 C   0  0  0  0  0  0  0  0  0  0  0  0
   -6.1456   -0.7135    4.2938 C   0  0  0  0  0  0  0  0  0  0  0  0
   -5.6588   -0.4518    3.0125 C   0  0  0  0  0  0  0  0  0  0  0  0
   -2.7074   -0.7049    1.3580 N   0  0  0  0  0  0  0  0  0  0  0  0
   -1.3569   -1.0233    1.1813 C   0  0  0  0  0  0  0  0  0  0  0  0
   -0.9151   -2.0441    1.9269 N   0  0  0  0  0  0  0  0  0  0  0  0
    0.3534   -2.3981    1.7240 C   0  0  0  0  0  0  0  0  0  0  0  0
    1.2208   -1.7901    0.9070 N   0  0  0  0  0  0  0  0  0  0  0  0
    0.7777   -0.7307    0.1967 C   0  0  0  0  0  0  0  0  0  0  0  0
    1.7490    0.0162   -0.4966 N   0  0  0  0  0  0  0  0  0  0  0  0
    2.9714   -0.7440   -0.8620 C   0  0  0  0  0  0  0  0  0  0  0  0
    4.0720    0.2136   -1.3629 C   0  0  0  0  0  0  0  0  0  0  0  0
    4.4952    1.1596   -0.3020 N   0  0  0  0  0  0  0  0  0  0  0  0
    5.7641    0.9975    0.2767 C   0  0  0  0  0  0  0  0  0  0  0  0
    6.4135   -0.2387    0.3940 C   0  0  0  0  0  0  0  0  0  0  0  0
    7.6733   -0.3418    0.9951 C   0  0  0  0  0  0  0  0  0  0  0  0
    8.3070    0.7934    1.4921 C   0  0  0  0  0  0  0  0  0  0  0  0
    7.6796    2.0308    1.3925 C   0  0  0  0  0  0  0  0  0  0  0  0
    6.4205    2.1269    0.7931 C   0  0  0  0  0  0  0  0  0  0  0  0
    3.4556    1.4284    0.7294 C   0  0  0  0  0  0  0  0  0  0  0  0
    2.0277    1.3344    0.1445 C   0  0  0  0  0  0  0  0  0  0  0  0
   -0.5696   -0.3342    0.2486 C   0  0  0  0  0  0  0  0  0  0  0  0
   -0.5054   -1.1665   -3.2381 C   0  0  0  0  0  0  0  0  0  0  0  0
   -0.9920   -2.1105   -4.1456 C   0  0  0  0  0  0  0  0  0  0  0  0
   -2.8380   -3.9521   -5.2090 H   0  0  0  0  0  0  0  0  0  0  0  0
   -3.7584   -2.7132   -6.0739 H   0  0  0  0  0  0  0  0  0  0  0  0
   -2.0902   -3.0537   -6.5571 H   0  0  0  0  0  0  0  0  0  0  0  0
   -4.0039   -0.6833   -4.8329 H   0  0  0  0  0  0  0  0  0  0  0  0
   -3.1522    0.9728   -3.2365 H   0  0  0  0  0  0  0  0  0  0  0  0
   -1.1099    1.9695   -2.2089 H   0  0  0  0  0  0  0  0  0  0  0  0
    0.3348    1.0607   -1.9973 H   0  0  0  0  0  0  0  0  0  0  0  0
   -2.4045    1.2843    1.9944 H   0  0  0  0  0  0  0  0  0  0  0  0
   -4.6633    2.0833    1.1129 H   0  0  0  0  0  0  0  0  0  0  0  0
   -5.0260    0.4498    0.6106 H   0  0  0  0  0  0  0  0  0  0  0  0
   -4.3378    2.6386    3.5723 H   0  0  0  0  0  0  0  0  0  0  0  0
   -5.2059    2.1675    5.8341 H   0  0  0  0  0  0  0  0  0  0  0  0
   -6.3642    0.0249    6.3056 H   0  0  0  0  0  0  0  0  0  0  0  0
   -6.6568   -1.6508    4.4981 H   0  0  0  0  0  0  0  0  0  0  0  0
   -5.7934   -1.1971    2.2303 H   0  0  0  0  0  0  0  0  0  0  0  0
   -3.0244   -1.1359    2.2233 H   0  0  0  0  0  0  0  0  0  0  0  0
    0.7201   -3.2523    2.2806 H   0  0  0  0  0  0  0  0  0  0  0  0
    2.7238   -1.4559   -1.6570 H   0  0  0  0  0  0  0  0  0  0  0  0
    3.3737   -1.3086   -0.0121 H   0  0  0  0  0  0  0  0  0  0  0  0
    4.9125   -0.3494   -1.7842 H   0  0  0  0  0  0  0  0  0  0  0  0
    3.6712    0.8119   -2.1912 H   0  0  0  0  0  0  0  0  0  0  0  0
    5.9441   -1.1522    0.0432 H   0  0  0  0  0  0  0  0  0  0  0  0
    8.1555   -1.3126    1.0761 H   0  0  0  0  0  0  0  0  0  0  0  0
    9.2864    0.7136    1.9557 H   0  0  0  0  0  0  0  0  0  0  0  0
    8.1676    2.9235    1.7737 H   0  0  0  0  0  0  0  0  0  0  0  0
    5.9525    3.1047    0.7071 H   0  0  0  0  0  0  0  0  0  0  0  0
    3.5959    2.4349    1.1421 H   0  0  0  0  0  0  0  0  0  0  0  0
    3.5452    0.7094    1.5554 H   0  0  0  0  0  0  0  0  0  0  0  0
    1.9188    2.1061   -0.6279 H   0  0  0  0  0  0  0  0  0  0  0  0
    1.3058    1.5759    0.9349 H   0  0  0  0  0  0  0  0  0  0  0  0
    0.4758   -1.3167   -2.7961 H   0  0  0  0  0  0  0  0  0  0  0  0
   -0.3816   -2.9768   -4.3901 H   0  0  0  0  0  0  0  0  0  0  0  0
  1  2  1  0
  2  3  2  0
  3  4  1  0
  4  5  2  0
  5  6  1  0
  6  7  1  0
  7  8  1  0
  8  9  2  0
  8 10  1  0
 10 11  1  0
 11 12  1  0
 12 13  2  0
 13 14  1  0
 14 15  2  0
 15 16  1  0
 16 17  2  0
 10 18  1  0
 18 19  1  0
 19 20  2  0
 20 21  1  0
 21 22  2  0
 22 23  1  0
 23 24  1  0
 24 25  1  0
 25 26  1  0
 26 27  1  0
 27 28  1  0
 28 29  2  0
 29 30  1  0
 30 31  2  0
 31 32  1  0
 32 33  2  0
 27 34  1  0
 34 35  1  0
 23 36  2  0
  5 37  1  0
 37 38  2  0
 38  2  1  0
 36  7  1  0
 17 12  1  0
 36 19  1  0
 35 24  1  0
 33 28  1  0
  1 39  1  0
  1 40  1  0
  1 41  1  0
  3 42  1  0
  4 43  1  0
  6 44  1  0
  6 45  1  0
 10 46  1  0
 11 47  1  0
 11 48  1  0
 13 49  1  0
 14 50  1  0
 15 51  1  0
 16 52  1  0
 17 53  1  0
 18 54  1  0
 21 55  1  0
 25 56  1  0
 25 57  1  0
 26 58  1  0
 26 59  1  0
 29 60  1  0
 30 61  1  0
 31 62  1  0
 32 63  1  0
 33 64  1  0
 34 65  1  0
 34 66  1  0
 35 67  1  0
 35 68  1  0
 37 69  1  0
 38 70  1  0
M  END
$$$$
