
     RDKit          3D

 69 71  0  0  0  0  0  0  0  0999 V2000
   -5.6351   -0.1672   -2.9474 C   0  0  0  0  0  0  0  0  0  0  0  0
   -4.5825   -0.9173   -2.1441 C   0  0  0  0  0  0  0  0  0  0  0  0
   -4.5632   -0.5194   -0.6646 C   0  0  0  0  0  0  0  0  0  0  0  0
   -4.1470    0.8699   -0.4495 N   0  0  0  0  0  0  0  0  0  0  0  0
   -5.1802    1.8345   -0.0621 C   0  0  0  0  0  0  0  0  0  0  0  0
   -5.3163    2.0187    1.4545 C   0  0  0  0  0  0  0  0  0  0  0  0
   -5.8370    0.7885    2.1790 C   0  0  0  0  0  0  0  0  0  0  0  0
   -2.7806    1.1600   -0.5245 C   0  0  0  0  0  0  0  0  0  0  0  0
   -1.9501    0.2724   -0.7484 O   0  0  0  0  0  0  0  0  0  0  0  0
   -2.3636    2.6355   -0.3948 C   0  0  0  0  0  0  0  0  0  0  0  0
   -0.9178    2.7561   -0.2153 N   0  0  0  0  0  0  0  0  0  0  0  0
   -0.4307    2.5915    1.0862 C   0  0  0  0  0  0  0  0  0  0  0  0
   -1.2074    2.4842    2.0416 O   0  0  0  0  0  0  0  0  0  0  0  0
    0.9593    2.5667    1.2598 N   0  0  0  0  0  0  0  0  0  0  0  0
    1.4628    2.3047    2.6063 C   0  0  0  0  0  0  0  0  0  0  0  0
    1.1826    0.8834    3.1245 C   0  0  0  0  0  0  0  0  0  0  0  0
    2.0404   -0.2346    2.5174 C   0  0  0  0  0  0  0  0  0  0  0  0
    1.7642   -0.5067    1.0357 C   0  0  0  0  0  0  0  0  0  0  0  0
    2.2248   -1.8919    0.5780 C   0  0  0  0  0  0  0  0  0  0  0  0
    3.7370   -2.0725    0.5232 C   0  0  0  0  0  0  0  0  0  0  0  0
    4.5176   -1.2139    0.9136 O   0  0  0  0  0  0  0  0  0  0  0  0
    4.0702   -3.3128   -0.0022 N   0  0  0  0  0  0  0  0  0  0  0  0
    5.3599   -3.8497   -0.1914 C   0  0  0  0  0  0  0  0  0  0  0  0
    6.5383   -3.2073    0.1923 C   0  0  0  0  0  0  0  0  0  0  0  0
    7.7804   -3.8104   -0.0351 C   0  0  0  0  0  0  0  0  0  0  0  0
    7.8560   -5.0566   -0.6562 C   0  0  0  0  0  0  0  0  0  0  0  0
    6.6861   -5.7093   -1.0324 C   0  0  0  0  0  0  0  0  0  0  0  0
    5.4447   -5.1101   -0.7974 C   0  0  0  0  0  0  0  0  0  0  0  0
    1.8874    2.9211    0.2717 C   0  0  0  0  0  0  0  0  0  0  0  0
    3.0797    3.1090    0.5078 O   0  0  0  0  0  0  0  0  0  0  0  0
    1.3054    3.0462   -1.0363 C   0  0  0  0  0  0  0  0  0  0  0  0
    2.2196    3.3204   -2.4401 S   0  0  0  0  0  0  0  0  0  0  0  0
    0.8152    3.2699   -3.4188 C   0  0  0  0  0  0  0  0  0  0  0  0
   -0.3268    3.0600   -2.6711 C   0  0  0  0  0  0  0  0  0  0  0  0
   -0.0378    2.9428   -1.2798 C   0  0  0  0  0  0  0  0  0  0  0  0
   -6.6313   -0.3129   -2.5194 H   0  0  0  0  0  0  0  0  0  0  0  0
   -5.6524   -0.5330   -3.9792 H   0  0  0  0  0  0  0  0  0  0  0  0
   -5.4243    0.9054   -2.9767 H   0  0  0  0  0  0  0  0  0  0  0  0
   -4.7911   -1.9920   -2.2131 H   0  0  0  0  0  0  0  0  0  0  0  0
   -3.6002   -0.7536   -2.6017 H   0  0  0  0  0  0  0  0  0  0  0  0
   -5.5530   -0.6789   -0.2211 H   0  0  0  0  0  0  0  0  0  0  0  0
   -3.8654   -1.1754   -0.1288 H   0  0  0  0  0  0  0  0  0  0  0  0
   -6.1367    1.5250   -0.4989 H   0  0  0  0  0  0  0  0  0  0  0  0
   -4.9360    2.8023   -0.5127 H   0  0  0  0  0  0  0  0  0  0  0  0
   -4.3570    2.3026    1.8988 H   0  0  0  0  0  0  0  0  0  0  0  0
   -6.0098    2.8474    1.6381 H   0  0  0  0  0  0  0  0  0  0  0  0
   -5.9929    1.0139    3.2388 H   0  0  0  0  0  0  0  0  0  0  0  0
   -6.7913    0.4579    1.7581 H   0  0  0  0  0  0  0  0  0  0  0  0
   -5.1238   -0.0383    2.1209 H   0  0  0  0  0  0  0  0  0  0  0  0
   -2.8596    3.0980    0.4616 H   0  0  0  0  0  0  0  0  0  0  0  0
   -2.6793    3.1764   -1.2918 H   0  0  0  0  0  0  0  0  0  0  0  0
    2.5367    2.5065    2.6771 H   0  0  0  0  0  0  0  0  0  0  0  0
    0.9672    3.0185    3.2774 H   0  0  0  0  0  0  0  0  0  0  0  0
    1.3779    0.8879    4.2046 H   0  0  0  0  0  0  0  0  0  0  0  0
    0.1253    0.6219    3.0114 H   0  0  0  0  0  0  0  0  0  0  0  0
    1.8392   -1.1480    3.0907 H   0  0  0  0  0  0  0  0  0  0  0  0
    3.0997    0.0005    2.6685 H   0  0  0  0  0  0  0  0  0  0  0  0
    0.6864   -0.4338    0.8477 H   0  0  0  0  0  0  0  0  0  0  0  0
    2.2581    0.2512    0.4220 H   0  0  0  0  0  0  0  0  0  0  0  0
    1.8052   -2.6644    1.2334 H   0  0  0  0  0  0  0  0  0  0  0  0
    1.8353   -2.0650   -0.4335 H   0  0  0  0  0  0  0  0  0  0  0  0
    3.3009   -3.8954   -0.3047 H   0  0  0  0  0  0  0  0  0  0  0  0
    6.5294   -2.2318    0.6682 H   0  0  0  0  0  0  0  0  0  0  0  0
    8.6897   -3.2966    0.2699 H   0  0  0  0  0  0  0  0  0  0  0  0
    8.8236   -5.5174   -0.8372 H   0  0  0  0  0  0  0  0  0  0  0  0
    6.7379   -6.6821   -1.5152 H   0  0  0  0  0  0  0  0  0  0  0  0
    4.5487   -5.6391   -1.1128 H   0  0  0  0  0  0  0  0  0  0  0  0
    0.8963    3.3937   -4.4908 H   0  0  0  0  0  0  0  0  0  0  0  0
   -1.3086    2.9931   -3.1216 H   0  0  0  0  0  0  0  0  0  0  0  0
  1  2  1  0
  2  3  1  0
  3  4  1  0
  4  5  1  0
  5  6  1  0
  6  7  1  0
  4  8  1  0
  8  9  2  0
  8 10  1  0
 10 11  1  0
 11 12  1  0
 12 13  2  0
 12 14  1  0
 14 15  1  0
 15 16  1  0
 16 17  1  0
 17 18  1  0
 18 19  1  0
 19 20  1  0
 20 21  2  0
 20 22  1  0
 22 23  1  0
 23 24  2  0
 24 25  1  0
 25 26  2  0
 26 27  1  0
 27 28  2  0
 14 29  1  0
 29 30  2  0
 29 31  1  0
 31 32  1  0
 32 33  1  0
 33 34  2  0
 34 35  1  0
 35 11  1  0
 28 23  1  0
 35 31  2  0
  1 36  1  0
  1 37  1  0
  1 38  1  0
  2 39  1  0
  2 40  1  0
  3 41  1  0
  3 42  1  0
  5 43  1  0
  5 44  1  0
  6 45  1  0
  6 46  1  0
  7 47  1  0
  7 48  1  0
  7 49  1  0
 10 50  1  0
 10 51  1  0
 15 52  1  0
 15 53  1  0
 16 54  1  0
 16 55  1  0
 17 56  1  0
 17 57  1  0
 18 58  1  0
 18 59  1  0
 19 60  1  0
 19 61  1  0
 22 62  1  0
 24 63  1  0
 25 64  1  0
 26 65  1  0
 27 66  1  0
 28 67  1  0
 33 68  1  0
 34 69  1  0
M  END
$$$$
