
     RDKit          3D

 39 41  0  0  0  0  0  0  0  0999 V2000
    3.7902   -2.4359   -0.3481 C   0  0  0  0  0  0  0  0  0  0  0  0
    4.1868   -1.0411   -0.0230 C   0  0  0  0  0  0  0  0  0  0  0  0
    5.4656   -0.7582    0.2642 N   0  0  0  0  0  0  0  0  0  0  0  0
    5.4661    0.5616    0.5003 N   0  0  0  0  0  0  0  0  0  0  0  0
    6.7041    1.2173    0.8447 C   0  0  0  0  0  0  0  0  0  0  0  0
    4.2364    1.1364    0.3775 C   0  0  0  0  0  0  0  0  0  0  0  0
    3.3662    0.1199    0.0350 C   0  0  0  0  0  0  0  0  0  0  0  0
    1.9518    0.2804   -0.1963 C   0  0  0  0  0  0  0  0  0  0  0  0
    1.2356   -0.7483   -0.5082 N   0  0  0  0  0  0  0  0  0  0  0  0
   -0.0952   -0.5127   -0.7112 N   0  0  0  0  0  0  0  0  0  0  0  0
   -0.9264   -1.5354   -1.1446 C   0  0  0  0  0  0  0  0  0  0  0  0
   -0.5569   -2.6781   -1.3971 O   0  0  0  0  0  0  0  0  0  0  0  0
   -2.3187   -1.1156   -1.3453 C   0  0  0  0  0  0  0  0  0  0  0  0
   -3.0671   -1.6316   -2.3914 C   0  0  0  0  0  0  0  0  0  0  0  0
   -4.6450   -0.9893   -2.4731 S   0  0  0  0  0  0  0  0  0  0  0  0
   -4.3904   -0.0570   -1.0762 C   0  0  0  0  0  0  0  0  0  0  0  0
   -3.1189   -0.2093   -0.5490 C   0  0  0  0  0  0  0  0  0  0  0  0
   -2.7188    0.4950    0.7191 C   0  0  0  0  0  0  0  0  0  0  0  0
   -3.9370    0.9919    1.5124 C   0  0  0  0  0  0  0  0  0  0  0  0
   -4.9412    1.7090    0.6012 C   0  0  0  0  0  0  0  0  0  0  0  0
   -5.4903    0.7711   -0.4827 C   0  0  0  0  0  0  0  0  0  0  0  0
    3.3618   -2.4884   -1.3539 H   0  0  0  0  0  0  0  0  0  0  0  0
    3.0489   -2.8011    0.3697 H   0  0  0  0  0  0  0  0  0  0  0  0
    4.6493   -3.1143   -0.3152 H   0  0  0  0  0  0  0  0  0  0  0  0
    7.4093    1.0767    0.0217 H   0  0  0  0  0  0  0  0  0  0  0  0
    6.5202    2.2831    1.0004 H   0  0  0  0  0  0  0  0  0  0  0  0
    7.0889    0.7669    1.7631 H   0  0  0  0  0  0  0  0  0  0  0  0
    4.0857    2.1943    0.5392 H   0  0  0  0  0  0  0  0  0  0  0  0
    1.5290    1.2952   -0.0944 H   0  0  0  0  0  0  0  0  0  0  0  0
   -0.4446    0.4363   -0.6931 H   0  0  0  0  0  0  0  0  0  0  0  0
   -2.7421   -2.3545   -3.1293 H   0  0  0  0  0  0  0  0  0  0  0  0
   -2.1235   -0.1705    1.3541 H   0  0  0  0  0  0  0  0  0  0  0  0
   -2.0927    1.3569    0.4587 H   0  0  0  0  0  0  0  0  0  0  0  0
   -3.6034    1.6685    2.3072 H   0  0  0  0  0  0  0  0  0  0  0  0
   -4.4330    0.1427    1.9996 H   0  0  0  0  0  0  0  0  0  0  0  0
   -4.4469    2.5675    0.1284 H   0  0  0  0  0  0  0  0  0  0  0  0
   -5.7715    2.1065    1.1957 H   0  0  0  0  0  0  0  0  0  0  0  0
   -5.9969    1.3627   -1.2537 H   0  0  0  0  0  0  0  0  0  0  0  0
   -6.2354    0.1013   -0.0356 H   0  0  0  0  0  0  0  0  0  0  0  0
  1  2  1  0
  2  3  2  0
  3  4  1  0
  4  5  1  0
  4  6  1  0
  6  7  2  0
  7  8  1  0
  8  9  2  3
  9 10  1  0
 10 11  1  0
 11 12  2  0
 11 13  1  0
 13 14  2  0
 14 15  1  0
 15 16  1  0
 16 17  2  0
 17 18  1  0
 18 19  1  0
 19 20  1  0
 20 21  1  0
  7  2  1  0
 17 13  1  0
 21 16  1  0
  1 22  1  0
  1 23  1  0
  1 24  1  0
  5 25  1  0
  5 26  1  0
  5 27  1  0
  6 28  1  0
  8 29  1  0
 10 30  1  0
 14 31  1  0
 18 32  1  0
 18 33  1  0
 19 34  1  0
 19 35  1  0
 20 36  1  0
 20 37  1  0
 21 38  1  0
 21 39  1  0
M  END
$$$$
