
     RDKit          3D

 46 49  0  0  0  0  0  0  0  0999 V2000
    5.8644   -1.8491    0.8143 C   0  0  0  0  0  0  0  0  0  0  0  0
    5.3435   -0.5817    0.2071 C   0  0  0  0  0  0  0  0  0  0  0  0
    3.8870   -0.3008    0.3975 C   0  0  0  0  0  0  0  0  0  0  0  0
    3.1120   -1.0763    1.0867 N   0  0  0  0  0  0  0  0  0  0  0  0
    1.7791   -0.7649    1.1759 N   0  0  0  0  0  0  0  0  0  0  0  0
    0.9942   -0.1330    0.2178 C   0  0  0  0  0  0  0  0  0  0  0  0
    1.3939    0.3954   -0.8160 O   0  0  0  0  0  0  0  0  0  0  0  0
   -0.4367   -0.1715    0.5674 C   0  0  0  0  0  0  0  0  0  0  0  0
   -1.5113    0.3865   -0.1711 C   0  0  0  0  0  0  0  0  0  0  0  0
   -2.6604    0.0898    0.5348 C   0  0  0  0  0  0  0  0  0  0  0  0
   -4.0639    0.4079    0.2810 C   0  0  0  0  0  0  0  0  0  0  0  0
   -4.4082    1.5998   -0.3651 C   0  0  0  0  0  0  0  0  0  0  0  0
   -5.7471    1.9204   -0.6082 C   0  0  0  0  0  0  0  0  0  0  0  0
   -6.7745    1.0519   -0.2148 C   0  0  0  0  0  0  0  0  0  0  0  0
   -8.1239    1.3594   -0.4522 C   0  0  0  0  0  0  0  0  0  0  0  0
   -9.1348    0.4813   -0.0590 C   0  0  0  0  0  0  0  0  0  0  0  0
   -8.8095   -0.7141    0.5745 C   0  0  0  0  0  0  0  0  0  0  0  0
   -7.4726   -1.0335    0.8177 C   0  0  0  0  0  0  0  0  0  0  0  0
   -6.4426   -0.1597    0.4309 C   0  0  0  0  0  0  0  0  0  0  0  0
   -5.0900   -0.4664    0.6696 C   0  0  0  0  0  0  0  0  0  0  0  0
   -2.2187   -0.5938    1.6381 N   0  0  0  0  0  0  0  0  0  0  0  0
   -0.8875   -0.7809    1.6827 N   0  0  0  0  0  0  0  0  0  0  0  0
    6.0097    0.3352   -0.5182 C   0  0  0  0  0  0  0  0  0  0  0  0
    7.4084    0.2961   -0.7828 C   0  0  0  0  0  0  0  0  0  0  0  0
    8.1129    0.9989   -1.7563 C   0  0  0  0  0  0  0  0  0  0  0  0
    9.4830    0.6679   -1.6346 C   0  0  0  0  0  0  0  0  0  0  0  0
    9.5601   -0.2123   -0.5874 C   0  0  0  0  0  0  0  0  0  0  0  0
    8.3302   -0.4360   -0.0677 O   0  0  0  0  0  0  0  0  0  0  0  0
    6.7770   -2.2083    0.3331 H   0  0  0  0  0  0  0  0  0  0  0  0
    5.1394   -2.6635    0.7077 H   0  0  0  0  0  0  0  0  0  0  0  0
    6.0642   -1.7045    1.8806 H   0  0  0  0  0  0  0  0  0  0  0  0
    3.5266    0.6358   -0.0593 H   0  0  0  0  0  0  0  0  0  0  0  0
    1.2542   -1.2896    1.8761 H   0  0  0  0  0  0  0  0  0  0  0  0
   -1.4385    0.9237   -1.1074 H   0  0  0  0  0  0  0  0  0  0  0  0
   -3.6389    2.3021   -0.6787 H   0  0  0  0  0  0  0  0  0  0  0  0
   -5.9798    2.8577   -1.1088 H   0  0  0  0  0  0  0  0  0  0  0  0
   -8.3977    2.2878   -0.9484 H   0  0  0  0  0  0  0  0  0  0  0  0
  -10.1754    0.7310   -0.2498 H   0  0  0  0  0  0  0  0  0  0  0  0
   -9.5960   -1.3998    0.8791 H   0  0  0  0  0  0  0  0  0  0  0  0
   -7.2411   -1.9740    1.3125 H   0  0  0  0  0  0  0  0  0  0  0  0
   -4.8462   -1.4132    1.1459 H   0  0  0  0  0  0  0  0  0  0  0  0
   -2.7781   -0.9497    2.4057 H   0  0  0  0  0  0  0  0  0  0  0  0
    5.4789    1.1860   -0.9393 H   0  0  0  0  0  0  0  0  0  0  0  0
    7.6744    1.6748   -2.4781 H   0  0  0  0  0  0  0  0  0  0  0  0
   10.3078    1.0283   -2.2324 H   0  0  0  0  0  0  0  0  0  0  0  0
   10.3725   -0.7414   -0.1094 H   0  0  0  0  0  0  0  0  0  0  0  0
  1  2  1  0
  2  3  1  0
  3  4  2  3
  4  5  1  0
  5  6  1  0
  6  7  2  0
  6  8  1  0
  8  9  1  0
  9 10  2  0
 10 11  1  0
 11 12  2  0
 12 13  1  0
 13 14  2  0
 14 15  1  0
 15 16  2  0
 16 17  1  0
 17 18  2  0
 18 19  1  0
 19 20  2  0
 10 21  1  0
 21 22  1  0
  2 23  2  3
 23 24  1  0
 24 25  2  0
 25 26  1  0
 26 27  2  0
 27 28  1  0
 22  8  2  0
 28 24  1  0
 20 11  1  0
 19 14  1  0
  1 29  1  0
  1 30  1  0
  1 31  1  0
  3 32  1  0
  5 33  1  0
  9 34  1  0
 12 35  1  0
 13 36  1  0
 15 37  1  0
 16 38  1  0
 17 39  1  0
 18 40  1  0
 20 41  1  0
 21 42  1  0
 23 43  1  0
 25 44  1  0
 26 45  1  0
 27 46  1  0
M  END
$$$$
