
     RDKit          3D

 55 59  0  0  0  0  0  0  0  0999 V2000
   -6.8660    0.1392    0.7243 C   0  0  0  0  0  0  0  0  0  0  0  0
   -5.4977    0.7434    0.6053 C   0  0  0  0  0  0  0  0  0  0  0  0
   -5.0475    1.6812    1.5420 C   0  0  0  0  0  0  0  0  0  0  0  0
   -3.7599    2.2138    1.4488 C   0  0  0  0  0  0  0  0  0  0  0  0
   -2.8922    1.8083    0.4249 C   0  0  0  0  0  0  0  0  0  0  0  0
   -1.4940    2.3600    0.3397 C   0  0  0  0  0  0  0  0  0  0  0  0
   -0.3775    1.7626    1.6486 S   0  0  0  0  0  0  0  0  0  0  0  0
   -0.4846    0.0376    1.3290 C   0  0  0  0  0  0  0  0  0  0  0  0
   -1.3229   -0.6499    2.0488 N   0  0  0  0  0  0  0  0  0  0  0  0
   -1.4897   -2.0303    1.7951 C   0  0  0  0  0  0  0  0  0  0  0  0
   -2.4086   -2.7523    2.5589 C   0  0  0  0  0  0  0  0  0  0  0  0
   -2.6079   -4.1154    2.3227 C   0  0  0  0  0  0  0  0  0  0  0  0
   -1.8888   -4.7661    1.3182 C   0  0  0  0  0  0  0  0  0  0  0  0
   -0.9681   -4.0558    0.5453 C   0  0  0  0  0  0  0  0  0  0  0  0
   -0.7694   -2.6952    0.7852 C   0  0  0  0  0  0  0  0  0  0  0  0
    0.1756   -1.8973    0.0278 C   0  0  0  0  0  0  0  0  0  0  0  0
    0.9654   -2.2567   -0.9612 N   0  0  0  0  0  0  0  0  0  0  0  0
    1.6844   -1.1305   -1.2862 C   0  0  0  0  0  0  0  0  0  0  0  0
    2.7067   -1.1679   -2.3687 C   0  0  0  0  0  0  0  0  0  0  0  0
    4.0934   -0.8270   -1.8566 C   0  0  0  0  0  0  0  0  0  0  0  0
    4.9490   -1.6796   -1.6261 O   0  0  0  0  0  0  0  0  0  0  0  0
    4.3266    0.5239   -1.6932 N   0  0  0  0  0  0  0  0  0  0  0  0
    5.5411    0.9589   -1.0456 C   0  0  0  0  0  0  0  0  0  0  0  0
    5.6170    2.4372   -1.1171 C   0  0  0  0  0  0  0  0  0  0  0  0
    6.3689    3.3107   -1.8714 C   0  0  0  0  0  0  0  0  0  0  0  0
    6.0013    4.6143   -1.4641 C   0  0  0  0  0  0  0  0  0  0  0  0
    5.0463    4.4558   -0.4882 C   0  0  0  0  0  0  0  0  0  0  0  0
    4.8008    3.1383   -0.2723 O   0  0  0  0  0  0  0  0  0  0  0  0
    1.2941   -0.0577   -0.5009 C   0  0  0  0  0  0  0  0  0  0  0  0
    1.7483    1.1946   -0.5022 O   0  0  0  0  0  0  0  0  0  0  0  0
    0.3072   -0.5599    0.3354 N   0  0  0  0  0  0  0  0  0  0  0  0
   -3.3431    0.8623   -0.5071 C   0  0  0  0  0  0  0  0  0  0  0  0
   -4.6320    0.3309   -0.4139 C   0  0  0  0  0  0  0  0  0  0  0  0
   -7.5408    0.7932    1.2878 H   0  0  0  0  0  0  0  0  0  0  0  0
   -6.8043   -0.8269    1.2359 H   0  0  0  0  0  0  0  0  0  0  0  0
   -7.3092   -0.0074   -0.2663 H   0  0  0  0  0  0  0  0  0  0  0  0
   -5.6959    2.0012    2.3551 H   0  0  0  0  0  0  0  0  0  0  0  0
   -3.4338    2.9397    2.1915 H   0  0  0  0  0  0  0  0  0  0  0  0
   -1.5374    3.4528    0.4027 H   0  0  0  0  0  0  0  0  0  0  0  0
   -1.0484    2.1309   -0.6352 H   0  0  0  0  0  0  0  0  0  0  0  0
   -2.9728   -2.2460    3.3385 H   0  0  0  0  0  0  0  0  0  0  0  0
   -3.3248   -4.6713    2.9251 H   0  0  0  0  0  0  0  0  0  0  0  0
   -2.0450   -5.8269    1.1367 H   0  0  0  0  0  0  0  0  0  0  0  0
   -0.4062   -4.5617   -0.2369 H   0  0  0  0  0  0  0  0  0  0  0  0
    2.7496   -2.1644   -2.8208 H   0  0  0  0  0  0  0  0  0  0  0  0
    2.4350   -0.4692   -3.1669 H   0  0  0  0  0  0  0  0  0  0  0  0
    3.5039    1.0999   -1.5251 H   0  0  0  0  0  0  0  0  0  0  0  0
    5.5199    0.6194   -0.0064 H   0  0  0  0  0  0  0  0  0  0  0  0
    6.4001    0.4974   -1.5454 H   0  0  0  0  0  0  0  0  0  0  0  0
    7.1030    3.0317   -2.6139 H   0  0  0  0  0  0  0  0  0  0  0  0
    6.3904    5.5527   -1.8290 H   0  0  0  0  0  0  0  0  0  0  0  0
    4.4763    5.1438    0.1210 H   0  0  0  0  0  0  0  0  0  0  0  0
    1.4139    1.6813    0.2762 H   0  0  0  0  0  0  0  0  0  0  0  0
   -2.6948    0.5207   -1.3104 H   0  0  0  0  0  0  0  0  0  0  0  0
   -4.9549   -0.4135   -1.1392 H   0  0  0  0  0  0  0  0  0  0  0  0
  1  2  1  0
  2  3  2  0
  3  4  1  0
  4  5  2  0
  5  6  1  0
  6  7  1  0
  7  8  1  0
  8  9  2  0
  9 10  1  0
 10 11  2  0
 11 12  1  0
 12 13  2  0
 13 14  1  0
 14 15  2  0
 15 16  1  0
 16 17  2  0
 17 18  1  0
 18 19  1  0
 19 20  1  0
 20 21  2  0
 20 22  1  0
 22 23  1  0
 23 24  1  0
 24 25  2  0
 25 26  1  0
 26 27  2  0
 27 28  1  0
 18 29  2  0
 29 30  1  0
 29 31  1  0
  5 32  1  0
 32 33  2  0
 33  2  1  0
 31  8  1  0
 15 10  1  0
 31 16  1  0
 28 24  1  0
  1 34  1  0
  1 35  1  0
  1 36  1  0
  3 37  1  0
  4 38  1  0
  6 39  1  0
  6 40  1  0
 11 41  1  0
 12 42  1  0
 13 43  1  0
 14 44  1  0
 19 45  1  0
 19 46  1  0
 22 47  1  0
 23 48  1  0
 23 49  1  0
 25 50  1  0
 26 51  1  0
 27 52  1  0
 30 53  1  0
 32 54  1  0
 33 55  1  0
M  END
$$$$
