
     RDKit          3D

 46 47  0  0  0  0  0  0  0  0999 V2000
    0.6107   -3.5295    0.4567 C   0  0  0  0  0  0  0  0  0  0  0  0
    1.5694   -2.7610   -0.4322 C   0  0  0  0  0  0  0  0  0  0  0  0
    1.4814   -1.3556   -0.1457 O   0  0  0  0  0  0  0  0  0  0  0  0
    2.3230   -0.8935    0.8232 C   0  0  0  0  0  0  0  0  0  0  0  0
    3.0548   -1.6141    1.4916 O   0  0  0  0  0  0  0  0  0  0  0  0
    2.1979    0.5482    1.0479 C   0  0  0  0  0  0  0  0  0  0  0  0
    2.5104    1.1773    2.2516 C   0  0  0  0  0  0  0  0  0  0  0  0
    3.0186    0.6155    3.5341 C   0  0  0  0  0  0  0  0  0  0  0  0
    2.2775    2.5212    2.1120 N   0  0  0  0  0  0  0  0  0  0  0  0
    1.8230    2.7956    0.8476 C   0  0  0  0  0  0  0  0  0  0  0  0
    1.5071    4.1896    0.4355 C   0  0  0  0  0  0  0  0  0  0  0  0
    1.7802    1.5926    0.1535 C   0  0  0  0  0  0  0  0  0  0  0  0
    1.3355    1.3663   -1.5162 S   0  0  0  0  0  6  0  0  0  0  0  0
    2.4261    0.5920   -2.0627 O   0  0  0  0  0  0  0  0  0  0  0  0
    0.9948    2.6789   -2.0158 O   0  0  0  0  0  0  0  0  0  0  0  0
   -0.0495    0.4192   -1.5553 N   0  0  0  0  0  0  0  0  0  0  0  0
   -1.2617    1.0239   -0.9977 C   0  0  0  0  0  0  0  0  0  0  0  0
   -2.3082   -0.0365   -0.7290 C   0  0  0  0  0  0  0  0  0  0  0  0
   -2.4422   -0.5362    0.5799 C   0  0  0  0  0  0  0  0  0  0  0  0
   -3.3687   -1.5358    0.8729 C   0  0  0  0  0  0  0  0  0  0  0  0
   -4.1685   -2.0566   -0.1381 C   0  0  0  0  0  0  0  0  0  0  0  0
   -4.0397   -1.5818   -1.4432 C   0  0  0  0  0  0  0  0  0  0  0  0
   -3.1108   -0.5764   -1.7562 C   0  0  0  0  0  0  0  0  0  0  0  0
   -2.9953   -0.1041   -3.1805 C   0  0  0  0  0  0  0  0  0  0  0  0
    0.8660   -3.4008    1.5132 H   0  0  0  0  0  0  0  0  0  0  0  0
   -0.4116   -3.1594    0.3286 H   0  0  0  0  0  0  0  0  0  0  0  0
    0.6310   -4.5966    0.2185 H   0  0  0  0  0  0  0  0  0  0  0  0
    2.5965   -3.1297   -0.3317 H   0  0  0  0  0  0  0  0  0  0  0  0
    1.2836   -2.8905   -1.4812 H   0  0  0  0  0  0  0  0  0  0  0  0
    2.3847   -0.2119    3.8685 H   0  0  0  0  0  0  0  0  0  0  0  0
    3.0283    1.3699    4.3277 H   0  0  0  0  0  0  0  0  0  0  0  0
    4.0406    0.2446    3.4080 H   0  0  0  0  0  0  0  0  0  0  0  0
    2.4335    3.2138    2.8350 H   0  0  0  0  0  0  0  0  0  0  0  0
    0.4656    4.2664    0.1082 H   0  0  0  0  0  0  0  0  0  0  0  0
    2.1614    4.5064   -0.3825 H   0  0  0  0  0  0  0  0  0  0  0  0
    1.6461    4.8935    1.2630 H   0  0  0  0  0  0  0  0  0  0  0  0
    0.1604   -0.5085   -1.1805 H   0  0  0  0  0  0  0  0  0  0  0  0
   -1.0389    1.5396   -0.0566 H   0  0  0  0  0  0  0  0  0  0  0  0
   -1.6556    1.7810   -1.6837 H   0  0  0  0  0  0  0  0  0  0  0  0
   -1.8202   -0.1475    1.3839 H   0  0  0  0  0  0  0  0  0  0  0  0
   -3.4648   -1.9092    1.8891 H   0  0  0  0  0  0  0  0  0  0  0  0
   -4.8921   -2.8361    0.0864 H   0  0  0  0  0  0  0  0  0  0  0  0
   -4.6711   -2.0072   -2.2208 H   0  0  0  0  0  0  0  0  0  0  0  0
   -1.9813   -0.2673   -3.5581 H   0  0  0  0  0  0  0  0  0  0  0  0
   -3.6802   -0.6479   -3.8399 H   0  0  0  0  0  0  0  0  0  0  0  0
   -3.2477    0.9586   -3.2506 H   0  0  0  0  0  0  0  0  0  0  0  0
  1  2  1  0
  2  3  1  0
  3  4  1  0
  4  5  2  0
  4  6  1  0
  6  7  2  0
  7  8  1  0
  7  9  1  0
  9 10  1  0
 10 11  1  0
 10 12  2  0
 12 13  1  0
 13 14  2  0
 13 15  2  0
 13 16  1  0
 16 17  1  0
 17 18  1  0
 18 19  2  0
 19 20  1  0
 20 21  2  0
 21 22  1  0
 22 23  2  0
 23 24  1  0
 12  6  1  0
 23 18  1  0
  1 25  1  0
  1 26  1  0
  1 27  1  0
  2 28  1  0
  2 29  1  0
  8 30  1  0
  8 31  1  0
  8 32  1  0
  9 33  1  0
 11 34  1  0
 11 35  1  0
 11 36  1  0
 16 37  1  0
 17 38  1  0
 17 39  1  0
 19 40  1  0
 20 41  1  0
 21 42  1  0
 22 43  1  0
 24 44  1  0
 24 45  1  0
 24 46  1  0
M  END
$$$$
