
     RDKit          3D

 53 56  0  0  0  0  0  0  0  0999 V2000
    4.0066   -0.5962    2.1867 C   0  0  0  0  0  0  0  0  0  0  0  0
    2.9207    0.0641    1.4405 N   0  0  0  0  0  0  0  0  0  0  0  0
    3.2890    1.0448    0.4810 C   0  0  0  0  0  0  0  0  0  0  0  0
    2.3240    1.5705   -0.4020 C   0  0  0  0  0  0  0  0  0  0  0  0
    2.6440    2.5447   -1.3554 C   0  0  0  0  0  0  0  0  0  0  0  0
    3.9419    3.0342   -1.4402 C   0  0  0  0  0  0  0  0  0  0  0  0
    4.9121    2.5551   -0.5672 C   0  0  0  0  0  0  0  0  0  0  0  0
    4.5869    1.5773    0.3839 C   0  0  0  0  0  0  0  0  0  0  0  0
    1.7983   -0.7949    1.3149 C   0  0  0  0  0  0  0  0  0  0  0  0
    1.6756   -1.6430    0.2032 C   0  0  0  0  0  0  0  0  0  0  0  0
    0.5502   -2.4610    0.0374 C   0  0  0  0  0  0  0  0  0  0  0  0
   -0.4866   -2.4517    0.9788 C   0  0  0  0  0  0  0  0  0  0  0  0
   -1.6975   -3.2640    0.7977 C   0  0  0  0  0  0  0  0  0  0  0  0
   -2.5845   -3.1588   -0.2140 C   0  0  0  0  0  0  0  0  0  0  0  0
   -3.7189   -4.0245   -0.2504 C   0  0  0  0  0  0  0  0  0  0  0  0
   -4.6549   -4.7104   -0.2284 N   0  0  0  0  0  0  0  0  0  0  0  0
   -2.4085   -2.2158   -1.2584 C   0  0  0  0  0  0  0  0  0  0  0  0
   -1.8467   -2.3808   -2.4404 N   0  0  0  0  0  0  0  0  0  0  0  0
   -1.8789   -1.1843   -3.1084 N   0  0  0  0  0  0  0  0  0  0  0  0
   -2.4702   -0.3006   -2.3342 C   0  0  0  0  0  0  0  0  0  0  0  0
   -2.8352   -0.9105   -1.1586 N   0  0  0  0  0  0  0  0  0  0  0  0
   -3.5327   -0.2569   -0.0705 C   0  0  0  0  0  0  0  0  0  0  0  0
   -2.7542    0.9144    0.5302 C   0  0  0  0  0  0  0  0  0  0  0  0
   -2.7838    2.1847   -0.3216 C   0  0  0  0  0  0  0  0  0  0  0  0
   -2.0484    2.0759   -1.6610 C   0  0  0  0  0  0  0  0  0  0  0  0
   -2.7193    1.1286   -2.6551 C   0  0  0  0  0  0  0  0  0  0  0  0
   -0.3717   -1.6437    2.1115 C   0  0  0  0  0  0  0  0  0  0  0  0
    0.7601   -0.8272    2.2583 C   0  0  0  0  0  0  0  0  0  0  0  0
    0.7903    0.0606    3.4004 N   0  0  0  0  0  4  0  0  0  0  0  0
    1.5869   -0.2090    4.3093 O   0  0  0  0  0  0  0  0  0  0  0  0
   -0.0439    0.9773    3.4145 O   0  0  0  0  0  1  0  0  0  0  0  0
    4.7042   -1.0989    1.5059 H   0  0  0  0  0  0  0  0  0  0  0  0
    3.6343   -1.3567    2.8842 H   0  0  0  0  0  0  0  0  0  0  0  0
    4.5529    0.1297    2.7989 H   0  0  0  0  0  0  0  0  0  0  0  0
    1.2927    1.2283   -0.3578 H   0  0  0  0  0  0  0  0  0  0  0  0
    1.8748    2.9191   -2.0265 H   0  0  0  0  0  0  0  0  0  0  0  0
    4.1952    3.7908   -2.1787 H   0  0  0  0  0  0  0  0  0  0  0  0
    5.9271    2.9428   -0.6195 H   0  0  0  0  0  0  0  0  0  0  0  0
    5.3841    1.2506    1.0444 H   0  0  0  0  0  0  0  0  0  0  0  0
    2.4529   -1.6540   -0.5599 H   0  0  0  0  0  0  0  0  0  0  0  0
    0.4877   -3.0872   -0.8525 H   0  0  0  0  0  0  0  0  0  0  0  0
   -1.8632   -3.9990    1.5863 H   0  0  0  0  0  0  0  0  0  0  0  0
   -4.5093    0.0656   -0.4524 H   0  0  0  0  0  0  0  0  0  0  0  0
   -3.7261   -0.9950    0.7147 H   0  0  0  0  0  0  0  0  0  0  0  0
   -3.2036    1.1567    1.5026 H   0  0  0  0  0  0  0  0  0  0  0  0
   -1.7131    0.6309    0.7249 H   0  0  0  0  0  0  0  0  0  0  0  0
   -2.3143    2.9916    0.2579 H   0  0  0  0  0  0  0  0  0  0  0  0
   -3.8244    2.4911   -0.4938 H   0  0  0  0  0  0  0  0  0  0  0  0
   -2.0234    3.0773   -2.1085 H   0  0  0  0  0  0  0  0  0  0  0  0
   -1.0047    1.7835   -1.4905 H   0  0  0  0  0  0  0  0  0  0  0  0
   -2.3138    1.3323   -3.6557 H   0  0  0  0  0  0  0  0  0  0  0  0
   -3.7982    1.3190   -2.7101 H   0  0  0  0  0  0  0  0  0  0  0  0
   -1.1623   -1.6173    2.8593 H   0  0  0  0  0  0  0  0  0  0  0  0
  1  2  1  0
  2  3  1  0
  3  4  2  0
  4  5  1  0
  5  6  2  0
  6  7  1  0
  7  8  2  0
  2  9  1  0
  9 10  2  0
 10 11  1  0
 11 12  2  0
 12 13  1  0
 13 14  2  3
 14 15  1  0
 15 16  3  0
 14 17  1  0
 17 18  2  0
 18 19  1  0
 19 20  2  0
 20 21  1  0
 21 22  1  0
 22 23  1  0
 23 24  1  0
 24 25  1  0
 25 26  1  0
 12 27  1  0
 27 28  2  0
 28 29  1  0
 29 30  2  0
 29 31  1  0
  8  3  1  0
 28  9  1  0
 21 17  1  0
 26 20  1  0
  1 32  1  0
  1 33  1  0
  1 34  1  0
  4 35  1  0
  5 36  1  0
  6 37  1  0
  7 38  1  0
  8 39  1  0
 10 40  1  0
 11 41  1  0
 13 42  1  0
 22 43  1  0
 22 44  1  0
 23 45  1  0
 23 46  1  0
 24 47  1  0
 24 48  1  0
 25 49  1  0
 25 50  1  0
 26 51  1  0
 26 52  1  0
 27 53  1  0
M  CHG  2  29   1  31  -1
M  END
$$$$
