
     RDKit          3D

 40 41  0  0  0  0  0  0  0  0999 V2000
   -4.9694    1.7073    1.4277 C   0  0  0  0  0  0  0  0  0  0  0  0
   -4.0014    0.5473    1.1921 C   0  0  0  0  0  0  0  0  0  0  0  0
   -4.2103   -0.0866   -0.1949 C   0  0  0  0  0  0  0  0  0  0  0  0
   -3.1703    0.3772   -1.2089 C   0  0  0  0  0  0  0  0  0  0  0  0
   -1.8115    0.0779   -0.7639 N   0  0  0  0  0  0  0  0  0  0  0  0
   -0.8137    0.0018   -1.7343 C   0  0  0  0  0  0  0  0  0  0  0  0
   -0.9997    0.2562   -2.9220 O   0  0  0  0  0  0  0  0  0  0  0  0
    0.5483   -0.4113   -1.3282 C   0  0  0  0  0  0  0  0  0  0  0  0
    0.7595   -1.6221   -0.6591 C   0  0  0  0  0  0  0  0  0  0  0  0
    2.0550   -1.9939   -0.2947 C   0  0  0  0  0  0  0  0  0  0  0  0
    3.1322   -1.1671   -0.6218 C   0  0  0  0  0  0  0  0  0  0  0  0
    4.4455   -1.5147   -0.1915 N   0  0  0  0  0  0  0  0  0  0  0  0
    4.9442   -0.8960    1.3065 S   0  0  0  0  0  6  0  0  0  0  0  0
    6.0385    0.4075    0.7891 C   0  0  0  0  0  0  0  0  0  0  0  0
    5.7539   -1.9393    1.8997 O   0  0  0  0  0  0  0  0  0  0  0  0
    3.8225   -0.3190    2.0127 O   0  0  0  0  0  0  0  0  0  0  0  0
    2.9237    0.0348   -1.2995 C   0  0  0  0  0  0  0  0  0  0  0  0
    1.6299    0.4077   -1.6681 C   0  0  0  0  0  0  0  0  0  0  0  0
   -1.5547    0.1150    0.6799 C   0  0  0  0  0  0  0  0  0  0  0  0
   -2.5516    1.0128    1.4061 C   0  0  0  0  0  0  0  0  0  0  0  0
   -6.0079    1.3657    1.3620 H   0  0  0  0  0  0  0  0  0  0  0  0
   -4.8271    2.5013    0.6868 H   0  0  0  0  0  0  0  0  0  0  0  0
   -4.8224    2.1396    2.4231 H   0  0  0  0  0  0  0  0  0  0  0  0
   -4.2306   -0.2218    1.9418 H   0  0  0  0  0  0  0  0  0  0  0  0
   -4.1275   -1.1770   -0.0918 H   0  0  0  0  0  0  0  0  0  0  0  0
   -5.2199    0.1107   -0.5730 H   0  0  0  0  0  0  0  0  0  0  0  0
   -3.3513   -0.1065   -2.1754 H   0  0  0  0  0  0  0  0  0  0  0  0
   -3.2379    1.4602   -1.3672 H   0  0  0  0  0  0  0  0  0  0  0  0
   -0.0777   -2.2736   -0.4230 H   0  0  0  0  0  0  0  0  0  0  0  0
    2.2113   -2.9205    0.2506 H   0  0  0  0  0  0  0  0  0  0  0  0
    4.6555   -2.5152   -0.2143 H   0  0  0  0  0  0  0  0  0  0  0  0
    5.4635    1.1704    0.2622 H   0  0  0  0  0  0  0  0  0  0  0  0
    6.8153   -0.0136    0.1483 H   0  0  0  0  0  0  0  0  0  0  0  0
    6.4914    0.8398    1.6841 H   0  0  0  0  0  0  0  0  0  0  0  0
    3.7592    0.6781   -1.5577 H   0  0  0  0  0  0  0  0  0  0  0  0
    1.4614    1.3337   -2.2133 H   0  0  0  0  0  0  0  0  0  0  0  0
   -0.5389    0.4729    0.8735 H   0  0  0  0  0  0  0  0  0  0  0  0
   -1.6325   -0.9125    1.0528 H   0  0  0  0  0  0  0  0  0  0  0  0
   -2.4282    2.0415    1.0423 H   0  0  0  0  0  0  0  0  0  0  0  0
   -2.3260    1.0313    2.4789 H   0  0  0  0  0  0  0  0  0  0  0  0
  1  2  1  0
  2  3  1  0
  3  4  1  0
  4  5  1  0
  5  6  1  0
  6  7  2  0
  6  8  1  0
  8  9  2  0
  9 10  1  0
 10 11  2  0
 11 12  1  0
 12 13  1  0
 13 14  1  0
 13 15  2  0
 13 16  2  0
 11 17  1  0
 17 18  2  0
  5 19  1  0
 19 20  1  0
 20  2  1  0
 18  8  1  0
  1 21  1  0
  1 22  1  0
  1 23  1  0
  2 24  1  0
  3 25  1  0
  3 26  1  0
  4 27  1  0
  4 28  1  0
  9 29  1  0
 10 30  1  0
 12 31  1  0
 14 32  1  0
 14 33  1  0
 14 34  1  0
 17 35  1  0
 18 36  1  0
 19 37  1  0
 19 38  1  0
 20 39  1  0
 20 40  1  0
M  END
$$$$
