
     RDKit          3D

 48 52  0  0  0  0  0  0  0  0999 V2000
    5.5684   -1.1918    1.2085 C   0  0  0  0  0  0  0  0  0  0  0  0
    4.2510   -0.8011    0.6088 C   0  0  0  0  0  0  0  0  0  0  0  0
    3.0682   -0.9404    1.3410 C   0  0  0  0  0  0  0  0  0  0  0  0
    1.8425   -0.5473    0.7940 C   0  0  0  0  0  0  0  0  0  0  0  0
    1.7692    0.0009   -0.4977 C   0  0  0  0  0  0  0  0  0  0  0  0
    0.4675    0.4520   -1.1394 C   0  0  0  0  0  0  0  0  0  0  0  0
    0.1650    1.7767   -0.5568 C   0  0  0  0  0  0  0  0  0  0  0  0
   -1.0095    1.7437    0.2078 C   0  0  0  0  0  0  0  0  0  0  0  0
   -1.2804    3.0176    0.6286 C   0  0  0  0  0  0  0  0  0  0  0  0
   -2.3340    3.5282    1.2532 O   0  0  0  0  0  0  0  0  0  0  0  0
   -0.2204    3.8063    0.2166 N   0  0  0  0  0  0  0  0  0  0  0  0
   -0.0944    5.2179    0.5026 C   0  0  0  0  0  0  0  0  0  0  0  0
    0.6476    3.0596   -0.5709 C   0  0  0  0  0  0  0  0  0  0  0  0
    1.7090    3.5541   -1.1971 O   0  0  0  0  0  0  0  0  0  0  0  0
   -1.6114    0.3857    0.2425 C   0  0  0  0  0  0  0  0  0  0  0  0
   -3.0980    0.4211   -0.1161 C   0  0  0  0  0  0  0  0  0  0  0  0
   -3.8067    1.4222    0.0577 O   0  0  0  0  0  0  0  0  0  0  0  0
   -3.7444   -0.7428   -0.4237 N   0  0  0  0  0  0  0  0  0  0  0  0
   -3.2627   -2.0596   -0.3620 C   0  0  0  0  0  0  0  0  0  0  0  0
   -4.2405   -3.0306   -0.0722 C   0  0  0  0  0  0  0  0  0  0  0  0
   -3.9091   -4.3793    0.0684 C   0  0  0  0  0  0  0  0  0  0  0  0
   -2.5937   -4.7860   -0.0999 C   0  0  0  0  0  0  0  0  0  0  0  0
   -1.6221   -3.8430   -0.4302 C   0  0  0  0  0  0  0  0  0  0  0  0
   -1.9425   -2.4761   -0.5710 C   0  0  0  0  0  0  0  0  0  0  0  0
   -0.8490   -1.6293   -1.1041 C   0  0  0  0  0  0  0  0  0  0  0  0
   -0.0514   -2.1501   -1.8833 O   0  0  0  0  0  0  0  0  0  0  0  0
   -0.7433   -0.3162   -0.7279 N   0  0  0  0  0  0  0  0  0  0  0  0
    2.9679    0.1563   -1.2148 C   0  0  0  0  0  0  0  0  0  0  0  0
    4.1930   -0.2362   -0.6682 C   0  0  0  0  0  0  0  0  0  0  0  0
    6.2712   -1.5127    0.4325 H   0  0  0  0  0  0  0  0  0  0  0  0
    6.0003   -0.3435    1.7482 H   0  0  0  0  0  0  0  0  0  0  0  0
    5.4482   -2.0296    1.9035 H   0  0  0  0  0  0  0  0  0  0  0  0
    3.0913   -1.3559    2.3455 H   0  0  0  0  0  0  0  0  0  0  0  0
    0.9460   -0.6699    1.3936 H   0  0  0  0  0  0  0  0  0  0  0  0
    0.5207    0.4605   -2.2334 H   0  0  0  0  0  0  0  0  0  0  0  0
   -3.0772    2.9046    1.0969 H   0  0  0  0  0  0  0  0  0  0  0  0
   -0.8263    5.5204    1.2547 H   0  0  0  0  0  0  0  0  0  0  0  0
   -0.2605    5.7704   -0.4256 H   0  0  0  0  0  0  0  0  0  0  0  0
    0.9116    5.4042    0.8877 H   0  0  0  0  0  0  0  0  0  0  0  0
    1.8107    4.4959   -0.9887 H   0  0  0  0  0  0  0  0  0  0  0  0
   -1.4893   -0.0786    1.2273 H   0  0  0  0  0  0  0  0  0  0  0  0
   -4.7495   -0.6090   -0.4450 H   0  0  0  0  0  0  0  0  0  0  0  0
   -5.2806   -2.7442    0.0747 H   0  0  0  0  0  0  0  0  0  0  0  0
   -4.6793   -5.1090    0.3068 H   0  0  0  0  0  0  0  0  0  0  0  0
   -2.3244   -5.8349   -0.0031 H   0  0  0  0  0  0  0  0  0  0  0  0
   -0.6017   -4.1828   -0.6103 H   0  0  0  0  0  0  0  0  0  0  0  0
    2.9521    0.5970   -2.2099 H   0  0  0  0  0  0  0  0  0  0  0  0
    5.1009   -0.0953   -1.2498 H   0  0  0  0  0  0  0  0  0  0  0  0
  1  2  1  0
  2  3  2  0
  3  4  1  0
  4  5  2  0
  5  6  1  0
  6  7  1  0
  7  8  1  0
  8  9  2  0
  9 10  1  0
  9 11  1  0
 11 12  1  0
 11 13  1  0
 13 14  1  0
  8 15  1  0
 15 16  1  0
 16 17  2  0
 16 18  1  0
 18 19  1  0
 19 20  2  0
 20 21  1  0
 21 22  2  0
 22 23  1  0
 23 24  2  0
 24 25  1  0
 25 26  2  0
 25 27  1  0
  5 28  1  0
 28 29  2  0
 29  2  1  0
 27  6  1  0
 13  7  2  0
 27 15  1  0
 24 19  1  0
  1 30  1  0
  1 31  1  0
  1 32  1  0
  3 33  1  0
  4 34  1  0
  6 35  1  0
 10 36  1  0
 12 37  1  0
 12 38  1  0
 12 39  1  0
 14 40  1  0
 15 41  1  0
 18 42  1  0
 20 43  1  0
 21 44  1  0
 22 45  1  0
 23 46  1  0
 28 47  1  0
 29 48  1  0
M  END
$$$$
