
     RDKit          3D

 41 44  0  0  0  0  0  0  0  0999 V2000
    4.8762   -0.3862   -2.9605 C   0  0  0  0  0  0  0  0  0  0  0  0
    5.0854    0.1222   -1.5424 C   0  0  0  0  0  0  0  0  0  0  0  0
    3.7876    0.2017   -0.7789 C   0  0  0  0  0  0  0  0  0  0  0  0
    3.0136    1.3685   -0.8114 C   0  0  0  0  0  0  0  0  0  0  0  0
    1.8024    1.4397   -0.1159 C   0  0  0  0  0  0  0  0  0  0  0  0
    1.3460    0.3369    0.6133 C   0  0  0  0  0  0  0  0  0  0  0  0
    0.0539    0.3704    1.3631 C   0  0  0  0  0  0  0  0  0  0  0  0
   -0.1046   -0.4273    2.3807 N   0  0  0  0  0  0  0  0  0  0  0  0
   -1.2882   -0.3911    3.0409 C   0  0  0  0  0  0  0  0  0  0  0  0
   -1.6190   -0.8676    4.2214 N   0  0  0  0  0  0  0  0  0  0  0  0
   -2.9471   -0.5600    4.3388 C   0  0  0  0  0  0  0  0  0  0  0  0
   -3.4834    0.0832    3.2974 N   0  0  0  0  0  0  0  0  0  0  0  0
   -2.4167    0.1536    2.4847 N   0  0  0  0  0  0  0  0  0  0  0  0
   -2.4198    0.8186    1.1949 C   0  0  0  0  0  0  0  0  0  0  0  0
   -2.9144   -0.0787    0.0724 C   0  0  0  0  0  0  0  0  0  0  0  0
   -2.6171   -1.4499   -0.0197 C   0  0  0  0  0  0  0  0  0  0  0  0
   -3.0858   -2.2031   -1.1009 C   0  0  0  0  0  0  0  0  0  0  0  0
   -2.6754   -4.0460   -1.2036 Br  0  0  0  0  0  0  0  0  0  0  0  0
   -3.8464   -1.6106   -2.1072 C   0  0  0  0  0  0  0  0  0  0  0  0
   -4.1366   -0.2502   -2.0352 C   0  0  0  0  0  0  0  0  0  0  0  0
   -3.6685    0.4985   -0.9584 C   0  0  0  0  0  0  0  0  0  0  0  0
   -3.9352    1.8120   -0.9278 F   0  0  0  0  0  0  0  0  0  0  0  0
   -1.0168    1.3662    0.9214 C   0  0  0  0  0  0  0  0  0  0  0  0
    2.1201   -0.8288    0.6530 C   0  0  0  0  0  0  0  0  0  0  0  0
    3.3293   -0.8974   -0.0432 C   0  0  0  0  0  0  0  0  0  0  0  0
    5.8328   -0.4337   -3.4904 H   0  0  0  0  0  0  0  0  0  0  0  0
    4.2081    0.2735   -3.5246 H   0  0  0  0  0  0  0  0  0  0  0  0
    4.4371   -1.3897   -2.9622 H   0  0  0  0  0  0  0  0  0  0  0  0
    5.5589    1.1112   -1.5690 H   0  0  0  0  0  0  0  0  0  0  0  0
    5.7858   -0.5349   -1.0124 H   0  0  0  0  0  0  0  0  0  0  0  0
    3.3548    2.2342   -1.3760 H   0  0  0  0  0  0  0  0  0  0  0  0
    1.2474    2.3724   -0.1462 H   0  0  0  0  0  0  0  0  0  0  0  0
   -3.5368   -0.8117    5.2111 H   0  0  0  0  0  0  0  0  0  0  0  0
   -3.1101    1.6657    1.3047 H   0  0  0  0  0  0  0  0  0  0  0  0
   -2.0241   -1.9472    0.7458 H   0  0  0  0  0  0  0  0  0  0  0  0
   -4.2114   -2.1962   -2.9470 H   0  0  0  0  0  0  0  0  0  0  0  0
   -4.7214    0.2331   -2.8121 H   0  0  0  0  0  0  0  0  0  0  0  0
   -0.8554    2.2752    1.5160 H   0  0  0  0  0  0  0  0  0  0  0  0
   -0.9063    1.6320   -0.1347 H   0  0  0  0  0  0  0  0  0  0  0  0
    1.7887   -1.6943    1.2238 H   0  0  0  0  0  0  0  0  0  0  0  0
    3.9122   -1.8155   -0.0035 H   0  0  0  0  0  0  0  0  0  0  0  0
  1  2  1  0
  2  3  1  0
  3  4  2  0
  4  5  1  0
  5  6  2  0
  6  7  1  0
  7  8  2  0
  8  9  1  0
  9 10  2  0
 10 11  1  0
 11 12  2  0
 12 13  1  0
 13 14  1  0
 14 15  1  0
 15 16  2  0
 16 17  1  0
 17 18  1  0
 17 19  2  0
 19 20  1  0
 20 21  2  0
 21 22  1  0
 14 23  1  0
  6 24  1  0
 24 25  2  0
 25  3  1  0
 23  7  1  0
 13  9  1  0
 21 15  1  0
  1 26  1  0
  1 27  1  0
  1 28  1  0
  2 29  1  0
  2 30  1  0
  4 31  1  0
  5 32  1  0
 11 33  1  0
 14 34  1  0
 16 35  1  0
 19 36  1  0
 20 37  1  0
 23 38  1  0
 23 39  1  0
 24 40  1  0
 25 41  1  0
M  END
$$$$
