
     RDKit          3D

 48 48  0  0  0  0  0  0  0  0999 V2000
   -7.5405    0.3242   -0.2789 C   0  0  0  0  0  0  0  0  0  0  0  0
   -6.7556   -0.2036    0.9120 C   0  0  0  0  0  0  0  0  0  0  0  0
   -5.4569   -0.9127    0.5222 C   0  0  0  0  0  0  0  0  0  0  0  0
   -4.4253    0.0197   -0.1186 C   0  0  0  0  0  0  0  0  0  0  0  0
   -3.1089   -0.7150   -0.3850 C   0  0  0  0  0  0  0  0  0  0  0  0
   -2.0749    0.1392   -1.1245 C   0  0  0  0  0  0  0  0  0  0  0  0
   -1.6315    1.4181   -0.4064 C   0  0  0  0  0  0  0  0  0  0  0  0
   -1.0736    1.2318    1.0103 C   0  0  0  0  0  0  0  0  0  0  0  0
    0.1341    0.2999    1.1101 C   0  0  0  0  0  0  0  0  0  0  0  0
    1.3952    0.8576    0.4706 C   0  0  0  0  0  0  0  0  0  0  0  0
    1.5041    2.0241    0.1066 O   0  0  0  0  0  0  0  0  0  0  0  0
    2.3926   -0.1076    0.3836 N   0  0  0  0  0  0  0  0  0  0  0  0
    3.6118    0.2302   -0.1139 N   0  0  0  0  0  0  0  0  0  0  0  0
    4.5334   -0.6794   -0.2408 C   0  0  0  0  0  0  0  0  0  0  0  0
    4.3240   -2.1424    0.0930 C   0  0  0  0  0  0  0  0  0  0  0  0
    5.8688   -0.2490   -0.7480 C   0  0  0  0  0  0  0  0  0  0  0  0
    5.9826    0.9140   -1.5147 C   0  0  0  0  0  0  0  0  0  0  0  0
    7.2333    1.3152   -1.9793 C   0  0  0  0  0  0  0  0  0  0  0  0
    8.3341    0.5395   -1.6555 C   0  0  0  0  0  0  0  0  0  0  0  0
    8.2658   -0.5837   -0.9073 N   0  0  0  0  0  0  0  0  0  0  0  0
    7.0362   -0.9465   -0.4638 C   0  0  0  0  0  0  0  0  0  0  0  0
   -8.5003    0.7315    0.0551 H   0  0  0  0  0  0  0  0  0  0  0  0
   -7.0015    1.1265   -0.7911 H   0  0  0  0  0  0  0  0  0  0  0  0
   -7.7438   -0.4732   -1.0005 H   0  0  0  0  0  0  0  0  0  0  0  0
   -7.3879   -0.9136    1.4584 H   0  0  0  0  0  0  0  0  0  0  0  0
   -6.5383    0.6214    1.6003 H   0  0  0  0  0  0  0  0  0  0  0  0
   -5.0246   -1.3571    1.4273 H   0  0  0  0  0  0  0  0  0  0  0  0
   -5.6816   -1.7415   -0.1603 H   0  0  0  0  0  0  0  0  0  0  0  0
   -4.2515    0.8727    0.5466 H   0  0  0  0  0  0  0  0  0  0  0  0
   -4.8129    0.4148   -1.0642 H   0  0  0  0  0  0  0  0  0  0  0  0
   -2.6892   -1.0818    0.5586 H   0  0  0  0  0  0  0  0  0  0  0  0
   -3.3134   -1.6032   -0.9961 H   0  0  0  0  0  0  0  0  0  0  0  0
   -1.1963   -0.4811   -1.3375 H   0  0  0  0  0  0  0  0  0  0  0  0
   -2.4848    0.4205   -2.1029 H   0  0  0  0  0  0  0  0  0  0  0  0
   -0.8804    1.9160   -1.0311 H   0  0  0  0  0  0  0  0  0  0  0  0
   -2.4773    2.1143   -0.3548 H   0  0  0  0  0  0  0  0  0  0  0  0
   -0.8065    2.2192    1.4075 H   0  0  0  0  0  0  0  0  0  0  0  0
   -1.8666    0.8487    1.6632 H   0  0  0  0  0  0  0  0  0  0  0  0
   -0.0933   -0.6794    0.6767 H   0  0  0  0  0  0  0  0  0  0  0  0
    0.3621    0.1401    2.1714 H   0  0  0  0  0  0  0  0  0  0  0  0
    2.2343   -1.0344    0.7567 H   0  0  0  0  0  0  0  0  0  0  0  0
    3.3744   -2.4881   -0.3266 H   0  0  0  0  0  0  0  0  0  0  0  0
    4.3079   -2.2666    1.1793 H   0  0  0  0  0  0  0  0  0  0  0  0
    5.1014   -2.7812   -0.3312 H   0  0  0  0  0  0  0  0  0  0  0  0
    5.1035    1.5109   -1.7503 H   0  0  0  0  0  0  0  0  0  0  0  0
    7.3432    2.2140   -2.5762 H   0  0  0  0  0  0  0  0  0  0  0  0
    9.3298    0.8115   -1.9949 H   0  0  0  0  0  0  0  0  0  0  0  0
    7.0445   -1.8346    0.1596 H   0  0  0  0  0  0  0  0  0  0  0  0
  1  2  1  0
  2  3  1  0
  3  4  1  0
  4  5  1  0
  5  6  1  0
  6  7  1  0
  7  8  1  0
  8  9  1  0
  9 10  1  0
 10 11  2  0
 10 12  1  0
 12 13  1  0
 13 14  2  3
 14 15  1  0
 14 16  1  0
 16 17  2  0
 17 18  1  0
 18 19  2  0
 19 20  1  0
 20 21  2  0
 21 16  1  0
  1 22  1  0
  1 23  1  0
  1 24  1  0
  2 25  1  0
  2 26  1  0
  3 27  1  0
  3 28  1  0
  4 29  1  0
  4 30  1  0
  5 31  1  0
  5 32  1  0
  6 33  1  0
  6 34  1  0
  7 35  1  0
  7 36  1  0
  8 37  1  0
  8 38  1  0
  9 39  1  0
  9 40  1  0
 12 41  1  0
 15 42  1  0
 15 43  1  0
 15 44  1  0
 17 45  1  0
 18 46  1  0
 19 47  1  0
 21 48  1  0
M  END
$$$$
