
     RDKit          3D

 80 85  0  0  0  0  0  0  0  0999 V2000
    5.3841    1.7674    1.8259 C   0  0  0  0  0  0  0  0  0  0  0  0
    4.8776    1.4255    0.4166 C   0  0  0  0  0  0  0  0  0  0  0  0
    5.7782    0.3613   -0.2250 C   0  0  0  0  0  0  0  0  0  0  0  0
    5.2528   -1.0356    0.0625 C   0  0  0  0  0  0  0  0  0  0  0  0
    3.8706   -1.2905   -0.6141 C   0  0  0  0  0  0  0  0  0  0  0  0
    4.2048   -1.8022   -2.0265 C   0  0  0  0  0  0  0  0  0  0  0  0
    4.1071   -1.1928   -3.0792 O   0  0  0  0  0  0  0  0  0  0  0  0
    4.7164   -3.0514   -2.0442 O   0  0  0  0  0  0  0  0  0  0  0  0
    3.1273   -2.3880    0.2049 C   0  0  0  0  0  0  0  0  0  0  0  0
    1.7083   -2.0168    0.6511 C   0  0  0  0  0  0  0  0  0  0  0  0
    0.8294   -1.4484   -0.4910 C   0  0  0  0  0  0  0  0  0  0  0  0
    0.8070   -2.4719   -1.6692 C   0  0  0  0  0  0  0  0  0  0  0  0
    1.5285   -0.1889   -0.9906 C   0  0  0  0  0  0  0  0  0  0  0  0
    0.8202    0.7355   -1.6574 C   0  0  0  0  0  0  0  0  0  0  0  0
   -0.6634    0.7605   -1.7825 C   0  0  0  0  0  0  0  0  0  0  0  0
   -1.4977   -0.4065   -1.1716 C   0  0  0  0  0  0  0  0  0  0  0  0
   -2.9489    0.1068   -0.7887 C   0  0  0  0  0  0  0  0  0  0  0  0
   -3.5154    1.0669   -1.8904 C   0  0  0  0  0  0  0  0  0  0  0  0
   -4.9510    1.4734   -1.5791 C   0  0  0  0  0  0  0  0  0  0  0  0
   -5.3630    0.8764   -0.2383 C   0  0  0  0  0  0  0  0  0  0  0  0
   -6.7098    1.2311    0.0040 O   0  0  0  0  0  0  0  0  0  0  0  0
   -5.3225   -0.5419   -0.3915 O   0  0  0  0  0  0  0  0  0  0  0  0
   -4.0050   -1.0273   -0.6939 C   0  0  0  0  0  0  0  0  0  0  0  0
   -4.4282    1.2979    0.9433 C   0  0  0  0  0  0  0  0  0  0  0  0
   -4.4852    2.8248    1.1810 C   0  0  0  0  0  0  0  0  0  0  0  0
   -4.9346    0.6399    2.2515 C   0  0  0  0  0  0  0  0  0  0  0  0
   -2.9474    0.8927    0.5591 C   0  0  0  0  0  0  0  0  0  0  0  0
   -2.1616    0.1717    1.6681 C   0  0  0  0  0  0  0  0  0  0  0  0
   -0.7522   -0.2678    1.2510 C   0  0  0  0  0  0  0  0  0  0  0  0
   -0.6999   -1.1563   -0.0226 C   0  0  0  0  0  0  0  0  0  0  0  0
   -1.3701   -2.5253    0.3011 C   0  0  0  0  0  0  0  0  0  0  0  0
    3.0359    0.0394   -0.7457 C   0  0  0  0  0  0  0  0  0  0  0  0
    3.3721    1.0077    0.4495 C   0  0  0  0  0  0  0  0  0  0  0  0
    2.5217    2.2873    0.4963 C   0  0  0  0  0  0  0  0  0  0  0  0
    5.3236    0.9014    2.4934 H   0  0  0  0  0  0  0  0  0  0  0  0
    6.4294    2.0937    1.7924 H   0  0  0  0  0  0  0  0  0  0  0  0
    4.8066    2.5799    2.2758 H   0  0  0  0  0  0  0  0  0  0  0  0
    4.9860    2.3353   -0.1896 H   0  0  0  0  0  0  0  0  0  0  0  0
    5.8219    0.5214   -1.3095 H   0  0  0  0  0  0  0  0  0  0  0  0
    6.8096    0.4553    0.1348 H   0  0  0  0  0  0  0  0  0  0  0  0
    5.9973   -1.7713   -0.2656 H   0  0  0  0  0  0  0  0  0  0  0  0
    5.1802   -1.1510    1.1513 H   0  0  0  0  0  0  0  0  0  0  0  0
    4.8979   -3.2119   -2.9942 H   0  0  0  0  0  0  0  0  0  0  0  0
    3.6885   -2.6514    1.1101 H   0  0  0  0  0  0  0  0  0  0  0  0
    3.0655   -3.3289   -0.3542 H   0  0  0  0  0  0  0  0  0  0  0  0
    1.7812   -1.2984    1.4756 H   0  0  0  0  0  0  0  0  0  0  0  0
    1.2698   -2.9186    1.0875 H   0  0  0  0  0  0  0  0  0  0  0  0
    0.1218   -2.1760   -2.4683 H   0  0  0  0  0  0  0  0  0  0  0  0
    0.5107   -3.4694   -1.3280 H   0  0  0  0  0  0  0  0  0  0  0  0
    1.7775   -2.5869   -2.1540 H   0  0  0  0  0  0  0  0  0  0  0  0
    1.3273    1.6084   -2.0659 H   0  0  0  0  0  0  0  0  0  0  0  0
   -0.9517    1.7071   -1.3123 H   0  0  0  0  0  0  0  0  0  0  0  0
   -0.9112    0.8496   -2.8478 H   0  0  0  0  0  0  0  0  0  0  0  0
   -1.6474   -1.1232   -1.9902 H   0  0  0  0  0  0  0  0  0  0  0  0
   -3.4774    0.5793   -2.8730 H   0  0  0  0  0  0  0  0  0  0  0  0
   -2.9276    1.9864   -1.9758 H   0  0  0  0  0  0  0  0  0  0  0  0
   -5.0689    2.5625   -1.5967 H   0  0  0  0  0  0  0  0  0  0  0  0
   -5.6101    1.0962   -2.3724 H   0  0  0  0  0  0  0  0  0  0  0  0
   -7.0553    0.4786    0.5137 H   0  0  0  0  0  0  0  0  0  0  0  0
   -4.0679   -1.5810   -1.6377 H   0  0  0  0  0  0  0  0  0  0  0  0
   -3.7914   -1.7519    0.0852 H   0  0  0  0  0  0  0  0  0  0  0  0
   -3.8538    3.1087    2.0310 H   0  0  0  0  0  0  0  0  0  0  0  0
   -4.1300    3.3888    0.3128 H   0  0  0  0  0  0  0  0  0  0  0  0
   -5.5050    3.1596    1.3999 H   0  0  0  0  0  0  0  0  0  0  0  0
   -4.9477   -0.4526    2.1836 H   0  0  0  0  0  0  0  0  0  0  0  0
   -4.3167    0.9206    3.1112 H   0  0  0  0  0  0  0  0  0  0  0  0
   -5.9559    0.9605    2.4878 H   0  0  0  0  0  0  0  0  0  0  0  0
   -2.3906    1.8234    0.3792 H   0  0  0  0  0  0  0  0  0  0  0  0
   -2.7104   -0.6999    2.0339 H   0  0  0  0  0  0  0  0  0  0  0  0
   -2.0596    0.8469    2.5273 H   0  0  0  0  0  0  0  0  0  0  0  0
   -0.1516    0.6346    1.1101 H   0  0  0  0  0  0  0  0  0  0  0  0
   -0.3091   -0.8019    2.1000 H   0  0  0  0  0  0  0  0  0  0  0  0
   -2.1994   -2.4477    1.0030 H   0  0  0  0  0  0  0  0  0  0  0  0
   -1.7397   -3.0152   -0.6061 H   0  0  0  0  0  0  0  0  0  0  0  0
   -0.6885   -3.2271    0.7852 H   0  0  0  0  0  0  0  0  0  0  0  0
    3.3948    0.5744   -1.6388 H   0  0  0  0  0  0  0  0  0  0  0  0
    3.1805    0.4679    1.3857 H   0  0  0  0  0  0  0  0  0  0  0  0
    2.6152    2.8601   -0.4321 H   0  0  0  0  0  0  0  0  0  0  0  0
    1.4662    2.0681    0.6659 H   0  0  0  0  0  0  0  0  0  0  0  0
    2.8297    2.9416    1.3176 H   0  0  0  0  0  0  0  0  0  0  0  0
  1  2  1  0
  2  3  1  0
  3  4  1  0
  4  5  1  0
  5  6  1  0
  6  7  2  0
  6  8  1  0
  5  9  1  0
  9 10  1  0
 10 11  1  0
 11 12  1  0
 11 13  1  0
 13 14  2  0
 14 15  1  0
 15 16  1  0
 16 17  1  0
 17 18  1  0
 18 19  1  0
 19 20  1  0
 20 21  1  0
 20 22  1  0
 22 23  1  0
 20 24  1  0
 24 25  1  0
 24 26  1  0
 24 27  1  0
 27 28  1  0
 28 29  1  0
 29 30  1  0
 30 31  1  0
 13 32  1  0
 32 33  1  0
 33 34  1  0
 33  2  1  0
 32  5  1  0
 30 11  1  0
 30 16  1  0
 23 17  1  0
 27 17  1  0
  1 35  1  0
  1 36  1  0
  1 37  1  0
  2 38  1  0
  3 39  1  0
  3 40  1  0
  4 41  1  0
  4 42  1  0
  8 43  1  0
  9 44  1  0
  9 45  1  0
 10 46  1  0
 10 47  1  0
 12 48  1  0
 12 49  1  0
 12 50  1  0
 14 51  1  0
 15 52  1  0
 15 53  1  0
 16 54  1  0
 18 55  1  0
 18 56  1  0
 19 57  1  0
 19 58  1  0
 21 59  1  0
 23 60  1  0
 23 61  1  0
 25 62  1  0
 25 63  1  0
 25 64  1  0
 26 65  1  0
 26 66  1  0
 26 67  1  0
 27 68  1  0
 28 69  1  0
 28 70  1  0
 29 71  1  0
 29 72  1  0
 31 73  1  0
 31 74  1  0
 31 75  1  0
 32 76  1  0
 33 77  1  0
 34 78  1  0
 34 79  1  0
 34 80  1  0
M  END
$$$$
