
     RDKit          3D

 56 58  0  0  0  0  0  0  0  0999 V2000
   -3.2878    1.5944   -4.8775 C   0  0  0  0  0  0  0  0  0  0  0  0
   -2.4442    1.9759   -3.6771 C   0  0  0  0  0  0  0  0  0  0  0  0
   -2.8373    1.1422   -2.5811 O   0  0  0  0  0  0  0  0  0  0  0  0
   -2.4150    1.5683   -1.3552 C   0  0  0  0  0  0  0  0  0  0  0  0
   -1.7267    2.5595   -1.1541 O   0  0  0  0  0  0  0  0  0  0  0  0
   -2.8693    0.6074   -0.2873 C   0  0  0  0  0  0  0  0  0  0  0  0
   -3.3218    1.3533    0.9405 C   0  0  0  0  0  0  0  0  0  0  0  0
   -4.4537    1.8320    1.0283 O   0  0  0  0  0  0  0  0  0  0  0  0
   -2.3714    1.5772    2.0538 C   0  0  0  0  0  0  0  0  0  0  0  0
   -1.1179    1.0920    2.0317 C   0  0  0  0  0  0  0  0  0  0  0  0
   -0.2466    1.3756    3.1689 C   0  0  0  0  0  0  0  0  0  0  0  0
    1.0857    1.2728    3.3096 C   0  0  0  0  0  0  0  0  0  0  0  0
    2.0842    0.8969    2.3110 C   0  0  0  0  0  0  0  0  0  0  0  0
    2.7091   -0.3456    2.3775 C   0  0  0  0  0  0  0  0  0  0  0  0
    3.6771   -0.7037    1.4270 C   0  0  0  0  0  0  0  0  0  0  0  0
    4.0709    0.1628    0.3906 C   0  0  0  0  0  0  0  0  0  0  0  0
    5.0248   -0.2016   -0.5665 N   0  0  0  0  0  0  0  0  0  0  0  0
    5.7579   -1.4507   -0.4142 C   0  0  0  0  0  0  0  0  0  0  0  0
    5.7148    0.8555   -1.3053 C   0  0  0  0  0  0  0  0  0  0  0  0
    3.4173    1.4085    0.3509 C   0  0  0  0  0  0  0  0  0  0  0  0
    2.4470    1.7775    1.2954 C   0  0  0  0  0  0  0  0  0  0  0  0
   -0.6346    0.2178    0.8952 C   0  0  0  0  0  0  0  0  0  0  0  0
   -1.7468   -0.3966    0.0124 C   0  0  0  0  0  0  0  0  0  0  0  0
   -2.3226   -1.7207    0.5176 C   0  0  0  0  0  0  0  0  0  0  0  0
   -2.7496   -2.6718   -0.4301 C   0  0  0  0  0  0  0  0  0  0  0  0
   -3.2979   -3.8920   -0.0299 C   0  0  0  0  0  0  0  0  0  0  0  0
   -3.4377   -4.1814    1.3240 C   0  0  0  0  0  0  0  0  0  0  0  0
   -3.0305   -3.2513    2.2729 C   0  0  0  0  0  0  0  0  0  0  0  0
   -2.4756   -2.0303    1.8747 C   0  0  0  0  0  0  0  0  0  0  0  0
   -4.3478    1.7475   -4.6619 H   0  0  0  0  0  0  0  0  0  0  0  0
   -3.0176    2.1926   -5.7525 H   0  0  0  0  0  0  0  0  0  0  0  0
   -3.1612    0.5336   -5.1190 H   0  0  0  0  0  0  0  0  0  0  0  0
   -2.5982    3.0372   -3.4420 H   0  0  0  0  0  0  0  0  0  0  0  0
   -1.3869    1.7950   -3.8956 H   0  0  0  0  0  0  0  0  0  0  0  0
   -3.7575    0.0817   -0.6632 H   0  0  0  0  0  0  0  0  0  0  0  0
   -2.7584    2.1866    2.8637 H   0  0  0  0  0  0  0  0  0  0  0  0
   -0.7711    1.7409    4.0554 H   0  0  0  0  0  0  0  0  0  0  0  0
    1.5210    1.5296    4.2747 H   0  0  0  0  0  0  0  0  0  0  0  0
    2.4472   -1.0533    3.1601 H   0  0  0  0  0  0  0  0  0  0  0  0
    4.1244   -1.6884    1.5368 H   0  0  0  0  0  0  0  0  0  0  0  0
    5.0767   -2.3087   -0.3666 H   0  0  0  0  0  0  0  0  0  0  0  0
    6.3865   -1.4315    0.4816 H   0  0  0  0  0  0  0  0  0  0  0  0
    6.4093   -1.6317   -1.2747 H   0  0  0  0  0  0  0  0  0  0  0  0
    5.0216    1.4046   -1.9527 H   0  0  0  0  0  0  0  0  0  0  0  0
    6.2143    1.5549   -0.6247 H   0  0  0  0  0  0  0  0  0  0  0  0
    6.4803    0.4415   -1.9709 H   0  0  0  0  0  0  0  0  0  0  0  0
    3.6367    2.1317   -0.4298 H   0  0  0  0  0  0  0  0  0  0  0  0
    1.9726    2.7540    1.2155 H   0  0  0  0  0  0  0  0  0  0  0  0
    0.0009    0.8358    0.2484 H   0  0  0  0  0  0  0  0  0  0  0  0
   -0.0126   -0.6006    1.2760 H   0  0  0  0  0  0  0  0  0  0  0  0
   -1.2419   -0.6498   -0.9337 H   0  0  0  0  0  0  0  0  0  0  0  0
   -2.6540   -2.4696   -1.4955 H   0  0  0  0  0  0  0  0  0  0  0  0
   -3.6150   -4.6164   -0.7770 H   0  0  0  0  0  0  0  0  0  0  0  0
   -3.8632   -5.1293    1.6399 H   0  0  0  0  0  0  0  0  0  0  0  0
   -3.1405   -3.4742    3.3301 H   0  0  0  0  0  0  0  0  0  0  0  0
   -2.1675   -1.3377    2.6558 H   0  0  0  0  0  0  0  0  0  0  0  0
  1  2  1  0
  2  3  1  0
  3  4  1  0
  4  5  2  0
  4  6  1  0
  6  7  1  0
  7  8  2  0
  7  9  1  0
  9 10  2  0
 10 11  1  0
 11 12  2  3
 12 13  1  0
 13 14  2  0
 14 15  1  0
 15 16  2  0
 16 17  1  0
 17 18  1  0
 17 19  1  0
 16 20  1  0
 20 21  2  0
 10 22  1  0
 22 23  1  0
 23 24  1  0
 24 25  2  0
 25 26  1  0
 26 27  2  0
 27 28  1  0
 28 29  2  0
 23  6  1  0
 29 24  1  0
 21 13  1  0
  1 30  1  0
  1 31  1  0
  1 32  1  0
  2 33  1  0
  2 34  1  0
  6 35  1  0
  9 36  1  0
 11 37  1  0
 12 38  1  0
 14 39  1  0
 15 40  1  0
 18 41  1  0
 18 42  1  0
 18 43  1  0
 19 44  1  0
 19 45  1  0
 19 46  1  0
 20 47  1  0
 21 48  1  0
 22 49  1  0
 22 50  1  0
 23 51  1  0
 25 52  1  0
 26 53  1  0
 27 54  1  0
 28 55  1  0
 29 56  1  0
M  END
$$$$
