
     RDKit          3D

 49 51  0  0  0  0  0  0  0  0999 V2000
    9.1222   -3.1434    1.8743 N   0  0  0  0  0  0  0  0  0  0  0  0
    8.0102   -2.8872    1.6594 C   0  0  0  0  0  0  0  0  0  0  0  0
    6.6436   -2.5462    1.3954 C   0  0  0  0  0  0  0  0  0  0  0  0
    5.7884   -3.5952    1.2513 N   0  0  0  0  0  0  0  0  0  0  0  0
    4.4923   -3.2705    1.0013 C   0  0  0  0  0  0  0  0  0  0  0  0
    4.0328   -1.9577    0.8993 C   0  0  0  0  0  0  0  0  0  0  0  0
    2.6267   -1.5993    0.6339 C   0  0  0  0  0  0  0  0  0  0  0  0
    1.5553   -2.4018    1.0581 C   0  0  0  0  0  0  0  0  0  0  0  0
    0.2327   -2.0431    0.7816 C   0  0  0  0  0  0  0  0  0  0  0  0
   -0.0520   -0.8752    0.0692 C   0  0  0  0  0  0  0  0  0  0  0  0
    0.9826   -0.0238   -0.3173 C   0  0  0  0  0  0  0  0  0  0  0  0
    2.3059   -0.4093   -0.0497 C   0  0  0  0  0  0  0  0  0  0  0  0
    0.8926    1.1710   -0.9734 O   0  0  0  0  0  0  0  0  0  0  0  0
   -0.2850    1.9649   -0.8309 C   0  0  0  0  0  0  0  0  0  0  0  0
   -0.5024    2.4830    0.5925 C   0  0  0  0  0  0  0  0  0  0  0  0
   -1.6095    3.3828    0.6766 O   0  0  0  0  0  0  0  0  0  0  0  0
   -2.8837    2.7347    0.6437 C   0  0  0  0  0  0  0  0  0  0  0  0
   -3.6761    3.2007   -0.5778 C   0  0  0  0  0  0  0  0  0  0  0  0
   -5.0443    2.7935   -0.5681 O   0  0  0  0  0  0  0  0  0  0  0  0
   -5.2874    1.3897   -0.6950 C   0  0  0  0  0  0  0  0  0  0  0  0
   -4.8378    0.8073   -2.0399 C   0  0  0  0  0  0  0  0  0  0  0  0
   -3.4639    0.4019   -1.9990 O   0  0  0  0  0  0  0  0  0  0  0  0
   -3.2991   -0.9529   -1.5639 C   0  0  0  0  0  0  0  0  0  0  0  0
   -1.8128   -1.2540   -1.3704 C   0  0  0  0  0  0  0  0  0  0  0  0
   -1.3703   -0.5975   -0.1674 O   0  0  0  0  0  0  0  0  0  0  0  0
    4.9053   -0.9231    1.0390 N   0  0  0  0  0  0  0  0  0  0  0  0
    6.2097   -1.2358    1.2894 C   0  0  0  0  0  0  0  0  0  0  0  0
    7.0970   -0.1201    1.4345 C   0  0  0  0  0  0  0  0  0  0  0  0
    7.8357    0.7676    1.5555 N   0  0  0  0  0  0  0  0  0  0  0  0
    3.8315   -4.1221    0.8706 H   0  0  0  0  0  0  0  0  0  0  0  0
    1.7251   -3.3122    1.6291 H   0  0  0  0  0  0  0  0  0  0  0  0
   -0.5800   -2.6774    1.1273 H   0  0  0  0  0  0  0  0  0  0  0  0
    3.1071    0.2538   -0.3785 H   0  0  0  0  0  0  0  0  0  0  0  0
   -0.1446    2.8370   -1.4821 H   0  0  0  0  0  0  0  0  0  0  0  0
   -1.1606    1.4689   -1.2503 H   0  0  0  0  0  0  0  0  0  0  0  0
    0.3901    3.0388    0.9027 H   0  0  0  0  0  0  0  0  0  0  0  0
   -0.6188    1.6766    1.3245 H   0  0  0  0  0  0  0  0  0  0  0  0
   -3.4231    3.0182    1.5543 H   0  0  0  0  0  0  0  0  0  0  0  0
   -2.7909    1.6441    0.6655 H   0  0  0  0  0  0  0  0  0  0  0  0
   -3.6767    4.2970   -0.5938 H   0  0  0  0  0  0  0  0  0  0  0  0
   -3.1863    2.9037   -1.5104 H   0  0  0  0  0  0  0  0  0  0  0  0
   -4.8494    0.8614    0.1567 H   0  0  0  0  0  0  0  0  0  0  0  0
   -6.3745    1.2782   -0.6220 H   0  0  0  0  0  0  0  0  0  0  0  0
   -5.4652   -0.0466   -2.3205 H   0  0  0  0  0  0  0  0  0  0  0  0
   -4.9275    1.5650   -2.8251 H   0  0  0  0  0  0  0  0  0  0  0  0
   -3.7084   -1.6140   -2.3353 H   0  0  0  0  0  0  0  0  0  0  0  0
   -3.8386   -1.1093   -0.6236 H   0  0  0  0  0  0  0  0  0  0  0  0
   -1.2370   -0.8842   -2.2275 H   0  0  0  0  0  0  0  0  0  0  0  0
   -1.6811   -2.3382   -1.2719 H   0  0  0  0  0  0  0  0  0  0  0  0
  1  2  3  0
  2  3  1  0
  3  4  2  0
  4  5  1  0
  5  6  2  0
  6  7  1  0
  7  8  2  0
  8  9  1  0
  9 10  2  0
 10 11  1  0
 11 12  2  0
 11 13  1  0
 13 14  1  0
 14 15  1  0
 15 16  1  0
 16 17  1  0
 17 18  1  0
 18 19  1  0
 19 20  1  0
 20 21  1  0
 21 22  1  0
 22 23  1  0
 23 24  1  0
 24 25  1  0
  6 26  1  0
 26 27  2  0
 27 28  1  0
 28 29  3  0
 27  3  1  0
 12  7  1  0
 25 10  1  0
  5 30  1  0
  8 31  1  0
  9 32  1  0
 12 33  1  0
 14 34  1  0
 14 35  1  0
 15 36  1  0
 15 37  1  0
 17 38  1  0
 17 39  1  0
 18 40  1  0
 18 41  1  0
 20 42  1  0
 20 43  1  0
 21 44  1  0
 21 45  1  0
 23 46  1  0
 23 47  1  0
 24 48  1  0
 24 49  1  0
M  END
$$$$
