
     RDKit          3D

 68 69  0  0  0  0  0  0  0  0999 V2000
   10.6033    0.2162   -0.5546 C   0  0  0  0  0  0  0  0  0  0  0  0
    9.4390    0.7327   -1.3873 C   0  0  0  0  0  0  0  0  0  0  0  0
    8.0995    0.0802   -1.0324 C   0  0  0  0  0  0  0  0  0  0  0  0
    7.5834    0.4830    0.3517 C   0  0  0  0  0  0  0  0  0  0  0  0
    6.2808   -0.2173    0.7408 C   0  0  0  0  0  0  0  0  0  0  0  0
    5.0831    0.1750   -0.1184 C   0  0  0  0  0  0  0  0  0  0  0  0
    3.9181   -0.4557    0.4451 O   0  0  0  0  0  0  0  0  0  0  0  0
    2.7565   -0.2245   -0.2271 C   0  0  0  0  0  0  0  0  0  0  0  0
    2.6514    0.4308   -1.2525 O   0  0  0  0  0  0  0  0  0  0  0  0
    1.6097   -0.9277    0.4991 C   0  0  0  0  0  0  0  0  0  0  0  0
    0.1449   -0.7440   -0.0629 N   0  0  0  0  0  4  0  0  0  0  0  0
   -0.2378    0.7336   -0.0034 C   0  0  0  0  0  0  0  0  0  0  0  0
    0.0751   -1.2329   -1.5022 C   0  0  0  0  0  0  0  0  0  0  0  0
   -0.7797   -1.5932    0.8544 C   0  0  0  0  0  0  0  0  0  0  0  0
   -2.2864   -1.5170    0.5481 C   0  0  0  0  0  0  0  0  0  0  0  0
   -2.7726   -0.2129    0.8437 O   0  0  0  0  0  0  0  0  0  0  0  0
   -4.1701   -0.1423    1.1324 C   0  0  0  0  0  0  0  0  0  0  0  0
   -4.4647    1.2816    1.6632 C   0  0  0  0  0  0  0  0  0  0  0  0
   -5.5634    1.7908    0.7064 C   0  0  0  0  0  0  0  0  0  0  0  0
   -4.8696    2.0867   -0.6435 C   0  0  0  0  0  0  0  0  0  0  0  0
   -4.5976    0.6818   -1.2093 C   0  0  0  0  0  0  0  0  0  0  0  0
   -5.1421   -0.2488   -0.0934 C   0  0  0  0  0  0  0  0  0  0  0  0
   -5.4110   -1.6652   -0.5743 C   0  0  0  0  0  0  0  0  0  0  0  0
   -6.4047    0.5257    0.4113 C   0  0  0  0  0  0  0  0  0  0  0  0
   -7.1026   -0.0769    1.6481 C   0  0  0  0  0  0  0  0  0  0  0  0
   -7.5168    0.7522   -0.6344 C   0  0  0  0  0  0  0  0  0  0  0  0
   11.5450    0.6469   -0.9141 H   0  0  0  0  0  0  0  0  0  0  0  0
   10.6811   -0.8731   -0.6177 H   0  0  0  0  0  0  0  0  0  0  0  0
   10.4994    0.4944    0.4975 H   0  0  0  0  0  0  0  0  0  0  0  0
    9.3665    1.8216   -1.2775 H   0  0  0  0  0  0  0  0  0  0  0  0
    9.6536    0.5365   -2.4463 H   0  0  0  0  0  0  0  0  0  0  0  0
    7.3698    0.3803   -1.7937 H   0  0  0  0  0  0  0  0  0  0  0  0
    8.1938   -1.0116   -1.0952 H   0  0  0  0  0  0  0  0  0  0  0  0
    8.3325    0.2365    1.1111 H   0  0  0  0  0  0  0  0  0  0  0  0
    7.4416    1.5693    0.3889 H   0  0  0  0  0  0  0  0  0  0  0  0
    6.4141   -1.3057    0.7076 H   0  0  0  0  0  0  0  0  0  0  0  0
    6.0531    0.0177    1.7880 H   0  0  0  0  0  0  0  0  0  0  0  0
    4.9446    1.2628   -0.1036 H   0  0  0  0  0  0  0  0  0  0  0  0
    5.2143   -0.1685   -1.1507 H   0  0  0  0  0  0  0  0  0  0  0  0
    1.5780   -0.5651    1.5333 H   0  0  0  0  0  0  0  0  0  0  0  0
    1.8026   -2.0065    0.4807 H   0  0  0  0  0  0  0  0  0  0  0  0
    0.5559    1.3307   -0.4576 H   0  0  0  0  0  0  0  0  0  0  0  0
   -1.1567    0.8898   -0.5764 H   0  0  0  0  0  0  0  0  0  0  0  0
   -0.3593    1.0195    1.0449 H   0  0  0  0  0  0  0  0  0  0  0  0
    0.3665   -2.2871   -1.5233 H   0  0  0  0  0  0  0  0  0  0  0  0
    0.7408   -0.6368   -2.1272 H   0  0  0  0  0  0  0  0  0  0  0  0
   -0.9477   -1.1061   -1.8670 H   0  0  0  0  0  0  0  0  0  0  0  0
   -0.4342   -2.6293    0.7630 H   0  0  0  0  0  0  0  0  0  0  0  0
   -0.5954   -1.2425    1.8763 H   0  0  0  0  0  0  0  0  0  0  0  0
   -2.7926   -2.2572    1.1769 H   0  0  0  0  0  0  0  0  0  0  0  0
   -2.4866   -1.7556   -0.4969 H   0  0  0  0  0  0  0  0  0  0  0  0
   -4.4072   -0.8783    1.9099 H   0  0  0  0  0  0  0  0  0  0  0  0
   -4.8388    1.2380    2.6915 H   0  0  0  0  0  0  0  0  0  0  0  0
   -3.5817    1.9315    1.6631 H   0  0  0  0  0  0  0  0  0  0  0  0
   -6.1169    2.6452    1.1032 H   0  0  0  0  0  0  0  0  0  0  0  0
   -5.5245    2.6551   -1.3142 H   0  0  0  0  0  0  0  0  0  0  0  0
   -3.9439    2.6622   -0.5251 H   0  0  0  0  0  0  0  0  0  0  0  0
   -3.5346    0.5297   -1.4172 H   0  0  0  0  0  0  0  0  0  0  0  0
   -5.1254    0.5380   -2.1577 H   0  0  0  0  0  0  0  0  0  0  0  0
   -6.2123   -1.6844   -1.3199 H   0  0  0  0  0  0  0  0  0  0  0  0
   -5.7107   -2.3163    0.2537 H   0  0  0  0  0  0  0  0  0  0  0  0
   -4.5338   -2.1098   -1.0492 H   0  0  0  0  0  0  0  0  0  0  0  0
   -7.6027   -1.0171    1.3881 H   0  0  0  0  0  0  0  0  0  0  0  0
   -6.4373   -0.2999    2.4854 H   0  0  0  0  0  0  0  0  0  0  0  0
   -7.8667    0.6105    2.0259 H   0  0  0  0  0  0  0  0  0  0  0  0
   -8.0473   -0.1831   -0.8450 H   0  0  0  0  0  0  0  0  0  0  0  0
   -7.1692    1.1367   -1.5963 H   0  0  0  0  0  0  0  0  0  0  0  0
   -8.2538    1.4691   -0.2556 H   0  0  0  0  0  0  0  0  0  0  0  0
  1  2  1  0
  2  3  1  0
  3  4  1  0
  4  5  1  0
  5  6  1  0
  6  7  1  0
  7  8  1  0
  8  9  2  0
  8 10  1  0
 10 11  1  0
 11 12  1  0
 11 13  1  0
 11 14  1  0
 14 15  1  0
 15 16  1  0
 16 17  1  0
 17 18  1  0
 18 19  1  0
 19 20  1  0
 20 21  1  0
 21 22  1  0
 22 23  1  0
 22 24  1  0
 24 25  1  0
 24 26  1  0
 22 17  1  0
 24 19  1  0
  1 27  1  0
  1 28  1  0
  1 29  1  0
  2 30  1  0
  2 31  1  0
  3 32  1  0
  3 33  1  0
  4 34  1  0
  4 35  1  0
  5 36  1  0
  5 37  1  0
  6 38  1  0
  6 39  1  0
 10 40  1  0
 10 41  1  0
 12 42  1  0
 12 43  1  0
 12 44  1  0
 13 45  1  0
 13 46  1  0
 13 47  1  0
 14 48  1  0
 14 49  1  0
 15 50  1  0
 15 51  1  0
 17 52  1  0
 18 53  1  0
 18 54  1  0
 19 55  1  0
 20 56  1  0
 20 57  1  0
 21 58  1  0
 21 59  1  0
 23 60  1  0
 23 61  1  0
 23 62  1  0
 25 63  1  0
 25 64  1  0
 25 65  1  0
 26 66  1  0
 26 67  1  0
 26 68  1  0
M  CHG  1  11   1
M  END
$$$$
