
     RDKit          3D

 49 52  0  0  0  0  0  0  0  0999 V2000
    4.5808    2.8289    0.6016 O   0  0  0  0  0  0  0  0  0  0  0  0
    3.5781    2.2792    0.1431 C   0  0  0  0  0  0  0  0  0  0  0  0
    2.3574    3.1325   -0.2022 C   0  0  0  0  0  0  0  0  0  0  0  0
    1.0162    2.2717   -1.0832 S   0  0  0  0  0  0  0  0  0  0  0  0
    0.2353    1.4352    0.2131 C   0  0  0  0  0  0  0  0  0  0  0  0
    0.4971    1.5866    1.4863 N   0  0  0  0  0  0  0  0  0  0  0  0
   -0.2933    0.7082    2.1780 N   0  0  0  0  0  0  0  0  0  0  0  0
   -0.9990    0.0018    1.3132 C   0  0  0  0  0  0  0  0  0  0  0  0
   -1.9423   -1.0496    1.6753 C   0  0  0  0  0  0  0  0  0  0  0  0
   -1.8103   -2.3516    1.1899 C   0  0  0  0  0  0  0  0  0  0  0  0
   -2.7452   -3.2963    1.5797 C   0  0  0  0  0  0  0  0  0  0  0  0
   -3.7765   -3.0323    2.4094 N   0  0  0  0  0  0  0  0  0  0  0  0
   -3.8626   -1.7763    2.8966 C   0  0  0  0  0  0  0  0  0  0  0  0
   -2.9787   -0.7638    2.5664 C   0  0  0  0  0  0  0  0  0  0  0  0
   -0.7243    0.4721    0.0437 N   0  0  0  0  0  0  0  0  0  0  0  0
   -1.3391    0.0632   -1.1996 C   0  0  0  0  0  0  0  0  0  0  0  0
   -2.4593    0.9915   -1.6640 C   0  0  0  0  0  0  0  0  0  0  0  0
   -3.7146    0.9532   -0.8068 C   0  0  0  0  0  0  0  0  0  0  0  0
   -4.7625    1.4173   -1.7874 C   0  0  0  0  0  0  0  0  0  0  0  0
   -4.3113    0.7502   -3.0687 C   0  0  0  0  0  0  0  0  0  0  0  0
   -2.8849    0.6020   -2.9851 O   0  0  0  0  0  0  0  0  0  0  0  0
    3.4583    0.9282   -0.0952 N   0  0  0  0  0  0  0  0  0  0  0  0
    4.3826   -0.1104    0.1511 C   0  0  0  0  0  0  0  0  0  0  0  0
    5.6732    0.1078    0.6372 C   0  0  0  0  0  0  0  0  0  0  0  0
    6.5405   -0.9685    0.8580 C   0  0  0  0  0  0  0  0  0  0  0  0
    6.1285   -2.2735    0.5970 C   0  0  0  0  0  0  0  0  0  0  0  0
    4.8441   -2.5092    0.1123 C   0  0  0  0  0  0  0  0  0  0  0  0
    3.9782   -1.4351   -0.1089 C   0  0  0  0  0  0  0  0  0  0  0  0
    2.3860   -1.7814   -0.7055 Cl  0  0  0  0  0  0  0  0  0  0  0  0
    2.7069    3.9301   -0.8669 H   0  0  0  0  0  0  0  0  0  0  0  0
    1.9806    3.6007    0.7122 H   0  0  0  0  0  0  0  0  0  0  0  0
   -0.9919   -2.6389    0.5375 H   0  0  0  0  0  0  0  0  0  0  0  0
   -2.6853   -4.3231    1.2288 H   0  0  0  0  0  0  0  0  0  0  0  0
   -4.6852   -1.5996    3.5841 H   0  0  0  0  0  0  0  0  0  0  0  0
   -3.0929    0.2254    2.9991 H   0  0  0  0  0  0  0  0  0  0  0  0
   -1.7099   -0.9612   -1.1077 H   0  0  0  0  0  0  0  0  0  0  0  0
   -0.5545    0.0013   -1.9634 H   0  0  0  0  0  0  0  0  0  0  0  0
   -2.0981    2.0243   -1.7424 H   0  0  0  0  0  0  0  0  0  0  0  0
   -3.9442   -0.0715   -0.4913 H   0  0  0  0  0  0  0  0  0  0  0  0
   -3.6464    1.5851    0.0829 H   0  0  0  0  0  0  0  0  0  0  0  0
   -5.7825    1.1469   -1.5027 H   0  0  0  0  0  0  0  0  0  0  0  0
   -4.7150    2.5069   -1.8957 H   0  0  0  0  0  0  0  0  0  0  0  0
   -4.5700    1.3311   -3.9577 H   0  0  0  0  0  0  0  0  0  0  0  0
   -4.7422   -0.2508   -3.1677 H   0  0  0  0  0  0  0  0  0  0  0  0
    2.5640    0.6176   -0.4560 H   0  0  0  0  0  0  0  0  0  0  0  0
    6.0398    1.1061    0.8543 H   0  0  0  0  0  0  0  0  0  0  0  0
    7.5425   -0.7805    1.2372 H   0  0  0  0  0  0  0  0  0  0  0  0
    6.8080   -3.1038    0.7730 H   0  0  0  0  0  0  0  0  0  0  0  0
    4.5237   -3.5276   -0.0872 H   0  0  0  0  0  0  0  0  0  0  0  0
  1  2  2  0
  2  3  1  0
  3  4  1  0
  4  5  1  0
  5  6  2  0
  6  7  1  0
  7  8  2  0
  8  9  1  0
  9 10  2  0
 10 11  1  0
 11 12  2  0
 12 13  1  0
 13 14  2  0
  8 15  1  0
 15 16  1  0
 16 17  1  0
 17 18  1  0
 18 19  1  0
 19 20  1  0
 20 21  1  0
  2 22  1  0
 22 23  1  0
 23 24  2  0
 24 25  1  0
 25 26  2  0
 26 27  1  0
 27 28  2  0
 28 29  1  0
 15  5  1  0
 21 17  1  0
 28 23  1  0
 14  9  1  0
  3 30  1  0
  3 31  1  0
 10 32  1  0
 11 33  1  0
 13 34  1  0
 14 35  1  0
 16 36  1  0
 16 37  1  0
 17 38  1  0
 18 39  1  0
 18 40  1  0
 19 41  1  0
 19 42  1  0
 20 43  1  0
 20 44  1  0
 22 45  1  0
 24 46  1  0
 25 47  1  0
 26 48  1  0
 27 49  1  0
M  END
$$$$
