
     RDKit          3D

 50 51  0  0  0  0  0  0  0  0999 V2000
    9.4952   -1.0999    1.6136 C   0  0  0  0  0  0  0  0  0  0  0  0
    8.2034   -0.5030    1.4908 O   0  0  0  0  0  0  0  0  0  0  0  0
    7.5916   -0.7557    0.3063 C   0  0  0  0  0  0  0  0  0  0  0  0
    8.0513   -1.4258   -0.6052 O   0  0  0  0  0  0  0  0  0  0  0  0
    6.2569   -0.0986    0.2537 C   0  0  0  0  0  0  0  0  0  0  0  0
    5.4884   -0.2541   -0.9067 C   0  0  0  0  0  0  0  0  0  0  0  0
    4.2295    0.3439   -1.0047 C   0  0  0  0  0  0  0  0  0  0  0  0
    3.7210    1.1110    0.0531 C   0  0  0  0  0  0  0  0  0  0  0  0
    2.3528    1.7343   -0.0545 C   0  0  0  0  0  0  0  0  0  0  0  0
    1.3283    0.7610    0.2432 N   0  0  0  0  0  0  0  0  0  0  0  0
    0.5728    0.1700   -0.7463 C   0  0  0  0  0  0  0  0  0  0  0  0
    0.6897    0.4424   -1.9387 O   0  0  0  0  0  0  0  0  0  0  0  0
   -0.4209   -0.8761   -0.2311 C   0  0  0  0  0  0  0  0  0  0  0  0
   -1.5461   -1.0429   -1.0907 O   0  0  0  0  0  0  0  0  0  0  0  0
   -2.4205    0.0022   -1.0569 C   0  0  0  0  0  0  0  0  0  0  0  0
   -2.3284    0.9637   -0.3064 O   0  0  0  0  0  0  0  0  0  0  0  0
   -3.4954   -0.1965   -2.0996 C   0  0  0  0  0  0  0  0  0  0  0  0
   -4.8029    0.5279   -1.7746 C   0  0  0  0  0  0  0  0  0  0  0  0
   -5.7107   -0.2458   -0.8124 C   0  0  0  0  0  0  0  0  0  0  0  0
   -7.0450    0.4624   -0.5782 C   0  0  0  0  0  0  0  0  0  0  0  0
   -7.6122   -0.2124    0.6655 C   0  0  0  0  0  0  0  0  0  0  0  0
   -6.4088   -0.7526    1.4375 C   0  0  0  0  0  0  0  0  0  0  0  0
   -5.1780   -0.3924    0.6106 C   0  0  0  0  0  0  0  0  0  0  0  0
    4.4882    1.2581    1.2169 C   0  0  0  0  0  0  0  0  0  0  0  0
    5.7489    0.6607    1.3164 C   0  0  0  0  0  0  0  0  0  0  0  0
   10.1727   -0.7102    0.8476 H   0  0  0  0  0  0  0  0  0  0  0  0
    9.4216   -2.1899    1.5504 H   0  0  0  0  0  0  0  0  0  0  0  0
    9.8967   -0.8389    2.5968 H   0  0  0  0  0  0  0  0  0  0  0  0
    5.8654   -0.8425   -1.7416 H   0  0  0  0  0  0  0  0  0  0  0  0
    3.6418    0.2084   -1.9125 H   0  0  0  0  0  0  0  0  0  0  0  0
    2.2458    2.5506    0.6686 H   0  0  0  0  0  0  0  0  0  0  0  0
    2.2102    2.1656   -1.0519 H   0  0  0  0  0  0  0  0  0  0  0  0
    1.2321    0.4548    1.2011 H   0  0  0  0  0  0  0  0  0  0  0  0
    0.1076   -1.8343   -0.1936 H   0  0  0  0  0  0  0  0  0  0  0  0
   -0.7490   -0.6431    0.7890 H   0  0  0  0  0  0  0  0  0  0  0  0
   -3.0902    0.1928   -3.0410 H   0  0  0  0  0  0  0  0  0  0  0  0
   -3.6862   -1.2675   -2.2313 H   0  0  0  0  0  0  0  0  0  0  0  0
   -5.3519    0.6655   -2.7154 H   0  0  0  0  0  0  0  0  0  0  0  0
   -4.6028    1.5332   -1.3840 H   0  0  0  0  0  0  0  0  0  0  0  0
   -5.9094   -1.2439   -1.2262 H   0  0  0  0  0  0  0  0  0  0  0  0
   -6.8901    1.5305   -0.3817 H   0  0  0  0  0  0  0  0  0  0  0  0
   -7.7200    0.3728   -1.4348 H   0  0  0  0  0  0  0  0  0  0  0  0
   -8.2019    0.4879    1.2658 H   0  0  0  0  0  0  0  0  0  0  0  0
   -8.2725   -1.0399    0.3823 H   0  0  0  0  0  0  0  0  0  0  0  0
   -6.4933   -1.8402    1.5431 H   0  0  0  0  0  0  0  0  0  0  0  0
   -6.3477   -0.3294    2.4452 H   0  0  0  0  0  0  0  0  0  0  0  0
   -4.7611    0.5557    0.9706 H   0  0  0  0  0  0  0  0  0  0  0  0
   -4.4020   -1.1592    0.6932 H   0  0  0  0  0  0  0  0  0  0  0  0
    4.1121    1.8425    2.0543 H   0  0  0  0  0  0  0  0  0  0  0  0
    6.3233    0.7969    2.2297 H   0  0  0  0  0  0  0  0  0  0  0  0
  1  2  1  0
  2  3  1  0
  3  4  2  0
  3  5  1  0
  5  6  2  0
  6  7  1  0
  7  8  2  0
  8  9  1  0
  9 10  1  0
 10 11  1  0
 11 12  2  0
 11 13  1  0
 13 14  1  0
 14 15  1  0
 15 16  2  0
 15 17  1  0
 17 18  1  0
 18 19  1  0
 19 20  1  0
 20 21  1  0
 21 22  1  0
 22 23  1  0
  8 24  1  0
 24 25  2  0
 25  5  1  0
 23 19  1  0
  1 26  1  0
  1 27  1  0
  1 28  1  0
  6 29  1  0
  7 30  1  0
  9 31  1  0
  9 32  1  0
 10 33  1  0
 13 34  1  0
 13 35  1  0
 17 36  1  0
 17 37  1  0
 18 38  1  0
 18 39  1  0
 19 40  1  0
 20 41  1  0
 20 42  1  0
 21 43  1  0
 21 44  1  0
 22 45  1  0
 22 46  1  0
 23 47  1  0
 23 48  1  0
 24 49  1  0
 25 50  1  0
M  END
$$$$
