
     RDKit          3D

 35 36  0  0  0  0  0  0  0  0999 V2000
    2.7165   -2.5264   -0.3900 C   0  0  0  0  0  0  0  0  0  0  0  0
    2.0793   -1.3159   -0.0009 O   0  0  0  0  0  0  0  0  0  0  0  0
    2.8820   -0.3221    0.5111 C   0  0  0  0  0  0  0  0  0  0  0  0
    4.2729   -0.3991    0.6299 C   0  0  0  0  0  0  0  0  0  0  0  0
    4.9910    0.6745    1.1605 C   0  0  0  0  0  0  0  0  0  0  0  0
    4.3252    1.8260    1.5725 C   0  0  0  0  0  0  0  0  0  0  0  0
    2.9364    1.9130    1.4573 C   0  0  0  0  0  0  0  0  0  0  0  0
    2.2074    0.8458    0.9294 C   0  0  0  0  0  0  0  0  0  0  0  0
    0.8066    0.8615    0.7826 N   0  0  0  0  0  0  0  0  0  0  0  0
   -0.0933    1.8604    1.0963 C   0  0  0  0  0  0  0  0  0  0  0  0
    0.1629    2.9465    1.6073 O   0  0  0  0  0  0  0  0  0  0  0  0
   -1.5406    1.4554    0.7737 C   0  0  0  0  0  0  0  0  0  0  0  0
   -1.5779    0.4931   -0.3468 N   0  0  0  0  0  0  0  0  0  0  0  0
   -2.8088   -0.0219   -0.7709 C   0  0  0  0  0  0  0  0  0  0  0  0
   -3.9513   -0.0742    0.0393 C   0  0  0  0  0  0  0  0  0  0  0  0
   -5.1318   -0.6744   -0.4130 C   0  0  0  0  0  0  0  0  0  0  0  0
   -5.1717   -1.2566   -1.6729 C   0  0  0  0  0  0  0  0  0  0  0  0
   -6.3123   -1.8287   -2.0853 F   0  0  0  0  0  0  0  0  0  0  0  0
   -4.0409   -1.2544   -2.4800 C   0  0  0  0  0  0  0  0  0  0  0  0
   -4.0679   -1.9954   -4.0341 Cl  0  0  0  0  0  0  0  0  0  0  0  0
   -2.8644   -0.6525   -2.0255 C   0  0  0  0  0  0  0  0  0  0  0  0
    3.4166   -2.3557   -1.2144 H   0  0  0  0  0  0  0  0  0  0  0  0
    1.9416   -3.2106   -0.7489 H   0  0  0  0  0  0  0  0  0  0  0  0
    3.2130   -3.0036    0.4613 H   0  0  0  0  0  0  0  0  0  0  0  0
    4.8292   -1.2765    0.3187 H   0  0  0  0  0  0  0  0  0  0  0  0
    6.0727    0.6126    1.2523 H   0  0  0  0  0  0  0  0  0  0  0  0
    4.8849    2.6616    1.9857 H   0  0  0  0  0  0  0  0  0  0  0  0
    2.4516    2.8256    1.7890 H   0  0  0  0  0  0  0  0  0  0  0  0
    0.4040    0.0105    0.3885 H   0  0  0  0  0  0  0  0  0  0  0  0
   -1.9512    1.0154    1.6885 H   0  0  0  0  0  0  0  0  0  0  0  0
   -2.0980    2.3594    0.5056 H   0  0  0  0  0  0  0  0  0  0  0  0
   -1.0347    0.8365   -1.1414 H   0  0  0  0  0  0  0  0  0  0  0  0
   -3.9539    0.3475    1.0401 H   0  0  0  0  0  0  0  0  0  0  0  0
   -6.0158   -0.6985    0.2170 H   0  0  0  0  0  0  0  0  0  0  0  0
   -1.9795   -0.6788   -2.6570 H   0  0  0  0  0  0  0  0  0  0  0  0
  1  2  1  0
  2  3  1  0
  3  4  2  0
  4  5  1  0
  5  6  2  0
  6  7  1  0
  7  8  2  0
  8  9  1  0
  9 10  1  0
 10 11  2  0
 10 12  1  0
 12 13  1  0
 13 14  1  0
 14 15  2  0
 15 16  1  0
 16 17  2  0
 17 18  1  0
 17 19  1  0
 19 20  1  0
 19 21  2  0
  8  3  1  0
 21 14  1  0
  1 22  1  0
  1 23  1  0
  1 24  1  0
  4 25  1  0
  5 26  1  0
  6 27  1  0
  7 28  1  0
  9 29  1  0
 12 30  1  0
 12 31  1  0
 13 32  1  0
 15 33  1  0
 16 34  1  0
 21 35  1  0
M  END
$$$$
