
     RDKit          3D

 52 55  0  0  0  0  0  0  0  0999 V2000
    7.6569   -1.4577    2.5046 C   0  0  0  0  0  0  0  0  0  0  0  0
    6.2260   -1.1330    2.1831 C   0  0  0  0  0  0  0  0  0  0  0  0
    5.1979   -1.9630    2.6507 C   0  0  0  0  0  0  0  0  0  0  0  0
    3.8560   -1.7041    2.3510 C   0  0  0  0  0  0  0  0  0  0  0  0
    3.6003   -0.5923    1.5541 C   0  0  0  0  0  0  0  0  0  0  0  0
    2.3704   -0.1746    1.1642 O   0  0  0  0  0  0  0  0  0  0  0  0
    2.5306    0.9374    0.3822 C   0  0  0  0  0  0  0  0  0  0  0  0
    1.3692    1.6403   -0.1564 C   0  0  0  0  0  0  0  0  0  0  0  0
    1.4718    2.7962   -0.5760 O   0  0  0  0  0  0  0  0  0  0  0  0
    0.1211    0.9986   -0.1962 N   0  0  0  0  0  0  0  0  0  0  0  0
   -0.0774   -0.4419   -0.0305 C   0  0  0  0  0  0  0  0  0  0  0  0
   -1.3637   -0.9155   -0.7049 C   0  0  0  0  0  0  0  0  0  0  0  0
   -2.5946   -0.2076   -0.1029 C   0  0  0  0  0  0  0  0  0  0  0  0
   -2.8055   -0.8283    1.1833 O   0  0  0  0  0  0  0  0  0  0  0  0
   -3.9026   -0.3978   -0.8806 C   0  0  0  0  0  0  0  0  0  0  0  0
   -3.9767   -1.0180   -2.1359 C   0  0  0  0  0  0  0  0  0  0  0  0
   -5.2022   -1.1791   -2.7893 C   0  0  0  0  0  0  0  0  0  0  0  0
   -6.3812   -0.7270   -2.2014 C   0  0  0  0  0  0  0  0  0  0  0  0
   -6.3495   -0.1019   -0.9508 C   0  0  0  0  0  0  0  0  0  0  0  0
   -7.6191    0.3718   -0.2869 C   0  0  0  0  0  0  0  0  0  0  0  0
   -8.0735   -0.5090    0.6468 F   0  0  0  0  0  0  0  0  0  0  0  0
   -8.6489    0.5546   -1.1597 F   0  0  0  0  0  0  0  0  0  0  0  0
   -7.4667    1.5601    0.3607 F   0  0  0  0  0  0  0  0  0  0  0  0
   -5.1118    0.0482   -0.3020 C   0  0  0  0  0  0  0  0  0  0  0  0
   -2.3033    1.2904    0.1647 C   0  0  0  0  0  0  0  0  0  0  0  0
   -1.0536    1.7854   -0.5568 C   0  0  0  0  0  0  0  0  0  0  0  0
    3.8871    1.2451    0.2919 C   0  0  0  0  0  0  0  0  0  0  0  0
    4.4858    2.3914   -0.4396 C   0  0  0  0  0  0  0  0  0  0  0  0
    4.5783    0.2503    1.0497 C   0  0  0  0  0  0  0  0  0  0  0  0
    5.9219   -0.0262    1.3675 C   0  0  0  0  0  0  0  0  0  0  0  0
    8.2799   -0.5573    2.4764 H   0  0  0  0  0  0  0  0  0  0  0  0
    8.0481   -2.1794    1.7813 H   0  0  0  0  0  0  0  0  0  0  0  0
    7.7430   -1.8795    3.5115 H   0  0  0  0  0  0  0  0  0  0  0  0
    5.4373   -2.8278    3.2683 H   0  0  0  0  0  0  0  0  0  0  0  0
    3.0540   -2.3305    2.7201 H   0  0  0  0  0  0  0  0  0  0  0  0
   -0.1042   -0.6576    1.0434 H   0  0  0  0  0  0  0  0  0  0  0  0
    0.7687   -0.9764   -0.4750 H   0  0  0  0  0  0  0  0  0  0  0  0
   -1.4489   -2.0035   -0.5879 H   0  0  0  0  0  0  0  0  0  0  0  0
   -1.2688   -0.7057   -1.7774 H   0  0  0  0  0  0  0  0  0  0  0  0
   -3.3714   -1.6083    1.0492 H   0  0  0  0  0  0  0  0  0  0  0  0
   -3.0920   -1.3968   -2.6399 H   0  0  0  0  0  0  0  0  0  0  0  0
   -5.2349   -1.6637   -3.7633 H   0  0  0  0  0  0  0  0  0  0  0  0
   -7.3264   -0.8657   -2.7242 H   0  0  0  0  0  0  0  0  0  0  0  0
   -5.0886    0.5212    0.6822 H   0  0  0  0  0  0  0  0  0  0  0  0
   -2.1687    1.4559    1.2418 H   0  0  0  0  0  0  0  0  0  0  0  0
   -3.1411    1.9307   -0.1367 H   0  0  0  0  0  0  0  0  0  0  0  0
   -1.1783    1.7223   -1.6440 H   0  0  0  0  0  0  0  0  0  0  0  0
   -0.8908    2.8400   -0.3100 H   0  0  0  0  0  0  0  0  0  0  0  0
    4.2120    3.3361    0.0409 H   0  0  0  0  0  0  0  0  0  0  0  0
    5.5780    2.3297   -0.4611 H   0  0  0  0  0  0  0  0  0  0  0  0
    4.1363    2.4115   -1.4767 H   0  0  0  0  0  0  0  0  0  0  0  0
    6.7137    0.6125    0.9874 H   0  0  0  0  0  0  0  0  0  0  0  0
  1  2  1  0
  2  3  2  0
  3  4  1  0
  4  5  2  0
  5  6  1  0
  6  7  1  0
  7  8  1  0
  8  9  2  0
  8 10  1  0
 10 11  1  0
 11 12  1  0
 12 13  1  0
 13 14  1  0
 13 15  1  0
 15 16  2  0
 16 17  1  0
 17 18  2  0
 18 19  1  0
 19 20  1  0
 20 21  1  0
 20 22  1  0
 20 23  1  0
 19 24  2  0
 13 25  1  0
 25 26  1  0
  7 27  2  0
 27 28  1  0
 27 29  1  0
 29 30  2  0
 30  2  1  0
 29  5  1  0
 26 10  1  0
 24 15  1  0
  1 31  1  0
  1 32  1  0
  1 33  1  0
  3 34  1  0
  4 35  1  0
 11 36  1  0
 11 37  1  0
 12 38  1  0
 12 39  1  0
 14 40  1  0
 16 41  1  0
 17 42  1  0
 18 43  1  0
 24 44  1  0
 25 45  1  0
 25 46  1  0
 26 47  1  0
 26 48  1  0
 28 49  1  0
 28 50  1  0
 28 51  1  0
 30 52  1  0
M  END
$$$$
