
     RDKit          3D

 47 49  0  0  0  0  0  0  0  0999 V2000
    6.8574    1.0681    1.5460 C   0  0  0  0  0  0  0  0  0  0  0  0
    6.1941    0.0852    0.5877 C   0  0  0  0  0  0  0  0  0  0  0  0
    6.9246    0.0564   -0.7527 C   0  0  0  0  0  0  0  0  0  0  0  0
    4.7979    0.4353    0.4002 N   0  0  0  0  0  0  0  0  0  0  0  0
    3.8488   -0.4884    0.0187 C   0  0  0  0  0  0  0  0  0  0  0  0
    4.0152   -1.6945   -0.0863 O   0  0  0  0  0  0  0  0  0  0  0  0
    2.4744    0.1344   -0.2949 C   0  0  0  0  0  0  0  0  0  0  0  0
    2.3027    1.3457   -0.2181 O   0  0  0  0  0  0  0  0  0  0  0  0
    1.5140   -0.7899   -0.6452 N   0  0  0  0  0  0  0  0  0  0  0  0
    0.1736   -0.3738   -0.6789 N   0  0  0  0  0  0  0  0  0  0  0  0
   -0.7656   -1.2158   -0.1125 C   0  0  0  0  0  0  0  0  0  0  0  0
   -0.4762   -2.3588    0.2405 O   0  0  0  0  0  0  0  0  0  0  0  0
   -2.1714   -0.6170    0.0410 C   0  0  0  0  0  0  0  0  0  0  0  0
   -2.1499    0.5865    1.0143 C   0  0  0  0  0  0  0  0  0  0  0  0
   -3.5636    1.1724    1.1787 C   0  0  0  0  0  0  0  0  0  0  0  0
   -4.5011    0.0910    1.7389 C   0  0  0  0  0  0  0  0  0  0  0  0
   -4.5550   -1.1070    0.7776 C   0  0  0  0  0  0  0  0  0  0  0  0
   -5.0710   -0.6386   -0.5923 C   0  0  0  0  0  0  0  0  0  0  0  0
   -4.1370    0.4391   -1.1653 C   0  0  0  0  0  0  0  0  0  0  0  0
   -4.0831    1.6313   -0.1946 C   0  0  0  0  0  0  0  0  0  0  0  0
   -2.7228   -0.1460   -1.3264 C   0  0  0  0  0  0  0  0  0  0  0  0
   -3.1399   -1.6846    0.6130 C   0  0  0  0  0  0  0  0  0  0  0  0
    6.8304    2.0898    1.1508 H   0  0  0  0  0  0  0  0  0  0  0  0
    6.3410    1.0751    2.5122 H   0  0  0  0  0  0  0  0  0  0  0  0
    7.9035    0.7975    1.7228 H   0  0  0  0  0  0  0  0  0  0  0  0
    6.2349   -0.9190    1.0265 H   0  0  0  0  0  0  0  0  0  0  0  0
    7.9759   -0.2186   -0.6189 H   0  0  0  0  0  0  0  0  0  0  0  0
    6.8864    1.0342   -1.2457 H   0  0  0  0  0  0  0  0  0  0  0  0
    6.4697   -0.6723   -1.4324 H   0  0  0  0  0  0  0  0  0  0  0  0
    4.5249    1.4123    0.3242 H   0  0  0  0  0  0  0  0  0  0  0  0
    1.6898   -1.7829   -0.4674 H   0  0  0  0  0  0  0  0  0  0  0  0
    0.0265    0.6326   -0.7279 H   0  0  0  0  0  0  0  0  0  0  0  0
   -1.7575    0.2743    1.9910 H   0  0  0  0  0  0  0  0  0  0  0  0
   -1.4766    1.3733    0.6527 H   0  0  0  0  0  0  0  0  0  0  0  0
   -3.5318    2.0254    1.8657 H   0  0  0  0  0  0  0  0  0  0  0  0
   -5.5075    0.5039    1.8797 H   0  0  0  0  0  0  0  0  0  0  0  0
   -4.1498   -0.2351    2.7255 H   0  0  0  0  0  0  0  0  0  0  0  0
   -5.2237   -1.8753    1.1815 H   0  0  0  0  0  0  0  0  0  0  0  0
   -5.1294   -1.4895   -1.2821 H   0  0  0  0  0  0  0  0  0  0  0  0
   -6.0877   -0.2390   -0.4929 H   0  0  0  0  0  0  0  0  0  0  0  0
   -4.5116    0.7723   -2.1396 H   0  0  0  0  0  0  0  0  0  0  0  0
   -5.0819    2.0723   -0.0883 H   0  0  0  0  0  0  0  0  0  0  0  0
   -3.4308    2.4149   -0.5994 H   0  0  0  0  0  0  0  0  0  0  0  0
   -2.0686    0.6145   -1.7712 H   0  0  0  0  0  0  0  0  0  0  0  0
   -2.7424   -0.9848   -2.0344 H   0  0  0  0  0  0  0  0  0  0  0  0
   -2.7763   -2.0472    1.5837 H   0  0  0  0  0  0  0  0  0  0  0  0
   -3.1739   -2.5597   -0.0494 H   0  0  0  0  0  0  0  0  0  0  0  0
  1  2  1  0
  2  3  1  0
  2  4  1  0
  4  5  1  0
  5  6  2  0
  5  7  1  0
  7  8  2  0
  7  9  1  0
  9 10  1  0
 10 11  1  0
 11 12  2  0
 11 13  1  0
 13 14  1  0
 14 15  1  0
 15 16  1  0
 16 17  1  0
 17 18  1  0
 18 19  1  0
 19 20  1  0
 19 21  1  0
 17 22  1  0
 21 13  1  0
 22 13  1  0
 20 15  1  0
  1 23  1  0
  1 24  1  0
  1 25  1  0
  2 26  1  0
  3 27  1  0
  3 28  1  0
  3 29  1  0
  4 30  1  0
  9 31  1  0
 10 32  1  0
 14 33  1  0
 14 34  1  0
 15 35  1  0
 16 36  1  0
 16 37  1  0
 17 38  1  0
 18 39  1  0
 18 40  1  0
 19 41  1  0
 20 42  1  0
 20 43  1  0
 21 44  1  0
 21 45  1  0
 22 46  1  0
 22 47  1  0
M  END
$$$$
