
     RDKit          3D

 56 58  0  0  0  0  0  0  0  0999 V2000
   -9.1424    0.8443   -1.5321 C   0  0  0  0  0  0  0  0  0  0  0  0
   -8.3152    1.0173   -0.3914 O   0  0  0  0  0  0  0  0  0  0  0  0
   -7.0115    0.5947   -0.4788 C   0  0  0  0  0  0  0  0  0  0  0  0
   -6.4376    0.0338   -1.6248 C   0  0  0  0  0  0  0  0  0  0  0  0
   -5.0990   -0.3670   -1.6243 C   0  0  0  0  0  0  0  0  0  0  0  0
   -4.3157   -0.2165   -0.4772 C   0  0  0  0  0  0  0  0  0  0  0  0
   -2.8646   -0.6286   -0.4744 C   0  0  0  0  0  0  0  0  0  0  0  0
   -1.9367    0.5606   -0.7355 C   0  0  0  0  0  0  0  0  0  0  0  0
   -0.5382    0.1748   -0.7382 N   0  0  0  0  0  0  0  0  0  0  0  0
    0.1458   -0.0286    0.4349 C   0  0  0  0  0  0  0  0  0  0  0  0
   -0.3570    0.0860    1.5459 O   0  0  0  0  0  0  0  0  0  0  0  0
    1.5479   -0.5049    0.2713 C   0  0  0  0  0  0  0  0  0  0  0  0
    2.3461   -0.0902   -0.7302 C   0  0  0  0  0  0  0  0  0  0  0  0
    3.7777   -0.5089   -0.8968 C   0  0  0  0  0  0  0  0  0  0  0  0
    4.2863   -1.2775    0.2618 N   0  0  0  0  0  0  0  0  0  0  0  0
    5.2333   -0.4216    1.3874 S   0  0  0  0  0  6  0  0  0  0  0  0
    5.6564   -1.3384    2.4236 O   0  0  0  0  0  0  0  0  0  0  0  0
    4.5473    0.8124    1.7025 O   0  0  0  0  0  0  0  0  0  0  0  0
    6.6833   -0.0239    0.4354 C   0  0  0  0  0  0  0  0  0  0  0  0
    7.4883   -1.0680   -0.0372 C   0  0  0  0  0  0  0  0  0  0  0  0
    8.6269   -0.7686   -0.7851 C   0  0  0  0  0  0  0  0  0  0  0  0
    8.9477    0.5612   -1.0454 C   0  0  0  0  0  0  0  0  0  0  0  0
   10.0405    0.8449   -1.7655 F   0  0  0  0  0  0  0  0  0  0  0  0
    8.1535    1.6016   -0.5695 C   0  0  0  0  0  0  0  0  0  0  0  0
    7.0125    1.3120    0.1797 C   0  0  0  0  0  0  0  0  0  0  0  0
    3.2799   -2.2040    0.8428 C   0  0  0  0  0  0  0  0  0  0  0  0
    2.0423   -1.4540    1.3257 C   0  0  0  0  0  0  0  0  0  0  0  0
   -4.8884    0.3494    0.6723 C   0  0  0  0  0  0  0  0  0  0  0  0
   -6.2286    0.7556    0.6816 C   0  0  0  0  0  0  0  0  0  0  0  0
   -6.8612    1.3171    1.7637 O   0  0  0  0  0  0  0  0  0  0  0  0
   -6.1028    1.4920    2.9520 C   0  0  0  0  0  0  0  0  0  0  0  0
   -8.7723    1.4291   -2.3806 H   0  0  0  0  0  0  0  0  0  0  0  0
  -10.1399    1.2182   -1.2819 H   0  0  0  0  0  0  0  0  0  0  0  0
   -9.2408   -0.2146   -1.7930 H   0  0  0  0  0  0  0  0  0  0  0  0
   -7.0064   -0.1045   -2.5378 H   0  0  0  0  0  0  0  0  0  0  0  0
   -4.6763   -0.7992   -2.5285 H   0  0  0  0  0  0  0  0  0  0  0  0
   -2.6962   -1.4053   -1.2317 H   0  0  0  0  0  0  0  0  0  0  0  0
   -2.6271   -1.1029    0.4863 H   0  0  0  0  0  0  0  0  0  0  0  0
   -2.0806    1.3376    0.0248 H   0  0  0  0  0  0  0  0  0  0  0  0
   -2.1475    1.0087   -1.7129 H   0  0  0  0  0  0  0  0  0  0  0  0
   -0.1184   -0.0995   -1.6146 H   0  0  0  0  0  0  0  0  0  0  0  0
    1.9894    0.6334   -1.4580 H   0  0  0  0  0  0  0  0  0  0  0  0
    3.8678   -1.1375   -1.7902 H   0  0  0  0  0  0  0  0  0  0  0  0
    4.3896    0.3790   -1.0829 H   0  0  0  0  0  0  0  0  0  0  0  0
    7.2340   -2.1033    0.1798 H   0  0  0  0  0  0  0  0  0  0  0  0
    9.2688   -1.5593   -1.1614 H   0  0  0  0  0  0  0  0  0  0  0  0
    8.4327    2.6294   -0.7812 H   0  0  0  0  0  0  0  0  0  0  0  0
    6.3951    2.1231    0.5599 H   0  0  0  0  0  0  0  0  0  0  0  0
    3.0034   -2.9309    0.0672 H   0  0  0  0  0  0  0  0  0  0  0  0
    3.7160   -2.7940    1.6557 H   0  0  0  0  0  0  0  0  0  0  0  0
    1.2661   -2.1866    1.5762 H   0  0  0  0  0  0  0  0  0  0  0  0
    2.2691   -0.8916    2.2392 H   0  0  0  0  0  0  0  0  0  0  0  0
   -4.2616    0.4628    1.5524 H   0  0  0  0  0  0  0  0  0  0  0  0
   -5.7608    0.5301    3.3480 H   0  0  0  0  0  0  0  0  0  0  0  0
   -5.2633    2.1756    2.7882 H   0  0  0  0  0  0  0  0  0  0  0  0
   -6.7575    1.9453    3.7025 H   0  0  0  0  0  0  0  0  0  0  0  0
  1  2  1  0
  2  3  1  0
  3  4  2  0
  4  5  1  0
  5  6  2  0
  6  7  1  0
  7  8  1  0
  8  9  1  0
  9 10  1  0
 10 11  2  0
 10 12  1  0
 12 13  2  0
 13 14  1  0
 14 15  1  0
 15 16  1  0
 16 17  2  0
 16 18  2  0
 16 19  1  0
 19 20  2  0
 20 21  1  0
 21 22  2  0
 22 23  1  0
 22 24  1  0
 24 25  2  0
 15 26  1  0
 26 27  1  0
  6 28  1  0
 28 29  2  0
 29 30  1  0
 30 31  1  0
 29  3  1  0
 27 12  1  0
 25 19  1  0
  1 32  1  0
  1 33  1  0
  1 34  1  0
  4 35  1  0
  5 36  1  0
  7 37  1  0
  7 38  1  0
  8 39  1  0
  8 40  1  0
  9 41  1  0
 13 42  1  0
 14 43  1  0
 14 44  1  0
 20 45  1  0
 21 46  1  0
 24 47  1  0
 25 48  1  0
 26 49  1  0
 26 50  1  0
 27 51  1  0
 27 52  1  0
 28 53  1  0
 31 54  1  0
 31 55  1  0
 31 56  1  0
M  END
$$$$
