
     RDKit          3D

 47 49  0  0  0  0  0  0  0  0999 V2000
   -8.3472    0.9204    1.0073 C   0  0  0  0  0  0  0  0  0  0  0  0
   -7.6565    0.1020    0.0748 O   0  0  0  0  0  0  0  0  0  0  0  0
   -6.3169    0.3381   -0.1112 C   0  0  0  0  0  0  0  0  0  0  0  0
   -5.5917    1.3370    0.5457 C   0  0  0  0  0  0  0  0  0  0  0  0
   -4.2272    1.5027    0.2925 C   0  0  0  0  0  0  0  0  0  0  0  0
   -3.5703    0.6701   -0.6158 C   0  0  0  0  0  0  0  0  0  0  0  0
   -2.1425    0.8855   -0.8772 C   0  0  0  0  0  0  0  0  0  0  0  0
   -1.1533    0.0113   -0.6474 C   0  0  0  0  0  0  0  0  0  0  0  0
   -1.2620   -1.5680    0.0156 S   0  0  0  0  0  0  0  0  0  0  0  0
    0.4767   -1.8255   -0.0636 C   0  0  0  0  0  0  0  0  0  0  0  0
    1.1891   -3.2338    0.4757 S   0  0  0  0  0  0  0  0  0  0  0  0
    1.0885   -0.7185   -0.6149 N   0  0  0  0  0  0  0  0  0  0  0  0
    2.5341   -0.5716   -0.8130 C   0  0  0  0  0  0  0  0  0  0  0  0
    3.2053    0.0863    0.3872 C   0  0  0  0  0  0  0  0  0  0  0  0
    4.6988    0.2073    0.1775 C   0  0  0  0  0  0  0  0  0  0  0  0
    5.2480   -0.1582   -0.8599 O   0  0  0  0  0  0  0  0  0  0  0  0
    5.3323    0.7794    1.2496 N   0  0  0  0  0  0  0  0  0  0  0  0
    6.5991    0.6171    1.3627 C   0  0  0  0  0  0  0  0  0  0  0  0
    7.4991   -0.0593    0.5900 N   0  0  0  0  0  0  0  0  0  0  0  0
    8.8796    0.3355    0.7733 C   0  0  0  0  0  0  0  0  0  0  0  0
    9.0292    0.6719    2.2533 C   0  0  0  0  0  0  0  0  0  0  0  0
    7.4222    1.3963    2.7149 S   0  0  0  0  0  0  0  0  0  0  0  0
    0.2658    0.3482   -0.9344 C   0  0  0  0  0  0  0  0  0  0  0  0
    0.6312    1.4295   -1.3748 O   0  0  0  0  0  0  0  0  0  0  0  0
   -4.2954   -0.3230   -1.2865 C   0  0  0  0  0  0  0  0  0  0  0  0
   -5.6616   -0.5021   -1.0339 C   0  0  0  0  0  0  0  0  0  0  0  0
   -6.4431   -1.4531   -1.6440 O   0  0  0  0  0  0  0  0  0  0  0  0
   -5.7896   -2.4233   -2.4496 C   0  0  0  0  0  0  0  0  0  0  0  0
   -7.9378    0.8029    2.0160 H   0  0  0  0  0  0  0  0  0  0  0  0
   -9.3906    0.5915    1.0325 H   0  0  0  0  0  0  0  0  0  0  0  0
   -8.3376    1.9698    0.6950 H   0  0  0  0  0  0  0  0  0  0  0  0
   -6.0580    2.0054    1.2614 H   0  0  0  0  0  0  0  0  0  0  0  0
   -3.6843    2.2871    0.8158 H   0  0  0  0  0  0  0  0  0  0  0  0
   -1.9033    1.8714   -1.2753 H   0  0  0  0  0  0  0  0  0  0  0  0
    2.7009    0.0376   -1.7104 H   0  0  0  0  0  0  0  0  0  0  0  0
    2.9796   -1.5514   -1.0152 H   0  0  0  0  0  0  0  0  0  0  0  0
    2.7955    1.0896    0.5506 H   0  0  0  0  0  0  0  0  0  0  0  0
    3.0301   -0.5026    1.2945 H   0  0  0  0  0  0  0  0  0  0  0  0
    7.1773   -0.2508   -0.3589 H   0  0  0  0  0  0  0  0  0  0  0  0
    9.0996    1.2116    0.1516 H   0  0  0  0  0  0  0  0  0  0  0  0
    9.5612   -0.4683    0.4788 H   0  0  0  0  0  0  0  0  0  0  0  0
    9.8545    1.3637    2.4401 H   0  0  0  0  0  0  0  0  0  0  0  0
    9.1808   -0.2366    2.8450 H   0  0  0  0  0  0  0  0  0  0  0  0
   -3.7780   -0.9434   -2.0105 H   0  0  0  0  0  0  0  0  0  0  0  0
   -5.3575   -1.9634   -3.3442 H   0  0  0  0  0  0  0  0  0  0  0  0
   -6.5423   -3.1460   -2.7793 H   0  0  0  0  0  0  0  0  0  0  0  0
   -5.0316   -2.9702   -1.8790 H   0  0  0  0  0  0  0  0  0  0  0  0
  1  2  1  0
  2  3  1  0
  3  4  2  0
  4  5  1  0
  5  6  2  0
  6  7  1  0
  7  8  2  3
  8  9  1  0
  9 10  1  0
 10 11  2  0
 10 12  1  0
 12 13  1  0
 13 14  1  0
 14 15  1  0
 15 16  2  0
 15 17  1  0
 17 18  2  3
 18 19  1  0
 19 20  1  0
 20 21  1  0
 21 22  1  0
 12 23  1  0
 23 24  2  0
  6 25  1  0
 25 26  2  0
 26 27  1  0
 27 28  1  0
 26  3  1  0
 23  8  1  0
 22 18  1  0
  1 29  1  0
  1 30  1  0
  1 31  1  0
  4 32  1  0
  5 33  1  0
  7 34  1  0
 13 35  1  0
 13 36  1  0
 14 37  1  0
 14 38  1  0
 19 39  1  0
 20 40  1  0
 20 41  1  0
 21 42  1  0
 21 43  1  0
 25 44  1  0
 28 45  1  0
 28 46  1  0
 28 47  1  0
M  END
$$$$
