
     RDKit          3D

 41 44  0  0  0  0  0  0  0  0999 V2000
   -2.1468   -0.0917   -2.3480 C   0  0  0  0  0  0  0  0  0  0  0  0
   -1.7711   -0.5628   -0.9387 C   0  0  0  0  0  0  0  0  0  0  0  0
   -2.9043   -1.4234   -0.3265 C   0  0  0  0  0  0  0  0  0  0  0  0
   -3.6061   -0.4031    0.5064 C   0  0  0  0  0  0  0  0  0  0  0  0
   -4.8578   -0.4959    1.0946 C   0  0  0  0  0  0  0  0  0  0  0  0
   -5.3043    0.5795    1.8596 C   0  0  0  0  0  0  0  0  0  0  0  0
   -4.4939    1.7100    2.0308 C   0  0  0  0  0  0  0  0  0  0  0  0
   -3.2272    1.7800    1.4376 C   0  0  0  0  0  0  0  0  0  0  0  0
   -2.7849    0.7197    0.6637 C   0  0  0  0  0  0  0  0  0  0  0  0
   -1.5498    0.5674    0.0106 N   0  0  0  0  0  0  0  0  0  0  0  0
   -0.8041    1.7687   -0.4122 C   0  0  0  0  0  0  0  0  0  0  0  0
    0.6686    1.4325   -0.6934 C   0  0  0  0  0  0  0  0  0  0  0  0
    1.3111    2.0280   -1.5524 O   0  0  0  0  0  0  0  0  0  0  0  0
    1.1382    0.4527    0.1669 N   0  0  0  0  0  0  0  0  0  0  0  0
    2.4261   -0.1013    0.2444 C   0  0  0  0  0  0  0  0  0  0  0  0
    2.6182   -1.1335    1.1900 C   0  0  0  0  0  0  0  0  0  0  0  0
    3.8641   -1.7515    1.3446 C   0  0  0  0  0  0  0  0  0  0  0  0
    4.8943   -1.3165    0.5431 C   0  0  0  0  0  0  0  0  0  0  0  0
    4.7156   -0.3121   -0.3778 C   0  0  0  0  0  0  0  0  0  0  0  0
    3.4973    0.3152   -0.5516 C   0  0  0  0  0  0  0  0  0  0  0  0
    5.8569   -0.0331   -1.0649 O   0  0  0  0  0  0  0  0  0  0  0  0
    6.7715   -0.9749   -0.4689 C   0  0  0  0  0  0  0  0  0  0  0  0
    6.1662   -1.7955    0.5521 O   0  0  0  0  0  0  0  0  0  0  0  0
   -3.0124    0.5794   -2.3385 H   0  0  0  0  0  0  0  0  0  0  0  0
   -1.3150    0.4411   -2.8200 H   0  0  0  0  0  0  0  0  0  0  0  0
   -2.3874   -0.9472   -2.9882 H   0  0  0  0  0  0  0  0  0  0  0  0
   -0.8616   -1.1705   -1.0147 H   0  0  0  0  0  0  0  0  0  0  0  0
   -2.4915   -2.2030    0.3232 H   0  0  0  0  0  0  0  0  0  0  0  0
   -3.5540   -1.8754   -1.0814 H   0  0  0  0  0  0  0  0  0  0  0  0
   -5.4748   -1.3790    0.9665 H   0  0  0  0  0  0  0  0  0  0  0  0
   -6.2824    0.5401    2.3325 H   0  0  0  0  0  0  0  0  0  0  0  0
   -4.8494    2.5389    2.6382 H   0  0  0  0  0  0  0  0  0  0  0  0
   -2.6160    2.6587    1.6059 H   0  0  0  0  0  0  0  0  0  0  0  0
   -0.7821    2.5217    0.3834 H   0  0  0  0  0  0  0  0  0  0  0  0
   -1.2528    2.2233   -1.3012 H   0  0  0  0  0  0  0  0  0  0  0  0
    0.4126    0.0676    0.7702 H   0  0  0  0  0  0  0  0  0  0  0  0
    1.7937   -1.4646    1.8176 H   0  0  0  0  0  0  0  0  0  0  0  0
    4.0149   -2.5431    2.0693 H   0  0  0  0  0  0  0  0  0  0  0  0
    3.4101    1.1026   -1.2896 H   0  0  0  0  0  0  0  0  0  0  0  0
    7.6057   -0.4204   -0.0238 H   0  0  0  0  0  0  0  0  0  0  0  0
    7.1645   -1.6286   -1.2562 H   0  0  0  0  0  0  0  0  0  0  0  0
  1  2  1  0
  2  3  1  0
  3  4  1  0
  4  5  2  0
  5  6  1  0
  6  7  2  0
  7  8  1  0
  8  9  2  0
  9 10  1  0
 10 11  1  0
 11 12  1  0
 12 13  2  0
 12 14  1  0
 14 15  1  0
 15 16  2  0
 16 17  1  0
 17 18  2  0
 18 19  1  0
 19 20  2  0
 19 21  1  0
 21 22  1  0
 22 23  1  0
 10  2  1  0
 20 15  1  0
  9  4  1  0
 23 18  1  0
  1 24  1  0
  1 25  1  0
  1 26  1  0
  2 27  1  0
  3 28  1  0
  3 29  1  0
  5 30  1  0
  6 31  1  0
  7 32  1  0
  8 33  1  0
 11 34  1  0
 11 35  1  0
 14 36  1  0
 16 37  1  0
 17 38  1  0
 20 39  1  0
 22 40  1  0
 22 41  1  0
M  END
$$$$
