
     RDKit          3D

 43 45  0  0  0  0  0  0  0  0999 V2000
    4.9163   -1.7825    2.1171 C   0  0  0  0  0  0  0  0  0  0  0  0
    3.7296   -1.0340    2.3565 O   0  0  0  0  0  0  0  0  0  0  0  0
    3.2248   -0.3183    1.3011 C   0  0  0  0  0  0  0  0  0  0  0  0
    1.8264   -0.1865    1.3528 C   0  0  0  0  0  0  0  0  0  0  0  0
    1.1121    0.5148    0.3688 C   0  0  0  0  0  0  0  0  0  0  0  0
   -0.3541    0.6324    0.5254 C   0  0  0  0  0  0  0  0  0  0  0  0
   -0.9001    1.8933    0.9242 C   0  0  0  0  0  0  0  0  0  0  0  0
   -1.2959    2.9301    1.2622 N   0  0  0  0  0  0  0  0  0  0  0  0
   -1.1143   -0.4594    0.3100 C   0  0  0  0  0  0  0  0  0  0  0  0
   -2.5801   -0.5065    0.4578 C   0  0  0  0  0  0  0  0  0  0  0  0
   -3.1011   -0.5766    1.7593 C   0  0  0  0  0  0  0  0  0  0  0  0
   -4.4754   -0.6300    1.9661 C   0  0  0  0  0  0  0  0  0  0  0  0
   -5.3418   -0.6190    0.8756 C   0  0  0  0  0  0  0  0  0  0  0  0
   -4.8498   -0.5526   -0.4369 C   0  0  0  0  0  0  0  0  0  0  0  0
   -5.7389   -0.5402   -1.5245 C   0  0  0  0  0  0  0  0  0  0  0  0
   -5.2696   -0.4697   -2.8353 C   0  0  0  0  0  0  0  0  0  0  0  0
   -3.9035   -0.4102   -3.0760 C   0  0  0  0  0  0  0  0  0  0  0  0
   -3.0064   -0.4232   -2.0058 C   0  0  0  0  0  0  0  0  0  0  0  0
   -3.4516   -0.4945   -0.6647 C   0  0  0  0  0  0  0  0  0  0  0  0
    1.8556    1.0861   -0.6740 C   0  0  0  0  0  0  0  0  0  0  0  0
    1.2013    1.7835   -1.7726 N   0  0  0  0  0  4  0  0  0  0  0  0
    0.2561    1.2096   -2.3277 O   0  0  0  0  0  0  0  0  0  0  0  0
    1.6686    2.8816   -2.1002 O   0  0  0  0  0  1  0  0  0  0  0  0
    3.2583    0.9914   -0.7255 C   0  0  0  0  0  0  0  0  0  0  0  0
    3.9551    0.3025    0.2726 C   0  0  0  0  0  0  0  0  0  0  0  0
    5.3191    0.2045    0.3053 O   0  0  0  0  0  0  0  0  0  0  0  0
    6.0731    1.0505   -0.5557 C   0  0  0  0  0  0  0  0  0  0  0  0
    4.9177   -2.2526    1.1274 H   0  0  0  0  0  0  0  0  0  0  0  0
    5.8017   -1.1583    2.2691 H   0  0  0  0  0  0  0  0  0  0  0  0
    4.9543   -2.5856    2.8602 H   0  0  0  0  0  0  0  0  0  0  0  0
    1.2984   -0.6462    2.1893 H   0  0  0  0  0  0  0  0  0  0  0  0
   -0.6726   -1.4022   -0.0071 H   0  0  0  0  0  0  0  0  0  0  0  0
   -2.4398   -0.5885    2.6230 H   0  0  0  0  0  0  0  0  0  0  0  0
   -4.8737   -0.6779    2.9764 H   0  0  0  0  0  0  0  0  0  0  0  0
   -6.4136   -0.6589    1.0595 H   0  0  0  0  0  0  0  0  0  0  0  0
   -6.8132   -0.5819   -1.3570 H   0  0  0  0  0  0  0  0  0  0  0  0
   -5.9711   -0.4560   -3.6650 H   0  0  0  0  0  0  0  0  0  0  0  0
   -3.5299   -0.3470   -4.0948 H   0  0  0  0  0  0  0  0  0  0  0  0
   -1.9449   -0.3676   -2.2360 H   0  0  0  0  0  0  0  0  0  0  0  0
    3.7819    1.4592   -1.5553 H   0  0  0  0  0  0  0  0  0  0  0  0
    5.9550    0.7466   -1.6006 H   0  0  0  0  0  0  0  0  0  0  0  0
    5.8066    2.1035   -0.4149 H   0  0  0  0  0  0  0  0  0  0  0  0
    7.1293    0.9363   -0.2939 H   0  0  0  0  0  0  0  0  0  0  0  0
  1  2  1  0
  2  3  1  0
  3  4  2  0
  4  5  1  0
  5  6  1  0
  6  7  1  0
  7  8  3  0
  6  9  2  3
  9 10  1  0
 10 11  2  0
 11 12  1  0
 12 13  2  0
 13 14  1  0
 14 15  2  0
 15 16  1  0
 16 17  2  0
 17 18  1  0
 18 19  2  0
  5 20  2  0
 20 21  1  0
 21 22  2  0
 21 23  1  0
 20 24  1  0
 24 25  2  0
 25 26  1  0
 26 27  1  0
 25  3  1  0
 19 10  1  0
 19 14  1  0
  1 28  1  0
  1 29  1  0
  1 30  1  0
  4 31  1  0
  9 32  1  0
 11 33  1  0
 12 34  1  0
 13 35  1  0
 15 36  1  0
 16 37  1  0
 17 38  1  0
 18 39  1  0
 24 40  1  0
 27 41  1  0
 27 42  1  0
 27 43  1  0
M  CHG  2  21   1  23  -1
M  END
$$$$
