
     RDKit          3D

 66 69  0  0  0  0  0  0  0  0999 V2000
    0.2917    6.8862   -3.6104 C   0  0  0  0  0  0  0  0  0  0  0  0
    0.1501    5.5825   -3.0424 O   0  0  0  0  0  0  0  0  0  0  0  0
   -0.1196    5.5872   -1.7133 C   0  0  0  0  0  0  0  0  0  0  0  0
   -0.2350    6.5791   -1.0105 O   0  0  0  0  0  0  0  0  0  0  0  0
   -0.2639    4.1963   -1.2021 C   0  0  0  0  0  0  0  0  0  0  0  0
   -0.1612    3.0740   -2.0320 C   0  0  0  0  0  0  0  0  0  0  0  0
   -0.3074    1.7876   -1.5014 C   0  0  0  0  0  0  0  0  0  0  0  0
   -0.5542    1.5983   -0.1308 C   0  0  0  0  0  0  0  0  0  0  0  0
   -0.7218    0.2106    0.4791 C   0  0  0  0  0  0  0  0  0  0  0  0
   -1.9950   -0.4937   -0.0554 C   0  0  0  0  0  0  0  0  0  0  0  0
   -2.7986   -1.1428    1.0513 C   0  0  0  0  0  0  0  0  0  0  0  0
   -2.3544   -1.2392    2.1961 O   0  0  0  0  0  0  0  0  0  0  0  0
   -4.1676   -1.6815    0.7671 C   0  0  0  0  0  0  0  0  0  0  0  0
   -4.8105   -1.5242   -0.4644 C   0  0  0  0  0  0  0  0  0  0  0  0
   -6.0894   -2.0533   -0.6601 C   0  0  0  0  0  0  0  0  0  0  0  0
   -6.7369   -2.7424    0.3681 C   0  0  0  0  0  0  0  0  0  0  0  0
   -6.1067   -2.9077    1.6000 C   0  0  0  0  0  0  0  0  0  0  0  0
   -6.6244   -3.5596    2.6847 O   0  0  0  0  0  0  0  0  0  0  0  0
   -7.8522   -4.2550    2.4950 C   0  0  0  0  0  0  0  0  0  0  0  0
   -4.8298   -2.3708    1.7948 C   0  0  0  0  0  0  0  0  0  0  0  0
   -1.4069   -1.5158   -0.9778 C   0  0  0  0  0  0  0  0  0  0  0  0
   -2.0061   -2.1420   -1.8323 O   0  0  0  0  0  0  0  0  0  0  0  0
    0.0798   -1.6707   -0.6967 C   0  0  0  0  0  0  0  0  0  0  0  0
    0.7861   -2.5324   -1.1722 O   0  0  0  0  0  0  0  0  0  0  0  0
    0.4058   -0.6562    0.1663 N   0  0  0  0  0  0  0  0  0  0  0  0
    1.7276   -0.4913    0.7567 C   0  0  0  0  0  0  0  0  0  0  0  0
    2.7280    0.1263   -0.2205 C   0  0  0  0  0  0  0  0  0  0  0  0
    4.1194    0.3184    0.3978 C   0  0  0  0  0  0  0  0  0  0  0  0
    4.7306   -0.9154    0.9090 N   0  0  0  0  0  0  0  0  0  0  0  0
    4.9259   -1.9264   -0.1583 C   0  0  0  0  0  0  0  0  0  0  0  0
    6.0404   -2.9260    0.1873 C   0  0  0  0  0  0  0  0  0  0  0  0
    7.3259   -2.3010    0.3110 O   0  0  0  0  0  0  0  0  0  0  0  0
    7.2489   -0.9390    0.7520 C   0  0  0  0  0  0  0  0  0  0  0  0
    6.0072   -0.6499    1.6100 C   0  0  0  0  0  0  0  0  0  0  0  0
   -0.6608    2.7301    0.6930 C   0  0  0  0  0  0  0  0  0  0  0  0
   -0.5156    4.0157    0.1631 C   0  0  0  0  0  0  0  0  0  0  0  0
    1.1620    7.3947   -3.1835 H   0  0  0  0  0  0  0  0  0  0  0  0
   -0.6184    7.4740   -3.4592 H   0  0  0  0  0  0  0  0  0  0  0  0
    0.4500    6.7693   -4.6868 H   0  0  0  0  0  0  0  0  0  0  0  0
    0.0368    3.1831   -3.0961 H   0  0  0  0  0  0  0  0  0  0  0  0
   -0.2067    0.9397   -2.1756 H   0  0  0  0  0  0  0  0  0  0  0  0
   -0.7429    0.3165    1.5698 H   0  0  0  0  0  0  0  0  0  0  0  0
   -2.6250    0.2153   -0.6008 H   0  0  0  0  0  0  0  0  0  0  0  0
   -4.3484   -1.0073   -1.3002 H   0  0  0  0  0  0  0  0  0  0  0  0
   -6.5823   -1.9325   -1.6227 H   0  0  0  0  0  0  0  0  0  0  0  0
   -7.7300   -3.1359    0.1748 H   0  0  0  0  0  0  0  0  0  0  0  0
   -7.7700   -4.9972    1.6924 H   0  0  0  0  0  0  0  0  0  0  0  0
   -8.6739   -3.5547    2.3034 H   0  0  0  0  0  0  0  0  0  0  0  0
   -8.0806   -4.7913    3.4215 H   0  0  0  0  0  0  0  0  0  0  0  0
   -4.3490   -2.5060    2.7626 H   0  0  0  0  0  0  0  0  0  0  0  0
    1.6363    0.1163    1.6648 H   0  0  0  0  0  0  0  0  0  0  0  0
    2.0656   -1.4905    1.0551 H   0  0  0  0  0  0  0  0  0  0  0  0
    2.7934   -0.4838   -1.1293 H   0  0  0  0  0  0  0  0  0  0  0  0
    2.3657    1.1079   -0.5454 H   0  0  0  0  0  0  0  0  0  0  0  0
    4.7751    0.7945   -0.3431 H   0  0  0  0  0  0  0  0  0  0  0  0
    4.0123    1.0320    1.2260 H   0  0  0  0  0  0  0  0  0  0  0  0
    3.9897   -2.4731   -0.3152 H   0  0  0  0  0  0  0  0  0  0  0  0
    5.1961   -1.4344   -1.1018 H   0  0  0  0  0  0  0  0  0  0  0  0
    6.1217   -3.6841   -0.5993 H   0  0  0  0  0  0  0  0  0  0  0  0
    5.8202   -3.4510    1.1248 H   0  0  0  0  0  0  0  0  0  0  0  0
    7.2688   -0.2912   -0.1324 H   0  0  0  0  0  0  0  0  0  0  0  0
    8.1578   -0.7324    1.3262 H   0  0  0  0  0  0  0  0  0  0  0  0
    6.0325   -1.3114    2.4852 H   0  0  0  0  0  0  0  0  0  0  0  0
    6.0490    0.3742    1.9996 H   0  0  0  0  0  0  0  0  0  0  0  0
   -0.8556    2.6251    1.7598 H   0  0  0  0  0  0  0  0  0  0  0  0
   -0.5996    4.8782    0.8234 H   0  0  0  0  0  0  0  0  0  0  0  0
  1  2  1  0
  2  3  1  0
  3  4  2  0
  3  5  1  0
  5  6  2  0
  6  7  1  0
  7  8  2  0
  8  9  1  0
  9 10  1  0
 10 11  1  0
 11 12  2  0
 11 13  1  0
 13 14  2  0
 14 15  1  0
 15 16  2  0
 16 17  1  0
 17 18  1  0
 18 19  1  0
 17 20  2  0
 10 21  1  0
 21 22  2  0
 21 23  1  0
 23 24  2  0
 23 25  1  0
 25 26  1  0
 26 27  1  0
 27 28  1  0
 28 29  1  0
 29 30  1  0
 30 31  1  0
 31 32  1  0
 32 33  1  0
 33 34  1  0
  8 35  1  0
 35 36  2  0
 36  5  1  0
 25  9  1  0
 34 29  1  0
 20 13  1  0
  1 37  1  0
  1 38  1  0
  1 39  1  0
  6 40  1  0
  7 41  1  0
  9 42  1  0
 10 43  1  0
 14 44  1  0
 15 45  1  0
 16 46  1  0
 19 47  1  0
 19 48  1  0
 19 49  1  0
 20 50  1  0
 26 51  1  0
 26 52  1  0
 27 53  1  0
 27 54  1  0
 28 55  1  0
 28 56  1  0
 30 57  1  0
 30 58  1  0
 31 59  1  0
 31 60  1  0
 33 61  1  0
 33 62  1  0
 34 63  1  0
 34 64  1  0
 35 65  1  0
 36 66  1  0
M  END
$$$$
