
     RDKit          3D

 38 39  0  0  0  0  0  0  0  0999 V2000
   -3.3358    0.8762    2.4333 C   0  0  0  0  0  0  0  0  0  0  0  0
   -3.4407   -0.0222    1.3254 O   0  0  0  0  0  0  0  0  0  0  0  0
   -2.8488    0.5339    0.2200 C   0  0  0  0  0  0  0  0  0  0  0  0
   -1.4564    0.4500    0.0930 C   0  0  0  0  0  0  0  0  0  0  0  0
   -0.8058    1.0143   -1.0110 C   0  0  0  0  0  0  0  0  0  0  0  0
    0.6535    0.9775   -1.2012 C   0  0  0  0  0  0  0  0  0  0  0  0
    1.5050    0.1355   -0.5966 C   0  0  0  0  0  0  0  0  0  0  0  0
    2.9551    0.2017   -0.9360 C   0  0  0  0  0  0  0  0  0  0  0  0
    3.3740    0.8609   -1.8839 O   0  0  0  0  0  0  0  0  0  0  0  0
    3.8976   -0.5981   -0.1077 C   0  0  0  0  0  0  0  0  0  0  0  0
    5.0447   -1.1123   -0.7263 C   0  0  0  0  0  0  0  0  0  0  0  0
    5.9714   -1.8461    0.0157 C   0  0  0  0  0  0  0  0  0  0  0  0
    5.7558   -2.0558    1.3738 C   0  0  0  0  0  0  0  0  0  0  0  0
    6.6945   -2.7656    2.0615 O   0  0  0  0  0  0  0  0  0  0  0  0
    4.6266   -1.5442    2.0066 C   0  0  0  0  0  0  0  0  0  0  0  0
    3.6953   -0.8096    1.2650 C   0  0  0  0  0  0  0  0  0  0  0  0
   -1.5810    1.6844   -1.9703 C   0  0  0  0  0  0  0  0  0  0  0  0
   -2.9727    1.7478   -1.8535 C   0  0  0  0  0  0  0  0  0  0  0  0
   -3.6172    1.1419   -0.7764 C   0  0  0  0  0  0  0  0  0  0  0  0
   -4.9809    1.2561   -0.7738 O   0  0  0  0  0  0  0  0  0  0  0  0
   -5.6762    0.0596   -0.4008 C   0  0  0  0  0  0  0  0  0  0  0  0
   -6.9865    0.0153   -1.0810 C   0  0  0  0  0  0  0  0  0  0  0  0
   -8.0189   -0.0469   -1.6128 N   0  0  0  0  0  0  0  0  0  0  0  0
   -3.9396    0.4719    3.2496 H   0  0  0  0  0  0  0  0  0  0  0  0
   -2.2984    0.9513    2.7837 H   0  0  0  0  0  0  0  0  0  0  0  0
   -3.7264    1.8708    2.1835 H   0  0  0  0  0  0  0  0  0  0  0  0
   -0.8970   -0.0547    0.8737 H   0  0  0  0  0  0  0  0  0  0  0  0
    1.0486    1.6998   -1.9196 H   0  0  0  0  0  0  0  0  0  0  0  0
    1.1809   -0.6206    0.1047 H   0  0  0  0  0  0  0  0  0  0  0  0
    5.2212   -0.9413   -1.7868 H   0  0  0  0  0  0  0  0  0  0  0  0
    6.8616   -2.2447   -0.4631 H   0  0  0  0  0  0  0  0  0  0  0  0
    6.4167   -2.8478    2.9884 H   0  0  0  0  0  0  0  0  0  0  0  0
    4.4628   -1.6929    3.0695 H   0  0  0  0  0  0  0  0  0  0  0  0
    2.8376   -0.3856    1.7796 H   0  0  0  0  0  0  0  0  0  0  0  0
   -1.1106    2.1558   -2.8325 H   0  0  0  0  0  0  0  0  0  0  0  0
   -3.5544    2.2561   -2.6194 H   0  0  0  0  0  0  0  0  0  0  0  0
   -5.8460    0.0676    0.6803 H   0  0  0  0  0  0  0  0  0  0  0  0
   -5.1095   -0.8402   -0.6773 H   0  0  0  0  0  0  0  0  0  0  0  0
  1  2  1  0
  2  3  1  0
  3  4  2  0
  4  5  1  0
  5  6  1  0
  6  7  2  3
  7  8  1  0
  8  9  2  0
  8 10  1  0
 10 11  2  0
 11 12  1  0
 12 13  2  0
 13 14  1  0
 13 15  1  0
 15 16  2  0
  5 17  2  0
 17 18  1  0
 18 19  2  0
 19 20  1  0
 20 21  1  0
 21 22  1  0
 22 23  3  0
 19  3  1  0
 16 10  1  0
  1 24  1  0
  1 25  1  0
  1 26  1  0
  4 27  1  0
  6 28  1  0
  7 29  1  0
 11 30  1  0
 12 31  1  0
 14 32  1  0
 15 33  1  0
 16 34  1  0
 17 35  1  0
 18 36  1  0
 21 37  1  0
 21 38  1  0
M  END
$$$$
