
     RDKit          3D

 66 70  0  0  0  0  0  0  0  0999 V2000
    2.7408   -0.3363   -0.4309 C   0  0  0  0  0  0  0  0  0  0  0  0
    2.7779    1.1467   -0.3469 C   0  0  0  0  0  0  0  0  0  0  0  0
    2.3414    2.0780   -1.2727 C   0  0  0  0  0  0  0  0  0  0  0  0
    1.6170    1.8929   -2.5803 C   0  0  0  0  0  0  0  0  0  0  0  0
    0.0949    2.0170   -2.4180 C   0  0  0  0  0  0  0  0  0  0  0  0
   -0.5336    0.7224   -2.3099 O   0  0  0  0  0  0  0  0  0  0  0  0
   -0.6581    0.1949   -1.0632 C   0  0  0  0  0  0  0  0  0  0  0  0
   -0.1732    0.6791   -0.0468 O   0  0  0  0  0  0  0  0  0  0  0  0
   -1.4359   -1.0996   -1.0960 C   0  0  0  0  0  0  0  0  0  0  0  0
   -2.9561   -0.9559   -0.8844 C   0  0  0  0  0  0  0  0  0  0  0  0
   -3.5694   -2.3766   -0.7720 C   0  0  0  0  0  0  0  0  0  0  0  0
   -5.0888   -2.3079   -0.5691 C   0  0  0  0  0  0  0  0  0  0  0  0
   -5.7256   -1.5779   -1.7599 C   0  0  0  0  0  0  0  0  0  0  0  0
   -5.1547   -0.1576   -1.8708 C   0  0  0  0  0  0  0  0  0  0  0  0
   -5.4547    0.6154   -0.5761 C   0  0  0  0  0  0  0  0  0  0  0  0
   -4.8202   -0.1007    0.6378 C   0  0  0  0  0  0  0  0  0  0  0  0
   -5.1244    0.6695    1.9270 C   0  0  0  0  0  0  0  0  0  0  0  0
   -5.3912   -1.5337    0.7230 C   0  0  0  0  0  0  0  0  0  0  0  0
   -3.2902   -0.1873    0.4190 C   0  0  0  0  0  0  0  0  0  0  0  0
   -3.6325   -0.2297   -2.0733 C   0  0  0  0  0  0  0  0  0  0  0  0
    2.7387    3.6717   -0.7395 S   0  0  0  0  0  0  0  0  0  0  0  0
    3.3093    3.0863    0.7532 C   0  0  0  0  0  0  0  0  0  0  0  0
    3.3054    1.7642    0.7893 N   0  0  0  0  0  4  0  0  0  0  0  0
    3.7339    1.0621    2.0044 C   0  0  0  0  0  0  0  0  0  0  0  0
    5.0934    0.4139    1.8454 C   0  0  0  0  0  0  0  0  0  0  0  0
    6.1416    1.0228    1.1303 C   0  0  0  0  0  0  0  0  0  0  0  0
    7.3972    0.4106    1.0465 C   0  0  0  0  0  0  0  0  0  0  0  0
    7.6178   -0.8077    1.6968 C   0  0  0  0  0  0  0  0  0  0  0  0
    8.9363   -1.4419    1.6238 N   0  0  0  0  0  4  0  0  0  0  0  0
    9.2558   -2.1951    2.5503 O   0  0  0  0  0  0  0  0  0  0  0  0
    9.6409   -1.1723    0.6424 O   0  0  0  0  0  1  0  0  0  0  0  0
    6.5960   -1.4209    2.4274 C   0  0  0  0  0  0  0  0  0  0  0  0
    5.3413   -0.8071    2.5014 C   0  0  0  0  0  0  0  0  0  0  0  0
    2.2390   -0.7698    0.4424 H   0  0  0  0  0  0  0  0  0  0  0  0
    3.7584   -0.7322   -0.4815 H   0  0  0  0  0  0  0  0  0  0  0  0
    2.2111   -0.6770   -1.3243 H   0  0  0  0  0  0  0  0  0  0  0  0
    1.8793    0.9268   -3.0264 H   0  0  0  0  0  0  0  0  0  0  0  0
    1.9606    2.6666   -3.2767 H   0  0  0  0  0  0  0  0  0  0  0  0
   -0.3227    2.4698   -3.3267 H   0  0  0  0  0  0  0  0  0  0  0  0
   -0.2005    2.6577   -1.5759 H   0  0  0  0  0  0  0  0  0  0  0  0
   -1.2196   -1.6097   -2.0437 H   0  0  0  0  0  0  0  0  0  0  0  0
   -1.0031   -1.7437   -0.3170 H   0  0  0  0  0  0  0  0  0  0  0  0
   -3.1127   -2.9171    0.0663 H   0  0  0  0  0  0  0  0  0  0  0  0
   -3.3475   -2.9579   -1.6767 H   0  0  0  0  0  0  0  0  0  0  0  0
   -5.4963   -3.3230   -0.4987 H   0  0  0  0  0  0  0  0  0  0  0  0
   -6.8160   -1.5343   -1.6365 H   0  0  0  0  0  0  0  0  0  0  0  0
   -5.5325   -2.1338   -2.6872 H   0  0  0  0  0  0  0  0  0  0  0  0
   -5.6196    0.3553   -2.7197 H   0  0  0  0  0  0  0  0  0  0  0  0
   -5.0678    1.6389   -0.6591 H   0  0  0  0  0  0  0  0  0  0  0  0
   -6.5413    0.7015   -0.4446 H   0  0  0  0  0  0  0  0  0  0  0  0
   -6.2034    0.7262    2.1065 H   0  0  0  0  0  0  0  0  0  0  0  0
   -4.7446    1.6964    1.8742 H   0  0  0  0  0  0  0  0  0  0  0  0
   -4.6607    0.1855    2.7920 H   0  0  0  0  0  0  0  0  0  0  0  0
   -4.9589   -2.0653    1.5804 H   0  0  0  0  0  0  0  0  0  0  0  0
   -6.4761   -1.4988    0.8856 H   0  0  0  0  0  0  0  0  0  0  0  0
   -2.8719    0.8272    0.3829 H   0  0  0  0  0  0  0  0  0  0  0  0
   -2.8229   -0.6889    1.2783 H   0  0  0  0  0  0  0  0  0  0  0  0
   -3.4100   -0.7552   -3.0106 H   0  0  0  0  0  0  0  0  0  0  0  0
   -3.2378    0.7883   -2.1784 H   0  0  0  0  0  0  0  0  0  0  0  0
    3.6592    3.7359    1.5469 H   0  0  0  0  0  0  0  0  0  0  0  0
    2.9692    0.3189    2.2559 H   0  0  0  0  0  0  0  0  0  0  0  0
    3.7781    1.7620    2.8465 H   0  0  0  0  0  0  0  0  0  0  0  0
    6.0122    1.9822    0.6298 H   0  0  0  0  0  0  0  0  0  0  0  0
    8.1988    0.8941    0.4889 H   0  0  0  0  0  0  0  0  0  0  0  0
    6.7670   -2.3674    2.9420 H   0  0  0  0  0  0  0  0  0  0  0  0
    4.5620   -1.2987    3.0877 H   0  0  0  0  0  0  0  0  0  0  0  0
  1  2  1  0
  2  3  2  0
  3  4  1  0
  4  5  1  0
  5  6  1  0
  6  7  1  0
  7  8  2  0
  7  9  1  0
  9 10  1  0
 10 11  1  0
 11 12  1  0
 12 13  1  0
 13 14  1  0
 14 15  1  0
 15 16  1  0
 16 17  1  0
 16 18  1  0
 16 19  1  0
 14 20  1  0
  3 21  1  0
 21 22  1  0
 22 23  2  0
 23 24  1  0
 24 25  1  0
 25 26  2  0
 26 27  1  0
 27 28  2  0
 28 29  1  0
 29 30  2  0
 29 31  1  0
 28 32  1  0
 32 33  2  0
 23  2  1  0
 33 25  1  0
 19 10  1  0
 20 10  1  0
 18 12  1  0
  1 34  1  0
  1 35  1  0
  1 36  1  0
  4 37  1  0
  4 38  1  0
  5 39  1  0
  5 40  1  0
  9 41  1  0
  9 42  1  0
 11 43  1  0
 11 44  1  0
 12 45  1  0
 13 46  1  0
 13 47  1  0
 14 48  1  0
 15 49  1  0
 15 50  1  0
 17 51  1  0
 17 52  1  0
 17 53  1  0
 18 54  1  0
 18 55  1  0
 19 56  1  0
 19 57  1  0
 20 58  1  0
 20 59  1  0
 22 60  1  0
 24 61  1  0
 24 62  1  0
 26 63  1  0
 27 64  1  0
 32 65  1  0
 33 66  1  0
M  CHG  3  23   1  29   1  31  -1
M  END
$$$$
