
     RDKit          3D

 40 42  0  0  0  0  0  0  0  0999 V2000
   -4.8936    0.7847    1.9403 C   0  0  0  0  0  0  0  0  0  0  0  0
   -5.1509    0.6278    0.4381 C   0  0  0  0  0  0  0  0  0  0  0  0
   -4.2702    1.5805   -0.3963 C   0  0  0  0  0  0  0  0  0  0  0  0
   -2.7688    1.2579   -0.3160 C   0  0  0  0  0  0  0  0  0  0  0  0
   -2.4976   -0.2205   -0.3920 C   0  0  0  0  0  0  0  0  0  0  0  0
   -1.2057   -0.8505   -0.5634 C   0  0  0  0  0  0  0  0  0  0  0  0
    0.0803   -0.1444   -0.7182 C   0  0  0  0  0  0  0  0  0  0  0  0
    0.1236    0.9866   -1.1872 O   0  0  0  0  0  0  0  0  0  0  0  0
    1.1707   -0.8605   -0.2522 N   0  0  0  0  0  0  0  0  0  0  0  0
    2.5291   -0.4860   -0.2934 C   0  0  0  0  0  0  0  0  0  0  0  0
    3.0075    0.6636   -0.9184 C   0  0  0  0  0  0  0  0  0  0  0  0
    4.3774    0.9529   -0.9146 C   0  0  0  0  0  0  0  0  0  0  0  0
    5.2923    0.1016   -0.2913 C   0  0  0  0  0  0  0  0  0  0  0  0
    6.5914    0.5118   -0.3681 O   0  0  0  0  0  0  0  0  0  0  0  0
    7.5783   -0.3004    0.2428 C   0  0  0  0  0  0  0  0  0  0  0  0
    8.7882    0.2729    0.0587 F   0  0  0  0  0  0  0  0  0  0  0  0
    7.6091   -1.5313   -0.3122 F   0  0  0  0  0  0  0  0  0  0  0  0
    7.3649   -0.4117    1.5716 F   0  0  0  0  0  0  0  0  0  0  0  0
    4.8188   -1.0512    0.3311 C   0  0  0  0  0  0  0  0  0  0  0  0
    3.4474   -1.3413    0.3275 C   0  0  0  0  0  0  0  0  0  0  0  0
   -1.3501   -2.2298   -0.5989 C   0  0  0  0  0  0  0  0  0  0  0  0
   -2.9599   -2.7503   -0.3598 S   0  0  0  0  0  0  0  0  0  0  0  0
   -3.5107   -1.1499   -0.2389 C   0  0  0  0  0  0  0  0  0  0  0  0
   -4.9606   -0.8336   -0.0217 C   0  0  0  0  0  0  0  0  0  0  0  0
   -5.0387    1.8252    2.2493 H   0  0  0  0  0  0  0  0  0  0  0  0
   -5.5928    0.1673    2.5144 H   0  0  0  0  0  0  0  0  0  0  0  0
   -3.8793    0.4867    2.2231 H   0  0  0  0  0  0  0  0  0  0  0  0
   -6.2011    0.8980    0.2658 H   0  0  0  0  0  0  0  0  0  0  0  0
   -4.5886    1.5125   -1.4455 H   0  0  0  0  0  0  0  0  0  0  0  0
   -4.4358    2.6204   -0.0901 H   0  0  0  0  0  0  0  0  0  0  0  0
   -2.2615    1.7831   -1.1321 H   0  0  0  0  0  0  0  0  0  0  0  0
   -2.3588    1.6419    0.6259 H   0  0  0  0  0  0  0  0  0  0  0  0
    0.9671   -1.7202    0.2375 H   0  0  0  0  0  0  0  0  0  0  0  0
    2.3470    1.3603   -1.4252 H   0  0  0  0  0  0  0  0  0  0  0  0
    4.7267    1.8575   -1.4087 H   0  0  0  0  0  0  0  0  0  0  0  0
    5.4793   -1.7533    0.8318 H   0  0  0  0  0  0  0  0  0  0  0  0
    3.1130   -2.2497    0.8233 H   0  0  0  0  0  0  0  0  0  0  0  0
   -0.5891   -2.9791   -0.7665 H   0  0  0  0  0  0  0  0  0  0  0  0
   -5.4107   -1.5216    0.7038 H   0  0  0  0  0  0  0  0  0  0  0  0
   -5.4875   -0.9763   -0.9742 H   0  0  0  0  0  0  0  0  0  0  0  0
  1  2  1  0
  2  3  1  0
  3  4  1  0
  4  5  1  0
  5  6  1  0
  6  7  1  0
  7  8  2  0
  7  9  1  0
  9 10  1  0
 10 11  2  0
 11 12  1  0
 12 13  2  0
 13 14  1  0
 14 15  1  0
 15 16  1  0
 15 17  1  0
 15 18  1  0
 13 19  1  0
 19 20  2  0
  6 21  2  0
 21 22  1  0
 22 23  1  0
 23 24  1  0
 24  2  1  0
 23  5  2  0
 20 10  1  0
  1 25  1  0
  1 26  1  0
  1 27  1  0
  2 28  1  0
  3 29  1  0
  3 30  1  0
  4 31  1  0
  4 32  1  0
  9 33  1  0
 11 34  1  0
 12 35  1  0
 19 36  1  0
 20 37  1  0
 21 38  1  0
 24 39  1  0
 24 40  1  0
M  END
$$$$
