
     RDKit          3D

 47 50  0  0  0  0  0  0  0  0999 V2000
   -3.9232    1.8563    0.3418 O   0  0  0  0  0  0  0  0  0  0  0  0
   -3.8271    0.7896    0.9603 C   0  0  0  0  0  0  0  0  0  0  0  0
   -5.0888    0.0379    1.4942 C   0  0  0  0  0  0  0  0  0  0  0  0
   -5.6612   -1.1034    0.6085 C   0  0  0  0  0  0  0  0  0  0  0  0
   -6.6708   -0.0914    0.0416 C   0  0  0  0  0  0  0  0  0  0  0  0
   -6.4688    0.7359    1.3225 C   0  0  0  0  0  0  0  0  0  0  0  0
   -2.6058    0.1798    1.2312 N   0  0  0  0  0  0  0  0  0  0  0  0
   -2.4265   -1.0920    1.9531 C   0  0  0  0  0  0  0  0  0  0  0  0
   -0.9303   -1.4286    1.9427 C   0  0  0  0  0  0  0  0  0  0  0  0
   -0.3433   -0.2284    1.2747 C   0  0  0  0  0  0  0  0  0  0  0  0
    1.0009    0.0215    1.0351 C   0  0  0  0  0  0  0  0  0  0  0  0
    1.3355    1.2019    0.3657 C   0  0  0  0  0  0  0  0  0  0  0  0
    3.0394    1.5790    0.0406 S   0  0  0  0  0  6  0  0  0  0  0  0
    3.8696    0.5868    0.6812 O   0  0  0  0  0  0  0  0  0  0  0  0
    3.2247    2.9921    0.2857 O   0  0  0  0  0  0  0  0  0  0  0  0
    3.1322    1.3819   -1.6143 N   0  0  0  0  0  0  0  0  0  0  0  0
    3.2047    0.0354   -2.1838 C   0  0  0  0  0  0  0  0  0  0  0  0
    4.6026   -0.5281   -2.3263 C   0  0  0  0  0  0  0  0  0  0  0  0
    5.6033    0.1998   -2.9710 C   0  0  0  0  0  0  0  0  0  0  0  0
    6.8724   -0.3601   -3.0960 C   0  0  0  0  0  0  0  0  0  0  0  0
    7.1094   -1.6290   -2.5823 C   0  0  0  0  0  0  0  0  0  0  0  0
    6.0595   -2.2923   -1.9703 C   0  0  0  0  0  0  0  0  0  0  0  0
    4.8155   -1.7789   -1.8453 N   0  0  0  0  0  0  0  0  0  0  0  0
    0.3455    2.1146   -0.0365 C   0  0  0  0  0  0  0  0  0  0  0  0
   -1.0040    1.8439    0.2145 C   0  0  0  0  0  0  0  0  0  0  0  0
   -1.3363    0.6678    0.8692 C   0  0  0  0  0  0  0  0  0  0  0  0
   -4.9489   -0.2680    2.5387 H   0  0  0  0  0  0  0  0  0  0  0  0
   -4.9783   -1.5380   -0.1273 H   0  0  0  0  0  0  0  0  0  0  0  0
   -6.1226   -1.9157    1.1827 H   0  0  0  0  0  0  0  0  0  0  0  0
   -6.3278    0.4146   -0.8677 H   0  0  0  0  0  0  0  0  0  0  0  0
   -7.6835   -0.4692   -0.1234 H   0  0  0  0  0  0  0  0  0  0  0  0
   -7.1833    0.4971    2.1197 H   0  0  0  0  0  0  0  0  0  0  0  0
   -6.4587    1.8196    1.1802 H   0  0  0  0  0  0  0  0  0  0  0  0
   -3.0166   -1.8775    1.4709 H   0  0  0  0  0  0  0  0  0  0  0  0
   -2.7942   -0.9685    2.9788 H   0  0  0  0  0  0  0  0  0  0  0  0
   -0.5442   -1.5601    2.9581 H   0  0  0  0  0  0  0  0  0  0  0  0
   -0.7376   -2.3318    1.3542 H   0  0  0  0  0  0  0  0  0  0  0  0
    1.7647   -0.6787    1.3597 H   0  0  0  0  0  0  0  0  0  0  0  0
    3.5412    2.1695   -2.1064 H   0  0  0  0  0  0  0  0  0  0  0  0
    2.5873   -0.6555   -1.5971 H   0  0  0  0  0  0  0  0  0  0  0  0
    2.7528    0.0726   -3.1821 H   0  0  0  0  0  0  0  0  0  0  0  0
    5.4076    1.1885   -3.3719 H   0  0  0  0  0  0  0  0  0  0  0  0
    7.6704    0.1909   -3.5856 H   0  0  0  0  0  0  0  0  0  0  0  0
    8.0869   -2.0909   -2.6545 H   0  0  0  0  0  0  0  0  0  0  0  0
    6.1912   -3.2878   -1.5556 H   0  0  0  0  0  0  0  0  0  0  0  0
    0.6213    3.0388   -0.5395 H   0  0  0  0  0  0  0  0  0  0  0  0
   -1.7569    2.5587   -0.0989 H   0  0  0  0  0  0  0  0  0  0  0  0
  1  2  2  0
  2  3  1  0
  3  4  1  0
  4  5  1  0
  5  6  1  0
  2  7  1  0
  7  8  1  0
  8  9  1  0
  9 10  1  0
 10 11  2  0
 11 12  1  0
 12 13  1  0
 13 14  2  0
 13 15  2  0
 13 16  1  0
 16 17  1  0
 17 18  1  0
 18 19  2  0
 19 20  1  0
 20 21  2  0
 21 22  1  0
 22 23  2  0
 12 24  2  0
 24 25  1  0
 25 26  2  0
  6  3  1  0
 26  7  1  0
 26 10  1  0
 23 18  1  0
  3 27  1  0
  4 28  1  0
  4 29  1  0
  5 30  1  0
  5 31  1  0
  6 32  1  0
  6 33  1  0
  8 34  1  0
  8 35  1  0
  9 36  1  0
  9 37  1  0
 11 38  1  0
 16 39  1  0
 17 40  1  0
 17 41  1  0
 19 42  1  0
 20 43  1  0
 21 44  1  0
 22 45  1  0
 24 46  1  0
 25 47  1  0
M  END
$$$$
