
     RDKit          3D

 75 77  0  0  0  0  0  0  0  0999 V2000
   -6.4005   -1.5365    4.4981 C   0  0  0  0  0  0  0  0  0  0  0  0
   -5.8514   -0.1253    4.6170 C   0  0  0  0  0  0  0  0  0  0  0  0
   -4.5670   -0.0204    4.0055 O   0  0  0  0  0  0  0  0  0  0  0  0
   -4.4830    0.1868    2.6572 C   0  0  0  0  0  0  0  0  0  0  0  0
   -5.5477    0.3803    1.7836 C   0  0  0  0  0  0  0  0  0  0  0  0
   -5.3007    0.5883    0.4275 C   0  0  0  0  0  0  0  0  0  0  0  0
   -3.9908    0.6022   -0.0610 C   0  0  0  0  0  0  0  0  0  0  0  0
   -2.8973    0.4054    0.7956 C   0  0  0  0  0  0  0  0  0  0  0  0
   -1.5321    0.4263    0.3070 N   0  0  0  0  0  0  0  0  0  0  0  0
   -0.5655   -0.4072    0.9046 C   0  0  0  0  0  0  0  0  0  0  0  0
   -0.8499   -1.2921    1.7179 O   0  0  0  0  0  0  0  0  0  0  0  0
    0.8857   -0.2552    0.4798 C   0  0  0  0  0  0  0  0  0  0  0  0
    1.7809   -1.3256    1.1034 C   0  0  0  0  0  0  0  0  0  0  0  0
    3.1936   -1.2528    0.5587 C   0  0  0  0  0  0  0  0  0  0  0  0
    3.4667   -0.6465   -0.4725 O   0  0  0  0  0  0  0  0  0  0  0  0
    4.0828   -1.9621    1.3328 N   0  0  0  0  0  0  0  0  0  0  0  0
    5.4218   -2.1253    1.0566 C   0  0  0  0  0  0  0  0  0  0  0  0
    6.1650   -1.7031   -0.0692 C   0  0  0  0  0  0  0  0  0  0  0  0
    7.4428   -2.1387    0.1773 C   0  0  0  0  0  0  0  0  0  0  0  0
    8.7203   -2.0419   -0.5489 C   0  0  0  0  0  0  0  0  0  0  0  0
    7.4691   -2.7829    1.3747 O   0  0  0  0  0  0  0  0  0  0  0  0
    6.2004   -2.7794    1.9266 N   0  0  0  0  0  0  0  0  0  0  0  0
   -1.2411    1.3049   -0.8760 C   0  0  0  0  0  0  0  0  0  0  0  0
   -1.0773    0.4798   -2.1893 C   0  0  0  0  0  0  0  0  0  0  0  0
   -0.6971    0.9777   -3.2467 O   0  0  0  0  0  0  0  0  0  0  0  0
   -1.4821   -0.8427   -2.0974 N   0  0  0  0  0  0  0  0  0  0  0  0
   -1.4185   -1.8377   -3.1757 C   0  0  0  0  0  0  0  0  0  0  0  0
   -2.2786   -1.4124   -4.3762 C   0  0  0  0  0  0  0  0  0  0  0  0
   -1.9740   -3.1654   -2.6293 C   0  0  0  0  0  0  0  0  0  0  0  0
    0.0350   -2.0658   -3.6153 C   0  0  0  0  0  0  0  0  0  0  0  0
   -0.2021    2.3887   -0.5728 C   0  0  0  0  0  0  0  0  0  0  0  0
   -0.4459    3.2731    0.4948 C   0  0  0  0  0  0  0  0  0  0  0  0
    0.4794    4.2636    0.8346 C   0  0  0  0  0  0  0  0  0  0  0  0
    1.6675    4.4030    0.1188 C   0  0  0  0  0  0  0  0  0  0  0  0
    2.4913    5.3989    0.5639 O   0  0  0  0  0  0  0  0  0  0  0  0
    3.7132    5.5827   -0.1402 C   0  0  0  0  0  0  0  0  0  0  0  0
    1.9154    3.5466   -0.9511 C   0  0  0  0  0  0  0  0  0  0  0  0
    0.9887    2.5527   -1.2964 C   0  0  0  0  0  0  0  0  0  0  0  0
   -3.1733    0.2025    2.1572 C   0  0  0  0  0  0  0  0  0  0  0  0
   -5.6743   -2.2637    4.8752 H   0  0  0  0  0  0  0  0  0  0  0  0
   -7.3286   -1.6381    5.0671 H   0  0  0  0  0  0  0  0  0  0  0  0
   -6.6027   -1.7992    3.4557 H   0  0  0  0  0  0  0  0  0  0  0  0
   -5.7024    0.0952    5.6804 H   0  0  0  0  0  0  0  0  0  0  0  0
   -6.5528    0.6313    4.2492 H   0  0  0  0  0  0  0  0  0  0  0  0
   -6.5793    0.3729    2.1170 H   0  0  0  0  0  0  0  0  0  0  0  0
   -6.1347    0.7325   -0.2557 H   0  0  0  0  0  0  0  0  0  0  0  0
   -3.8701    0.7284   -1.1329 H   0  0  0  0  0  0  0  0  0  0  0  0
    1.2514    0.7168    0.8212 H   0  0  0  0  0  0  0  0  0  0  0  0
    0.9552   -0.3187   -0.6090 H   0  0  0  0  0  0  0  0  0  0  0  0
    1.8028   -1.2039    2.1938 H   0  0  0  0  0  0  0  0  0  0  0  0
    1.3929   -2.3280    0.8813 H   0  0  0  0  0  0  0  0  0  0  0  0
    3.7865   -2.3896    2.2001 H   0  0  0  0  0  0  0  0  0  0  0  0
    5.8269   -1.1556   -0.9353 H   0  0  0  0  0  0  0  0  0  0  0  0
    8.5529   -1.8124   -1.6059 H   0  0  0  0  0  0  0  0  0  0  0  0
    9.3421   -1.2493   -0.1220 H   0  0  0  0  0  0  0  0  0  0  0  0
    9.2734   -2.9843   -0.4917 H   0  0  0  0  0  0  0  0  0  0  0  0
   -2.1344    1.9081   -1.0851 H   0  0  0  0  0  0  0  0  0  0  0  0
   -1.8611   -1.1472   -1.2059 H   0  0  0  0  0  0  0  0  0  0  0  0
   -3.3029   -1.1823   -4.0634 H   0  0  0  0  0  0  0  0  0  0  0  0
   -2.3288   -2.2071   -5.1290 H   0  0  0  0  0  0  0  0  0  0  0  0
   -1.8791   -0.5228   -4.8722 H   0  0  0  0  0  0  0  0  0  0  0  0
   -3.0150   -3.0544   -2.3049 H   0  0  0  0  0  0  0  0  0  0  0  0
   -1.9404   -3.9579   -3.3868 H   0  0  0  0  0  0  0  0  0  0  0  0
   -1.3987   -3.5057   -1.7611 H   0  0  0  0  0  0  0  0  0  0  0  0
    0.4783   -1.1628   -4.0464 H   0  0  0  0  0  0  0  0  0  0  0  0
    0.6601   -2.3614   -2.7656 H   0  0  0  0  0  0  0  0  0  0  0  0
    0.1009   -2.8575   -4.3716 H   0  0  0  0  0  0  0  0  0  0  0  0
   -1.3602    3.1918    1.0809 H   0  0  0  0  0  0  0  0  0  0  0  0
    0.2736    4.9295    1.6694 H   0  0  0  0  0  0  0  0  0  0  0  0
    4.3431    4.6884   -0.0828 H   0  0  0  0  0  0  0  0  0  0  0  0
    3.5283    5.8698   -1.1808 H   0  0  0  0  0  0  0  0  0  0  0  0
    4.2555    6.4028    0.3399 H   0  0  0  0  0  0  0  0  0  0  0  0
    2.8244    3.6143   -1.5400 H   0  0  0  0  0  0  0  0  0  0  0  0
    1.2387    1.9015   -2.1321 H   0  0  0  0  0  0  0  0  0  0  0  0
   -2.3654    0.0739    2.8741 H   0  0  0  0  0  0  0  0  0  0  0  0
  1  2  1  0
  2  3  1  0
  3  4  1  0
  4  5  2  0
  5  6  1  0
  6  7  2  0
  7  8  1  0
  8  9  1  0
  9 10  1  0
 10 11  2  0
 10 12  1  0
 12 13  1  0
 13 14  1  0
 14 15  2  0
 14 16  1  0
 16 17  1  0
 17 18  1  0
 18 19  2  0
 19 20  1  0
 19 21  1  0
 21 22  1  0
  9 23  1  0
 23 24  1  0
 24 25  2  0
 24 26  1  0
 26 27  1  0
 27 28  1  0
 27 29  1  0
 27 30  1  0
 23 31  1  0
 31 32  2  0
 32 33  1  0
 33 34  2  0
 34 35  1  0
 35 36  1  0
 34 37  1  0
 37 38  2  0
  8 39  2  0
 39  4  1  0
 22 17  2  0
 38 31  1  0
  1 40  1  0
  1 41  1  0
  1 42  1  0
  2 43  1  0
  2 44  1  0
  5 45  1  0
  6 46  1  0
  7 47  1  0
 12 48  1  0
 12 49  1  0
 13 50  1  0
 13 51  1  0
 16 52  1  0
 18 53  1  0
 20 54  1  0
 20 55  1  0
 20 56  1  0
 23 57  1  0
 26 58  1  0
 28 59  1  0
 28 60  1  0
 28 61  1  0
 29 62  1  0
 29 63  1  0
 29 64  1  0
 30 65  1  0
 30 66  1  0
 30 67  1  0
 32 68  1  0
 33 69  1  0
 36 70  1  0
 36 71  1  0
 36 72  1  0
 37 73  1  0
 38 74  1  0
 39 75  1  0
M  END
$$$$
