
     RDKit          3D

 80 85  0  0  0  0  0  0  0  0999 V2000
    6.6876    1.0342    0.6586 C   0  0  0  0  0  0  0  0  0  0  0  0
    5.4745    0.1686    0.3146 C   0  0  0  0  0  0  0  0  0  0  0  0
    5.7779   -0.7460   -0.8685 C   0  0  0  0  0  0  0  0  0  0  0  0
    4.7448   -1.8657   -0.9418 C   0  0  0  0  0  0  0  0  0  0  0  0
    3.2677   -1.3933   -0.8244 C   0  0  0  0  0  0  0  0  0  0  0  0
    2.5974   -1.8956   -2.1188 C   0  0  0  0  0  0  0  0  0  0  0  0
    2.5820   -1.3287   -3.2012 O   0  0  0  0  0  0  0  0  0  0  0  0
    2.0710   -3.1331   -2.0282 O   0  0  0  0  0  0  0  0  0  0  0  0
    2.6102   -2.0407    0.4184 C   0  0  0  0  0  0  0  0  0  0  0  0
    1.1546   -1.5957    0.6681 C   0  0  0  0  0  0  0  0  0  0  0  0
    0.9611   -0.0502    0.7873 C   0  0  0  0  0  0  0  0  0  0  0  0
    1.6440    0.4035    2.1063 C   0  0  0  0  0  0  0  0  0  0  0  0
    1.6515    0.5283   -0.4749 C   0  0  0  0  0  0  0  0  0  0  0  0
    0.9627    1.1369   -1.4615 C   0  0  0  0  0  0  0  0  0  0  0  0
   -0.5233    1.2645   -1.5329 C   0  0  0  0  0  0  0  0  0  0  0  0
   -1.2456    0.3070   -0.5660 C   0  0  0  0  0  0  0  0  0  0  0  0
   -2.8116    0.3976   -0.6762 C   0  0  0  0  0  0  0  0  0  0  0  0
   -3.3937    1.7875   -1.0525 C   0  0  0  0  0  0  0  0  0  0  0  0
   -4.9203    1.6931   -1.1710 C   0  0  0  0  0  0  0  0  0  0  0  0
   -5.3700    0.2313   -1.0314 C   0  0  0  0  0  0  0  0  0  0  0  0
   -6.7517    0.1559   -1.3149 O   0  0  0  0  0  0  0  0  0  0  0  0
   -4.6896   -0.5150   -2.0410 O   0  0  0  0  0  0  0  0  0  0  0  0
   -3.2731   -0.5437   -1.8304 C   0  0  0  0  0  0  0  0  0  0  0  0
   -5.0314   -0.3753    0.3669 C   0  0  0  0  0  0  0  0  0  0  0  0
   -5.3291   -1.8952    0.3792 C   0  0  0  0  0  0  0  0  0  0  0  0
   -5.9094    0.2448    1.4786 C   0  0  0  0  0  0  0  0  0  0  0  0
   -3.5266   -0.0315    0.6435 C   0  0  0  0  0  0  0  0  0  0  0  0
   -2.7139   -1.0839    1.3895 C   0  0  0  0  0  0  0  0  0  0  0  0
   -1.4071   -0.4782    1.9018 C   0  0  0  0  0  0  0  0  0  0  0  0
   -0.6144    0.3962    0.8702 C   0  0  0  0  0  0  0  0  0  0  0  0
   -0.7165    1.8736    1.3758 C   0  0  0  0  0  0  0  0  0  0  0  0
    3.1203    0.1618   -0.7684 C   0  0  0  0  0  0  0  0  0  0  0  0
    4.1643    0.9589    0.0784 C   0  0  0  0  0  0  0  0  0  0  0  0
    4.3856    2.3410   -0.5689 C   0  0  0  0  0  0  0  0  0  0  0  0
    6.4665    1.7001    1.4992 H   0  0  0  0  0  0  0  0  0  0  0  0
    7.0116    1.6398   -0.1941 H   0  0  0  0  0  0  0  0  0  0  0  0
    7.5348    0.4048    0.9533 H   0  0  0  0  0  0  0  0  0  0  0  0
    5.3057   -0.4735    1.1912 H   0  0  0  0  0  0  0  0  0  0  0  0
    5.7885   -0.1763   -1.8056 H   0  0  0  0  0  0  0  0  0  0  0  0
    6.7725   -1.1962   -0.7635 H   0  0  0  0  0  0  0  0  0  0  0  0
    4.9688   -2.5852   -0.1424 H   0  0  0  0  0  0  0  0  0  0  0  0
    4.9194   -2.4199   -1.8735 H   0  0  0  0  0  0  0  0  0  0  0  0
    1.7417   -3.3099   -2.9346 H   0  0  0  0  0  0  0  0  0  0  0  0
    2.6207   -3.1355    0.3355 H   0  0  0  0  0  0  0  0  0  0  0  0
    3.2153   -1.8241    1.3060 H   0  0  0  0  0  0  0  0  0  0  0  0
    0.8427   -2.1009    1.5878 H   0  0  0  0  0  0  0  0  0  0  0  0
    0.5211   -2.0005   -0.1285 H   0  0  0  0  0  0  0  0  0  0  0  0
    1.7975    1.4877    2.1321 H   0  0  0  0  0  0  0  0  0  0  0  0
    1.0426    0.1292    2.9803 H   0  0  0  0  0  0  0  0  0  0  0  0
    2.6178   -0.0612    2.2732 H   0  0  0  0  0  0  0  0  0  0  0  0
    1.4852    1.4866   -2.3520 H   0  0  0  0  0  0  0  0  0  0  0  0
   -0.7870    2.3118   -1.3535 H   0  0  0  0  0  0  0  0  0  0  0  0
   -0.8303    1.0324   -2.5597 H   0  0  0  0  0  0  0  0  0  0  0  0
   -1.0010   -0.7068   -0.9148 H   0  0  0  0  0  0  0  0  0  0  0  0
   -2.9969    2.1309   -2.0156 H   0  0  0  0  0  0  0  0  0  0  0  0
   -3.1313    2.5545   -0.3176 H   0  0  0  0  0  0  0  0  0  0  0  0
   -5.2256    2.0847   -2.1503 H   0  0  0  0  0  0  0  0  0  0  0  0
   -5.4114    2.3374   -0.4340 H   0  0  0  0  0  0  0  0  0  0  0  0
   -6.8640   -0.7403   -1.6740 H   0  0  0  0  0  0  0  0  0  0  0  0
   -2.8051   -0.2628   -2.7804 H   0  0  0  0  0  0  0  0  0  0  0  0
   -2.9879   -1.5835   -1.6358 H   0  0  0  0  0  0  0  0  0  0  0  0
   -4.6947   -2.4526   -0.3154 H   0  0  0  0  0  0  0  0  0  0  0  0
   -6.3704   -2.0954    0.1025 H   0  0  0  0  0  0  0  0  0  0  0  0
   -5.1829   -2.3267    1.3755 H   0  0  0  0  0  0  0  0  0  0  0  0
   -5.7909    1.3310    1.5394 H   0  0  0  0  0  0  0  0  0  0  0  0
   -5.6424   -0.1656    2.4594 H   0  0  0  0  0  0  0  0  0  0  0  0
   -6.9721    0.0368    1.3126 H   0  0  0  0  0  0  0  0  0  0  0  0
   -3.5293    0.8510    1.3005 H   0  0  0  0  0  0  0  0  0  0  0  0
   -3.2713   -1.4600    2.2550 H   0  0  0  0  0  0  0  0  0  0  0  0
   -2.4953   -1.9445    0.7471 H   0  0  0  0  0  0  0  0  0  0  0  0
   -1.6534    0.1285    2.7845 H   0  0  0  0  0  0  0  0  0  0  0  0
   -0.8109   -1.2934    2.3132 H   0  0  0  0  0  0  0  0  0  0  0  0
   -1.7400    2.2505    1.3242 H   0  0  0  0  0  0  0  0  0  0  0  0
   -0.0808    2.5597    0.8087 H   0  0  0  0  0  0  0  0  0  0  0  0
   -0.4214    1.9657    2.4271 H   0  0  0  0  0  0  0  0  0  0  0  0
    3.3316    0.4913   -1.7980 H   0  0  0  0  0  0  0  0  0  0  0  0
    3.7703    1.1869    1.0687 H   0  0  0  0  0  0  0  0  0  0  0  0
    4.8962    2.2527   -1.5336 H   0  0  0  0  0  0  0  0  0  0  0  0
    3.4328    2.8548   -0.7352 H   0  0  0  0  0  0  0  0  0  0  0  0
    4.9831    2.9930    0.0762 H   0  0  0  0  0  0  0  0  0  0  0  0
  1  2  1  0
  2  3  1  0
  3  4  1  0
  4  5  1  0
  5  6  1  0
  6  7  2  0
  6  8  1  0
  5  9  1  0
  9 10  1  0
 10 11  1  0
 11 12  1  0
 11 13  1  0
 13 14  2  0
 14 15  1  0
 15 16  1  0
 16 17  1  0
 17 18  1  0
 18 19  1  0
 19 20  1  0
 20 21  1  0
 20 22  1  0
 22 23  1  0
 20 24  1  0
 24 25  1  0
 24 26  1  0
 24 27  1  0
 27 28  1  0
 28 29  1  0
 29 30  1  0
 30 31  1  0
 13 32  1  0
 32 33  1  0
 33 34  1  0
 33  2  1  0
 32  5  1  0
 30 11  1  0
 30 16  1  0
 23 17  1  0
 27 17  1  0
  1 35  1  0
  1 36  1  0
  1 37  1  0
  2 38  1  0
  3 39  1  0
  3 40  1  0
  4 41  1  0
  4 42  1  0
  8 43  1  0
  9 44  1  0
  9 45  1  0
 10 46  1  0
 10 47  1  0
 12 48  1  0
 12 49  1  0
 12 50  1  0
 14 51  1  0
 15 52  1  0
 15 53  1  0
 16 54  1  0
 18 55  1  0
 18 56  1  0
 19 57  1  0
 19 58  1  0
 21 59  1  0
 23 60  1  0
 23 61  1  0
 25 62  1  0
 25 63  1  0
 25 64  1  0
 26 65  1  0
 26 66  1  0
 26 67  1  0
 27 68  1  0
 28 69  1  0
 28 70  1  0
 29 71  1  0
 29 72  1  0
 31 73  1  0
 31 74  1  0
 31 75  1  0
 32 76  1  0
 33 77  1  0
 34 78  1  0
 34 79  1  0
 34 80  1  0
M  END
$$$$
