
     RDKit          3D

 39 40  0  0  0  0  0  0  0  0999 V2000
    7.6109   -0.2865    0.7792 C   0  0  0  0  0  0  0  0  0  0  0  0
    6.7629   -0.5736   -0.3253 O   0  0  0  0  0  0  0  0  0  0  0  0
    5.4159   -0.5641   -0.0889 C   0  0  0  0  0  0  0  0  0  0  0  0
    4.7975   -0.2896    1.1307 C   0  0  0  0  0  0  0  0  0  0  0  0
    3.4018   -0.3132    1.2343 C   0  0  0  0  0  0  0  0  0  0  0  0
    2.6085   -0.6155    0.1211 C   0  0  0  0  0  0  0  0  0  0  0  0
    1.1063   -0.6206    0.2253 C   0  0  0  0  0  0  0  0  0  0  0  0
    0.5002    0.7218   -0.1806 C   0  0  0  0  0  0  0  0  0  0  0  0
   -0.9280    0.7019   -0.0071 O   0  0  0  0  0  0  0  0  0  0  0  0
   -1.6332    0.1675   -1.0334 C   0  0  0  0  0  0  0  0  0  0  0  0
   -1.1666   -0.3091   -2.0549 O   0  0  0  0  0  0  0  0  0  0  0  0
   -3.0929    0.2223   -0.7474 C   0  0  0  0  0  0  0  0  0  0  0  0
   -3.9732   -0.3027   -1.7004 C   0  0  0  0  0  0  0  0  0  0  0  0
   -5.3563   -0.2767   -1.4841 C   0  0  0  0  0  0  0  0  0  0  0  0
   -5.8995    0.2344   -0.2974 C   0  0  0  0  0  0  0  0  0  0  0  0
   -7.2963    0.3556   -0.2144 N   0  0  0  0  0  0  0  0  0  0  0  0
   -5.0033    0.8054    0.6285 C   0  0  0  0  0  0  0  0  0  0  0  0
   -5.4960    1.4200    1.8624 N   0  0  0  0  0  4  0  0  0  0  0  0
   -4.8295    2.3476    2.3442 O   0  0  0  0  0  0  0  0  0  0  0  0
   -6.5338    0.9610    2.3652 O   0  0  0  0  0  1  0  0  0  0  0  0
   -3.6113    0.7873    0.4217 C   0  0  0  0  0  0  0  0  0  0  0  0
    3.2329   -0.8854   -1.1015 C   0  0  0  0  0  0  0  0  0  0  0  0
    4.6257   -0.8606   -1.2013 C   0  0  0  0  0  0  0  0  0  0  0  0
    8.6461   -0.3386    0.4282 H   0  0  0  0  0  0  0  0  0  0  0  0
    7.4910   -1.0309    1.5734 H   0  0  0  0  0  0  0  0  0  0  0  0
    7.4381    0.7267    1.1567 H   0  0  0  0  0  0  0  0  0  0  0  0
    5.3698   -0.0525    2.0210 H   0  0  0  0  0  0  0  0  0  0  0  0
    2.9400   -0.0938    2.1947 H   0  0  0  0  0  0  0  0  0  0  0  0
    0.7988   -0.8698    1.2492 H   0  0  0  0  0  0  0  0  0  0  0  0
    0.6971   -1.4302   -0.3918 H   0  0  0  0  0  0  0  0  0  0  0  0
    0.7618    0.9997   -1.2094 H   0  0  0  0  0  0  0  0  0  0  0  0
    0.8835    1.5208    0.4645 H   0  0  0  0  0  0  0  0  0  0  0  0
   -3.5889   -0.7239   -2.6291 H   0  0  0  0  0  0  0  0  0  0  0  0
   -6.0118   -0.6603   -2.2643 H   0  0  0  0  0  0  0  0  0  0  0  0
   -7.8173   -0.3432   -0.7370 H   0  0  0  0  0  0  0  0  0  0  0  0
   -7.6469    0.4421    0.7442 H   0  0  0  0  0  0  0  0  0  0  0  0
   -2.9443    1.2181    1.1661 H   0  0  0  0  0  0  0  0  0  0  0  0
    2.6409   -1.1171   -1.9847 H   0  0  0  0  0  0  0  0  0  0  0  0
    5.0997   -1.0742   -2.1563 H   0  0  0  0  0  0  0  0  0  0  0  0
  1  2  1  0
  2  3  1  0
  3  4  2  0
  4  5  1  0
  5  6  2  0
  6  7  1  0
  7  8  1  0
  8  9  1  0
  9 10  1  0
 10 11  2  0
 10 12  1  0
 12 13  2  0
 13 14  1  0
 14 15  2  0
 15 16  1  0
 15 17  1  0
 17 18  1  0
 18 19  2  0
 18 20  1  0
 17 21  2  0
  6 22  1  0
 22 23  2  0
 23  3  1  0
 21 12  1  0
  1 24  1  0
  1 25  1  0
  1 26  1  0
  4 27  1  0
  5 28  1  0
  7 29  1  0
  7 30  1  0
  8 31  1  0
  8 32  1  0
 13 33  1  0
 14 34  1  0
 16 35  1  0
 16 36  1  0
 21 37  1  0
 22 38  1  0
 23 39  1  0
M  CHG  2  18   1  20  -1
M  END
$$$$
