
     RDKit          3D

 33 35  0  0  0  0  0  0  0  0999 V2000
   -5.1948    1.9862   -1.3637 O   0  0  0  0  0  0  0  0  0  0  0  0
   -4.7936    0.8195   -0.7816 C   0  0  0  0  0  0  0  0  0  0  0  0
   -5.6932   -0.2125   -0.5375 C   0  0  0  0  0  0  0  0  0  0  0  0
   -5.2396   -1.3824    0.0694 C   0  0  0  0  0  0  0  0  0  0  0  0
   -3.8929   -1.5131    0.4216 C   0  0  0  0  0  0  0  0  0  0  0  0
   -2.9816   -0.4801    0.1607 C   0  0  0  0  0  0  0  0  0  0  0  0
   -1.5801   -0.6486    0.5732 C   0  0  0  0  0  0  0  0  0  0  0  0
   -0.5358   -0.1932   -0.1389 C   0  0  0  0  0  0  0  0  0  0  0  0
    0.8771   -0.3289    0.2346 C   0  0  0  0  0  0  0  0  0  0  0  0
    1.3645   -1.3776    1.0051 C   0  0  0  0  0  0  0  0  0  0  0  0
    2.7288   -1.4319    1.2803 C   0  0  0  0  0  0  0  0  0  0  0  0
    3.5794   -0.4441    0.7737 C   0  0  0  0  0  0  0  0  0  0  0  0
    4.9659   -0.4470    1.0201 C   0  0  0  0  0  0  0  0  0  0  0  0
    5.7807    0.5565    0.4926 C   0  0  0  0  0  0  0  0  0  0  0  0
    5.2184    1.5657   -0.2820 C   0  0  0  0  0  0  0  0  0  0  0  0
    3.8469    1.5558   -0.5175 C   0  0  0  0  0  0  0  0  0  0  0  0
    3.3157    2.5651   -1.2851 O   0  0  0  0  0  0  0  0  0  0  0  0
    3.0023    0.5728   -0.0089 C   0  0  0  0  0  0  0  0  0  0  0  0
    1.6811    0.6301   -0.2821 N   0  0  0  0  0  0  0  0  0  0  0  0
   -3.4504    0.6976   -0.4346 C   0  0  0  0  0  0  0  0  0  0  0  0
   -6.1464    1.9303   -1.5486 H   0  0  0  0  0  0  0  0  0  0  0  0
   -6.7410   -0.1231   -0.8057 H   0  0  0  0  0  0  0  0  0  0  0  0
   -5.9328   -2.1952    0.2705 H   0  0  0  0  0  0  0  0  0  0  0  0
   -3.5600   -2.4348    0.8938 H   0  0  0  0  0  0  0  0  0  0  0  0
   -1.4349   -1.1787    1.5103 H   0  0  0  0  0  0  0  0  0  0  0  0
   -0.6917    0.3448   -1.0710 H   0  0  0  0  0  0  0  0  0  0  0  0
    0.7101   -2.1549    1.3833 H   0  0  0  0  0  0  0  0  0  0  0  0
    3.1201   -2.2468    1.8838 H   0  0  0  0  0  0  0  0  0  0  0  0
    5.4170   -1.2314    1.6239 H   0  0  0  0  0  0  0  0  0  0  0  0
    6.8504    0.5506    0.6853 H   0  0  0  0  0  0  0  0  0  0  0  0
    5.8362    2.3546   -0.7004 H   0  0  0  0  0  0  0  0  0  0  0  0
    2.3562    2.3617   -1.3107 H   0  0  0  0  0  0  0  0  0  0  0  0
   -2.7821    1.5333   -0.6241 H   0  0  0  0  0  0  0  0  0  0  0  0
  1  2  1  0
  2  3  2  0
  3  4  1  0
  4  5  2  0
  5  6  1  0
  6  7  1  0
  7  8  2  0
  8  9  1  0
  9 10  2  0
 10 11  1  0
 11 12  2  0
 12 13  1  0
 13 14  2  0
 14 15  1  0
 15 16  2  0
 16 17  1  0
 16 18  1  0
 18 19  2  0
  6 20  2  0
 20  2  1  0
 19  9  1  0
 18 12  1  0
  1 21  1  0
  3 22  1  0
  4 23  1  0
  5 24  1  0
  7 25  1  0
  8 26  1  0
 10 27  1  0
 11 28  1  0
 13 29  1  0
 14 30  1  0
 15 31  1  0
 17 32  1  0
 20 33  1  0
M  END
$$$$
