
     RDKit          3D

 80 83  0  0  0  0  0  0  0  0999 V2000
   -4.3045   -2.4357   -3.4767 C   0  0  0  0  0  0  0  0  0  0  0  0
   -3.1437   -2.3430   -2.4967 C   0  0  0  0  0  0  0  0  0  0  0  0
   -3.3200   -3.3172   -1.3318 C   0  0  0  0  0  0  0  0  0  0  0  0
   -2.1110   -3.3668   -0.3943 C   0  0  0  0  0  0  0  0  0  0  0  0
   -1.7484   -2.0468    0.2940 C   0  0  0  0  0  0  0  0  0  0  0  0
   -2.8772   -1.4844    1.1617 C   0  0  0  0  0  0  0  0  0  0  0  0
   -2.4161   -0.3563    2.0814 C   0  0  0  0  0  0  0  0  0  0  0  0
   -2.2133    0.9587    1.3492 C   0  0  0  0  0  0  0  0  0  0  0  0
   -3.1473    1.7435    1.2106 O   0  0  0  0  0  0  0  0  0  0  0  0
   -0.9180    1.1282    0.9019 N   0  0  0  0  0  0  0  0  0  0  0  0
   -0.3421    2.2508    0.2592 C   0  0  0  0  0  0  0  0  0  0  0  0
   -1.0997    3.3878   -0.0633 C   0  0  0  0  0  0  0  0  0  0  0  0
   -0.5119    4.5062   -0.6707 C   0  0  0  0  0  0  0  0  0  0  0  0
   -1.2773    5.7420   -1.0161 C   0  0  0  0  0  0  0  0  0  0  0  0
   -0.8100    6.5423   -1.8226 O   0  0  0  0  0  0  0  0  0  0  0  0
   -2.4895    5.9387   -0.3877 N   0  0  0  0  0  0  0  0  0  0  0  0
   -3.3181    7.0816   -0.7097 C   0  0  0  0  0  0  0  0  0  0  0  0
   -4.4896    7.2428    0.2536 C   0  0  0  0  0  0  0  0  0  0  0  0
   -4.0408    7.5832    1.6680 C   0  0  0  0  0  0  0  0  0  0  0  0
    0.8477    4.4706   -0.9883 C   0  0  0  0  0  0  0  0  0  0  0  0
    1.6096    3.3416   -0.6876 C   0  0  0  0  0  0  0  0  0  0  0  0
    1.0399    2.2209   -0.0602 C   0  0  0  0  0  0  0  0  0  0  0  0
    1.9160    1.1481    0.1868 N   0  0  0  0  0  0  0  0  0  0  0  0
    2.2377    0.9034    1.5959 C   0  0  0  0  0  0  0  0  0  0  0  0
    3.4669   -0.0005    1.6857 C   0  0  0  0  0  0  0  0  0  0  0  0
    3.2655   -1.2782    0.8650 C   0  0  0  0  0  0  0  0  0  0  0  0
    2.9319   -0.9301   -0.5939 C   0  0  0  0  0  0  0  0  0  0  0  0
    1.7076   -0.0231   -0.6700 C   0  0  0  0  0  0  0  0  0  0  0  0
    4.4525   -2.2202    0.9751 C   0  0  0  0  0  0  0  0  0  0  0  0
    3.7088   -3.5131    1.0068 C   0  0  0  0  0  0  0  0  0  0  0  0
    4.3796   -4.8141    0.7816 C   0  0  0  0  0  0  0  0  0  0  0  0
    3.6007   -5.9771    0.7250 C   0  0  0  0  0  0  0  0  0  0  0  0
    4.2042   -7.2176    0.5121 C   0  0  0  0  0  0  0  0  0  0  0  0
    5.5866   -7.3023    0.3557 C   0  0  0  0  0  0  0  0  0  0  0  0
    6.3683   -6.1492    0.4159 C   0  0  0  0  0  0  0  0  0  0  0  0
    5.7682   -4.9052    0.6298 C   0  0  0  0  0  0  0  0  0  0  0  0
    2.4437   -3.3997    1.2669 N   0  0  0  0  0  0  0  0  0  0  0  0
    2.1707   -2.0242    1.4322 O   0  0  0  0  0  0  0  0  0  0  0  0
   -5.2539   -2.2038   -2.9837 H   0  0  0  0  0  0  0  0  0  0  0  0
   -4.3756   -3.4400   -3.9074 H   0  0  0  0  0  0  0  0  0  0  0  0
   -4.1652   -1.7240   -4.2973 H   0  0  0  0  0  0  0  0  0  0  0  0
   -3.0798   -1.3146   -2.1257 H   0  0  0  0  0  0  0  0  0  0  0  0
   -2.2087   -2.5584   -3.0260 H   0  0  0  0  0  0  0  0  0  0  0  0
   -4.2250   -3.0610   -0.7677 H   0  0  0  0  0  0  0  0  0  0  0  0
   -3.4815   -4.3272   -1.7299 H   0  0  0  0  0  0  0  0  0  0  0  0
   -2.3002   -4.1266    0.3745 H   0  0  0  0  0  0  0  0  0  0  0  0
   -1.2360   -3.7130   -0.9589 H   0  0  0  0  0  0  0  0  0  0  0  0
   -0.8649   -2.2261    0.9191 H   0  0  0  0  0  0  0  0  0  0  0  0
   -1.4552   -1.3073   -0.4589 H   0  0  0  0  0  0  0  0  0  0  0  0
   -3.6958   -1.1291    0.5240 H   0  0  0  0  0  0  0  0  0  0  0  0
   -3.2807   -2.2910    1.7880 H   0  0  0  0  0  0  0  0  0  0  0  0
   -1.5043   -0.6334    2.6231 H   0  0  0  0  0  0  0  0  0  0  0  0
   -3.1800   -0.1797    2.8473 H   0  0  0  0  0  0  0  0  0  0  0  0
   -0.2819    0.3610    1.0558 H   0  0  0  0  0  0  0  0  0  0  0  0
   -2.1625    3.3954    0.1349 H   0  0  0  0  0  0  0  0  0  0  0  0
   -2.8676    5.2403    0.2351 H   0  0  0  0  0  0  0  0  0  0  0  0
   -3.6942    6.9307   -1.7282 H   0  0  0  0  0  0  0  0  0  0  0  0
   -2.6928    7.9815   -0.7194 H   0  0  0  0  0  0  0  0  0  0  0  0
   -5.1410    8.0448   -0.1125 H   0  0  0  0  0  0  0  0  0  0  0  0
   -5.0890    6.3249    0.2774 H   0  0  0  0  0  0  0  0  0  0  0  0
   -3.4336    8.4944    1.6793 H   0  0  0  0  0  0  0  0  0  0  0  0
   -3.4494    6.7706    2.1044 H   0  0  0  0  0  0  0  0  0  0  0  0
   -4.9121    7.7471    2.3120 H   0  0  0  0  0  0  0  0  0  0  0  0
    1.3218    5.3231   -1.4721 H   0  0  0  0  0  0  0  0  0  0  0  0
    2.6669    3.3324   -0.9436 H   0  0  0  0  0  0  0  0  0  0  0  0
    2.4617    1.8484    2.1075 H   0  0  0  0  0  0  0  0  0  0  0  0
    1.4045    0.4358    2.1317 H   0  0  0  0  0  0  0  0  0  0  0  0
    3.6371   -0.2443    2.7416 H   0  0  0  0  0  0  0  0  0  0  0  0
    4.3511    0.5393    1.3238 H   0  0  0  0  0  0  0  0  0  0  0  0
    3.7892   -0.4282   -1.0606 H   0  0  0  0  0  0  0  0  0  0  0  0
    2.7251   -1.8369   -1.1750 H   0  0  0  0  0  0  0  0  0  0  0  0
    0.8179   -0.5856   -0.3762 H   0  0  0  0  0  0  0  0  0  0  0  0
    1.5676    0.2851   -1.7137 H   0  0  0  0  0  0  0  0  0  0  0  0
    4.9921   -2.1124    1.9218 H   0  0  0  0  0  0  0  0  0  0  0  0
    5.1457   -2.1379    0.1351 H   0  0  0  0  0  0  0  0  0  0  0  0
    2.5199   -5.9252    0.8446 H   0  0  0  0  0  0  0  0  0  0  0  0
    3.5953   -8.1170    0.4687 H   0  0  0  0  0  0  0  0  0  0  0  0
    6.0542   -8.2692    0.1890 H   0  0  0  0  0  0  0  0  0  0  0  0
    7.4476   -6.2213    0.2986 H   0  0  0  0  0  0  0  0  0  0  0  0
    6.4055   -4.0273    0.6804 H   0  0  0  0  0  0  0  0  0  0  0  0
  1  2  1  0
  2  3  1  0
  3  4  1  0
  4  5  1  0
  5  6  1  0
  6  7  1  0
  7  8  1  0
  8  9  2  0
  8 10  1  0
 10 11  1  0
 11 12  2  0
 12 13  1  0
 13 14  1  0
 14 15  2  0
 14 16  1  0
 16 17  1  0
 17 18  1  0
 18 19  1  0
 13 20  2  0
 20 21  1  0
 21 22  2  0
 22 23  1  0
 23 24  1  0
 24 25  1  0
 25 26  1  0
 26 27  1  0
 27 28  1  0
 26 29  1  0
 29 30  1  0
 30 31  1  0
 31 32  2  0
 32 33  1  0
 33 34  2  0
 34 35  1  0
 35 36  2  0
 30 37  2  0
 37 38  1  0
 22 11  1  0
 28 23  1  0
 36 31  1  0
 38 26  1  0
  1 39  1  0
  1 40  1  0
  1 41  1  0
  2 42  1  0
  2 43  1  0
  3 44  1  0
  3 45  1  0
  4 46  1  0
  4 47  1  0
  5 48  1  0
  5 49  1  0
  6 50  1  0
  6 51  1  0
  7 52  1  0
  7 53  1  0
 10 54  1  0
 12 55  1  0
 16 56  1  0
 17 57  1  0
 17 58  1  0
 18 59  1  0
 18 60  1  0
 19 61  1  0
 19 62  1  0
 19 63  1  0
 20 64  1  0
 21 65  1  0
 24 66  1  0
 24 67  1  0
 25 68  1  0
 25 69  1  0
 27 70  1  0
 27 71  1  0
 28 72  1  0
 28 73  1  0
 29 74  1  0
 29 75  1  0
 32 76  1  0
 33 77  1  0
 34 78  1  0
 35 79  1  0
 36 80  1  0
M  END
$$$$
