
     RDKit          3D

 37 39  0  0  0  0  0  0  0  0999 V2000
   -3.4699   -0.5128   -2.9427 O   0  0  0  0  0  0  0  0  0  0  0  0
   -2.3076   -0.1772   -2.7865 C   0  0  0  0  0  0  0  0  0  0  0  0
   -1.7754    0.7995   -3.5418 O   0  0  0  0  0  0  0  0  0  0  0  0
   -1.3262   -0.8062   -1.8429 C   0  0  0  0  0  0  0  0  0  0  0  0
   -0.6581    0.2125   -0.9045 C   0  0  0  0  0  0  0  0  0  0  0  0
   -1.6356    0.6944    0.1740 C   0  0  0  0  0  0  0  0  0  0  0  0
   -2.6316    1.6334   -0.1460 C   0  0  0  0  0  0  0  0  0  0  0  0
   -3.5523    2.0569    0.8131 C   0  0  0  0  0  0  0  0  0  0  0  0
   -3.4847    1.5601    2.1104 C   0  0  0  0  0  0  0  0  0  0  0  0
   -2.4888    0.6485    2.4539 C   0  0  0  0  0  0  0  0  0  0  0  0
   -1.5619    0.2086    1.4960 C   0  0  0  0  0  0  0  0  0  0  0  0
   -0.4413   -0.7033    1.9318 C   0  0  0  0  0  0  0  0  0  0  0  0
    0.2825   -1.3700    0.7661 C   0  0  0  0  0  0  0  0  0  0  0  0
    0.5827   -0.3501   -0.2673 N   0  0  0  0  0  0  0  0  0  0  0  0
    1.8745   -0.7016   -1.3086 S   0  0  0  0  0  6  0  0  0  0  0  0
    1.9566    0.3459   -2.3017 O   0  0  0  0  0  0  0  0  0  0  0  0
    1.7757   -2.1005   -1.6656 O   0  0  0  0  0  0  0  0  0  0  0  0
    3.3603   -0.5235   -0.3452 C   0  0  0  0  0  0  0  0  0  0  0  0
    3.6301    0.1765    0.8163 C   0  0  0  0  0  0  0  0  0  0  0  0
    4.9870    0.0389    1.2285 C   0  0  0  0  0  0  0  0  0  0  0  0
    5.7088   -0.7516    0.3618 C   0  0  0  0  0  0  0  0  0  0  0  0
    4.7532   -1.3162   -0.9411 S   0  0  0  0  0  0  0  0  0  0  0  0
   -2.4931    1.0528   -4.1606 H   0  0  0  0  0  0  0  0  0  0  0  0
   -1.8624   -1.5733   -1.2708 H   0  0  0  0  0  0  0  0  0  0  0  0
   -0.6008   -1.3337   -2.4698 H   0  0  0  0  0  0  0  0  0  0  0  0
   -0.3473    1.1108   -1.4537 H   0  0  0  0  0  0  0  0  0  0  0  0
   -2.6987    2.0534   -1.1472 H   0  0  0  0  0  0  0  0  0  0  0  0
   -4.3206    2.7784    0.5470 H   0  0  0  0  0  0  0  0  0  0  0  0
   -4.1991    1.8937    2.8585 H   0  0  0  0  0  0  0  0  0  0  0  0
   -2.4312    0.2897    3.4794 H   0  0  0  0  0  0  0  0  0  0  0  0
    0.2766   -0.0977    2.4999 H   0  0  0  0  0  0  0  0  0  0  0  0
   -0.8265   -1.4801    2.6027 H   0  0  0  0  0  0  0  0  0  0  0  0
   -0.3297   -2.1734    0.3419 H   0  0  0  0  0  0  0  0  0  0  0  0
    1.2029   -1.8272    1.1447 H   0  0  0  0  0  0  0  0  0  0  0  0
    2.8823    0.7634    1.3365 H   0  0  0  0  0  0  0  0  0  0  0  0
    5.4147    0.5016    2.1100 H   0  0  0  0  0  0  0  0  0  0  0  0
    6.7547   -1.0208    0.4235 H   0  0  0  0  0  0  0  0  0  0  0  0
  1  2  2  0
  2  3  1  0
  2  4  1  0
  4  5  1  0
  5  6  1  0
  6  7  2  0
  7  8  1  0
  8  9  2  0
  9 10  1  0
 10 11  2  0
 11 12  1  0
 12 13  1  0
 13 14  1  0
 14 15  1  0
 15 16  2  0
 15 17  2  0
 15 18  1  0
 18 19  2  0
 19 20  1  0
 20 21  2  0
 21 22  1  0
 14  5  1  0
 22 18  1  0
 11  6  1  0
  3 23  1  0
  4 24  1  0
  4 25  1  0
  5 26  1  0
  7 27  1  0
  8 28  1  0
  9 29  1  0
 10 30  1  0
 12 31  1  0
 12 32  1  0
 13 33  1  0
 13 34  1  0
 19 35  1  0
 20 36  1  0
 21 37  1  0
M  END
$$$$
