
     RDKit          3D

 59 62  0  0  0  0  0  0  0  0999 V2000
    8.9042   -2.2354   -3.3506 C   0  0  0  0  0  0  0  0  0  0  0  0
    7.7480   -1.2942   -3.5150 C   0  0  0  0  0  0  0  0  0  0  0  0
    7.2335   -1.0154   -4.7863 C   0  0  0  0  0  0  0  0  0  0  0  0
    6.1364   -0.1630   -4.9366 C   0  0  0  0  0  0  0  0  0  0  0  0
    5.5326    0.4224   -3.8162 C   0  0  0  0  0  0  0  0  0  0  0  0
    4.3335    1.3221   -3.9657 C   0  0  0  0  0  0  0  0  0  0  0  0
    3.1100    0.5814   -3.7553 N   0  0  0  0  0  0  0  0  0  0  0  0
    2.4517    0.5997   -2.5455 C   0  0  0  0  0  0  0  0  0  0  0  0
    2.7715    1.3202   -1.6079 O   0  0  0  0  0  0  0  0  0  0  0  0
    1.2851   -0.3684   -2.5036 C   0  0  0  0  0  0  0  0  0  0  0  0
    0.5028   -0.3341   -1.1932 C   0  0  0  0  0  0  0  0  0  0  0  0
   -0.3082    0.9529   -1.0236 C   0  0  0  0  0  0  0  0  0  0  0  0
   -1.2305    0.8523    0.1036 N   0  0  0  0  0  0  0  0  0  0  0  0
   -0.7248    1.2664    1.3396 N   0  0  0  0  0  0  0  0  0  0  0  0
   -1.4435    1.1848    2.4237 C   0  0  0  0  0  0  0  0  0  0  0  0
   -0.8429    1.6635    3.7145 C   0  0  0  0  0  0  0  0  0  0  0  0
   -2.7761    0.6370    2.3504 C   0  0  0  0  0  0  0  0  0  0  0  0
   -3.7570    0.3532    3.2864 C   0  0  0  0  0  0  0  0  0  0  0  0
   -3.7007    0.4048    4.7702 C   0  0  0  0  0  0  0  0  0  0  0  0
   -4.8625   -0.0818    2.5444 N   0  0  0  0  0  0  0  0  0  0  0  0
   -6.2171   -0.3129    2.9399 C   0  0  0  0  0  0  0  0  0  0  0  0
   -6.7597    0.2255    4.1127 C   0  0  0  0  0  0  0  0  0  0  0  0
   -8.0949   -0.0218    4.4521 C   0  0  0  0  0  0  0  0  0  0  0  0
   -8.9014   -0.7956    3.6210 C   0  0  0  0  0  0  0  0  0  0  0  0
   -8.3804   -1.3155    2.4399 C   0  0  0  0  0  0  0  0  0  0  0  0
   -7.0492   -1.0699    2.0959 C   0  0  0  0  0  0  0  0  0  0  0  0
   -4.5201   -0.2960    1.2447 N   0  0  0  0  0  0  0  0  0  0  0  0
   -3.2887    0.2045    1.1229 C   0  0  0  0  0  0  0  0  0  0  0  0
   -2.5036    0.2807   -0.1023 C   0  0  0  0  0  0  0  0  0  0  0  0
   -2.9023   -0.1170   -1.1956 O   0  0  0  0  0  0  0  0  0  0  0  0
    6.0355    0.1235   -2.5429 C   0  0  0  0  0  0  0  0  0  0  0  0
    7.1315   -0.7288   -2.3936 C   0  0  0  0  0  0  0  0  0  0  0  0
    9.5118   -1.9585   -2.4827 H   0  0  0  0  0  0  0  0  0  0  0  0
    8.5383   -3.2578   -3.2157 H   0  0  0  0  0  0  0  0  0  0  0  0
    9.5595   -2.2073   -4.2274 H   0  0  0  0  0  0  0  0  0  0  0  0
    7.6852   -1.4612   -5.6697 H   0  0  0  0  0  0  0  0  0  0  0  0
    5.7576    0.0393   -5.9356 H   0  0  0  0  0  0  0  0  0  0  0  0
    4.4030    2.1680   -3.2729 H   0  0  0  0  0  0  0  0  0  0  0  0
    4.2915    1.7361   -4.9792 H   0  0  0  0  0  0  0  0  0  0  0  0
    2.9101   -0.1695   -4.4016 H   0  0  0  0  0  0  0  0  0  0  0  0
    0.6189   -0.1579   -3.3484 H   0  0  0  0  0  0  0  0  0  0  0  0
    1.6930   -1.3773   -2.6416 H   0  0  0  0  0  0  0  0  0  0  0  0
   -0.1762   -1.1959   -1.1798 H   0  0  0  0  0  0  0  0  0  0  0  0
    1.1782   -0.4598   -0.3380 H   0  0  0  0  0  0  0  0  0  0  0  0
   -0.8890    1.1532   -1.9314 H   0  0  0  0  0  0  0  0  0  0  0  0
    0.3429    1.8177   -0.8576 H   0  0  0  0  0  0  0  0  0  0  0  0
   -0.5867    0.8031    4.3384 H   0  0  0  0  0  0  0  0  0  0  0  0
   -1.5487    2.3075    4.2452 H   0  0  0  0  0  0  0  0  0  0  0  0
    0.0697    2.2347    3.5201 H   0  0  0  0  0  0  0  0  0  0  0  0
   -2.6872    0.2055    5.1296 H   0  0  0  0  0  0  0  0  0  0  0  0
   -4.3277   -0.3638    5.2309 H   0  0  0  0  0  0  0  0  0  0  0  0
   -3.9984    1.3917    5.1367 H   0  0  0  0  0  0  0  0  0  0  0  0
   -6.1976    0.8812    4.7660 H   0  0  0  0  0  0  0  0  0  0  0  0
   -8.5110    0.4046    5.3621 H   0  0  0  0  0  0  0  0  0  0  0  0
   -9.9386   -0.9828    3.8865 H   0  0  0  0  0  0  0  0  0  0  0  0
   -9.0080   -1.9107    1.7812 H   0  0  0  0  0  0  0  0  0  0  0  0
   -6.6691   -1.4884    1.1645 H   0  0  0  0  0  0  0  0  0  0  0  0
    5.5667    0.5520   -1.6577 H   0  0  0  0  0  0  0  0  0  0  0  0
    7.4990   -0.9486   -1.3936 H   0  0  0  0  0  0  0  0  0  0  0  0
  1  2  1  0
  2  3  2  0
  3  4  1  0
  4  5  2  0
  5  6  1  0
  6  7  1  0
  7  8  1  0
  8  9  2  0
  8 10  1  0
 10 11  1  0
 11 12  1  0
 12 13  1  0
 13 14  1  0
 14 15  2  0
 15 16  1  0
 15 17  1  0
 17 18  2  0
 18 19  1  0
 18 20  1  0
 20 21  1  0
 21 22  2  0
 22 23  1  0
 23 24  2  0
 24 25  1  0
 25 26  2  0
 20 27  1  0
 27 28  2  0
 28 29  1  0
 29 30  2  0
  5 31  1  0
 31 32  2  0
 32  2  1  0
 29 13  1  0
 28 17  1  0
 26 21  1  0
  1 33  1  0
  1 34  1  0
  1 35  1  0
  3 36  1  0
  4 37  1  0
  6 38  1  0
  6 39  1  0
  7 40  1  0
 10 41  1  0
 10 42  1  0
 11 43  1  0
 11 44  1  0
 12 45  1  0
 12 46  1  0
 16 47  1  0
 16 48  1  0
 16 49  1  0
 19 50  1  0
 19 51  1  0
 19 52  1  0
 22 53  1  0
 23 54  1  0
 24 55  1  0
 25 56  1  0
 26 57  1  0
 31 58  1  0
 32 59  1  0
M  END
$$$$
