
     RDKit          3D

 46 49  0  0  0  0  0  0  0  0999 V2000
    0.0701   -2.8448    0.0075 O   0  0  0  0  0  0  0  0  0  0  0  0
    0.6374   -1.9804    0.6761 C   0  0  0  0  0  0  0  0  0  0  0  0
    2.0351   -2.2454    1.2263 C   0  0  0  0  0  0  0  0  0  0  0  0
    2.8530   -0.8295    2.0248 S   0  0  0  0  0  0  0  0  0  0  0  0
    3.2612    0.1129    0.5711 C   0  0  0  0  0  0  0  0  0  0  0  0
    2.2828    1.0001    0.2384 N   0  0  0  0  0  0  0  0  0  0  0  0
    2.5002    1.8145   -0.8176 C   0  0  0  0  0  0  0  0  0  0  0  0
    3.6589    1.7987   -1.5702 C   0  0  0  0  0  0  0  0  0  0  0  0
    4.6540    0.8916   -1.2207 C   0  0  0  0  0  0  0  0  0  0  0  0
    4.4623    0.0286   -0.1320 C   0  0  0  0  0  0  0  0  0  0  0  0
    5.5100   -0.9536    0.2072 C   0  0  0  0  0  0  0  0  0  0  0  0
    5.3539   -2.0823    0.6279 O   0  0  0  0  0  0  0  0  0  0  0  0
    6.7413   -0.4578   -0.0208 O   0  0  0  0  0  0  0  0  0  0  0  0
    0.0555   -0.7759    0.9954 N   0  0  0  0  0  0  0  0  0  0  0  0
   -1.2409   -0.3066    0.5001 C   0  0  0  0  0  0  0  0  0  0  0  0
   -2.3996   -1.2449    0.9232 C   0  0  0  0  0  0  0  0  0  0  0  0
   -3.7504   -0.6932    0.4330 C   0  0  0  0  0  0  0  0  0  0  0  0
   -3.9884    0.6930    1.0513 C   0  0  0  0  0  0  0  0  0  0  0  0
   -2.8639    1.6527    0.6334 C   0  0  0  0  0  0  0  0  0  0  0  0
   -2.8385    1.7722   -0.8986 C   0  0  0  0  0  0  0  0  0  0  0  0
   -2.5953    0.3918   -1.5293 C   0  0  0  0  0  0  0  0  0  0  0  0
   -3.7187   -0.5670   -1.0999 C   0  0  0  0  0  0  0  0  0  0  0  0
   -1.2440   -0.1593   -1.0414 C   0  0  0  0  0  0  0  0  0  0  0  0
   -1.5175    1.0917    1.1171 C   0  0  0  0  0  0  0  0  0  0  0  0
    2.6601   -2.6224    0.4107 H   0  0  0  0  0  0  0  0  0  0  0  0
    1.9407   -3.0356    1.9782 H   0  0  0  0  0  0  0  0  0  0  0  0
    1.6912    2.5031   -1.0475 H   0  0  0  0  0  0  0  0  0  0  0  0
    3.7858    2.4745   -2.4093 H   0  0  0  0  0  0  0  0  0  0  0  0
    5.5733    0.8558   -1.8009 H   0  0  0  0  0  0  0  0  0  0  0  0
    7.3450   -1.1813    0.2535 H   0  0  0  0  0  0  0  0  0  0  0  0
    0.7238   -0.0490    1.2505 H   0  0  0  0  0  0  0  0  0  0  0  0
   -2.4151   -1.3564    2.0153 H   0  0  0  0  0  0  0  0  0  0  0  0
   -2.2616   -2.2523    0.5144 H   0  0  0  0  0  0  0  0  0  0  0  0
   -4.5562   -1.3733    0.7309 H   0  0  0  0  0  0  0  0  0  0  0  0
   -4.9586    1.0876    0.7254 H   0  0  0  0  0  0  0  0  0  0  0  0
   -4.0277    0.6141    2.1447 H   0  0  0  0  0  0  0  0  0  0  0  0
   -3.0353    2.6392    1.0784 H   0  0  0  0  0  0  0  0  0  0  0  0
   -2.0501    2.4696   -1.2074 H   0  0  0  0  0  0  0  0  0  0  0  0
   -3.7886    2.1863   -1.2578 H   0  0  0  0  0  0  0  0  0  0  0  0
   -2.5837    0.4822   -2.6213 H   0  0  0  0  0  0  0  0  0  0  0  0
   -4.6850   -0.1973   -1.4643 H   0  0  0  0  0  0  0  0  0  0  0  0
   -3.5637   -1.5535   -1.5539 H   0  0  0  0  0  0  0  0  0  0  0  0
   -1.0536   -1.1243   -1.5261 H   0  0  0  0  0  0  0  0  0  0  0  0
   -0.4333    0.5086   -1.3595 H   0  0  0  0  0  0  0  0  0  0  0  0
   -0.7126    1.7891    0.8488 H   0  0  0  0  0  0  0  0  0  0  0  0
   -1.5133    1.0281    2.2134 H   0  0  0  0  0  0  0  0  0  0  0  0
  1  2  2  0
  2  3  1  0
  3  4  1  0
  4  5  1  0
  5  6  2  0
  6  7  1  0
  7  8  2  0
  8  9  1  0
  9 10  2  0
 10 11  1  0
 11 12  2  0
 11 13  1  0
  2 14  1  0
 14 15  1  0
 15 16  1  0
 16 17  1  0
 17 18  1  0
 18 19  1  0
 19 20  1  0
 20 21  1  0
 21 22  1  0
 21 23  1  0
 19 24  1  0
 10  5  1  0
 23 15  1  0
 24 15  1  0
 22 17  1  0
  3 25  1  0
  3 26  1  0
  7 27  1  0
  8 28  1  0
  9 29  1  0
 13 30  1  0
 14 31  1  0
 16 32  1  0
 16 33  1  0
 17 34  1  0
 18 35  1  0
 18 36  1  0
 19 37  1  0
 20 38  1  0
 20 39  1  0
 21 40  1  0
 22 41  1  0
 22 42  1  0
 23 43  1  0
 23 44  1  0
 24 45  1  0
 24 46  1  0
M  END
$$$$
