
     RDKit          3D

 41 43  0  0  0  0  0  0  0  0999 V2000
   -3.2183    0.0905    3.6661 C   0  0  0  0  0  0  0  0  0  0  0  0
   -1.8459   -0.0688    3.0311 C   0  0  0  0  0  0  0  0  0  0  0  0
   -1.6947   -1.3567    2.2147 C   0  0  0  0  0  0  0  0  0  0  0  0
   -2.6668   -1.5378    1.0444 C   0  0  0  0  0  0  0  0  0  0  0  0
   -2.6138   -0.2040   -0.1906 S   0  0  0  0  0  0  0  0  0  0  0  0
   -0.9985   -0.4127   -0.7909 C   0  0  0  0  0  0  0  0  0  0  0  0
   -0.6123   -1.5846   -1.1925 N   0  0  0  0  0  0  0  0  0  0  0  0
    0.7225   -1.4269   -1.4882 C   0  0  0  0  0  0  0  0  0  0  0  0
    1.4698   -2.4366   -1.9582 C   0  0  0  0  0  0  0  0  0  0  0  0
    2.8557   -2.4767   -2.3065 C   0  0  0  0  0  0  0  0  0  0  0  0
    3.3557   -3.1611   -3.4579 C   0  0  0  0  0  0  0  0  0  0  0  0
    4.7280   -3.0867   -3.5578 C   0  0  0  0  0  0  0  0  0  0  0  0
    5.4191   -2.2206   -2.2562 S   0  0  0  0  0  0  0  0  0  0  0  0
    3.8806   -1.9425   -1.5550 C   0  0  0  0  0  0  0  0  0  0  0  0
    1.1178   -0.0073   -1.2202 C   0  0  0  0  0  0  0  0  0  0  0  0
    2.2197    0.4815   -1.3898 O   0  0  0  0  0  0  0  0  0  0  0  0
   -0.0569    0.5784   -0.7972 N   0  0  0  0  0  0  0  0  0  0  0  0
   -0.1674    1.9577   -0.4666 C   0  0  0  0  0  0  0  0  0  0  0  0
   -1.3368    2.6941   -0.7033 C   0  0  0  0  0  0  0  0  0  0  0  0
   -1.4231    4.0506   -0.3675 C   0  0  0  0  0  0  0  0  0  0  0  0
   -0.3346    4.7015    0.2019 C   0  0  0  0  0  0  0  0  0  0  0  0
    0.8435    3.9990    0.4245 C   0  0  0  0  0  0  0  0  0  0  0  0
    0.9268    2.6437    0.0874 C   0  0  0  0  0  0  0  0  0  0  0  0
   -3.2310    0.9714    4.3160 H   0  0  0  0  0  0  0  0  0  0  0  0
   -3.9975    0.2260    2.9105 H   0  0  0  0  0  0  0  0  0  0  0  0
   -3.4734   -0.7827    4.2749 H   0  0  0  0  0  0  0  0  0  0  0  0
   -1.6232    0.8092    2.4156 H   0  0  0  0  0  0  0  0  0  0  0  0
   -1.0939   -0.0806    3.8296 H   0  0  0  0  0  0  0  0  0  0  0  0
   -1.8193   -2.2124    2.8909 H   0  0  0  0  0  0  0  0  0  0  0  0
   -0.6622   -1.4169    1.8491 H   0  0  0  0  0  0  0  0  0  0  0  0
   -2.4689   -2.4941    0.5480 H   0  0  0  0  0  0  0  0  0  0  0  0
   -3.6934   -1.5966    1.4202 H   0  0  0  0  0  0  0  0  0  0  0  0
    0.9352   -3.3716   -2.1262 H   0  0  0  0  0  0  0  0  0  0  0  0
    2.7422   -3.6757   -4.1878 H   0  0  0  0  0  0  0  0  0  0  0  0
    5.3600   -3.5025   -4.3302 H   0  0  0  0  0  0  0  0  0  0  0  0
    3.8213   -1.3945   -0.6247 H   0  0  0  0  0  0  0  0  0  0  0  0
   -2.1951    2.2567   -1.2039 H   0  0  0  0  0  0  0  0  0  0  0  0
   -2.3404    4.5996   -0.5668 H   0  0  0  0  0  0  0  0  0  0  0  0
   -0.4000    5.7554    0.4593 H   0  0  0  0  0  0  0  0  0  0  0  0
    1.7041    4.5013    0.8598 H   0  0  0  0  0  0  0  0  0  0  0  0
    1.8655    2.1338    0.2940 H   0  0  0  0  0  0  0  0  0  0  0  0
  1  2  1  0
  2  3  1  0
  3  4  1  0
  4  5  1  0
  5  6  1  0
  6  7  2  0
  7  8  1  0
  8  9  2  3
  9 10  1  0
 10 11  1  0
 11 12  2  0
 12 13  1  0
 13 14  1  0
  8 15  1  0
 15 16  2  0
 15 17  1  0
 17 18  1  0
 18 19  2  0
 19 20  1  0
 20 21  2  0
 21 22  1  0
 22 23  2  0
 17  6  1  0
 23 18  1  0
 14 10  2  0
  1 24  1  0
  1 25  1  0
  1 26  1  0
  2 27  1  0
  2 28  1  0
  3 29  1  0
  3 30  1  0
  4 31  1  0
  4 32  1  0
  9 33  1  0
 11 34  1  0
 12 35  1  0
 14 36  1  0
 19 37  1  0
 20 38  1  0
 21 39  1  0
 22 40  1  0
 23 41  1  0
M  END
$$$$
