
     RDKit          3D

 35 36  0  0  0  0  0  0  0  0999 V2000
    2.7310   -2.4962   -0.4730 C   0  0  0  0  0  0  0  0  0  0  0  0
    2.0867   -1.3033   -0.0436 O   0  0  0  0  0  0  0  0  0  0  0  0
    2.8834   -0.3228    0.5026 C   0  0  0  0  0  0  0  0  0  0  0  0
    4.2746   -0.3960    0.6200 C   0  0  0  0  0  0  0  0  0  0  0  0
    4.9863    0.6629    1.1874 C   0  0  0  0  0  0  0  0  0  0  0  0
    4.3137    1.7960    1.6375 C   0  0  0  0  0  0  0  0  0  0  0  0
    2.9245    1.8791    1.5241 C   0  0  0  0  0  0  0  0  0  0  0  0
    2.2019    0.8264    0.9596 C   0  0  0  0  0  0  0  0  0  0  0  0
    0.8012    0.8391    0.8122 N   0  0  0  0  0  0  0  0  0  0  0  0
   -0.1046    1.8218    1.1588 C   0  0  0  0  0  0  0  0  0  0  0  0
    0.1451    2.8914    1.7065 O   0  0  0  0  0  0  0  0  0  0  0  0
   -1.5493    1.4198    0.8213 C   0  0  0  0  0  0  0  0  0  0  0  0
   -1.5804    0.4960   -0.3313 N   0  0  0  0  0  0  0  0  0  0  0  0
   -2.8080   -0.0112   -0.7739 C   0  0  0  0  0  0  0  0  0  0  0  0
   -3.9508   -0.0974    0.0331 C   0  0  0  0  0  0  0  0  0  0  0  0
   -5.1276   -0.6885   -0.4404 C   0  0  0  0  0  0  0  0  0  0  0  0
   -5.1633   -1.2279   -1.7195 C   0  0  0  0  0  0  0  0  0  0  0  0
   -6.3003   -1.7920   -2.1521 F   0  0  0  0  0  0  0  0  0  0  0  0
   -4.0319   -1.1919   -2.5249 C   0  0  0  0  0  0  0  0  0  0  0  0
   -4.0535   -1.8798   -4.1034 Cl  0  0  0  0  0  0  0  0  0  0  0  0
   -2.8592   -0.5992   -2.0491 C   0  0  0  0  0  0  0  0  0  0  0  0
    1.9602   -3.1722   -0.8556 H   0  0  0  0  0  0  0  0  0  0  0  0
    3.2296   -2.9993    0.3620 H   0  0  0  0  0  0  0  0  0  0  0  0
    3.4308   -2.2937   -1.2904 H   0  0  0  0  0  0  0  0  0  0  0  0
    4.8361   -1.2592    0.2797 H   0  0  0  0  0  0  0  0  0  0  0  0
    6.0682    0.6040    1.2781 H   0  0  0  0  0  0  0  0  0  0  0  0
    4.8684    2.6203    2.0794 H   0  0  0  0  0  0  0  0  0  0  0  0
    2.4343    2.7772    1.8861 H   0  0  0  0  0  0  0  0  0  0  0  0
    0.4036   -0.0003    0.3891 H   0  0  0  0  0  0  0  0  0  0  0  0
   -1.9581    0.9467    1.7202 H   0  0  0  0  0  0  0  0  0  0  0  0
   -2.1116    2.3293    0.5835 H   0  0  0  0  0  0  0  0  0  0  0  0
   -1.0385    0.8692   -1.1133 H   0  0  0  0  0  0  0  0  0  0  0  0
   -3.9566    0.2900    1.0477 H   0  0  0  0  0  0  0  0  0  0  0  0
   -6.0119   -0.7391    0.1875 H   0  0  0  0  0  0  0  0  0  0  0  0
   -1.9737   -0.5990   -2.6804 H   0  0  0  0  0  0  0  0  0  0  0  0
  1  2  1  0
  2  3  1  0
  3  4  2  0
  4  5  1  0
  5  6  2  0
  6  7  1  0
  7  8  2  0
  8  9  1  0
  9 10  1  0
 10 11  2  0
 10 12  1  0
 12 13  1  0
 13 14  1  0
 14 15  2  0
 15 16  1  0
 16 17  2  0
 17 18  1  0
 17 19  1  0
 19 20  1  0
 19 21  2  0
  8  3  1  0
 21 14  1  0
  1 22  1  0
  1 23  1  0
  1 24  1  0
  4 25  1  0
  5 26  1  0
  6 27  1  0
  7 28  1  0
  9 29  1  0
 12 30  1  0
 12 31  1  0
 13 32  1  0
 15 33  1  0
 16 34  1  0
 21 35  1  0
M  END
$$$$
