
     RDKit          3D

 35 36  0  0  0  0  0  0  0  0999 V2000
    4.3039    0.4555    2.0621 C   0  0  0  0  0  0  0  0  0  0  0  0
    3.8858    1.4649    1.0075 C   0  0  0  0  0  0  0  0  0  0  0  0
    3.6464    0.8453   -0.2867 N   0  0  0  0  0  0  0  0  0  0  0  0
    4.6821    0.7981   -1.1570 N   0  0  0  0  0  0  0  0  0  0  0  0
    4.1700    0.2094   -2.2345 C   0  0  0  0  0  0  0  0  0  0  0  0
    2.8195   -0.1083   -2.0567 C   0  0  0  0  0  0  0  0  0  0  0  0
    1.8102   -0.9667   -3.3838 Br  0  0  0  0  0  0  0  0  0  0  0  0
    2.4700    0.3088   -0.7841 C   0  0  0  0  0  0  0  0  0  0  0  0
    1.2246    0.2390   -0.0350 C   0  0  0  0  0  0  0  0  0  0  0  0
    1.1899    0.4597    1.1705 O   0  0  0  0  0  0  0  0  0  0  0  0
    0.1144   -0.0774   -0.7946 N   0  0  0  0  0  0  0  0  0  0  0  0
   -1.2246   -0.2264   -0.3750 C   0  0  0  0  0  0  0  0  0  0  0  0
   -1.6587   -0.0743    0.9428 C   0  0  0  0  0  0  0  0  0  0  0  0
   -3.0092   -0.2555    1.2811 C   0  0  0  0  0  0  0  0  0  0  0  0
   -3.4622   -0.0639    2.6993 C   0  0  0  0  0  0  0  0  0  0  0  0
   -3.9348   -0.5628    0.2776 C   0  0  0  0  0  0  0  0  0  0  0  0
   -3.5226   -0.7049   -1.0508 C   0  0  0  0  0  0  0  0  0  0  0  0
   -4.5107   -1.0764   -2.1167 C   0  0  0  0  0  0  0  0  0  0  0  0
   -2.1649   -0.5501   -1.3635 C   0  0  0  0  0  0  0  0  0  0  0  0
    3.5383   -0.3122    2.2119 H   0  0  0  0  0  0  0  0  0  0  0  0
    4.4769    0.9568    3.0193 H   0  0  0  0  0  0  0  0  0  0  0  0
    5.2294   -0.0535    1.7724 H   0  0  0  0  0  0  0  0  0  0  0  0
    2.9911    2.0190    1.3035 H   0  0  0  0  0  0  0  0  0  0  0  0
    4.6797    2.2093    0.8709 H   0  0  0  0  0  0  0  0  0  0  0  0
    4.8071    0.0400   -3.0931 H   0  0  0  0  0  0  0  0  0  0  0  0
    0.2763   -0.2211   -1.7822 H   0  0  0  0  0  0  0  0  0  0  0  0
   -0.9654    0.1814    1.7378 H   0  0  0  0  0  0  0  0  0  0  0  0
   -3.6947    0.9904    2.8780 H   0  0  0  0  0  0  0  0  0  0  0  0
   -2.6854   -0.3810    3.4030 H   0  0  0  0  0  0  0  0  0  0  0  0
   -4.3542   -0.6631    2.9102 H   0  0  0  0  0  0  0  0  0  0  0  0
   -4.9845   -0.6926    0.5345 H   0  0  0  0  0  0  0  0  0  0  0  0
   -4.2178   -0.6556   -3.0844 H   0  0  0  0  0  0  0  0  0  0  0  0
   -4.5711   -2.1653   -2.2075 H   0  0  0  0  0  0  0  0  0  0  0  0
   -5.5060   -0.6850   -1.8813 H   0  0  0  0  0  0  0  0  0  0  0  0
   -1.8487   -0.6817   -2.3958 H   0  0  0  0  0  0  0  0  0  0  0  0
  1  2  1  0
  2  3  1  0
  3  4  1  0
  4  5  2  0
  5  6  1  0
  6  7  1  0
  6  8  2  0
  8  9  1  0
  9 10  2  0
  9 11  1  0
 11 12  1  0
 12 13  2  0
 13 14  1  0
 14 15  1  0
 14 16  2  0
 16 17  1  0
 17 18  1  0
 17 19  2  0
  8  3  1  0
 19 12  1  0
  1 20  1  0
  1 21  1  0
  1 22  1  0
  2 23  1  0
  2 24  1  0
  5 25  1  0
 11 26  1  0
 13 27  1  0
 15 28  1  0
 15 29  1  0
 15 30  1  0
 16 31  1  0
 18 32  1  0
 18 33  1  0
 18 34  1  0
 19 35  1  0
M  END
$$$$
