
     RDKit          3D

 56 58  0  0  0  0  0  0  0  0999 V2000
   -3.3668    1.6468    4.0067 C   0  0  0  0  0  0  0  0  0  0  0  0
   -3.5096    2.0293    2.6458 O   0  0  0  0  0  0  0  0  0  0  0  0
   -3.6841    1.0289    1.7215 C   0  0  0  0  0  0  0  0  0  0  0  0
   -3.7717   -0.3304    2.0322 C   0  0  0  0  0  0  0  0  0  0  0  0
   -3.9377   -1.2806    1.0203 C   0  0  0  0  0  0  0  0  0  0  0  0
   -4.0204   -0.8905   -0.3206 C   0  0  0  0  0  0  0  0  0  0  0  0
   -4.1845   -1.9328   -1.4047 C   0  0  0  0  0  0  0  0  0  0  0  0
   -3.1640   -1.8616   -2.5529 C   0  0  0  0  0  0  0  0  0  0  0  0
   -1.7912   -1.8565   -2.0782 N   0  0  0  0  0  0  0  0  0  0  0  0
   -1.0576   -0.6952   -2.0612 C   0  0  0  0  0  0  0  0  0  0  0  0
   -1.3702    0.3368   -2.6410 O   0  0  0  0  0  0  0  0  0  0  0  0
    0.1673   -0.7751   -1.2296 C   0  0  0  0  0  0  0  0  0  0  0  0
    0.4423    0.2661   -0.4244 C   0  0  0  0  0  0  0  0  0  0  0  0
    1.6413    0.3416    0.4721 C   0  0  0  0  0  0  0  0  0  0  0  0
    2.3332   -0.9650    0.5244 N   0  0  0  0  0  0  0  0  0  0  0  0
    3.6522   -1.0666    1.5860 S   0  0  0  0  0  6  0  0  0  0  0  0
    3.2946   -0.3974    2.8168 O   0  0  0  0  0  0  0  0  0  0  0  0
    4.1241   -2.4343    1.5897 O   0  0  0  0  0  0  0  0  0  0  0  0
    4.9055   -0.0791    0.7884 C   0  0  0  0  0  0  0  0  0  0  0  0
    5.0560    1.2682    1.1407 C   0  0  0  0  0  0  0  0  0  0  0  0
    6.0567    2.0285    0.5340 C   0  0  0  0  0  0  0  0  0  0  0  0
    6.9009    1.4350   -0.3993 C   0  0  0  0  0  0  0  0  0  0  0  0
    7.8589    2.1677   -0.9802 F   0  0  0  0  0  0  0  0  0  0  0  0
    6.7712    0.0899   -0.7344 C   0  0  0  0  0  0  0  0  0  0  0  0
    5.7740   -0.6781   -0.1326 C   0  0  0  0  0  0  0  0  0  0  0  0
    2.4720   -1.6183   -0.7986 C   0  0  0  0  0  0  0  0  0  0  0  0
    1.0803   -1.9566   -1.3384 C   0  0  0  0  0  0  0  0  0  0  0  0
   -3.9589    0.4766   -0.6281 C   0  0  0  0  0  0  0  0  0  0  0  0
   -3.7702    1.4342    0.3772 C   0  0  0  0  0  0  0  0  0  0  0  0
   -3.6789    2.7842    0.1408 O   0  0  0  0  0  0  0  0  0  0  0  0
   -3.3357    3.1778   -1.1823 C   0  0  0  0  0  0  0  0  0  0  0  0
   -3.2273    2.5582    4.5969 H   0  0  0  0  0  0  0  0  0  0  0  0
   -4.2695    1.1480    4.3752 H   0  0  0  0  0  0  0  0  0  0  0  0
   -2.4787    1.0204    4.1494 H   0  0  0  0  0  0  0  0  0  0  0  0
   -3.7136   -0.6865    3.0542 H   0  0  0  0  0  0  0  0  0  0  0  0
   -3.9987   -2.3313    1.2947 H   0  0  0  0  0  0  0  0  0  0  0  0
   -5.1987   -1.8537   -1.8146 H   0  0  0  0  0  0  0  0  0  0  0  0
   -4.1128   -2.9310   -0.9534 H   0  0  0  0  0  0  0  0  0  0  0  0
   -3.3499   -0.9818   -3.1772 H   0  0  0  0  0  0  0  0  0  0  0  0
   -3.2774   -2.7454   -3.1893 H   0  0  0  0  0  0  0  0  0  0  0  0
   -1.5114   -2.6096   -1.4656 H   0  0  0  0  0  0  0  0  0  0  0  0
   -0.2358    1.1178   -0.3880 H   0  0  0  0  0  0  0  0  0  0  0  0
    1.2987    0.6136    1.4754 H   0  0  0  0  0  0  0  0  0  0  0  0
    2.3092    1.1227    0.0988 H   0  0  0  0  0  0  0  0  0  0  0  0
    4.4083    1.7267    1.8848 H   0  0  0  0  0  0  0  0  0  0  0  0
    6.1915    3.0756    0.7888 H   0  0  0  0  0  0  0  0  0  0  0  0
    7.4545   -0.3511   -1.4534 H   0  0  0  0  0  0  0  0  0  0  0  0
    5.6853   -1.7345   -0.3771 H   0  0  0  0  0  0  0  0  0  0  0  0
    2.9987   -0.9506   -1.4905 H   0  0  0  0  0  0  0  0  0  0  0  0
    3.0460   -2.5462   -0.7216 H   0  0  0  0  0  0  0  0  0  0  0  0
    0.6591   -2.7910   -0.7640 H   0  0  0  0  0  0  0  0  0  0  0  0
    1.1703   -2.2804   -2.3819 H   0  0  0  0  0  0  0  0  0  0  0  0
   -4.0452    0.7791   -1.6667 H   0  0  0  0  0  0  0  0  0  0  0  0
   -2.4325    2.6681   -1.5319 H   0  0  0  0  0  0  0  0  0  0  0  0
   -3.1248    4.2512   -1.1652 H   0  0  0  0  0  0  0  0  0  0  0  0
   -4.1743    3.0181   -1.8680 H   0  0  0  0  0  0  0  0  0  0  0  0
  1  2  1  0
  2  3  1  0
  3  4  2  0
  4  5  1  0
  5  6  2  0
  6  7  1  0
  7  8  1  0
  8  9  1  0
  9 10  1  0
 10 11  2  0
 10 12  1  0
 12 13  2  0
 13 14  1  0
 14 15  1  0
 15 16  1  0
 16 17  2  0
 16 18  2  0
 16 19  1  0
 19 20  2  0
 20 21  1  0
 21 22  2  0
 22 23  1  0
 22 24  1  0
 24 25  2  0
 15 26  1  0
 26 27  1  0
  6 28  1  0
 28 29  2  0
 29 30  1  0
 30 31  1  0
 29  3  1  0
 27 12  1  0
 25 19  1  0
  1 32  1  0
  1 33  1  0
  1 34  1  0
  4 35  1  0
  5 36  1  0
  7 37  1  0
  7 38  1  0
  8 39  1  0
  8 40  1  0
  9 41  1  0
 13 42  1  0
 14 43  1  0
 14 44  1  0
 20 45  1  0
 21 46  1  0
 24 47  1  0
 25 48  1  0
 26 49  1  0
 26 50  1  0
 27 51  1  0
 27 52  1  0
 28 53  1  0
 31 54  1  0
 31 55  1  0
 31 56  1  0
M  END
$$$$
