
     RDKit          3D

 44 46  0  0  0  0  0  0  0  0999 V2000
    4.5163    1.3231   -1.4654 C   0  0  0  0  0  0  0  0  0  0  0  0
    3.0754    1.5358   -1.3722 N   0  0  0  0  0  0  0  0  0  0  0  0
    2.4199    1.2594   -2.6678 C   0  0  0  0  0  0  0  0  0  0  0  0
    0.9019    1.0374   -2.5507 C   0  0  0  0  0  0  0  0  0  0  0  0
    0.5666   -0.0483   -1.6292 N   0  0  0  0  0  0  0  0  0  0  0  0
   -0.7201   -0.5638   -1.6609 C   0  0  0  0  0  0  0  0  0  0  0  0
   -1.5667   -0.2348   -2.4885 O   0  0  0  0  0  0  0  0  0  0  0  0
   -1.0909   -1.5958   -0.6703 C   0  0  0  0  0  0  0  0  0  0  0  0
   -0.7838   -2.9246   -1.0016 C   0  0  0  0  0  0  0  0  0  0  0  0
   -1.1220   -3.9541   -0.1277 C   0  0  0  0  0  0  0  0  0  0  0  0
   -1.7755   -3.6594    1.0660 C   0  0  0  0  0  0  0  0  0  0  0  0
   -2.0915   -2.3352    1.3891 C   0  0  0  0  0  0  0  0  0  0  0  0
   -1.7522   -1.2681    0.5337 C   0  0  0  0  0  0  0  0  0  0  0  0
   -2.1174    0.1146    0.9142 C   0  0  0  0  0  0  0  0  0  0  0  0
   -3.0257    0.8318    0.1094 C   0  0  0  0  0  0  0  0  0  0  0  0
   -3.4495    2.1213    0.4456 C   0  0  0  0  0  0  0  0  0  0  0  0
   -2.9919    2.7245    1.6109 C   0  0  0  0  0  0  0  0  0  0  0  0
   -2.1065    2.0385    2.4375 C   0  0  0  0  0  0  0  0  0  0  0  0
   -1.6621    0.7509    2.0898 C   0  0  0  0  0  0  0  0  0  0  0  0
   -0.7419    0.1149    3.0531 C   0  0  0  0  0  0  0  0  0  0  0  0
   -0.9038    0.0629    4.2580 O   0  0  0  0  0  0  0  0  0  0  0  0
    0.3774   -0.3466    2.4727 O   0  0  0  0  0  0  0  0  0  0  0  0
    1.6192   -0.4369   -0.6862 C   0  0  0  0  0  0  0  0  0  0  0  0
    2.4715    0.7721   -0.2593 C   0  0  0  0  0  0  0  0  0  0  0  0
    4.7664    0.2723   -1.6506 H   0  0  0  0  0  0  0  0  0  0  0  0
    5.0118    1.6383   -0.5404 H   0  0  0  0  0  0  0  0  0  0  0  0
    4.9446    1.9285   -2.2721 H   0  0  0  0  0  0  0  0  0  0  0  0
    2.6082    2.0975   -3.3487 H   0  0  0  0  0  0  0  0  0  0  0  0
    2.8564    0.3625   -3.1286 H   0  0  0  0  0  0  0  0  0  0  0  0
    0.4776    0.8173   -3.5369 H   0  0  0  0  0  0  0  0  0  0  0  0
    0.4119    1.9447   -2.1764 H   0  0  0  0  0  0  0  0  0  0  0  0
   -0.2917   -3.1512   -1.9445 H   0  0  0  0  0  0  0  0  0  0  0  0
   -0.8891   -4.9849   -0.3823 H   0  0  0  0  0  0  0  0  0  0  0  0
   -2.0531   -4.4618    1.7459 H   0  0  0  0  0  0  0  0  0  0  0  0
   -2.6222   -2.1416    2.3209 H   0  0  0  0  0  0  0  0  0  0  0  0
   -3.4234    0.3812   -0.8006 H   0  0  0  0  0  0  0  0  0  0  0  0
   -4.1446    2.6462   -0.2057 H   0  0  0  0  0  0  0  0  0  0  0  0
   -3.3279    3.7233    1.8775 H   0  0  0  0  0  0  0  0  0  0  0  0
   -1.7590    2.5074    3.3562 H   0  0  0  0  0  0  0  0  0  0  0  0
    0.8900   -0.7099    3.2249 H   0  0  0  0  0  0  0  0  0  0  0  0
    1.1999   -0.9274    0.1919 H   0  0  0  0  0  0  0  0  0  0  0  0
    2.2472   -1.1774   -1.1965 H   0  0  0  0  0  0  0  0  0  0  0  0
    3.2297    0.4464    0.4635 H   0  0  0  0  0  0  0  0  0  0  0  0
    1.8204    1.4692    0.2841 H   0  0  0  0  0  0  0  0  0  0  0  0
  1  2  1  0
  2  3  1  0
  3  4  1  0
  4  5  1  0
  5  6  1  0
  6  7  2  0
  6  8  1  0
  8  9  2  0
  9 10  1  0
 10 11  2  0
 11 12  1  0
 12 13  2  0
 13 14  1  0
 14 15  2  0
 15 16  1  0
 16 17  2  0
 17 18  1  0
 18 19  2  0
 19 20  1  0
 20 21  2  0
 20 22  1  0
  5 23  1  0
 23 24  1  0
 24  2  1  0
 13  8  1  0
 19 14  1  0
  1 25  1  0
  1 26  1  0
  1 27  1  0
  3 28  1  0
  3 29  1  0
  4 30  1  0
  4 31  1  0
  9 32  1  0
 10 33  1  0
 11 34  1  0
 12 35  1  0
 15 36  1  0
 16 37  1  0
 17 38  1  0
 18 39  1  0
 22 40  1  0
 23 41  1  0
 23 42  1  0
 24 43  1  0
 24 44  1  0
M  END
$$$$
