
     RDKit          3D

 49 52  0  0  0  0  0  0  0  0999 V2000
    6.0394   -4.1425   -2.5888 C   0  0  0  0  0  0  0  0  0  0  0  0
    5.2020   -2.9735   -2.1618 C   0  0  0  0  0  0  0  0  0  0  0  0
    4.8023   -2.0091   -3.0944 C   0  0  0  0  0  0  0  0  0  0  0  0
    3.9969   -0.9360   -2.7034 C   0  0  0  0  0  0  0  0  0  0  0  0
    3.5701   -0.8219   -1.3777 C   0  0  0  0  0  0  0  0  0  0  0  0
    2.7271    0.3071   -0.9812 C   0  0  0  0  0  0  0  0  0  0  0  0
    1.4216    0.1924   -0.6965 C   0  0  0  0  0  0  0  0  0  0  0  0
    0.5726   -1.0604   -0.7347 C   0  0  0  0  0  0  0  0  0  0  0  0
   -0.8639   -0.6020   -0.4145 C   0  0  0  0  0  0  0  0  0  0  0  0
   -0.7157    0.8579   -0.1375 C   0  0  0  0  0  0  0  0  0  0  0  0
    0.5420    1.2631   -0.3162 C   0  0  0  0  0  0  0  0  0  0  0  0
    0.9797    2.5824   -0.2950 O   0  0  0  0  0  0  0  0  0  0  0  0
    0.0545    3.5139    0.0474 C   0  0  0  0  0  0  0  0  0  0  0  0
    0.2847    4.7469   -0.2647 N   0  0  0  0  0  0  0  0  0  0  0  0
   -1.1794    3.1016    0.8173 C   0  0  0  0  0  0  0  0  0  0  0  0
   -0.7802    2.9282    2.2236 C   0  0  0  0  0  0  0  0  0  0  0  0
   -0.4584    2.7821    3.3301 N   0  0  0  0  0  0  0  0  0  0  0  0
   -1.7965    1.8411    0.1736 C   0  0  0  0  0  0  0  0  0  0  0  0
   -3.0018    1.2954    0.9244 C   0  0  0  0  0  0  0  0  0  0  0  0
   -2.8785    0.5243    2.0898 C   0  0  0  0  0  0  0  0  0  0  0  0
   -4.0100    0.0578    2.7648 C   0  0  0  0  0  0  0  0  0  0  0  0
   -5.2919    0.3608    2.2981 C   0  0  0  0  0  0  0  0  0  0  0  0
   -6.5038   -0.1669    3.0066 C   0  0  0  0  0  0  0  0  0  0  0  0
   -5.4245    1.1182    1.1313 C   0  0  0  0  0  0  0  0  0  0  0  0
   -4.2935    1.5866    0.4569 C   0  0  0  0  0  0  0  0  0  0  0  0
    3.9588   -1.7887   -0.4457 C   0  0  0  0  0  0  0  0  0  0  0  0
    4.7643   -2.8613   -0.8370 C   0  0  0  0  0  0  0  0  0  0  0  0
    6.7017   -3.8670   -3.4163 H   0  0  0  0  0  0  0  0  0  0  0  0
    5.3951   -4.9665   -2.9103 H   0  0  0  0  0  0  0  0  0  0  0  0
    6.6744   -4.4891   -1.7668 H   0  0  0  0  0  0  0  0  0  0  0  0
    5.1167   -2.0858   -4.1328 H   0  0  0  0  0  0  0  0  0  0  0  0
    3.7007   -0.1955   -3.4424 H   0  0  0  0  0  0  0  0  0  0  0  0
    3.2295    1.2702   -0.9423 H   0  0  0  0  0  0  0  0  0  0  0  0
    0.6084   -1.5398   -1.7194 H   0  0  0  0  0  0  0  0  0  0  0  0
    0.9085   -1.7826    0.0182 H   0  0  0  0  0  0  0  0  0  0  0  0
   -1.2521   -1.1537    0.4463 H   0  0  0  0  0  0  0  0  0  0  0  0
   -1.5271   -0.7739   -1.2690 H   0  0  0  0  0  0  0  0  0  0  0  0
    1.1890    4.7740   -0.7540 H   0  0  0  0  0  0  0  0  0  0  0  0
   -1.9099    3.9195    0.7616 H   0  0  0  0  0  0  0  0  0  0  0  0
   -2.1669    2.1455   -0.8187 H   0  0  0  0  0  0  0  0  0  0  0  0
   -1.8993    0.2726    2.4945 H   0  0  0  0  0  0  0  0  0  0  0  0
   -3.8801   -0.5405    3.6643 H   0  0  0  0  0  0  0  0  0  0  0  0
   -7.3550    0.5108    2.8825 H   0  0  0  0  0  0  0  0  0  0  0  0
   -6.3180   -0.2604    4.0818 H   0  0  0  0  0  0  0  0  0  0  0  0
   -6.7726   -1.1495    2.6069 H   0  0  0  0  0  0  0  0  0  0  0  0
   -6.4122    1.3530    0.7402 H   0  0  0  0  0  0  0  0  0  0  0  0
   -4.4375    2.1813   -0.4433 H   0  0  0  0  0  0  0  0  0  0  0  0
    3.6385   -1.7131    0.5908 H   0  0  0  0  0  0  0  0  0  0  0  0
    5.0504   -3.6069   -0.0985 H   0  0  0  0  0  0  0  0  0  0  0  0
  1  2  1  0
  2  3  2  0
  3  4  1  0
  4  5  2  0
  5  6  1  0
  6  7  2  3
  7  8  1  0
  8  9  1  0
  9 10  1  0
 10 11  2  0
 11 12  1  0
 12 13  1  0
 13 14  2  3
 13 15  1  0
 15 16  1  0
 16 17  3  0
 15 18  1  0
 18 19  1  0
 19 20  2  0
 20 21  1  0
 21 22  2  0
 22 23  1  0
 22 24  1  0
 24 25  2  0
  5 26  1  0
 26 27  2  0
 27  2  1  0
 11  7  1  0
 25 19  1  0
 18 10  1  0
  1 28  1  0
  1 29  1  0
  1 30  1  0
  3 31  1  0
  4 32  1  0
  6 33  1  0
  8 34  1  0
  8 35  1  0
  9 36  1  0
  9 37  1  0
 14 38  1  0
 15 39  1  0
 18 40  1  0
 20 41  1  0
 21 42  1  0
 23 43  1  0
 23 44  1  0
 23 45  1  0
 24 46  1  0
 25 47  1  0
 26 48  1  0
 27 49  1  0
M  END
$$$$
