
     RDKit          3D

 49 51  0  0  0  0  0  0  0  0999 V2000
   -8.2878    3.1268    4.3004 C   0  0  0  0  0  0  0  0  0  0  0  0
   -8.2595    2.7804    2.9217 O   0  0  0  0  0  0  0  0  0  0  0  0
   -7.1188    2.1914    2.4537 C   0  0  0  0  0  0  0  0  0  0  0  0
   -7.1443    1.8581    1.0991 C   0  0  0  0  0  0  0  0  0  0  0  0
   -6.0432    1.2489    0.4855 C   0  0  0  0  0  0  0  0  0  0  0  0
   -4.8963    0.9631    1.2238 C   0  0  0  0  0  0  0  0  0  0  0  0
   -3.7398    0.3563    0.6894 N   0  0  0  0  0  0  0  0  0  0  0  0
   -3.5503   -0.0891   -0.6077 C   0  0  0  0  0  0  0  0  0  0  0  0
   -4.3666   -0.0755   -1.5200 O   0  0  0  0  0  0  0  0  0  0  0  0
   -2.1921   -0.6610   -0.8418 C   0  0  0  0  0  0  0  0  0  0  0  0
   -2.1217   -1.9370   -1.4661 C   0  0  0  0  0  0  0  0  0  0  0  0
   -2.0356   -2.9958   -1.9346 N   0  0  0  0  0  0  0  0  0  0  0  0
   -1.1196    0.0933   -0.5299 C   0  0  0  0  0  0  0  0  0  0  0  0
    0.2865   -0.2856   -0.7181 C   0  0  0  0  0  0  0  0  0  0  0  0
    0.8259   -1.4366   -0.1369 C   0  0  0  0  0  0  0  0  0  0  0  0
    2.1777   -1.7453   -0.3143 C   0  0  0  0  0  0  0  0  0  0  0  0
    3.0103   -0.9102   -1.0622 C   0  0  0  0  0  0  0  0  0  0  0  0
    4.3072   -1.3320   -1.1525 O   0  0  0  0  0  0  0  0  0  0  0  0
    5.2024   -0.5298   -1.9261 C   0  0  0  0  0  0  0  0  0  0  0  0
    6.5732   -1.1586   -1.9531 C   0  0  0  0  0  0  0  0  0  0  0  0
    6.7598   -2.5479   -1.9025 C   0  0  0  0  0  0  0  0  0  0  0  0
    8.0446   -3.0949   -1.9688 C   0  0  0  0  0  0  0  0  0  0  0  0
    9.1563   -2.2628   -2.0992 C   0  0  0  0  0  0  0  0  0  0  0  0
    8.9828   -0.8824   -2.1690 C   0  0  0  0  0  0  0  0  0  0  0  0
    7.7001   -0.3448   -2.1017 C   0  0  0  0  0  0  0  0  0  0  0  0
    7.5543    0.9855   -2.1891 F   0  0  0  0  0  0  0  0  0  0  0  0
    2.4782    0.2452   -1.6328 C   0  0  0  0  0  0  0  0  0  0  0  0
    1.1242    0.5572   -1.4572 C   0  0  0  0  0  0  0  0  0  0  0  0
   -4.8716    1.2998    2.5834 C   0  0  0  0  0  0  0  0  0  0  0  0
   -5.9747    1.9095    3.1960 C   0  0  0  0  0  0  0  0  0  0  0  0
   -8.1864    2.2387    4.9329 H   0  0  0  0  0  0  0  0  0  0  0  0
   -9.2624    3.5769    4.5124 H   0  0  0  0  0  0  0  0  0  0  0  0
   -7.5192    3.8703    4.5360 H   0  0  0  0  0  0  0  0  0  0  0  0
   -8.0322    2.0727    0.5083 H   0  0  0  0  0  0  0  0  0  0  0  0
   -6.1226    1.0143   -0.5712 H   0  0  0  0  0  0  0  0  0  0  0  0
   -2.9859    0.2058    1.3482 H   0  0  0  0  0  0  0  0  0  0  0  0
   -1.2550    1.1015   -0.1399 H   0  0  0  0  0  0  0  0  0  0  0  0
    0.2140   -2.1088    0.4599 H   0  0  0  0  0  0  0  0  0  0  0  0
    2.5859   -2.6473    0.1365 H   0  0  0  0  0  0  0  0  0  0  0  0
    5.2699    0.4658   -1.4707 H   0  0  0  0  0  0  0  0  0  0  0  0
    4.8461   -0.4513   -2.9605 H   0  0  0  0  0  0  0  0  0  0  0  0
    5.9038   -3.2137   -1.8089 H   0  0  0  0  0  0  0  0  0  0  0  0
    8.1757   -4.1737   -1.9218 H   0  0  0  0  0  0  0  0  0  0  0  0
   10.1540   -2.6908   -2.1518 H   0  0  0  0  0  0  0  0  0  0  0  0
    9.8364   -0.2214   -2.2795 H   0  0  0  0  0  0  0  0  0  0  0  0
    3.0841    0.9277   -2.2200 H   0  0  0  0  0  0  0  0  0  0  0  0
    0.7328    1.4642   -1.9144 H   0  0  0  0  0  0  0  0  0  0  0  0
   -3.9953    1.0935    3.1928 H   0  0  0  0  0  0  0  0  0  0  0  0
   -5.9052    2.1491    4.2517 H   0  0  0  0  0  0  0  0  0  0  0  0
  1  2  1  0
  2  3  1  0
  3  4  2  0
  4  5  1  0
  5  6  2  0
  6  7  1  0
  7  8  1  0
  8  9  2  0
  8 10  1  0
 10 11  1  0
 11 12  3  0
 10 13  2  3
 13 14  1  0
 14 15  2  0
 15 16  1  0
 16 17  2  0
 17 18  1  0
 18 19  1  0
 19 20  1  0
 20 21  2  0
 21 22  1  0
 22 23  2  0
 23 24  1  0
 24 25  2  0
 25 26  1  0
 17 27  1  0
 27 28  2  0
  6 29  1  0
 29 30  2  0
 30  3  1  0
 28 14  1  0
 25 20  1  0
  1 31  1  0
  1 32  1  0
  1 33  1  0
  4 34  1  0
  5 35  1  0
  7 36  1  0
 13 37  1  0
 15 38  1  0
 16 39  1  0
 19 40  1  0
 19 41  1  0
 21 42  1  0
 22 43  1  0
 23 44  1  0
 24 45  1  0
 27 46  1  0
 28 47  1  0
 29 48  1  0
 30 49  1  0
M  END
$$$$
