
     RDKit          3D

 66 72  0  0  0  0  0  0  0  0999 V2000
    1.0136    0.2885    1.6653 O   0  0  0  0  0  0  0  0  0  0  0  0
    1.1392   -0.1232    0.5190 C   0  0  0  0  0  0  0  0  0  0  0  0
    2.3071   -0.6568   -0.0500 N   0  0  0  0  0  0  0  0  0  0  0  0
    3.5681   -0.7246    0.6534 C   0  0  0  0  0  0  0  0  0  0  0  0
    4.4202    0.5069    0.4436 C   0  0  0  0  0  0  0  0  0  0  0  0
    5.5594    0.4644   -0.3731 C   0  0  0  0  0  0  0  0  0  0  0  0
    6.3303    1.6110   -0.5763 C   0  0  0  0  0  0  0  0  0  0  0  0
    5.9732    2.8113    0.0351 C   0  0  0  0  0  0  0  0  0  0  0  0
    4.8467    2.8667    0.8528 C   0  0  0  0  0  0  0  0  0  0  0  0
    4.0753    1.7218    1.0570 C   0  0  0  0  0  0  0  0  0  0  0  0
    2.1181   -0.9539   -1.4091 C   0  0  0  0  0  0  0  0  0  0  0  0
    3.0244   -1.4724   -2.3161 C   0  0  0  0  0  0  0  0  0  0  0  0
    2.5957   -1.6769   -3.6311 C   0  0  0  0  0  0  0  0  0  0  0  0
    1.2837   -1.3599   -4.0179 C   0  0  0  0  0  0  0  0  0  0  0  0
    0.3773   -0.8385   -3.0939 C   0  0  0  0  0  0  0  0  0  0  0  0
    0.8044   -0.6489   -1.7867 C   0  0  0  0  0  0  0  0  0  0  0  0
    0.0622   -0.1223   -0.5982 C   0  0  0  0  0  0  0  0  0  0  0  0
   -0.5538    1.2245   -0.7889 N   0  0  0  0  0  0  0  0  0  0  0  0
   -1.9320    1.2290   -0.1803 C   0  0  2  0  0  0  0  0  0  0  0  0
   -2.0175    1.9423    1.1860 C   0  0  0  0  0  0  0  0  0  0  0  0
   -1.5408    3.3767    1.1674 C   0  0  0  0  0  0  0  0  0  0  0  0
   -2.2663    4.3647    0.4897 C   0  0  0  0  0  0  0  0  0  0  0  0
   -1.8105    5.6838    0.4667 C   0  0  0  0  0  0  0  0  0  0  0  0
   -0.6287    6.0271    1.1211 C   0  0  0  0  0  0  0  0  0  0  0  0
    0.0985    5.0522    1.8010 C   0  0  0  0  0  0  0  0  0  0  0  0
   -0.3550    3.7331    1.8256 C   0  0  0  0  0  0  0  0  0  0  0  0
   -2.2188   -0.2187   -0.0635 C   0  0  0  0  0  0  0  0  0  0  0  0
   -1.0898   -0.9953   -0.3127 C   0  0  0  0  0  0  0  0  0  0  0  0
   -1.4384   -2.3196   -0.2163 C   0  0  0  0  0  0  0  0  0  0  0  0
   -0.6954   -3.4134   -0.3694 O   0  0  0  0  0  0  0  0  0  0  0  0
   -2.7940   -2.3633    0.1694 N   0  0  0  0  0  0  0  0  0  0  0  0
   -3.5397   -3.5327    0.5239 C   0  0  0  0  0  0  0  0  0  0  0  0
   -3.2616   -4.7691   -0.0715 C   0  0  0  0  0  0  0  0  0  0  0  0
   -3.9999   -5.9024    0.2804 C   0  0  0  0  0  0  0  0  0  0  0  0
   -5.0112   -5.8131    1.2345 C   0  0  0  0  0  0  0  0  0  0  0  0
   -5.2836   -4.5912    1.8447 C   0  0  0  0  0  0  0  0  0  0  0  0
   -4.5507   -3.4544    1.4949 C   0  0  0  0  0  0  0  0  0  0  0  0
   -3.2853   -1.0410    0.1664 C   0  0  0  0  0  0  0  0  0  0  0  0
   -4.5652   -0.7001    0.3103 O   0  0  0  0  0  0  0  0  0  0  0  0
    4.1029   -1.6332    0.3530 H   0  0  0  0  0  0  0  0  0  0  0  0
    3.3695   -0.8298    1.7275 H   0  0  0  0  0  0  0  0  0  0  0  0
    5.8578   -0.4608   -0.8599 H   0  0  0  0  0  0  0  0  0  0  0  0
    7.2094    1.5687   -1.2148 H   0  0  0  0  0  0  0  0  0  0  0  0
    6.5723    3.7037   -0.1256 H   0  0  0  0  0  0  0  0  0  0  0  0
    4.5657    3.8016    1.3311 H   0  0  0  0  0  0  0  0  0  0  0  0
    3.1991    1.7830    1.7006 H   0  0  0  0  0  0  0  0  0  0  0  0
    4.0419   -1.7187   -2.0392 H   0  0  0  0  0  0  0  0  0  0  0  0
    3.2875   -2.0791   -4.3681 H   0  0  0  0  0  0  0  0  0  0  0  0
    0.9722   -1.5173   -5.0483 H   0  0  0  0  0  0  0  0  0  0  0  0
   -0.6370   -0.5841   -3.3891 H   0  0  0  0  0  0  0  0  0  0  0  0
    0.0224    1.9237   -0.3228 H   0  0  0  0  0  0  0  0  0  0  0  0
   -2.6116    1.7001   -0.8995 H   0  0  0  0  0  0  0  0  0  0  0  0
   -1.4556    1.3812    1.9443 H   0  0  0  0  0  0  0  0  0  0  0  0
   -3.0578    1.9309    1.5396 H   0  0  0  0  0  0  0  0  0  0  0  0
   -3.1910    4.1134   -0.0247 H   0  0  0  0  0  0  0  0  0  0  0  0
   -2.3786    6.4444   -0.0623 H   0  0  0  0  0  0  0  0  0  0  0  0
   -0.2755    7.0546    1.1029 H   0  0  0  0  0  0  0  0  0  0  0  0
    1.0183    5.3185    2.3143 H   0  0  0  0  0  0  0  0  0  0  0  0
    0.2238    2.9820    2.3611 H   0  0  0  0  0  0  0  0  0  0  0  0
    0.1838   -3.1385   -0.6851 H   0  0  0  0  0  0  0  0  0  0  0  0
   -2.4962   -4.8733   -0.8355 H   0  0  0  0  0  0  0  0  0  0  0  0
   -3.7822   -6.8565   -0.1933 H   0  0  0  0  0  0  0  0  0  0  0  0
   -5.5786   -6.6983    1.5100 H   0  0  0  0  0  0  0  0  0  0  0  0
   -6.0559   -4.5259    2.6073 H   0  0  0  0  0  0  0  0  0  0  0  0
   -4.7491   -2.5308    2.0350 H   0  0  0  0  0  0  0  0  0  0  0  0
   -5.1169   -1.4719    0.0880 H   0  0  0  0  0  0  0  0  0  0  0  0
  1  2  2  0
  2  3  1  0
  3  4  1  0
  4  5  1  0
  5  6  2  0
  6  7  1  0
  7  8  2  0
  8  9  1  0
  9 10  2  0
  3 11  1  0
 11 12  2  0
 12 13  1  0
 13 14  2  0
 14 15  1  0
 15 16  2  0
 16 17  1  0
 17 18  1  0
 18 19  1  0
 19 20  1  0
 20 21  1  0
 21 22  2  0
 22 23  1  0
 23 24  2  0
 24 25  1  0
 25 26  2  0
 19 27  1  0
 27 28  1  0
 28 29  2  0
 29 30  1  0
 29 31  1  0
 31 32  1  0
 32 33  2  0
 33 34  1  0
 34 35  2  0
 35 36  1  0
 36 37  2  0
 31 38  1  0
 38 39  1  0
 17  2  1  0
 26 21  1  0
 38 27  2  0
 10  5  1  0
 16 11  1  0
 28 17  1  0
 37 32  1  0
  4 40  1  0
  4 41  1  0
  6 42  1  0
  7 43  1  0
  8 44  1  0
  9 45  1  0
 10 46  1  0
 12 47  1  0
 13 48  1  0
 14 49  1  0
 15 50  1  0
 18 51  1  0
 19 52  1  6
 20 53  1  0
 20 54  1  0
 22 55  1  0
 23 56  1  0
 24 57  1  0
 25 58  1  0
 26 59  1  0
 30 60  1  0
 33 61  1  0
 34 62  1  0
 35 63  1  0
 36 64  1  0
 37 65  1  0
 39 66  1  0
M  END
$$$$
