
     RDKit          3D

 47 49  0  0  0  0  0  0  0  0999 V2000
    4.8835    1.5147    2.6584 C   0  0  0  0  0  0  0  0  0  0  0  0
    4.1461    1.0068    1.5531 O   0  0  0  0  0  0  0  0  0  0  0  0
    4.8736    0.5299    0.4847 C   0  0  0  0  0  0  0  0  0  0  0  0
    6.2702    0.4988    0.4187 C   0  0  0  0  0  0  0  0  0  0  0  0
    6.9067   -0.0064   -0.7167 C   0  0  0  0  0  0  0  0  0  0  0  0
    6.1536   -0.4788   -1.7882 C   0  0  0  0  0  0  0  0  0  0  0  0
    4.7587   -0.4522   -1.7318 C   0  0  0  0  0  0  0  0  0  0  0  0
    4.1094    0.0443   -0.5997 C   0  0  0  0  0  0  0  0  0  0  0  0
    2.7037    0.1129   -0.4694 N   0  0  0  0  0  0  0  0  0  0  0  0
    1.7380   -0.4027   -1.3004 C   0  0  0  0  0  0  0  0  0  0  0  0
    1.9668   -1.1010   -2.2850 O   0  0  0  0  0  0  0  0  0  0  0  0
    0.4293   -0.0782   -0.9304 N   0  0  0  0  0  0  0  0  0  0  0  0
    0.0817    0.9207    0.0801 C   0  0  0  0  0  0  0  0  0  0  0  0
   -1.3798    1.3464    0.0149 C   0  0  0  0  0  0  0  0  0  0  0  0
   -2.3177    0.1300    0.0806 C   0  0  0  0  0  0  0  0  0  0  0  0
   -3.7508    0.5358   -0.2633 C   0  0  0  0  0  0  0  0  0  0  0  0
   -3.9928    1.5295   -0.9474 O   0  0  0  0  0  0  0  0  0  0  0  0
   -4.8998   -0.2938    0.2278 C   0  0  0  0  0  0  0  0  0  0  0  0
   -4.7280   -1.4915    0.9367 C   0  0  0  0  0  0  0  0  0  0  0  0
   -5.8424   -2.2194    1.3672 C   0  0  0  0  0  0  0  0  0  0  0  0
   -7.1222   -1.7532    1.0902 C   0  0  0  0  0  0  0  0  0  0  0  0
   -8.1841   -2.4549    1.5056 F   0  0  0  0  0  0  0  0  0  0  0  0
   -7.3131   -0.5709    0.3881 C   0  0  0  0  0  0  0  0  0  0  0  0
   -6.2028    0.1583   -0.0437 C   0  0  0  0  0  0  0  0  0  0  0  0
   -1.8473   -1.0133   -0.8353 C   0  0  0  0  0  0  0  0  0  0  0  0
   -0.6691   -0.6238   -1.7236 C   0  0  0  0  0  0  0  0  0  0  0  0
    5.4966    0.7320    3.1171 H   0  0  0  0  0  0  0  0  0  0  0  0
    4.1646    1.8558    3.4096 H   0  0  0  0  0  0  0  0  0  0  0  0
    5.4916    2.3767    2.3654 H   0  0  0  0  0  0  0  0  0  0  0  0
    6.8933    0.8584    1.2300 H   0  0  0  0  0  0  0  0  0  0  0  0
    7.9925   -0.0298   -0.7667 H   0  0  0  0  0  0  0  0  0  0  0  0
    6.6486   -0.8689   -2.6742 H   0  0  0  0  0  0  0  0  0  0  0  0
    4.2050   -0.8199   -2.5897 H   0  0  0  0  0  0  0  0  0  0  0  0
    2.4104    0.4812    0.4229 H   0  0  0  0  0  0  0  0  0  0  0  0
    0.7258    1.7979   -0.0479 H   0  0  0  0  0  0  0  0  0  0  0  0
    0.3008    0.4822    1.0609 H   0  0  0  0  0  0  0  0  0  0  0  0
   -1.5421    1.9119   -0.9119 H   0  0  0  0  0  0  0  0  0  0  0  0
   -1.6055    2.0367    0.8367 H   0  0  0  0  0  0  0  0  0  0  0  0
   -2.3059   -0.2128    1.1228 H   0  0  0  0  0  0  0  0  0  0  0  0
   -3.7447   -1.8898    1.1652 H   0  0  0  0  0  0  0  0  0  0  0  0
   -5.7202   -3.1490    1.9153 H   0  0  0  0  0  0  0  0  0  0  0  0
   -8.3200   -0.2231    0.1792 H   0  0  0  0  0  0  0  0  0  0  0  0
   -6.3600    1.0843   -0.5954 H   0  0  0  0  0  0  0  0  0  0  0  0
   -2.6607   -1.3902   -1.4662 H   0  0  0  0  0  0  0  0  0  0  0  0
   -1.5355   -1.8533   -0.2002 H   0  0  0  0  0  0  0  0  0  0  0  0
   -0.3420   -1.5029   -2.2888 H   0  0  0  0  0  0  0  0  0  0  0  0
   -0.9642    0.1378   -2.4551 H   0  0  0  0  0  0  0  0  0  0  0  0
  1  2  1  0
  2  3  1  0
  3  4  2  0
  4  5  1  0
  5  6  2  0
  6  7  1  0
  7  8  2  0
  8  9  1  0
  9 10  1  0
 10 11  2  0
 10 12  1  0
 12 13  1  0
 13 14  1  0
 14 15  1  0
 15 16  1  0
 16 17  2  0
 16 18  1  0
 18 19  2  0
 19 20  1  0
 20 21  2  0
 21 22  1  0
 21 23  1  0
 23 24  2  0
 15 25  1  0
 25 26  1  0
  8  3  1  0
 26 12  1  0
 24 18  1  0
  1 27  1  0
  1 28  1  0
  1 29  1  0
  4 30  1  0
  5 31  1  0
  6 32  1  0
  7 33  1  0
  9 34  1  0
 13 35  1  0
 13 36  1  0
 14 37  1  0
 14 38  1  0
 15 39  1  0
 19 40  1  0
 20 41  1  0
 23 42  1  0
 24 43  1  0
 25 44  1  0
 25 45  1  0
 26 46  1  0
 26 47  1  0
M  END
$$$$
