
     RDKit          3D

 43 45  0  0  0  0  0  0  0  0999 V2000
    6.6653   -2.5778   -0.0379 C   0  0  0  0  0  0  0  0  0  0  0  0
    5.3103   -2.4089   -0.4319 O   0  0  0  0  0  0  0  0  0  0  0  0
    4.7128   -1.2185   -0.1130 C   0  0  0  0  0  0  0  0  0  0  0  0
    5.3181   -0.1556    0.5548 C   0  0  0  0  0  0  0  0  0  0  0  0
    4.6119    1.0223    0.8315 C   0  0  0  0  0  0  0  0  0  0  0  0
    3.2785    1.0988    0.4149 C   0  0  0  0  0  0  0  0  0  0  0  0
    2.3661    2.1156    0.5550 N   0  0  0  0  0  0  0  0  0  0  0  0
    1.1718    1.7600   -0.0102 C   0  0  0  0  0  0  0  0  0  0  0  0
    1.2881    0.4801   -0.5264 C   0  0  0  0  0  0  0  0  0  0  0  0
    0.2351   -0.2810   -1.2127 C   0  0  0  0  0  0  0  0  0  0  0  0
    0.4360   -1.4305   -1.6152 O   0  0  0  0  0  0  0  0  0  0  0  0
   -1.1299    0.3746   -1.4593 C   0  0  0  0  0  0  0  0  0  0  0  0
   -1.9014    0.5571   -0.2108 N   0  0  0  0  0  0  0  0  0  0  0  0
   -2.2900   -0.7208    0.4107 C   0  0  0  0  0  0  0  0  0  0  0  0
   -3.7828   -1.0321    0.3068 C   0  0  0  0  0  0  0  0  0  0  0  0
   -4.6313    0.0733    0.9522 C   0  0  0  0  0  0  0  0  0  0  0  0
   -6.0666    0.0130    0.4301 C   0  0  0  0  0  0  0  0  0  0  0  0
   -4.0082    1.4619    0.7352 C   0  0  0  0  0  0  0  0  0  0  0  0
   -3.0308    1.4683   -0.4392 C   0  0  0  0  0  0  0  0  0  0  0  0
    2.6353    0.0583   -0.2560 C   0  0  0  0  0  0  0  0  0  0  0  0
    3.3749   -1.1157   -0.5189 C   0  0  0  0  0  0  0  0  0  0  0  0
    7.3135   -1.8441   -0.5284 H   0  0  0  0  0  0  0  0  0  0  0  0
    6.9860   -3.5729   -0.3611 H   0  0  0  0  0  0  0  0  0  0  0  0
    6.7688   -2.5326    1.0512 H   0  0  0  0  0  0  0  0  0  0  0  0
    6.3519   -0.2070    0.8808 H   0  0  0  0  0  0  0  0  0  0  0  0
    5.0913    1.8443    1.3534 H   0  0  0  0  0  0  0  0  0  0  0  0
    2.5547    2.9957    1.0150 H   0  0  0  0  0  0  0  0  0  0  0  0
    0.3335    2.4438    0.0194 H   0  0  0  0  0  0  0  0  0  0  0  0
   -0.9414    1.3391   -1.9478 H   0  0  0  0  0  0  0  0  0  0  0  0
   -1.6900   -0.2387   -2.1767 H   0  0  0  0  0  0  0  0  0  0  0  0
   -2.0192   -0.6632    1.4727 H   0  0  0  0  0  0  0  0  0  0  0  0
   -1.7244   -1.5691    0.0092 H   0  0  0  0  0  0  0  0  0  0  0  0
   -4.0509   -1.1604   -0.7502 H   0  0  0  0  0  0  0  0  0  0  0  0
   -3.9968   -1.9892    0.7977 H   0  0  0  0  0  0  0  0  0  0  0  0
   -4.6715   -0.1062    2.0349 H   0  0  0  0  0  0  0  0  0  0  0  0
   -6.1085    0.2213   -0.6444 H   0  0  0  0  0  0  0  0  0  0  0  0
   -6.5011   -0.9774    0.6023 H   0  0  0  0  0  0  0  0  0  0  0  0
   -6.6968    0.7480    0.9420 H   0  0  0  0  0  0  0  0  0  0  0  0
   -4.7819    2.2233    0.5818 H   0  0  0  0  0  0  0  0  0  0  0  0
   -3.4689    1.7571    1.6455 H   0  0  0  0  0  0  0  0  0  0  0  0
   -3.5723    1.2072   -1.3583 H   0  0  0  0  0  0  0  0  0  0  0  0
   -2.6449    2.4862   -0.5713 H   0  0  0  0  0  0  0  0  0  0  0  0
    2.9061   -1.9480   -1.0386 H   0  0  0  0  0  0  0  0  0  0  0  0
  1  2  1  0
  2  3  1  0
  3  4  2  0
  4  5  1  0
  5  6  2  0
  6  7  1  0
  7  8  1  0
  8  9  2  0
  9 10  1  0
 10 11  2  0
 10 12  1  0
 12 13  1  0
 13 14  1  0
 14 15  1  0
 15 16  1  0
 16 17  1  0
 16 18  1  0
 18 19  1  0
  9 20  1  0
 20 21  2  0
 21  3  1  0
 20  6  1  0
 19 13  1  0
  1 22  1  0
  1 23  1  0
  1 24  1  0
  4 25  1  0
  5 26  1  0
  7 27  1  0
  8 28  1  0
 12 29  1  0
 12 30  1  0
 14 31  1  0
 14 32  1  0
 15 33  1  0
 15 34  1  0
 16 35  1  0
 17 36  1  0
 17 37  1  0
 17 38  1  0
 18 39  1  0
 18 40  1  0
 19 41  1  0
 19 42  1  0
 21 43  1  0
M  END
$$$$
