
     RDKit          3D

 54 57  0  0  0  0  0  0  0  0999 V2000
   -3.0351    5.7241    0.5093 C   0  0  0  0  0  0  0  0  0  0  0  0
   -2.6327    5.2416   -0.7652 O   0  0  0  0  0  0  0  0  0  0  0  0
   -1.9832    4.0377   -0.7929 C   0  0  0  0  0  0  0  0  0  0  0  0
   -1.5783    3.6211   -2.0618 C   0  0  0  0  0  0  0  0  0  0  0  0
   -0.9044    2.4092   -2.2353 C   0  0  0  0  0  0  0  0  0  0  0  0
   -0.6297    1.5825   -1.1359 C   0  0  0  0  0  0  0  0  0  0  0  0
    0.1216    0.2772   -1.3474 C   0  0  0  0  0  0  0  0  0  0  0  0
    1.6079    0.4292   -1.0171 C   0  0  0  0  0  0  0  0  0  0  0  0
    1.7089   -0.4523    0.1956 C   0  0  0  0  0  0  0  0  0  0  0  0
    2.9543   -0.5396    0.9908 C   0  0  0  0  0  0  0  0  0  0  0  0
    2.9263   -1.1882    2.2287 C   0  0  0  0  0  0  0  0  0  0  0  0
    4.0883   -1.2855    2.9943 C   0  0  0  0  0  0  0  0  0  0  0  0
    5.2880   -0.7507    2.5188 C   0  0  0  0  0  0  0  0  0  0  0  0
    5.3289   -0.1200    1.2745 C   0  0  0  0  0  0  0  0  0  0  0  0
    6.4378    0.4160    0.6812 O   0  0  0  0  0  0  0  0  0  0  0  0
    7.6768    0.2452    1.3593 C   0  0  0  0  0  0  0  0  0  0  0  0
    4.1575   -0.0059    0.5183 C   0  0  0  0  0  0  0  0  0  0  0  0
    0.6431   -1.1430    0.4689 N   0  0  0  0  0  0  0  0  0  0  0  0
   -0.3152   -0.7886   -0.4392 N   0  0  0  0  0  0  0  0  0  0  0  0
   -1.4301   -1.6031   -0.6454 C   0  0  0  0  0  0  0  0  0  0  0  0
   -1.6158   -2.7739    0.1146 C   0  0  0  0  0  0  0  0  0  0  0  0
   -2.7193   -3.6133   -0.0710 C   0  0  0  0  0  0  0  0  0  0  0  0
   -3.6789   -3.2748   -1.0236 C   0  0  0  0  0  0  0  0  0  0  0  0
   -5.0840   -4.3261   -1.2615 S   0  0  0  0  0  6  0  0  0  0  0  0
   -6.0446   -3.9105    0.0595 N   0  0  0  0  0  0  0  0  0  0  0  0
   -4.6716   -5.6944   -1.0469 O   0  0  0  0  0  0  0  0  0  0  0  0
   -5.7819   -3.9055   -2.4541 O   0  0  0  0  0  0  0  0  0  0  0  0
   -3.5328   -2.1246   -1.7917 C   0  0  0  0  0  0  0  0  0  0  0  0
   -2.4175   -1.3004   -1.5984 C   0  0  0  0  0  0  0  0  0  0  0  0
   -1.0325    2.0130    0.1393 C   0  0  0  0  0  0  0  0  0  0  0  0
   -1.7059    3.2282    0.3085 C   0  0  0  0  0  0  0  0  0  0  0  0
   -3.5398    6.6848    0.3585 H   0  0  0  0  0  0  0  0  0  0  0  0
   -3.7507    5.0445    0.9840 H   0  0  0  0  0  0  0  0  0  0  0  0
   -2.1677    5.9002    1.1565 H   0  0  0  0  0  0  0  0  0  0  0  0
   -1.7859    4.2516   -2.9231 H   0  0  0  0  0  0  0  0  0  0  0  0
   -0.5995    2.1205   -3.2384 H   0  0  0  0  0  0  0  0  0  0  0  0
    0.0209   -0.0447   -2.3928 H   0  0  0  0  0  0  0  0  0  0  0  0
    2.2285    0.0091   -1.8161 H   0  0  0  0  0  0  0  0  0  0  0  0
    1.9209    1.4548   -0.7996 H   0  0  0  0  0  0  0  0  0  0  0  0
    2.0011   -1.6212    2.6027 H   0  0  0  0  0  0  0  0  0  0  0  0
    4.0619   -1.7912    3.9558 H   0  0  0  0  0  0  0  0  0  0  0  0
    6.1720   -0.8525    3.1403 H   0  0  0  0  0  0  0  0  0  0  0  0
    7.9058   -0.8156    1.5033 H   0  0  0  0  0  0  0  0  0  0  0  0
    8.4635    0.6728    0.7319 H   0  0  0  0  0  0  0  0  0  0  0  0
    7.6786    0.7809    2.3127 H   0  0  0  0  0  0  0  0  0  0  0  0
    4.2160    0.4840   -0.4479 H   0  0  0  0  0  0  0  0  0  0  0  0
   -0.8755   -3.0462    0.8650 H   0  0  0  0  0  0  0  0  0  0  0  0
   -2.8129   -4.5160    0.5252 H   0  0  0  0  0  0  0  0  0  0  0  0
   -5.7171   -3.0762    0.5440 H   0  0  0  0  0  0  0  0  0  0  0  0
   -6.1218   -4.7140    0.6852 H   0  0  0  0  0  0  0  0  0  0  0  0
   -4.2739   -1.8550   -2.5430 H   0  0  0  0  0  0  0  0  0  0  0  0
   -2.3447   -0.4044   -2.2107 H   0  0  0  0  0  0  0  0  0  0  0  0
   -0.8274    1.3983    1.0167 H   0  0  0  0  0  0  0  0  0  0  0  0
   -1.9982    3.5108    1.3152 H   0  0  0  0  0  0  0  0  0  0  0  0
  1  2  1  0
  2  3  1  0
  3  4  2  0
  4  5  1  0
  5  6  2  0
  6  7  1  0
  7  8  1  0
  8  9  1  0
  9 10  1  0
 10 11  2  0
 11 12  1  0
 12 13  2  0
 13 14  1  0
 14 15  1  0
 15 16  1  0
 14 17  2  0
  9 18  2  0
 18 19  1  0
 19 20  1  0
 20 21  2  0
 21 22  1  0
 22 23  2  0
 23 24  1  0
 24 25  1  0
 24 26  2  0
 24 27  2  0
 23 28  1  0
 28 29  2  0
  6 30  1  0
 30 31  2  0
 31  3  1  0
 19  7  1  0
 29 20  1  0
 17 10  1  0
  1 32  1  0
  1 33  1  0
  1 34  1  0
  4 35  1  0
  5 36  1  0
  7 37  1  0
  8 38  1  0
  8 39  1  0
 11 40  1  0
 12 41  1  0
 13 42  1  0
 16 43  1  0
 16 44  1  0
 16 45  1  0
 17 46  1  0
 21 47  1  0
 22 48  1  0
 25 49  1  0
 25 50  1  0
 28 51  1  0
 29 52  1  0
 30 53  1  0
 31 54  1  0
M  END
$$$$
