
     RDKit          3D

 40 41  0  0  0  0  0  0  0  0999 V2000
    0.9440   -4.0959   -0.1051 C   0  0  0  0  0  0  0  0  0  0  0  0
    1.2760   -2.7400    0.1949 O   0  0  0  0  0  0  0  0  0  0  0  0
    1.1840   -1.9049   -0.8667 C   0  0  0  0  0  0  0  0  0  0  0  0
    0.8636   -2.2021   -2.0063 O   0  0  0  0  0  0  0  0  0  0  0  0
    1.4623   -0.5158   -0.4455 C   0  0  0  0  0  0  0  0  0  0  0  0
    2.5776   -0.1565    0.2159 C   0  0  0  0  0  0  0  0  0  0  0  0
    3.7075   -1.0538    0.6233 C   0  0  0  0  0  0  0  0  0  0  0  0
    2.7718    1.1857    0.6398 O   0  0  0  0  0  0  0  0  0  0  0  0
    1.9531    2.1892    0.2173 C   0  0  0  0  0  0  0  0  0  0  0  0
    2.0288    3.3146    0.8450 N   0  0  0  0  0  0  0  0  0  0  0  0
    1.1211    1.8818   -0.9980 C   0  0  0  0  0  0  0  0  0  0  0  0
    0.1742    2.9488   -1.3349 C   0  0  0  0  0  0  0  0  0  0  0  0
   -0.5454    3.8132   -1.6213 N   0  0  0  0  0  0  0  0  0  0  0  0
    0.4499    0.5069   -0.8832 C   0  0  0  0  0  0  0  0  0  0  0  0
   -0.8176    0.4723   -0.0510 C   0  0  0  0  0  0  0  0  0  0  0  0
   -0.9968    0.3845    1.3669 C   0  0  0  0  0  0  0  0  0  0  0  0
    0.0039    0.2936    2.4624 C   0  0  0  0  0  0  0  0  0  0  0  0
   -2.2902    0.3817    1.7008 N   0  0  0  0  0  0  0  0  0  0  0  0
   -2.9458    0.4652    0.5387 N   0  0  0  0  0  0  0  0  0  0  0  0
   -4.3904    0.4961    0.5477 C   0  0  0  0  0  0  0  0  0  0  0  0
   -2.1169    0.5226   -0.5498 C   0  0  0  0  0  0  0  0  0  0  0  0
   -2.6449    0.6213   -1.9381 C   0  0  0  0  0  0  0  0  0  0  0  0
   -0.0918   -4.1693   -0.4512 H   0  0  0  0  0  0  0  0  0  0  0  0
    1.6327   -4.5024   -0.8522 H   0  0  0  0  0  0  0  0  0  0  0  0
    1.0446   -4.6806    0.8135 H   0  0  0  0  0  0  0  0  0  0  0  0
    3.6446   -1.2762    1.6930 H   0  0  0  0  0  0  0  0  0  0  0  0
    4.6654   -0.5575    0.4331 H   0  0  0  0  0  0  0  0  0  0  0  0
    3.7259   -1.9958    0.0688 H   0  0  0  0  0  0  0  0  0  0  0  0
    1.4055    4.0352    0.4642 H   0  0  0  0  0  0  0  0  0  0  0  0
    1.8471    1.8374   -1.8251 H   0  0  0  0  0  0  0  0  0  0  0  0
    0.1582    0.2422   -1.9103 H   0  0  0  0  0  0  0  0  0  0  0  0
    0.6528    1.1720    2.4714 H   0  0  0  0  0  0  0  0  0  0  0  0
    0.6144   -0.6073    2.3587 H   0  0  0  0  0  0  0  0  0  0  0  0
   -0.4829    0.2423    3.4430 H   0  0  0  0  0  0  0  0  0  0  0  0
   -4.7112    1.5088    0.2919 H   0  0  0  0  0  0  0  0  0  0  0  0
   -4.7619   -0.2252   -0.1841 H   0  0  0  0  0  0  0  0  0  0  0  0
   -4.7552    0.2273    1.5427 H   0  0  0  0  0  0  0  0  0  0  0  0
   -3.0887   -0.3317   -2.2431 H   0  0  0  0  0  0  0  0  0  0  0  0
   -1.8593    0.8712   -2.6561 H   0  0  0  0  0  0  0  0  0  0  0  0
   -3.4101    1.4010   -2.0108 H   0  0  0  0  0  0  0  0  0  0  0  0
  1  2  1  0
  2  3  1  0
  3  4  2  0
  3  5  1  0
  5  6  2  0
  6  7  1  0
  6  8  1  0
  8  9  1  0
  9 10  2  3
  9 11  1  0
 11 12  1  0
 12 13  3  0
 11 14  1  0
 14 15  1  0
 15 16  1  0
 16 17  1  0
 16 18  2  0
 18 19  1  0
 19 20  1  0
 19 21  1  0
 21 22  1  0
 14  5  1  0
 21 15  2  0
  1 23  1  0
  1 24  1  0
  1 25  1  0
  7 26  1  0
  7 27  1  0
  7 28  1  0
 10 29  1  0
 11 30  1  0
 14 31  1  0
 17 32  1  0
 17 33  1  0
 17 34  1  0
 20 35  1  0
 20 36  1  0
 20 37  1  0
 22 38  1  0
 22 39  1  0
 22 40  1  0
M  END
$$$$
