
     RDKit          3D

 56 61  0  0  0  0  0  0  0  0999 V2000
    5.6864   -1.8470    2.7220 C   0  0  0  0  0  0  0  0  0  0  0  0
    4.2895   -1.4213    2.3785 C   0  0  0  0  0  0  0  0  0  0  0  0
    3.3452   -1.2203    3.3801 C   0  0  0  0  0  0  0  0  0  0  0  0
    2.0540   -0.8108    3.0470 C   0  0  0  0  0  0  0  0  0  0  0  0
    1.6772   -0.5661    1.7096 C   0  0  0  0  0  0  0  0  0  0  0  0
    2.6381   -0.7146    0.6954 C   0  0  0  0  0  0  0  0  0  0  0  0
    3.9297   -1.1593    1.0497 C   0  0  0  0  0  0  0  0  0  0  0  0
    2.4843   -0.4445   -0.6792 N   0  0  0  0  0  0  0  0  0  0  0  0
    1.5394    0.2614   -1.3675 C   0  0  0  0  0  0  0  0  0  0  0  0
    1.7310    0.4217   -2.5772 O   0  0  0  0  0  0  0  0  0  0  0  0
    0.3829    0.9509   -0.6241 C   0  0  0  0  0  0  0  0  0  0  0  0
    0.9802    2.1619    0.1281 C   0  0  0  0  0  0  0  0  0  0  0  0
   -0.7623    1.3814   -1.6077 C   0  0  0  0  0  0  0  0  0  0  0  0
   -1.5023    2.6906   -1.3314 C   0  0  0  0  0  0  0  0  0  0  0  0
   -2.1589    2.9647   -0.1219 C   0  0  0  0  0  0  0  0  0  0  0  0
   -2.8337    4.1733    0.0703 C   0  0  0  0  0  0  0  0  0  0  0  0
   -2.8669    5.1265   -0.9430 C   0  0  0  0  0  0  0  0  0  0  0  0
   -2.2236    4.8733   -2.1501 C   0  0  0  0  0  0  0  0  0  0  0  0
   -1.5483    3.6663   -2.3431 C   0  0  0  0  0  0  0  0  0  0  0  0
   -1.7422    0.1932   -1.5859 C   0  0  0  0  0  0  0  0  0  0  0  0
   -1.3875   -0.8387   -2.6541 C   0  0  0  0  0  0  0  0  0  0  0  0
   -2.2666   -1.9571   -2.5966 O   0  0  0  0  0  0  0  0  0  0  0  0
   -2.2580   -2.5631   -1.3700 C   0  0  0  0  0  0  0  0  0  0  0  0
   -2.6461   -3.9061   -1.3665 C   0  0  0  0  0  0  0  0  0  0  0  0
   -2.7104   -4.6132   -0.1691 C   0  0  0  0  0  0  0  0  0  0  0  0
   -2.4093   -3.9626    1.0216 C   0  0  0  0  0  0  0  0  0  0  0  0
   -2.5094   -4.8211    2.5100 Cl  0  0  0  0  0  0  0  0  0  0  0  0
   -2.0420   -2.6145    1.0205 C   0  0  0  0  0  0  0  0  0  0  0  0
   -1.9422   -1.8901   -0.1809 C   0  0  0  0  0  0  0  0  0  0  0  0
   -1.5995   -0.4103   -0.1825 C   0  0  0  0  0  0  0  0  0  0  0  0
   -0.2192   -0.0956    0.2163 N   0  0  0  0  0  0  0  0  0  0  0  0
    0.2262   -0.2812    1.5041 C   0  0  0  0  0  0  0  0  0  0  0  0
   -0.5435   -0.2786    2.4613 O   0  0  0  0  0  0  0  0  0  0  0  0
    6.1248   -2.4387    1.9115 H   0  0  0  0  0  0  0  0  0  0  0  0
    6.3131   -0.9670    2.8972 H   0  0  0  0  0  0  0  0  0  0  0  0
    5.6945   -2.4723    3.6210 H   0  0  0  0  0  0  0  0  0  0  0  0
    3.5951   -1.3986    4.4240 H   0  0  0  0  0  0  0  0  0  0  0  0
    1.3251   -0.7038    3.8504 H   0  0  0  0  0  0  0  0  0  0  0  0
    4.6896   -1.2873    0.2794 H   0  0  0  0  0  0  0  0  0  0  0  0
    3.2414   -0.7274   -1.2918 H   0  0  0  0  0  0  0  0  0  0  0  0
    0.3092    2.5387    0.9054 H   0  0  0  0  0  0  0  0  0  0  0  0
    1.2037    2.9778   -0.5694 H   0  0  0  0  0  0  0  0  0  0  0  0
    1.9287    1.9384    0.6251 H   0  0  0  0  0  0  0  0  0  0  0  0
   -0.3567    1.4829   -2.6218 H   0  0  0  0  0  0  0  0  0  0  0  0
   -2.1467    2.2575    0.7029 H   0  0  0  0  0  0  0  0  0  0  0  0
   -3.3327    4.3696    1.0163 H   0  0  0  0  0  0  0  0  0  0  0  0
   -3.3930    6.0652   -0.7913 H   0  0  0  0  0  0  0  0  0  0  0  0
   -2.2478    5.6147   -2.9446 H   0  0  0  0  0  0  0  0  0  0  0  0
   -1.0571    3.4962   -3.2998 H   0  0  0  0  0  0  0  0  0  0  0  0
   -2.7860    0.4934   -1.7506 H   0  0  0  0  0  0  0  0  0  0  0  0
   -1.4990   -0.3934   -3.6493 H   0  0  0  0  0  0  0  0  0  0  0  0
   -0.3567   -1.2028   -2.5846 H   0  0  0  0  0  0  0  0  0  0  0  0
   -2.8968   -4.3988   -2.3025 H   0  0  0  0  0  0  0  0  0  0  0  0
   -3.0062   -5.6581   -0.1715 H   0  0  0  0  0  0  0  0  0  0  0  0
   -1.8589   -2.1286    1.9746 H   0  0  0  0  0  0  0  0  0  0  0  0
   -2.2799    0.0933    0.5138 H   0  0  0  0  0  0  0  0  0  0  0  0
  1  2  1  0
  2  3  2  0
  3  4  1  0
  4  5  2  0
  5  6  1  0
  6  7  2  0
  6  8  1  0
  8  9  1  0
  9 10  2  0
  9 11  1  0
 11 12  1  0
 11 13  1  0
 13 14  1  0
 14 15  2  0
 15 16  1  0
 16 17  2  0
 17 18  1  0
 18 19  2  0
 13 20  1  0
 20 21  1  0
 21 22  1  0
 22 23  1  0
 23 24  2  0
 24 25  1  0
 25 26  2  0
 26 27  1  0
 26 28  1  0
 28 29  2  0
 29 30  1  0
 30 31  1  0
 31 32  1  0
 32 33  2  0
  7  2  1  0
 31 11  1  0
 32  5  1  0
 19 14  1  0
 30 20  1  0
 29 23  1  0
  1 34  1  0
  1 35  1  0
  1 36  1  0
  3 37  1  0
  4 38  1  0
  7 39  1  0
  8 40  1  0
 12 41  1  0
 12 42  1  0
 12 43  1  0
 13 44  1  0
 15 45  1  0
 16 46  1  0
 17 47  1  0
 18 48  1  0
 19 49  1  0
 20 50  1  0
 21 51  1  0
 21 52  1  0
 24 53  1  0
 25 54  1  0
 28 55  1  0
 30 56  1  0
M  END
$$$$
