
     RDKit          3D

 65 69  0  0  0  0  0  0  0  0999 V2000
   -4.6515    6.0720    0.4119 C   0  0  0  0  0  0  0  0  0  0  0  0
   -5.1857    4.8041    1.0539 C   0  0  0  0  0  0  0  0  0  0  0  0
   -4.1603    4.1443    1.7948 O   0  0  0  0  0  0  0  0  0  0  0  0
   -3.4455    3.1538    1.1844 C   0  0  0  0  0  0  0  0  0  0  0  0
   -3.4057    2.8872   -0.1821 C   0  0  0  0  0  0  0  0  0  0  0  0
   -2.6164    1.8409   -0.6752 C   0  0  0  0  0  0  0  0  0  0  0  0
   -1.8544    1.0420    0.1925 C   0  0  0  0  0  0  0  0  0  0  0  0
   -0.9622   -0.0832   -0.3140 C   0  0  0  0  0  0  0  0  0  0  0  0
    0.3667    0.4793   -0.8728 C   0  0  0  0  0  0  0  0  0  0  0  0
    1.5602   -0.2581   -0.3136 C   0  0  0  0  0  0  0  0  0  0  0  0
    1.4574   -1.4095    0.1073 O   0  0  0  0  0  0  0  0  0  0  0  0
    2.9013    0.4046   -0.2811 C   0  0  0  0  0  0  0  0  0  0  0  0
    3.1670    1.6198   -0.9468 C   0  0  0  0  0  0  0  0  0  0  0  0
    4.4411    2.1981   -0.8948 C   0  0  0  0  0  0  0  0  0  0  0  0
    5.4226    1.5498   -0.1749 C   0  0  0  0  0  0  0  0  0  0  0  0
    5.1811    0.3534    0.4757 C   0  0  0  0  0  0  0  0  0  0  0  0
    3.9294   -0.2380    0.4329 C   0  0  0  0  0  0  0  0  0  0  0  0
    6.4390   -0.1410    1.0808 C   0  0  0  0  0  0  0  0  0  0  0  0
    7.2918    1.1324    0.9584 C   0  0  0  0  0  0  0  0  0  0  0  0
    8.7345    0.8330    0.5824 C   0  0  0  0  0  0  0  0  0  0  0  0
    6.7129    1.9924   -0.0593 O   0  0  0  0  0  0  0  0  0  0  0  0
    0.2226    0.2232   -2.3388 C   0  0  0  0  0  0  0  0  0  0  0  0
    0.9229    0.6869   -3.2200 O   0  0  0  0  0  0  0  0  0  0  0  0
   -0.9352   -0.7311   -2.5829 C   0  0  0  0  0  0  0  0  0  0  0  0
   -1.1832   -1.2658   -3.6417 O   0  0  0  0  0  0  0  0  0  0  0  0
   -1.5970   -0.8421   -1.3848 N   0  0  0  0  0  0  0  0  0  0  0  0
   -2.6859   -1.7770   -1.1563 C   0  0  0  0  0  0  0  0  0  0  0  0
   -2.1904   -3.1258   -0.6397 C   0  0  0  0  0  0  0  0  0  0  0  0
   -3.3495   -4.1077   -0.5061 C   0  0  0  0  0  0  0  0  0  0  0  0
   -2.9442   -5.3617    0.0924 N   0  0  0  0  0  0  0  0  0  0  0  0
   -2.4001   -6.4323   -0.5584 C   0  0  0  0  0  0  0  0  0  0  0  0
   -2.2230   -7.3847    0.4184 C   0  0  0  0  0  0  0  0  0  0  0  0
   -2.6484   -6.9188    1.6360 N   0  0  0  0  0  0  0  0  0  0  0  0
   -3.0781   -5.6985    1.4082 C   0  0  0  0  0  0  0  0  0  0  0  0
   -1.8884    1.3280    1.5646 C   0  0  0  0  0  0  0  0  0  0  0  0
   -2.6757    2.3749    2.0504 C   0  0  0  0  0  0  0  0  0  0  0  0
   -5.4537    6.6139   -0.0970 H   0  0  0  0  0  0  0  0  0  0  0  0
   -3.8664    5.8514   -0.3163 H   0  0  0  0  0  0  0  0  0  0  0  0
   -4.2097    6.7295    1.1687 H   0  0  0  0  0  0  0  0  0  0  0  0
   -5.9594    5.0814    1.7787 H   0  0  0  0  0  0  0  0  0  0  0  0
   -5.6759    4.1448    0.3285 H   0  0  0  0  0  0  0  0  0  0  0  0
   -3.9661    3.4812   -0.8969 H   0  0  0  0  0  0  0  0  0  0  0  0
   -2.6116    1.6624   -1.7493 H   0  0  0  0  0  0  0  0  0  0  0  0
   -0.7970   -0.7790    0.5167 H   0  0  0  0  0  0  0  0  0  0  0  0
    0.4466    1.5518   -0.6722 H   0  0  0  0  0  0  0  0  0  0  0  0
    2.4131    2.1299   -1.5400 H   0  0  0  0  0  0  0  0  0  0  0  0
    4.6576    3.1255   -1.4152 H   0  0  0  0  0  0  0  0  0  0  0  0
    3.7568   -1.1890    0.9316 H   0  0  0  0  0  0  0  0  0  0  0  0
    6.3264   -0.4511    2.1238 H   0  0  0  0  0  0  0  0  0  0  0  0
    6.8402   -0.9699    0.4874 H   0  0  0  0  0  0  0  0  0  0  0  0
    7.2718    1.6927    1.9036 H   0  0  0  0  0  0  0  0  0  0  0  0
    9.3074    1.7628    0.5021 H   0  0  0  0  0  0  0  0  0  0  0  0
    8.7912    0.3454   -0.3970 H   0  0  0  0  0  0  0  0  0  0  0  0
    9.2129    0.1888    1.3259 H   0  0  0  0  0  0  0  0  0  0  0  0
   -3.3936   -1.3246   -0.4528 H   0  0  0  0  0  0  0  0  0  0  0  0
   -3.2107   -1.9236   -2.1079 H   0  0  0  0  0  0  0  0  0  0  0  0
   -1.6940   -2.9947    0.3299 H   0  0  0  0  0  0  0  0  0  0  0  0
   -1.4322   -3.5343   -1.3198 H   0  0  0  0  0  0  0  0  0  0  0  0
   -3.7844   -4.3361   -1.4865 H   0  0  0  0  0  0  0  0  0  0  0  0
   -4.1462   -3.6873    0.1184 H   0  0  0  0  0  0  0  0  0  0  0  0
   -2.1902   -6.4334   -1.6187 H   0  0  0  0  0  0  0  0  0  0  0  0
   -1.8138   -8.3810    0.3106 H   0  0  0  0  0  0  0  0  0  0  0  0
   -3.4908   -5.0296    2.1518 H   0  0  0  0  0  0  0  0  0  0  0  0
   -1.3045    0.7416    2.2725 H   0  0  0  0  0  0  0  0  0  0  0  0
   -2.6935    2.5853    3.1179 H   0  0  0  0  0  0  0  0  0  0  0  0
  1  2  1  0
  2  3  1  0
  3  4  1  0
  4  5  2  0
  5  6  1  0
  6  7  2  0
  7  8  1  0
  8  9  1  0
  9 10  1  0
 10 11  2  0
 10 12  1  0
 12 13  2  0
 13 14  1  0
 14 15  2  0
 15 16  1  0
 16 17  2  0
 16 18  1  0
 18 19  1  0
 19 20  1  0
 19 21  1  0
  9 22  1  0
 22 23  2  0
 22 24  1  0
 24 25  2  0
 24 26  1  0
 26 27  1  0
 27 28  1  0
 28 29  1  0
 29 30  1  0
 30 31  1  0
 31 32  2  0
 32 33  1  0
 33 34  2  0
  7 35  1  0
 35 36  2  0
 36  4  1  0
 26  8  1  0
 34 30  1  0
 17 12  1  0
 21 15  1  0
  1 37  1  0
  1 38  1  0
  1 39  1  0
  2 40  1  0
  2 41  1  0
  5 42  1  0
  6 43  1  0
  8 44  1  0
  9 45  1  0
 13 46  1  0
 14 47  1  0
 17 48  1  0
 18 49  1  0
 18 50  1  0
 19 51  1  0
 20 52  1  0
 20 53  1  0
 20 54  1  0
 27 55  1  0
 27 56  1  0
 28 57  1  0
 28 58  1  0
 29 59  1  0
 29 60  1  0
 31 61  1  0
 32 62  1  0
 34 63  1  0
 35 64  1  0
 36 65  1  0
M  END
$$$$
