
     RDKit          3D

 55 58  0  0  0  0  0  0  0  0999 V2000
    1.1425    1.3224    3.0491 C   0  0  0  0  0  0  0  0  0  0  0  0
    0.0278    0.9779    2.2182 O   0  0  0  0  0  0  0  0  0  0  0  0
   -1.0882    1.7162    2.4619 C   0  0  0  0  0  0  0  0  0  0  0  0
   -1.1576    2.6191    3.2855 O   0  0  0  0  0  0  0  0  0  0  0  0
   -2.2464    1.2985    1.6085 C   0  0  0  0  0  0  0  0  0  0  0  0
   -3.4785    1.8854    1.9578 C   0  0  0  0  0  0  0  0  0  0  0  0
   -4.6373    1.6129    1.2302 C   0  0  0  0  0  0  0  0  0  0  0  0
   -5.8673    2.1432    1.5315 O   0  0  0  0  0  0  0  0  0  0  0  0
   -5.8711    3.3856    2.2225 C   0  0  0  0  0  0  0  0  0  0  0  0
   -4.5808    0.7201    0.1487 C   0  0  0  0  0  0  0  0  0  0  0  0
   -5.7692    0.4860   -0.4988 O   0  0  0  0  0  0  0  0  0  0  0  0
   -5.7643   -0.4290   -1.5861 C   0  0  0  0  0  0  0  0  0  0  0  0
   -3.3540    0.1418   -0.2074 C   0  0  0  0  0  0  0  0  0  0  0  0
   -2.1784    0.4138    0.5074 C   0  0  0  0  0  0  0  0  0  0  0  0
   -0.9404   -0.1687    0.1392 N   0  0  0  0  0  0  0  0  0  0  0  0
   -0.6547   -1.0148   -0.9162 C   0  0  0  0  0  0  0  0  0  0  0  0
   -1.4360   -1.4694   -1.7384 O   0  0  0  0  0  0  0  0  0  0  0  0
    0.7854   -1.3735   -1.0122 C   0  0  0  0  0  0  0  0  0  0  0  0
    1.7076   -0.3229   -1.0376 C   0  0  0  0  0  0  0  0  0  0  0  0
    3.0566   -0.6220   -1.1022 C   0  0  0  0  0  0  0  0  0  0  0  0
    4.1141    0.4123   -1.1003 C   0  0  0  0  0  0  0  0  0  0  0  0
    3.9573    1.6466   -0.4375 C   0  0  0  0  0  0  0  0  0  0  0  0
    4.9732    2.6087   -0.4387 C   0  0  0  0  0  0  0  0  0  0  0  0
    6.1739    2.3562   -1.0969 C   0  0  0  0  0  0  0  0  0  0  0  0
    6.3581    1.1447   -1.7569 C   0  0  0  0  0  0  0  0  0  0  0  0
    5.3400    0.1857   -1.7568 C   0  0  0  0  0  0  0  0  0  0  0  0
    3.4869   -1.9040   -1.1678 N   0  0  0  0  0  0  0  0  0  0  0  0
    2.6007   -2.9159   -1.1708 C   0  0  0  0  0  0  0  0  0  0  0  0
    3.0875   -4.2133   -1.2564 C   0  0  0  0  0  0  0  0  0  0  0  0
    2.2398   -5.3249   -1.2617 C   0  0  0  0  0  0  0  0  0  0  0  0
    0.8680   -5.1414   -1.1723 C   0  0  0  0  0  0  0  0  0  0  0  0
    0.3547   -3.8493   -1.0807 C   0  0  0  0  0  0  0  0  0  0  0  0
    1.2111   -2.7165   -1.0886 C   0  0  0  0  0  0  0  0  0  0  0  0
    0.8897    1.2013    4.1070 H   0  0  0  0  0  0  0  0  0  0  0  0
    1.9678    0.6407    2.8127 H   0  0  0  0  0  0  0  0  0  0  0  0
    1.4659    2.3464    2.8424 H   0  0  0  0  0  0  0  0  0  0  0  0
   -3.5191    2.5470    2.8185 H   0  0  0  0  0  0  0  0  0  0  0  0
   -5.6525    3.2385    3.2863 H   0  0  0  0  0  0  0  0  0  0  0  0
   -5.1731    4.1038    1.7722 H   0  0  0  0  0  0  0  0  0  0  0  0
   -6.8772    3.8064    2.1453 H   0  0  0  0  0  0  0  0  0  0  0  0
   -5.4368   -1.4238   -1.2649 H   0  0  0  0  0  0  0  0  0  0  0  0
   -6.7943   -0.5225   -1.9489 H   0  0  0  0  0  0  0  0  0  0  0  0
   -5.1503   -0.0553   -2.4136 H   0  0  0  0  0  0  0  0  0  0  0  0
   -3.3210   -0.5296   -1.0557 H   0  0  0  0  0  0  0  0  0  0  0  0
   -0.1681    0.0501    0.7646 H   0  0  0  0  0  0  0  0  0  0  0  0
    1.3658    0.7059   -1.0408 H   0  0  0  0  0  0  0  0  0  0  0  0
    3.0459    1.8736    0.1112 H   0  0  0  0  0  0  0  0  0  0  0  0
    4.8318    3.5502    0.0875 H   0  0  0  0  0  0  0  0  0  0  0  0
    6.9689    3.0974   -1.0882 H   0  0  0  0  0  0  0  0  0  0  0  0
    7.2959    0.9378   -2.2675 H   0  0  0  0  0  0  0  0  0  0  0  0
    5.5105   -0.7577   -2.2778 H   0  0  0  0  0  0  0  0  0  0  0  0
    4.1627   -4.3668   -1.3247 H   0  0  0  0  0  0  0  0  0  0  0  0
    2.6564   -6.3261   -1.3420 H   0  0  0  0  0  0  0  0  0  0  0  0
    0.1958   -5.9978   -1.1811 H   0  0  0  0  0  0  0  0  0  0  0  0
   -0.7258   -3.7311   -1.0187 H   0  0  0  0  0  0  0  0  0  0  0  0
  1  2  1  0
  2  3  1  0
  3  4  2  0
  3  5  1  0
  5  6  2  0
  6  7  1  0
  7  8  1  0
  8  9  1  0
  7 10  2  0
 10 11  1  0
 11 12  1  0
 10 13  1  0
 13 14  2  0
 14 15  1  0
 15 16  1  0
 16 17  2  0
 16 18  1  0
 18 19  2  0
 19 20  1  0
 20 21  1  0
 21 22  2  0
 22 23  1  0
 23 24  2  0
 24 25  1  0
 25 26  2  0
 20 27  2  0
 27 28  1  0
 28 29  2  0
 29 30  1  0
 30 31  2  0
 31 32  1  0
 32 33  2  0
 14  5  1  0
 33 18  1  0
 26 21  1  0
 33 28  1  0
  1 34  1  0
  1 35  1  0
  1 36  1  0
  6 37  1  0
  9 38  1  0
  9 39  1  0
  9 40  1  0
 12 41  1  0
 12 42  1  0
 12 43  1  0
 13 44  1  0
 15 45  1  0
 19 46  1  0
 22 47  1  0
 23 48  1  0
 24 49  1  0
 25 50  1  0
 26 51  1  0
 29 52  1  0
 30 53  1  0
 31 54  1  0
 32 55  1  0
M  END
$$$$
