
     RDKit          3D

 37 39  0  0  0  0  0  0  0  0999 V2000
    4.7795   -0.7874   -1.3043 C   0  0  0  0  0  0  0  0  0  0  0  0
    4.2546   -0.2323   -0.0120 C   0  0  0  0  0  0  0  0  0  0  0  0
    5.1336    0.3182    0.9289 C   0  0  0  0  0  0  0  0  0  0  0  0
    4.6493    0.8427    2.1278 C   0  0  0  0  0  0  0  0  0  0  0  0
    3.2819    0.8388    2.3844 C   0  0  0  0  0  0  0  0  0  0  0  0
    2.8859    1.3426    3.5946 O   0  0  0  0  0  0  0  0  0  0  0  0
    2.3801    0.3417    1.4342 C   0  0  0  0  0  0  0  0  0  0  0  0
    0.9243    0.3829    1.7230 C   0  0  0  0  0  0  0  0  0  0  0  0
    0.5547    0.3481    2.8967 O   0  0  0  0  0  0  0  0  0  0  0  0
   -0.0969    0.4863    0.6622 C   0  0  0  0  0  0  0  0  0  0  0  0
    0.0930    1.2531   -0.4793 C   0  0  0  0  0  0  0  0  0  0  0  0
   -0.8245    1.3659   -1.4698 N   0  0  0  0  0  0  0  0  0  0  0  0
   -1.9963    0.7223   -1.2904 C   0  0  0  0  0  0  0  0  0  0  0  0
   -2.2938   -0.0434   -0.1770 C   0  0  0  0  0  0  0  0  0  0  0  0
   -1.3217   -0.1642    0.8196 C   0  0  0  0  0  0  0  0  0  0  0  0
   -3.5930   -0.7723   -0.1259 C   0  0  0  0  0  0  0  0  0  0  0  0
   -4.5860   -0.2524   -1.0489 N   0  0  0  0  0  0  0  0  0  0  0  0
   -5.9267   -0.7972   -0.9443 C   0  0  0  0  0  0  0  0  0  0  0  0
   -4.2238    0.3959   -2.2128 C   0  0  0  0  0  0  0  0  0  0  0  0
   -4.9983    0.6043   -3.1443 O   0  0  0  0  0  0  0  0  0  0  0  0
   -2.9425    0.8448   -2.2877 N   0  0  0  0  0  0  0  0  0  0  0  0
    2.8750   -0.2126    0.2441 C   0  0  0  0  0  0  0  0  0  0  0  0
    5.7922   -1.1843   -1.1772 H   0  0  0  0  0  0  0  0  0  0  0  0
    4.1506   -1.6108   -1.6588 H   0  0  0  0  0  0  0  0  0  0  0  0
    4.8000   -0.0028   -2.0668 H   0  0  0  0  0  0  0  0  0  0  0  0
    6.2056    0.3299    0.7415 H   0  0  0  0  0  0  0  0  0  0  0  0
    5.3377    1.2475    2.8652 H   0  0  0  0  0  0  0  0  0  0  0  0
    1.9458    1.0882    3.7317 H   0  0  0  0  0  0  0  0  0  0  0  0
    1.0007    1.8273   -0.6449 H   0  0  0  0  0  0  0  0  0  0  0  0
   -1.5118   -0.7617    1.7089 H   0  0  0  0  0  0  0  0  0  0  0  0
   -3.4273   -1.8275   -0.3732 H   0  0  0  0  0  0  0  0  0  0  0  0
   -4.0113   -0.7057    0.8851 H   0  0  0  0  0  0  0  0  0  0  0  0
   -6.6319   -0.2436   -1.5704 H   0  0  0  0  0  0  0  0  0  0  0  0
   -5.9079   -1.8419   -1.2688 H   0  0  0  0  0  0  0  0  0  0  0  0
   -6.2600   -0.7396    0.0958 H   0  0  0  0  0  0  0  0  0  0  0  0
   -2.6929    1.3919   -3.0976 H   0  0  0  0  0  0  0  0  0  0  0  0
    2.2019   -0.6510   -0.4893 H   0  0  0  0  0  0  0  0  0  0  0  0
  1  2  1  0
  2  3  2  0
  3  4  1  0
  4  5  2  0
  5  6  1  0
  5  7  1  0
  7  8  1  0
  8  9  2  0
  8 10  1  0
 10 11  2  0
 11 12  1  0
 12 13  2  0
 13 14  1  0
 14 15  2  0
 14 16  1  0
 16 17  1  0
 17 18  1  0
 17 19  1  0
 19 20  2  0
 19 21  1  0
  7 22  2  0
 22  2  1  0
 15 10  1  0
 21 13  1  0
  1 23  1  0
  1 24  1  0
  1 25  1  0
  3 26  1  0
  4 27  1  0
  6 28  1  0
 11 29  1  0
 15 30  1  0
 16 31  1  0
 16 32  1  0
 18 33  1  0
 18 34  1  0
 18 35  1  0
 21 36  1  0
 22 37  1  0
M  END
$$$$
