
     RDKit          3D

 70 72  0  0  0  0  0  0  0  0999 V2000
   -2.7307    3.3852   -0.8925 C   0  0  0  0  0  0  0  0  0  0  0  0
   -3.3741    1.9769   -1.0134 C   0  0  0  0  0  0  0  0  0  0  0  0
   -4.6489    2.0114   -0.1432 C   0  0  0  0  0  0  0  0  0  0  0  0
   -3.7591    1.8186   -2.5028 C   0  0  0  0  0  0  0  0  0  0  0  0
   -2.4384    0.8274   -0.5670 C   0  0  0  0  0  0  0  0  0  0  0  0
   -1.1747    1.1055   -0.0182 C   0  0  0  0  0  0  0  0  0  0  0  0
   -0.2675    0.0917    0.3291 C   0  0  0  0  0  0  0  0  0  0  0  0
    1.1114    0.4003    0.9512 C   0  0  0  0  0  0  0  0  0  0  0  0
    0.9865    0.2911    2.4702 C   0  0  0  0  0  0  0  0  0  0  0  0
    0.2498    1.2025    3.2372 C   0  0  0  0  0  0  0  0  0  0  0  0
    0.1557    1.0313    4.6146 C   0  0  0  0  0  0  0  0  0  0  0  0
    0.8064   -0.0483    5.1881 C   0  0  0  0  0  0  0  0  0  0  0  0
    1.5302   -0.9477    4.4894 N   0  0  0  0  0  0  0  0  0  0  0  0
    1.5979   -0.7599    3.1512 C   0  0  0  0  0  0  0  0  0  0  0  0
    1.6923    1.7026    0.4985 N   0  0  0  0  0  0  0  0  0  0  0  0
    2.9542    2.0405    1.1941 C   0  0  0  0  0  0  0  0  0  0  0  0
    4.1418    1.0781    0.9289 C   0  0  0  0  0  0  0  0  0  0  0  0
    4.0675    0.3507   -0.3577 N   0  0  0  0  0  0  0  0  0  0  0  0
    5.4104   -0.1153   -0.7595 C   0  0  0  0  0  0  0  0  0  0  0  0
    5.4388   -0.9923   -2.0234 C   0  0  0  0  0  0  0  0  0  0  0  0
    5.4827   -0.1872   -3.1993 O   0  0  0  0  0  0  0  0  0  0  0  0
    3.4212    1.1952   -1.3743 C   0  0  0  0  0  0  0  0  0  0  0  0
    2.0003    1.6803   -0.9590 C   0  0  0  0  0  0  0  0  0  0  0  0
   -0.6507   -1.2476    0.1463 C   0  0  0  0  0  0  0  0  0  0  0  0
   -1.9085   -1.6062   -0.3670 C   0  0  0  0  0  0  0  0  0  0  0  0
   -2.2926   -3.0949   -0.5498 C   0  0  0  0  0  0  0  0  0  0  0  0
   -2.6482   -3.3880   -2.0251 C   0  0  0  0  0  0  0  0  0  0  0  0
   -1.1523   -4.0818   -0.1825 C   0  0  0  0  0  0  0  0  0  0  0  0
   -3.4847   -3.4630    0.3615 C   0  0  0  0  0  0  0  0  0  0  0  0
   -2.7794   -0.5404   -0.6988 C   0  0  0  0  0  0  0  0  0  0  0  0
   -4.0311   -0.8533   -1.1523 O   0  0  0  0  0  0  0  0  0  0  0  0
   -1.8140    3.4642   -1.4890 H   0  0  0  0  0  0  0  0  0  0  0  0
   -2.4887    3.6311    0.1479 H   0  0  0  0  0  0  0  0  0  0  0  0
   -3.4147    4.1657   -1.2482 H   0  0  0  0  0  0  0  0  0  0  0  0
   -5.2718    2.8787   -0.3913 H   0  0  0  0  0  0  0  0  0  0  0  0
   -5.2811    1.1308   -0.2775 H   0  0  0  0  0  0  0  0  0  0  0  0
   -4.3964    2.0779    0.9211 H   0  0  0  0  0  0  0  0  0  0  0  0
   -4.3821    0.9400   -2.6919 H   0  0  0  0  0  0  0  0  0  0  0  0
   -2.8654    1.7336   -3.1326 H   0  0  0  0  0  0  0  0  0  0  0  0
   -4.3328    2.6839   -2.8555 H   0  0  0  0  0  0  0  0  0  0  0  0
   -0.8512    2.1301    0.1437 H   0  0  0  0  0  0  0  0  0  0  0  0
    1.7789   -0.4036    0.6146 H   0  0  0  0  0  0  0  0  0  0  0  0
   -0.2469    2.0432    2.7598 H   0  0  0  0  0  0  0  0  0  0  0  0
   -0.4136    1.7213    5.2257 H   0  0  0  0  0  0  0  0  0  0  0  0
    0.7608   -0.2227    6.2589 H   0  0  0  0  0  0  0  0  0  0  0  0
    2.1850   -1.5069    2.6234 H   0  0  0  0  0  0  0  0  0  0  0  0
    2.8075    2.1582    2.2736 H   0  0  0  0  0  0  0  0  0  0  0  0
    3.2492    3.0441    0.8548 H   0  0  0  0  0  0  0  0  0  0  0  0
    5.0650    1.6699    0.9981 H   0  0  0  0  0  0  0  0  0  0  0  0
    4.1782    0.3288    1.7292 H   0  0  0  0  0  0  0  0  0  0  0  0
    6.0851    0.7398   -0.8942 H   0  0  0  0  0  0  0  0  0  0  0  0
    5.8029   -0.7284    0.0609 H   0  0  0  0  0  0  0  0  0  0  0  0
    6.3413   -1.6113   -2.0175 H   0  0  0  0  0  0  0  0  0  0  0  0
    4.5685   -1.6551   -2.0697 H   0  0  0  0  0  0  0  0  0  0  0  0
    5.4441   -0.7953   -3.9584 H   0  0  0  0  0  0  0  0  0  0  0  0
    3.3040    0.6463   -2.3148 H   0  0  0  0  0  0  0  0  0  0  0  0
    4.0486    2.0726   -1.5820 H   0  0  0  0  0  0  0  0  0  0  0  0
    1.2569    1.1000   -1.5167 H   0  0  0  0  0  0  0  0  0  0  0  0
    1.8855    2.7087   -1.3263 H   0  0  0  0  0  0  0  0  0  0  0  0
    0.0687   -2.0097    0.4329 H   0  0  0  0  0  0  0  0  0  0  0  0
   -3.5509   -2.8677   -2.3576 H   0  0  0  0  0  0  0  0  0  0  0  0
   -1.8304   -3.0905   -2.6931 H   0  0  0  0  0  0  0  0  0  0  0  0
   -2.8326   -4.4578   -2.1825 H   0  0  0  0  0  0  0  0  0  0  0  0
   -0.8659   -3.9954    0.8724 H   0  0  0  0  0  0  0  0  0  0  0  0
   -1.4621   -5.1220   -0.3418 H   0  0  0  0  0  0  0  0  0  0  0  0
   -0.2599   -3.9160   -0.7973 H   0  0  0  0  0  0  0  0  0  0  0  0
   -3.6992   -4.5378    0.3168 H   0  0  0  0  0  0  0  0  0  0  0  0
   -3.2732   -3.2112    1.4072 H   0  0  0  0  0  0  0  0  0  0  0  0
   -4.4089   -2.9528    0.0806 H   0  0  0  0  0  0  0  0  0  0  0  0
   -4.5944   -0.8480   -0.3584 H   0  0  0  0  0  0  0  0  0  0  0  0
  1  2  1  0
  2  3  1  0
  2  4  1  0
  2  5  1  0
  5  6  2  0
  6  7  1  0
  7  8  1  0
  8  9  1  0
  9 10  2  0
 10 11  1  0
 11 12  2  0
 12 13  1  0
 13 14  2  0
  8 15  1  0
 15 16  1  0
 16 17  1  0
 17 18  1  0
 18 19  1  0
 19 20  1  0
 20 21  1  0
 18 22  1  0
 22 23  1  0
  7 24  2  0
 24 25  1  0
 25 26  1  0
 26 27  1  0
 26 28  1  0
 26 29  1  0
 25 30  2  0
 30 31  1  0
 30  5  1  0
 14  9  1  0
 23 15  1  0
  1 32  1  0
  1 33  1  0
  1 34  1  0
  3 35  1  0
  3 36  1  0
  3 37  1  0
  4 38  1  0
  4 39  1  0
  4 40  1  0
  6 41  1  0
  8 42  1  0
 10 43  1  0
 11 44  1  0
 12 45  1  0
 14 46  1  0
 16 47  1  0
 16 48  1  0
 17 49  1  0
 17 50  1  0
 19 51  1  0
 19 52  1  0
 20 53  1  0
 20 54  1  0
 21 55  1  0
 22 56  1  0
 22 57  1  0
 23 58  1  0
 23 59  1  0
 24 60  1  0
 27 61  1  0
 27 62  1  0
 27 63  1  0
 28 64  1  0
 28 65  1  0
 28 66  1  0
 29 67  1  0
 29 68  1  0
 29 69  1  0
 31 70  1  0
M  END
$$$$
