
     RDKit          3D

 46 49  0  0  0  0  0  0  0  0999 V2000
   -0.2921   -4.3876   -2.6750 C   0  0  0  0  0  0  0  0  0  0  0  0
   -0.9734   -3.5462   -1.7458 O   0  0  0  0  0  0  0  0  0  0  0  0
   -0.3590   -2.3451   -1.5184 C   0  0  0  0  0  0  0  0  0  0  0  0
    0.6869   -2.0020   -2.0606 O   0  0  0  0  0  0  0  0  0  0  0  0
   -1.0891   -1.5015   -0.5762 C   0  0  0  0  0  0  0  0  0  0  0  0
   -2.3479   -1.7522   -0.1627 N   0  0  0  0  0  0  0  0  0  0  0  0
   -2.6200   -0.6885    0.6400 N   0  0  0  0  0  0  0  0  0  0  0  0
   -3.8790   -0.5310    1.2777 C   0  0  0  0  0  0  0  0  0  0  0  0
   -4.8898   -1.4837    1.0831 C   0  0  0  0  0  0  0  0  0  0  0  0
   -6.1277   -1.3233    1.7090 C   0  0  0  0  0  0  0  0  0  0  0  0
   -6.3613   -0.2173    2.5261 C   0  0  0  0  0  0  0  0  0  0  0  0
   -5.3581    0.7319    2.7230 C   0  0  0  0  0  0  0  0  0  0  0  0
   -4.1169    0.5786    2.1017 C   0  0  0  0  0  0  0  0  0  0  0  0
   -1.6163    0.2118    0.7995 N   0  0  0  0  0  0  0  0  0  0  0  0
   -0.6553   -0.3056    0.0276 C   0  0  0  0  0  0  0  0  0  0  0  0
    0.6626    0.2946   -0.1153 C   0  0  0  0  0  0  0  0  0  0  0  0
    1.7637   -0.2089    0.4522 N   0  0  0  0  0  0  0  0  0  0  0  0
    2.7091    0.6907    0.0769 N   0  0  0  0  0  0  0  0  0  0  0  0
    4.0710    0.5502    0.4518 C   0  0  0  0  0  0  0  0  0  0  0  0
    4.4770   -0.5432    1.2306 C   0  0  0  0  0  0  0  0  0  0  0  0
    5.8173   -0.6756    1.5989 C   0  0  0  0  0  0  0  0  0  0  0  0
    6.7525    0.2766    1.1948 C   0  0  0  0  0  0  0  0  0  0  0  0
    6.3531    1.3644    0.4185 C   0  0  0  0  0  0  0  0  0  0  0  0
    5.0147    1.5053    0.0463 C   0  0  0  0  0  0  0  0  0  0  0  0
    2.2744    1.7387   -0.6734 N   0  0  0  0  0  0  0  0  0  0  0  0
    0.9589    1.4791   -0.8179 C   0  0  0  0  0  0  0  0  0  0  0  0
    0.0475    2.3041   -1.6070 C   0  0  0  0  0  0  0  0  0  0  0  0
   -1.0886    1.9536   -1.9101 O   0  0  0  0  0  0  0  0  0  0  0  0
    0.6019    3.4950   -1.9884 O   0  0  0  0  0  0  0  0  0  0  0  0
   -0.2594    4.3191   -2.7723 C   0  0  0  0  0  0  0  0  0  0  0  0
   -0.8622   -5.3165   -2.7737 H   0  0  0  0  0  0  0  0  0  0  0  0
   -0.2402   -3.9115   -3.6605 H   0  0  0  0  0  0  0  0  0  0  0  0
    0.7098   -4.6330   -2.3083 H   0  0  0  0  0  0  0  0  0  0  0  0
   -4.7297   -2.3525    0.4477 H   0  0  0  0  0  0  0  0  0  0  0  0
   -6.9119   -2.0609    1.5563 H   0  0  0  0  0  0  0  0  0  0  0  0
   -7.3270   -0.0941    3.0104 H   0  0  0  0  0  0  0  0  0  0  0  0
   -5.5431    1.5935    3.3602 H   0  0  0  0  0  0  0  0  0  0  0  0
   -3.3489    1.3315    2.2671 H   0  0  0  0  0  0  0  0  0  0  0  0
    3.7640   -1.2970    1.5577 H   0  0  0  0  0  0  0  0  0  0  0  0
    6.1314   -1.5226    2.2039 H   0  0  0  0  0  0  0  0  0  0  0  0
    7.7950    0.1707    1.4833 H   0  0  0  0  0  0  0  0  0  0  0  0
    7.0840    2.1060    0.1048 H   0  0  0  0  0  0  0  0  0  0  0  0
    4.7236    2.3644   -0.5556 H   0  0  0  0  0  0  0  0  0  0  0  0
    0.2877    5.2289   -3.0357 H   0  0  0  0  0  0  0  0  0  0  0  0
   -0.5434    3.8081   -3.6976 H   0  0  0  0  0  0  0  0  0  0  0  0
   -1.1460    4.6028   -2.1963 H   0  0  0  0  0  0  0  0  0  0  0  0
  1  2  1  0
  2  3  1  0
  3  4  2  0
  3  5  1  0
  5  6  2  0
  6  7  1  0
  7  8  1  0
  8  9  2  0
  9 10  1  0
 10 11  2  0
 11 12  1  0
 12 13  2  0
  7 14  1  0
 14 15  2  0
 15 16  1  0
 16 17  2  0
 17 18  1  0
 18 19  1  0
 19 20  2  0
 20 21  1  0
 21 22  2  0
 22 23  1  0
 23 24  2  0
 18 25  1  0
 25 26  2  0
 26 27  1  0
 27 28  2  0
 27 29  1  0
 29 30  1  0
 15  5  1  0
 26 16  1  0
 13  8  1  0
 24 19  1  0
  1 31  1  0
  1 32  1  0
  1 33  1  0
  9 34  1  0
 10 35  1  0
 11 36  1  0
 12 37  1  0
 13 38  1  0
 20 39  1  0
 21 40  1  0
 22 41  1  0
 23 42  1  0
 24 43  1  0
 30 44  1  0
 30 45  1  0
 30 46  1  0
M  END
$$$$
