
     RDKit          3D

 55 58  0  0  0  0  0  0  0  0999 V2000
   -7.5063   -1.5678   -1.2864 C   0  0  0  0  0  0  0  0  0  0  0  0
   -6.9208   -0.8160   -0.2336 O   0  0  0  0  0  0  0  0  0  0  0  0
   -5.5917   -0.4923   -0.3442 C   0  0  0  0  0  0  0  0  0  0  0  0
   -4.7699   -0.8764   -1.4055 C   0  0  0  0  0  0  0  0  0  0  0  0
   -3.4210   -0.5012   -1.4311 C   0  0  0  0  0  0  0  0  0  0  0  0
   -2.8530    0.2604   -0.3974 C   0  0  0  0  0  0  0  0  0  0  0  0
   -1.4280    0.6537   -0.4037 C   0  0  0  0  0  0  0  0  0  0  0  0
   -0.4312   -0.1333   -0.9524 C   0  0  0  0  0  0  0  0  0  0  0  0
    0.8830    0.3290   -0.8961 C   0  0  0  0  0  0  0  0  0  0  0  0
    1.9146   -0.5510   -1.4770 C   0  0  0  0  0  0  0  0  0  0  0  0
    1.8893   -0.7204   -2.6930 O   0  0  0  0  0  0  0  0  0  0  0  0
    2.8491   -1.1519   -0.6258 N   0  0  0  0  0  0  0  0  0  0  0  0
    2.6048   -1.3452    0.8063 C   0  0  0  0  0  0  0  0  0  0  0  0
    3.9043   -1.3596    1.6013 C   0  0  0  0  0  0  0  0  0  0  0  0
    4.9005   -2.3579    1.0195 C   0  0  0  0  0  0  0  0  0  0  0  0
    5.1357   -2.1550   -0.4836 C   0  0  0  0  0  0  0  0  0  0  0  0
    6.0123   -0.9502   -0.7879 C   0  0  0  0  0  0  0  0  0  0  0  0
    7.2002   -1.0574   -0.1466 F   0  0  0  0  0  0  0  0  0  0  0  0
    6.2845   -0.8719   -2.1097 F   0  0  0  0  0  0  0  0  0  0  0  0
    5.4571    0.2192   -0.4129 F   0  0  0  0  0  0  0  0  0  0  0  0
    3.8126   -2.0627   -1.2420 C   0  0  0  0  0  0  0  0  0  0  0  0
    1.1993    1.5844   -0.3397 C   0  0  0  0  0  0  0  0  0  0  0  0
    2.4986    2.1496   -0.2987 C   0  0  0  0  0  0  0  0  0  0  0  0
    2.7202    3.3939    0.2865 C   0  0  0  0  0  0  0  0  0  0  0  0
    1.6514    4.0906    0.8317 C   0  0  0  0  0  0  0  0  0  0  0  0
    0.3684    3.5396    0.7823 C   0  0  0  0  0  0  0  0  0  0  0  0
    0.1204    2.3020    0.2031 C   0  0  0  0  0  0  0  0  0  0  0  0
   -1.1437    1.8426    0.1861 N   0  0  0  0  0  0  0  0  0  0  0  0
   -3.6989    0.6492    0.6599 C   0  0  0  0  0  0  0  0  0  0  0  0
   -5.0525    0.2850    0.6968 C   0  0  0  0  0  0  0  0  0  0  0  0
   -5.9187    0.6271    1.7067 O   0  0  0  0  0  0  0  0  0  0  0  0
   -5.4592    1.5578    2.6767 C   0  0  0  0  0  0  0  0  0  0  0  0
   -7.0391   -2.5542   -1.3744 H   0  0  0  0  0  0  0  0  0  0  0  0
   -7.4622   -1.0219   -2.2345 H   0  0  0  0  0  0  0  0  0  0  0  0
   -8.5616   -1.7215   -1.0410 H   0  0  0  0  0  0  0  0  0  0  0  0
   -5.1461   -1.4648   -2.2357 H   0  0  0  0  0  0  0  0  0  0  0  0
   -2.8244   -0.8027   -2.2901 H   0  0  0  0  0  0  0  0  0  0  0  0
   -0.6478   -1.0954   -1.4043 H   0  0  0  0  0  0  0  0  0  0  0  0
    1.9436   -0.5766    1.2117 H   0  0  0  0  0  0  0  0  0  0  0  0
    2.0800   -2.3025    0.9146 H   0  0  0  0  0  0  0  0  0  0  0  0
    4.3443   -0.3560    1.6064 H   0  0  0  0  0  0  0  0  0  0  0  0
    3.6935   -1.6157    2.6459 H   0  0  0  0  0  0  0  0  0  0  0  0
    5.8473   -2.3004    1.5689 H   0  0  0  0  0  0  0  0  0  0  0  0
    4.5105   -3.3719    1.1785 H   0  0  0  0  0  0  0  0  0  0  0  0
    5.6770   -3.0339   -0.8577 H   0  0  0  0  0  0  0  0  0  0  0  0
    3.3326   -3.0499   -1.2644 H   0  0  0  0  0  0  0  0  0  0  0  0
    3.9913   -1.7812   -2.2860 H   0  0  0  0  0  0  0  0  0  0  0  0
    3.3483    1.6238   -0.7308 H   0  0  0  0  0  0  0  0  0  0  0  0
    3.7220    3.8158    0.3100 H   0  0  0  0  0  0  0  0  0  0  0  0
    1.8071    5.0644    1.2887 H   0  0  0  0  0  0  0  0  0  0  0  0
   -0.4656    4.0973    1.2031 H   0  0  0  0  0  0  0  0  0  0  0  0
   -3.2654    1.2412    1.4614 H   0  0  0  0  0  0  0  0  0  0  0  0
   -6.2960    1.7851    3.3443 H   0  0  0  0  0  0  0  0  0  0  0  0
   -4.6579    1.1265    3.2856 H   0  0  0  0  0  0  0  0  0  0  0  0
   -5.1426    2.4968    2.2103 H   0  0  0  0  0  0  0  0  0  0  0  0
  1  2  1  0
  2  3  1  0
  3  4  2  0
  4  5  1  0
  5  6  2  0
  6  7  1  0
  7  8  2  0
  8  9  1  0
  9 10  1  0
 10 11  2  0
 10 12  1  0
 12 13  1  0
 13 14  1  0
 14 15  1  0
 15 16  1  0
 16 17  1  0
 17 18  1  0
 17 19  1  0
 17 20  1  0
 16 21  1  0
  9 22  2  0
 22 23  1  0
 23 24  2  0
 24 25  1  0
 25 26  2  0
 26 27  1  0
 27 28  2  0
  6 29  1  0
 29 30  2  0
 30 31  1  0
 31 32  1  0
 30  3  1  0
 28  7  1  0
 21 12  1  0
 27 22  1  0
  1 33  1  0
  1 34  1  0
  1 35  1  0
  4 36  1  0
  5 37  1  0
  8 38  1  0
 13 39  1  0
 13 40  1  0
 14 41  1  0
 14 42  1  0
 15 43  1  0
 15 44  1  0
 16 45  1  0
 21 46  1  0
 21 47  1  0
 23 48  1  0
 24 49  1  0
 25 50  1  0
 26 51  1  0
 29 52  1  0
 32 53  1  0
 32 54  1  0
 32 55  1  0
M  END
$$$$
