
     RDKit          3D

 54 56  0  0  0  0  0  0  0  0999 V2000
    6.1137    3.0840   -0.7510 C   0  0  0  0  0  0  0  0  0  0  0  0
    6.3431    1.7050   -0.4915 O   0  0  0  0  0  0  0  0  0  0  0  0
    5.3268    0.8417   -0.7952 C   0  0  0  0  0  0  0  0  0  0  0  0
    5.6094   -0.5030   -0.5468 C   0  0  0  0  0  0  0  0  0  0  0  0
    4.6598   -1.4930   -0.8110 C   0  0  0  0  0  0  0  0  0  0  0  0
    3.4053   -1.1501   -1.3306 C   0  0  0  0  0  0  0  0  0  0  0  0
    2.3684   -2.2132   -1.6058 C   0  0  0  0  0  0  0  0  0  0  0  0
    1.7686   -2.7870   -0.3988 N   0  0  0  0  0  0  0  0  0  0  0  0
    0.9780   -1.8518    0.4077 C   0  0  0  0  0  0  0  0  0  0  0  0
   -0.3078   -1.3801   -0.2858 C   0  0  0  0  0  0  0  0  0  0  0  0
   -1.1249   -0.3997    0.5946 C   0  0  0  0  0  0  0  0  0  0  0  0
   -1.6636   -1.0602    1.8613 C   0  0  0  0  0  0  0  0  0  0  0  0
   -2.5707   -2.1326    1.7992 C   0  0  0  0  0  0  0  0  0  0  0  0
   -3.0522   -2.7238    2.9684 C   0  0  0  0  0  0  0  0  0  0  0  0
   -2.6314   -2.2455    4.2022 C   0  0  0  0  0  0  0  0  0  0  0  0
   -3.0940   -2.8134    5.3237 F   0  0  0  0  0  0  0  0  0  0  0  0
   -1.7384   -1.1854    4.2906 C   0  0  0  0  0  0  0  0  0  0  0  0
   -1.2556   -0.5918    3.1231 C   0  0  0  0  0  0  0  0  0  0  0  0
   -2.2295    0.3410   -0.1614 C   0  0  0  0  0  0  0  0  0  0  0  0
   -2.6268    1.6135    0.2841 C   0  0  0  0  0  0  0  0  0  0  0  0
   -3.6422    2.3261   -0.3652 C   0  0  0  0  0  0  0  0  0  0  0  0
   -4.2849    1.7767   -1.4720 C   0  0  0  0  0  0  0  0  0  0  0  0
   -5.2866    2.3614   -2.1960 O   0  0  0  0  0  0  0  0  0  0  0  0
   -5.7299    3.6407   -1.7615 C   0  0  0  0  0  0  0  0  0  0  0  0
   -3.9041    0.5104   -1.9173 C   0  0  0  0  0  0  0  0  0  0  0  0
   -2.8917   -0.2043   -1.2694 C   0  0  0  0  0  0  0  0  0  0  0  0
    3.1257    0.2010   -1.5776 C   0  0  0  0  0  0  0  0  0  0  0  0
    4.0796    1.1905   -1.3122 C   0  0  0  0  0  0  0  0  0  0  0  0
    7.0172    3.6323   -0.4674 H   0  0  0  0  0  0  0  0  0  0  0  0
    5.9373    3.2618   -1.8170 H   0  0  0  0  0  0  0  0  0  0  0  0
    5.2873    3.4675   -0.1434 H   0  0  0  0  0  0  0  0  0  0  0  0
    6.5801   -0.7826   -0.1444 H   0  0  0  0  0  0  0  0  0  0  0  0
    4.9074   -2.5328   -0.6109 H   0  0  0  0  0  0  0  0  0  0  0  0
    2.8577   -3.0255   -2.1587 H   0  0  0  0  0  0  0  0  0  0  0  0
    1.5991   -1.8400   -2.2909 H   0  0  0  0  0  0  0  0  0  0  0  0
    2.5186   -3.1594    0.1830 H   0  0  0  0  0  0  0  0  0  0  0  0
    1.5844   -0.9955    0.7237 H   0  0  0  0  0  0  0  0  0  0  0  0
    0.7079   -2.3855    1.3261 H   0  0  0  0  0  0  0  0  0  0  0  0
   -0.9064   -2.2566   -0.5636 H   0  0  0  0  0  0  0  0  0  0  0  0
   -0.0492   -0.8649   -1.2186 H   0  0  0  0  0  0  0  0  0  0  0  0
   -0.4084    0.3793    0.8969 H   0  0  0  0  0  0  0  0  0  0  0  0
   -2.9138   -2.5116    0.8392 H   0  0  0  0  0  0  0  0  0  0  0  0
   -3.7535   -3.5506    2.9227 H   0  0  0  0  0  0  0  0  0  0  0  0
   -1.4253   -0.8278    5.2661 H   0  0  0  0  0  0  0  0  0  0  0  0
   -0.5578    0.2386    3.2056 H   0  0  0  0  0  0  0  0  0  0  0  0
   -2.1480    2.0613    1.1530 H   0  0  0  0  0  0  0  0  0  0  0  0
   -3.9063    3.3036    0.0234 H   0  0  0  0  0  0  0  0  0  0  0  0
   -6.1416    3.5932   -0.7479 H   0  0  0  0  0  0  0  0  0  0  0  0
   -6.5329    3.9616   -2.4320 H   0  0  0  0  0  0  0  0  0  0  0  0
   -4.9253    4.3805   -1.8280 H   0  0  0  0  0  0  0  0  0  0  0  0
   -4.4051    0.0712   -2.7767 H   0  0  0  0  0  0  0  0  0  0  0  0
   -2.6400   -1.1919   -1.6463 H   0  0  0  0  0  0  0  0  0  0  0  0
    2.1578    0.4946   -1.9788 H   0  0  0  0  0  0  0  0  0  0  0  0
    3.8146    2.2215   -1.5207 H   0  0  0  0  0  0  0  0  0  0  0  0
  1  2  1  0
  2  3  1  0
  3  4  2  0
  4  5  1  0
  5  6  2  0
  6  7  1  0
  7  8  1  0
  8  9  1  0
  9 10  1  0
 10 11  1  0
 11 12  1  0
 12 13  2  0
 13 14  1  0
 14 15  2  0
 15 16  1  0
 15 17  1  0
 17 18  2  0
 11 19  1  0
 19 20  2  0
 20 21  1  0
 21 22  2  0
 22 23  1  0
 23 24  1  0
 22 25  1  0
 25 26  2  0
  6 27  1  0
 27 28  2  0
 28  3  1  0
 18 12  1  0
 26 19  1  0
  1 29  1  0
  1 30  1  0
  1 31  1  0
  4 32  1  0
  5 33  1  0
  7 34  1  0
  7 35  1  0
  8 36  1  0
  9 37  1  0
  9 38  1  0
 10 39  1  0
 10 40  1  0
 11 41  1  0
 13 42  1  0
 14 43  1  0
 17 44  1  0
 18 45  1  0
 20 46  1  0
 21 47  1  0
 24 48  1  0
 24 49  1  0
 24 50  1  0
 25 51  1  0
 26 52  1  0
 27 53  1  0
 28 54  1  0
M  END
$$$$
