
     RDKit          3D

 48 48  0  0  0  0  0  0  0  0999 V2000
    2.8388   -1.1675    2.0345 C   0  0  0  0  0  0  0  0  0  0  0  0
    3.3688   -0.3884    0.8209 C   0  0  0  0  0  0  0  0  0  0  0  0
    2.6524   -0.8488   -0.4624 C   0  0  0  0  0  0  0  0  0  0  0  0
    1.2536   -0.4597   -0.4866 N   0  0  0  0  0  0  0  0  0  0  0  0
    0.2371   -1.3574   -0.2323 C   0  0  0  0  0  0  0  0  0  0  0  0
    0.4245   -2.5438    0.0121 O   0  0  0  0  0  0  0  0  0  0  0  0
   -1.1449   -0.8037   -0.2264 C   0  0  0  0  0  0  0  0  0  0  0  0
   -2.1073   -1.4245    0.5709 C   0  0  0  0  0  0  0  0  0  0  0  0
   -3.4166   -0.9340    0.6060 C   0  0  0  0  0  0  0  0  0  0  0  0
   -3.8059    0.1827   -0.1599 C   0  0  0  0  0  0  0  0  0  0  0  0
   -5.2571    0.6925   -0.0960 C   0  0  0  0  0  0  0  0  0  0  0  0
   -5.5246    1.9293   -0.9834 C   0  0  0  0  0  0  0  0  0  0  0  0
   -5.6050    1.0897    1.3551 C   0  0  0  0  0  0  0  0  0  0  0  0
   -6.2192   -0.4212   -0.5625 C   0  0  0  0  0  0  0  0  0  0  0  0
   -2.8258    0.7810   -0.9702 C   0  0  0  0  0  0  0  0  0  0  0  0
   -1.5119    0.2944   -1.0079 C   0  0  0  0  0  0  0  0  0  0  0  0
    4.9027   -0.5829    0.7091 C   0  0  0  0  0  0  0  0  0  0  0  0
    5.6527    0.6189    0.2895 N   0  0  0  0  0  0  0  0  0  0  0  0
    7.0937    0.3719    0.4131 C   0  0  0  0  0  0  0  0  0  0  0  0
    5.3460    1.0580   -1.0690 C   0  0  0  0  0  0  0  0  0  0  0  0
    3.3451   -0.8484    2.9521 H   0  0  0  0  0  0  0  0  0  0  0  0
    2.9986   -2.2445    1.9155 H   0  0  0  0  0  0  0  0  0  0  0  0
    1.7687   -0.9938    2.1836 H   0  0  0  0  0  0  0  0  0  0  0  0
    3.1489    0.6723    1.0018 H   0  0  0  0  0  0  0  0  0  0  0  0
    3.0959   -0.3950   -1.3513 H   0  0  0  0  0  0  0  0  0  0  0  0
    2.7388   -1.9351   -0.5816 H   0  0  0  0  0  0  0  0  0  0  0  0
    1.0457    0.5287   -0.5185 H   0  0  0  0  0  0  0  0  0  0  0  0
   -1.8419   -2.2924    1.1715 H   0  0  0  0  0  0  0  0  0  0  0  0
   -4.1340   -1.4459    1.2445 H   0  0  0  0  0  0  0  0  0  0  0  0
   -6.5677    2.2574   -0.8997 H   0  0  0  0  0  0  0  0  0  0  0  0
   -5.3396    1.7141   -2.0422 H   0  0  0  0  0  0  0  0  0  0  0  0
   -4.8954    2.7784   -0.6920 H   0  0  0  0  0  0  0  0  0  0  0  0
   -5.5511    0.2384    2.0425 H   0  0  0  0  0  0  0  0  0  0  0  0
   -6.6231    1.4907    1.4219 H   0  0  0  0  0  0  0  0  0  0  0  0
   -4.9184    1.8585    1.7289 H   0  0  0  0  0  0  0  0  0  0  0  0
   -7.2586   -0.0727   -0.5592 H   0  0  0  0  0  0  0  0  0  0  0  0
   -5.9799   -0.7478   -1.5815 H   0  0  0  0  0  0  0  0  0  0  0  0
   -6.1756   -1.3043    0.0844 H   0  0  0  0  0  0  0  0  0  0  0  0
   -3.0588    1.6350   -1.6009 H   0  0  0  0  0  0  0  0  0  0  0  0
   -0.8001    0.7700   -1.6763 H   0  0  0  0  0  0  0  0  0  0  0  0
    5.1312   -1.4308    0.0492 H   0  0  0  0  0  0  0  0  0  0  0  0
    5.2793   -0.8613    1.7023 H   0  0  0  0  0  0  0  0  0  0  0  0
    7.6632    1.2759    0.1694 H   0  0  0  0  0  0  0  0  0  0  0  0
    7.3556    0.1112    1.4447 H   0  0  0  0  0  0  0  0  0  0  0  0
    7.4304   -0.4372   -0.2452 H   0  0  0  0  0  0  0  0  0  0  0  0
    5.9834    1.9023   -1.3574 H   0  0  0  0  0  0  0  0  0  0  0  0
    4.3198    1.4311   -1.1360 H   0  0  0  0  0  0  0  0  0  0  0  0
    5.4876    0.2590   -1.8052 H   0  0  0  0  0  0  0  0  0  0  0  0
  1  2  1  0
  2  3  1  0
  3  4  1  0
  4  5  1  0
  5  6  2  0
  5  7  1  0
  7  8  2  0
  8  9  1  0
  9 10  2  0
 10 11  1  0
 11 12  1  0
 11 13  1  0
 11 14  1  0
 10 15  1  0
 15 16  2  0
  2 17  1  0
 17 18  1  0
 18 19  1  0
 18 20  1  0
 16  7  1  0
  1 21  1  0
  1 22  1  0
  1 23  1  0
  2 24  1  0
  3 25  1  0
  3 26  1  0
  4 27  1  0
  8 28  1  0
  9 29  1  0
 12 30  1  0
 12 31  1  0
 12 32  1  0
 13 33  1  0
 13 34  1  0
 13 35  1  0
 14 36  1  0
 14 37  1  0
 14 38  1  0
 15 39  1  0
 16 40  1  0
 17 41  1  0
 17 42  1  0
 19 43  1  0
 19 44  1  0
 19 45  1  0
 20 46  1  0
 20 47  1  0
 20 48  1  0
M  END
$$$$
