
     RDKit          3D

 40 43  0  0  0  0  0  0  0  0999 V2000
    8.0381    1.4386    0.6923 C   0  0  0  0  0  0  0  0  0  0  0  0
    6.7373    0.7864    0.3742 C   0  0  0  0  0  0  0  0  0  0  0  0
    6.6050   -0.4773    0.0371 N   0  0  0  0  0  0  0  0  0  0  0  0
    5.2727   -0.7633   -0.2117 C   0  0  0  0  0  0  0  0  0  0  0  0
    4.7557   -2.0087   -0.6114 C   0  0  0  0  0  0  0  0  0  0  0  0
    3.3793   -2.1558   -0.8234 C   0  0  0  0  0  0  0  0  0  0  0  0
    2.5009   -1.0808   -0.6517 C   0  0  0  0  0  0  0  0  0  0  0  0
    1.1326   -1.3354   -0.8937 N   0  0  0  0  0  0  0  0  0  0  0  0
    0.0809   -0.4309   -0.8302 C   0  0  0  0  0  0  0  0  0  0  0  0
    0.1848    0.7725   -0.6141 O   0  0  0  0  0  0  0  0  0  0  0  0
   -1.2669   -1.0996   -1.0990 C   0  0  0  0  0  0  0  0  0  0  0  0
   -2.4430   -0.4784   -0.3784 C   0  0  0  0  0  0  0  0  0  0  0  0
   -2.3911   -0.2068    0.9975 C   0  0  0  0  0  0  0  0  0  0  0  0
   -3.4947    0.3384    1.6577 C   0  0  0  0  0  0  0  0  0  0  0  0
   -4.6678    0.5976    0.9550 C   0  0  0  0  0  0  0  0  0  0  0  0
   -4.7315    0.3348   -0.4151 C   0  0  0  0  0  0  0  0  0  0  0  0
   -3.6326   -0.2166   -1.0753 C   0  0  0  0  0  0  0  0  0  0  0  0
   -5.8475    0.5790   -1.1737 O   0  0  0  0  0  0  0  0  0  0  0  0
   -6.7522    1.4582   -0.4949 C   0  0  0  0  0  0  0  0  0  0  0  0
   -6.9442    1.0188    0.9473 C   0  0  0  0  0  0  0  0  0  0  0  0
   -5.7160    1.1150    1.6746 O   0  0  0  0  0  0  0  0  0  0  0  0
    3.0022    0.1649   -0.2557 C   0  0  0  0  0  0  0  0  0  0  0  0
    4.3896    0.3015   -0.0435 C   0  0  0  0  0  0  0  0  0  0  0  0
    5.2841    1.6990    0.4268 S   0  0  0  0  0  0  0  0  0  0  0  0
    7.9774    2.0125    1.6241 H   0  0  0  0  0  0  0  0  0  0  0  0
    8.3344    2.1118   -0.1195 H   0  0  0  0  0  0  0  0  0  0  0  0
    8.8258    0.6848    0.8128 H   0  0  0  0  0  0  0  0  0  0  0  0
    5.4316   -2.8435   -0.7608 H   0  0  0  0  0  0  0  0  0  0  0  0
    3.0130   -3.1319   -1.1330 H   0  0  0  0  0  0  0  0  0  0  0  0
    0.9019   -2.2858   -1.1528 H   0  0  0  0  0  0  0  0  0  0  0  0
   -1.2264   -2.1574   -0.8125 H   0  0  0  0  0  0  0  0  0  0  0  0
   -1.4207   -1.0587   -2.1837 H   0  0  0  0  0  0  0  0  0  0  0  0
   -1.4838   -0.3999    1.5669 H   0  0  0  0  0  0  0  0  0  0  0  0
   -3.4367    0.5574    2.7207 H   0  0  0  0  0  0  0  0  0  0  0  0
   -3.7113   -0.4270   -2.1394 H   0  0  0  0  0  0  0  0  0  0  0  0
   -7.7076    1.4303   -1.0316 H   0  0  0  0  0  0  0  0  0  0  0  0
   -6.3573    2.4799   -0.5551 H   0  0  0  0  0  0  0  0  0  0  0  0
   -7.3029   -0.0156    1.0051 H   0  0  0  0  0  0  0  0  0  0  0  0
   -7.6761    1.6629    1.4466 H   0  0  0  0  0  0  0  0  0  0  0  0
    2.3630    1.0288   -0.1112 H   0  0  0  0  0  0  0  0  0  0  0  0
  1  2  1  0
  2  3  2  0
  3  4  1  0
  4  5  2  0
  5  6  1  0
  6  7  2  0
  7  8  1  0
  8  9  1  0
  9 10  2  0
  9 11  1  0
 11 12  1  0
 12 13  2  0
 13 14  1  0
 14 15  2  0
 15 16  1  0
 16 17  2  0
 16 18  1  0
 18 19  1  0
 19 20  1  0
 20 21  1  0
  7 22  1  0
 22 23  2  0
 23 24  1  0
 24  2  1  0
 23  4  1  0
 17 12  1  0
 21 15  1  0
  1 25  1  0
  1 26  1  0
  1 27  1  0
  5 28  1  0
  6 29  1  0
  8 30  1  0
 11 31  1  0
 11 32  1  0
 13 33  1  0
 14 34  1  0
 17 35  1  0
 19 36  1  0
 19 37  1  0
 20 38  1  0
 20 39  1  0
 22 40  1  0
M  END
$$$$
