
     RDKit          3D

 58 60  0  0  0  0  0  0  0  0999 V2000
    8.7115    1.5963    0.9574 C   0  0  0  0  0  0  0  0  0  0  0  0
    8.6050    0.4447   -0.0290 C   0  0  0  0  0  0  0  0  0  0  0  0
    7.3874   -0.4489    0.1991 C   0  0  0  0  0  0  0  0  0  0  0  0
    6.0536    0.2869    0.0933 C   0  0  0  0  0  0  0  0  0  0  0  0
    5.0168   -0.6940    0.0796 O   0  0  0  0  0  0  0  0  0  0  0  0
    3.7430   -0.2485   -0.1308 C   0  0  0  0  0  0  0  0  0  0  0  0
    3.3213    1.0790   -0.0684 C   0  0  0  0  0  0  0  0  0  0  0  0
    1.9808    1.4049   -0.3133 C   0  0  0  0  0  0  0  0  0  0  0  0
    1.0518    0.3998   -0.6190 C   0  0  0  0  0  0  0  0  0  0  0  0
   -0.3698    0.7772   -0.8833 C   0  0  0  0  0  0  0  0  0  0  0  0
   -0.7181    1.9489   -0.8002 O   0  0  0  0  0  0  0  0  0  0  0  0
   -1.2046   -0.2484   -1.2586 N   0  0  0  0  0  0  0  0  0  0  0  0
   -2.4271   -0.2273   -0.8122 C   0  0  0  0  0  0  0  0  0  0  0  0
   -3.3972   -1.3125   -1.2080 C   0  0  0  0  0  0  0  0  0  0  0  0
   -3.4056   -2.4456   -0.2104 C   0  0  0  0  0  0  0  0  0  0  0  0
   -2.4266   -3.4477   -0.2767 C   0  0  0  0  0  0  0  0  0  0  0  0
   -2.4047   -4.4840    0.6590 C   0  0  0  0  0  0  0  0  0  0  0  0
   -3.3665   -4.5169    1.6730 C   0  0  0  0  0  0  0  0  0  0  0  0
   -3.3483   -5.6041    2.6596 N   0  0  0  0  0  4  0  0  0  0  0  0
   -2.4244   -6.4276    2.5950 O   0  0  0  0  0  0  0  0  0  0  0  0
   -4.2609   -5.6390    3.4947 O   0  0  0  0  0  1  0  0  0  0  0  0
   -4.3459   -3.5195    1.7562 C   0  0  0  0  0  0  0  0  0  0  0  0
   -4.3602   -2.4863    0.8152 C   0  0  0  0  0  0  0  0  0  0  0  0
   -2.9794    0.8004    0.1568 C   0  0  0  0  0  0  0  0  0  0  0  0
   -2.7289    0.7721    1.3461 O   0  0  0  0  0  0  0  0  0  0  0  0
   -3.7912    1.6389   -0.5152 O   0  0  0  0  0  0  0  0  0  0  0  0
   -4.3188    2.6784    0.3116 C   0  0  0  0  0  0  0  0  0  0  0  0
   -5.2117    3.5030   -0.5396 C   0  0  0  0  0  0  0  0  0  0  0  0
   -5.9904    3.2424   -1.6505 C   0  0  0  0  0  0  0  0  0  0  0  0
   -6.6215    4.4619   -1.9916 C   0  0  0  0  0  0  0  0  0  0  0  0
   -6.1965    5.3862   -1.0649 C   0  0  0  0  0  0  0  0  0  0  0  0
   -5.3446    4.8135   -0.1772 O   0  0  0  0  0  0  0  0  0  0  0  0
    1.4718   -0.9348   -0.6529 C   0  0  0  0  0  0  0  0  0  0  0  0
    2.8107   -1.2511   -0.4090 C   0  0  0  0  0  0  0  0  0  0  0  0
    8.6892    1.2386    1.9900 H   0  0  0  0  0  0  0  0  0  0  0  0
    9.6515    2.1327    0.8039 H   0  0  0  0  0  0  0  0  0  0  0  0
    7.8956    2.3130    0.8236 H   0  0  0  0  0  0  0  0  0  0  0  0
    9.5080   -0.1702    0.0508 H   0  0  0  0  0  0  0  0  0  0  0  0
    8.5845    0.8441   -1.0494 H   0  0  0  0  0  0  0  0  0  0  0  0
    7.4072   -1.2734   -0.5287 H   0  0  0  0  0  0  0  0  0  0  0  0
    7.4547   -0.9259    1.1850 H   0  0  0  0  0  0  0  0  0  0  0  0
    5.9283    0.9425    0.9605 H   0  0  0  0  0  0  0  0  0  0  0  0
    6.0279    0.8820   -0.8299 H   0  0  0  0  0  0  0  0  0  0  0  0
    4.0024    1.8873    0.1764 H   0  0  0  0  0  0  0  0  0  0  0  0
    1.6674    2.4470   -0.2751 H   0  0  0  0  0  0  0  0  0  0  0  0
   -4.4040   -0.8914   -1.3147 H   0  0  0  0  0  0  0  0  0  0  0  0
   -3.1199   -1.6962   -2.1975 H   0  0  0  0  0  0  0  0  0  0  0  0
   -1.6702   -3.4229   -1.0577 H   0  0  0  0  0  0  0  0  0  0  0  0
   -1.6347   -5.2505    0.5843 H   0  0  0  0  0  0  0  0  0  0  0  0
   -5.0939   -3.5273    2.5463 H   0  0  0  0  0  0  0  0  0  0  0  0
   -5.1209   -1.7122    0.8966 H   0  0  0  0  0  0  0  0  0  0  0  0
   -3.4999    3.2882    0.7106 H   0  0  0  0  0  0  0  0  0  0  0  0
   -4.9037    2.2469    1.1332 H   0  0  0  0  0  0  0  0  0  0  0  0
   -6.0853    2.2892   -2.1525 H   0  0  0  0  0  0  0  0  0  0  0  0
   -7.3023    4.6457   -2.8096 H   0  0  0  0  0  0  0  0  0  0  0  0
   -6.3989    6.4394   -0.9064 H   0  0  0  0  0  0  0  0  0  0  0  0
    0.7721   -1.7361   -0.8728 H   0  0  0  0  0  0  0  0  0  0  0  0
    3.1342   -2.2886   -0.4525 H   0  0  0  0  0  0  0  0  0  0  0  0
  1  2  1  0
  2  3  1  0
  3  4  1  0
  4  5  1  0
  5  6  1  0
  6  7  2  0
  7  8  1  0
  8  9  2  0
  9 10  1  0
 10 11  2  0
 10 12  1  0
 12 13  2  3
 13 14  1  0
 14 15  1  0
 15 16  2  0
 16 17  1  0
 17 18  2  0
 18 19  1  0
 19 20  2  0
 19 21  1  0
 18 22  1  0
 22 23  2  0
 13 24  1  0
 24 25  2  0
 24 26  1  0
 26 27  1  0
 27 28  1  0
 28 29  2  0
 29 30  1  0
 30 31  2  0
 31 32  1  0
  9 33  1  0
 33 34  2  0
 34  6  1  0
 23 15  1  0
 32 28  1  0
  1 35  1  0
  1 36  1  0
  1 37  1  0
  2 38  1  0
  2 39  1  0
  3 40  1  0
  3 41  1  0
  4 42  1  0
  4 43  1  0
  7 44  1  0
  8 45  1  0
 14 46  1  0
 14 47  1  0
 16 48  1  0
 17 49  1  0
 22 50  1  0
 23 51  1  0
 27 52  1  0
 27 53  1  0
 29 54  1  0
 30 55  1  0
 31 56  1  0
 33 57  1  0
 34 58  1  0
M  CHG  2  19   1  21  -1
M  END
$$$$
