
     RDKit          3D

 49 52  0  0  0  0  0  0  0  0999 V2000
   -0.7472    5.5025   -1.2097 C   0  0  0  0  0  0  0  0  0  0  0  0
   -0.8444    4.2011   -0.4698 C   0  0  0  0  0  0  0  0  0  0  0  0
   -1.3029    4.1717    0.8511 C   0  0  0  0  0  0  0  0  0  0  0  0
   -1.4231    2.9596    1.5287 C   0  0  0  0  0  0  0  0  0  0  0  0
   -1.0951    1.7643    0.8897 C   0  0  0  0  0  0  0  0  0  0  0  0
   -0.6383    1.7640   -0.4370 C   0  0  0  0  0  0  0  0  0  0  0  0
   -0.3034    0.4767   -1.1759 C   0  0  0  0  0  0  0  0  0  0  0  0
   -1.5691   -0.1786   -1.7315 C   0  0  0  0  0  0  0  0  0  0  0  0
   -1.6445   -1.4038   -0.8629 C   0  0  0  0  0  0  0  0  0  0  0  0
   -2.8126   -2.3150   -0.8984 C   0  0  0  0  0  0  0  0  0  0  0  0
   -2.8503   -3.4033   -0.0176 C   0  0  0  0  0  0  0  0  0  0  0  0
   -3.9375   -4.2791   -0.0266 C   0  0  0  0  0  0  0  0  0  0  0  0
   -4.9909   -4.0726   -0.9153 C   0  0  0  0  0  0  0  0  0  0  0  0
   -4.9587   -2.9920   -1.7959 C   0  0  0  0  0  0  0  0  0  0  0  0
   -3.8721   -2.1130   -1.7900 C   0  0  0  0  0  0  0  0  0  0  0  0
   -0.6047   -1.6115   -0.1129 N   0  0  0  0  0  0  0  0  0  0  0  0
    0.2544   -0.5686   -0.3136 N   0  0  0  0  0  0  0  0  0  0  0  0
    1.5331   -0.5811    0.2401 C   0  0  0  0  0  0  0  0  0  0  0  0
    2.4621    0.4498    0.0183 C   0  0  0  0  0  0  0  0  0  0  0  0
    3.7445    0.4197    0.5803 C   0  0  0  0  0  0  0  0  0  0  0  0
    4.1212   -0.6594    1.3775 C   0  0  0  0  0  0  0  0  0  0  0  0
    5.7439   -0.7029    2.0848 S   0  0  0  0  0  6  0  0  0  0  0  0
    6.6061   -1.5164    0.8861 N   0  0  0  0  0  0  0  0  0  0  0  0
    6.2545    0.6452    2.1573 O   0  0  0  0  0  0  0  0  0  0  0  0
    5.7294   -1.5921    3.2236 O   0  0  0  0  0  0  0  0  0  0  0  0
    3.2237   -1.6918    1.6347 C   0  0  0  0  0  0  0  0  0  0  0  0
    1.9477   -1.6460    1.0633 C   0  0  0  0  0  0  0  0  0  0  0  0
   -0.5301    2.9942   -1.1103 C   0  0  0  0  0  0  0  0  0  0  0  0
   -1.6901    5.7115   -1.7242 H   0  0  0  0  0  0  0  0  0  0  0  0
   -0.5279    6.3273   -0.5235 H   0  0  0  0  0  0  0  0  0  0  0  0
    0.0608    5.4719   -1.9483 H   0  0  0  0  0  0  0  0  0  0  0  0
   -1.5670    5.0943    1.3631 H   0  0  0  0  0  0  0  0  0  0  0  0
   -1.7718    2.9439    2.5582 H   0  0  0  0  0  0  0  0  0  0  0  0
   -1.1920    0.8283    1.4383 H   0  0  0  0  0  0  0  0  0  0  0  0
    0.3853    0.6912   -2.0031 H   0  0  0  0  0  0  0  0  0  0  0  0
   -2.4674    0.4394   -1.6501 H   0  0  0  0  0  0  0  0  0  0  0  0
   -1.4241   -0.4930   -2.7707 H   0  0  0  0  0  0  0  0  0  0  0  0
   -2.0346   -3.5749    0.6819 H   0  0  0  0  0  0  0  0  0  0  0  0
   -3.9607   -5.1211    0.6608 H   0  0  0  0  0  0  0  0  0  0  0  0
   -5.8375   -4.7549   -0.9215 H   0  0  0  0  0  0  0  0  0  0  0  0
   -5.7819   -2.8342   -2.4886 H   0  0  0  0  0  0  0  0  0  0  0  0
   -3.8759   -1.2835   -2.4903 H   0  0  0  0  0  0  0  0  0  0  0  0
    2.2020    1.3106   -0.5909 H   0  0  0  0  0  0  0  0  0  0  0  0
    4.4319    1.2427    0.3948 H   0  0  0  0  0  0  0  0  0  0  0  0
    6.9287   -2.4081    1.2656 H   0  0  0  0  0  0  0  0  0  0  0  0
    6.0707   -1.6412    0.0275 H   0  0  0  0  0  0  0  0  0  0  0  0
    3.4944   -2.5285    2.2741 H   0  0  0  0  0  0  0  0  0  0  0  0
    1.2552   -2.4595    1.2732 H   0  0  0  0  0  0  0  0  0  0  0  0
   -0.1936    3.0162   -2.1454 H   0  0  0  0  0  0  0  0  0  0  0  0
  1  2  1  0
  2  3  2  0
  3  4  1  0
  4  5  2  0
  5  6  1  0
  6  7  1  0
  7  8  1  0
  8  9  1  0
  9 10  1  0
 10 11  2  0
 11 12  1  0
 12 13  2  0
 13 14  1  0
 14 15  2  0
  9 16  2  0
 16 17  1  0
 17 18  1  0
 18 19  2  0
 19 20  1  0
 20 21  2  0
 21 22  1  0
 22 23  1  0
 22 24  2  0
 22 25  2  0
 21 26  1  0
 26 27  2  0
  6 28  2  0
 28  2  1  0
 17  7  1  0
 27 18  1  0
 15 10  1  0
  1 29  1  0
  1 30  1  0
  1 31  1  0
  3 32  1  0
  4 33  1  0
  5 34  1  0
  7 35  1  0
  8 36  1  0
  8 37  1  0
 11 38  1  0
 12 39  1  0
 13 40  1  0
 14 41  1  0
 15 42  1  0
 19 43  1  0
 20 44  1  0
 23 45  1  0
 23 46  1  0
 26 47  1  0
 27 48  1  0
 28 49  1  0
M  END
$$$$
