
     RDKit          3D

 39 41  0  0  0  0  0  0  0  0999 V2000
   -5.9372    0.3499   -2.0449 O   0  0  0  0  0  0  0  0  0  0  0  0
   -4.8752   -0.0798   -1.6347 C   0  0  0  0  0  0  0  0  0  0  0  0
   -3.8500   -0.3414   -2.4732 O   0  0  0  0  0  0  0  0  0  0  0  0
   -4.5574   -0.4903   -0.2499 C   0  0  0  0  0  0  0  0  0  0  0  0
   -5.4869   -1.2909    0.3589 N   0  0  0  0  0  0  0  0  0  0  0  0
   -5.1704   -1.7135    1.6030 C   0  0  0  0  0  0  0  0  0  0  0  0
   -3.9783   -1.3746    2.2214 C   0  0  0  0  0  0  0  0  0  0  0  0
   -3.0509   -0.5864    1.6302 N   0  0  0  0  0  0  0  0  0  0  0  0
   -3.3688   -0.1380    0.3740 C   0  0  0  0  0  0  0  0  0  0  0  0
   -2.4378    0.8492   -0.2375 C   0  0  0  0  0  0  0  0  0  0  0  0
   -2.9222    1.8466   -0.7723 O   0  0  0  0  0  0  0  0  0  0  0  0
   -1.0620    0.6378   -0.1606 N   0  0  0  0  0  0  0  0  0  0  0  0
   -0.4264   -0.5942    0.3224 C   0  0  0  0  0  0  0  0  0  0  0  0
    0.9734   -0.8318   -0.2785 C   0  0  0  0  0  0  0  0  0  0  0  0
    1.8570    0.3261   -0.0731 N   0  0  0  0  0  0  0  0  0  0  0  0
    3.2374    0.1936   -0.0624 C   0  0  0  0  0  0  0  0  0  0  0  0
    3.8826   -0.9323   -0.6007 C   0  0  0  0  0  0  0  0  0  0  0  0
    5.2769   -1.0679   -0.5886 C   0  0  0  0  0  0  0  0  0  0  0  0
    6.0693   -0.0734   -0.0298 C   0  0  0  0  0  0  0  0  0  0  0  0
    5.4647    1.0522    0.5146 C   0  0  0  0  0  0  0  0  0  0  0  0
    4.0698    1.1787    0.4960 C   0  0  0  0  0  0  0  0  0  0  0  0
    1.2216    1.6538    0.0117 C   0  0  0  0  0  0  0  0  0  0  0  0
   -0.1600    1.6731   -0.6665 C   0  0  0  0  0  0  0  0  0  0  0  0
   -4.1764   -0.0151   -3.3396 H   0  0  0  0  0  0  0  0  0  0  0  0
   -5.9067   -2.3410    2.0941 H   0  0  0  0  0  0  0  0  0  0  0  0
   -3.7395   -1.7251    3.2201 H   0  0  0  0  0  0  0  0  0  0  0  0
   -1.0653   -1.4541    0.0979 H   0  0  0  0  0  0  0  0  0  0  0  0
   -0.3436   -0.5003    1.4118 H   0  0  0  0  0  0  0  0  0  0  0  0
    0.8824   -1.0252   -1.3543 H   0  0  0  0  0  0  0  0  0  0  0  0
    1.3850   -1.7296    0.1980 H   0  0  0  0  0  0  0  0  0  0  0  0
    3.3094   -1.7271   -1.0688 H   0  0  0  0  0  0  0  0  0  0  0  0
    5.7374   -1.9515   -1.0221 H   0  0  0  0  0  0  0  0  0  0  0  0
    7.1506   -0.1751   -0.0180 H   0  0  0  0  0  0  0  0  0  0  0  0
    6.0718    1.8350    0.9611 H   0  0  0  0  0  0  0  0  0  0  0  0
    3.6425    2.0653    0.9561 H   0  0  0  0  0  0  0  0  0  0  0  0
    1.8377    2.4173   -0.4783 H   0  0  0  0  0  0  0  0  0  0  0  0
    1.1137    1.9258    1.0687 H   0  0  0  0  0  0  0  0  0  0  0  0
   -0.0497    1.4941   -1.7433 H   0  0  0  0  0  0  0  0  0  0  0  0
   -0.6186    2.6603   -0.5431 H   0  0  0  0  0  0  0  0  0  0  0  0
  1  2  2  0
  2  3  1  0
  2  4  1  0
  4  5  2  0
  5  6  1  0
  6  7  2  0
  7  8  1  0
  8  9  2  0
  9 10  1  0
 10 11  2  0
 10 12  1  0
 12 13  1  0
 13 14  1  0
 14 15  1  0
 15 16  1  0
 16 17  2  0
 17 18  1  0
 18 19  2  0
 19 20  1  0
 20 21  2  0
 15 22  1  0
 22 23  1  0
  9  4  1  0
 23 12  1  0
 21 16  1  0
  3 24  1  0
  6 25  1  0
  7 26  1  0
 13 27  1  0
 13 28  1  0
 14 29  1  0
 14 30  1  0
 17 31  1  0
 18 32  1  0
 19 33  1  0
 20 34  1  0
 21 35  1  0
 22 36  1  0
 22 37  1  0
 23 38  1  0
 23 39  1  0
M  END
$$$$
