
     RDKit          3D

 41 44  0  0  0  0  0  0  0  0999 V2000
   -4.4947   -0.2859    2.6185 C   0  0  0  0  0  0  0  0  0  0  0  0
   -4.0340   -0.4943    1.2898 O   0  0  0  0  0  0  0  0  0  0  0  0
   -4.5683    0.2992    0.3057 C   0  0  0  0  0  0  0  0  0  0  0  0
   -5.5758    1.2483    0.5064 C   0  0  0  0  0  0  0  0  0  0  0  0
   -6.0592    2.0050   -0.5654 C   0  0  0  0  0  0  0  0  0  0  0  0
   -5.5435    1.8198   -1.8455 C   0  0  0  0  0  0  0  0  0  0  0  0
   -4.5403    0.8764   -2.0594 C   0  0  0  0  0  0  0  0  0  0  0  0
   -4.0473    0.1151   -0.9907 C   0  0  0  0  0  0  0  0  0  0  0  0
   -2.9836   -0.8611   -1.2621 C   0  0  0  0  0  0  0  0  0  0  0  0
   -1.6803   -0.6579   -1.0275 C   0  0  0  0  0  0  0  0  0  0  0  0
   -0.9356    0.7962   -0.3857 S   0  0  0  0  0  0  0  0  0  0  0  0
    0.5974    0.0349   -0.4712 C   0  0  0  0  0  0  0  0  0  0  0  0
    1.8186    0.3727   -0.1802 N   0  0  0  0  0  0  0  0  0  0  0  0
    2.5315   -0.7673   -0.5444 C   0  0  0  0  0  0  0  0  0  0  0  0
    3.9822   -0.8783   -0.3935 C   0  0  0  0  0  0  0  0  0  0  0  0
    4.5582   -2.1488   -0.2090 C   0  0  0  0  0  0  0  0  0  0  0  0
    5.9398   -2.3005   -0.0584 C   0  0  0  0  0  0  0  0  0  0  0  0
    6.7713   -1.1850   -0.1016 C   0  0  0  0  0  0  0  0  0  0  0  0
    6.2219    0.0811   -0.2933 C   0  0  0  0  0  0  0  0  0  0  0  0
    4.8354    0.2365   -0.4216 C   0  0  0  0  0  0  0  0  0  0  0  0
    4.3553    1.4959   -0.6803 O   0  0  0  0  0  0  0  0  0  0  0  0
    4.2981    2.2646    0.5220 C   0  0  0  0  0  0  0  0  0  0  0  0
    1.7594   -1.7823   -1.0016 N   0  0  0  0  0  0  0  0  0  0  0  0
    0.5405   -1.2195   -0.9544 N   0  0  0  0  0  0  0  0  0  0  0  0
   -0.6857   -1.7361   -1.3119 C   0  0  0  0  0  0  0  0  0  0  0  0
   -0.8543   -2.8538   -1.7650 O   0  0  0  0  0  0  0  0  0  0  0  0
   -4.2812    0.7338    2.9560 H   0  0  0  0  0  0  0  0  0  0  0  0
   -5.5608   -0.5191    2.7068 H   0  0  0  0  0  0  0  0  0  0  0  0
   -3.9494   -0.9734    3.2726 H   0  0  0  0  0  0  0  0  0  0  0  0
   -6.0101    1.4246    1.4847 H   0  0  0  0  0  0  0  0  0  0  0  0
   -6.8421    2.7411   -0.3985 H   0  0  0  0  0  0  0  0  0  0  0  0
   -5.9214    2.4107   -2.6763 H   0  0  0  0  0  0  0  0  0  0  0  0
   -4.1440    0.7420   -3.0634 H   0  0  0  0  0  0  0  0  0  0  0  0
   -3.3318   -1.8118   -1.6618 H   0  0  0  0  0  0  0  0  0  0  0  0
    3.9276   -3.0366   -0.1837 H   0  0  0  0  0  0  0  0  0  0  0  0
    6.3634   -3.2920    0.0813 H   0  0  0  0  0  0  0  0  0  0  0  0
    7.8472   -1.3022   -0.0011 H   0  0  0  0  0  0  0  0  0  0  0  0
    6.8743    0.9474   -0.3596 H   0  0  0  0  0  0  0  0  0  0  0  0
    3.8137    1.7159    1.3379 H   0  0  0  0  0  0  0  0  0  0  0  0
    3.7062    3.1618    0.3179 H   0  0  0  0  0  0  0  0  0  0  0  0
    5.3016    2.5828    0.8237 H   0  0  0  0  0  0  0  0  0  0  0  0
  1  2  1  0
  2  3  1  0
  3  4  2  0
  4  5  1  0
  5  6  2  0
  6  7  1  0
  7  8  2  0
  8  9  1  0
  9 10  2  3
 10 11  1  0
 11 12  1  0
 12 13  2  0
 13 14  1  0
 14 15  1  0
 15 16  2  0
 16 17  1  0
 17 18  2  0
 18 19  1  0
 19 20  2  0
 20 21  1  0
 21 22  1  0
 14 23  2  0
 23 24  1  0
 24 25  1  0
 25 26  2  0
  8  3  1  0
 25 10  1  0
 24 12  1  0
 20 15  1  0
  1 27  1  0
  1 28  1  0
  1 29  1  0
  4 30  1  0
  5 31  1  0
  6 32  1  0
  7 33  1  0
  9 34  1  0
 16 35  1  0
 17 36  1  0
 18 37  1  0
 19 38  1  0
 22 39  1  0
 22 40  1  0
 22 41  1  0
M  END
$$$$
