
     RDKit          3D

 46 47  0  0  0  0  0  0  0  0999 V2000
   -0.1060   -2.8870    2.9671 C   0  0  0  0  0  0  0  0  0  0  0  0
    0.3526   -2.7598    1.5270 C   0  0  0  0  0  0  0  0  0  0  0  0
    0.6387   -1.3854    1.2193 O   0  0  0  0  0  0  0  0  0  0  0  0
    1.9008   -0.9615    1.5202 C   0  0  0  0  0  0  0  0  0  0  0  0
    2.7826   -1.6911    1.9572 O   0  0  0  0  0  0  0  0  0  0  0  0
    2.1215    0.4439    1.1786 C   0  0  0  0  0  0  0  0  0  0  0  0
    3.3561    0.9725    0.8086 C   0  0  0  0  0  0  0  0  0  0  0  0
    4.6872    0.3182    0.6746 C   0  0  0  0  0  0  0  0  0  0  0  0
    3.1954    2.3106    0.5556 N   0  0  0  0  0  0  0  0  0  0  0  0
    1.8891    2.6784    0.7562 C   0  0  0  0  0  0  0  0  0  0  0  0
    1.4532    4.0873    0.5622 C   0  0  0  0  0  0  0  0  0  0  0  0
    1.1997    1.5446    1.1674 C   0  0  0  0  0  0  0  0  0  0  0  0
   -0.4756    1.4492    1.6349 S   0  0  0  0  0  6  0  0  0  0  0  0
   -0.4403    0.7575    2.9029 O   0  0  0  0  0  0  0  0  0  0  0  0
   -0.9997    2.7892    1.5009 O   0  0  0  0  0  0  0  0  0  0  0  0
   -1.2654    0.4660    0.5287 N   0  0  0  0  0  0  0  0  0  0  0  0
   -1.3574    0.9771   -0.8408 C   0  0  0  0  0  0  0  0  0  0  0  0
   -1.8198   -0.1146   -1.7822 C   0  0  0  0  0  0  0  0  0  0  0  0
   -0.8534   -0.8287   -2.5149 C   0  0  0  0  0  0  0  0  0  0  0  0
   -1.2259   -1.8629   -3.3725 C   0  0  0  0  0  0  0  0  0  0  0  0
   -2.5673   -2.2042   -3.5042 C   0  0  0  0  0  0  0  0  0  0  0  0
   -3.5366   -1.5160   -2.7747 C   0  0  0  0  0  0  0  0  0  0  0  0
   -3.1788   -0.4740   -1.9042 C   0  0  0  0  0  0  0  0  0  0  0  0
   -4.2561    0.2325   -1.1261 C   0  0  0  0  0  0  0  0  0  0  0  0
    0.6784   -2.5654    3.6594 H   0  0  0  0  0  0  0  0  0  0  0  0
   -0.3749   -3.9214    3.1986 H   0  0  0  0  0  0  0  0  0  0  0  0
   -0.9753   -2.2471    3.1510 H   0  0  0  0  0  0  0  0  0  0  0  0
   -0.4534   -3.0742    0.8556 H   0  0  0  0  0  0  0  0  0  0  0  0
    1.2130   -3.4055    1.3183 H   0  0  0  0  0  0  0  0  0  0  0  0
    5.4216    0.9905    0.2190 H   0  0  0  0  0  0  0  0  0  0  0  0
    5.0650    0.0210    1.6580 H   0  0  0  0  0  0  0  0  0  0  0  0
    4.6148   -0.5736    0.0440 H   0  0  0  0  0  0  0  0  0  0  0  0
    3.9387    2.9403    0.2768 H   0  0  0  0  0  0  0  0  0  0  0  0
    0.6435    4.1409   -0.1722 H   0  0  0  0  0  0  0  0  0  0  0  0
    1.1052    4.5155    1.5073 H   0  0  0  0  0  0  0  0  0  0  0  0
    2.2733    4.7138    0.1956 H   0  0  0  0  0  0  0  0  0  0  0  0
   -0.8972   -0.4855    0.5907 H   0  0  0  0  0  0  0  0  0  0  0  0
   -2.0432    1.8295   -0.8839 H   0  0  0  0  0  0  0  0  0  0  0  0
   -0.3810    1.3405   -1.1809 H   0  0  0  0  0  0  0  0  0  0  0  0
    0.2022   -0.5812   -2.4211 H   0  0  0  0  0  0  0  0  0  0  0  0
   -0.4698   -2.4025   -3.9368 H   0  0  0  0  0  0  0  0  0  0  0  0
   -2.8617   -3.0093   -4.1724 H   0  0  0  0  0  0  0  0  0  0  0  0
   -4.5803   -1.8031   -2.8874 H   0  0  0  0  0  0  0  0  0  0  0  0
   -4.0646    0.1602   -0.0512 H   0  0  0  0  0  0  0  0  0  0  0  0
   -5.2406   -0.2105   -1.3113 H   0  0  0  0  0  0  0  0  0  0  0  0
   -4.3086    1.2853   -1.4206 H   0  0  0  0  0  0  0  0  0  0  0  0
  1  2  1  0
  2  3  1  0
  3  4  1  0
  4  5  2  0
  4  6  1  0
  6  7  2  0
  7  8  1  0
  7  9  1  0
  9 10  1  0
 10 11  1  0
 10 12  2  0
 12 13  1  0
 13 14  2  0
 13 15  2  0
 13 16  1  0
 16 17  1  0
 17 18  1  0
 18 19  2  0
 19 20  1  0
 20 21  2  0
 21 22  1  0
 22 23  2  0
 23 24  1  0
 12  6  1  0
 23 18  1  0
  1 25  1  0
  1 26  1  0
  1 27  1  0
  2 28  1  0
  2 29  1  0
  8 30  1  0
  8 31  1  0
  8 32  1  0
  9 33  1  0
 11 34  1  0
 11 35  1  0
 11 36  1  0
 16 37  1  0
 17 38  1  0
 17 39  1  0
 19 40  1  0
 20 41  1  0
 21 42  1  0
 22 43  1  0
 24 44  1  0
 24 45  1  0
 24 46  1  0
M  END
$$$$
