
     RDKit          3D

 45 48  0  0  0  0  0  0  0  0999 V2000
    4.7204   -0.5999   -1.0322 O   0  0  0  0  0  0  0  0  0  0  0  0
    3.5810   -0.1585   -0.9274 C   0  0  0  0  0  0  0  0  0  0  0  0
    2.4033   -0.8732   -1.0394 N   0  0  0  0  0  0  0  0  0  0  0  0
    2.2379   -2.2635   -1.2861 C   0  0  0  0  0  0  0  0  0  0  0  0
    3.3302   -3.1137   -1.4985 C   0  0  0  0  0  0  0  0  0  0  0  0
    3.1497   -4.4829   -1.7174 C   0  0  0  0  0  0  0  0  0  0  0  0
    1.8731   -5.0272   -1.7298 C   0  0  0  0  0  0  0  0  0  0  0  0
    0.7724   -4.2008   -1.5217 C   0  0  0  0  0  0  0  0  0  0  0  0
    0.9318   -2.8167   -1.2987 C   0  0  0  0  0  0  0  0  0  0  0  0
   -0.2512   -1.9858   -1.0951 C   0  0  0  0  0  0  0  0  0  0  0  0
   -0.3908   -0.6769   -1.1877 N   0  0  0  0  0  0  0  0  0  0  0  0
   -1.7068   -0.4059   -0.8895 N   0  0  0  0  0  0  0  0  0  0  0  0
   -2.2831   -1.5578   -0.6131 C   0  0  0  0  0  0  0  0  0  0  0  0
   -3.9472   -1.7801   -0.1786 S   0  0  0  0  0  0  0  0  0  0  0  0
   -4.6080   -0.1076   -0.4025 C   0  0  0  0  0  0  0  0  0  0  0  0
   -4.4027    0.7864    0.8025 C   0  0  0  0  0  0  0  0  0  0  0  0
   -3.5046    1.8644    0.7458 C   0  0  0  0  0  0  0  0  0  0  0  0
   -3.3308    2.7085    1.8468 C   0  0  0  0  0  0  0  0  0  0  0  0
   -4.0492    2.4772    3.0154 C   0  0  0  0  0  0  0  0  0  0  0  0
   -3.8501    3.5279    4.3596 Cl  0  0  0  0  0  0  0  0  0  0  0  0
   -4.9366    1.4067    3.0952 C   0  0  0  0  0  0  0  0  0  0  0  0
   -5.1145    0.5644    1.9911 C   0  0  0  0  0  0  0  0  0  0  0  0
   -1.4110   -2.6118   -0.7259 O   0  0  0  0  0  0  0  0  0  0  0  0
    3.4125    1.2908   -0.6025 C   0  0  0  0  0  0  0  0  0  0  0  0
    2.3306    2.0488   -1.0758 C   0  0  0  0  0  0  0  0  0  0  0  0
    2.2178    3.3981   -0.7262 C   0  0  0  0  0  0  0  0  0  0  0  0
    3.1831    3.9959    0.0859 C   0  0  0  0  0  0  0  0  0  0  0  0
    4.2699    3.2508    0.5453 C   0  0  0  0  0  0  0  0  0  0  0  0
    4.3877    1.9026    0.1972 C   0  0  0  0  0  0  0  0  0  0  0  0
    1.5439   -0.3564   -0.8684 H   0  0  0  0  0  0  0  0  0  0  0  0
    4.3502   -2.7423   -1.4981 H   0  0  0  0  0  0  0  0  0  0  0  0
    4.0165   -5.1206   -1.8736 H   0  0  0  0  0  0  0  0  0  0  0  0
    1.7342   -6.0925   -1.9031 H   0  0  0  0  0  0  0  0  0  0  0  0
   -0.2189   -4.6494   -1.5414 H   0  0  0  0  0  0  0  0  0  0  0  0
   -4.1965    0.3534   -1.3113 H   0  0  0  0  0  0  0  0  0  0  0  0
   -5.6838   -0.1974   -0.5860 H   0  0  0  0  0  0  0  0  0  0  0  0
   -2.9334    2.0569   -0.1587 H   0  0  0  0  0  0  0  0  0  0  0  0
   -2.6355    3.5414    1.7853 H   0  0  0  0  0  0  0  0  0  0  0  0
   -5.4942    1.2219    4.0083 H   0  0  0  0  0  0  0  0  0  0  0  0
   -5.8149   -0.2665    2.0646 H   0  0  0  0  0  0  0  0  0  0  0  0
    1.5801    1.6160   -1.7322 H   0  0  0  0  0  0  0  0  0  0  0  0
    1.3798    3.9871   -1.0934 H   0  0  0  0  0  0  0  0  0  0  0  0
    3.0926    5.0467    0.3559 H   0  0  0  0  0  0  0  0  0  0  0  0
    5.0263    3.7161    1.1751 H   0  0  0  0  0  0  0  0  0  0  0  0
    5.2392    1.3256    0.5564 H   0  0  0  0  0  0  0  0  0  0  0  0
  1  2  2  0
  2  3  1  0
  3  4  1  0
  4  5  2  0
  5  6  1  0
  6  7  2  0
  7  8  1  0
  8  9  2  0
  9 10  1  0
 10 11  2  0
 11 12  1  0
 12 13  2  0
 13 14  1  0
 14 15  1  0
 15 16  1  0
 16 17  2  0
 17 18  1  0
 18 19  2  0
 19 20  1  0
 19 21  1  0
 21 22  2  0
 13 23  1  0
  2 24  1  0
 24 25  2  0
 25 26  1  0
 26 27  2  0
 27 28  1  0
 28 29  2  0
  9  4  1  0
 23 10  1  0
 29 24  1  0
 22 16  1  0
  3 30  1  0
  5 31  1  0
  6 32  1  0
  7 33  1  0
  8 34  1  0
 15 35  1  0
 15 36  1  0
 17 37  1  0
 18 38  1  0
 21 39  1  0
 22 40  1  0
 25 41  1  0
 26 42  1  0
 27 43  1  0
 28 44  1  0
 29 45  1  0
M  END
$$$$
