
     RDKit          3D

 60 64  0  0  0  0  0  0  0  0999 V2000
    3.3170    0.4778   -2.4079 O   0  0  0  0  0  0  0  0  0  0  0  0
    2.9242    0.4396   -1.2495 C   0  0  0  0  0  0  0  0  0  0  0  0
    3.6936    0.3605   -0.1027 N   0  0  0  0  0  0  0  0  0  0  0  0
    5.1015    0.2873   -0.0241 C   0  0  0  0  0  0  0  0  0  0  0  0
    5.6686    0.2800    1.2564 C   0  0  0  0  0  0  0  0  0  0  0  0
    7.0566    0.2185    1.4228 C   0  0  0  0  0  0  0  0  0  0  0  0
    7.8975    0.1616    0.3086 C   0  0  0  0  0  0  0  0  0  0  0  0
    9.3695    0.1034    0.5040 C   0  0  0  0  0  0  0  0  0  0  0  0
    9.9046    0.2565    1.6915 N   0  0  0  0  0  0  0  0  0  0  0  0
   11.3706    0.1472    1.4629 C   0  0  0  0  0  0  0  0  0  0  0  0
   11.5438   -0.4215    0.0552 C   0  0  0  0  0  0  0  0  0  0  0  0
   10.2511   -0.1395   -0.5256 N   0  0  0  0  0  0  0  0  0  0  0  0
    7.3377    0.1701   -0.9712 C   0  0  0  0  0  0  0  0  0  0  0  0
    5.9460    0.2279   -1.1342 C   0  0  0  0  0  0  0  0  0  0  0  0
    1.4553    0.5117   -1.0169 C   0  0  0  0  0  0  0  0  0  0  0  0
    0.6902    1.3424   -1.8463 C   0  0  0  0  0  0  0  0  0  0  0  0
   -0.6927    1.4527   -1.6600 C   0  0  0  0  0  0  0  0  0  0  0  0
   -1.3385    0.7101   -0.6623 C   0  0  0  0  0  0  0  0  0  0  0  0
   -2.7895    0.9572   -0.4816 C   0  0  0  0  0  0  0  0  0  0  0  0
   -3.1307    2.1282   -0.3752 O   0  0  0  0  0  0  0  0  0  0  0  0
   -3.6032   -0.1549   -0.4867 N   0  0  0  0  0  0  0  0  0  0  0  0
   -5.0124   -0.1775   -0.3951 C   0  0  0  0  0  0  0  0  0  0  0  0
   -5.8122    0.9664   -0.3510 C   0  0  0  0  0  0  0  0  0  0  0  0
   -7.2074    0.8598   -0.2738 C   0  0  0  0  0  0  0  0  0  0  0  0
   -7.8153   -0.3968   -0.2372 C   0  0  0  0  0  0  0  0  0  0  0  0
   -9.2918   -0.5250   -0.1488 C   0  0  0  0  0  0  0  0  0  0  0  0
   -9.8920   -1.6720   -0.3541 N   0  0  0  0  0  0  0  0  0  0  0  0
  -11.3398   -1.3699   -0.1880 C   0  0  0  0  0  0  0  0  0  0  0  0
  -11.4151   -0.0021    0.4889 C   0  0  0  0  0  0  0  0  0  0  0  0
  -10.1083    0.5360    0.1818 N   0  0  0  0  0  0  0  0  0  0  0  0
   -7.0219   -1.5450   -0.2868 C   0  0  0  0  0  0  0  0  0  0  0  0
   -5.6294   -1.4342   -0.3634 C   0  0  0  0  0  0  0  0  0  0  0  0
   -0.5623   -0.1262    0.1438 C   0  0  0  0  0  0  0  0  0  0  0  0
   -1.1651   -0.8996    1.2005 N   0  0  0  0  0  4  0  0  0  0  0  0
   -0.8577   -0.6004    2.3583 O   0  0  0  0  0  0  0  0  0  0  0  0
   -1.9020   -1.8316    0.8545 O   0  0  0  0  0  1  0  0  0  0  0  0
    0.8283   -0.2396   -0.0186 C   0  0  0  0  0  0  0  0  0  0  0  0
    3.2195    0.4475    0.7867 H   0  0  0  0  0  0  0  0  0  0  0  0
    5.0470    0.3268    2.1466 H   0  0  0  0  0  0  0  0  0  0  0  0
    7.4782    0.2192    2.4254 H   0  0  0  0  0  0  0  0  0  0  0  0
   11.8290   -0.5052    2.2131 H   0  0  0  0  0  0  0  0  0  0  0  0
   11.8168    1.1428    1.5492 H   0  0  0  0  0  0  0  0  0  0  0  0
   12.3584    0.0574   -0.4939 H   0  0  0  0  0  0  0  0  0  0  0  0
   11.7145   -1.5028    0.0928 H   0  0  0  0  0  0  0  0  0  0  0  0
    9.9417   -0.7662   -1.2573 H   0  0  0  0  0  0  0  0  0  0  0  0
    7.9659    0.1543   -1.8571 H   0  0  0  0  0  0  0  0  0  0  0  0
    5.5588    0.2347   -2.1477 H   0  0  0  0  0  0  0  0  0  0  0  0
    1.1742    1.9213   -2.6330 H   0  0  0  0  0  0  0  0  0  0  0  0
   -1.2640    2.1326   -2.2915 H   0  0  0  0  0  0  0  0  0  0  0  0
   -3.1666   -1.0728   -0.5265 H   0  0  0  0  0  0  0  0  0  0  0  0
   -5.3855    1.9643   -0.3890 H   0  0  0  0  0  0  0  0  0  0  0  0
   -7.8011    1.7689   -0.2675 H   0  0  0  0  0  0  0  0  0  0  0  0
  -11.8273   -2.1420    0.4137 H   0  0  0  0  0  0  0  0  0  0  0  0
  -11.8126   -1.3485   -1.1760 H   0  0  0  0  0  0  0  0  0  0  0  0
  -12.2257    0.6174    0.0949 H   0  0  0  0  0  0  0  0  0  0  0  0
  -11.5308   -0.1076    1.5731 H   0  0  0  0  0  0  0  0  0  0  0  0
   -9.7338    1.1935    0.8554 H   0  0  0  0  0  0  0  0  0  0  0  0
   -7.4839   -2.5294   -0.2678 H   0  0  0  0  0  0  0  0  0  0  0  0
   -5.0404   -2.3475   -0.3955 H   0  0  0  0  0  0  0  0  0  0  0  0
    1.3990   -0.9177    0.6124 H   0  0  0  0  0  0  0  0  0  0  0  0
  1  2  2  0
  2  3  1  0
  3  4  1  0
  4  5  2  0
  5  6  1  0
  6  7  2  0
  7  8  1  0
  8  9  2  0
  9 10  1  0
 10 11  1  0
 11 12  1  0
  7 13  1  0
 13 14  2  0
  2 15  1  0
 15 16  2  0
 16 17  1  0
 17 18  2  0
 18 19  1  0
 19 20  2  0
 19 21  1  0
 21 22  1  0
 22 23  2  0
 23 24  1  0
 24 25  2  0
 25 26  1  0
 26 27  2  0
 27 28  1  0
 28 29  1  0
 29 30  1  0
 25 31  1  0
 31 32  2  0
 18 33  1  0
 33 34  1  0
 34 35  2  0
 34 36  1  0
 33 37  2  0
 14  4  1  0
 37 15  1  0
 12  8  1  0
 32 22  1  0
 30 26  1  0
  3 38  1  0
  5 39  1  0
  6 40  1  0
 10 41  1  0
 10 42  1  0
 11 43  1  0
 11 44  1  0
 12 45  1  0
 13 46  1  0
 14 47  1  0
 16 48  1  0
 17 49  1  0
 21 50  1  0
 23 51  1  0
 24 52  1  0
 28 53  1  0
 28 54  1  0
 29 55  1  0
 29 56  1  0
 30 57  1  0
 31 58  1  0
 32 59  1  0
 37 60  1  0
M  CHG  2  34   1  36  -1
M  END
$$$$
