
     RDKit          3D

 30 31  0  0  0  0  0  0  0  0999 V2000
   -1.0040   -2.7749    3.3141 C   0  0  0  0  0  0  0  0  0  0  0  0
   -1.4173   -3.1640    2.0109 O   0  0  0  0  0  0  0  0  0  0  0  0
   -1.5367   -2.1766    1.0704 C   0  0  0  0  0  0  0  0  0  0  0  0
   -1.2368   -0.8278    1.2683 C   0  0  0  0  0  0  0  0  0  0  0  0
   -1.4002    0.0808    0.2113 C   0  0  0  0  0  0  0  0  0  0  0  0
   -1.0476    1.7987    0.4928 S   0  0  0  0  0  6  0  0  0  0  0  0
   -1.5614    2.1096    1.8135 O   0  0  0  0  0  0  0  0  0  0  0  0
   -1.4707    2.5778   -0.6510 O   0  0  0  0  0  0  0  0  0  0  0  0
    0.6150    1.8652    0.6423 N   0  0  0  0  0  0  0  0  0  0  0  0
    1.4093    1.8113   -0.5166 C   0  0  0  0  0  0  0  0  0  0  0  0
    2.5583    2.5841   -0.5958 C   0  0  0  0  0  0  0  0  0  0  0  0
    3.3751    2.4419   -1.7145 C   0  0  0  0  0  0  0  0  0  0  0  0
    3.0279    1.5210   -2.6955 C   0  0  0  0  0  0  0  0  0  0  0  0
    1.8777    0.7728   -2.5094 C   0  0  0  0  0  0  0  0  0  0  0  0
    1.0713    0.8900   -1.4320 N   0  0  0  0  0  0  0  0  0  0  0  0
   -1.8811   -0.3361   -1.0337 C   0  0  0  0  0  0  0  0  0  0  0  0
   -2.1771   -1.6822   -1.2317 C   0  0  0  0  0  0  0  0  0  0  0  0
   -2.0013   -2.5873   -0.1863 C   0  0  0  0  0  0  0  0  0  0  0  0
   -2.2944   -3.8785   -0.4055 F   0  0  0  0  0  0  0  0  0  0  0  0
   -0.9849   -3.6718    3.9407 H   0  0  0  0  0  0  0  0  0  0  0  0
    0.0086   -2.3584    3.2980 H   0  0  0  0  0  0  0  0  0  0  0  0
   -1.7144   -2.0715    3.7609 H   0  0  0  0  0  0  0  0  0  0  0  0
   -0.8780   -0.4577    2.2230 H   0  0  0  0  0  0  0  0  0  0  0  0
    0.9138    2.4432    1.4201 H   0  0  0  0  0  0  0  0  0  0  0  0
    2.8193    3.2906    0.1831 H   0  0  0  0  0  0  0  0  0  0  0  0
    4.2752    3.0415   -1.8179 H   0  0  0  0  0  0  0  0  0  0  0  0
    3.6404    1.3848   -3.5802 H   0  0  0  0  0  0  0  0  0  0  0  0
    1.5664    0.0332   -3.2420 H   0  0  0  0  0  0  0  0  0  0  0  0
   -2.0098    0.3750   -1.8467 H   0  0  0  0  0  0  0  0  0  0  0  0
   -2.5423   -2.0359   -2.1906 H   0  0  0  0  0  0  0  0  0  0  0  0
  1  2  1  0
  2  3  1  0
  3  4  2  0
  4  5  1  0
  5  6  1  0
  6  7  2  0
  6  8  2  0
  6  9  1  0
  9 10  1  0
 10 11  2  0
 11 12  1  0
 12 13  2  0
 13 14  1  0
 14 15  2  0
  5 16  2  0
 16 17  1  0
 17 18  2  0
 18 19  1  0
 18  3  1  0
 15 10  1  0
  1 20  1  0
  1 21  1  0
  1 22  1  0
  4 23  1  0
  9 24  1  0
 11 25  1  0
 12 26  1  0
 13 27  1  0
 14 28  1  0
 16 29  1  0
 17 30  1  0
M  END
$$$$
