
     RDKit          3D

 49 50  0  0  0  0  0  0  0  0999 V2000
   -3.9345   -3.1589    0.9424 C   0  0  0  0  0  0  0  0  0  0  0  0
   -4.6516   -1.9291    1.0115 O   0  0  0  0  0  0  0  0  0  0  0  0
   -3.9487   -0.7950    0.6964 C   0  0  0  0  0  0  0  0  0  0  0  0
   -2.8668   -0.8018   -0.1995 C   0  0  0  0  0  0  0  0  0  0  0  0
   -2.1477    0.3690   -0.4895 C   0  0  0  0  0  0  0  0  0  0  0  0
   -1.0039    0.2888   -1.4126 C   0  0  0  0  0  0  0  0  0  0  0  0
   -0.6100    1.2955   -2.2108 C   0  0  0  0  0  0  0  0  0  0  0  0
    0.5466    1.2369   -3.1286 C   0  0  0  0  0  0  0  0  0  0  0  0
    0.9410    2.2243   -3.7293 O   0  0  0  0  0  0  0  0  0  0  0  0
    1.0783   -0.0073   -3.1957 O   0  0  0  0  0  0  0  0  0  0  0  0
    2.2588   -0.1000   -3.9998 C   0  0  0  0  0  0  0  0  0  0  0  0
    3.5286    0.3262   -3.2581 C   0  0  0  0  0  0  0  0  0  0  0  0
    4.5706    0.6104   -3.8427 O   0  0  0  0  0  0  0  0  0  0  0  0
    3.4116    0.3030   -1.8832 N   0  0  0  0  0  0  0  0  0  0  0  0
    4.5649    0.4819   -1.0215 C   0  0  0  0  0  0  0  0  0  0  0  0
    4.1278    0.6528    0.4353 C   0  0  0  0  0  0  0  0  0  0  0  0
    5.2927    0.8087    1.3983 C   0  0  0  0  0  0  0  0  0  0  0  0
    4.7145    0.2501    2.6762 C   0  0  0  0  0  0  0  0  0  0  0  0
    3.8667   -0.8962    2.1673 C   0  0  0  0  0  0  0  0  0  0  0  0
    3.3978   -0.5232    0.8630 O   0  0  0  0  0  0  0  0  0  0  0  0
   -2.5114    1.5537    0.1514 C   0  0  0  0  0  0  0  0  0  0  0  0
   -3.6015    1.5770    1.0231 C   0  0  0  0  0  0  0  0  0  0  0  0
   -4.3440    0.4188    1.2804 C   0  0  0  0  0  0  0  0  0  0  0  0
   -5.3794    0.6331    2.1532 O   0  0  0  0  0  0  0  0  0  0  0  0
   -6.4839   -0.2745    2.1119 C   0  0  0  0  0  0  0  0  0  0  0  0
   -7.6668    0.3609    2.7230 C   0  0  0  0  0  0  0  0  0  0  0  0
   -8.6076    0.8535    3.1978 N   0  0  0  0  0  0  0  0  0  0  0  0
   -4.5134   -3.9104    1.4858 H   0  0  0  0  0  0  0  0  0  0  0  0
   -3.8438   -3.4965   -0.0950 H   0  0  0  0  0  0  0  0  0  0  0  0
   -2.9523   -3.0847    1.4212 H   0  0  0  0  0  0  0  0  0  0  0  0
   -2.5863   -1.7211   -0.7092 H   0  0  0  0  0  0  0  0  0  0  0  0
   -0.4763   -0.6619   -1.4228 H   0  0  0  0  0  0  0  0  0  0  0  0
   -1.1219    2.2511   -2.2293 H   0  0  0  0  0  0  0  0  0  0  0  0
    2.3793   -1.1524   -4.2793 H   0  0  0  0  0  0  0  0  0  0  0  0
    2.1575    0.4820   -4.9234 H   0  0  0  0  0  0  0  0  0  0  0  0
    2.6506   -0.2466   -1.4974 H   0  0  0  0  0  0  0  0  0  0  0  0
    5.1822   -0.4176   -1.1369 H   0  0  0  0  0  0  0  0  0  0  0  0
    5.1401    1.3460   -1.3682 H   0  0  0  0  0  0  0  0  0  0  0  0
    3.4394    1.5030    0.5282 H   0  0  0  0  0  0  0  0  0  0  0  0
    5.6250    1.8490    1.4939 H   0  0  0  0  0  0  0  0  0  0  0  0
    6.1516    0.2027    1.0805 H   0  0  0  0  0  0  0  0  0  0  0  0
    5.4707   -0.0676    3.3996 H   0  0  0  0  0  0  0  0  0  0  0  0
    4.0775    1.0076    3.1512 H   0  0  0  0  0  0  0  0  0  0  0  0
    3.0152   -1.1099    2.8171 H   0  0  0  0  0  0  0  0  0  0  0  0
    4.4605   -1.8085    2.0558 H   0  0  0  0  0  0  0  0  0  0  0  0
   -1.9531    2.4747   -0.0042 H   0  0  0  0  0  0  0  0  0  0  0  0
   -3.8754    2.5131    1.5102 H   0  0  0  0  0  0  0  0  0  0  0  0
   -6.7373   -0.5382    1.0760 H   0  0  0  0  0  0  0  0  0  0  0  0
   -6.2322   -1.1725    2.6851 H   0  0  0  0  0  0  0  0  0  0  0  0
  1  2  1  0
  2  3  1  0
  3  4  2  0
  4  5  1  0
  5  6  1  0
  6  7  2  3
  7  8  1  0
  8  9  2  0
  8 10  1  0
 10 11  1  0
 11 12  1  0
 12 13  2  0
 12 14  1  0
 14 15  1  0
 15 16  1  0
 16 17  1  0
 17 18  1  0
 18 19  1  0
 19 20  1  0
  5 21  2  0
 21 22  1  0
 22 23  2  0
 23 24  1  0
 24 25  1  0
 25 26  1  0
 26 27  3  0
 23  3  1  0
 20 16  1  0
  1 28  1  0
  1 29  1  0
  1 30  1  0
  4 31  1  0
  6 32  1  0
  7 33  1  0
 11 34  1  0
 11 35  1  0
 14 36  1  0
 15 37  1  0
 15 38  1  0
 16 39  1  0
 17 40  1  0
 17 41  1  0
 18 42  1  0
 18 43  1  0
 19 44  1  0
 19 45  1  0
 21 46  1  0
 22 47  1  0
 25 48  1  0
 25 49  1  0
M  END
$$$$
