
     RDKit          3D

 41 44  0  0  0  0  0  0  0  0999 V2000
    0.9119   -3.0818   -1.3250 O   0  0  0  0  0  0  0  0  0  0  0  0
    1.0024   -1.9730   -0.7983 C   0  0  0  0  0  0  0  0  0  0  0  0
    2.2441   -1.2289   -0.8171 C   0  0  0  0  0  0  0  0  0  0  0  0
    2.8920   -0.7538   -2.3191 S   0  0  0  0  0  0  0  0  0  0  0  0
    4.2507    0.0037   -1.5830 C   0  0  0  0  0  0  0  0  0  0  0  0
    5.2960    0.6813   -2.2419 C   0  0  0  0  0  0  0  0  0  0  0  0
    6.3300    1.2338   -1.4843 C   0  0  0  0  0  0  0  0  0  0  0  0
    6.3305    1.1161   -0.1026 C   0  0  0  0  0  0  0  0  0  0  0  0
    5.2921    0.4422    0.5473 C   0  0  0  0  0  0  0  0  0  0  0  0
    4.2222   -0.1290   -0.1911 C   0  0  0  0  0  0  0  0  0  0  0  0
    3.0559   -0.8600    0.2327 C   0  0  0  0  0  0  0  0  0  0  0  0
    2.7435   -1.2146    1.8865 Cl  0  0  0  0  0  0  0  0  0  0  0  0
   -0.0903   -1.3936   -0.1392 N   0  0  0  0  0  0  0  0  0  0  0  0
   -0.2398    0.0612    0.0373 C   0  0  0  0  0  0  0  0  0  0  0  0
   -1.1654    0.4153    1.2166 C   0  0  0  0  0  0  0  0  0  0  0  0
   -2.4689   -0.2770    1.0932 N   0  0  0  0  0  0  0  0  0  0  0  0
   -3.4855    0.3853    0.3933 C   0  0  0  0  0  0  0  0  0  0  0  0
   -3.8008    1.7165    0.7323 C   0  0  0  0  0  0  0  0  0  0  0  0
   -4.8141    2.4364    0.0849 C   0  0  0  0  0  0  0  0  0  0  0  0
   -5.5606    1.8381   -0.9222 C   0  0  0  0  0  0  0  0  0  0  0  0
   -5.2976    0.5186   -1.2676 C   0  0  0  0  0  0  0  0  0  0  0  0
   -4.2856   -0.1912   -0.6139 C   0  0  0  0  0  0  0  0  0  0  0  0
   -4.0940   -1.4582   -1.0127 F   0  0  0  0  0  0  0  0  0  0  0  0
   -2.3062   -1.7438    0.9811 C   0  0  0  0  0  0  0  0  0  0  0  0
   -1.3587   -2.1364   -0.1687 C   0  0  0  0  0  0  0  0  0  0  0  0
    5.3016    0.7705   -3.3250 H   0  0  0  0  0  0  0  0  0  0  0  0
    7.1423    1.7567   -1.9842 H   0  0  0  0  0  0  0  0  0  0  0  0
    7.1422    1.5460    0.4797 H   0  0  0  0  0  0  0  0  0  0  0  0
    5.3121    0.3567    1.6318 H   0  0  0  0  0  0  0  0  0  0  0  0
   -0.6533    0.4517   -0.9010 H   0  0  0  0  0  0  0  0  0  0  0  0
    0.7265    0.5469    0.1855 H   0  0  0  0  0  0  0  0  0  0  0  0
   -1.2565    1.5031    1.2933 H   0  0  0  0  0  0  0  0  0  0  0  0
   -0.6941    0.0826    2.1504 H   0  0  0  0  0  0  0  0  0  0  0  0
   -3.2779    2.2090    1.5489 H   0  0  0  0  0  0  0  0  0  0  0  0
   -5.0240    3.4606    0.3837 H   0  0  0  0  0  0  0  0  0  0  0  0
   -6.3495    2.3907   -1.4249 H   0  0  0  0  0  0  0  0  0  0  0  0
   -5.8741    0.0250   -2.0439 H   0  0  0  0  0  0  0  0  0  0  0  0
   -1.8585   -2.0910    1.9221 H   0  0  0  0  0  0  0  0  0  0  0  0
   -3.2666   -2.2655    0.9126 H   0  0  0  0  0  0  0  0  0  0  0  0
   -1.1606   -3.2127   -0.1140 H   0  0  0  0  0  0  0  0  0  0  0  0
   -1.8136   -1.9378   -1.1449 H   0  0  0  0  0  0  0  0  0  0  0  0
  1  2  2  0
  2  3  1  0
  3  4  1  0
  4  5  1  0
  5  6  2  0
  6  7  1  0
  7  8  2  0
  8  9  1  0
  9 10  2  0
 10 11  1  0
 11 12  1  0
  2 13  1  0
 13 14  1  0
 14 15  1  0
 15 16  1  0
 16 17  1  0
 17 18  2  0
 18 19  1  0
 19 20  2  0
 20 21  1  0
 21 22  2  0
 22 23  1  0
 16 24  1  0
 24 25  1  0
 11  3  2  0
 25 13  1  0
 10  5  1  0
 22 17  1  0
  6 26  1  0
  7 27  1  0
  8 28  1  0
  9 29  1  0
 14 30  1  0
 14 31  1  0
 15 32  1  0
 15 33  1  0
 18 34  1  0
 19 35  1  0
 20 36  1  0
 21 37  1  0
 24 38  1  0
 24 39  1  0
 25 40  1  0
 25 41  1  0
M  END
$$$$
