
     RDKit          3D

 51 54  0  0  0  0  0  0  0  0999 V2000
    1.6259   -3.1560   -0.0594 O   0  0  0  0  0  0  0  0  0  0  0  0
    1.6807   -1.9261   -0.0969 C   0  0  0  0  0  0  0  0  0  0  0  0
    2.9451   -1.2054   -0.0796 C   0  0  0  0  0  0  0  0  0  0  0  0
    3.3340   -0.1230    0.6905 C   0  0  0  0  0  0  0  0  0  0  0  0
    4.6708    0.2945    0.4127 C   0  0  0  0  0  0  0  0  0  0  0  0
    5.2522   -0.5024   -0.5537 C   0  0  0  0  0  0  0  0  0  0  0  0
    4.2176   -1.7368   -1.0976 S   0  0  0  0  0  0  0  0  0  0  0  0
    6.6561   -0.3638   -1.0568 C   0  0  0  0  0  0  0  0  0  0  0  0
    7.2375    1.0023   -0.6585 C   0  0  0  0  0  0  0  0  0  0  0  0
    6.9149    1.3564    0.8010 C   0  0  0  0  0  0  0  0  0  0  0  0
    5.3995    1.4432    1.0421 C   0  0  0  0  0  0  0  0  0  0  0  0
    0.5027   -1.1718   -0.1349 N   0  0  0  0  0  0  0  0  0  0  0  0
   -0.7766   -1.8779   -0.0458 C   0  0  0  0  0  0  0  0  0  0  0  0
   -1.9018   -0.9600    0.4405 C   0  0  0  0  0  0  0  0  0  0  0  0
   -2.0793    0.2566   -0.4291 N   0  0  0  0  0  0  0  0  0  0  0  0
   -3.5288    0.2908   -1.3417 S   0  0  0  0  0  6  0  0  0  0  0  0
   -3.5422    1.5130   -2.1124 O   0  0  0  0  0  0  0  0  0  0  0  0
   -3.6311   -1.0135   -1.9543 O   0  0  0  0  0  0  0  0  0  0  0  0
   -4.8049    0.4512   -0.1064 C   0  0  0  0  0  0  0  0  0  0  0  0
   -4.5076    1.1909    1.0505 C   0  0  0  0  0  0  0  0  0  0  0  0
   -5.4506    1.3097    2.0693 C   0  0  0  0  0  0  0  0  0  0  0  0
   -6.6920    0.6965    1.9378 C   0  0  0  0  0  0  0  0  0  0  0  0
   -6.9985   -0.0214    0.7799 C   0  0  0  0  0  0  0  0  0  0  0  0
   -6.0676   -0.1456   -0.2713 C   0  0  0  0  0  0  0  0  0  0  0  0
   -6.4727   -0.8959   -1.5188 C   0  0  0  0  0  0  0  0  0  0  0  0
   -7.8297   -1.0217   -1.6262 F   0  0  0  0  0  0  0  0  0  0  0  0
   -5.9974   -2.1678   -1.5462 F   0  0  0  0  0  0  0  0  0  0  0  0
   -6.0880   -0.2859   -2.6692 F   0  0  0  0  0  0  0  0  0  0  0  0
   -0.8746    0.5733   -1.2671 C   0  0  0  0  0  0  0  0  0  0  0  0
    0.4319    0.2387   -0.5353 C   0  0  0  0  0  0  0  0  0  0  0  0
    2.6918    0.3428    1.4281 H   0  0  0  0  0  0  0  0  0  0  0  0
    6.6975   -0.4736   -2.1464 H   0  0  0  0  0  0  0  0  0  0  0  0
    7.2703   -1.1601   -0.6186 H   0  0  0  0  0  0  0  0  0  0  0  0
    8.3226    0.9955   -0.8115 H   0  0  0  0  0  0  0  0  0  0  0  0
    6.8268    1.7810   -1.3141 H   0  0  0  0  0  0  0  0  0  0  0  0
    7.3822    2.3112    1.0670 H   0  0  0  0  0  0  0  0  0  0  0  0
    7.3485    0.5924    1.4590 H   0  0  0  0  0  0  0  0  0  0  0  0
    5.2012    1.4753    2.1194 H   0  0  0  0  0  0  0  0  0  0  0  0
    5.0162    2.3760    0.6102 H   0  0  0  0  0  0  0  0  0  0  0  0
   -1.0029   -2.2722   -1.0438 H   0  0  0  0  0  0  0  0  0  0  0  0
   -0.6781   -2.7318    0.6335 H   0  0  0  0  0  0  0  0  0  0  0  0
   -2.8310   -1.5333    0.5208 H   0  0  0  0  0  0  0  0  0  0  0  0
   -1.6724   -0.5955    1.4497 H   0  0  0  0  0  0  0  0  0  0  0  0
   -3.5438    1.6840    1.1628 H   0  0  0  0  0  0  0  0  0  0  0  0
   -5.2181    1.8822    2.9643 H   0  0  0  0  0  0  0  0  0  0  0  0
   -7.4302    0.7867    2.7321 H   0  0  0  0  0  0  0  0  0  0  0  0
   -7.9851   -0.4785    0.6942 H   0  0  0  0  0  0  0  0  0  0  0  0
   -0.9175    0.0080   -2.2062 H   0  0  0  0  0  0  0  0  0  0  0  0
   -0.8846    1.6429   -1.5035 H   0  0  0  0  0  0  0  0  0  0  0  0
    0.5022    0.8336    0.3824 H   0  0  0  0  0  0  0  0  0  0  0  0
    1.2791    0.4916   -1.1800 H   0  0  0  0  0  0  0  0  0  0  0  0
  1  2  2  0
  2  3  1  0
  3  4  2  0
  4  5  1  0
  5  6  2  0
  6  7  1  0
  6  8  1  0
  8  9  1  0
  9 10  1  0
 10 11  1  0
  2 12  1  0
 12 13  1  0
 13 14  1  0
 14 15  1  0
 15 16  1  0
 16 17  2  0
 16 18  2  0
 16 19  1  0
 19 20  2  0
 20 21  1  0
 21 22  2  0
 22 23  1  0
 23 24  2  0
 24 25  1  0
 25 26  1  0
 25 27  1  0
 25 28  1  0
 15 29  1  0
 29 30  1  0
  7  3  1  0
 30 12  1  0
 11  5  1  0
 24 19  1  0
  4 31  1  0
  8 32  1  0
  8 33  1  0
  9 34  1  0
  9 35  1  0
 10 36  1  0
 10 37  1  0
 11 38  1  0
 11 39  1  0
 13 40  1  0
 13 41  1  0
 14 42  1  0
 14 43  1  0
 20 44  1  0
 21 45  1  0
 22 46  1  0
 23 47  1  0
 29 48  1  0
 29 49  1  0
 30 50  1  0
 30 51  1  0
M  END
$$$$
