
     RDKit          3D

 34 35  0  0  0  0  0  0  0  0999 V2000
   -0.4135   -1.5006   -1.1922 C   0  0  0  0  0  0  0  0  0  0  0  0
   -0.8719   -0.4347   -0.2171 C   0  0  0  0  0  0  0  0  0  0  0  0
   -0.0711    0.4584    0.3127 N   0  0  0  0  0  0  0  0  0  0  0  0
    1.2634    0.3578    0.0123 N   0  0  0  0  0  0  0  0  0  0  0  0
    1.9141    1.6498   -0.2292 C   0  0  0  0  0  0  0  0  0  0  0  0
    3.3104    1.4582   -0.8125 C   0  0  0  0  0  0  0  0  0  0  0  0
    4.1551    0.5392    0.0686 C   0  0  0  0  0  0  0  0  0  0  0  0
    3.4306   -0.7805    0.3293 C   0  0  0  0  0  0  0  0  0  0  0  0
    2.0328   -0.5386    0.8903 C   0  0  0  0  0  0  0  0  0  0  0  0
   -2.3241   -0.3742    0.1307 C   0  0  0  0  0  0  0  0  0  0  0  0
   -2.8856    0.8048    0.4544 C   0  0  0  0  0  0  0  0  0  0  0  0
   -2.2228    2.0023    0.5546 O   0  0  0  0  0  0  0  0  0  0  0  0
   -4.2126    0.9160    0.7284 N   0  0  0  0  0  0  0  0  0  0  0  0
   -5.0896   -0.1258    0.6919 C   0  0  0  0  0  0  0  0  0  0  0  0
   -6.2787    0.0016    0.9597 O   0  0  0  0  0  0  0  0  0  0  0  0
   -4.5490   -1.3294    0.3424 N   0  0  0  0  0  0  0  0  0  0  0  0
   -3.2186   -1.5606    0.1168 C   0  0  0  0  0  0  0  0  0  0  0  0
   -2.7978   -2.6991   -0.0646 O   0  0  0  0  0  0  0  0  0  0  0  0
   -1.2272   -1.7914   -1.8621 H   0  0  0  0  0  0  0  0  0  0  0  0
    0.3981   -1.1288   -1.8237 H   0  0  0  0  0  0  0  0  0  0  0  0
   -0.0676   -2.3778   -0.6393 H   0  0  0  0  0  0  0  0  0  0  0  0
    1.9576    2.1979    0.7195 H   0  0  0  0  0  0  0  0  0  0  0  0
    1.2951    2.2206   -0.9306 H   0  0  0  0  0  0  0  0  0  0  0  0
    3.2293    1.0178   -1.8142 H   0  0  0  0  0  0  0  0  0  0  0  0
    3.8054    2.4290   -0.9240 H   0  0  0  0  0  0  0  0  0  0  0  0
    5.1202    0.3457   -0.4124 H   0  0  0  0  0  0  0  0  0  0  0  0
    4.3640    1.0374    1.0233 H   0  0  0  0  0  0  0  0  0  0  0  0
    4.0116   -1.3948    1.0257 H   0  0  0  0  0  0  0  0  0  0  0  0
    3.3537   -1.3396   -0.6116 H   0  0  0  0  0  0  0  0  0  0  0  0
    2.0869   -0.0781    1.8842 H   0  0  0  0  0  0  0  0  0  0  0  0
    1.5032   -1.4917    0.9860 H   0  0  0  0  0  0  0  0  0  0  0  0
   -1.2578    1.8085    0.5012 H   0  0  0  0  0  0  0  0  0  0  0  0
   -4.5770    1.8270    0.9780 H   0  0  0  0  0  0  0  0  0  0  0  0
   -5.1666   -2.1264    0.3526 H   0  0  0  0  0  0  0  0  0  0  0  0
  1  2  1  0
  2  3  2  3
  3  4  1  0
  4  5  1  0
  5  6  1  0
  6  7  1  0
  7  8  1  0
  8  9  1  0
  2 10  1  0
 10 11  2  0
 11 12  1  0
 11 13  1  0
 13 14  1  0
 14 15  2  0
 14 16  1  0
 16 17  1  0
 17 18  2  0
  9  4  1  0
 17 10  1  0
  1 19  1  0
  1 20  1  0
  1 21  1  0
  5 22  1  0
  5 23  1  0
  6 24  1  0
  6 25  1  0
  7 26  1  0
  7 27  1  0
  8 28  1  0
  8 29  1  0
  9 30  1  0
  9 31  1  0
 12 32  1  0
 13 33  1  0
 16 34  1  0
M  END
$$$$
