
     RDKit          3D

 39 41  0  0  0  0  0  0  0  0999 V2000
   -7.5089    1.0328    0.1954 C   0  0  0  0  0  0  0  0  0  0  0  0
   -6.1084    1.0814    0.7796 C   0  0  0  0  0  0  0  0  0  0  0  0
   -5.1812    0.8611   -0.2820 O   0  0  0  0  0  0  0  0  0  0  0  0
   -3.8496    0.8634    0.0364 C   0  0  0  0  0  0  0  0  0  0  0  0
   -3.3167    1.0664    1.3070 C   0  0  0  0  0  0  0  0  0  0  0  0
   -1.9293    1.0465    1.5104 C   0  0  0  0  0  0  0  0  0  0  0  0
   -1.0616    0.8193    0.4246 C   0  0  0  0  0  0  0  0  0  0  0  0
    0.3210    0.7746    0.4808 N   0  0  0  0  0  0  0  0  0  0  0  0
    0.8031    0.5345   -0.7146 C   0  0  0  0  0  0  0  0  0  0  0  0
    2.1571    0.4450   -0.9159 N   0  0  0  0  0  0  0  0  0  0  0  0
    2.8059    0.1426   -2.0895 C   0  0  0  0  0  0  0  0  0  0  0  0
    2.2995   -0.1281   -3.1734 O   0  0  0  0  0  0  0  0  0  0  0  0
    4.3145    0.1384   -1.9478 C   0  0  0  0  0  0  0  0  0  0  0  0
    4.8175   -1.2370   -1.5352 C   0  0  0  0  0  0  0  0  0  0  0  0
    4.5514   -1.5281   -0.1357 N   0  0  0  0  0  0  0  0  0  0  0  0
    3.5452   -2.3315    0.3292 C   0  0  0  0  0  0  0  0  0  0  0  0
    3.5896   -2.3106    1.7060 C   0  0  0  0  0  0  0  0  0  0  0  0
    4.6694   -1.4770    2.0815 C   0  0  0  0  0  0  0  0  0  0  0  0
    5.2510   -1.0108    0.9227 C   0  0  0  0  0  0  0  0  0  0  0  0
   -0.3365    0.3683   -1.9648 S   0  0  0  0  0  0  0  0  0  0  0  0
   -1.6134    0.6180   -0.8402 C   0  0  0  0  0  0  0  0  0  0  0  0
   -3.0009    0.6366   -1.0544 C   0  0  0  0  0  0  0  0  0  0  0  0
   -7.6295    1.7958   -0.5808 H   0  0  0  0  0  0  0  0  0  0  0  0
   -8.2612    1.1968    0.9719 H   0  0  0  0  0  0  0  0  0  0  0  0
   -7.6954    0.0635   -0.2788 H   0  0  0  0  0  0  0  0  0  0  0  0
   -5.9431    2.0666    1.2306 H   0  0  0  0  0  0  0  0  0  0  0  0
   -6.0104    0.2972    1.5391 H   0  0  0  0  0  0  0  0  0  0  0  0
   -3.9485    1.2446    2.1712 H   0  0  0  0  0  0  0  0  0  0  0  0
   -1.5145    1.2046    2.5012 H   0  0  0  0  0  0  0  0  0  0  0  0
    2.6841    0.5441   -0.0567 H   0  0  0  0  0  0  0  0  0  0  0  0
    4.6259    0.9189   -1.2436 H   0  0  0  0  0  0  0  0  0  0  0  0
    4.7360    0.4098   -2.9231 H   0  0  0  0  0  0  0  0  0  0  0  0
    4.3612   -2.0318   -2.1364 H   0  0  0  0  0  0  0  0  0  0  0  0
    5.9039   -1.2996   -1.6668 H   0  0  0  0  0  0  0  0  0  0  0  0
    2.8727   -2.8461   -0.3462 H   0  0  0  0  0  0  0  0  0  0  0  0
    2.9181   -2.8432    2.3674 H   0  0  0  0  0  0  0  0  0  0  0  0
    4.9916   -1.2468    3.0890 H   0  0  0  0  0  0  0  0  0  0  0  0
    6.1013   -0.3575    0.7737 H   0  0  0  0  0  0  0  0  0  0  0  0
   -3.4112    0.4777   -2.0474 H   0  0  0  0  0  0  0  0  0  0  0  0
  1  2  1  0
  2  3  1  0
  3  4  1  0
  4  5  2  0
  5  6  1  0
  6  7  2  0
  7  8  1  0
  8  9  2  0
  9 10  1  0
 10 11  1  0
 11 12  2  0
 11 13  1  0
 13 14  1  0
 14 15  1  0
 15 16  1  0
 16 17  2  0
 17 18  1  0
 18 19  2  0
  9 20  1  0
 20 21  1  0
 21 22  2  0
 22  4  1  0
 21  7  1  0
 19 15  1  0
  1 23  1  0
  1 24  1  0
  1 25  1  0
  2 26  1  0
  2 27  1  0
  5 28  1  0
  6 29  1  0
 10 30  1  0
 13 31  1  0
 13 32  1  0
 14 33  1  0
 14 34  1  0
 16 35  1  0
 17 36  1  0
 18 37  1  0
 19 38  1  0
 22 39  1  0
M  END
$$$$
