
     RDKit          3D

 30 31  0  0  0  0  0  0  0  0999 V2000
   -2.5267    2.8459   -0.8424 C   0  0  0  0  0  0  0  0  0  0  0  0
   -2.1652    1.4235   -0.6154 C   0  0  0  0  0  0  0  0  0  0  0  0
   -2.9994    0.6228    0.0626 N   0  0  0  0  0  0  0  0  0  0  0  0
   -2.3935   -0.5838    0.0419 N   0  0  0  0  0  0  0  0  0  0  0  0
   -3.0774   -1.7093    0.6420 C   0  0  0  0  0  0  0  0  0  0  0  0
   -1.1531   -0.5596   -0.5488 C   0  0  0  0  0  0  0  0  0  0  0  0
   -0.1479   -1.9818   -0.5606 S   0  0  0  0  0  0  0  0  0  0  0  0
    1.4156   -1.2721   -0.0335 C   0  0  0  0  0  0  0  0  0  0  0  0
    2.4600   -1.2564   -0.9716 C   0  0  0  0  0  0  0  0  0  0  0  0
    3.7088   -0.7342   -0.6382 C   0  0  0  0  0  0  0  0  0  0  0  0
    3.9338   -0.2486    0.6446 C   0  0  0  0  0  0  0  0  0  0  0  0
    2.9072   -0.2761    1.5901 C   0  0  0  0  0  0  0  0  0  0  0  0
    1.6284   -0.7464    1.2592 C   0  0  0  0  0  0  0  0  0  0  0  0
    0.6794   -0.8703    2.2919 N   0  0  0  0  0  0  0  0  0  0  0  0
   -1.0092    0.7237   -1.0385 C   0  0  0  0  0  0  0  0  0  0  0  0
    0.0644    1.2476   -1.8162 N   0  0  0  0  0  4  0  0  0  0  0  0
    0.4393    0.5758   -2.7845 O   0  0  0  0  0  0  0  0  0  0  0  0
    0.4972    2.3597   -1.4878 O   0  0  0  0  0  1  0  0  0  0  0  0
   -3.6096    2.9931   -0.7831 H   0  0  0  0  0  0  0  0  0  0  0  0
   -2.0531    3.4828   -0.0900 H   0  0  0  0  0  0  0  0  0  0  0  0
   -2.2052    3.1790   -1.8337 H   0  0  0  0  0  0  0  0  0  0  0  0
   -2.5145   -2.0270    1.5234 H   0  0  0  0  0  0  0  0  0  0  0  0
   -4.0859   -1.4058    0.9381 H   0  0  0  0  0  0  0  0  0  0  0  0
   -3.1433   -2.5125   -0.0962 H   0  0  0  0  0  0  0  0  0  0  0  0
    2.3053   -1.6454   -1.9765 H   0  0  0  0  0  0  0  0  0  0  0  0
    4.5062   -0.7198   -1.3771 H   0  0  0  0  0  0  0  0  0  0  0  0
    4.9116    0.1399    0.9164 H   0  0  0  0  0  0  0  0  0  0  0  0
    3.1151    0.0746    2.5978 H   0  0  0  0  0  0  0  0  0  0  0  0
   -0.2738   -0.9381    1.9559 H   0  0  0  0  0  0  0  0  0  0  0  0
    0.7853   -0.1812    3.0303 H   0  0  0  0  0  0  0  0  0  0  0  0
  1  2  1  0
  2  3  2  0
  3  4  1  0
  4  5  1  0
  4  6  1  0
  6  7  1  0
  7  8  1  0
  8  9  2  0
  9 10  1  0
 10 11  2  0
 11 12  1  0
 12 13  2  0
 13 14  1  0
  6 15  2  0
 15 16  1  0
 16 17  2  0
 16 18  1  0
 15  2  1  0
 13  8  1  0
  1 19  1  0
  1 20  1  0
  1 21  1  0
  5 22  1  0
  5 23  1  0
  5 24  1  0
  9 25  1  0
 10 26  1  0
 11 27  1  0
 12 28  1  0
 14 29  1  0
 14 30  1  0
M  CHG  2  16   1  18  -1
M  END
$$$$
