
     RDKit          3D

 45 48  0  0  0  0  0  0  0  0999 V2000
    1.1503   -2.4959   -0.1328 O   0  0  0  0  0  0  0  0  0  0  0  0
   -0.0554   -2.3185   -0.2823 C   0  0  0  0  0  0  0  0  0  0  0  0
   -0.7227   -1.1390   -0.0899 N   0  0  0  0  0  0  0  0  0  0  0  0
   -0.2206   -0.0349   -0.5128 C   0  0  0  0  0  0  0  0  0  0  0  0
    0.9573    0.0770   -1.1858 N   0  0  0  0  0  0  0  0  0  0  0  0
    2.0047    0.2846   -0.4537 C   0  0  0  0  0  0  0  0  0  0  0  0
    3.2940    0.3544   -0.9309 N   0  0  0  0  0  0  0  0  0  0  0  0
    4.1022    0.3640    0.1850 C   0  0  0  0  0  0  0  0  0  0  0  0
    5.4716    0.3744    0.3101 C   0  0  0  0  0  0  0  0  0  0  0  0
    6.0038    0.4717    1.6014 C   0  0  0  0  0  0  0  0  0  0  0  0
    5.1608    0.5740    2.7259 C   0  0  0  0  0  0  0  0  0  0  0  0
    3.7723    0.5850    2.5767 C   0  0  0  0  0  0  0  0  0  0  0  0
    3.2793    0.4861    1.2943 C   0  0  0  0  0  0  0  0  0  0  0  0
    1.9377    0.4705    0.9374 O   0  0  0  0  0  0  0  0  0  0  0  0
   -0.8840    1.1605   -0.3978 N   0  0  0  0  0  0  0  0  0  0  0  0
   -2.1212    1.3915    0.1778 C   0  0  0  0  0  0  0  0  0  0  0  0
   -2.7986    0.5829    0.8001 O   0  0  0  0  0  0  0  0  0  0  0  0
   -2.6185    2.7898    0.0487 C   0  0  0  0  0  0  0  0  0  0  0  0
   -3.3632    3.3315    1.1037 C   0  0  0  0  0  0  0  0  0  0  0  0
   -3.8443    4.6390    1.0230 C   0  0  0  0  0  0  0  0  0  0  0  0
   -3.5926    5.4049   -0.1149 C   0  0  0  0  0  0  0  0  0  0  0  0
   -2.8681    4.8639   -1.1773 C   0  0  0  0  0  0  0  0  0  0  0  0
   -2.3834    3.5560   -1.1013 C   0  0  0  0  0  0  0  0  0  0  0  0
   -0.9186   -3.4804   -0.6608 C   0  0  0  0  0  0  0  0  0  0  0  0
   -0.3186   -4.7074   -0.9774 C   0  0  0  0  0  0  0  0  0  0  0  0
   -1.1055   -5.8037   -1.3372 C   0  0  0  0  0  0  0  0  0  0  0  0
   -2.4940   -5.6812   -1.3806 C   0  0  0  0  0  0  0  0  0  0  0  0
   -3.0991   -4.4653   -1.0635 C   0  0  0  0  0  0  0  0  0  0  0  0
   -2.3155   -3.3663   -0.7038 C   0  0  0  0  0  0  0  0  0  0  0  0
    3.5287   -0.2166   -1.7273 H   0  0  0  0  0  0  0  0  0  0  0  0
    6.1217    0.3142   -0.5551 H   0  0  0  0  0  0  0  0  0  0  0  0
    7.0829    0.4736    1.7406 H   0  0  0  0  0  0  0  0  0  0  0  0
    5.5971    0.6466    3.7198 H   0  0  0  0  0  0  0  0  0  0  0  0
    3.1094    0.6618    3.4303 H   0  0  0  0  0  0  0  0  0  0  0  0
   -0.3793    1.9327   -0.7992 H   0  0  0  0  0  0  0  0  0  0  0  0
   -3.5682    2.7346    1.9908 H   0  0  0  0  0  0  0  0  0  0  0  0
   -4.4194    5.0568    1.8457 H   0  0  0  0  0  0  0  0  0  0  0  0
   -3.9726    6.4220   -0.1781 H   0  0  0  0  0  0  0  0  0  0  0  0
   -2.6920    5.4593   -2.0703 H   0  0  0  0  0  0  0  0  0  0  0  0
   -1.8555    3.1443   -1.9570 H   0  0  0  0  0  0  0  0  0  0  0  0
    0.7636   -4.8124   -0.9433 H   0  0  0  0  0  0  0  0  0  0  0  0
   -0.6346   -6.7527   -1.5805 H   0  0  0  0  0  0  0  0  0  0  0  0
   -3.1064   -6.5356   -1.6581 H   0  0  0  0  0  0  0  0  0  0  0  0
   -4.1818   -4.3709   -1.0908 H   0  0  0  0  0  0  0  0  0  0  0  0
   -2.8035   -2.4270   -0.4489 H   0  0  0  0  0  0  0  0  0  0  0  0
  1  2  2  0
  2  3  1  0
  3  4  2  3
  4  5  1  0
  5  6  2  3
  6  7  1  0
  7  8  1  0
  8  9  2  0
  9 10  1  0
 10 11  2  0
 11 12  1  0
 12 13  2  0
 13 14  1  0
  4 15  1  0
 15 16  1  0
 16 17  2  0
 16 18  1  0
 18 19  2  0
 19 20  1  0
 20 21  2  0
 21 22  1  0
 22 23  2  0
  2 24  1  0
 24 25  2  0
 25 26  1  0
 26 27  2  0
 27 28  1  0
 28 29  2  0
 14  6  1  0
 23 18  1  0
 29 24  1  0
 13  8  1  0
  7 30  1  0
  9 31  1  0
 10 32  1  0
 11 33  1  0
 12 34  1  0
 15 35  1  0
 19 36  1  0
 20 37  1  0
 21 38  1  0
 22 39  1  0
 23 40  1  0
 25 41  1  0
 26 42  1  0
 27 43  1  0
 28 44  1  0
 29 45  1  0
M  END
$$$$
