
     RDKit          3D

 47 49  0  0  0  0  0  0  0  0999 V2000
    6.0687    0.5236   -4.3348 C   0  0  0  0  0  0  0  0  0  0  0  0
    5.8325    0.1238   -2.9911 O   0  0  0  0  0  0  0  0  0  0  0  0
    4.6751    0.5646   -2.4091 C   0  0  0  0  0  0  0  0  0  0  0  0
    3.7026    1.3581   -3.0154 C   0  0  0  0  0  0  0  0  0  0  0  0
    2.5666    1.7389   -2.2977 C   0  0  0  0  0  0  0  0  0  0  0  0
    2.3944    1.3252   -0.9748 C   0  0  0  0  0  0  0  0  0  0  0  0
    3.3521    0.5162   -0.3631 C   0  0  0  0  0  0  0  0  0  0  0  0
    3.2705    0.0910    0.9848 N   0  0  0  0  0  0  0  0  0  0  0  0
    2.2470    0.2929    1.8717 C   0  0  0  0  0  0  0  0  0  0  0  0
    2.6839    0.8336    3.4020 S   0  0  0  0  0  0  0  0  0  0  0  0
    0.9558   -0.0433    1.4813 N   0  0  0  0  0  0  0  0  0  0  0  0
    0.7166   -1.0907    0.4675 C   0  0  0  0  0  0  0  0  0  0  0  0
   -0.4966   -1.9748    0.7696 C   0  0  0  0  0  0  0  0  0  0  0  0
   -1.7103   -1.1018    0.9352 C   0  0  0  0  0  0  0  0  0  0  0  0
   -2.9645   -1.4699    0.4259 C   0  0  0  0  0  0  0  0  0  0  0  0
   -4.0679   -0.6301    0.6017 C   0  0  0  0  0  0  0  0  0  0  0  0
   -5.3294   -0.8950    0.1353 O   0  0  0  0  0  0  0  0  0  0  0  0
   -5.4298   -1.8341   -0.9274 C   0  0  0  0  0  0  0  0  0  0  0  0
   -3.9041    0.5574    1.3312 C   0  0  0  0  0  0  0  0  0  0  0  0
   -4.9526    1.4235    1.5244 O   0  0  0  0  0  0  0  0  0  0  0  0
   -5.7262    1.0082    2.6512 C   0  0  0  0  0  0  0  0  0  0  0  0
   -2.6555    0.9350    1.8306 C   0  0  0  0  0  0  0  0  0  0  0  0
   -1.5488    0.1049    1.6362 C   0  0  0  0  0  0  0  0  0  0  0  0
   -0.2093    0.4349    2.2492 C   0  0  0  0  0  0  0  0  0  0  0  0
    4.4970    0.1559   -1.0826 C   0  0  0  0  0  0  0  0  0  0  0  0
    5.2895    0.1419   -5.0046 H   0  0  0  0  0  0  0  0  0  0  0  0
    7.0223    0.0883   -4.6493 H   0  0  0  0  0  0  0  0  0  0  0  0
    6.1572    1.6131   -4.4121 H   0  0  0  0  0  0  0  0  0  0  0  0
    3.7992    1.7040   -4.0389 H   0  0  0  0  0  0  0  0  0  0  0  0
    1.8161    2.3718   -2.7660 H   0  0  0  0  0  0  0  0  0  0  0  0
    1.5175    1.6692   -0.4339 H   0  0  0  0  0  0  0  0  0  0  0  0
    4.1765   -0.0077    1.4321 H   0  0  0  0  0  0  0  0  0  0  0  0
    1.6038   -1.7249    0.3671 H   0  0  0  0  0  0  0  0  0  0  0  0
    0.5511   -0.5841   -0.4895 H   0  0  0  0  0  0  0  0  0  0  0  0
   -0.3398   -2.5463    1.6917 H   0  0  0  0  0  0  0  0  0  0  0  0
   -0.6388   -2.6866   -0.0510 H   0  0  0  0  0  0  0  0  0  0  0  0
   -3.0573   -2.4162   -0.0971 H   0  0  0  0  0  0  0  0  0  0  0  0
   -6.4523   -1.7924   -1.3144 H   0  0  0  0  0  0  0  0  0  0  0  0
   -5.2526   -2.8525   -0.5668 H   0  0  0  0  0  0  0  0  0  0  0  0
   -4.7512   -1.5840   -1.7507 H   0  0  0  0  0  0  0  0  0  0  0  0
   -5.1605    1.1632    3.5769 H   0  0  0  0  0  0  0  0  0  0  0  0
   -6.6244    1.6348    2.6902 H   0  0  0  0  0  0  0  0  0  0  0  0
   -6.0478   -0.0376    2.5785 H   0  0  0  0  0  0  0  0  0  0  0  0
   -2.5590    1.8711    2.3745 H   0  0  0  0  0  0  0  0  0  0  0  0
   -0.1742   -0.0309    3.2432 H   0  0  0  0  0  0  0  0  0  0  0  0
   -0.1060    1.5205    2.3728 H   0  0  0  0  0  0  0  0  0  0  0  0
    5.2628   -0.4631   -0.6214 H   0  0  0  0  0  0  0  0  0  0  0  0
  1  2  1  0
  2  3  1  0
  3  4  2  0
  4  5  1  0
  5  6  2  0
  6  7  1  0
  7  8  1  0
  8  9  1  0
  9 10  2  0
  9 11  1  0
 11 12  1  0
 12 13  1  0
 13 14  1  0
 14 15  2  0
 15 16  1  0
 16 17  1  0
 17 18  1  0
 16 19  2  0
 19 20  1  0
 20 21  1  0
 19 22  1  0
 22 23  2  0
 23 24  1  0
  7 25  2  0
 25  3  1  0
 24 11  1  0
 23 14  1  0
  1 26  1  0
  1 27  1  0
  1 28  1  0
  4 29  1  0
  5 30  1  0
  6 31  1  0
  8 32  1  0
 12 33  1  0
 12 34  1  0
 13 35  1  0
 13 36  1  0
 15 37  1  0
 18 38  1  0
 18 39  1  0
 18 40  1  0
 21 41  1  0
 21 42  1  0
 21 43  1  0
 22 44  1  0
 24 45  1  0
 24 46  1  0
 25 47  1  0
M  END
$$$$
