
     RDKit          3D

 28 29  0  0  0  0  0  0  0  0999 V2000
    5.4827   -0.5394    0.1631 O   0  0  0  0  0  0  0  0  0  0  0  0
    4.4113   -0.1808    0.6156 C   0  0  0  0  0  0  0  0  0  0  0  0
    4.3380    0.5394    1.7486 O   0  0  0  0  0  0  0  0  0  0  0  0
    3.0815   -0.4642    0.0252 C   0  0  0  0  0  0  0  0  0  0  0  0
    3.0273   -1.2161   -1.1519 C   0  0  0  0  0  0  0  0  0  0  0  0
    1.7958   -1.4992   -1.7376 C   0  0  0  0  0  0  0  0  0  0  0  0
    0.6174   -1.0297   -1.1502 C   0  0  0  0  0  0  0  0  0  0  0  0
    0.6467   -0.2805    0.0322 C   0  0  0  0  0  0  0  0  0  0  0  0
   -0.5088    0.2491    0.6364 N   0  0  0  0  0  0  0  0  0  0  0  0
   -1.7960    0.5373    0.1359 C   0  0  0  0  0  0  0  0  0  0  0  0
   -1.9804    0.8887   -1.2082 C   0  0  0  0  0  0  0  0  0  0  0  0
   -3.2605    1.1252   -1.6912 C   0  0  0  0  0  0  0  0  0  0  0  0
   -4.3749    1.0297   -0.9382 N   0  0  0  0  0  0  0  0  0  0  0  0
   -4.2016    0.6894    0.3599 C   0  0  0  0  0  0  0  0  0  0  0  0
   -2.9560    0.4435    0.9260 C   0  0  0  0  0  0  0  0  0  0  0  0
   -2.9083    0.0973    2.3367 N   0  0  0  0  0  4  0  0  0  0  0  0
   -3.9234   -0.4014    2.8424 O   0  0  0  0  0  0  0  0  0  0  0  0
   -1.8585    0.3329    2.9557 O   0  0  0  0  0  1  0  0  0  0  0  0
    1.8944    0.0013    0.6090 C   0  0  0  0  0  0  0  0  0  0  0  0
    5.2737    0.6447    2.0215 H   0  0  0  0  0  0  0  0  0  0  0  0
    3.9417   -1.5843   -1.6132 H   0  0  0  0  0  0  0  0  0  0  0  0
    1.7504   -2.0907   -2.6489 H   0  0  0  0  0  0  0  0  0  0  0  0
   -0.3286   -1.2927   -1.6158 H   0  0  0  0  0  0  0  0  0  0  0  0
   -0.4216    0.3529    1.6518 H   0  0  0  0  0  0  0  0  0  0  0  0
   -1.1357    1.0128   -1.8785 H   0  0  0  0  0  0  0  0  0  0  0  0
   -3.4225    1.4095   -2.7280 H   0  0  0  0  0  0  0  0  0  0  0  0
   -5.1243    0.6270    0.9326 H   0  0  0  0  0  0  0  0  0  0  0  0
    1.9402    0.5979    1.5174 H   0  0  0  0  0  0  0  0  0  0  0  0
  1  2  2  0
  2  3  1  0
  2  4  1  0
  4  5  2  0
  5  6  1  0
  6  7  2  0
  7  8  1  0
  8  9  1  0
  9 10  1  0
 10 11  2  0
 11 12  1  0
 12 13  2  0
 13 14  1  0
 14 15  2  0
 15 16  1  0
 16 17  2  0
 16 18  1  0
  8 19  2  0
 19  4  1  0
 15 10  1  0
  3 20  1  0
  5 21  1  0
  6 22  1  0
  7 23  1  0
  9 24  1  0
 11 25  1  0
 12 26  1  0
 14 27  1  0
 19 28  1  0
M  CHG  2  16   1  18  -1
M  END
$$$$
