
     RDKit          3D

 50 50  0  0  0  0  0  0  0  0999 V2000
    7.0998   -0.2028    1.4240 C   0  0  0  0  0  0  0  0  0  0  0  0
    7.6103    0.0918    0.2147 C   0  0  0  0  0  0  0  0  0  0  0  0
    8.9409    0.7844    0.0815 C   0  0  0  0  0  0  0  0  0  0  0  0
    6.9119   -0.3064   -1.0653 C   0  0  0  0  0  0  0  0  0  0  0  0
    6.2814    1.1292   -1.9712 S   0  0  0  0  0  0  0  0  0  0  0  0
    4.9080    1.5731   -1.0046 C   0  0  0  0  0  0  0  0  0  0  0  0
    4.3619    2.7739   -1.0136 N   0  0  0  0  0  0  0  0  0  0  0  0
    3.2965    2.7361   -0.1386 N   0  0  0  0  0  0  0  0  0  0  0  0
    3.2587    1.5112    0.3368 C   0  0  0  0  0  0  0  0  0  0  0  0
    2.3265    0.9059    1.3160 C   0  0  0  0  0  0  0  0  0  0  0  0
    0.8601    1.0363    0.8958 C   0  0  0  0  0  0  0  0  0  0  0  0
    0.5172    0.2061   -0.3475 C   0  0  0  0  0  0  0  0  0  0  0  0
   -0.9422    0.3583   -0.7888 C   0  0  0  0  0  0  0  0  0  0  0  0
   -1.9366   -0.2421    0.1991 C   0  0  0  0  0  0  0  0  0  0  0  0
   -3.2928   -0.1339   -0.2895 N   0  0  0  0  0  0  0  0  0  0  0  0
   -4.3042   -0.8760    0.2471 C   0  0  0  0  0  0  0  0  0  0  0  0
   -4.1553   -1.8052    1.0236 O   0  0  0  0  0  0  0  0  0  0  0  0
   -5.4823   -0.3898   -0.2049 O   0  0  0  0  0  0  0  0  0  0  0  0
   -6.7382   -0.9745    0.2270 C   0  0  0  0  0  0  0  0  0  0  0  0
   -6.9292   -0.8327    1.7415 C   0  0  0  0  0  0  0  0  0  0  0  0
   -6.8610   -2.4314   -0.2329 C   0  0  0  0  0  0  0  0  0  0  0  0
   -7.8188   -0.1431   -0.4814 C   0  0  0  0  0  0  0  0  0  0  0  0
    4.2442    0.7107   -0.1696 O   0  0  0  0  0  0  0  0  0  0  0  0
    7.6152    0.0703    2.3419 H   0  0  0  0  0  0  0  0  0  0  0  0
    6.1524   -0.7217    1.5330 H   0  0  0  0  0  0  0  0  0  0  0  0
    9.3984    0.9825    1.0583 H   0  0  0  0  0  0  0  0  0  0  0  0
    9.6385    0.1610   -0.4902 H   0  0  0  0  0  0  0  0  0  0  0  0
    8.8326    1.7459   -0.4295 H   0  0  0  0  0  0  0  0  0  0  0  0
    7.6232   -0.8336   -1.7125 H   0  0  0  0  0  0  0  0  0  0  0  0
    6.0933   -1.0126   -0.8789 H   0  0  0  0  0  0  0  0  0  0  0  0
    2.4652    1.4141    2.2785 H   0  0  0  0  0  0  0  0  0  0  0  0
    2.5743   -0.1507    1.4789 H   0  0  0  0  0  0  0  0  0  0  0  0
    0.2421    0.7052    1.7382 H   0  0  0  0  0  0  0  0  0  0  0  0
    0.6131    2.0897    0.7146 H   0  0  0  0  0  0  0  0  0  0  0  0
    0.7374   -0.8519   -0.1610 H   0  0  0  0  0  0  0  0  0  0  0  0
    1.1545    0.5190   -1.1832 H   0  0  0  0  0  0  0  0  0  0  0  0
   -1.1725    1.4193   -0.9535 H   0  0  0  0  0  0  0  0  0  0  0  0
   -1.0648   -0.1367   -1.7614 H   0  0  0  0  0  0  0  0  0  0  0  0
   -1.7071   -1.2992    0.3827 H   0  0  0  0  0  0  0  0  0  0  0  0
   -1.9053    0.2795    1.1629 H   0  0  0  0  0  0  0  0  0  0  0  0
   -3.5998    0.7121   -0.7498 H   0  0  0  0  0  0  0  0  0  0  0  0
   -6.7493    0.2009    2.0613 H   0  0  0  0  0  0  0  0  0  0  0  0
   -6.2308   -1.4609    2.3035 H   0  0  0  0  0  0  0  0  0  0  0  0
   -7.9428   -1.1198    2.0433 H   0  0  0  0  0  0  0  0  0  0  0  0
   -6.1473   -3.0838    0.2780 H   0  0  0  0  0  0  0  0  0  0  0  0
   -7.8640   -2.8258   -0.0398 H   0  0  0  0  0  0  0  0  0  0  0  0
   -6.6528   -2.5186   -1.3056 H   0  0  0  0  0  0  0  0  0  0  0  0
   -7.7000   -0.1947   -1.5704 H   0  0  0  0  0  0  0  0  0  0  0  0
   -8.8275   -0.4848   -0.2263 H   0  0  0  0  0  0  0  0  0  0  0  0
   -7.7330    0.9161   -0.2123 H   0  0  0  0  0  0  0  0  0  0  0  0
  1  2  2  0
  2  3  1  0
  2  4  1  0
  4  5  1  0
  5  6  1  0
  6  7  2  0
  7  8  1  0
  8  9  2  0
  9 10  1  0
 10 11  1  0
 11 12  1  0
 12 13  1  0
 13 14  1  0
 14 15  1  0
 15 16  1  0
 16 17  2  0
 16 18  1  0
 18 19  1  0
 19 20  1  0
 19 21  1  0
 19 22  1  0
  9 23  1  0
 23  6  1  0
  1 24  1  0
  1 25  1  0
  3 26  1  0
  3 27  1  0
  3 28  1  0
  4 29  1  0
  4 30  1  0
 10 31  1  0
 10 32  1  0
 11 33  1  0
 11 34  1  0
 12 35  1  0
 12 36  1  0
 13 37  1  0
 13 38  1  0
 14 39  1  0
 14 40  1  0
 15 41  1  0
 20 42  1  0
 20 43  1  0
 20 44  1  0
 21 45  1  0
 21 46  1  0
 21 47  1  0
 22 48  1  0
 22 49  1  0
 22 50  1  0
M  END
$$$$
