
     RDKit          3D

 37 40  0  0  0  0  0  0  0  0999 V2000
    6.0115   -0.0178   -0.3860 C   0  0  0  0  0  0  0  0  0  0  0  0
    4.7561   -0.6141   -0.0868 O   0  0  0  0  0  0  0  0  0  0  0  0
    3.6413    0.1615   -0.2662 C   0  0  0  0  0  0  0  0  0  0  0  0
    3.6278    1.4776   -0.7175 C   0  0  0  0  0  0  0  0  0  0  0  0
    2.4224    2.1699   -0.8749 C   0  0  0  0  0  0  0  0  0  0  0  0
    1.2355    1.4997   -0.5574 C   0  0  0  0  0  0  0  0  0  0  0  0
   -0.0613    1.9310   -0.6367 N   0  0  0  0  0  0  0  0  0  0  0  0
   -0.9503    0.9499   -0.2530 C   0  0  0  0  0  0  0  0  0  0  0  0
   -2.3594    0.9871   -0.2345 C   0  0  0  0  0  0  0  0  0  0  0  0
   -3.1274    2.2115   -0.6660 C   0  0  0  0  0  0  0  0  0  0  0  0
   -3.0337   -0.1936    0.1836 C   0  0  0  0  0  0  0  0  0  0  0  0
   -4.4426   -0.2768    0.1918 C   0  0  0  0  0  0  0  0  0  0  0  0
   -5.0741   -1.4415    0.5918 C   0  0  0  0  0  0  0  0  0  0  0  0
   -4.4149   -2.5383    0.9835 N   0  0  0  0  0  0  0  0  0  0  0  0
   -3.0632   -2.4507    0.9770 C   0  0  0  0  0  0  0  0  0  0  0  0
   -2.2991   -1.3260    0.6055 C   0  0  0  0  0  0  0  0  0  0  0  0
   -0.8650   -1.3027    0.6397 C   0  0  0  0  0  0  0  0  0  0  0  0
   -0.1063   -2.4975    1.1674 C   0  0  0  0  0  0  0  0  0  0  0  0
   -0.1904   -0.1516    0.1422 C   0  0  0  0  0  0  0  0  0  0  0  0
    1.1977    0.1913   -0.0856 C   0  0  0  0  0  0  0  0  0  0  0  0
    2.4342   -0.4824    0.0458 C   0  0  0  0  0  0  0  0  0  0  0  0
    6.0749    0.2599   -1.4433 H   0  0  0  0  0  0  0  0  0  0  0  0
    6.7899   -0.7617   -0.1905 H   0  0  0  0  0  0  0  0  0  0  0  0
    6.2043    0.8434    0.2622 H   0  0  0  0  0  0  0  0  0  0  0  0
    4.5442    2.0027   -0.9666 H   0  0  0  0  0  0  0  0  0  0  0  0
    2.4162    3.1932   -1.2371 H   0  0  0  0  0  0  0  0  0  0  0  0
   -0.3278    2.8472   -0.9623 H   0  0  0  0  0  0  0  0  0  0  0  0
   -2.4696    3.0465   -0.9216 H   0  0  0  0  0  0  0  0  0  0  0  0
   -3.7293    1.9879   -1.5529 H   0  0  0  0  0  0  0  0  0  0  0  0
   -3.7799    2.5556    0.1432 H   0  0  0  0  0  0  0  0  0  0  0  0
   -5.0664    0.5556   -0.1154 H   0  0  0  0  0  0  0  0  0  0  0  0
   -6.1572   -1.5177    0.6010 H   0  0  0  0  0  0  0  0  0  0  0  0
   -2.5908   -3.3780    1.2892 H   0  0  0  0  0  0  0  0  0  0  0  0
    0.0306   -3.2383    0.3743 H   0  0  0  0  0  0  0  0  0  0  0  0
    0.8682   -2.2077    1.5635 H   0  0  0  0  0  0  0  0  0  0  0  0
   -0.6188   -2.9605    2.0160 H   0  0  0  0  0  0  0  0  0  0  0  0
    2.4729   -1.5144    0.3767 H   0  0  0  0  0  0  0  0  0  0  0  0
  1  2  1  0
  2  3  1  0
  3  4  2  0
  4  5  1  0
  5  6  2  0
  6  7  1  0
  7  8  1  0
  8  9  2  0
  9 10  1  0
  9 11  1  0
 11 12  2  0
 12 13  1  0
 13 14  2  0
 14 15  1  0
 15 16  2  0
 16 17  1  0
 17 18  1  0
 17 19  2  0
 19 20  1  0
 20 21  2  0
 21  3  1  0
 20  6  1  0
 19  8  1  0
 16 11  1  0
  1 22  1  0
  1 23  1  0
  1 24  1  0
  4 25  1  0
  5 26  1  0
  7 27  1  0
 10 28  1  0
 10 29  1  0
 10 30  1  0
 12 31  1  0
 13 32  1  0
 15 33  1  0
 18 34  1  0
 18 35  1  0
 18 36  1  0
 21 37  1  0
M  END
$$$$
