
     RDKit          3D

 61 64  0  0  0  0  0  0  0  0999 V2000
    8.8318   -0.0830   -2.7800 C   0  0  0  0  0  0  0  0  0  0  0  0
    7.5285   -0.2651   -2.0606 C   0  0  0  0  0  0  0  0  0  0  0  0
    6.3447   -0.4239   -2.7904 C   0  0  0  0  0  0  0  0  0  0  0  0
    5.1231   -0.5908   -2.1343 C   0  0  0  0  0  0  0  0  0  0  0  0
    5.0642   -0.6078   -0.7345 C   0  0  0  0  0  0  0  0  0  0  0  0
    3.7452   -0.7694   -0.0220 C   0  0  0  0  0  0  0  0  0  0  0  0
    3.2579    0.4774    0.5459 N   0  0  0  0  0  0  0  0  0  0  0  0
    2.9131    1.6120   -0.2800 C   0  0  0  0  0  0  0  0  0  0  0  0
    2.3834    2.6271    0.7138 C   0  0  0  0  0  0  0  0  0  0  0  0
    0.8625    2.5876    0.8229 C   0  0  0  0  0  0  0  0  0  0  0  0
    0.2160    3.6058    0.5920 O   0  0  0  0  0  0  0  0  0  0  0  0
    0.3403    1.3567    1.1754 N   0  0  0  0  0  0  0  0  0  0  0  0
   -1.0168    1.0149    1.3510 C   0  0  0  0  0  0  0  0  0  0  0  0
   -2.0726    1.9262    1.2544 C   0  0  0  0  0  0  0  0  0  0  0  0
   -3.3960    1.5034    1.4227 C   0  0  0  0  0  0  0  0  0  0  0  0
   -3.6626    0.1594    1.6836 C   0  0  0  0  0  0  0  0  0  0  0  0
   -5.3362   -0.4006    1.8706 S   0  0  0  0  0  6  0  0  0  0  0  0
   -5.3684   -1.2727    3.0260 O   0  0  0  0  0  0  0  0  0  0  0  0
   -6.2201    0.7414    1.7675 O   0  0  0  0  0  0  0  0  0  0  0  0
   -5.5712   -1.3554    0.4688 N   0  0  0  0  0  0  0  0  0  0  0  0
   -5.3775   -0.6429   -0.8268 C   0  0  0  0  0  0  0  0  0  0  0  0
   -5.8491   -1.5106   -1.9856 C   0  0  0  0  0  0  0  0  0  0  0  0
   -7.3483   -1.7832   -1.8985 C   0  0  0  0  0  0  0  0  0  0  0  0
   -7.8566   -1.7624   -0.4590 C   0  0  0  0  0  0  0  0  0  0  0  0
   -6.7881   -2.2213    0.5243 C   0  0  0  0  0  0  0  0  0  0  0  0
   -2.6201   -0.7599    1.8073 C   0  0  0  0  0  0  0  0  0  0  0  0
   -1.3015   -0.3284    1.6403 C   0  0  0  0  0  0  0  0  0  0  0  0
    3.0800    2.2890    2.0308 C   0  0  0  0  0  0  0  0  0  0  0  0
    3.4927    0.8473    1.8617 C   0  0  0  0  0  0  0  0  0  0  0  0
    3.9490    0.1393    2.7431 O   0  0  0  0  0  0  0  0  0  0  0  0
    6.2506   -0.4485   -0.0060 C   0  0  0  0  0  0  0  0  0  0  0  0
    7.4720   -0.2799   -0.6631 C   0  0  0  0  0  0  0  0  0  0  0  0
    9.0412   -0.9572   -3.4051 H   0  0  0  0  0  0  0  0  0  0  0  0
    8.7921    0.8103   -3.4112 H   0  0  0  0  0  0  0  0  0  0  0  0
    9.6653    0.0381   -2.0808 H   0  0  0  0  0  0  0  0  0  0  0  0
    6.3690   -0.4161   -3.8780 H   0  0  0  0  0  0  0  0  0  0  0  0
    4.2187   -0.7084   -2.7263 H   0  0  0  0  0  0  0  0  0  0  0  0
    3.8526   -1.5161    0.7739 H   0  0  0  0  0  0  0  0  0  0  0  0
    2.9748   -1.1425   -0.7071 H   0  0  0  0  0  0  0  0  0  0  0  0
    3.8246    1.9842   -0.7574 H   0  0  0  0  0  0  0  0  0  0  0  0
    2.1888    1.3142   -1.0444 H   0  0  0  0  0  0  0  0  0  0  0  0
    2.6432    3.6435    0.3937 H   0  0  0  0  0  0  0  0  0  0  0  0
    0.9970    0.5910    1.2848 H   0  0  0  0  0  0  0  0  0  0  0  0
   -1.9033    2.9805    1.0555 H   0  0  0  0  0  0  0  0  0  0  0  0
   -4.2026    2.2292    1.3471 H   0  0  0  0  0  0  0  0  0  0  0  0
   -5.9162    0.3112   -0.8325 H   0  0  0  0  0  0  0  0  0  0  0  0
   -4.3111   -0.4370   -0.9632 H   0  0  0  0  0  0  0  0  0  0  0  0
   -5.3065   -2.4646   -1.9711 H   0  0  0  0  0  0  0  0  0  0  0  0
   -5.6162   -1.0297   -2.9420 H   0  0  0  0  0  0  0  0  0  0  0  0
   -7.9005   -1.0352   -2.4808 H   0  0  0  0  0  0  0  0  0  0  0  0
   -7.5609   -2.7544   -2.3608 H   0  0  0  0  0  0  0  0  0  0  0  0
   -8.1732   -0.7437   -0.2034 H   0  0  0  0  0  0  0  0  0  0  0  0
   -8.7456   -2.3962   -0.3751 H   0  0  0  0  0  0  0  0  0  0  0  0
   -6.4777   -3.2492    0.2997 H   0  0  0  0  0  0  0  0  0  0  0  0
   -7.2161   -2.2438    1.5319 H   0  0  0  0  0  0  0  0  0  0  0  0
   -2.8300   -1.8046    2.0301 H   0  0  0  0  0  0  0  0  0  0  0  0
   -0.5022   -1.0592    1.7380 H   0  0  0  0  0  0  0  0  0  0  0  0
    2.4311    2.4006    2.9030 H   0  0  0  0  0  0  0  0  0  0  0  0
    3.9882    2.8867    2.1588 H   0  0  0  0  0  0  0  0  0  0  0  0
    6.2287   -0.4550    1.0830 H   0  0  0  0  0  0  0  0  0  0  0  0
    8.3773   -0.1584   -0.0729 H   0  0  0  0  0  0  0  0  0  0  0  0
  1  2  1  0
  2  3  2  0
  3  4  1  0
  4  5  2  0
  5  6  1  0
  6  7  1  0
  7  8  1  0
  8  9  1  0
  9 10  1  0
 10 11  2  0
 10 12  1  0
 12 13  1  0
 13 14  2  0
 14 15  1  0
 15 16  2  0
 16 17  1  0
 17 18  2  0
 17 19  2  0
 17 20  1  0
 20 21  1  0
 21 22  1  0
 22 23  1  0
 23 24  1  0
 24 25  1  0
 16 26  1  0
 26 27  2  0
  9 28  1  0
 28 29  1  0
 29 30  2  0
  5 31  1  0
 31 32  2  0
 32  2  1  0
 29  7  1  0
 27 13  1  0
 25 20  1  0
  1 33  1  0
  1 34  1  0
  1 35  1  0
  3 36  1  0
  4 37  1  0
  6 38  1  0
  6 39  1  0
  8 40  1  0
  8 41  1  0
  9 42  1  0
 12 43  1  0
 14 44  1  0
 15 45  1  0
 21 46  1  0
 21 47  1  0
 22 48  1  0
 22 49  1  0
 23 50  1  0
 23 51  1  0
 24 52  1  0
 24 53  1  0
 25 54  1  0
 25 55  1  0
 26 56  1  0
 27 57  1  0
 28 58  1  0
 28 59  1  0
 31 60  1  0
 32 61  1  0
M  END
$$$$
