
     RDKit          3D

 52 54  0  0  0  0  0  0  0  0999 V2000
    3.3761    1.8974   -1.1620 C   0  0  0  0  0  0  0  0  0  0  0  0
    3.0492    0.9395   -0.0177 C   0  0  0  0  0  0  0  0  0  0  0  0
    3.7557   -0.4245   -0.1600 C   0  0  0  0  0  0  0  0  0  0  0  0
    5.1424   -0.4861    0.4942 C   0  0  0  0  0  0  0  0  0  0  0  0
    6.2183    0.2978   -0.2118 C   0  0  0  0  0  0  0  0  0  0  0  0
    6.6584   -0.0817   -1.4875 C   0  0  0  0  0  0  0  0  0  0  0  0
    7.6544    0.6474   -2.1392 C   0  0  0  0  0  0  0  0  0  0  0  0
    8.2234    1.7591   -1.5210 C   0  0  0  0  0  0  0  0  0  0  0  0
    7.7996    2.1407   -0.2495 C   0  0  0  0  0  0  0  0  0  0  0  0
    6.8036    1.4127    0.4038 C   0  0  0  0  0  0  0  0  0  0  0  0
    1.5991    0.7492    0.0258 N   0  0  0  0  0  0  0  0  0  0  0  0
    0.9598    0.3672    1.1890 C   0  0  0  0  0  0  0  0  0  0  0  0
    1.5369    0.2185    2.2604 O   0  0  0  0  0  0  0  0  0  0  0  0
   -0.4994    0.0867    1.0820 C   0  0  0  0  0  0  0  0  0  0  0  0
   -1.0799   -0.7836    2.0096 C   0  0  0  0  0  0  0  0  0  0  0  0
   -2.4463   -1.0755    1.9444 C   0  0  0  0  0  0  0  0  0  0  0  0
   -3.2546   -0.4959    0.9584 C   0  0  0  0  0  0  0  0  0  0  0  0
   -4.6209   -0.8466    0.9579 N   0  0  0  0  0  0  0  0  0  0  0  0
   -5.6109   -0.3600    0.1233 C   0  0  0  0  0  0  0  0  0  0  0  0
   -5.4917    0.5049   -0.7355 O   0  0  0  0  0  0  0  0  0  0  0  0
   -6.9617   -0.9468    0.3454 C   0  0  0  0  0  0  0  0  0  0  0  0
   -7.1327   -2.3027    0.6599 C   0  0  0  0  0  0  0  0  0  0  0  0
   -8.4165   -2.8157    0.8575 C   0  0  0  0  0  0  0  0  0  0  0  0
   -9.5286   -1.9816    0.7338 C   0  0  0  0  0  0  0  0  0  0  0  0
   -9.3551   -0.6377    0.4026 C   0  0  0  0  0  0  0  0  0  0  0  0
  -10.8663    0.4843    0.2242 Br  0  0  0  0  0  0  0  0  0  0  0  0
   -8.0792   -0.1156    0.2020 C   0  0  0  0  0  0  0  0  0  0  0  0
   -2.6733    0.3828    0.0419 C   0  0  0  0  0  0  0  0  0  0  0  0
   -1.3050    0.6793    0.1045 C   0  0  0  0  0  0  0  0  0  0  0  0
    3.1081    1.4633   -2.1318 H   0  0  0  0  0  0  0  0  0  0  0  0
    2.8090    2.8294   -1.0557 H   0  0  0  0  0  0  0  0  0  0  0  0
    4.4345    2.1621   -1.1882 H   0  0  0  0  0  0  0  0  0  0  0  0
    3.3407    1.4081    0.9301 H   0  0  0  0  0  0  0  0  0  0  0  0
    3.8036   -0.7201   -1.2155 H   0  0  0  0  0  0  0  0  0  0  0  0
    3.1497   -1.1960    0.3339 H   0  0  0  0  0  0  0  0  0  0  0  0
    5.4679   -1.5343    0.5302 H   0  0  0  0  0  0  0  0  0  0  0  0
    5.0658   -0.1687    1.5419 H   0  0  0  0  0  0  0  0  0  0  0  0
    6.2294   -0.9511   -1.9805 H   0  0  0  0  0  0  0  0  0  0  0  0
    7.9885    0.3459   -3.1285 H   0  0  0  0  0  0  0  0  0  0  0  0
    8.9997    2.3258   -2.0281 H   0  0  0  0  0  0  0  0  0  0  0  0
    8.2453    3.0052    0.2354 H   0  0  0  0  0  0  0  0  0  0  0  0
    6.4848    1.7244    1.3964 H   0  0  0  0  0  0  0  0  0  0  0  0
    1.1237    0.6039   -0.8544 H   0  0  0  0  0  0  0  0  0  0  0  0
   -0.4684   -1.2382    2.7871 H   0  0  0  0  0  0  0  0  0  0  0  0
   -2.8633   -1.7583    2.6801 H   0  0  0  0  0  0  0  0  0  0  0  0
   -4.9098   -1.4752    1.6960 H   0  0  0  0  0  0  0  0  0  0  0  0
   -6.2821   -2.9764    0.7230 H   0  0  0  0  0  0  0  0  0  0  0  0
   -8.5532   -3.8681    1.0965 H   0  0  0  0  0  0  0  0  0  0  0  0
  -10.5251   -2.3893    0.8866 H   0  0  0  0  0  0  0  0  0  0  0  0
   -7.9452    0.9312   -0.0630 H   0  0  0  0  0  0  0  0  0  0  0  0
   -3.2595    0.8661   -0.7338 H   0  0  0  0  0  0  0  0  0  0  0  0
   -0.8990    1.3966   -0.6033 H   0  0  0  0  0  0  0  0  0  0  0  0
  1  2  1  0
  2  3  1  0
  3  4  1  0
  4  5  1  0
  5  6  2  0
  6  7  1  0
  7  8  2  0
  8  9  1  0
  9 10  2  0
  2 11  1  0
 11 12  1  0
 12 13  2  0
 12 14  1  0
 14 15  2  0
 15 16  1  0
 16 17  2  0
 17 18  1  0
 18 19  1  0
 19 20  2  0
 19 21  1  0
 21 22  2  0
 22 23  1  0
 23 24  2  0
 24 25  1  0
 25 26  1  0
 25 27  2  0
 17 28  1  0
 28 29  2  0
 10  5  1  0
 29 14  1  0
 27 21  1  0
  1 30  1  0
  1 31  1  0
  1 32  1  0
  2 33  1  0
  3 34  1  0
  3 35  1  0
  4 36  1  0
  4 37  1  0
  6 38  1  0
  7 39  1  0
  8 40  1  0
  9 41  1  0
 10 42  1  0
 11 43  1  0
 15 44  1  0
 16 45  1  0
 18 46  1  0
 22 47  1  0
 23 48  1  0
 24 49  1  0
 27 50  1  0
 28 51  1  0
 29 52  1  0
M  END
$$$$
