
     RDKit          3D

 57 58  0  0  0  0  0  0  0  0999 V2000
    7.8426   -2.4735    2.6118 C   0  0  0  0  0  0  0  0  0  0  0  0
    8.4294   -1.5119    1.5900 C   0  0  0  0  0  0  0  0  0  0  0  0
    7.5885   -0.2536    1.3826 C   0  0  0  0  0  0  0  0  0  0  0  0
    6.2076   -0.5287    0.7904 C   0  0  0  0  0  0  0  0  0  0  0  0
    5.5783    0.7315    0.5523 O   0  0  0  0  0  0  0  0  0  0  0  0
    4.3151    0.7096    0.0301 C   0  0  0  0  0  0  0  0  0  0  0  0
    3.7429    1.9672   -0.1650 C   0  0  0  0  0  0  0  0  0  0  0  0
    2.4533    2.0926   -0.6882 C   0  0  0  0  0  0  0  0  0  0  0  0
    1.7102    0.9560   -1.0357 C   0  0  0  0  0  0  0  0  0  0  0  0
    0.2965    1.1167   -1.5674 C   0  0  0  0  0  0  0  0  0  0  0  0
    0.0392    0.2835   -2.8268 C   0  0  0  0  0  0  0  0  0  0  0  0
   -0.6518    0.7912   -0.5122 N   0  0  0  0  0  0  0  0  0  0  0  0
   -1.9473    1.2517   -0.5313 C   0  0  0  0  0  0  0  0  0  0  0  0
   -2.4271    1.8948   -1.4567 O   0  0  0  0  0  0  0  0  0  0  0  0
   -2.7385    0.8423    0.6878 C   0  0  0  0  0  0  0  0  0  0  0  0
   -4.0684    1.5730    0.7513 C   0  0  0  0  0  0  0  0  0  0  0  0
   -5.0961    0.9786    2.0840 S   0  0  0  0  0  6  0  0  0  0  0  0
   -4.2408    0.8261    3.2493 O   0  0  0  0  0  0  0  0  0  0  0  0
   -6.2609    1.8416    2.1633 O   0  0  0  0  0  0  0  0  0  0  0  0
   -5.6377   -0.6664    1.6142 C   0  0  0  0  0  0  0  0  0  0  0  0
   -6.2546   -0.6798    0.2410 C   0  0  0  0  0  0  0  0  0  0  0  0
   -5.5697   -1.2552   -0.8412 C   0  0  0  0  0  0  0  0  0  0  0  0
   -6.1368   -1.2661   -2.1175 C   0  0  0  0  0  0  0  0  0  0  0  0
   -7.3991   -0.7131   -2.3267 C   0  0  0  0  0  0  0  0  0  0  0  0
   -8.0928   -0.1535   -1.2574 C   0  0  0  0  0  0  0  0  0  0  0  0
   -9.6556    0.5191   -1.5124 Cl  0  0  0  0  0  0  0  0  0  0  0  0
   -7.5302   -0.1365    0.0196 C   0  0  0  0  0  0  0  0  0  0  0  0
    2.2893   -0.3057   -0.8280 C   0  0  0  0  0  0  0  0  0  0  0  0
    3.5825   -0.4279   -0.3040 C   0  0  0  0  0  0  0  0  0  0  0  0
    8.5335   -3.3054    2.7843 H   0  0  0  0  0  0  0  0  0  0  0  0
    7.6694   -1.9731    3.5700 H   0  0  0  0  0  0  0  0  0  0  0  0
    6.8954   -2.8972    2.2657 H   0  0  0  0  0  0  0  0  0  0  0  0
    9.4283   -1.2110    1.9277 H   0  0  0  0  0  0  0  0  0  0  0  0
    8.5619   -2.0329    0.6348 H   0  0  0  0  0  0  0  0  0  0  0  0
    8.1302    0.4302    0.7168 H   0  0  0  0  0  0  0  0  0  0  0  0
    7.4776    0.2875    2.3305 H   0  0  0  0  0  0  0  0  0  0  0  0
    5.6086   -1.1110    1.4991 H   0  0  0  0  0  0  0  0  0  0  0  0
    6.3165   -1.0769   -0.1530 H   0  0  0  0  0  0  0  0  0  0  0  0
    4.3060    2.8602    0.0966 H   0  0  0  0  0  0  0  0  0  0  0  0
    2.0348    3.0888   -0.8190 H   0  0  0  0  0  0  0  0  0  0  0  0
    0.1367    2.1685   -1.8392 H   0  0  0  0  0  0  0  0  0  0  0  0
    0.7905    0.4929   -3.5963 H   0  0  0  0  0  0  0  0  0  0  0  0
    0.0555   -0.7919   -2.6187 H   0  0  0  0  0  0  0  0  0  0  0  0
   -0.9452    0.5093   -3.2508 H   0  0  0  0  0  0  0  0  0  0  0  0
   -0.2821    0.3874    0.3395 H   0  0  0  0  0  0  0  0  0  0  0  0
   -2.8864   -0.2414    0.6404 H   0  0  0  0  0  0  0  0  0  0  0  0
   -2.1469    1.0606    1.5845 H   0  0  0  0  0  0  0  0  0  0  0  0
   -4.6386    1.5064   -0.1789 H   0  0  0  0  0  0  0  0  0  0  0  0
   -3.8987    2.6385    0.9458 H   0  0  0  0  0  0  0  0  0  0  0  0
   -4.7692   -1.3301    1.6724 H   0  0  0  0  0  0  0  0  0  0  0  0
   -6.3622   -1.0002    2.3646 H   0  0  0  0  0  0  0  0  0  0  0  0
   -4.5869   -1.7032   -0.7062 H   0  0  0  0  0  0  0  0  0  0  0  0
   -5.5950   -1.7070   -2.9511 H   0  0  0  0  0  0  0  0  0  0  0  0
   -7.8362   -0.7235   -3.3217 H   0  0  0  0  0  0  0  0  0  0  0  0
   -8.0891    0.3095    0.8417 H   0  0  0  0  0  0  0  0  0  0  0  0
    1.7390   -1.2127   -1.0680 H   0  0  0  0  0  0  0  0  0  0  0  0
    3.9842   -1.4262   -0.1677 H   0  0  0  0  0  0  0  0  0  0  0  0
  1  2  1  0
  2  3  1  0
  3  4  1  0
  4  5  1  0
  5  6  1  0
  6  7  2  0
  7  8  1  0
  8  9  2  0
  9 10  1  0
 10 11  1  0
 10 12  1  0
 12 13  1  0
 13 14  2  0
 13 15  1  0
 15 16  1  0
 16 17  1  0
 17 18  2  0
 17 19  2  0
 17 20  1  0
 20 21  1  0
 21 22  2  0
 22 23  1  0
 23 24  2  0
 24 25  1  0
 25 26  1  0
 25 27  2  0
  9 28  1  0
 28 29  2  0
 29  6  1  0
 27 21  1  0
  1 30  1  0
  1 31  1  0
  1 32  1  0
  2 33  1  0
  2 34  1  0
  3 35  1  0
  3 36  1  0
  4 37  1  0
  4 38  1  0
  7 39  1  0
  8 40  1  0
 10 41  1  0
 11 42  1  0
 11 43  1  0
 11 44  1  0
 12 45  1  0
 15 46  1  0
 15 47  1  0
 16 48  1  0
 16 49  1  0
 20 50  1  0
 20 51  1  0
 22 52  1  0
 23 53  1  0
 24 54  1  0
 27 55  1  0
 28 56  1  0
 29 57  1  0
M  END
$$$$
