
     RDKit          3D

 40 41  0  0  0  0  0  0  0  0999 V2000
    7.6692   -1.7160   -0.9809 C   0  0  0  0  0  0  0  0  0  0  0  0
    7.1913   -0.4314   -0.6025 O   0  0  0  0  0  0  0  0  0  0  0  0
    5.9302   -0.3742   -0.0758 C   0  0  0  0  0  0  0  0  0  0  0  0
    5.0984   -1.4623    0.1846 C   0  0  0  0  0  0  0  0  0  0  0  0
    3.8251   -1.2610    0.7296 C   0  0  0  0  0  0  0  0  0  0  0  0
    3.3663    0.0304    1.0223 C   0  0  0  0  0  0  0  0  0  0  0  0
    1.9913    0.2415    1.6106 C   0  0  0  0  0  0  0  0  0  0  0  0
    0.8498    0.0788    0.6278 C   0  0  0  0  0  0  0  0  0  0  0  0
    0.9451   -0.3425   -0.5180 O   0  0  0  0  0  0  0  0  0  0  0  0
   -0.3085    0.4699    1.2694 O   0  0  0  0  0  0  0  0  0  0  0  0
   -1.4175    0.2630    0.4280 N   0  0  0  0  0  0  0  0  0  0  0  0
   -2.5259    0.6469    0.9893 C   0  0  0  0  0  0  0  0  0  0  0  0
   -2.5809    1.2130    2.2446 N   0  0  0  0  0  0  0  0  0  0  0  0
   -3.7988    0.4775    0.2144 C   0  0  0  0  0  0  0  0  0  0  0  0
   -5.0382    0.4802    0.8650 C   0  0  0  0  0  0  0  0  0  0  0  0
   -6.2182    0.3304    0.1300 C   0  0  0  0  0  0  0  0  0  0  0  0
   -6.1738    0.1623   -1.2593 C   0  0  0  0  0  0  0  0  0  0  0  0
   -7.4421    0.0324   -2.0503 C   0  0  0  0  0  0  0  0  0  0  0  0
   -4.9328    0.1646   -1.9069 C   0  0  0  0  0  0  0  0  0  0  0  0
   -3.7519    0.3129   -1.1746 C   0  0  0  0  0  0  0  0  0  0  0  0
    4.2038    1.1192    0.7540 C   0  0  0  0  0  0  0  0  0  0  0  0
    5.4757    0.9140    0.2131 C   0  0  0  0  0  0  0  0  0  0  0  0
    7.7618   -2.3742   -0.1107 H   0  0  0  0  0  0  0  0  0  0  0  0
    7.0327   -2.1644   -1.7510 H   0  0  0  0  0  0  0  0  0  0  0  0
    8.6684   -1.5882   -1.4086 H   0  0  0  0  0  0  0  0  0  0  0  0
    5.4044   -2.4809   -0.0283 H   0  0  0  0  0  0  0  0  0  0  0  0
    3.1874   -2.1242    0.9112 H   0  0  0  0  0  0  0  0  0  0  0  0
    1.9334    1.2503    2.0379 H   0  0  0  0  0  0  0  0  0  0  0  0
    1.8445   -0.4719    2.4306 H   0  0  0  0  0  0  0  0  0  0  0  0
   -3.2716    1.9480    2.3529 H   0  0  0  0  0  0  0  0  0  0  0  0
   -1.6663    1.5063    2.5688 H   0  0  0  0  0  0  0  0  0  0  0  0
   -5.1015    0.5741    1.9451 H   0  0  0  0  0  0  0  0  0  0  0  0
   -7.1734    0.3355    0.6506 H   0  0  0  0  0  0  0  0  0  0  0  0
   -7.8010    1.0228   -2.3465 H   0  0  0  0  0  0  0  0  0  0  0  0
   -8.2201   -0.4651   -1.4616 H   0  0  0  0  0  0  0  0  0  0  0  0
   -7.2816   -0.5699   -2.9506 H   0  0  0  0  0  0  0  0  0  0  0  0
   -4.8738    0.0459   -2.9868 H   0  0  0  0  0  0  0  0  0  0  0  0
   -2.7969    0.3024   -1.6965 H   0  0  0  0  0  0  0  0  0  0  0  0
    3.8785    2.1364    0.9587 H   0  0  0  0  0  0  0  0  0  0  0  0
    6.1173    1.7675    0.0082 H   0  0  0  0  0  0  0  0  0  0  0  0
  1  2  1  0
  2  3  1  0
  3  4  2  0
  4  5  1  0
  5  6  2  0
  6  7  1  0
  7  8  1  0
  8  9  2  0
  8 10  1  0
 10 11  1  0
 11 12  2  3
 12 13  1  0
 12 14  1  0
 14 15  2  0
 15 16  1  0
 16 17  2  0
 17 18  1  0
 17 19  1  0
 19 20  2  0
  6 21  1  0
 21 22  2  0
 22  3  1  0
 20 14  1  0
  1 23  1  0
  1 24  1  0
  1 25  1  0
  4 26  1  0
  5 27  1  0
  7 28  1  0
  7 29  1  0
 13 30  1  0
 13 31  1  0
 15 32  1  0
 16 33  1  0
 18 34  1  0
 18 35  1  0
 18 36  1  0
 19 37  1  0
 20 38  1  0
 21 39  1  0
 22 40  1  0
M  END
$$$$
