
     RDKit          3D

 53 58  0  0  0  0  0  0  0  0999 V2000
   -1.4658    2.1141    0.1410 O   0  0  0  0  0  0  0  0  0  0  0  0
   -1.6009    0.9752    0.5872 C   0  0  0  0  0  0  0  0  0  0  0  0
   -0.4794    0.3477    1.4348 C   0  0  0  0  0  0  0  0  0  0  0  0
    0.8369    0.4420    0.7829 N   0  0  0  0  0  4  0  0  0  0  0  0
    1.6461   -0.6238    0.3871 C   0  0  0  0  0  0  0  0  0  0  0  0
    2.8136   -0.1220   -0.1727 C   0  0  0  0  0  0  0  0  0  0  0  0
    3.9922   -0.9600   -0.7860 C   0  0  0  0  0  0  0  0  0  0  0  0
    3.9673   -2.3587   -0.7146 C   0  0  0  0  0  0  0  0  0  0  0  0
    5.0155   -3.1086   -1.2552 C   0  0  0  0  0  0  0  0  0  0  0  0
    6.0888   -2.4680   -1.8688 C   0  0  0  0  0  0  0  0  0  0  0  0
    6.1122   -1.0785   -1.9511 C   0  0  0  0  0  0  0  0  0  0  0  0
    5.0651   -0.3248   -1.4132 C   0  0  0  0  0  0  0  0  0  0  0  0
    2.6639    1.2460   -0.0402 N   0  0  0  0  0  0  0  0  0  0  0  0
    1.4932    1.5676    0.5055 C   0  0  0  0  0  0  0  0  0  0  0  0
    1.3261    3.0309    0.6903 C   0  0  0  0  0  0  0  0  0  0  0  0
    2.7714    3.5360    0.5219 C   0  0  0  0  0  0  0  0  0  0  0  0
    3.4802    2.4258   -0.2985 C   0  0  0  0  0  0  0  0  0  0  0  0
   -2.7494    0.1791    0.4866 N   0  0  0  0  0  0  0  0  0  0  0  0
   -2.6537   -1.1354   -0.0965 C   0  0  0  0  0  0  0  0  0  0  0  0
   -1.5905   -1.4158   -0.9836 C   0  0  0  0  0  0  0  0  0  0  0  0
   -1.4338   -2.6756   -1.5676 C   0  0  0  0  0  0  0  0  0  0  0  0
   -2.3454   -3.6830   -1.2870 C   0  0  0  0  0  0  0  0  0  0  0  0
   -3.4237   -3.4189   -0.4466 C   0  0  0  0  0  0  0  0  0  0  0  0
   -3.5915   -2.1505    0.1360 C   0  0  0  0  0  0  0  0  0  0  0  0
   -4.9926   -1.9260    1.1892 S   0  0  0  0  0  0  0  0  0  0  0  0
   -5.1386   -0.1566    1.1263 C   0  0  0  0  0  0  0  0  0  0  0  0
   -6.3919    0.3745    1.4806 C   0  0  0  0  0  0  0  0  0  0  0  0
   -6.5894    1.7505    1.5569 C   0  0  0  0  0  0  0  0  0  0  0  0
   -5.5302    2.6037    1.2911 C   0  0  0  0  0  0  0  0  0  0  0  0
   -4.2780    2.0814    0.9475 C   0  0  0  0  0  0  0  0  0  0  0  0
   -4.0531    0.6924    0.8362 C   0  0  0  0  0  0  0  0  0  0  0  0
   -0.6845   -0.6949    1.6912 H   0  0  0  0  0  0  0  0  0  0  0  0
   -0.4244    0.9043    2.3771 H   0  0  0  0  0  0  0  0  0  0  0  0
    1.2756   -1.6229    0.5448 H   0  0  0  0  0  0  0  0  0  0  0  0
    3.1561   -2.8976   -0.2370 H   0  0  0  0  0  0  0  0  0  0  0  0
    5.0012   -4.1964   -1.1992 H   0  0  0  0  0  0  0  0  0  0  0  0
    6.9030   -3.0544   -2.2890 H   0  0  0  0  0  0  0  0  0  0  0  0
    6.9489   -0.5840   -2.4398 H   0  0  0  0  0  0  0  0  0  0  0  0
    5.1164    0.7507   -1.5148 H   0  0  0  0  0  0  0  0  0  0  0  0
    0.9038    3.2245    1.6777 H   0  0  0  0  0  0  0  0  0  0  0  0
    0.6821    3.3842   -0.1175 H   0  0  0  0  0  0  0  0  0  0  0  0
    3.2425    3.6024    1.5100 H   0  0  0  0  0  0  0  0  0  0  0  0
    2.8342    4.5193    0.0505 H   0  0  0  0  0  0  0  0  0  0  0  0
    3.4510    2.6452   -1.3706 H   0  0  0  0  0  0  0  0  0  0  0  0
    4.5055    2.2790    0.0452 H   0  0  0  0  0  0  0  0  0  0  0  0
   -0.8977   -0.6371   -1.2948 H   0  0  0  0  0  0  0  0  0  0  0  0
   -0.6199   -2.8624   -2.2642 H   0  0  0  0  0  0  0  0  0  0  0  0
   -2.2373   -4.6660   -1.7413 H   0  0  0  0  0  0  0  0  0  0  0  0
   -4.1452   -4.2132   -0.2546 H   0  0  0  0  0  0  0  0  0  0  0  0
   -7.2263   -0.2867    1.7099 H   0  0  0  0  0  0  0  0  0  0  0  0
   -7.5654    2.1505    1.8249 H   0  0  0  0  0  0  0  0  0  0  0  0
   -5.6783    3.6813    1.3403 H   0  0  0  0  0  0  0  0  0  0  0  0
   -3.5057    2.8131    0.7316 H   0  0  0  0  0  0  0  0  0  0  0  0
  1  2  2  0
  2  3  1  0
  3  4  1  0
  4  5  1  0
  5  6  2  0
  6  7  1  0
  7  8  2  0
  8  9  1  0
  9 10  2  0
 10 11  1  0
 11 12  2  0
  6 13  1  0
 13 14  1  0
 14 15  1  0
 15 16  1  0
 16 17  1  0
  2 18  1  0
 18 19  1  0
 19 20  2  0
 20 21  1  0
 21 22  2  0
 22 23  1  0
 23 24  2  0
 24 25  1  0
 25 26  1  0
 26 27  2  0
 27 28  1  0
 28 29  2  0
 29 30  1  0
 30 31  2  0
 14  4  2  0
 31 18  1  0
 12  7  1  0
 17 13  1  0
 24 19  1  0
 31 26  1  0
  3 32  1  0
  3 33  1  0
  5 34  1  0
  8 35  1  0
  9 36  1  0
 10 37  1  0
 11 38  1  0
 12 39  1  0
 15 40  1  0
 15 41  1  0
 16 42  1  0
 16 43  1  0
 17 44  1  0
 17 45  1  0
 20 46  1  0
 21 47  1  0
 22 48  1  0
 23 49  1  0
 27 50  1  0
 28 51  1  0
 29 52  1  0
 30 53  1  0
M  CHG  1   4   1
M  END
$$$$
