
     RDKit          3D

 58 61  0  0  0  0  0  0  0  0999 V2000
    2.2159    0.6976   -0.9476 O   0  0  0  0  0  0  0  0  0  0  0  0
    2.0983    0.4406    0.2484 C   0  0  0  0  0  0  0  0  0  0  0  0
    3.0623    0.8997    1.3243 C   0  0  0  0  0  0  0  0  0  0  0  0
    4.4138    1.3595    0.7743 C   0  0  0  0  0  0  0  0  0  0  0  0
    5.2734    0.2324    0.1668 C   0  0  0  0  0  0  0  0  0  0  0  0
    5.5773   -0.8859    1.1837 C   0  0  0  0  0  0  0  0  0  0  0  0
    6.8515   -1.6765    0.8740 C   0  0  0  0  0  0  0  0  0  0  0  0
    7.1740   -1.6827   -0.6128 C   0  0  0  0  0  0  0  0  0  0  0  0
    7.3868   -0.2680   -1.1512 C   0  0  0  0  0  0  0  0  0  0  0  0
    6.5777    0.7997   -0.4084 C   0  0  0  0  0  0  0  0  0  0  0  0
    1.0325   -0.2836    0.7533 N   0  0  0  0  0  0  0  0  0  0  0  0
   -0.0500   -0.5094   -0.1328 N   0  0  0  0  0  0  0  0  0  0  0  0
   -1.2995   -0.1735    0.3559 C   0  0  0  0  0  0  0  0  0  0  0  0
   -1.4876    0.1411    1.5251 O   0  0  0  0  0  0  0  0  0  0  0  0
   -2.2590   -0.2554   -0.6222 N   0  0  0  0  0  0  0  0  0  0  0  0
   -3.6913   -0.0415   -0.3880 C   0  0  0  0  0  0  0  0  0  0  0  0
   -4.2739   -1.0958    0.5853 C   0  0  0  0  0  0  0  0  0  0  0  0
   -5.7878   -0.8855    0.7665 C   0  0  0  0  0  0  0  0  0  0  0  0
   -6.0401    0.5260    1.3232 C   0  0  0  0  0  0  0  0  0  0  0  0
   -5.4983    1.5854    0.3480 C   0  0  0  0  0  0  0  0  0  0  0  0
   -6.2007    1.4316   -1.0099 C   0  0  0  0  0  0  0  0  0  0  0  0
   -5.9445    0.0262   -1.5754 C   0  0  0  0  0  0  0  0  0  0  0  0
   -6.4877   -1.0253   -0.5951 C   0  0  0  0  0  0  0  0  0  0  0  0
   -4.4309   -0.1794   -1.7467 C   0  0  0  0  0  0  0  0  0  0  0  0
   -3.9842    1.3771    0.1650 C   0  0  0  0  0  0  0  0  0  0  0  0
    3.1924    0.1035    2.0649 H   0  0  0  0  0  0  0  0  0  0  0  0
    2.5853    1.7442    1.8370 H   0  0  0  0  0  0  0  0  0  0  0  0
    4.9733    1.8369    1.5890 H   0  0  0  0  0  0  0  0  0  0  0  0
    4.2499    2.1351    0.0151 H   0  0  0  0  0  0  0  0  0  0  0  0
    4.7148   -0.2119   -0.6679 H   0  0  0  0  0  0  0  0  0  0  0  0
    5.6657   -0.4783    2.1982 H   0  0  0  0  0  0  0  0  0  0  0  0
    4.7258   -1.5778    1.2044 H   0  0  0  0  0  0  0  0  0  0  0  0
    6.7447   -2.7021    1.2444 H   0  0  0  0  0  0  0  0  0  0  0  0
    7.6934   -1.2347    1.4221 H   0  0  0  0  0  0  0  0  0  0  0  0
    8.0669   -2.2879   -0.8055 H   0  0  0  0  0  0  0  0  0  0  0  0
    6.3504   -2.1603   -1.1582 H   0  0  0  0  0  0  0  0  0  0  0  0
    8.4503   -0.0042   -1.0935 H   0  0  0  0  0  0  0  0  0  0  0  0
    7.1266   -0.2560   -2.2167 H   0  0  0  0  0  0  0  0  0  0  0  0
    6.3736    1.6343   -1.0908 H   0  0  0  0  0  0  0  0  0  0  0  0
    7.1886    1.2091    0.4082 H   0  0  0  0  0  0  0  0  0  0  0  0
    0.7492   -0.1459    1.7252 H   0  0  0  0  0  0  0  0  0  0  0  0
    0.1482   -0.2047   -1.0856 H   0  0  0  0  0  0  0  0  0  0  0  0
   -2.0232   -0.9091   -1.3545 H   0  0  0  0  0  0  0  0  0  0  0  0
   -4.0811   -2.1079    0.2061 H   0  0  0  0  0  0  0  0  0  0  0  0
   -3.7827   -1.0370    1.5641 H   0  0  0  0  0  0  0  0  0  0  0  0
   -6.1824   -1.6340    1.4626 H   0  0  0  0  0  0  0  0  0  0  0  0
   -5.5559    0.6351    2.3015 H   0  0  0  0  0  0  0  0  0  0  0  0
   -7.1152    0.6793    1.4810 H   0  0  0  0  0  0  0  0  0  0  0  0
   -5.6870    2.5875    0.7489 H   0  0  0  0  0  0  0  0  0  0  0  0
   -7.2791    1.5999   -0.8961 H   0  0  0  0  0  0  0  0  0  0  0  0
   -5.8321    2.1913   -1.7109 H   0  0  0  0  0  0  0  0  0  0  0  0
   -6.4444   -0.0788   -2.5450 H   0  0  0  0  0  0  0  0  0  0  0  0
   -7.5706   -0.9012   -0.4749 H   0  0  0  0  0  0  0  0  0  0  0  0
   -6.3261   -2.0322   -0.9978 H   0  0  0  0  0  0  0  0  0  0  0  0
   -4.2421   -1.1708   -2.1806 H   0  0  0  0  0  0  0  0  0  0  0  0
   -4.0365    0.5501   -2.4669 H   0  0  0  0  0  0  0  0  0  0  0  0
   -3.5814    2.1384   -0.5162 H   0  0  0  0  0  0  0  0  0  0  0  0
   -3.4876    1.5357    1.1291 H   0  0  0  0  0  0  0  0  0  0  0  0
  1  2  2  0
  2  3  1  0
  3  4  1  0
  4  5  1  0
  5  6  1  0
  6  7  1  0
  7  8  1  0
  8  9  1  0
  9 10  1  0
  2 11  1  0
 11 12  1  0
 12 13  1  0
 13 14  2  0
 13 15  1  0
 15 16  1  0
 16 17  1  0
 17 18  1  0
 18 19  1  0
 19 20  1  0
 20 21  1  0
 21 22  1  0
 22 23  1  0
 22 24  1  0
 20 25  1  0
 10  5  1  0
 24 16  1  0
 25 16  1  0
 23 18  1  0
  3 26  1  0
  3 27  1  0
  4 28  1  0
  4 29  1  0
  5 30  1  0
  6 31  1  0
  6 32  1  0
  7 33  1  0
  7 34  1  0
  8 35  1  0
  8 36  1  0
  9 37  1  0
  9 38  1  0
 10 39  1  0
 10 40  1  0
 11 41  1  0
 12 42  1  0
 15 43  1  0
 17 44  1  0
 17 45  1  0
 18 46  1  0
 19 47  1  0
 19 48  1  0
 20 49  1  0
 21 50  1  0
 21 51  1  0
 22 52  1  0
 23 53  1  0
 23 54  1  0
 24 55  1  0
 24 56  1  0
 25 57  1  0
 25 58  1  0
M  END
$$$$
