
     RDKit          3D

 50 52  0  0  0  0  0  0  0  0999 V2000
   -4.8379    0.3952    1.9598 C   0  0  0  0  0  0  0  0  0  0  0  0
   -4.1498    1.1306    0.8148 C   0  0  0  0  0  0  0  0  0  0  0  0
   -2.8411    0.4813    0.3158 C   0  0  0  0  0  0  0  0  0  0  0  0
   -2.9756   -0.9922   -0.0656 C   0  0  0  0  0  0  0  0  0  0  0  0
   -3.8665   -1.3704   -1.0914 C   0  0  0  0  0  0  0  0  0  0  0  0
   -4.0110   -2.7093   -1.4670 C   0  0  0  0  0  0  0  0  0  0  0  0
   -3.2697   -3.6962   -0.8258 C   0  0  0  0  0  0  0  0  0  0  0  0
   -2.3860   -3.3464    0.1905 C   0  0  0  0  0  0  0  0  0  0  0  0
   -2.2389   -2.0083    0.5672 C   0  0  0  0  0  0  0  0  0  0  0  0
   -2.3399    1.2175   -0.8335 N   0  0  0  0  0  0  0  0  0  0  0  0
   -1.0849    1.7298   -0.6442 C   0  0  0  0  0  0  0  0  0  0  0  0
   -0.4798    2.3582   -1.4990 O   0  0  0  0  0  0  0  0  0  0  0  0
   -0.6776    1.4401    0.6146 N   0  0  0  0  0  0  0  0  0  0  0  0
    0.5620    1.8827    1.2233 C   0  0  0  0  0  0  0  0  0  0  0  0
    1.4745    0.6861    1.5169 C   0  0  0  0  0  0  0  0  0  0  0  0
    1.7520    0.4119    2.6898 O   0  0  0  0  0  0  0  0  0  0  0  0
    1.9656   -0.0764    0.4619 N   0  0  0  0  0  0  0  0  0  0  0  0
    2.6377   -1.3254    0.7957 C   0  0  0  0  0  0  0  0  0  0  0  0
    2.1719    0.4337   -0.8955 C   0  0  0  0  0  0  0  0  0  0  0  0
    3.6303    0.6557   -1.2319 C   0  0  0  0  0  0  0  0  0  0  0  0
    4.2457   -0.0886   -2.2501 C   0  0  0  0  0  0  0  0  0  0  0  0
    5.5920    0.1148   -2.5608 C   0  0  0  0  0  0  0  0  0  0  0  0
    6.3343    1.0671   -1.8626 C   0  0  0  0  0  0  0  0  0  0  0  0
    5.7301    1.8211   -0.8590 C   0  0  0  0  0  0  0  0  0  0  0  0
    4.3857    1.6172   -0.5435 C   0  0  0  0  0  0  0  0  0  0  0  0
   -1.6790    0.8024    1.2951 C   0  0  0  0  0  0  0  0  0  0  0  0
   -1.6509    0.5180    2.4859 O   0  0  0  0  0  0  0  0  0  0  0  0
   -5.7298    0.9482    2.2721 H   0  0  0  0  0  0  0  0  0  0  0  0
   -4.1862    0.2994    2.8323 H   0  0  0  0  0  0  0  0  0  0  0  0
   -5.1619   -0.6055    1.6589 H   0  0  0  0  0  0  0  0  0  0  0  0
   -4.8653    1.2192   -0.0131 H   0  0  0  0  0  0  0  0  0  0  0  0
   -3.9469    2.1589    1.1435 H   0  0  0  0  0  0  0  0  0  0  0  0
   -4.4655   -0.6214   -1.6067 H   0  0  0  0  0  0  0  0  0  0  0  0
   -4.7018   -2.9812   -2.2608 H   0  0  0  0  0  0  0  0  0  0  0  0
   -3.3815   -4.7375   -1.1136 H   0  0  0  0  0  0  0  0  0  0  0  0
   -1.8091   -4.1165    0.6986 H   0  0  0  0  0  0  0  0  0  0  0  0
   -1.5429   -1.7888    1.3748 H   0  0  0  0  0  0  0  0  0  0  0  0
   -2.7745    1.2467   -1.7456 H   0  0  0  0  0  0  0  0  0  0  0  0
    0.3194    2.3642    2.1782 H   0  0  0  0  0  0  0  0  0  0  0  0
    1.0789    2.6154    0.5976 H   0  0  0  0  0  0  0  0  0  0  0  0
    3.7011   -1.1327    0.9636 H   0  0  0  0  0  0  0  0  0  0  0  0
    2.2155   -1.7625    1.7068 H   0  0  0  0  0  0  0  0  0  0  0  0
    2.5085   -2.0384   -0.0247 H   0  0  0  0  0  0  0  0  0  0  0  0
    1.7182   -0.2923   -1.5816 H   0  0  0  0  0  0  0  0  0  0  0  0
    1.6643    1.3829   -1.0500 H   0  0  0  0  0  0  0  0  0  0  0  0
    3.6817   -0.8330   -2.8093 H   0  0  0  0  0  0  0  0  0  0  0  0
    6.0616   -0.4697   -3.3494 H   0  0  0  0  0  0  0  0  0  0  0  0
    7.3803    1.2217   -2.1047 H   0  0  0  0  0  0  0  0  0  0  0  0
    6.3088    2.5639   -0.3156 H   0  0  0  0  0  0  0  0  0  0  0  0
    3.9339    2.2091    0.2489 H   0  0  0  0  0  0  0  0  0  0  0  0
  1  2  1  0
  2  3  1  0
  3  4  1  0
  4  5  2  0
  5  6  1  0
  6  7  2  0
  7  8  1  0
  8  9  2  0
  3 10  1  0
 10 11  1  0
 11 12  2  0
 11 13  1  0
 13 14  1  0
 14 15  1  0
 15 16  2  0
 15 17  1  0
 17 18  1  0
 17 19  1  0
 19 20  1  0
 20 21  2  0
 21 22  1  0
 22 23  2  0
 23 24  1  0
 24 25  2  0
 13 26  1  0
 26 27  2  0
 26  3  1  0
  9  4  1  0
 25 20  1  0
  1 28  1  0
  1 29  1  0
  1 30  1  0
  2 31  1  0
  2 32  1  0
  5 33  1  0
  6 34  1  0
  7 35  1  0
  8 36  1  0
  9 37  1  0
 10 38  1  0
 14 39  1  0
 14 40  1  0
 18 41  1  0
 18 42  1  0
 18 43  1  0
 19 44  1  0
 19 45  1  0
 21 46  1  0
 22 47  1  0
 23 48  1  0
 24 49  1  0
 25 50  1  0
M  END
$$$$
