
     RDKit          3D

 49 52  0  0  0  0  0  0  0  0999 V2000
   -3.3576    3.6939   -1.7305 C   0  0  0  0  0  0  0  0  0  0  0  0
   -4.3423    2.6917   -1.1537 C   0  0  0  0  0  0  0  0  0  0  0  0
   -3.8804    2.1928    0.1007 O   0  0  0  0  0  0  0  0  0  0  0  0
   -3.0898    1.0796    0.1194 C   0  0  0  0  0  0  0  0  0  0  0  0
   -2.8059    0.5953    1.3992 C   0  0  0  0  0  0  0  0  0  0  0  0
   -2.0014   -0.5326    1.5767 C   0  0  0  0  0  0  0  0  0  0  0  0
   -1.4705   -1.1933    0.4653 C   0  0  0  0  0  0  0  0  0  0  0  0
   -0.5849   -2.3366    0.6399 C   0  0  0  0  0  0  0  0  0  0  0  0
    0.7985   -2.4421    0.5101 C   0  0  0  0  0  0  0  0  0  0  0  0
    1.8238   -1.4435    0.1795 C   0  0  0  0  0  0  0  0  0  0  0  0
    2.9058   -1.7974   -0.2847 O   0  0  0  0  0  0  0  0  0  0  0  0
    1.4821   -0.1155    0.4388 N   0  0  0  0  0  0  0  0  0  0  0  0
    2.2175    0.9953    0.0993 N   0  0  0  0  0  0  0  0  0  0  0  0
    3.5107    0.9157    0.1112 C   0  0  0  0  0  0  0  0  0  0  0  0
    4.3592    2.0579   -0.2898 C   0  0  0  0  0  0  0  0  0  0  0  0
    3.7925    3.2726   -0.6875 C   0  0  0  0  0  0  0  0  0  0  0  0
    4.6187    4.3346   -1.0586 C   0  0  0  0  0  0  0  0  0  0  0  0
    6.0055    4.1823   -1.0330 C   0  0  0  0  0  0  0  0  0  0  0  0
    6.5704    2.9690   -0.6377 C   0  0  0  0  0  0  0  0  0  0  0  0
    5.7486    1.9038   -0.2652 C   0  0  0  0  0  0  0  0  0  0  0  0
    1.1633   -3.7469    0.7280 N   0  0  0  0  0  0  0  0  0  0  0  0
    0.0831   -4.4506    1.0057 N   0  0  0  0  0  0  0  0  0  0  0  0
   -1.0085   -3.6420    0.9266 N   0  0  0  0  0  0  0  0  0  0  0  0
   -2.3183   -4.1603    1.0974 C   0  0  0  0  0  0  0  0  0  0  0  0
   -3.3960   -3.3909    0.9417 N   0  0  0  0  0  0  0  0  0  0  0  0
   -4.4667   -4.2540    1.1657 O   0  0  0  0  0  0  0  0  0  0  0  0
   -4.0256   -5.5416    1.4510 N   0  0  0  0  0  0  0  0  0  0  0  0
   -2.6952   -5.4795    1.4143 C   0  0  0  0  0  0  0  0  0  0  0  0
   -1.8795   -6.5247    1.6501 N   0  0  0  0  0  0  0  0  0  0  0  0
   -1.7460   -0.7060   -0.8169 C   0  0  0  0  0  0  0  0  0  0  0  0
   -2.5525    0.4254   -0.9880 C   0  0  0  0  0  0  0  0  0  0  0  0
   -3.7463    4.1286   -2.6559 H   0  0  0  0  0  0  0  0  0  0  0  0
   -2.3906    3.2287   -1.9438 H   0  0  0  0  0  0  0  0  0  0  0  0
   -3.1695    4.5011   -1.0147 H   0  0  0  0  0  0  0  0  0  0  0  0
   -5.2852    3.2124   -0.9507 H   0  0  0  0  0  0  0  0  0  0  0  0
   -4.5885    1.8917   -1.8604 H   0  0  0  0  0  0  0  0  0  0  0  0
   -3.2200    1.1027    2.2679 H   0  0  0  0  0  0  0  0  0  0  0  0
   -1.8013   -0.8826    2.5871 H   0  0  0  0  0  0  0  0  0  0  0  0
    0.5212    0.1137    0.6614 H   0  0  0  0  0  0  0  0  0  0  0  0
    4.0541    0.0178    0.4491 H   0  0  0  0  0  0  0  0  0  0  0  0
    2.7128    3.3974   -0.7101 H   0  0  0  0  0  0  0  0  0  0  0  0
    4.1804    5.2800   -1.3680 H   0  0  0  0  0  0  0  0  0  0  0  0
    6.6473    5.0107   -1.3233 H   0  0  0  0  0  0  0  0  0  0  0  0
    7.6514    2.8532   -0.6215 H   0  0  0  0  0  0  0  0  0  0  0  0
    6.1995    0.9620    0.0372 H   0  0  0  0  0  0  0  0  0  0  0  0
   -0.8890   -6.4840    1.4126 H   0  0  0  0  0  0  0  0  0  0  0  0
   -2.2697   -7.4614    1.6569 H   0  0  0  0  0  0  0  0  0  0  0  0
   -1.3351   -1.1957   -1.6981 H   0  0  0  0  0  0  0  0  0  0  0  0
   -2.7301    0.7714   -2.0007 H   0  0  0  0  0  0  0  0  0  0  0  0
  1  2  1  0
  2  3  1  0
  3  4  1  0
  4  5  2  0
  5  6  1  0
  6  7  2  0
  7  8  1  0
  8  9  2  0
  9 10  1  0
 10 11  2  0
 10 12  1  0
 12 13  1  0
 13 14  2  3
 14 15  1  0
 15 16  2  0
 16 17  1  0
 17 18  2  0
 18 19  1  0
 19 20  2  0
  9 21  1  0
 21 22  2  0
 22 23  1  0
 23 24  1  0
 24 25  2  0
 25 26  1  0
 26 27  1  0
 27 28  2  0
 28 29  1  0
  7 30  1  0
 30 31  2  0
 31  4  1  0
 23  8  1  0
 28 24  1  0
 20 15  1  0
  1 32  1  0
  1 33  1  0
  1 34  1  0
  2 35  1  0
  2 36  1  0
  5 37  1  0
  6 38  1  0
 12 39  1  0
 14 40  1  0
 16 41  1  0
 17 42  1  0
 18 43  1  0
 19 44  1  0
 20 45  1  0
 29 46  1  0
 29 47  1  0
 30 48  1  0
 31 49  1  0
M  END
$$$$
