
     RDKit          3D

 53 55  0  0  0  0  0  0  0  0999 V2000
   -7.5416   -0.5068    0.9126 C   0  0  0  0  0  0  0  0  0  0  0  0
   -6.5555   -1.3874    0.1629 C   0  0  0  0  0  0  0  0  0  0  0  0
   -5.2063   -0.6922   -0.0141 C   0  0  0  0  0  0  0  0  0  0  0  0
   -4.2231   -1.5761   -0.7831 C   0  0  0  0  0  0  0  0  0  0  0  0
   -2.9476   -0.9123   -0.9292 N   0  0  0  0  0  0  0  0  0  0  0  0
   -1.8894   -0.9821   -0.0245 C   0  0  0  0  0  0  0  0  0  0  0  0
   -1.8743   -1.7459    1.0122 N   0  0  0  0  0  0  0  0  0  0  0  0
   -0.9023   -0.0871   -0.4647 N   0  0  0  0  0  0  0  0  0  0  0  0
    0.5093   -0.1155   -0.1077 C   0  0  0  0  0  0  0  0  0  0  0  0
    0.7218    0.1914    1.3878 C   0  0  0  0  0  0  0  0  0  0  0  0
    0.5432   -1.0093    2.1622 O   0  0  0  0  0  0  0  0  0  0  0  0
    2.1292    0.7406    1.6576 C   0  0  0  0  0  0  0  0  0  0  0  0
    3.0792   -0.2177    1.1791 O   0  0  0  0  0  0  0  0  0  0  0  0
    4.4022    0.1034    1.3027 C   0  0  0  0  0  0  0  0  0  0  0  0
    4.9157    1.2667    1.8744 C   0  0  0  0  0  0  0  0  0  0  0  0
    6.2992    1.4699    1.9332 C   0  0  0  0  0  0  0  0  0  0  0  0
    7.1841    0.5163    1.4176 C   0  0  0  0  0  0  0  0  0  0  0  0
    8.6648    0.7311    1.5139 C   0  0  0  0  0  0  0  0  0  0  0  0
    6.6652   -0.6556    0.8597 C   0  0  0  0  0  0  0  0  0  0  0  0
    5.2840   -0.8555    0.7998 C   0  0  0  0  0  0  0  0  0  0  0  0
   -1.3439    0.4985   -1.6634 C   0  0  0  0  0  0  0  0  0  0  0  0
   -0.7508    1.4168   -2.5080 C   0  0  0  0  0  0  0  0  0  0  0  0
   -1.4696    1.8396   -3.6317 C   0  0  0  0  0  0  0  0  0  0  0  0
   -2.7593    1.3458   -3.8916 C   0  0  0  0  0  0  0  0  0  0  0  0
   -3.3549    0.4167   -3.0346 C   0  0  0  0  0  0  0  0  0  0  0  0
   -2.6385    0.0018   -1.9305 C   0  0  0  0  0  0  0  0  0  0  0  0
   -7.1658   -0.2564    1.9092 H   0  0  0  0  0  0  0  0  0  0  0  0
   -8.4982   -1.0248    1.0308 H   0  0  0  0  0  0  0  0  0  0  0  0
   -7.7251    0.4260    0.3703 H   0  0  0  0  0  0  0  0  0  0  0  0
   -6.9744   -1.6430   -0.8170 H   0  0  0  0  0  0  0  0  0  0  0  0
   -6.4211   -2.3261    0.7129 H   0  0  0  0  0  0  0  0  0  0  0  0
   -4.7887   -0.4420    0.9689 H   0  0  0  0  0  0  0  0  0  0  0  0
   -5.3490    0.2571   -0.5448 H   0  0  0  0  0  0  0  0  0  0  0  0
   -4.0917   -2.5273   -0.2533 H   0  0  0  0  0  0  0  0  0  0  0  0
   -4.6363   -1.8382   -1.7645 H   0  0  0  0  0  0  0  0  0  0  0  0
   -1.0018   -1.5849    1.5370 H   0  0  0  0  0  0  0  0  0  0  0  0
    0.9167   -1.1022   -0.3607 H   0  0  0  0  0  0  0  0  0  0  0  0
    1.0663    0.6240   -0.6916 H   0  0  0  0  0  0  0  0  0  0  0  0
   -0.0174    0.9183    1.7418 H   0  0  0  0  0  0  0  0  0  0  0  0
    1.3499   -1.5471    2.0359 H   0  0  0  0  0  0  0  0  0  0  0  0
    2.2561    1.6980    1.1389 H   0  0  0  0  0  0  0  0  0  0  0  0
    2.2615    0.8699    2.7384 H   0  0  0  0  0  0  0  0  0  0  0  0
    4.2739    2.0358    2.2899 H   0  0  0  0  0  0  0  0  0  0  0  0
    6.6833    2.3811    2.3876 H   0  0  0  0  0  0  0  0  0  0  0  0
    9.2053    0.0871    0.8127 H   0  0  0  0  0  0  0  0  0  0  0  0
    8.9200    1.7676    1.2682 H   0  0  0  0  0  0  0  0  0  0  0  0
    9.0101    0.5086    2.5280 H   0  0  0  0  0  0  0  0  0  0  0  0
    7.3295   -1.4221    0.4679 H   0  0  0  0  0  0  0  0  0  0  0  0
    4.8956   -1.7696    0.3576 H   0  0  0  0  0  0  0  0  0  0  0  0
    0.2347    1.8234   -2.3200 H   0  0  0  0  0  0  0  0  0  0  0  0
   -1.0275    2.5644   -4.3119 H   0  0  0  0  0  0  0  0  0  0  0  0
   -3.2991    1.6904   -4.7707 H   0  0  0  0  0  0  0  0  0  0  0  0
   -4.3475    0.0367   -3.2434 H   0  0  0  0  0  0  0  0  0  0  0  0
  1  2  1  0
  2  3  1  0
  3  4  1  0
  4  5  1  0
  5  6  1  0
  6  7  2  3
  6  8  1  0
  8  9  1  0
  9 10  1  0
 10 11  1  0
 10 12  1  0
 12 13  1  0
 13 14  1  0
 14 15  2  0
 15 16  1  0
 16 17  2  0
 17 18  1  0
 17 19  1  0
 19 20  2  0
  8 21  1  0
 21 22  2  0
 22 23  1  0
 23 24  2  0
 24 25  1  0
 25 26  2  0
 26  5  1  0
 20 14  1  0
 26 21  1  0
  1 27  1  0
  1 28  1  0
  1 29  1  0
  2 30  1  0
  2 31  1  0
  3 32  1  0
  3 33  1  0
  4 34  1  0
  4 35  1  0
  7 36  1  0
  9 37  1  0
  9 38  1  0
 10 39  1  0
 11 40  1  0
 12 41  1  0
 12 42  1  0
 15 43  1  0
 16 44  1  0
 18 45  1  0
 18 46  1  0
 18 47  1  0
 19 48  1  0
 20 49  1  0
 22 50  1  0
 23 51  1  0
 24 52  1  0
 25 53  1  0
M  END
$$$$
