
     RDKit          3D

 47 49  0  0  0  0  0  0  0  0999 V2000
    7.7557   -0.0540    0.3565 C   0  0  0  0  0  0  0  0  0  0  0  0
    7.1560   -1.4416    0.2097 C   0  0  0  0  0  0  0  0  0  0  0  0
    5.9922   -1.5796    1.0227 O   0  0  0  0  0  0  0  0  0  0  0  0
    4.7762   -1.2412    0.5012 C   0  0  0  0  0  0  0  0  0  0  0  0
    3.6914   -1.5149    1.3365 C   0  0  0  0  0  0  0  0  0  0  0  0
    2.3824   -1.2192    0.9403 C   0  0  0  0  0  0  0  0  0  0  0  0
    2.1400   -0.6503   -0.3128 C   0  0  0  0  0  0  0  0  0  0  0  0
    0.8078   -0.3446   -0.7386 N   0  0  0  0  0  0  0  0  0  0  0  0
    0.3419   -0.3386   -2.0616 C   0  0  0  0  0  0  0  0  0  0  0  0
    1.0253   -0.8102   -3.1062 O   0  0  0  0  0  0  0  0  0  0  0  0
   -0.9376    0.1754   -2.0720 C   0  0  0  0  0  0  0  0  0  0  0  0
   -1.3167    0.3975   -0.7375 C   0  0  0  0  0  0  0  0  0  0  0  0
   -2.5058    0.8717   -0.2541 N   0  0  0  0  0  0  0  0  0  0  0  0
   -2.4697    2.2554    0.2530 C   0  0  0  0  0  0  0  0  0  0  0  0
   -3.7244    0.5621   -1.0310 C   0  0  0  0  0  0  0  0  0  0  0  0
   -4.9464    0.5035   -0.1392 C   0  0  0  0  0  0  0  0  0  0  0  0
   -6.0431    1.3472   -0.3680 C   0  0  0  0  0  0  0  0  0  0  0  0
   -7.1707    1.2793    0.4526 C   0  0  0  0  0  0  0  0  0  0  0  0
   -7.2152    0.3671    1.5058 C   0  0  0  0  0  0  0  0  0  0  0  0
   -6.1335   -0.4795    1.7405 C   0  0  0  0  0  0  0  0  0  0  0  0
   -5.0058   -0.4134    0.9216 C   0  0  0  0  0  0  0  0  0  0  0  0
   -0.2670    0.0168    0.0723 C   0  0  0  0  0  0  0  0  0  0  0  0
   -0.2250    0.0244    1.4051 O   0  0  0  0  0  0  0  0  0  0  0  0
    3.2313   -0.3564   -1.1440 C   0  0  0  0  0  0  0  0  0  0  0  0
    4.5402   -0.6518   -0.7384 C   0  0  0  0  0  0  0  0  0  0  0  0
    7.9651    0.1630    1.4093 H   0  0  0  0  0  0  0  0  0  0  0  0
    8.6874    0.0262   -0.2107 H   0  0  0  0  0  0  0  0  0  0  0  0
    7.0667    0.7197    0.0051 H   0  0  0  0  0  0  0  0  0  0  0  0
    6.9733   -1.7106   -0.8365 H   0  0  0  0  0  0  0  0  0  0  0  0
    7.8824   -2.1723    0.5837 H   0  0  0  0  0  0  0  0  0  0  0  0
    3.8640   -1.9668    2.3108 H   0  0  0  0  0  0  0  0  0  0  0  0
    1.5738   -1.4738    1.6198 H   0  0  0  0  0  0  0  0  0  0  0  0
    1.6797   -1.4544   -2.7801 H   0  0  0  0  0  0  0  0  0  0  0  0
   -1.5296    0.3250   -2.9637 H   0  0  0  0  0  0  0  0  0  0  0  0
   -1.5936    2.4319    0.8870 H   0  0  0  0  0  0  0  0  0  0  0  0
   -2.4410    2.9706   -0.5771 H   0  0  0  0  0  0  0  0  0  0  0  0
   -3.3499    2.4715    0.8667 H   0  0  0  0  0  0  0  0  0  0  0  0
   -3.6406   -0.4192   -1.5179 H   0  0  0  0  0  0  0  0  0  0  0  0
   -3.8585    1.3033   -1.8296 H   0  0  0  0  0  0  0  0  0  0  0  0
   -6.0264    2.0639   -1.1857 H   0  0  0  0  0  0  0  0  0  0  0  0
   -8.0161    1.9376    0.2697 H   0  0  0  0  0  0  0  0  0  0  0  0
   -8.0938    0.3151    2.1434 H   0  0  0  0  0  0  0  0  0  0  0  0
   -6.1671   -1.1917    2.5607 H   0  0  0  0  0  0  0  0  0  0  0  0
   -4.1634   -1.0760    1.1114 H   0  0  0  0  0  0  0  0  0  0  0  0
   -1.1387    0.2574    1.6651 H   0  0  0  0  0  0  0  0  0  0  0  0
    3.0974    0.1583   -2.0937 H   0  0  0  0  0  0  0  0  0  0  0  0
    5.3493   -0.3840   -1.4092 H   0  0  0  0  0  0  0  0  0  0  0  0
  1  2  1  0
  2  3  1  0
  3  4  1  0
  4  5  2  0
  5  6  1  0
  6  7  2  0
  7  8  1  0
  8  9  1  0
  9 10  1  0
  9 11  2  0
 11 12  1  0
 12 13  1  0
 13 14  1  0
 13 15  1  0
 15 16  1  0
 16 17  2  0
 17 18  1  0
 18 19  2  0
 19 20  1  0
 20 21  2  0
 12 22  2  0
 22 23  1  0
  7 24  1  0
 24 25  2  0
 25  4  1  0
 22  8  1  0
 21 16  1  0
  1 26  1  0
  1 27  1  0
  1 28  1  0
  2 29  1  0
  2 30  1  0
  5 31  1  0
  6 32  1  0
 10 33  1  0
 11 34  1  0
 14 35  1  0
 14 36  1  0
 14 37  1  0
 15 38  1  0
 15 39  1  0
 17 40  1  0
 18 41  1  0
 19 42  1  0
 20 43  1  0
 21 44  1  0
 23 45  1  0
 24 46  1  0
 25 47  1  0
M  END
$$$$
