
     RDKit          3D

 57 60  0  0  0  0  0  0  0  0999 V2000
    8.3407   -1.3779    0.3465 C   0  0  0  0  0  0  0  0  0  0  0  0
    7.2539   -0.6365    0.8894 O   0  0  0  0  0  0  0  0  0  0  0  0
    6.0027   -0.9429    0.4279 C   0  0  0  0  0  0  0  0  0  0  0  0
    5.7021   -1.8753   -0.5586 C   0  0  0  0  0  0  0  0  0  0  0  0
    4.3722   -2.0869   -0.9323 C   0  0  0  0  0  0  0  0  0  0  0  0
    3.3211   -1.3746   -0.3272 C   0  0  0  0  0  0  0  0  0  0  0  0
    1.9370   -1.7049   -0.8090 C   0  0  0  0  0  0  0  0  0  0  0  0
    1.7647   -2.5914   -1.6409 O   0  0  0  0  0  0  0  0  0  0  0  0
    0.8950   -0.9789   -0.2894 N   0  0  0  0  0  0  0  0  0  0  0  0
   -0.4734   -1.1578   -0.7204 C   0  0  0  0  0  0  0  0  0  0  0  0
   -0.7193   -0.4644   -2.0814 C   0  0  0  0  0  0  0  0  0  0  0  0
   -2.2238   -0.2083   -2.3916 C   0  0  0  0  0  0  0  0  0  0  0  0
   -2.3341    0.5215   -3.7432 C   0  0  0  0  0  0  0  0  0  0  0  0
   -2.9884   -1.5429   -2.5084 C   0  0  0  0  0  0  0  0  0  0  0  0
   -2.8618    0.6894   -1.2837 C   0  0  0  0  0  0  0  0  0  0  0  0
   -2.4347    0.2570    0.0808 C   0  0  0  0  0  0  0  0  0  0  0  0
   -1.3673   -0.5885    0.3285 C   0  0  0  0  0  0  0  0  0  0  0  0
   -1.4106   -0.8199    1.7067 C   0  0  0  0  0  0  0  0  0  0  0  0
   -2.3933   -0.1503    2.3025 N   0  0  0  0  0  0  0  0  0  0  0  0
   -3.0054    0.5645    1.3106 N   0  0  0  0  0  0  0  0  0  0  0  0
   -4.0629    1.4621    1.6614 C   0  0  0  0  0  0  0  0  0  0  0  0
   -4.5843    1.4153    2.9675 C   0  0  0  0  0  0  0  0  0  0  0  0
   -5.6166    2.2713    3.3607 C   0  0  0  0  0  0  0  0  0  0  0  0
   -6.1339    3.1951    2.4595 C   0  0  0  0  0  0  0  0  0  0  0  0
   -5.6167    3.2641    1.1684 C   0  0  0  0  0  0  0  0  0  0  0  0
   -4.5834    2.4070    0.7701 C   0  0  0  0  0  0  0  0  0  0  0  0
    3.6238   -0.4322    0.6766 C   0  0  0  0  0  0  0  0  0  0  0  0
    2.5827    0.2571    1.2479 O   0  0  0  0  0  0  0  0  0  0  0  0
    2.8491    0.9959    2.4357 C   0  0  0  0  0  0  0  0  0  0  0  0
    4.9661   -0.2242    1.0337 C   0  0  0  0  0  0  0  0  0  0  0  0
    9.2566   -1.0422    0.8431 H   0  0  0  0  0  0  0  0  0  0  0  0
    8.4512   -1.1855   -0.7255 H   0  0  0  0  0  0  0  0  0  0  0  0
    8.2278   -2.4492    0.5465 H   0  0  0  0  0  0  0  0  0  0  0  0
    6.4706   -2.4546   -1.0604 H   0  0  0  0  0  0  0  0  0  0  0  0
    4.1575   -2.8217   -1.7074 H   0  0  0  0  0  0  0  0  0  0  0  0
    1.1179   -0.1986    0.3212 H   0  0  0  0  0  0  0  0  0  0  0  0
   -0.6696   -2.2324   -0.8206 H   0  0  0  0  0  0  0  0  0  0  0  0
   -0.2619   -1.0627   -2.8806 H   0  0  0  0  0  0  0  0  0  0  0  0
   -0.1927    0.5017   -2.0947 H   0  0  0  0  0  0  0  0  0  0  0  0
   -3.3795    0.7336   -3.9939 H   0  0  0  0  0  0  0  0  0  0  0  0
   -1.9105   -0.0820   -4.5538 H   0  0  0  0  0  0  0  0  0  0  0  0
   -1.7964    1.4753   -3.7248 H   0  0  0  0  0  0  0  0  0  0  0  0
   -4.0285   -1.3736   -2.8109 H   0  0  0  0  0  0  0  0  0  0  0  0
   -3.0131   -2.0915   -1.5623 H   0  0  0  0  0  0  0  0  0  0  0  0
   -2.5268   -2.1936   -3.2586 H   0  0  0  0  0  0  0  0  0  0  0  0
   -2.5315    1.7248   -1.4309 H   0  0  0  0  0  0  0  0  0  0  0  0
   -3.9522    0.6560   -1.3821 H   0  0  0  0  0  0  0  0  0  0  0  0
   -0.7698   -1.4565    2.3035 H   0  0  0  0  0  0  0  0  0  0  0  0
   -4.1998    0.7039    3.6968 H   0  0  0  0  0  0  0  0  0  0  0  0
   -6.0127    2.2116    4.3723 H   0  0  0  0  0  0  0  0  0  0  0  0
   -6.9346    3.8635    2.7643 H   0  0  0  0  0  0  0  0  0  0  0  0
   -6.0124    3.9950    0.4675 H   0  0  0  0  0  0  0  0  0  0  0  0
   -4.1993    2.5418   -0.2309 H   0  0  0  0  0  0  0  0  0  0  0  0
    1.8906    1.3477    2.8278 H   0  0  0  0  0  0  0  0  0  0  0  0
    3.3105    0.3668    3.2038 H   0  0  0  0  0  0  0  0  0  0  0  0
    3.4617    1.8754    2.2184 H   0  0  0  0  0  0  0  0  0  0  0  0
    5.2454    0.5048    1.7887 H   0  0  0  0  0  0  0  0  0  0  0  0
  1  2  1  0
  2  3  1  0
  3  4  2  0
  4  5  1  0
  5  6  2  0
  6  7  1  0
  7  8  2  0
  7  9  1  0
  9 10  1  0
 10 11  1  0
 11 12  1  0
 12 13  1  0
 12 14  1  0
 12 15  1  0
 15 16  1  0
 16 17  2  0
 17 18  1  0
 18 19  2  0
 19 20  1  0
 20 21  1  0
 21 22  2  0
 22 23  1  0
 23 24  2  0
 24 25  1  0
 25 26  2  0
  6 27  1  0
 27 28  1  0
 28 29  1  0
 27 30  2  0
 30  3  1  0
 17 10  1  0
 26 21  1  0
 20 16  1  0
  1 31  1  0
  1 32  1  0
  1 33  1  0
  4 34  1  0
  5 35  1  0
  9 36  1  0
 10 37  1  0
 11 38  1  0
 11 39  1  0
 13 40  1  0
 13 41  1  0
 13 42  1  0
 14 43  1  0
 14 44  1  0
 14 45  1  0
 15 46  1  0
 15 47  1  0
 18 48  1  0
 22 49  1  0
 23 50  1  0
 24 51  1  0
 25 52  1  0
 26 53  1  0
 29 54  1  0
 29 55  1  0
 29 56  1  0
 30 57  1  0
M  END
$$$$
