
     RDKit          3D

 56 58  0  0  0  0  0  0  0  0999 V2000
   -9.1607   -0.2277    1.6516 C   0  0  0  0  0  0  0  0  0  0  0  0
   -8.2069    0.7889    1.3825 O   0  0  0  0  0  0  0  0  0  0  0  0
   -6.9671    0.3987    0.9392 C   0  0  0  0  0  0  0  0  0  0  0  0
   -6.5712   -0.9322    0.7691 C   0  0  0  0  0  0  0  0  0  0  0  0
   -5.2855   -1.2373    0.3145 C   0  0  0  0  0  0  0  0  0  0  0  0
   -4.3783   -0.2163    0.0200 C   0  0  0  0  0  0  0  0  0  0  0  0
   -2.9814   -0.5379   -0.4505 C   0  0  0  0  0  0  0  0  0  0  0  0
   -1.9801   -0.5341    0.7074 C   0  0  0  0  0  0  0  0  0  0  0  0
   -0.6308   -0.8408    0.2683 N   0  0  0  0  0  0  0  0  0  0  0  0
    0.1516    0.1079   -0.3413 C   0  0  0  0  0  0  0  0  0  0  0  0
   -0.2387    1.2461   -0.5791 O   0  0  0  0  0  0  0  0  0  0  0  0
    1.5271   -0.3417   -0.7056 C   0  0  0  0  0  0  0  0  0  0  0  0
    2.4455    0.6058   -0.9749 C   0  0  0  0  0  0  0  0  0  0  0  0
    3.8676    0.3249   -1.3605 C   0  0  0  0  0  0  0  0  0  0  0  0
    4.2097   -1.0933   -1.0734 N   0  0  0  0  0  0  0  0  0  0  0  0
    5.7950   -1.5395   -1.5270 S   0  0  0  0  0  6  0  0  0  0  0  0
    6.0096   -2.9135   -1.1269 O   0  0  0  0  0  0  0  0  0  0  0  0
    5.9878   -1.1176   -2.8981 O   0  0  0  0  0  0  0  0  0  0  0  0
    6.8071   -0.5268   -0.4753 C   0  0  0  0  0  0  0  0  0  0  0  0
    7.6355    0.4551   -1.0301 C   0  0  0  0  0  0  0  0  0  0  0  0
    8.4227    1.2392   -0.1859 C   0  0  0  0  0  0  0  0  0  0  0  0
    8.3765    1.0305    1.1903 C   0  0  0  0  0  0  0  0  0  0  0  0
    9.1335    1.7867    1.9955 F   0  0  0  0  0  0  0  0  0  0  0  0
    7.5589    0.0489    1.7440 C   0  0  0  0  0  0  0  0  0  0  0  0
    6.7685   -0.7399    0.9083 C   0  0  0  0  0  0  0  0  0  0  0  0
    3.1682   -2.0177   -1.6009 C   0  0  0  0  0  0  0  0  0  0  0  0
    1.8675   -1.7992   -0.8227 C   0  0  0  0  0  0  0  0  0  0  0  0
   -4.7721    1.1194    0.1937 C   0  0  0  0  0  0  0  0  0  0  0  0
   -6.0579    1.4356    0.6495 C   0  0  0  0  0  0  0  0  0  0  0  0
   -6.5183    2.7147    0.8460 O   0  0  0  0  0  0  0  0  0  0  0  0
   -5.6352    3.7856    0.5453 C   0  0  0  0  0  0  0  0  0  0  0  0
   -9.3865   -0.8075    0.7508 H   0  0  0  0  0  0  0  0  0  0  0  0
   -8.8262   -0.8766    2.4677 H   0  0  0  0  0  0  0  0  0  0  0  0
  -10.0866    0.2589    1.9733 H   0  0  0  0  0  0  0  0  0  0  0  0
   -7.2407   -1.7581    0.9833 H   0  0  0  0  0  0  0  0  0  0  0  0
   -5.0016   -2.2801    0.1916 H   0  0  0  0  0  0  0  0  0  0  0  0
   -2.6863    0.1839   -1.2225 H   0  0  0  0  0  0  0  0  0  0  0  0
   -2.9719   -1.5163   -0.9482 H   0  0  0  0  0  0  0  0  0  0  0  0
   -1.9685    0.4410    1.2088 H   0  0  0  0  0  0  0  0  0  0  0  0
   -2.2533   -1.2875    1.4548 H   0  0  0  0  0  0  0  0  0  0  0  0
   -0.2474   -1.7400    0.5192 H   0  0  0  0  0  0  0  0  0  0  0  0
    2.1747    1.6590   -0.9166 H   0  0  0  0  0  0  0  0  0  0  0  0
    4.0025    0.5588   -2.4218 H   0  0  0  0  0  0  0  0  0  0  0  0
    4.5109    0.9815   -0.7667 H   0  0  0  0  0  0  0  0  0  0  0  0
    7.6766    0.6116   -2.1058 H   0  0  0  0  0  0  0  0  0  0  0  0
    9.0748    2.0080   -0.5897 H   0  0  0  0  0  0  0  0  0  0  0  0
    7.5470   -0.0957    2.8199 H   0  0  0  0  0  0  0  0  0  0  0  0
    6.1308   -1.5136    1.3309 H   0  0  0  0  0  0  0  0  0  0  0  0
    3.4715   -3.0621   -1.4733 H   0  0  0  0  0  0  0  0  0  0  0  0
    3.0149   -1.8374   -2.6723 H   0  0  0  0  0  0  0  0  0  0  0  0
    1.9744   -2.2185    0.1855 H   0  0  0  0  0  0  0  0  0  0  0  0
    1.0646   -2.3463   -1.3300 H   0  0  0  0  0  0  0  0  0  0  0  0
   -4.0504    1.8984   -0.0350 H   0  0  0  0  0  0  0  0  0  0  0  0
   -5.3587    3.7850   -0.5141 H   0  0  0  0  0  0  0  0  0  0  0  0
   -6.1637    4.7219    0.7493 H   0  0  0  0  0  0  0  0  0  0  0  0
   -4.7488    3.7589    1.1875 H   0  0  0  0  0  0  0  0  0  0  0  0
  1  2  1  0
  2  3  1  0
  3  4  2  0
  4  5  1  0
  5  6  2  0
  6  7  1  0
  7  8  1  0
  8  9  1  0
  9 10  1  0
 10 11  2  0
 10 12  1  0
 12 13  2  0
 13 14  1  0
 14 15  1  0
 15 16  1  0
 16 17  2  0
 16 18  2  0
 16 19  1  0
 19 20  2  0
 20 21  1  0
 21 22  2  0
 22 23  1  0
 22 24  1  0
 24 25  2  0
 15 26  1  0
 26 27  1  0
  6 28  1  0
 28 29  2  0
 29 30  1  0
 30 31  1  0
 29  3  1  0
 27 12  1  0
 25 19  1  0
  1 32  1  0
  1 33  1  0
  1 34  1  0
  4 35  1  0
  5 36  1  0
  7 37  1  0
  7 38  1  0
  8 39  1  0
  8 40  1  0
  9 41  1  0
 13 42  1  0
 14 43  1  0
 14 44  1  0
 20 45  1  0
 21 46  1  0
 24 47  1  0
 25 48  1  0
 26 49  1  0
 26 50  1  0
 27 51  1  0
 27 52  1  0
 28 53  1  0
 31 54  1  0
 31 55  1  0
 31 56  1  0
M  END
$$$$
