
     RDKit          3D

 36 39  0  0  0  0  0  0  0  0999 V2000
   -3.4714   -0.0569    1.7770 O   0  0  0  0  0  0  0  0  0  0  0  0
   -3.9413   -0.1921    0.4997 C   0  0  0  0  0  0  0  0  0  0  0  0
   -5.3171   -0.0685    0.3240 C   0  0  0  0  0  0  0  0  0  0  0  0
   -5.8667   -0.1934   -0.9528 C   0  0  0  0  0  0  0  0  0  0  0  0
   -5.0341   -0.4409   -2.0447 C   0  0  0  0  0  0  0  0  0  0  0  0
   -5.7154   -0.5937   -3.6177 Cl  0  0  0  0  0  0  0  0  0  0  0  0
   -3.6548   -0.5658   -1.8769 C   0  0  0  0  0  0  0  0  0  0  0  0
   -3.1065   -0.4412   -0.5972 C   0  0  0  0  0  0  0  0  0  0  0  0
   -1.6443   -0.5765   -0.4503 C   0  0  0  0  0  0  0  0  0  0  0  0
   -1.0761   -0.4785    0.7125 N   0  0  0  0  0  0  0  0  0  0  0  0
    0.3256   -0.6182    0.7116 C   0  0  0  0  0  0  0  0  0  0  0  0
    0.8865   -1.8933    0.9461 C   0  0  0  0  0  0  0  0  0  0  0  0
    2.2764   -2.0954    0.9555 C   0  0  0  0  0  0  0  0  0  0  0  0
    3.1047   -1.0089    0.7361 C   0  0  0  0  0  0  0  0  0  0  0  0
    2.5510    0.2274    0.5248 C   0  0  0  0  0  0  0  0  0  0  0  0
    3.5340    1.1658    0.3403 C   0  0  0  0  0  0  0  0  0  0  0  0
    3.1807    2.4863    0.1190 C   0  0  0  0  0  0  0  0  0  0  0  0
    1.8191    2.8241    0.0945 C   0  0  0  0  0  0  0  0  0  0  0  0
    0.8249    1.8444    0.2867 C   0  0  0  0  0  0  0  0  0  0  0  0
    1.1796    0.4946    0.5068 C   0  0  0  0  0  0  0  0  0  0  0  0
    4.8992    0.5490    0.4217 C   0  0  0  0  0  0  0  0  0  0  0  0
    4.6036   -0.9485    0.6995 C   0  0  0  0  0  0  0  0  0  0  0  0
   -2.4928   -0.1697    1.7444 H   0  0  0  0  0  0  0  0  0  0  0  0
   -5.9576    0.1247    1.1808 H   0  0  0  0  0  0  0  0  0  0  0  0
   -6.9410   -0.0965   -1.0873 H   0  0  0  0  0  0  0  0  0  0  0  0
   -3.0209   -0.7580   -2.7380 H   0  0  0  0  0  0  0  0  0  0  0  0
   -1.0579   -0.7616   -1.3704 H   0  0  0  0  0  0  0  0  0  0  0  0
    0.2243   -2.7370    1.1259 H   0  0  0  0  0  0  0  0  0  0  0  0
    2.6854   -3.0844    1.1370 H   0  0  0  0  0  0  0  0  0  0  0  0
    3.9379    3.2503   -0.0275 H   0  0  0  0  0  0  0  0  0  0  0  0
    1.5247    3.8581   -0.0701 H   0  0  0  0  0  0  0  0  0  0  0  0
   -0.2229    2.1338    0.2740 H   0  0  0  0  0  0  0  0  0  0  0  0
    5.4427    0.6699   -0.5210 H   0  0  0  0  0  0  0  0  0  0  0  0
    5.4827    0.9882    1.2374 H   0  0  0  0  0  0  0  0  0  0  0  0
    5.0044   -1.5795   -0.1003 H   0  0  0  0  0  0  0  0  0  0  0  0
    5.0333   -1.2582    1.6577 H   0  0  0  0  0  0  0  0  0  0  0  0
  1  2  1  0
  2  3  2  0
  3  4  1  0
  4  5  2  0
  5  6  1  0
  5  7  1  0
  7  8  2  0
  8  9  1  0
  9 10  2  3
 10 11  1  0
 11 12  2  0
 12 13  1  0
 13 14  2  0
 14 15  1  0
 15 16  2  0
 16 17  1  0
 17 18  2  0
 18 19  1  0
 19 20  2  0
 16 21  1  0
 21 22  1  0
  8  2  1  0
 20 11  1  0
 22 14  1  0
 20 15  1  0
  1 23  1  0
  3 24  1  0
  4 25  1  0
  7 26  1  0
  9 27  1  0
 12 28  1  0
 13 29  1  0
 17 30  1  0
 18 31  1  0
 19 32  1  0
 21 33  1  0
 21 34  1  0
 22 35  1  0
 22 36  1  0
M  END
$$$$
