
     RDKit          3D

 41 42  0  0  0  0  0  0  0  0999 V2000
   -6.3125   -1.3656    1.1301 C   0  0  0  0  0  0  0  0  0  0  0  0
   -5.8773   -0.5532   -0.0740 C   0  0  0  0  0  0  0  0  0  0  0  0
   -4.4921   -0.2250    0.0868 O   0  0  0  0  0  0  0  0  0  0  0  0
   -3.9686    0.5122   -0.9296 C   0  0  0  0  0  0  0  0  0  0  0  0
   -4.6056    0.8690   -1.9131 O   0  0  0  0  0  0  0  0  0  0  0  0
   -2.6379    0.8142   -0.7251 N   0  0  0  0  0  0  0  0  0  0  0  0
   -1.9443    1.6727   -1.6807 C   0  0  0  0  0  0  0  0  0  0  0  0
   -0.7651    2.4227   -1.0486 C   0  0  0  0  0  0  0  0  0  0  0  0
    0.1997    1.5211   -0.3786 N   0  0  0  0  0  0  0  0  0  0  0  0
    1.5141    1.9394   -0.0730 C   0  0  0  0  0  0  0  0  0  0  0  0
    2.0213    3.5362   -0.1562 S   0  0  0  0  0  0  0  0  0  0  0  0
    2.3395    0.8648    0.2800 N   0  0  0  0  0  0  0  0  0  0  0  0
    3.6513    0.8769    0.7512 C   0  0  0  0  0  0  0  0  0  0  0  0
    4.2013    1.7881    1.3547 O   0  0  0  0  0  0  0  0  0  0  0  0
    4.4101   -0.3880    0.5605 C   0  0  0  0  0  0  0  0  0  0  0  0
    3.8049   -1.6480    0.6976 C   0  0  0  0  0  0  0  0  0  0  0  0
    4.5640   -2.8077    0.5147 C   0  0  0  0  0  0  0  0  0  0  0  0
    5.9177   -2.7037    0.2065 C   0  0  0  0  0  0  0  0  0  0  0  0
    6.6365   -3.8204    0.0316 F   0  0  0  0  0  0  0  0  0  0  0  0
    6.5199   -1.4562    0.0885 C   0  0  0  0  0  0  0  0  0  0  0  0
    7.8243   -1.3642   -0.2025 F   0  0  0  0  0  0  0  0  0  0  0  0
    5.7771   -0.2948    0.2688 C   0  0  0  0  0  0  0  0  0  0  0  0
   -0.3773    0.2745    0.1646 C   0  0  0  0  0  0  0  0  0  0  0  0
   -1.8841    0.3676    0.4439 C   0  0  0  0  0  0  0  0  0  0  0  0
   -5.7130   -2.2779    1.2166 H   0  0  0  0  0  0  0  0  0  0  0  0
   -7.3678   -1.6420    1.0537 H   0  0  0  0  0  0  0  0  0  0  0  0
   -6.1616   -0.7969    2.0536 H   0  0  0  0  0  0  0  0  0  0  0  0
   -6.4713    0.3656   -0.1340 H   0  0  0  0  0  0  0  0  0  0  0  0
   -6.0144   -1.1436   -0.9869 H   0  0  0  0  0  0  0  0  0  0  0  0
   -2.6484    2.3846   -2.1249 H   0  0  0  0  0  0  0  0  0  0  0  0
   -1.5826    1.0187   -2.4834 H   0  0  0  0  0  0  0  0  0  0  0  0
   -1.1352    3.1201   -0.2869 H   0  0  0  0  0  0  0  0  0  0  0  0
   -0.2515    3.0004   -1.8238 H   0  0  0  0  0  0  0  0  0  0  0  0
    2.0627    0.0212   -0.1948 H   0  0  0  0  0  0  0  0  0  0  0  0
    2.7602   -1.7459    0.9803 H   0  0  0  0  0  0  0  0  0  0  0  0
    4.1160   -3.7915    0.6224 H   0  0  0  0  0  0  0  0  0  0  0  0
    6.2657    0.6728    0.1822 H   0  0  0  0  0  0  0  0  0  0  0  0
    0.1424   -0.0079    1.0862 H   0  0  0  0  0  0  0  0  0  0  0  0
   -0.1893   -0.5041   -0.5844 H   0  0  0  0  0  0  0  0  0  0  0  0
   -2.0741    1.0973    1.2400 H   0  0  0  0  0  0  0  0  0  0  0  0
   -2.2548   -0.6040    0.7862 H   0  0  0  0  0  0  0  0  0  0  0  0
  1  2  1  0
  2  3  1  0
  3  4  1  0
  4  5  2  0
  4  6  1  0
  6  7  1  0
  7  8  1  0
  8  9  1  0
  9 10  1  0
 10 11  2  0
 10 12  1  0
 12 13  1  0
 13 14  2  0
 13 15  1  0
 15 16  2  0
 16 17  1  0
 17 18  2  0
 18 19  1  0
 18 20  1  0
 20 21  1  0
 20 22  2  0
  9 23  1  0
 23 24  1  0
 24  6  1  0
 22 15  1  0
  1 25  1  0
  1 26  1  0
  1 27  1  0
  2 28  1  0
  2 29  1  0
  7 30  1  0
  7 31  1  0
  8 32  1  0
  8 33  1  0
 12 34  1  0
 16 35  1  0
 17 36  1  0
 22 37  1  0
 23 38  1  0
 23 39  1  0
 24 40  1  0
 24 41  1  0
M  END
$$$$
