
     RDKit          3D

 47 48  0  0  0  0  0  0  0  0999 V2000
    2.0942   -1.8848    2.9845 C   0  0  0  0  0  0  0  0  0  0  0  0
    3.3803   -1.5737    2.2441 C   0  0  0  0  0  0  0  0  0  0  0  0
    3.0810   -0.6181    1.2220 O   0  0  0  0  0  0  0  0  0  0  0  0
    4.1393   -0.2900    0.4261 C   0  0  0  0  0  0  0  0  0  0  0  0
    5.2819   -0.6968    0.6031 O   0  0  0  0  0  0  0  0  0  0  0  0
    3.7644    0.6465   -0.6346 C   0  0  0  0  0  0  0  0  0  0  0  0
    4.6535    1.3982   -1.3957 C   0  0  0  0  0  0  0  0  0  0  0  0
    6.1406    1.4566   -1.3696 C   0  0  0  0  0  0  0  0  0  0  0  0
    3.9264    2.1615   -2.2737 N   0  0  0  0  0  0  0  0  0  0  0  0
    2.5856    1.9214   -2.1115 C   0  0  0  0  0  0  0  0  0  0  0  0
    1.5710    2.5829   -2.9757 C   0  0  0  0  0  0  0  0  0  0  0  0
    2.4474    0.9822   -1.0996 C   0  0  0  0  0  0  0  0  0  0  0  0
    1.1809    0.4135   -0.6437 C   0  0  0  0  0  0  0  0  0  0  0  0
    0.9063   -0.7681   -0.8510 O   0  0  0  0  0  0  0  0  0  0  0  0
    0.2589    1.3392    0.1528 C   0  0  0  0  0  0  0  0  0  0  0  0
   -1.0577    0.8145    0.3257 O   0  0  0  0  0  0  0  0  0  0  0  0
   -1.8135    0.8635   -0.7972 C   0  0  0  0  0  0  0  0  0  0  0  0
   -1.4922    1.3923   -1.8517 O   0  0  0  0  0  0  0  0  0  0  0  0
   -3.1224    0.2044   -0.6163 C   0  0  0  0  0  0  0  0  0  0  0  0
   -3.5301   -0.3693    0.5267 C   0  0  0  0  0  0  0  0  0  0  0  0
   -4.8393   -1.0155    0.6801 C   0  0  0  0  0  0  0  0  0  0  0  0
   -5.3664   -1.8684   -0.2996 C   0  0  0  0  0  0  0  0  0  0  0  0
   -6.6040   -2.4903   -0.1078 C   0  0  0  0  0  0  0  0  0  0  0  0
   -7.3161   -2.2679    1.0681 C   0  0  0  0  0  0  0  0  0  0  0  0
   -8.8385   -3.0332    1.3047 Cl  0  0  0  0  0  0  0  0  0  0  0  0
   -6.7988   -1.4344    2.0565 C   0  0  0  0  0  0  0  0  0  0  0  0
   -5.5601   -0.8150    1.8648 C   0  0  0  0  0  0  0  0  0  0  0  0
    1.6718   -0.9750    3.4235 H   0  0  0  0  0  0  0  0  0  0  0  0
    1.3409   -2.2841    2.2969 H   0  0  0  0  0  0  0  0  0  0  0  0
    2.2686   -2.6142    3.7804 H   0  0  0  0  0  0  0  0  0  0  0  0
    4.1159   -1.1526    2.9385 H   0  0  0  0  0  0  0  0  0  0  0  0
    3.7778   -2.4902    1.7938 H   0  0  0  0  0  0  0  0  0  0  0  0
    6.5242    2.2402   -2.0315 H   0  0  0  0  0  0  0  0  0  0  0  0
    6.5643    0.5013   -1.6957 H   0  0  0  0  0  0  0  0  0  0  0  0
    6.4984    1.6704   -0.3572 H   0  0  0  0  0  0  0  0  0  0  0  0
    4.3244    2.7914   -2.9598 H   0  0  0  0  0  0  0  0  0  0  0  0
    2.0376    3.0804   -3.8327 H   0  0  0  0  0  0  0  0  0  0  0  0
    1.0181    3.3367   -2.4063 H   0  0  0  0  0  0  0  0  0  0  0  0
    0.8597    1.8470   -3.3646 H   0  0  0  0  0  0  0  0  0  0  0  0
    0.2145    2.3374   -0.2954 H   0  0  0  0  0  0  0  0  0  0  0  0
    0.6929    1.4498    1.1525 H   0  0  0  0  0  0  0  0  0  0  0  0
   -3.7472    0.2262   -1.5026 H   0  0  0  0  0  0  0  0  0  0  0  0
   -2.9008   -0.3649    1.4138 H   0  0  0  0  0  0  0  0  0  0  0  0
   -4.8152   -2.0707   -1.2154 H   0  0  0  0  0  0  0  0  0  0  0  0
   -7.0005   -3.1491   -0.8757 H   0  0  0  0  0  0  0  0  0  0  0  0
   -7.3502   -1.2634    2.9768 H   0  0  0  0  0  0  0  0  0  0  0  0
   -5.1680   -0.1678    2.6466 H   0  0  0  0  0  0  0  0  0  0  0  0
  1  2  1  0
  2  3  1  0
  3  4  1  0
  4  5  2  0
  4  6  1  0
  6  7  2  0
  7  8  1  0
  7  9  1  0
  9 10  1  0
 10 11  1  0
 10 12  2  0
 12 13  1  0
 13 14  2  0
 13 15  1  0
 15 16  1  0
 16 17  1  0
 17 18  2  0
 17 19  1  0
 19 20  2  3
 20 21  1  0
 21 22  2  0
 22 23  1  0
 23 24  2  0
 24 25  1  0
 24 26  1  0
 26 27  2  0
 12  6  1  0
 27 21  1  0
  1 28  1  0
  1 29  1  0
  1 30  1  0
  2 31  1  0
  2 32  1  0
  8 33  1  0
  8 34  1  0
  8 35  1  0
  9 36  1  0
 11 37  1  0
 11 38  1  0
 11 39  1  0
 15 40  1  0
 15 41  1  0
 19 42  1  0
 20 43  1  0
 22 44  1  0
 23 45  1  0
 26 46  1  0
 27 47  1  0
M  END
$$$$
