
     RDKit          3D

 50 52  0  0  0  0  0  0  0  0999 V2000
    3.7119    0.6630   -1.6275 O   0  0  0  0  0  0  0  0  0  0  0  0
    3.3661   -0.0846   -0.7246 C   0  0  0  0  0  0  0  0  0  0  0  0
    4.1229   -0.3549    0.5585 C   0  0  0  0  0  0  0  0  0  0  0  0
    5.5671    0.0878    0.5274 C   0  0  0  0  0  0  0  0  0  0  0  0
    5.9039    1.4332    0.7498 C   0  0  0  0  0  0  0  0  0  0  0  0
    7.2380    1.8417    0.7127 C   0  0  0  0  0  0  0  0  0  0  0  0
    8.2339    0.9091    0.4486 C   0  0  0  0  0  0  0  0  0  0  0  0
    9.5139    1.3023    0.4144 F   0  0  0  0  0  0  0  0  0  0  0  0
    7.9213   -0.4251    0.2182 C   0  0  0  0  0  0  0  0  0  0  0  0
    6.5881   -0.8370    0.2541 C   0  0  0  0  0  0  0  0  0  0  0  0
    2.1883   -0.7747   -0.7080 O   0  0  0  0  0  0  0  0  0  0  0  0
    1.4155   -0.6181   -1.8994 C   0  0  0  0  0  0  0  0  0  0  0  0
    0.0709   -1.3322   -1.7668 C   0  0  0  0  0  0  0  0  0  0  0  0
   -0.2446   -2.2166   -2.5662 O   0  0  0  0  0  0  0  0  0  0  0  0
   -0.7827   -0.9362   -0.7456 N   0  0  0  0  0  0  0  0  0  0  0  0
   -2.0475   -1.6542   -0.5643 C   0  0  0  0  0  0  0  0  0  0  0  0
   -2.5067   -1.6759    0.8986 C   0  0  0  0  0  0  0  0  0  0  0  0
   -2.6026   -0.3077    1.4824 N   0  0  0  0  0  0  0  0  0  0  0  0
   -4.0785    0.1704    2.1598 S   0  0  0  0  0  6  0  0  0  0  0  0
   -3.8872    1.4687    2.7706 O   0  0  0  0  0  0  0  0  0  0  0  0
   -4.6097   -0.9455    2.9127 O   0  0  0  0  0  0  0  0  0  0  0  0
   -5.1270    0.4014    0.7351 C   0  0  0  0  0  0  0  0  0  0  0  0
   -5.2135    1.6636    0.1361 C   0  0  0  0  0  0  0  0  0  0  0  0
   -6.0494    1.8476   -0.9675 C   0  0  0  0  0  0  0  0  0  0  0  0
   -6.8051    0.7790   -1.4520 C   0  0  0  0  0  0  0  0  0  0  0  0
   -7.8291    1.0069   -2.8142 Cl  0  0  0  0  0  0  0  0  0  0  0  0
   -6.7416   -0.4717   -0.8363 C   0  0  0  0  0  0  0  0  0  0  0  0
   -5.9068   -0.6622    0.2674 C   0  0  0  0  0  0  0  0  0  0  0  0
   -1.7931    0.7379    0.8034 C   0  0  0  0  0  0  0  0  0  0  0  0
   -0.5082    0.1482    0.2041 C   0  0  0  0  0  0  0  0  0  0  0  0
    3.6037    0.1552    1.3785 H   0  0  0  0  0  0  0  0  0  0  0  0
    4.0830   -1.4312    0.7666 H   0  0  0  0  0  0  0  0  0  0  0  0
    5.1297    2.1728    0.9436 H   0  0  0  0  0  0  0  0  0  0  0  0
    7.5056    2.8795    0.8824 H   0  0  0  0  0  0  0  0  0  0  0  0
    8.7163   -1.1343    0.0112 H   0  0  0  0  0  0  0  0  0  0  0  0
    6.3543   -1.8831    0.0676 H   0  0  0  0  0  0  0  0  0  0  0  0
    1.2301    0.4380   -2.1240 H   0  0  0  0  0  0  0  0  0  0  0  0
    1.9569   -1.0728   -2.7379 H   0  0  0  0  0  0  0  0  0  0  0  0
   -1.9557   -2.6806   -0.9340 H   0  0  0  0  0  0  0  0  0  0  0  0
   -2.7922   -1.1432   -1.1863 H   0  0  0  0  0  0  0  0  0  0  0  0
   -1.7832   -2.2363    1.5043 H   0  0  0  0  0  0  0  0  0  0  0  0
   -3.4568   -2.2125    0.9676 H   0  0  0  0  0  0  0  0  0  0  0  0
   -4.6409    2.5042    0.5235 H   0  0  0  0  0  0  0  0  0  0  0  0
   -6.1143    2.8246   -1.4396 H   0  0  0  0  0  0  0  0  0  0  0  0
   -7.3457   -1.2970   -1.2055 H   0  0  0  0  0  0  0  0  0  0  0  0
   -5.8797   -1.6330    0.7579 H   0  0  0  0  0  0  0  0  0  0  0  0
   -1.5197    1.5114    1.5289 H   0  0  0  0  0  0  0  0  0  0  0  0
   -2.3783    1.1998    0.0018 H   0  0  0  0  0  0  0  0  0  0  0  0
    0.0623    0.9409   -0.2875 H   0  0  0  0  0  0  0  0  0  0  0  0
    0.1159   -0.2756    0.9995 H   0  0  0  0  0  0  0  0  0  0  0  0
  1  2  2  0
  2  3  1  0
  3  4  1  0
  4  5  2  0
  5  6  1  0
  6  7  2  0
  7  8  1  0
  7  9  1  0
  9 10  2  0
  2 11  1  0
 11 12  1  0
 12 13  1  0
 13 14  2  0
 13 15  1  0
 15 16  1  0
 16 17  1  0
 17 18  1  0
 18 19  1  0
 19 20  2  0
 19 21  2  0
 19 22  1  0
 22 23  2  0
 23 24  1  0
 24 25  2  0
 25 26  1  0
 25 27  1  0
 27 28  2  0
 18 29  1  0
 29 30  1  0
 10  4  1  0
 30 15  1  0
 28 22  1  0
  3 31  1  0
  3 32  1  0
  5 33  1  0
  6 34  1  0
  9 35  1  0
 10 36  1  0
 12 37  1  0
 12 38  1  0
 16 39  1  0
 16 40  1  0
 17 41  1  0
 17 42  1  0
 23 43  1  0
 24 44  1  0
 27 45  1  0
 28 46  1  0
 29 47  1  0
 29 48  1  0
 30 49  1  0
 30 50  1  0
M  END
$$$$
