
     RDKit          3D

 69 71  0  0  0  0  0  0  0  0999 V2000
    8.9416   -2.2031    2.2448 C   0  0  0  0  0  0  0  0  0  0  0  0
    7.7523   -1.4588    1.6567 C   0  0  0  0  0  0  0  0  0  0  0  0
    7.2982   -2.0875    0.3387 C   0  0  0  0  0  0  0  0  0  0  0  0
    6.1049   -1.3661   -0.3002 C   0  0  0  0  0  0  0  0  0  0  0  0
    4.7520   -2.0379   -0.0428 C   0  0  0  0  0  0  0  0  0  0  0  0
    4.2354   -1.9832    1.3958 C   0  0  0  0  0  0  0  0  0  0  0  0
    4.0086   -0.5829    1.9674 C   0  0  0  0  0  0  0  0  0  0  0  0
    3.0784    0.3485    1.1818 C   0  0  0  0  0  0  0  0  0  0  0  0
    1.5954   -0.0299    1.2079 C   0  0  0  0  0  0  0  0  0  0  0  0
    1.1685   -0.9793    0.0933 C   0  0  0  0  0  0  0  0  0  0  0  0
   -0.2599   -1.1679    0.1549 O   0  0  0  0  0  0  0  0  0  0  0  0
   -1.0119   -0.3337   -0.6141 C   0  0  0  0  0  0  0  0  0  0  0  0
   -0.5773    0.5471   -1.3456 O   0  0  0  0  0  0  0  0  0  0  0  0
   -2.4927   -0.6357   -0.4176 C   0  0  0  0  0  0  0  0  0  0  0  0
   -3.3503    0.1103   -1.3774 N   0  0  0  0  0  0  0  0  0  0  0  0
   -3.4059    1.4636   -1.4803 C   0  0  0  0  0  0  0  0  0  0  0  0
   -2.7775    2.5024   -0.5592 C   0  0  0  0  0  0  0  0  0  0  0  0
   -2.6758    2.0730    0.7941 O   0  0  0  0  0  0  0  0  0  0  0  0
   -3.7735    2.2127    1.5963 C   0  0  0  0  0  0  0  0  0  0  0  0
   -5.0715    2.5090    1.1752 C   0  0  0  0  0  0  0  0  0  0  0  0
   -6.1075    2.6060    2.1120 C   0  0  0  0  0  0  0  0  0  0  0  0
   -5.8486    2.4012    3.4654 C   0  0  0  0  0  0  0  0  0  0  0  0
   -7.1269    2.5193    4.6074 Cl  0  0  0  0  0  0  0  0  0  0  0  0
   -4.5599    2.0968    3.8923 C   0  0  0  0  0  0  0  0  0  0  0  0
   -3.5265    2.0015    2.9567 C   0  0  0  0  0  0  0  0  0  0  0  0
   -4.1556    1.7430   -2.5756 N   0  0  0  0  0  4  0  0  0  0  0  0
   -4.3593    3.0829   -3.1235 C   0  0  0  0  0  0  0  0  0  0  0  0
   -4.6983    0.5730   -3.0956 C   0  0  0  0  0  0  0  0  0  0  0  0
   -5.5770    0.3556   -4.1561 C   0  0  0  0  0  0  0  0  0  0  0  0
   -5.9200   -0.9776   -4.4116 C   0  0  0  0  0  0  0  0  0  0  0  0
   -5.3997   -2.0335   -3.6420 C   0  0  0  0  0  0  0  0  0  0  0  0
   -4.5134   -1.8054   -2.5809 C   0  0  0  0  0  0  0  0  0  0  0  0
   -4.1812   -0.4748   -2.3294 C   0  0  0  0  0  0  0  0  0  0  0  0
    8.6746   -3.2372    2.4806 H   0  0  0  0  0  0  0  0  0  0  0  0
    9.2715   -1.7181    3.1692 H   0  0  0  0  0  0  0  0  0  0  0  0
    9.7846   -2.2150    1.5474 H   0  0  0  0  0  0  0  0  0  0  0  0
    8.0349   -0.4136    1.4874 H   0  0  0  0  0  0  0  0  0  0  0  0
    6.9414   -1.4615    2.3897 H   0  0  0  0  0  0  0  0  0  0  0  0
    7.0763   -3.1515    0.4804 H   0  0  0  0  0  0  0  0  0  0  0  0
    8.1398   -2.0374   -0.3638 H   0  0  0  0  0  0  0  0  0  0  0  0
    6.2600   -1.3782   -1.3867 H   0  0  0  0  0  0  0  0  0  0  0  0
    6.0796   -0.3099   -0.0139 H   0  0  0  0  0  0  0  0  0  0  0  0
    4.0086   -1.5896   -0.7130 H   0  0  0  0  0  0  0  0  0  0  0  0
    4.8187   -3.0923   -0.3429 H   0  0  0  0  0  0  0  0  0  0  0  0
    3.3020   -2.5518    1.4562 H   0  0  0  0  0  0  0  0  0  0  0  0
    4.9336   -2.5205    2.0489 H   0  0  0  0  0  0  0  0  0  0  0  0
    4.9773   -0.0818    2.0694 H   0  0  0  0  0  0  0  0  0  0  0  0
    3.6231   -0.6888    2.9877 H   0  0  0  0  0  0  0  0  0  0  0  0
    3.1628    1.3363    1.6542 H   0  0  0  0  0  0  0  0  0  0  0  0
    3.4297    0.4827    0.1536 H   0  0  0  0  0  0  0  0  0  0  0  0
    1.3144   -0.4490    2.1810 H   0  0  0  0  0  0  0  0  0  0  0  0
    1.0060    0.8911    1.1119 H   0  0  0  0  0  0  0  0  0  0  0  0
    1.4778   -0.6151   -0.8931 H   0  0  0  0  0  0  0  0  0  0  0  0
    1.6121   -1.9683    0.2237 H   0  0  0  0  0  0  0  0  0  0  0  0
   -2.6364   -1.7088   -0.5707 H   0  0  0  0  0  0  0  0  0  0  0  0
   -2.7999   -0.3868    0.5998 H   0  0  0  0  0  0  0  0  0  0  0  0
   -1.7746    2.6729   -0.9565 H   0  0  0  0  0  0  0  0  0  0  0  0
   -3.3366    3.4375   -0.6549 H   0  0  0  0  0  0  0  0  0  0  0  0
   -5.3311    2.6691    0.1356 H   0  0  0  0  0  0  0  0  0  0  0  0
   -7.1165    2.8432    1.7804 H   0  0  0  0  0  0  0  0  0  0  0  0
   -4.3514    1.9369    4.9480 H   0  0  0  0  0  0  0  0  0  0  0  0
   -2.5201    1.7704    3.3014 H   0  0  0  0  0  0  0  0  0  0  0  0
   -3.4257    3.6484   -3.0619 H   0  0  0  0  0  0  0  0  0  0  0  0
   -5.1387    3.5843   -2.5439 H   0  0  0  0  0  0  0  0  0  0  0  0
   -4.6571    3.0318   -4.1731 H   0  0  0  0  0  0  0  0  0  0  0  0
   -5.9787    1.1680   -4.7485 H   0  0  0  0  0  0  0  0  0  0  0  0
   -6.6088   -1.2048   -5.2265 H   0  0  0  0  0  0  0  0  0  0  0  0
   -5.6972   -3.0558   -3.8778 H   0  0  0  0  0  0  0  0  0  0  0  0
   -4.1215   -2.6254   -1.9924 H   0  0  0  0  0  0  0  0  0  0  0  0
  1  2  1  0
  2  3  1  0
  3  4  1  0
  4  5  1  0
  5  6  1  0
  6  7  1  0
  7  8  1  0
  8  9  1  0
  9 10  1  0
 10 11  1  0
 11 12  1  0
 12 13  2  0
 12 14  1  0
 14 15  1  0
 15 16  1  0
 16 17  1  0
 17 18  1  0
 18 19  1  0
 19 20  2  0
 20 21  1  0
 21 22  2  0
 22 23  1  0
 22 24  1  0
 24 25  2  0
 16 26  2  0
 26 27  1  0
 26 28  1  0
 28 29  2  0
 29 30  1  0
 30 31  2  0
 31 32  1  0
 32 33  2  0
 33 15  1  0
 25 19  1  0
 33 28  1  0
  1 34  1  0
  1 35  1  0
  1 36  1  0
  2 37  1  0
  2 38  1  0
  3 39  1  0
  3 40  1  0
  4 41  1  0
  4 42  1  0
  5 43  1  0
  5 44  1  0
  6 45  1  0
  6 46  1  0
  7 47  1  0
  7 48  1  0
  8 49  1  0
  8 50  1  0
  9 51  1  0
  9 52  1  0
 10 53  1  0
 10 54  1  0
 14 55  1  0
 14 56  1  0
 17 57  1  0
 17 58  1  0
 20 59  1  0
 21 60  1  0
 24 61  1  0
 25 62  1  0
 27 63  1  0
 27 64  1  0
 27 65  1  0
 29 66  1  0
 30 67  1  0
 31 68  1  0
 32 69  1  0
M  CHG  1  26   1
M  END
$$$$
