
     RDKit          3D

 74 78  0  0  0  0  0  0  0  0999 V2000
    1.3467   -2.2537    3.8110 C   0  0  0  0  0  0  0  0  0  0  0  0
    0.6309   -2.9902    2.6867 C   0  0  0  0  0  0  0  0  0  0  0  0
   -0.7015   -2.3705    2.3601 C   0  0  0  0  0  0  0  0  0  0  0  0
   -1.9617   -2.8436    3.0489 C   0  0  0  0  0  0  0  0  0  0  0  0
   -1.8533   -3.9561    4.0698 C   0  0  0  0  0  0  0  0  0  0  0  0
   -3.1581   -2.3788    2.8282 N   0  0  0  0  0  0  0  0  0  0  0  0
   -3.2703   -1.3873    1.9028 C   0  0  0  0  0  0  0  0  0  0  0  0
   -4.3657   -0.6920    1.4508 C   0  0  0  0  0  0  0  0  0  0  0  0
   -3.8840    0.2212    0.4823 C   0  0  0  0  0  0  0  0  0  0  0  0
   -4.6453    1.2067   -0.2990 C   0  0  0  0  0  0  0  0  0  0  0  0
   -6.0044    1.4475   -0.0402 C   0  0  0  0  0  0  0  0  0  0  0  0
   -6.7154    2.3891   -0.7892 C   0  0  0  0  0  0  0  0  0  0  0  0
   -8.0372    2.7095   -0.6299 O   0  0  0  0  0  0  0  0  0  0  0  0
   -8.7585    2.0087    0.3751 C   0  0  0  0  0  0  0  0  0  0  0  0
   -6.0682    3.1009   -1.8043 C   0  0  0  0  0  0  0  0  0  0  0  0
   -4.7201    2.8794   -2.0765 C   0  0  0  0  0  0  0  0  0  0  0  0
   -3.9791    3.5094   -3.0387 O   0  0  0  0  0  0  0  0  0  0  0  0
   -4.6458    4.4898   -3.8245 C   0  0  0  0  0  0  0  0  0  0  0  0
   -4.0189    1.9349   -1.3231 C   0  0  0  0  0  0  0  0  0  0  0  0
   -2.5585    0.0890    0.3306 N   0  0  0  0  0  0  0  0  0  0  0  0
   -2.1763   -0.8840    1.2062 N   0  0  0  0  0  0  0  0  0  0  0  0
   -0.8689   -1.3912    1.4403 C   0  0  0  0  0  0  0  0  0  0  0  0
    0.2165   -0.8571    0.7130 N   0  0  0  0  0  0  0  0  0  0  0  0
    0.4165   -1.3158   -0.6869 C   0  0  0  0  0  0  0  0  0  0  0  0
    1.0697   -0.2431   -1.5883 C   0  0  0  0  0  0  0  0  0  0  0  0
    2.2595    0.4346   -1.0252 N   0  0  0  0  0  0  0  0  0  0  0  0
    3.4707   -0.3974   -1.1798 C   0  0  0  0  0  0  0  0  0  0  0  0
    4.7787    0.3864   -0.8954 C   0  0  0  0  0  0  0  0  0  0  0  0
    5.9835   -0.4602   -0.9759 N   0  0  0  0  0  0  0  0  0  0  0  0
    7.1189    0.1928   -0.2877 C   0  0  0  0  0  0  0  0  0  0  0  0
    8.4628   -0.4146   -0.7140 C   0  0  0  0  0  0  0  0  0  0  0  0
    8.7501   -0.2182   -2.1058 O   0  0  0  0  0  0  0  0  0  0  0  0
    7.5702   -0.0464   -2.9024 C   0  0  0  0  0  0  0  0  0  0  0  0
    6.3566   -0.8225   -2.3611 C   0  0  0  0  0  0  0  0  0  0  0  0
    2.0251    0.7949    0.3986 C   0  0  0  0  0  0  0  0  0  0  0  0
    0.5856    0.5635    0.9137 C   0  0  0  0  0  0  0  0  0  0  0  0
    2.3059   -2.7366    4.0257 H   0  0  0  0  0  0  0  0  0  0  0  0
    0.7570   -2.2494    4.7329 H   0  0  0  0  0  0  0  0  0  0  0  0
    1.5518   -1.2138    3.5354 H   0  0  0  0  0  0  0  0  0  0  0  0
    0.5174   -4.0466    2.9501 H   0  0  0  0  0  0  0  0  0  0  0  0
    1.2795   -2.9935    1.8024 H   0  0  0  0  0  0  0  0  0  0  0  0
   -1.1144   -3.7035    4.8334 H   0  0  0  0  0  0  0  0  0  0  0  0
   -1.5707   -4.8870    3.5702 H   0  0  0  0  0  0  0  0  0  0  0  0
   -2.8163   -4.1109    4.5670 H   0  0  0  0  0  0  0  0  0  0  0  0
   -5.3781   -0.8444    1.7916 H   0  0  0  0  0  0  0  0  0  0  0  0
   -6.4974    0.8995    0.7539 H   0  0  0  0  0  0  0  0  0  0  0  0
   -9.7915    2.3702    0.3587 H   0  0  0  0  0  0  0  0  0  0  0  0
   -8.3497    2.2146    1.3698 H   0  0  0  0  0  0  0  0  0  0  0  0
   -8.7782    0.9329    0.1696 H   0  0  0  0  0  0  0  0  0  0  0  0
   -6.6496    3.8253   -2.3650 H   0  0  0  0  0  0  0  0  0  0  0  0
   -5.4628    4.0431   -4.4017 H   0  0  0  0  0  0  0  0  0  0  0  0
   -3.9200    4.8975   -4.5349 H   0  0  0  0  0  0  0  0  0  0  0  0
   -5.0033    5.3184   -3.2033 H   0  0  0  0  0  0  0  0  0  0  0  0
   -2.9653    1.7694   -1.5434 H   0  0  0  0  0  0  0  0  0  0  0  0
   -0.5403   -1.6104   -1.1364 H   0  0  0  0  0  0  0  0  0  0  0  0
    1.0521   -2.2089   -0.6619 H   0  0  0  0  0  0  0  0  0  0  0  0
    0.3214    0.5338   -1.7971 H   0  0  0  0  0  0  0  0  0  0  0  0
    1.2981   -0.6783   -2.5692 H   0  0  0  0  0  0  0  0  0  0  0  0
    3.5115   -0.7617   -2.2126 H   0  0  0  0  0  0  0  0  0  0  0  0
    3.4173   -1.2848   -0.5354 H   0  0  0  0  0  0  0  0  0  0  0  0
    4.8610    1.2446   -1.5763 H   0  0  0  0  0  0  0  0  0  0  0  0
    4.7152    0.7960    0.1206 H   0  0  0  0  0  0  0  0  0  0  0  0
    7.1361    1.2668   -0.5163 H   0  0  0  0  0  0  0  0  0  0  0  0
    6.9939    0.0807    0.7950 H   0  0  0  0  0  0  0  0  0  0  0  0
    8.4854   -1.4914   -0.5095 H   0  0  0  0  0  0  0  0  0  0  0  0
    9.2794    0.0410   -0.1449 H   0  0  0  0  0  0  0  0  0  0  0  0
    7.8093   -0.3851   -3.9158 H   0  0  0  0  0  0  0  0  0  0  0  0
    7.3494    1.0258   -2.9634 H   0  0  0  0  0  0  0  0  0  0  0  0
    6.6146   -1.8886   -2.3458 H   0  0  0  0  0  0  0  0  0  0  0  0
    5.5211   -0.7156   -3.0600 H   0  0  0  0  0  0  0  0  0  0  0  0
    2.6912    0.2244    1.0597 H   0  0  0  0  0  0  0  0  0  0  0  0
    2.2832    1.8518    0.5290 H   0  0  0  0  0  0  0  0  0  0  0  0
    0.5522    0.8069    1.9827 H   0  0  0  0  0  0  0  0  0  0  0  0
   -0.1169    1.2320    0.4024 H   0  0  0  0  0  0  0  0  0  0  0  0
  1  2  1  0
  2  3  1  0
  3  4  1  0
  4  5  1  0
  4  6  2  0
  6  7  1  0
  7  8  2  0
  8  9  1  0
  9 10  1  0
 10 11  2  0
 11 12  1  0
 12 13  1  0
 13 14  1  0
 12 15  2  0
 15 16  1  0
 16 17  1  0
 17 18  1  0
 16 19  2  0
  9 20  2  0
 20 21  1  0
 21 22  1  0
 22 23  1  0
 23 24  1  0
 24 25  1  0
 25 26  1  0
 26 27  1  0
 27 28  1  0
 28 29  1  0
 29 30  1  0
 30 31  1  0
 31 32  1  0
 32 33  1  0
 33 34  1  0
 26 35  1  0
 35 36  1  0
 22  3  2  0
 36 23  1  0
 21  7  1  0
 34 29  1  0
 19 10  1  0
  1 37  1  0
  1 38  1  0
  1 39  1  0
  2 40  1  0
  2 41  1  0
  5 42  1  0
  5 43  1  0
  5 44  1  0
  8 45  1  0
 11 46  1  0
 14 47  1  0
 14 48  1  0
 14 49  1  0
 15 50  1  0
 18 51  1  0
 18 52  1  0
 18 53  1  0
 19 54  1  0
 24 55  1  0
 24 56  1  0
 25 57  1  0
 25 58  1  0
 27 59  1  0
 27 60  1  0
 28 61  1  0
 28 62  1  0
 30 63  1  0
 30 64  1  0
 31 65  1  0
 31 66  1  0
 33 67  1  0
 33 68  1  0
 34 69  1  0
 34 70  1  0
 35 71  1  0
 35 72  1  0
 36 73  1  0
 36 74  1  0
M  END
$$$$
