
     RDKit          3D

 61 63  0  0  0  0  0  0  0  0999 V2000
    6.3697   -2.0092    2.6067 C   0  0  0  0  0  0  0  0  0  0  0  0
    6.1278   -1.1942    1.4304 N   0  0  0  0  0  0  0  0  0  0  0  0
    4.9669   -0.4387    1.4001 C   0  0  0  0  0  0  0  0  0  0  0  0
    4.1144   -0.4468    2.2852 O   0  0  0  0  0  0  0  0  0  0  0  0
    4.7556    0.4016    0.2122 C   0  0  0  0  0  0  0  0  0  0  0  0
    3.6480    1.2607    0.1646 C   0  0  0  0  0  0  0  0  0  0  0  0
    3.4391    2.0452   -0.9685 C   0  0  0  0  0  0  0  0  0  0  0  0
    2.0326    3.1250   -1.0308 S   0  0  0  0  0  6  0  0  0  0  0  0
    1.9198    3.6516   -2.3725 O   0  0  0  0  0  0  0  0  0  0  0  0
    2.1097    3.9796    0.1308 O   0  0  0  0  0  0  0  0  0  0  0  0
    0.7660    2.0520   -0.7801 N   0  0  0  0  0  0  0  0  0  0  0  0
    0.1907    1.3634   -1.9451 C   0  0  0  0  0  0  0  0  0  0  0  0
   -0.5629    0.1156   -1.4996 C   0  0  0  0  0  0  0  0  0  0  0  0
   -1.8240    0.4477   -0.7299 C   0  0  0  0  0  0  0  0  0  0  0  0
   -2.1278    1.5868   -0.3924 O   0  0  0  0  0  0  0  0  0  0  0  0
   -2.5785   -0.6668   -0.4240 N   0  0  0  0  0  0  0  0  0  0  0  0
   -3.8755   -0.5630    0.2539 C   0  0  0  0  0  0  0  0  0  0  0  0
   -4.1128   -1.8700    1.0285 C   0  0  0  0  0  0  0  0  0  0  0  0
   -5.4686   -2.0525    1.7104 C   0  0  0  0  0  0  0  0  0  0  0  0
   -5.9496   -0.8300    2.4867 C   0  0  0  0  0  0  0  0  0  0  0  0
   -7.2015   -0.1726    1.9095 C   0  0  0  0  0  0  0  0  0  0  0  0
   -7.2667    0.0175    0.3938 C   0  0  0  0  0  0  0  0  0  0  0  0
   -6.0687    0.7164   -0.2440 C   0  0  0  0  0  0  0  0  0  0  0  0
   -4.9720   -0.2219   -0.7695 C   0  0  0  0  0  0  0  0  0  0  0  0
    4.3233    1.9822   -2.0436 C   0  0  0  0  0  0  0  0  0  0  0  0
    5.4271    1.1243   -1.9808 C   0  0  0  0  0  0  0  0  0  0  0  0
    5.6576    0.3218   -0.8495 C   0  0  0  0  0  0  0  0  0  0  0  0
    6.7642   -0.5643   -0.7629 N   0  0  0  0  0  0  0  0  0  0  0  0
    7.6880   -0.6755   -1.8851 C   0  0  0  0  0  0  0  0  0  0  0  0
    7.0076   -1.3436    0.3653 C   0  0  0  0  0  0  0  0  0  0  0  0
    7.9509   -2.1364    0.4182 O   0  0  0  0  0  0  0  0  0  0  0  0
    5.8446   -1.6191    3.4832 H   0  0  0  0  0  0  0  0  0  0  0  0
    6.0162   -3.0246    2.4012 H   0  0  0  0  0  0  0  0  0  0  0  0
    7.4404   -2.0479    2.8300 H   0  0  0  0  0  0  0  0  0  0  0  0
    2.9573    1.3178    1.0047 H   0  0  0  0  0  0  0  0  0  0  0  0
    0.0837    2.4156   -0.1041 H   0  0  0  0  0  0  0  0  0  0  0  0
   -0.4775    2.0500   -2.4761 H   0  0  0  0  0  0  0  0  0  0  0  0
    0.9914    1.0563   -2.6265 H   0  0  0  0  0  0  0  0  0  0  0  0
   -0.8487   -0.4631   -2.3857 H   0  0  0  0  0  0  0  0  0  0  0  0
    0.0741   -0.5127   -0.8663 H   0  0  0  0  0  0  0  0  0  0  0  0
   -2.3480   -1.5439   -0.8734 H   0  0  0  0  0  0  0  0  0  0  0  0
   -3.7757    0.2652    0.9642 H   0  0  0  0  0  0  0  0  0  0  0  0
   -3.9566   -2.7281    0.3607 H   0  0  0  0  0  0  0  0  0  0  0  0
   -3.3291   -1.9546    1.7943 H   0  0  0  0  0  0  0  0  0  0  0  0
   -6.2099   -2.3871    0.9781 H   0  0  0  0  0  0  0  0  0  0  0  0
   -5.3681   -2.8913    2.4119 H   0  0  0  0  0  0  0  0  0  0  0  0
   -6.1896   -1.1416    3.5119 H   0  0  0  0  0  0  0  0  0  0  0  0
   -5.1574   -0.0833    2.5997 H   0  0  0  0  0  0  0  0  0  0  0  0
   -7.3289    0.8024    2.3963 H   0  0  0  0  0  0  0  0  0  0  0  0
   -8.0746   -0.7684    2.2062 H   0  0  0  0  0  0  0  0  0  0  0  0
   -8.1560    0.6313    0.1960 H   0  0  0  0  0  0  0  0  0  0  0  0
   -7.4642   -0.9369   -0.1071 H   0  0  0  0  0  0  0  0  0  0  0  0
   -5.6559    1.4835    0.4211 H   0  0  0  0  0  0  0  0  0  0  0  0
   -6.4551    1.2579   -1.1186 H   0  0  0  0  0  0  0  0  0  0  0  0
   -4.5078    0.3037   -1.6157 H   0  0  0  0  0  0  0  0  0  0  0  0
   -5.4028   -1.1337   -1.2009 H   0  0  0  0  0  0  0  0  0  0  0  0
    4.1682    2.5968   -2.9287 H   0  0  0  0  0  0  0  0  0  0  0  0
    6.0947    1.1083   -2.8381 H   0  0  0  0  0  0  0  0  0  0  0  0
    7.1421   -1.0105   -2.7728 H   0  0  0  0  0  0  0  0  0  0  0  0
    8.4877   -1.3966   -1.6951 H   0  0  0  0  0  0  0  0  0  0  0  0
    8.1551    0.2975   -2.0682 H   0  0  0  0  0  0  0  0  0  0  0  0
  1  2  1  0
  2  3  1  0
  3  4  2  0
  3  5  1  0
  5  6  2  0
  6  7  1  0
  7  8  1  0
  8  9  2  0
  8 10  2  0
  8 11  1  0
 11 12  1  0
 12 13  1  0
 13 14  1  0
 14 15  2  0
 14 16  1  0
 16 17  1  0
 17 18  1  0
 18 19  1  0
 19 20  1  0
 20 21  1  0
 21 22  1  0
 22 23  1  0
 23 24  1  0
  7 25  2  0
 25 26  1  0
 26 27  2  0
 27 28  1  0
 28 29  1  0
 28 30  1  0
 30 31  2  0
 30  2  1  0
 27  5  1  0
 24 17  1  0
  1 32  1  0
  1 33  1  0
  1 34  1  0
  6 35  1  0
 11 36  1  0
 12 37  1  0
 12 38  1  0
 13 39  1  0
 13 40  1  0
 16 41  1  0
 17 42  1  0
 18 43  1  0
 18 44  1  0
 19 45  1  0
 19 46  1  0
 20 47  1  0
 20 48  1  0
 21 49  1  0
 21 50  1  0
 22 51  1  0
 22 52  1  0
 23 53  1  0
 23 54  1  0
 24 55  1  0
 24 56  1  0
 25 57  1  0
 26 58  1  0
 29 59  1  0
 29 60  1  0
 29 61  1  0
M  END
$$$$
