
     RDKit          3D

 48 51  0  0  0  0  0  0  0  0999 V2000
    5.3589    0.1862    0.2004 C   0  0  0  0  0  0  0  0  0  0  0  0
    4.2104    1.1592    0.4743 C   0  0  0  0  0  0  0  0  0  0  0  0
    4.7391    2.5875    0.5880 C   0  0  0  0  0  0  0  0  0  0  0  0
    3.1349    1.0747   -0.6175 C   0  0  0  0  0  0  0  0  0  0  0  0
    2.5783   -0.2456   -0.6949 O   0  0  0  0  0  0  0  0  0  0  0  0
    1.5450   -0.4912    0.1527 C   0  0  0  0  0  0  0  0  0  0  0  0
    1.0934    0.2728    0.9897 O   0  0  0  0  0  0  0  0  0  0  0  0
    1.0597   -1.8753   -0.0664 C   0  0  0  0  0  0  0  0  0  0  0  0
    2.0226   -2.9018   -0.0783 C   0  0  0  0  0  0  0  0  0  0  0  0
    1.6333   -4.2413   -0.0958 C   0  0  0  0  0  0  0  0  0  0  0  0
    0.2809   -4.5689   -0.0809 C   0  0  0  0  0  0  0  0  0  0  0  0
   -0.6852   -3.5601   -0.0685 C   0  0  0  0  0  0  0  0  0  0  0  0
   -0.3063   -2.2061   -0.0801 C   0  0  0  0  0  0  0  0  0  0  0  0
   -1.3294   -1.2141   -0.1561 N   0  0  0  0  0  0  0  0  0  0  0  0
   -1.3152   -0.0793   -0.9948 C   0  0  0  0  0  0  0  0  0  0  0  0
   -0.3420    0.1579   -1.8695 O   0  0  0  0  0  0  0  0  0  0  0  0
   -2.4652    0.6095   -0.7467 C   0  0  0  0  0  0  0  0  0  0  0  0
   -3.2363   -0.1122    0.1809 C   0  0  0  0  0  0  0  0  0  0  0  0
   -2.5643   -1.2471    0.5282 C   0  0  0  0  0  0  0  0  0  0  0  0
   -2.8937   -2.2135    1.3807 O   0  0  0  0  0  0  0  0  0  0  0  0
   -4.4989    0.6592    0.4030 C   0  0  0  0  0  0  0  0  0  0  0  0
   -4.1347    1.9642    1.1575 C   0  0  0  0  0  0  0  0  0  0  0  0
   -3.2816    2.7641    0.1187 C   0  0  0  0  0  0  0  0  0  0  0  0
   -3.2456    1.8304   -1.1189 C   0  0  0  0  0  0  0  0  0  0  0  0
   -4.6951    1.2491   -1.0323 C   0  0  0  0  0  0  0  0  0  0  0  0
    5.8383    0.3991   -0.7612 H   0  0  0  0  0  0  0  0  0  0  0  0
    5.0043   -0.8491    0.1808 H   0  0  0  0  0  0  0  0  0  0  0  0
    6.1227    0.2587    0.9820 H   0  0  0  0  0  0  0  0  0  0  0  0
    3.7654    0.8763    1.4362 H   0  0  0  0  0  0  0  0  0  0  0  0
    5.2054    2.9150   -0.3475 H   0  0  0  0  0  0  0  0  0  0  0  0
    3.9281    3.2841    0.8249 H   0  0  0  0  0  0  0  0  0  0  0  0
    5.4873    2.6634    1.3841 H   0  0  0  0  0  0  0  0  0  0  0  0
    3.5725    1.2915   -1.5989 H   0  0  0  0  0  0  0  0  0  0  0  0
    2.3430    1.8177   -0.4596 H   0  0  0  0  0  0  0  0  0  0  0  0
    3.0826   -2.6604   -0.0430 H   0  0  0  0  0  0  0  0  0  0  0  0
    2.3845   -5.0269   -0.1012 H   0  0  0  0  0  0  0  0  0  0  0  0
   -0.0274   -5.6116   -0.0855 H   0  0  0  0  0  0  0  0  0  0  0  0
   -1.7340   -3.8481   -0.0896 H   0  0  0  0  0  0  0  0  0  0  0  0
   -0.5534    1.0036   -2.3017 H   0  0  0  0  0  0  0  0  0  0  0  0
   -3.7397   -1.9555    1.7863 H   0  0  0  0  0  0  0  0  0  0  0  0
   -5.3408    0.0944    0.8029 H   0  0  0  0  0  0  0  0  0  0  0  0
   -3.5684    1.7743    2.0757 H   0  0  0  0  0  0  0  0  0  0  0  0
   -5.0357    2.5324    1.4144 H   0  0  0  0  0  0  0  0  0  0  0  0
   -2.2818    2.9830    0.5091 H   0  0  0  0  0  0  0  0  0  0  0  0
   -3.7783    3.7112   -0.1197 H   0  0  0  0  0  0  0  0  0  0  0  0
   -2.9781    2.3003   -2.0650 H   0  0  0  0  0  0  0  0  0  0  0  0
   -5.4763    2.0153   -1.0861 H   0  0  0  0  0  0  0  0  0  0  0  0
   -4.8830    0.4730   -1.7847 H   0  0  0  0  0  0  0  0  0  0  0  0
  1  2  1  0
  2  3  1  0
  2  4  1  0
  4  5  1  0
  5  6  1  0
  6  7  2  0
  6  8  1  0
  8  9  2  0
  9 10  1  0
 10 11  2  0
 11 12  1  0
 12 13  2  0
 13 14  1  0
 14 15  1  0
 15 16  1  0
 15 17  2  0
 17 18  1  0
 18 19  2  0
 19 20  1  0
 18 21  1  0
 21 22  1  0
 22 23  1  0
 23 24  1  0
 24 25  1  0
 13  8  1  0
 19 14  1  0
 25 21  1  0
 24 17  1  0
  1 26  1  0
  1 27  1  0
  1 28  1  0
  2 29  1  0
  3 30  1  0
  3 31  1  0
  3 32  1  0
  4 33  1  0
  4 34  1  0
  9 35  1  0
 10 36  1  0
 11 37  1  0
 12 38  1  0
 16 39  1  0
 20 40  1  0
 21 41  1  0
 22 42  1  0
 22 43  1  0
 23 44  1  0
 23 45  1  0
 24 46  1  0
 25 47  1  0
 25 48  1  0
M  END
$$$$
