
     RDKit          3D

 43 45  0  0  0  0  0  0  0  0999 V2000
    3.4536   -2.9831   -1.0075 C   0  0  0  0  0  0  0  0  0  0  0  0
    4.5292   -2.0544   -0.9737 O   0  0  0  0  0  0  0  0  0  0  0  0
    4.2539   -0.7933   -0.5157 C   0  0  0  0  0  0  0  0  0  0  0  0
    5.3550    0.0582   -0.4827 C   0  0  0  0  0  0  0  0  0  0  0  0
    5.2427    1.3753   -0.0350 C   0  0  0  0  0  0  0  0  0  0  0  0
    3.9807    1.8162    0.3765 C   0  0  0  0  0  0  0  0  0  0  0  0
    3.6067    3.0451    0.8625 N   0  0  0  0  0  0  0  0  0  0  0  0
    2.2739    3.0487    1.1466 C   0  0  0  0  0  0  0  0  0  0  0  0
    1.7418    1.8056    0.8392 C   0  0  0  0  0  0  0  0  0  0  0  0
    0.3112    1.5016    1.0270 C   0  0  0  0  0  0  0  0  0  0  0  0
   -0.4130    2.3201    1.5971 O   0  0  0  0  0  0  0  0  0  0  0  0
   -0.2188    0.1606    0.4946 C   0  0  0  0  0  0  0  0  0  0  0  0
   -1.6921    0.0166    0.5648 N   0  0  0  0  0  0  0  0  0  0  0  0
   -2.1048   -1.3535    0.2647 C   0  0  0  0  0  0  0  0  0  0  0  0
   -3.5902   -1.5598    0.5888 C   0  0  0  0  0  0  0  0  0  0  0  0
   -4.4612   -0.3376    0.2511 C   0  0  0  0  0  0  0  0  0  0  0  0
   -5.8534   -0.7584   -0.2105 C   0  0  0  0  0  0  0  0  0  0  0  0
   -3.7624    0.5345   -0.7914 C   0  0  0  0  0  0  0  0  0  0  0  0
   -2.3853    0.9983   -0.2906 C   0  0  0  0  0  0  0  0  0  0  0  0
    2.8401    1.0060    0.3540 C   0  0  0  0  0  0  0  0  0  0  0  0
    2.9983   -0.3289   -0.0993 C   0  0  0  0  0  0  0  0  0  0  0  0
    2.6671   -2.6509   -1.6932 H   0  0  0  0  0  0  0  0  0  0  0  0
    3.0543   -3.1620   -0.0036 H   0  0  0  0  0  0  0  0  0  0  0  0
    3.8438   -3.9333   -1.3844 H   0  0  0  0  0  0  0  0  0  0  0  0
    6.3256   -0.3109   -0.8078 H   0  0  0  0  0  0  0  0  0  0  0  0
    6.1107    2.0264   -0.0082 H   0  0  0  0  0  0  0  0  0  0  0  0
    4.2339    3.8274    0.9933 H   0  0  0  0  0  0  0  0  0  0  0  0
    1.7943    3.9347    1.5448 H   0  0  0  0  0  0  0  0  0  0  0  0
    0.1133    0.0301   -0.5417 H   0  0  0  0  0  0  0  0  0  0  0  0
    0.2370   -0.6135    1.1233 H   0  0  0  0  0  0  0  0  0  0  0  0
   -1.5310   -2.0730    0.8620 H   0  0  0  0  0  0  0  0  0  0  0  0
   -1.9107   -1.5946   -0.7889 H   0  0  0  0  0  0  0  0  0  0  0  0
   -3.7066   -1.7828    1.6573 H   0  0  0  0  0  0  0  0  0  0  0  0
   -3.9379   -2.4500    0.0502 H   0  0  0  0  0  0  0  0  0  0  0  0
   -4.5824    0.2589    1.1659 H   0  0  0  0  0  0  0  0  0  0  0  0
   -6.3467   -1.3690    0.5530 H   0  0  0  0  0  0  0  0  0  0  0  0
   -5.8067   -1.3427   -1.1357 H   0  0  0  0  0  0  0  0  0  0  0  0
   -6.4816    0.1189   -0.3970 H   0  0  0  0  0  0  0  0  0  0  0  0
   -3.6407   -0.0323   -1.7240 H   0  0  0  0  0  0  0  0  0  0  0  0
   -4.3743    1.4117   -1.0333 H   0  0  0  0  0  0  0  0  0  0  0  0
   -1.7848    1.2596   -1.1714 H   0  0  0  0  0  0  0  0  0  0  0  0
   -2.5268    1.9198    0.2850 H   0  0  0  0  0  0  0  0  0  0  0  0
    2.1442   -0.9904   -0.1170 H   0  0  0  0  0  0  0  0  0  0  0  0
  1  2  1  0
  2  3  1  0
  3  4  2  0
  4  5  1  0
  5  6  2  0
  6  7  1  0
  7  8  1  0
  8  9  2  0
  9 10  1  0
 10 11  2  0
 10 12  1  0
 12 13  1  0
 13 14  1  0
 14 15  1  0
 15 16  1  0
 16 17  1  0
 16 18  1  0
 18 19  1  0
  9 20  1  0
 20 21  2  0
 21  3  1  0
 20  6  1  0
 19 13  1  0
  1 22  1  0
  1 23  1  0
  1 24  1  0
  4 25  1  0
  5 26  1  0
  7 27  1  0
  8 28  1  0
 12 29  1  0
 12 30  1  0
 14 31  1  0
 14 32  1  0
 15 33  1  0
 15 34  1  0
 16 35  1  0
 17 36  1  0
 17 37  1  0
 17 38  1  0
 18 39  1  0
 18 40  1  0
 19 41  1  0
 19 42  1  0
 21 43  1  0
M  END
$$$$
