
     RDKit          3D

 68 72  0  0  0  0  0  0  0  0999 V2000
    9.9822    0.0792   -0.6005 C   0  0  0  0  0  0  0  0  0  0  0  0
    9.1336    1.2160   -0.5010 O   0  0  0  0  0  0  0  0  0  0  0  0
    7.7871    0.9837   -0.5436 C   0  0  0  0  0  0  0  0  0  0  0  0
    6.9910    2.1245   -0.4643 C   0  0  0  0  0  0  0  0  0  0  0  0
    5.5929    2.0299   -0.4988 C   0  0  0  0  0  0  0  0  0  0  0  0
    4.9487    0.7931   -0.6259 C   0  0  0  0  0  0  0  0  0  0  0  0
    3.5537    0.6402   -0.6632 N   0  0  0  0  0  0  0  0  0  0  0  0
    3.0584    0.0078   -1.9120 C   0  0  0  0  0  0  0  0  0  0  0  0
    1.5634   -0.3697   -1.7766 C   0  0  0  0  0  0  0  0  0  0  0  0
    0.7225    0.7858   -1.3975 N   0  0  0  0  0  0  0  0  0  0  0  0
   -0.7119    0.4611   -1.3687 C   0  0  0  0  0  0  0  0  0  0  0  0
   -1.1405   -0.5751   -0.3630 C   0  0  0  0  0  0  0  0  0  0  0  0
   -0.9216   -1.8783   -0.4782 N   0  0  0  0  0  0  0  0  0  0  0  0
   -1.4377   -2.4307    0.6478 C   0  0  0  0  0  0  0  0  0  0  0  0
   -2.0084   -1.4942    1.4590 C   0  0  0  0  0  0  0  0  0  0  0  0
   -2.6184   -1.8382    2.6982 C   0  0  0  0  0  0  0  0  0  0  0  0
   -3.1607   -1.0506    3.4648 O   0  0  0  0  0  0  0  0  0  0  0  0
   -2.5484   -3.1868    2.9669 N   0  0  0  0  0  0  0  0  0  0  0  0
   -1.9833   -4.1715    2.1779 C   0  0  0  0  0  0  0  0  0  0  0  0
   -2.0114   -5.3373    2.5726 O   0  0  0  0  0  0  0  0  0  0  0  0
   -1.4156   -3.7694    0.9752 N   0  0  0  0  0  0  0  0  0  0  0  0
   -0.7941   -4.7342    0.0895 C   0  0  0  0  0  0  0  0  0  0  0  0
   -1.8486   -0.3033    0.7997 N   0  0  0  0  0  0  0  0  0  0  0  0
   -2.3177    0.9947    1.2492 C   0  0  0  0  0  0  0  0  0  0  0  0
   -3.6293    1.4357    0.5972 C   0  0  0  0  0  0  0  0  0  0  0  0
   -4.8366    0.6112    1.0518 C   0  0  0  0  0  0  0  0  0  0  0  0
   -6.1066    1.0972    0.3984 C   0  0  0  0  0  0  0  0  0  0  0  0
   -6.4783    0.6240   -0.8676 C   0  0  0  0  0  0  0  0  0  0  0  0
   -7.6413    1.0895   -1.4829 C   0  0  0  0  0  0  0  0  0  0  0  0
   -8.4405    2.0335   -0.8411 C   0  0  0  0  0  0  0  0  0  0  0  0
   -8.0780    2.5125    0.4168 C   0  0  0  0  0  0  0  0  0  0  0  0
   -6.9152    2.0486    1.0338 C   0  0  0  0  0  0  0  0  0  0  0  0
    1.2300    1.3688   -0.1425 C   0  0  0  0  0  0  0  0  0  0  0  0
    2.7172    1.7868   -0.2530 C   0  0  0  0  0  0  0  0  0  0  0  0
    5.7704   -0.3450   -0.6859 C   0  0  0  0  0  0  0  0  0  0  0  0
    7.1696   -0.2574   -0.6501 C   0  0  0  0  0  0  0  0  0  0  0  0
    9.8449   -0.4330   -1.5586 H   0  0  0  0  0  0  0  0  0  0  0  0
    9.8265   -0.6046    0.2403 H   0  0  0  0  0  0  0  0  0  0  0  0
   11.0176    0.4298   -0.5558 H   0  0  0  0  0  0  0  0  0  0  0  0
    7.4595    3.1015   -0.3762 H   0  0  0  0  0  0  0  0  0  0  0  0
    5.0291    2.9552   -0.4422 H   0  0  0  0  0  0  0  0  0  0  0  0
    3.1888    0.7024   -2.7525 H   0  0  0  0  0  0  0  0  0  0  0  0
    3.6096   -0.9081   -2.1514 H   0  0  0  0  0  0  0  0  0  0  0  0
    1.4869   -1.1713   -1.0321 H   0  0  0  0  0  0  0  0  0  0  0  0
    1.2253   -0.7734   -2.7384 H   0  0  0  0  0  0  0  0  0  0  0  0
   -1.2734    1.3916   -1.2358 H   0  0  0  0  0  0  0  0  0  0  0  0
   -1.0080    0.1025   -2.3636 H   0  0  0  0  0  0  0  0  0  0  0  0
   -2.9589   -3.4987    3.8325 H   0  0  0  0  0  0  0  0  0  0  0  0
   -0.8946   -5.7540    0.4704 H   0  0  0  0  0  0  0  0  0  0  0  0
   -1.2709   -4.6785   -0.8943 H   0  0  0  0  0  0  0  0  0  0  0  0
    0.2705   -4.4972   -0.0045 H   0  0  0  0  0  0  0  0  0  0  0  0
   -2.4044    0.9836    2.3391 H   0  0  0  0  0  0  0  0  0  0  0  0
   -1.5299    1.7197    1.0214 H   0  0  0  0  0  0  0  0  0  0  0  0
   -3.5415    1.3898   -0.4953 H   0  0  0  0  0  0  0  0  0  0  0  0
   -3.7993    2.4902    0.8498 H   0  0  0  0  0  0  0  0  0  0  0  0
   -4.9428    0.6652    2.1420 H   0  0  0  0  0  0  0  0  0  0  0  0
   -4.7000   -0.4487    0.8081 H   0  0  0  0  0  0  0  0  0  0  0  0
   -5.8644   -0.1119   -1.3821 H   0  0  0  0  0  0  0  0  0  0  0  0
   -7.9242    0.7152   -2.4634 H   0  0  0  0  0  0  0  0  0  0  0  0
   -9.3462    2.3958   -1.3205 H   0  0  0  0  0  0  0  0  0  0  0  0
   -8.7017    3.2481    0.9177 H   0  0  0  0  0  0  0  0  0  0  0  0
   -6.6457    2.4333    2.0148 H   0  0  0  0  0  0  0  0  0  0  0  0
    0.6481    2.2632    0.1084 H   0  0  0  0  0  0  0  0  0  0  0  0
    1.1255    0.6593    0.6885 H   0  0  0  0  0  0  0  0  0  0  0  0
    2.8045    2.6042   -0.9808 H   0  0  0  0  0  0  0  0  0  0  0  0
    3.0374    2.1594    0.7279 H   0  0  0  0  0  0  0  0  0  0  0  0
    5.3179   -1.3327   -0.7352 H   0  0  0  0  0  0  0  0  0  0  0  0
    7.7367   -1.1800   -0.6985 H   0  0  0  0  0  0  0  0  0  0  0  0
  1  2  1  0
  2  3  1  0
  3  4  2  0
  4  5  1  0
  5  6  2  0
  6  7  1  0
  7  8  1  0
  8  9  1  0
  9 10  1  0
 10 11  1  0
 11 12  1  0
 12 13  2  0
 13 14  1  0
 14 15  2  0
 15 16  1  0
 16 17  2  0
 16 18  1  0
 18 19  1  0
 19 20  2  0
 19 21  1  0
 21 22  1  0
 15 23  1  0
 23 24  1  0
 24 25  1  0
 25 26  1  0
 26 27  1  0
 27 28  2  0
 28 29  1  0
 29 30  2  0
 30 31  1  0
 31 32  2  0
 10 33  1  0
 33 34  1  0
  6 35  1  0
 35 36  2  0
 36  3  1  0
 34  7  1  0
 23 12  1  0
 32 27  1  0
 21 14  1  0
  1 37  1  0
  1 38  1  0
  1 39  1  0
  4 40  1  0
  5 41  1  0
  8 42  1  0
  8 43  1  0
  9 44  1  0
  9 45  1  0
 11 46  1  0
 11 47  1  0
 18 48  1  0
 22 49  1  0
 22 50  1  0
 22 51  1  0
 24 52  1  0
 24 53  1  0
 25 54  1  0
 25 55  1  0
 26 56  1  0
 26 57  1  0
 28 58  1  0
 29 59  1  0
 30 60  1  0
 31 61  1  0
 32 62  1  0
 33 63  1  0
 33 64  1  0
 34 65  1  0
 34 66  1  0
 35 67  1  0
 36 68  1  0
M  END
$$$$
