
     RDKit          3D

 43 46  0  0  0  0  0  0  0  0999 V2000
    3.6147    1.2355    4.1380 C   0  0  0  0  0  0  0  0  0  0  0  0
    3.3872   -0.1648    4.0577 O   0  0  0  0  0  0  0  0  0  0  0  0
    2.6856   -0.5414    2.9309 C   0  0  0  0  0  0  0  0  0  0  0  0
    2.2177    0.3905    2.1035 N   0  0  0  0  0  0  0  0  0  0  0  0
    1.5551   -0.0690    1.0524 C   0  0  0  0  0  0  0  0  0  0  0  0
    1.0834    0.9041    0.1941 N   0  0  0  0  0  0  0  0  0  0  0  0
   -0.1297    0.7328   -0.6057 C   0  0  0  0  0  0  0  0  0  0  0  0
    0.0784   -0.2608   -1.7736 C   0  0  0  0  0  0  0  0  0  0  0  0
   -1.1916   -0.3462   -2.6401 C   0  0  0  0  0  0  0  0  0  0  0  0
   -2.3732   -0.7969   -1.7633 C   0  0  0  0  0  0  0  0  0  0  0  0
   -2.6104    0.2152   -0.6287 C   0  0  0  0  0  0  0  0  0  0  0  0
   -2.9052    1.5962   -1.2346 C   0  0  0  0  0  0  0  0  0  0  0  0
   -1.7210    2.0522   -2.1010 C   0  0  0  0  0  0  0  0  0  0  0  0
   -1.4975    1.0377   -3.2323 C   0  0  0  0  0  0  0  0  0  0  0  0
   -0.4567    2.1214   -1.2299 C   0  0  0  0  0  0  0  0  0  0  0  0
   -1.3469    0.3021    0.2466 C   0  0  0  0  0  0  0  0  0  0  0  0
    1.3491   -1.3533    0.8139 N   0  0  0  0  0  0  0  0  0  0  0  0
    1.8596   -2.1900    1.7121 C   0  0  0  0  0  0  0  0  0  0  0  0
    1.6862   -3.5497    1.5549 O   0  0  0  0  0  0  0  0  0  0  0  0
    0.9981   -3.8938    0.3600 C   0  0  0  0  0  0  0  0  0  0  0  0
    2.5339   -1.8473    2.7957 N   0  0  0  0  0  0  0  0  0  0  0  0
    4.1991    1.5946    3.2835 H   0  0  0  0  0  0  0  0  0  0  0  0
    2.6722    1.7867    4.2291 H   0  0  0  0  0  0  0  0  0  0  0  0
    4.1992    1.4274    5.0431 H   0  0  0  0  0  0  0  0  0  0  0  0
    1.1464    1.7824    0.6988 H   0  0  0  0  0  0  0  0  0  0  0  0
    0.3141   -1.2657   -1.4094 H   0  0  0  0  0  0  0  0  0  0  0  0
    0.9323    0.0501   -2.3897 H   0  0  0  0  0  0  0  0  0  0  0  0
   -1.0365   -1.0676   -3.4502 H   0  0  0  0  0  0  0  0  0  0  0  0
   -3.2784   -0.8888   -2.3762 H   0  0  0  0  0  0  0  0  0  0  0  0
   -2.1709   -1.7900   -1.3435 H   0  0  0  0  0  0  0  0  0  0  0  0
   -3.4602   -0.1080   -0.0170 H   0  0  0  0  0  0  0  0  0  0  0  0
   -3.8184    1.5526   -1.8407 H   0  0  0  0  0  0  0  0  0  0  0  0
   -3.0881    2.3250   -0.4354 H   0  0  0  0  0  0  0  0  0  0  0  0
   -1.9326    3.0396   -2.5262 H   0  0  0  0  0  0  0  0  0  0  0  0
   -0.6675    1.3643   -3.8708 H   0  0  0  0  0  0  0  0  0  0  0  0
   -2.3882    0.9845   -3.8703 H   0  0  0  0  0  0  0  0  0  0  0  0
    0.3905    2.4734   -1.8339 H   0  0  0  0  0  0  0  0  0  0  0  0
   -0.5983    2.8690   -0.4376 H   0  0  0  0  0  0  0  0  0  0  0  0
   -1.1773   -0.6744    0.7150 H   0  0  0  0  0  0  0  0  0  0  0  0
   -1.5082    1.0136    1.0670 H   0  0  0  0  0  0  0  0  0  0  0  0
   -0.0206   -3.4902    0.3564 H   0  0  0  0  0  0  0  0  0  0  0  0
    1.5529   -3.5685   -0.5271 H   0  0  0  0  0  0  0  0  0  0  0  0
    0.9218   -4.9848    0.3210 H   0  0  0  0  0  0  0  0  0  0  0  0
  1  2  1  0
  2  3  1  0
  3  4  2  0
  4  5  1  0
  5  6  1  0
  6  7  1  0
  7  8  1  0
  8  9  1  0
  9 10  1  0
 10 11  1  0
 11 12  1  0
 12 13  1  0
 13 14  1  0
 13 15  1  0
 11 16  1  0
  5 17  2  0
 17 18  1  0
 18 19  1  0
 19 20  1  0
 18 21  2  0
 21  3  1  0
 15  7  1  0
 16  7  1  0
 14  9  1  0
  1 22  1  0
  1 23  1  0
  1 24  1  0
  6 25  1  0
  8 26  1  0
  8 27  1  0
  9 28  1  0
 10 29  1  0
 10 30  1  0
 11 31  1  0
 12 32  1  0
 12 33  1  0
 13 34  1  0
 14 35  1  0
 14 36  1  0
 15 37  1  0
 15 38  1  0
 16 39  1  0
 16 40  1  0
 20 41  1  0
 20 42  1  0
 20 43  1  0
M  END
$$$$
