
     RDKit          3D

 47 49  0  0  0  0  0  0  0  0999 V2000
    3.5616    3.9240    0.4778 C   0  0  0  0  0  0  0  0  0  0  0  0
    2.8498    2.7031   -0.0372 C   0  0  0  0  0  0  0  0  0  0  0  0
    2.5898    1.6397    0.8382 C   0  0  0  0  0  0  0  0  0  0  0  0
    1.9315    0.4918    0.3945 C   0  0  0  0  0  0  0  0  0  0  0  0
    1.5180    0.3757   -0.9393 C   0  0  0  0  0  0  0  0  0  0  0  0
    0.7783   -0.8525   -1.4392 C   0  0  0  0  0  0  0  0  0  0  0  0
    1.5830   -2.1355   -1.2108 C   0  0  0  0  0  0  0  0  0  0  0  0
   -0.5246   -0.9259   -0.8024 N   0  0  0  0  0  0  0  0  0  0  0  0
   -1.5609   -1.6645   -1.3193 C   0  0  0  0  0  0  0  0  0  0  0  0
   -1.4683   -2.2848   -2.3739 O   0  0  0  0  0  0  0  0  0  0  0  0
   -2.7911   -1.6298   -0.5539 C   0  0  0  0  0  0  0  0  0  0  0  0
   -3.0441   -1.4255    0.8380 C   0  0  0  0  0  0  0  0  0  0  0  0
   -2.0921   -1.2480    1.9283 C   0  0  0  0  0  0  0  0  0  0  0  0
   -2.1813   -0.1283    2.7649 C   0  0  0  0  0  0  0  0  0  0  0  0
   -1.2508    0.0607    3.7885 C   0  0  0  0  0  0  0  0  0  0  0  0
   -0.2323   -0.8706    3.9874 C   0  0  0  0  0  0  0  0  0  0  0  0
   -0.1448   -1.9953    3.1682 C   0  0  0  0  0  0  0  0  0  0  0  0
   -1.0724   -2.1860    2.1422 C   0  0  0  0  0  0  0  0  0  0  0  0
   -4.3627   -1.4249    1.0887 N   0  0  0  0  0  0  0  0  0  0  0  0
   -4.9832   -1.6896   -0.1123 O   0  0  0  0  0  0  0  0  0  0  0  0
   -4.0499   -1.8227   -1.0870 C   0  0  0  0  0  0  0  0  0  0  0  0
   -4.5566   -2.1103   -2.4434 C   0  0  0  0  0  0  0  0  0  0  0  0
    1.7714    1.4444   -1.8127 C   0  0  0  0  0  0  0  0  0  0  0  0
    2.4346    2.6054   -1.3790 C   0  0  0  0  0  0  0  0  0  0  0  0
    2.6832    3.7199   -2.3590 C   0  0  0  0  0  0  0  0  0  0  0  0
    4.4964    4.0791   -0.0700 H   0  0  0  0  0  0  0  0  0  0  0  0
    2.9247    4.8080    0.3728 H   0  0  0  0  0  0  0  0  0  0  0  0
    3.8149    3.8245    1.5387 H   0  0  0  0  0  0  0  0  0  0  0  0
    2.8980    1.6979    1.8801 H   0  0  0  0  0  0  0  0  0  0  0  0
    1.7402   -0.3089    1.1054 H   0  0  0  0  0  0  0  0  0  0  0  0
    0.6094   -0.7589   -2.5197 H   0  0  0  0  0  0  0  0  0  0  0  0
    2.5800   -2.0583   -1.6583 H   0  0  0  0  0  0  0  0  0  0  0  0
    1.7066   -2.3573   -0.1450 H   0  0  0  0  0  0  0  0  0  0  0  0
    1.0799   -2.9984   -1.6603 H   0  0  0  0  0  0  0  0  0  0  0  0
   -0.6815   -0.3341    0.0021 H   0  0  0  0  0  0  0  0  0  0  0  0
   -2.9764    0.6015    2.6235 H   0  0  0  0  0  0  0  0  0  0  0  0
   -1.3259    0.9318    4.4350 H   0  0  0  0  0  0  0  0  0  0  0  0
    0.4867   -0.7251    4.7900 H   0  0  0  0  0  0  0  0  0  0  0  0
    0.6412   -2.7283    3.3333 H   0  0  0  0  0  0  0  0  0  0  0  0
   -0.9967   -3.0747    1.5189 H   0  0  0  0  0  0  0  0  0  0  0  0
   -5.6489   -2.0512   -2.4815 H   0  0  0  0  0  0  0  0  0  0  0  0
   -4.2610   -3.1165   -2.7558 H   0  0  0  0  0  0  0  0  0  0  0  0
   -4.1563   -1.3914   -3.1649 H   0  0  0  0  0  0  0  0  0  0  0  0
    1.4453    1.3741   -2.8497 H   0  0  0  0  0  0  0  0  0  0  0  0
    2.1837    4.6358   -2.0279 H   0  0  0  0  0  0  0  0  0  0  0  0
    3.7573    3.9046   -2.4603 H   0  0  0  0  0  0  0  0  0  0  0  0
    2.2964    3.4752   -3.3540 H   0  0  0  0  0  0  0  0  0  0  0  0
  1  2  1  0
  2  3  2  0
  3  4  1  0
  4  5  2  0
  5  6  1  0
  6  7  1  0
  6  8  1  0
  8  9  1  0
  9 10  2  0
  9 11  1  0
 11 12  1  0
 12 13  1  0
 13 14  2  0
 14 15  1  0
 15 16  2  0
 16 17  1  0
 17 18  2  0
 12 19  2  0
 19 20  1  0
 20 21  1  0
 21 22  1  0
  5 23  1  0
 23 24  2  0
 24 25  1  0
 24  2  1  0
 21 11  2  0
 18 13  1  0
  1 26  1  0
  1 27  1  0
  1 28  1  0
  3 29  1  0
  4 30  1  0
  6 31  1  0
  7 32  1  0
  7 33  1  0
  7 34  1  0
  8 35  1  0
 14 36  1  0
 15 37  1  0
 16 38  1  0
 17 39  1  0
 18 40  1  0
 22 41  1  0
 22 42  1  0
 22 43  1  0
 23 44  1  0
 25 45  1  0
 25 46  1  0
 25 47  1  0
M  END
$$$$
