
     RDKit          3D

 49 52  0  0  0  0  0  0  0  0999 V2000
   -0.8805    4.2190   -1.2661 C   0  0  0  0  0  0  0  0  0  0  0  0
   -1.1114    3.4252   -0.0147 C   0  0  0  0  0  0  0  0  0  0  0  0
   -1.4687    4.0632    1.1767 C   0  0  0  0  0  0  0  0  0  0  0  0
   -1.6526    3.3234    2.3450 C   0  0  0  0  0  0  0  0  0  0  0  0
   -1.4689    1.9406    2.3351 C   0  0  0  0  0  0  0  0  0  0  0  0
   -1.0870    1.2781    1.1571 C   0  0  0  0  0  0  0  0  0  0  0  0
   -0.9166   -0.2341    1.1733 C   0  0  0  0  0  0  0  0  0  0  0  0
   -2.1874   -0.9303    0.6820 C   0  0  0  0  0  0  0  0  0  0  0  0
   -1.7098   -1.4565   -0.6437 C   0  0  0  0  0  0  0  0  0  0  0  0
   -2.6416   -2.0564   -1.6269 C   0  0  0  0  0  0  0  0  0  0  0  0
   -2.1562   -2.4109   -2.8917 C   0  0  0  0  0  0  0  0  0  0  0  0
   -3.0134   -2.9643   -3.8453 C   0  0  0  0  0  0  0  0  0  0  0  0
   -4.3579   -3.1688   -3.5387 C   0  0  0  0  0  0  0  0  0  0  0  0
   -4.8456   -2.8240   -2.2791 C   0  0  0  0  0  0  0  0  0  0  0  0
   -3.9914   -2.2670   -1.3229 C   0  0  0  0  0  0  0  0  0  0  0  0
   -0.4296   -1.3649   -0.8420 N   0  0  0  0  0  0  0  0  0  0  0  0
    0.1021   -0.7260    0.2428 N   0  0  0  0  0  0  0  0  0  0  0  0
    1.4823   -0.6059    0.3953 C   0  0  0  0  0  0  0  0  0  0  0  0
    2.0665    0.0700    1.4795 C   0  0  0  0  0  0  0  0  0  0  0  0
    3.4561    0.1897    1.6111 C   0  0  0  0  0  0  0  0  0  0  0  0
    4.2913   -0.3828    0.6540 C   0  0  0  0  0  0  0  0  0  0  0  0
    6.0408   -0.2144    0.8163 S   0  0  0  0  0  6  0  0  0  0  0  0
    6.3593   -1.0932    2.2139 N   0  0  0  0  0  0  0  0  0  0  0  0
    6.6999   -0.9397   -0.2456 O   0  0  0  0  0  0  0  0  0  0  0  0
    6.3526    1.1612    1.1259 O   0  0  0  0  0  0  0  0  0  0  0  0
    3.7508   -1.0589   -0.4358 C   0  0  0  0  0  0  0  0  0  0  0  0
    2.3604   -1.1633   -0.5550 C   0  0  0  0  0  0  0  0  0  0  0  0
   -0.9142    2.0376   -0.0136 C   0  0  0  0  0  0  0  0  0  0  0  0
   -1.1793    3.6466   -2.1510 H   0  0  0  0  0  0  0  0  0  0  0  0
    0.1782    4.4830   -1.3532 H   0  0  0  0  0  0  0  0  0  0  0  0
   -1.4742    5.1396   -1.2609 H   0  0  0  0  0  0  0  0  0  0  0  0
   -1.6068    5.1411    1.2019 H   0  0  0  0  0  0  0  0  0  0  0  0
   -1.9384    3.8275    3.2642 H   0  0  0  0  0  0  0  0  0  0  0  0
   -1.6226    1.3851    3.2569 H   0  0  0  0  0  0  0  0  0  0  0  0
   -0.6909   -0.5714    2.1936 H   0  0  0  0  0  0  0  0  0  0  0  0
   -2.4405   -1.7807    1.3238 H   0  0  0  0  0  0  0  0  0  0  0  0
   -3.0514   -0.2684    0.5778 H   0  0  0  0  0  0  0  0  0  0  0  0
   -1.1089   -2.2539   -3.1435 H   0  0  0  0  0  0  0  0  0  0  0  0
   -2.6308   -3.2331   -4.8271 H   0  0  0  0  0  0  0  0  0  0  0  0
   -5.0242   -3.5995   -4.2824 H   0  0  0  0  0  0  0  0  0  0  0  0
   -5.8935   -2.9899   -2.0409 H   0  0  0  0  0  0  0  0  0  0  0  0
   -4.4002   -2.0146   -0.3498 H   0  0  0  0  0  0  0  0  0  0  0  0
    1.4488    0.5334    2.2430 H   0  0  0  0  0  0  0  0  0  0  0  0
    3.8724    0.7342    2.4559 H   0  0  0  0  0  0  0  0  0  0  0  0
    6.9452   -1.8963    1.9815 H   0  0  0  0  0  0  0  0  0  0  0  0
    6.7610   -0.4785    2.9208 H   0  0  0  0  0  0  0  0  0  0  0  0
    4.3878   -1.4999   -1.1980 H   0  0  0  0  0  0  0  0  0  0  0  0
    1.9519   -1.6927   -1.4141 H   0  0  0  0  0  0  0  0  0  0  0  0
   -0.6130    1.5417   -0.9361 H   0  0  0  0  0  0  0  0  0  0  0  0
  1  2  1  0
  2  3  2  0
  3  4  1  0
  4  5  2  0
  5  6  1  0
  6  7  1  0
  7  8  1  0
  8  9  1  0
  9 10  1  0
 10 11  2  0
 11 12  1  0
 12 13  2  0
 13 14  1  0
 14 15  2  0
  9 16  2  0
 16 17  1  0
 17 18  1  0
 18 19  2  0
 19 20  1  0
 20 21  2  0
 21 22  1  0
 22 23  1  0
 22 24  2  0
 22 25  2  0
 21 26  1  0
 26 27  2  0
  6 28  2  0
 28  2  1  0
 17  7  1  0
 27 18  1  0
 15 10  1  0
  1 29  1  0
  1 30  1  0
  1 31  1  0
  3 32  1  0
  4 33  1  0
  5 34  1  0
  7 35  1  0
  8 36  1  0
  8 37  1  0
 11 38  1  0
 12 39  1  0
 13 40  1  0
 14 41  1  0
 15 42  1  0
 19 43  1  0
 20 44  1  0
 23 45  1  0
 23 46  1  0
 26 47  1  0
 27 48  1  0
 28 49  1  0
M  END
$$$$
