
     RDKit          3D

 40 40  0  0  0  0  0  0  0  0999 V2000
   -5.7506   -0.7716   -0.5541 C   0  0  0  0  0  0  0  0  0  0  0  0
   -5.0014    0.5401   -0.2597 C   0  0  0  0  0  0  0  0  0  0  0  0
   -5.5737    1.6396   -1.1754 C   0  0  0  0  0  0  0  0  0  0  0  0
   -5.2220    0.9512    1.2058 C   0  0  0  0  0  0  0  0  0  0  0  0
   -3.5733    0.4025   -0.5513 N   0  0  0  0  0  0  0  0  0  0  0  0
   -2.7090   -0.4779    0.0657 C   0  0  0  0  0  0  0  0  0  0  0  0
   -2.9869   -1.3097    0.9157 O   0  0  0  0  0  0  0  0  0  0  0  0
   -1.2464   -0.3124   -0.3931 C   0  0  0  0  0  0  0  0  0  0  0  0
   -0.9192    0.6403   -1.0917 O   0  0  0  0  0  0  0  0  0  0  0  0
   -0.4086   -1.3022    0.0627 N   0  0  0  0  0  0  0  0  0  0  0  0
    0.9631   -1.2138   -0.1871 N   0  0  0  0  0  0  0  0  0  0  0  0
    1.8122   -2.0488    0.5179 C   0  0  0  0  0  0  0  0  0  0  0  0
    1.4151   -2.9982    1.1922 O   0  0  0  0  0  0  0  0  0  0  0  0
    3.2872   -1.7178    0.3263 C   0  0  0  0  0  0  0  0  0  0  0  0
    3.4532   -0.2992    0.3678 O   0  0  0  0  0  0  0  0  0  0  0  0
    4.7401    0.1278    0.5583 C   0  0  0  0  0  0  0  0  0  0  0  0
    5.8807   -0.5596    0.1330 C   0  0  0  0  0  0  0  0  0  0  0  0
    7.1484   -0.0295    0.3899 C   0  0  0  0  0  0  0  0  0  0  0  0
    7.2791    1.1904    1.0621 C   0  0  0  0  0  0  0  0  0  0  0  0
    6.1408    1.8904    1.4637 C   0  0  0  0  0  0  0  0  0  0  0  0
    4.8743    1.3626    1.2044 C   0  0  0  0  0  0  0  0  0  0  0  0
   -5.5869   -1.0918   -1.5921 H   0  0  0  0  0  0  0  0  0  0  0  0
   -5.4233   -1.5892    0.0963 H   0  0  0  0  0  0  0  0  0  0  0  0
   -6.8303   -0.6474   -0.4068 H   0  0  0  0  0  0  0  0  0  0  0  0
   -6.6429    1.8017   -0.9940 H   0  0  0  0  0  0  0  0  0  0  0  0
   -5.0575    2.5942   -1.0153 H   0  0  0  0  0  0  0  0  0  0  0  0
   -5.4519    1.3726   -2.2270 H   0  0  0  0  0  0  0  0  0  0  0  0
   -4.6669    1.8688    1.4521 H   0  0  0  0  0  0  0  0  0  0  0  0
   -6.2846    1.1336    1.4086 H   0  0  0  0  0  0  0  0  0  0  0  0
   -4.8893    0.1746    1.9033 H   0  0  0  0  0  0  0  0  0  0  0  0
   -3.1283    1.0753   -1.1716 H   0  0  0  0  0  0  0  0  0  0  0  0
   -0.7474   -2.0421    0.6830 H   0  0  0  0  0  0  0  0  0  0  0  0
    1.3154   -0.3266   -0.5546 H   0  0  0  0  0  0  0  0  0  0  0  0
    3.8492   -2.2065    1.1311 H   0  0  0  0  0  0  0  0  0  0  0  0
    3.5910   -2.1063   -0.6510 H   0  0  0  0  0  0  0  0  0  0  0  0
    5.8159   -1.4985   -0.4123 H   0  0  0  0  0  0  0  0  0  0  0  0
    8.0386   -0.5669    0.0636 H   0  0  0  0  0  0  0  0  0  0  0  0
    8.2668    1.5962    1.2623 H   0  0  0  0  0  0  0  0  0  0  0  0
    6.2431    2.8454    1.9818 H   0  0  0  0  0  0  0  0  0  0  0  0
    3.9860    1.9083    1.5194 H   0  0  0  0  0  0  0  0  0  0  0  0
  1  2  1  0
  2  3  1  0
  2  4  1  0
  2  5  1  0
  5  6  1  0
  6  7  2  0
  6  8  1  0
  8  9  2  0
  8 10  1  0
 10 11  1  0
 11 12  1  0
 12 13  2  0
 12 14  1  0
 14 15  1  0
 15 16  1  0
 16 17  2  0
 17 18  1  0
 18 19  2  0
 19 20  1  0
 20 21  2  0
 21 16  1  0
  1 22  1  0
  1 23  1  0
  1 24  1  0
  3 25  1  0
  3 26  1  0
  3 27  1  0
  4 28  1  0
  4 29  1  0
  4 30  1  0
  5 31  1  0
 10 32  1  0
 11 33  1  0
 14 34  1  0
 14 35  1  0
 17 36  1  0
 18 37  1  0
 19 38  1  0
 20 39  1  0
 21 40  1  0
M  END
$$$$
