
     RDKit          3D

 40 41  0  0  0  0  0  0  0  0999 V2000
    5.3983    1.5401    0.1079 C   0  0  0  0  0  0  0  0  0  0  0  0
    4.5530    1.3794   -1.1417 C   0  0  0  0  0  0  0  0  0  0  0  0
    3.1804    1.1675   -0.7854 O   0  0  0  0  0  0  0  0  0  0  0  0
    2.8150   -0.1263   -0.5408 C   0  0  0  0  0  0  0  0  0  0  0  0
    3.5920   -1.0730   -0.6115 O   0  0  0  0  0  0  0  0  0  0  0  0
    1.4031   -0.2714   -0.1685 C   0  0  0  0  0  0  0  0  0  0  0  0
    0.4255    0.7243   -0.1170 C   0  0  0  0  0  0  0  0  0  0  0  0
    0.5255    2.1761   -0.4588 C   0  0  0  0  0  0  0  0  0  0  0  0
   -0.7480    0.1399    0.3264 N   0  0  0  0  0  0  0  0  0  0  0  0
   -1.9892    0.8492    0.6247 C   0  0  0  0  0  0  0  0  0  0  0  0
   -2.6608    1.1068   -0.6054 O   0  0  0  0  0  0  0  0  0  0  0  0
   -3.9366    1.7088   -0.4163 C   0  0  0  0  0  0  0  0  0  0  0  0
   -5.0212    0.6691   -0.1385 C   0  0  0  0  0  0  0  0  0  0  0  0
   -6.2919    1.2914   -0.0097 O   0  0  0  0  0  0  0  0  0  0  0  0
   -0.5767   -1.2223    0.4888 C   0  0  0  0  0  0  0  0  0  0  0  0
   -1.4835   -2.2312    0.8656 C   0  0  0  0  0  0  0  0  0  0  0  0
   -1.0146   -3.5432    0.9668 C   0  0  0  0  0  0  0  0  0  0  0  0
    0.3123   -3.8357    0.7008 C   0  0  0  0  0  0  0  0  0  0  0  0
    0.7109   -5.1365    0.8169 O   0  0  0  0  0  0  0  0  0  0  0  0
    1.2109   -2.8400    0.3197 C   0  0  0  0  0  0  0  0  0  0  0  0
    0.7617   -1.5025    0.2047 C   0  0  0  0  0  0  0  0  0  0  0  0
    5.3831    0.6282    0.7129 H   0  0  0  0  0  0  0  0  0  0  0  0
    5.0048    2.3456    0.7372 H   0  0  0  0  0  0  0  0  0  0  0  0
    6.4357    1.7690   -0.1520 H   0  0  0  0  0  0  0  0  0  0  0  0
    4.9306    0.5755   -1.7836 H   0  0  0  0  0  0  0  0  0  0  0  0
    4.5896    2.3026   -1.7291 H   0  0  0  0  0  0  0  0  0  0  0  0
   -0.4435    2.6810   -0.4905 H   0  0  0  0  0  0  0  0  0  0  0  0
    0.9770    2.3039   -1.4482 H   0  0  0  0  0  0  0  0  0  0  0  0
    1.1455    2.6934    0.2809 H   0  0  0  0  0  0  0  0  0  0  0  0
   -1.7341    1.7830    1.1383 H   0  0  0  0  0  0  0  0  0  0  0  0
   -2.5960    0.2357    1.2964 H   0  0  0  0  0  0  0  0  0  0  0  0
   -4.1872    2.2419   -1.3408 H   0  0  0  0  0  0  0  0  0  0  0  0
   -3.9033    2.4710    0.3726 H   0  0  0  0  0  0  0  0  0  0  0  0
   -4.8151    0.1299    0.7907 H   0  0  0  0  0  0  0  0  0  0  0  0
   -5.0631   -0.0789   -0.9379 H   0  0  0  0  0  0  0  0  0  0  0  0
   -6.5710    1.5691   -0.9003 H   0  0  0  0  0  0  0  0  0  0  0  0
   -2.5280   -2.0179    1.0676 H   0  0  0  0  0  0  0  0  0  0  0  0
   -1.6956   -4.3413    1.2520 H   0  0  0  0  0  0  0  0  0  0  0  0
    1.6579   -5.1835    0.6021 H   0  0  0  0  0  0  0  0  0  0  0  0
    2.2467   -3.0790    0.1030 H   0  0  0  0  0  0  0  0  0  0  0  0
  1  2  1  0
  2  3  1  0
  3  4  1  0
  4  5  2  0
  4  6  1  0
  6  7  2  0
  7  8  1  0
  7  9  1  0
  9 10  1  0
 10 11  1  0
 11 12  1  0
 12 13  1  0
 13 14  1  0
  9 15  1  0
 15 16  2  0
 16 17  1  0
 17 18  2  0
 18 19  1  0
 18 20  1  0
 20 21  2  0
 21  6  1  0
 21 15  1  0
  1 22  1  0
  1 23  1  0
  1 24  1  0
  2 25  1  0
  2 26  1  0
  8 27  1  0
  8 28  1  0
  8 29  1  0
 10 30  1  0
 10 31  1  0
 12 32  1  0
 12 33  1  0
 13 34  1  0
 13 35  1  0
 14 36  1  0
 16 37  1  0
 17 38  1  0
 19 39  1  0
 20 40  1  0
M  END
$$$$
