
     RDKit          3D

 55 58  0  0  0  0  0  0  0  0999 V2000
    4.5583   -5.3953    0.5522 N   0  0  0  0  0  0  0  0  0  0  0  0
    4.0525   -4.4049   -0.2472 C   0  0  0  0  0  0  0  0  0  0  0  0
    4.6175   -4.0893   -1.2917 O   0  0  0  0  0  0  0  0  0  0  0  0
    2.8078   -3.7865    0.2405 C   0  0  0  0  0  0  0  0  0  0  0  0
    2.2252   -4.2615    1.3547 N   0  0  0  0  0  0  0  0  0  0  0  0
    0.8305   -3.4179    1.6365 S   0  0  0  0  0  0  0  0  0  0  0  0
    0.9802   -2.3411    0.3221 C   0  0  0  0  0  0  0  0  0  0  0  0
   -0.0236   -1.3364    0.0203 C   0  0  0  0  0  0  0  0  0  0  0  0
   -0.4093   -1.1689   -1.1415 O   0  0  0  0  0  0  0  0  0  0  0  0
   -0.5828   -0.5712    1.0719 N   0  0  0  0  0  0  0  0  0  0  0  0
    0.1938   -0.2224    2.2203 C   0  0  0  0  0  0  0  0  0  0  0  0
    1.5116    0.2354    2.0927 C   0  0  0  0  0  0  0  0  0  0  0  0
    2.2687    0.5338    3.2271 C   0  0  0  0  0  0  0  0  0  0  0  0
    1.7195    0.3683    4.4968 C   0  0  0  0  0  0  0  0  0  0  0  0
    0.4135   -0.0972    4.6340 C   0  0  0  0  0  0  0  0  0  0  0  0
   -0.3454   -0.3949    3.5004 C   0  0  0  0  0  0  0  0  0  0  0  0
   -1.6515    0.3512    0.6289 C   0  0  0  0  0  0  0  0  0  0  0  0
   -1.1032    1.5776   -0.1552 C   0  0  0  0  0  0  0  0  0  0  0  0
   -0.0057    2.0917    0.0597 O   0  0  0  0  0  0  0  0  0  0  0  0
   -1.9764    2.0859   -1.1056 N   0  0  0  0  0  0  0  0  0  0  0  0
   -1.5754    3.1368   -2.0137 C   0  0  0  0  0  0  0  0  0  0  0  0
   -1.1586    2.5622   -3.3444 C   0  0  0  0  0  0  0  0  0  0  0  0
    0.1052    1.9660   -3.4909 C   0  0  0  0  0  0  0  0  0  0  0  0
    0.4886    1.4116   -4.7124 C   0  0  0  0  0  0  0  0  0  0  0  0
   -0.3912    1.4491   -5.7867 C   0  0  0  0  0  0  0  0  0  0  0  0
   -0.0247    0.9168   -6.9599 F   0  0  0  0  0  0  0  0  0  0  0  0
   -1.6484    2.0289   -5.6623 C   0  0  0  0  0  0  0  0  0  0  0  0
   -2.0351    2.5837   -4.4410 C   0  0  0  0  0  0  0  0  0  0  0  0
   -2.5495    0.8438    1.7218 C   0  0  0  0  0  0  0  0  0  0  0  0
   -2.5554    1.9585    2.5407 C   0  0  0  0  0  0  0  0  0  0  0  0
   -3.7010    1.8490    3.3640 C   0  0  0  0  0  0  0  0  0  0  0  0
   -4.3263    0.6812    2.9976 C   0  0  0  0  0  0  0  0  0  0  0  0
   -3.6384    0.0644    2.0035 O   0  0  0  0  0  0  0  0  0  0  0  0
    2.1104   -2.6894   -0.3918 C   0  0  0  0  0  0  0  0  0  0  0  0
    2.5080   -2.0625   -1.5287 N   0  0  0  0  0  0  0  0  0  0  0  0
    5.3907   -5.8869    0.2667 H   0  0  0  0  0  0  0  0  0  0  0  0
    4.0543   -5.6648    1.3885 H   0  0  0  0  0  0  0  0  0  0  0  0
    1.9554    0.3949    1.1120 H   0  0  0  0  0  0  0  0  0  0  0  0
    3.2863    0.8996    3.1163 H   0  0  0  0  0  0  0  0  0  0  0  0
    2.3110    0.5996    5.3789 H   0  0  0  0  0  0  0  0  0  0  0  0
   -0.0130   -0.2369    5.6239 H   0  0  0  0  0  0  0  0  0  0  0  0
   -1.3505   -0.7888    3.6308 H   0  0  0  0  0  0  0  0  0  0  0  0
   -2.2863   -0.2137   -0.0694 H   0  0  0  0  0  0  0  0  0  0  0  0
   -2.7700    1.5216   -1.3808 H   0  0  0  0  0  0  0  0  0  0  0  0
   -2.4377    3.8012   -2.1372 H   0  0  0  0  0  0  0  0  0  0  0  0
   -0.7622    3.7362   -1.5894 H   0  0  0  0  0  0  0  0  0  0  0  0
    0.7929    1.9277   -2.6467 H   0  0  0  0  0  0  0  0  0  0  0  0
    1.4636    0.9502   -4.8299 H   0  0  0  0  0  0  0  0  0  0  0  0
   -2.3185    2.0433   -6.5162 H   0  0  0  0  0  0  0  0  0  0  0  0
   -3.0217    3.0325   -4.3520 H   0  0  0  0  0  0  0  0  0  0  0  0
   -1.8137    2.7473    2.5452 H   0  0  0  0  0  0  0  0  0  0  0  0
   -4.0295    2.5359    4.1315 H   0  0  0  0  0  0  0  0  0  0  0  0
   -5.2212    0.1746    3.3317 H   0  0  0  0  0  0  0  0  0  0  0  0
    3.2517   -2.4801   -2.0947 H   0  0  0  0  0  0  0  0  0  0  0  0
    1.8286   -1.5500   -2.0929 H   0  0  0  0  0  0  0  0  0  0  0  0
  1  2  1  0
  2  3  2  0
  2  4  1  0
  4  5  2  0
  5  6  1  0
  6  7  1  0
  7  8  1  0
  8  9  2  0
  8 10  1  0
 10 11  1  0
 11 12  2  0
 12 13  1  0
 13 14  2  0
 14 15  1  0
 15 16  2  0
 10 17  1  0
 17 18  1  0
 18 19  2  0
 18 20  1  0
 20 21  1  0
 21 22  1  0
 22 23  2  0
 23 24  1  0
 24 25  2  0
 25 26  1  0
 25 27  1  0
 27 28  2  0
 17 29  1  0
 29 30  2  0
 30 31  1  0
 31 32  2  0
 32 33  1  0
  7 34  2  0
 34 35  1  0
 34  4  1  0
 16 11  1  0
 28 22  1  0
 33 29  1  0
  1 36  1  0
  1 37  1  0
 12 38  1  0
 13 39  1  0
 14 40  1  0
 15 41  1  0
 16 42  1  0
 17 43  1  0
 20 44  1  0
 21 45  1  0
 21 46  1  0
 23 47  1  0
 24 48  1  0
 27 49  1  0
 28 50  1  0
 30 51  1  0
 31 52  1  0
 32 53  1  0
 35 54  1  0
 35 55  1  0
M  END
$$$$
