
     RDKit          3D

 40 42  0  0  0  0  0  0  0  0999 V2000
   -1.9457    0.5139   -1.4303 O   0  0  0  0  0  0  0  0  0  0  0  0
   -1.5127    0.0577   -0.3716 C   0  0  0  0  0  0  0  0  0  0  0  0
   -2.3785   -0.7752    0.5694 C   0  0  0  0  0  0  0  0  0  0  0  0
   -3.8602   -0.7141    0.2730 C   0  0  0  0  0  0  0  0  0  0  0  0
   -4.4438   -1.6203   -0.6244 C   0  0  0  0  0  0  0  0  0  0  0  0
   -5.8106   -1.5592   -0.9044 C   0  0  0  0  0  0  0  0  0  0  0  0
   -6.5986   -0.5872   -0.2923 C   0  0  0  0  0  0  0  0  0  0  0  0
   -8.4490   -0.5039   -0.6709 Br  0  0  0  0  0  0  0  0  0  0  0  0
   -6.0323    0.3269    0.5933 C   0  0  0  0  0  0  0  0  0  0  0  0
   -4.6652    0.2656    0.8726 C   0  0  0  0  0  0  0  0  0  0  0  0
   -0.1959    0.2670    0.0209 N   0  0  0  0  0  0  0  0  0  0  0  0
    0.6613    1.1333   -0.8044 C   0  0  0  0  0  0  0  0  0  0  0  0
    1.7562    1.8122    0.0318 C   0  0  0  0  0  0  0  0  0  0  0  0
    2.6220    0.8291    0.7262 N   0  0  0  0  0  0  0  0  0  0  0  0
    3.8408    0.5792    0.0581 C   0  0  0  0  0  0  0  0  0  0  0  0
    4.8844   -0.0339    0.7563 C   0  0  0  0  0  0  0  0  0  0  0  0
    6.0907   -0.3005    0.1115 C   0  0  0  0  0  0  0  0  0  0  0  0
    6.2352    0.0510   -1.2213 C   0  0  0  0  0  0  0  0  0  0  0  0
    5.1629    0.6585   -1.8469 C   0  0  0  0  0  0  0  0  0  0  0  0
    3.9846    0.9250   -1.2392 N   0  0  0  0  0  0  0  0  0  0  0  0
    1.9563   -0.4449    1.0885 C   0  0  0  0  0  0  0  0  0  0  0  0
    0.4297   -0.2896    1.2286 C   0  0  0  0  0  0  0  0  0  0  0  0
   -2.2217   -0.4389    1.6012 H   0  0  0  0  0  0  0  0  0  0  0  0
   -2.0440   -1.8181    0.5114 H   0  0  0  0  0  0  0  0  0  0  0  0
   -3.8343   -2.3720   -1.1213 H   0  0  0  0  0  0  0  0  0  0  0  0
   -6.2460   -2.2663   -1.6052 H   0  0  0  0  0  0  0  0  0  0  0  0
   -6.6420    1.0929    1.0645 H   0  0  0  0  0  0  0  0  0  0  0  0
   -4.2320    0.9928    1.5558 H   0  0  0  0  0  0  0  0  0  0  0  0
    1.1013    0.4994   -1.5829 H   0  0  0  0  0  0  0  0  0  0  0  0
    0.0493    1.8951   -1.2992 H   0  0  0  0  0  0  0  0  0  0  0  0
    1.2725    2.4152    0.8119 H   0  0  0  0  0  0  0  0  0  0  0  0
    2.3225    2.5301   -0.5739 H   0  0  0  0  0  0  0  0  0  0  0  0
    4.7672   -0.2841    1.8052 H   0  0  0  0  0  0  0  0  0  0  0  0
    6.9077   -0.7705    0.6504 H   0  0  0  0  0  0  0  0  0  0  0  0
    7.1583   -0.1367   -1.7571 H   0  0  0  0  0  0  0  0  0  0  0  0
    5.2208    0.9595   -2.8889 H   0  0  0  0  0  0  0  0  0  0  0  0
    2.3631   -0.8118    2.0381 H   0  0  0  0  0  0  0  0  0  0  0  0
    2.1438   -1.2115    0.3230 H   0  0  0  0  0  0  0  0  0  0  0  0
   -0.0121   -1.2616    1.4657 H   0  0  0  0  0  0  0  0  0  0  0  0
    0.1940    0.3957    2.0515 H   0  0  0  0  0  0  0  0  0  0  0  0
  1  2  2  0
  2  3  1  0
  3  4  1  0
  4  5  2  0
  5  6  1  0
  6  7  2  0
  7  8  1  0
  7  9  1  0
  9 10  2  0
  2 11  1  0
 11 12  1  0
 12 13  1  0
 13 14  1  0
 14 15  1  0
 15 16  2  0
 16 17  1  0
 17 18  2  0
 18 19  1  0
 19 20  2  0
 14 21  1  0
 21 22  1  0
 10  4  1  0
 22 11  1  0
 20 15  1  0
  3 23  1  0
  3 24  1  0
  5 25  1  0
  6 26  1  0
  9 27  1  0
 10 28  1  0
 12 29  1  0
 12 30  1  0
 13 31  1  0
 13 32  1  0
 16 33  1  0
 17 34  1  0
 18 35  1  0
 19 36  1  0
 21 37  1  0
 21 38  1  0
 22 39  1  0
 22 40  1  0
M  END
$$$$
