
     RDKit          3D

 61 65  0  0  0  0  0  0  0  0999 V2000
  -10.6452   -0.7885    1.0562 C   0  0  0  0  0  0  0  0  0  0  0  0
   -9.5798   -1.6309    0.6335 O   0  0  0  0  0  0  0  0  0  0  0  0
   -8.3789   -1.0306    0.3758 C   0  0  0  0  0  0  0  0  0  0  0  0
   -7.3675   -1.9037   -0.0344 C   0  0  0  0  0  0  0  0  0  0  0  0
   -6.0871   -1.4290   -0.3290 C   0  0  0  0  0  0  0  0  0  0  0  0
   -5.8115   -0.0621   -0.2171 C   0  0  0  0  0  0  0  0  0  0  0  0
   -4.5078    0.4339   -0.5174 N   0  0  0  0  0  0  0  0  0  0  0  0
   -4.2240    1.6107   -1.2080 C   0  0  0  0  0  0  0  0  0  0  0  0
   -5.1400    2.4135   -1.7527 O   0  0  0  0  0  0  0  0  0  0  0  0
   -2.8563    1.7390   -1.2792 C   0  0  0  0  0  0  0  0  0  0  0  0
   -2.2658    0.6042   -0.6772 C   0  0  0  0  0  0  0  0  0  0  0  0
   -0.9142    0.3918   -0.5808 N   0  0  0  0  0  0  0  0  0  0  0  0
   -0.1000    0.5961   -1.8063 C   0  0  0  0  0  0  0  0  0  0  0  0
    1.3972    0.7636   -1.4719 C   0  0  0  0  0  0  0  0  0  0  0  0
    1.9017   -0.3888   -0.6926 N   0  0  0  0  0  0  0  0  0  0  0  0
    3.2863   -0.5066   -0.5007 C   0  0  0  0  0  0  0  0  0  0  0  0
    4.1971    0.5275   -0.7648 C   0  0  0  0  0  0  0  0  0  0  0  0
    5.5758    0.3609   -0.5707 C   0  0  0  0  0  0  0  0  0  0  0  0
    6.0740   -0.8550   -0.0999 C   0  0  0  0  0  0  0  0  0  0  0  0
    7.5262   -1.0774    0.1101 C   0  0  0  0  0  0  0  0  0  0  0  0
    8.0095   -2.1771   -0.1455 O   0  0  0  0  0  0  0  0  0  0  0  0
    8.4072   -0.0079    0.6252 C   0  0  0  0  0  0  0  0  0  0  0  0
    7.9785    0.9563    1.5400 C   0  0  0  0  0  0  0  0  0  0  0  0
    8.8791    1.9236    1.9826 C   0  0  0  0  0  0  0  0  0  0  0  0
   10.1785    1.8861    1.5003 C   0  0  0  0  0  0  0  0  0  0  0  0
   10.6279    0.9577    0.6285 N   0  0  0  0  0  0  0  0  0  0  0  0
    9.7351    0.0214    0.2194 C   0  0  0  0  0  0  0  0  0  0  0  0
    5.1939   -1.9108    0.1335 C   0  0  0  0  0  0  0  0  0  0  0  0
    3.8199   -1.7316   -0.0632 C   0  0  0  0  0  0  0  0  0  0  0  0
    1.1030   -0.6008    0.5437 C   0  0  0  0  0  0  0  0  0  0  0  0
   -0.4063   -0.7393    0.2340 C   0  0  0  0  0  0  0  0  0  0  0  0
   -3.2953   -0.1742   -0.1700 C   0  0  0  0  0  0  0  0  0  0  0  0
   -3.2222   -1.2912    0.5645 O   0  0  0  0  0  0  0  0  0  0  0  0
   -6.8220    0.8179    0.1906 C   0  0  0  0  0  0  0  0  0  0  0  0
   -8.1007    0.3319    0.4881 C   0  0  0  0  0  0  0  0  0  0  0  0
  -10.4079   -0.3007    2.0075 H   0  0  0  0  0  0  0  0  0  0  0  0
  -11.5264   -1.4177    1.2150 H   0  0  0  0  0  0  0  0  0  0  0  0
  -10.8957   -0.0524    0.2853 H   0  0  0  0  0  0  0  0  0  0  0  0
   -7.5838   -2.9656   -0.1340 H   0  0  0  0  0  0  0  0  0  0  0  0
   -5.3381   -2.1344   -0.6851 H   0  0  0  0  0  0  0  0  0  0  0  0
   -5.9598    1.9083   -1.8968 H   0  0  0  0  0  0  0  0  0  0  0  0
   -2.3488    2.5685   -1.7506 H   0  0  0  0  0  0  0  0  0  0  0  0
   -0.2354   -0.2660   -2.4725 H   0  0  0  0  0  0  0  0  0  0  0  0
   -0.4176    1.4892   -2.3549 H   0  0  0  0  0  0  0  0  0  0  0  0
    1.9452    0.8520   -2.4182 H   0  0  0  0  0  0  0  0  0  0  0  0
    1.5334    1.6917   -0.9013 H   0  0  0  0  0  0  0  0  0  0  0  0
    3.8561    1.4943   -1.1230 H   0  0  0  0  0  0  0  0  0  0  0  0
    6.2402    1.1865   -0.8120 H   0  0  0  0  0  0  0  0  0  0  0  0
    6.9638    0.9567    1.9278 H   0  0  0  0  0  0  0  0  0  0  0  0
    8.5775    2.6849    2.6938 H   0  0  0  0  0  0  0  0  0  0  0  0
   10.9157    2.6193    1.8164 H   0  0  0  0  0  0  0  0  0  0  0  0
   10.1316   -0.7216   -0.4689 H   0  0  0  0  0  0  0  0  0  0  0  0
    5.5691   -2.8788    0.4589 H   0  0  0  0  0  0  0  0  0  0  0  0
    3.1609   -2.5819    0.0979 H   0  0  0  0  0  0  0  0  0  0  0  0
    1.4143   -1.5052    1.0783 H   0  0  0  0  0  0  0  0  0  0  0  0
    1.2567    0.2514    1.2194 H   0  0  0  0  0  0  0  0  0  0  0  0
   -0.5855   -1.6827   -0.2972 H   0  0  0  0  0  0  0  0  0  0  0  0
   -0.9193   -0.7776    1.2015 H   0  0  0  0  0  0  0  0  0  0  0  0
   -4.0354   -1.3719    1.0928 H   0  0  0  0  0  0  0  0  0  0  0  0
   -6.6243    1.8801    0.3285 H   0  0  0  0  0  0  0  0  0  0  0  0
   -8.8528    1.0430    0.8147 H   0  0  0  0  0  0  0  0  0  0  0  0
  1  2  1  0
  2  3  1  0
  3  4  2  0
  4  5  1  0
  5  6  2  0
  6  7  1  0
  7  8  1  0
  8  9  1  0
  8 10  2  0
 10 11  1  0
 11 12  1  0
 12 13  1  0
 13 14  1  0
 14 15  1  0
 15 16  1  0
 16 17  2  0
 17 18  1  0
 18 19  2  0
 19 20  1  0
 20 21  2  0
 20 22  1  0
 22 23  2  0
 23 24  1  0
 24 25  2  0
 25 26  1  0
 26 27  2  0
 19 28  1  0
 28 29  2  0
 15 30  1  0
 30 31  1  0
 11 32  2  0
 32 33  1  0
  6 34  1  0
 34 35  2  0
 35  3  1  0
 32  7  1  0
 31 12  1  0
 29 16  1  0
 27 22  1  0
  1 36  1  0
  1 37  1  0
  1 38  1  0
  4 39  1  0
  5 40  1  0
  9 41  1  0
 10 42  1  0
 13 43  1  0
 13 44  1  0
 14 45  1  0
 14 46  1  0
 17 47  1  0
 18 48  1  0
 23 49  1  0
 24 50  1  0
 25 51  1  0
 27 52  1  0
 28 53  1  0
 29 54  1  0
 30 55  1  0
 30 56  1  0
 31 57  1  0
 31 58  1  0
 33 59  1  0
 34 60  1  0
 35 61  1  0
M  END
$$$$
