
     RDKit          3D

 37 38  0  0  0  0  0  0  0  0999 V2000
   -5.1066   -0.9538   -0.4601 C   0  0  0  0  0  0  0  0  0  0  0  0
   -4.2156    0.1976   -0.3460 N   0  0  0  0  0  0  0  0  0  0  0  0
   -3.4647    0.4399   -1.5963 C   0  0  0  0  0  0  0  0  0  0  0  0
   -1.9557    0.1386   -1.5315 C   0  0  0  0  0  0  0  0  0  0  0  0
   -1.3039    0.8220   -0.4133 N   0  0  0  0  0  0  0  0  0  0  0  0
    0.0320    1.1567   -0.5290 C   0  0  0  0  0  0  0  0  0  0  0  0
    0.7227    0.8597   -1.4989 O   0  0  0  0  0  0  0  0  0  0  0  0
    0.6011    1.9448    0.5956 C   0  0  0  0  0  0  0  0  0  0  0  0
    1.8029    1.7244    1.1514 C   0  0  0  0  0  0  0  0  0  0  0  0
    2.7350    0.6420    0.8191 C   0  0  0  0  0  0  0  0  0  0  0  0
    2.3514   -0.7037    0.9025 C   0  0  0  0  0  0  0  0  0  0  0  0
    3.2604   -1.7212    0.5986 C   0  0  0  0  0  0  0  0  0  0  0  0
    4.5660   -1.3877    0.2177 C   0  0  0  0  0  0  0  0  0  0  0  0
    5.5247   -2.4522   -0.1027 N   0  0  0  0  0  4  0  0  0  0  0  0
    6.6706   -2.1165   -0.4354 O   0  0  0  0  0  0  0  0  0  0  0  0
    5.1357   -3.6259   -0.0135 O   0  0  0  0  0  1  0  0  0  0  0  0
    4.9662   -0.0477    0.1456 C   0  0  0  0  0  0  0  0  0  0  0  0
    4.0487    0.9618    0.4516 C   0  0  0  0  0  0  0  0  0  0  0  0
   -2.1263    1.0190    0.7865 C   0  0  0  0  0  0  0  0  0  0  0  0
   -3.3320    0.0626    0.8265 C   0  0  0  0  0  0  0  0  0  0  0  0
   -4.5580   -1.8798   -0.6666 H   0  0  0  0  0  0  0  0  0  0  0  0
   -5.8357   -0.7973   -1.2628 H   0  0  0  0  0  0  0  0  0  0  0  0
   -5.6811   -1.0901    0.4629 H   0  0  0  0  0  0  0  0  0  0  0  0
   -3.5832    1.5066   -1.8270 H   0  0  0  0  0  0  0  0  0  0  0  0
   -3.9054   -0.0985   -2.4445 H   0  0  0  0  0  0  0  0  0  0  0  0
   -1.4811    0.4296   -2.4752 H   0  0  0  0  0  0  0  0  0  0  0  0
   -1.7883   -0.9369   -1.3969 H   0  0  0  0  0  0  0  0  0  0  0  0
   -0.0020    2.7804    0.9317 H   0  0  0  0  0  0  0  0  0  0  0  0
    2.1502    2.4017    1.9287 H   0  0  0  0  0  0  0  0  0  0  0  0
    1.3383   -0.9709    1.1948 H   0  0  0  0  0  0  0  0  0  0  0  0
    2.9345   -2.7572    0.6583 H   0  0  0  0  0  0  0  0  0  0  0  0
    5.9764    0.2270   -0.1503 H   0  0  0  0  0  0  0  0  0  0  0  0
    4.3622    2.0017    0.3827 H   0  0  0  0  0  0  0  0  0  0  0  0
   -1.5121    0.8687    1.6805 H   0  0  0  0  0  0  0  0  0  0  0  0
   -2.4666    2.0613    0.7811 H   0  0  0  0  0  0  0  0  0  0  0  0
   -3.9119    0.2575    1.7360 H   0  0  0  0  0  0  0  0  0  0  0  0
   -2.9486   -0.9646    0.8984 H   0  0  0  0  0  0  0  0  0  0  0  0
  1  2  1  0
  2  3  1  0
  3  4  1  0
  4  5  1  0
  5  6  1  0
  6  7  2  0
  6  8  1  0
  8  9  2  3
  9 10  1  0
 10 11  2  0
 11 12  1  0
 12 13  2  0
 13 14  1  0
 14 15  2  0
 14 16  1  0
 13 17  1  0
 17 18  2  0
  5 19  1  0
 19 20  1  0
 20  2  1  0
 18 10  1  0
  1 21  1  0
  1 22  1  0
  1 23  1  0
  3 24  1  0
  3 25  1  0
  4 26  1  0
  4 27  1  0
  8 28  1  0
  9 29  1  0
 11 30  1  0
 12 31  1  0
 17 32  1  0
 18 33  1  0
 19 34  1  0
 19 35  1  0
 20 36  1  0
 20 37  1  0
M  CHG  2  14   1  16  -1
M  END
$$$$
