
     RDKit          3D

 66 68  0  0  0  0  0  0  0  0999 V2000
   -4.5295   -3.2192    2.1271 C   0  0  0  0  0  0  0  0  0  0  0  0
   -3.1325   -2.6821    2.4222 C   0  0  0  0  0  0  0  0  0  0  0  0
   -2.1805   -2.9966    1.3405 N   0  0  0  0  0  0  0  0  0  0  0  0
   -1.7360   -4.3997    1.4230 C   0  0  0  0  0  0  0  0  0  0  0  0
   -1.1948   -4.9032    0.0889 C   0  0  0  0  0  0  0  0  0  0  0  0
   -1.0238   -2.0758    1.3795 C   0  0  0  0  0  0  0  0  0  0  0  0
   -1.3486   -0.7325    0.6984 C   0  0  0  0  0  0  0  0  0  0  0  0
   -0.1435    0.2457    0.7458 C   0  0  0  0  0  0  0  0  0  0  0  0
    1.0528   -0.2053   -0.0880 C   0  0  0  0  0  0  0  0  0  0  0  0
    0.9420   -0.5656   -1.4318 C   0  0  0  0  0  0  0  0  0  0  0  0
    2.0679   -0.9692   -2.1676 C   0  0  0  0  0  0  0  0  0  0  0  0
    3.3509   -1.0474   -1.6022 C   0  0  0  0  0  0  0  0  0  0  0  0
    4.4770   -1.4375   -2.3397 N   0  0  0  0  0  0  0  0  0  0  0  0
    5.6276   -1.9699   -1.6104 C   0  0  0  0  0  0  0  0  0  0  0  0
    4.2914   -1.9642   -3.6909 C   0  0  0  0  0  0  0  0  0  0  0  0
    3.4432   -0.6655   -0.2540 C   0  0  0  0  0  0  0  0  0  0  0  0
    2.3251   -0.2588    0.4897 C   0  0  0  0  0  0  0  0  0  0  0  0
   -0.5066    1.7143    0.4926 C   0  0  0  0  0  0  0  0  0  0  0  0
    0.0291    2.7228    1.3149 C   0  0  0  0  0  0  0  0  0  0  0  0
    0.8600    2.3651    2.3508 O   0  0  0  0  0  0  0  0  0  0  0  0
    2.1446    2.9806    2.2417 C   0  0  0  0  0  0  0  0  0  0  0  0
   -0.3178    4.0727    1.1484 C   0  0  0  0  0  0  0  0  0  0  0  0
   -1.1665    4.4679    0.1134 C   0  0  0  0  0  0  0  0  0  0  0  0
   -1.5478    5.7645   -0.1245 O   0  0  0  0  0  0  0  0  0  0  0  0
   -1.1056    6.7615    0.7870 C   0  0  0  0  0  0  0  0  0  0  0  0
   -1.6732    3.4928   -0.7610 C   0  0  0  0  0  0  0  0  0  0  0  0
   -2.5514    3.8340   -1.8802 C   0  0  0  0  0  0  0  0  0  0  0  0
   -3.0037    2.8889   -2.7077 C   0  0  0  0  0  0  0  0  0  0  0  0
   -2.6489    1.4753   -2.5402 C   0  0  0  0  0  0  0  0  0  0  0  0
   -3.0467    0.6250   -3.3269 O   0  0  0  0  0  0  0  0  0  0  0  0
   -1.8469    1.1696   -1.4521 O   0  0  0  0  0  0  0  0  0  0  0  0
   -1.3389    2.1435   -0.5579 C   0  0  0  0  0  0  0  0  0  0  0  0
   -4.5641   -4.3125    2.1294 H   0  0  0  0  0  0  0  0  0  0  0  0
   -5.2316   -2.8677    2.8900 H   0  0  0  0  0  0  0  0  0  0  0  0
   -4.8889   -2.8652    1.1549 H   0  0  0  0  0  0  0  0  0  0  0  0
   -2.7751   -3.0620    3.3878 H   0  0  0  0  0  0  0  0  0  0  0  0
   -3.2392   -1.5975    2.5386 H   0  0  0  0  0  0  0  0  0  0  0  0
   -0.9864   -4.5315    2.2120 H   0  0  0  0  0  0  0  0  0  0  0  0
   -2.5733   -5.0573    1.6796 H   0  0  0  0  0  0  0  0  0  0  0  0
   -1.9329   -4.7716   -0.7085 H   0  0  0  0  0  0  0  0  0  0  0  0
   -0.2749   -4.3924   -0.2081 H   0  0  0  0  0  0  0  0  0  0  0  0
   -0.9685   -5.9721    0.1601 H   0  0  0  0  0  0  0  0  0  0  0  0
   -0.1725   -2.5130    0.8488 H   0  0  0  0  0  0  0  0  0  0  0  0
   -0.6908   -1.9190    2.4135 H   0  0  0  0  0  0  0  0  0  0  0  0
   -2.2008   -0.2580    1.1994 H   0  0  0  0  0  0  0  0  0  0  0  0
   -1.6648   -0.9398   -0.3294 H   0  0  0  0  0  0  0  0  0  0  0  0
    0.1734    0.1889    1.7968 H   0  0  0  0  0  0  0  0  0  0  0  0
   -0.0192   -0.5461   -1.9392 H   0  0  0  0  0  0  0  0  0  0  0  0
    1.8966   -1.2290   -3.2076 H   0  0  0  0  0  0  0  0  0  0  0  0
    6.0983   -1.1999   -0.9903 H   0  0  0  0  0  0  0  0  0  0  0  0
    5.3398   -2.8203   -0.9825 H   0  0  0  0  0  0  0  0  0  0  0  0
    6.4060   -2.3178   -2.2985 H   0  0  0  0  0  0  0  0  0  0  0  0
    3.7168   -2.8967   -3.6764 H   0  0  0  0  0  0  0  0  0  0  0  0
    3.7935   -1.2346   -4.3387 H   0  0  0  0  0  0  0  0  0  0  0  0
    5.2561   -2.1752   -4.1659 H   0  0  0  0  0  0  0  0  0  0  0  0
    4.3994   -0.6629    0.2594 H   0  0  0  0  0  0  0  0  0  0  0  0
    2.4672    0.0166    1.5321 H   0  0  0  0  0  0  0  0  0  0  0  0
    2.8415    2.4071    2.8607 H   0  0  0  0  0  0  0  0  0  0  0  0
    2.1170    4.0037    2.6290 H   0  0  0  0  0  0  0  0  0  0  0  0
    2.5189    2.9687    1.2116 H   0  0  0  0  0  0  0  0  0  0  0  0
    0.0806    4.7938    1.8525 H   0  0  0  0  0  0  0  0  0  0  0  0
   -1.5235    7.7192    0.4625 H   0  0  0  0  0  0  0  0  0  0  0  0
   -1.4736    6.5637    1.7990 H   0  0  0  0  0  0  0  0  0  0  0  0
   -0.0152    6.8529    0.7718 H   0  0  0  0  0  0  0  0  0  0  0  0
   -2.8279    4.8725   -2.0292 H   0  0  0  0  0  0  0  0  0  0  0  0
   -3.6503    3.1233   -3.5438 H   0  0  0  0  0  0  0  0  0  0  0  0
  1  2  1  0
  2  3  1  0
  3  4  1  0
  4  5  1  0
  3  6  1  0
  6  7  1  0
  7  8  1  0
  8  9  1  0
  9 10  2  0
 10 11  1  0
 11 12  2  0
 12 13  1  0
 13 14  1  0
 13 15  1  0
 12 16  1  0
 16 17  2  0
  8 18  1  0
 18 19  2  0
 19 20  1  0
 20 21  1  0
 19 22  1  0
 22 23  2  0
 23 24  1  0
 24 25  1  0
 23 26  1  0
 26 27  1  0
 27 28  2  0
 28 29  1  0
 29 30  2  0
 29 31  1  0
 31 32  1  0
 17  9  1  0
 32 18  1  0
 32 26  2  0
  1 33  1  0
  1 34  1  0
  1 35  1  0
  2 36  1  0
  2 37  1  0
  4 38  1  0
  4 39  1  0
  5 40  1  0
  5 41  1  0
  5 42  1  0
  6 43  1  0
  6 44  1  0
  7 45  1  0
  7 46  1  0
  8 47  1  0
 10 48  1  0
 11 49  1  0
 14 50  1  0
 14 51  1  0
 14 52  1  0
 15 53  1  0
 15 54  1  0
 15 55  1  0
 16 56  1  0
 17 57  1  0
 21 58  1  0
 21 59  1  0
 21 60  1  0
 22 61  1  0
 25 62  1  0
 25 63  1  0
 25 64  1  0
 27 65  1  0
 28 66  1  0
M  END
$$$$
