
     RDKit          3D

 46 49  0  0  0  0  0  0  0  0999 V2000
    0.1901   -4.3954   -2.4171 C   0  0  0  0  0  0  0  0  0  0  0  0
   -0.5898   -3.4965   -1.6303 O   0  0  0  0  0  0  0  0  0  0  0  0
   -0.0464   -2.2477   -1.4991 C   0  0  0  0  0  0  0  0  0  0  0  0
    1.0115   -1.9088   -2.0188 O   0  0  0  0  0  0  0  0  0  0  0  0
   -0.8792   -1.3501   -0.7029 C   0  0  0  0  0  0  0  0  0  0  0  0
   -2.1870   -1.5715   -0.4560 N   0  0  0  0  0  0  0  0  0  0  0  0
   -2.5527   -0.4743    0.2551 N   0  0  0  0  0  0  0  0  0  0  0  0
   -3.8811   -0.2865    0.7180 C   0  0  0  0  0  0  0  0  0  0  0  0
   -4.2174    0.8663    1.4430 C   0  0  0  0  0  0  0  0  0  0  0  0
   -5.5263    1.0477    1.8945 C   0  0  0  0  0  0  0  0  0  0  0  0
   -6.4991    0.0851    1.6260 C   0  0  0  0  0  0  0  0  0  0  0  0
   -6.1686   -1.0627    0.9060 C   0  0  0  0  0  0  0  0  0  0  0  0
   -4.8622   -1.2525    0.4507 C   0  0  0  0  0  0  0  0  0  0  0  0
   -1.5769    0.4408    0.4841 N   0  0  0  0  0  0  0  0  0  0  0  0
   -0.5195   -0.1228   -0.1110 C   0  0  0  0  0  0  0  0  0  0  0  0
    0.8168    0.4572   -0.0745 C   0  0  0  0  0  0  0  0  0  0  0  0
    1.8769   -0.2008    0.4069 N   0  0  0  0  0  0  0  0  0  0  0  0
    2.8558    0.7352    0.3187 N   0  0  0  0  0  0  0  0  0  0  0  0
    4.1917    0.4659    0.7161 C   0  0  0  0  0  0  0  0  0  0  0  0
    5.1685    1.4683    0.6234 C   0  0  0  0  0  0  0  0  0  0  0  0
    6.4814    1.1998    1.0156 C   0  0  0  0  0  0  0  0  0  0  0  0
    6.8233   -0.0631    1.4989 C   0  0  0  0  0  0  0  0  0  0  0  0
    5.8551   -1.0628    1.5921 C   0  0  0  0  0  0  0  0  0  0  0  0
    4.5396   -0.8029    1.2022 C   0  0  0  0  0  0  0  0  0  0  0  0
    2.4796    1.9475   -0.1610 N   0  0  0  0  0  0  0  0  0  0  0  0
    1.1703    1.7747   -0.4344 C   0  0  0  0  0  0  0  0  0  0  0  0
    0.3499    2.8342   -1.0181 C   0  0  0  0  0  0  0  0  0  0  0  0
    0.6211    4.0287   -0.9451 O   0  0  0  0  0  0  0  0  0  0  0  0
   -0.7333    2.3491   -1.6984 O   0  0  0  0  0  0  0  0  0  0  0  0
   -1.5610    3.3584   -2.2765 C   0  0  0  0  0  0  0  0  0  0  0  0
    1.1745   -4.5481   -1.9637 H   0  0  0  0  0  0  0  0  0  0  0  0
    0.2876   -4.0229   -3.4416 H   0  0  0  0  0  0  0  0  0  0  0  0
   -0.3290   -5.3574   -2.4473 H   0  0  0  0  0  0  0  0  0  0  0  0
   -3.4742    1.6293    1.6660 H   0  0  0  0  0  0  0  0  0  0  0  0
   -5.7869    1.9405    2.4579 H   0  0  0  0  0  0  0  0  0  0  0  0
   -7.5171    0.2291    1.9800 H   0  0  0  0  0  0  0  0  0  0  0  0
   -6.9290   -1.8120    0.6995 H   0  0  0  0  0  0  0  0  0  0  0  0
   -4.6259   -2.1561   -0.1083 H   0  0  0  0  0  0  0  0  0  0  0  0
    4.9228    2.4608    0.2497 H   0  0  0  0  0  0  0  0  0  0  0  0
    7.2379    1.9775    0.9439 H   0  0  0  0  0  0  0  0  0  0  0  0
    7.8466   -0.2685    1.8032 H   0  0  0  0  0  0  0  0  0  0  0  0
    6.1248   -2.0465    1.9684 H   0  0  0  0  0  0  0  0  0  0  0  0
    3.8003   -1.5975    1.2812 H   0  0  0  0  0  0  0  0  0  0  0  0
   -1.0047    3.9251   -3.0295 H   0  0  0  0  0  0  0  0  0  0  0  0
   -1.9558    4.0227   -1.5013 H   0  0  0  0  0  0  0  0  0  0  0  0
   -2.4032    2.8637   -2.7681 H   0  0  0  0  0  0  0  0  0  0  0  0
  1  2  1  0
  2  3  1  0
  3  4  2  0
  3  5  1  0
  5  6  2  0
  6  7  1  0
  7  8  1  0
  8  9  2  0
  9 10  1  0
 10 11  2  0
 11 12  1  0
 12 13  2  0
  7 14  1  0
 14 15  2  0
 15 16  1  0
 16 17  2  0
 17 18  1  0
 18 19  1  0
 19 20  2  0
 20 21  1  0
 21 22  2  0
 22 23  1  0
 23 24  2  0
 18 25  1  0
 25 26  2  0
 26 27  1  0
 27 28  2  0
 27 29  1  0
 29 30  1  0
 15  5  1  0
 26 16  1  0
 13  8  1  0
 24 19  1  0
  1 31  1  0
  1 32  1  0
  1 33  1  0
  9 34  1  0
 10 35  1  0
 11 36  1  0
 12 37  1  0
 13 38  1  0
 20 39  1  0
 21 40  1  0
 22 41  1  0
 23 42  1  0
 24 43  1  0
 30 44  1  0
 30 45  1  0
 30 46  1  0
M  END
$$$$
