
     RDKit          3D

 49 51  0  0  0  0  0  0  0  0999 V2000
   -1.1204    0.4260    3.6025 O   0  0  0  0  0  0  0  0  0  0  0  0
   -0.8728   -0.0453    2.4973 C   0  0  0  0  0  0  0  0  0  0  0  0
   -1.9634   -0.6760    1.6548 C   0  0  0  0  0  0  0  0  0  0  0  0
   -2.4377    0.3104    0.5852 C   0  0  0  0  0  0  0  0  0  0  0  0
   -3.3448   -0.2364   -0.4308 N   0  0  0  0  0  0  0  0  0  0  0  0
   -4.5449   -0.8659    0.1088 C   0  0  0  0  0  0  0  0  0  0  0  0
   -5.5793   -1.0744   -1.0030 C   0  0  0  0  0  0  0  0  0  0  0  0
   -4.9679   -1.5597   -2.3201 C   0  0  0  0  0  0  0  0  0  0  0  0
   -3.5590   -2.0942   -2.1142 C   0  0  0  0  0  0  0  0  0  0  0  0
   -2.6583   -1.0499   -1.4414 C   0  0  0  0  0  0  0  0  0  0  0  0
    0.3533   -0.0509    1.8636 N   0  0  0  0  0  0  0  0  0  0  0  0
    1.6065    0.3856    2.3540 C   0  0  0  0  0  0  0  0  0  0  0  0
    1.7883    0.8120    3.6742 C   0  0  0  0  0  0  0  0  0  0  0  0
    3.0540    1.1864    4.1375 C   0  0  0  0  0  0  0  0  0  0  0  0
    4.1513    1.1281    3.2855 C   0  0  0  0  0  0  0  0  0  0  0  0
    5.8627    1.6125    3.9239 Br  0  0  0  0  0  0  0  0  0  0  0  0
    3.9979    0.7188    1.9636 C   0  0  0  0  0  0  0  0  0  0  0  0
    2.7242    0.3725    1.4857 C   0  0  0  0  0  0  0  0  0  0  0  0
    2.5583   -0.0195    0.0556 C   0  0  0  0  0  0  0  0  0  0  0  0
    1.7138   -0.8654   -0.2408 O   0  0  0  0  0  0  0  0  0  0  0  0
    3.3488    0.6124   -1.0312 C   0  0  0  0  0  0  0  0  0  0  0  0
    3.7042    1.9663   -0.9927 C   0  0  0  0  0  0  0  0  0  0  0  0
    4.4269    2.5271   -2.0480 C   0  0  0  0  0  0  0  0  0  0  0  0
    4.7740    1.7469   -3.1503 C   0  0  0  0  0  0  0  0  0  0  0  0
    4.4003    0.4046   -3.2019 C   0  0  0  0  0  0  0  0  0  0  0  0
    3.6859   -0.1630   -2.1458 C   0  0  0  0  0  0  0  0  0  0  0  0
   -1.5731   -1.6015    1.2158 H   0  0  0  0  0  0  0  0  0  0  0  0
   -2.7861   -0.9636    2.3207 H   0  0  0  0  0  0  0  0  0  0  0  0
   -2.9437    1.1476    1.0845 H   0  0  0  0  0  0  0  0  0  0  0  0
   -1.5800    0.7720    0.0780 H   0  0  0  0  0  0  0  0  0  0  0  0
   -5.0007   -0.2348    0.8815 H   0  0  0  0  0  0  0  0  0  0  0  0
   -4.3077   -1.8276    0.5811 H   0  0  0  0  0  0  0  0  0  0  0  0
   -6.3263   -1.7991   -0.6561 H   0  0  0  0  0  0  0  0  0  0  0  0
   -6.1214   -0.1387   -1.1903 H   0  0  0  0  0  0  0  0  0  0  0  0
   -4.9358   -0.7245   -3.0323 H   0  0  0  0  0  0  0  0  0  0  0  0
   -5.6063   -2.3291   -2.7712 H   0  0  0  0  0  0  0  0  0  0  0  0
   -3.6036   -2.9971   -1.4924 H   0  0  0  0  0  0  0  0  0  0  0  0
   -3.1259   -2.3928   -3.0747 H   0  0  0  0  0  0  0  0  0  0  0  0
   -2.2743   -0.3667   -2.2092 H   0  0  0  0  0  0  0  0  0  0  0  0
   -1.7885   -1.5758   -1.0294 H   0  0  0  0  0  0  0  0  0  0  0  0
    0.3884   -0.4665    0.9287 H   0  0  0  0  0  0  0  0  0  0  0  0
    0.9639    0.8483    4.3803 H   0  0  0  0  0  0  0  0  0  0  0  0
    3.1667    1.5082    5.1699 H   0  0  0  0  0  0  0  0  0  0  0  0
    4.8696    0.6652    1.3162 H   0  0  0  0  0  0  0  0  0  0  0  0
    3.4115    2.6037   -0.1628 H   0  0  0  0  0  0  0  0  0  0  0  0
    4.7058    3.5776   -2.0199 H   0  0  0  0  0  0  0  0  0  0  0  0
    5.3255    2.1899   -3.9761 H   0  0  0  0  0  0  0  0  0  0  0  0
    4.6540   -0.1962   -4.0700 H   0  0  0  0  0  0  0  0  0  0  0  0
    3.3861   -1.2076   -2.1982 H   0  0  0  0  0  0  0  0  0  0  0  0
  1  2  2  0
  2  3  1  0
  3  4  1  0
  4  5  1  0
  5  6  1  0
  6  7  1  0
  7  8  1  0
  8  9  1  0
  9 10  1  0
  2 11  1  0
 11 12  1  0
 12 13  2  0
 13 14  1  0
 14 15  2  0
 15 16  1  0
 15 17  1  0
 17 18  2  0
 18 19  1  0
 19 20  2  0
 19 21  1  0
 21 22  2  0
 22 23  1  0
 23 24  2  0
 24 25  1  0
 25 26  2  0
 10  5  1  0
 18 12  1  0
 26 21  1  0
  3 27  1  0
  3 28  1  0
  4 29  1  0
  4 30  1  0
  6 31  1  0
  6 32  1  0
  7 33  1  0
  7 34  1  0
  8 35  1  0
  8 36  1  0
  9 37  1  0
  9 38  1  0
 10 39  1  0
 10 40  1  0
 11 41  1  0
 13 42  1  0
 14 43  1  0
 17 44  1  0
 22 45  1  0
 23 46  1  0
 24 47  1  0
 25 48  1  0
 26 49  1  0
M  END
$$$$
