
     RDKit          3D

 53 57  0  0  0  0  0  0  0  0999 V2000
    8.1622    1.0682    1.2549 C   0  0  0  0  0  0  0  0  0  0  0  0
    7.5597    0.6565    0.0342 O   0  0  0  0  0  0  0  0  0  0  0  0
    6.1971    0.5542    0.0231 C   0  0  0  0  0  0  0  0  0  0  0  0
    5.3443    0.7981    1.0950 C   0  0  0  0  0  0  0  0  0  0  0  0
    3.9555    0.6552    0.9470 C   0  0  0  0  0  0  0  0  0  0  0  0
    3.3937    0.2657   -0.2760 C   0  0  0  0  0  0  0  0  0  0  0  0
    1.9725    0.1108   -0.4375 N   0  0  0  0  0  0  0  0  0  0  0  0
    1.3624   -0.4825   -1.5316 C   0  0  0  0  0  0  0  0  0  0  0  0
   -0.0052   -0.4766   -1.3630 C   0  0  0  0  0  0  0  0  0  0  0  0
   -0.9009   -1.0149   -2.3673 C   0  0  0  0  0  0  0  0  0  0  0  0
   -0.8991   -2.3847   -2.6542 C   0  0  0  0  0  0  0  0  0  0  0  0
   -1.7769   -2.9012   -3.6090 C   0  0  0  0  0  0  0  0  0  0  0  0
   -2.6570   -2.0526   -4.2798 C   0  0  0  0  0  0  0  0  0  0  0  0
   -2.6602   -0.6866   -3.9999 C   0  0  0  0  0  0  0  0  0  0  0  0
   -1.7829   -0.1668   -3.0467 C   0  0  0  0  0  0  0  0  0  0  0  0
   -0.2795    0.1415   -0.1107 C   0  0  0  0  0  0  0  0  0  0  0  0
   -1.4428    0.4393    0.6395 C   0  0  0  0  0  0  0  0  0  0  0  0
   -2.7319    0.0760    0.1834 N   0  0  0  0  0  0  0  0  0  0  0  0
   -3.9046    0.0699    0.9683 N   0  0  0  0  0  0  0  0  0  0  0  0
   -4.3408    1.4230    1.3469 C   0  0  0  0  0  0  0  0  0  0  0  0
   -5.6760    1.3404    2.1024 C   0  0  0  0  0  0  0  0  0  0  0  0
   -5.5767    0.5003    3.2629 O   0  0  0  0  0  0  0  0  0  0  0  0
   -5.1551   -0.8197    2.8883 C   0  0  0  0  0  0  0  0  0  0  0  0
   -3.8061   -0.7968    2.1532 C   0  0  0  0  0  0  0  0  0  0  0  0
   -1.2788    1.0983    1.8138 N   0  0  0  0  0  0  0  0  0  0  0  0
   -0.0446    1.4170    2.2205 C   0  0  0  0  0  0  0  0  0  0  0  0
    1.1110    1.1571    1.6046 N   0  0  0  0  0  0  0  0  0  0  0  0
    0.9524    0.5064    0.4348 C   0  0  0  0  0  0  0  0  0  0  0  0
    4.2634    0.0197   -1.3500 C   0  0  0  0  0  0  0  0  0  0  0  0
    5.6481    0.1647   -1.1967 C   0  0  0  0  0  0  0  0  0  0  0  0
    7.8299    2.0717    1.5409 H   0  0  0  0  0  0  0  0  0  0  0  0
    7.9694    0.3444    2.0537 H   0  0  0  0  0  0  0  0  0  0  0  0
    9.2442    1.1085    1.0966 H   0  0  0  0  0  0  0  0  0  0  0  0
    5.7196    1.0986    2.0678 H   0  0  0  0  0  0  0  0  0  0  0  0
    3.3519    0.8399    1.8292 H   0  0  0  0  0  0  0  0  0  0  0  0
    1.9381   -0.8817   -2.3538 H   0  0  0  0  0  0  0  0  0  0  0  0
   -0.2214   -3.0578   -2.1340 H   0  0  0  0  0  0  0  0  0  0  0  0
   -1.7750   -3.9658   -3.8291 H   0  0  0  0  0  0  0  0  0  0  0  0
   -3.3405   -2.4559   -5.0230 H   0  0  0  0  0  0  0  0  0  0  0  0
   -3.3456   -0.0252   -4.5241 H   0  0  0  0  0  0  0  0  0  0  0  0
   -1.7948    0.9013   -2.8384 H   0  0  0  0  0  0  0  0  0  0  0  0
   -2.6999   -0.6267   -0.5529 H   0  0  0  0  0  0  0  0  0  0  0  0
   -3.6098    1.9158    1.9964 H   0  0  0  0  0  0  0  0  0  0  0  0
   -4.4744    2.0432    0.4531 H   0  0  0  0  0  0  0  0  0  0  0  0
   -5.9706    2.3382    2.4432 H   0  0  0  0  0  0  0  0  0  0  0  0
   -6.4765    0.9624    1.4547 H   0  0  0  0  0  0  0  0  0  0  0  0
   -5.9353   -1.2831    2.2721 H   0  0  0  0  0  0  0  0  0  0  0  0
   -5.0659   -1.4095    3.8063 H   0  0  0  0  0  0  0  0  0  0  0  0
   -3.0395   -0.4379    2.8489 H   0  0  0  0  0  0  0  0  0  0  0  0
   -3.5441   -1.8186    1.8556 H   0  0  0  0  0  0  0  0  0  0  0  0
    0.0226    1.9471    3.1654 H   0  0  0  0  0  0  0  0  0  0  0  0
    3.9100   -0.2647   -2.3357 H   0  0  0  0  0  0  0  0  0  0  0  0
    6.3043   -0.0243   -2.0434 H   0  0  0  0  0  0  0  0  0  0  0  0
  1  2  1  0
  2  3  1  0
  3  4  2  0
  4  5  1  0
  5  6  2  0
  6  7  1  0
  7  8  1  0
  8  9  2  0
  9 10  1  0
 10 11  2  0
 11 12  1  0
 12 13  2  0
 13 14  1  0
 14 15  2  0
  9 16  1  0
 16 17  2  0
 17 18  1  0
 18 19  1  0
 19 20  1  0
 20 21  1  0
 21 22  1  0
 22 23  1  0
 23 24  1  0
 17 25  1  0
 25 26  2  0
 26 27  1  0
 27 28  2  0
  6 29  1  0
 29 30  2  0
 30  3  1  0
 28  7  1  0
 15 10  1  0
 28 16  1  0
 24 19  1  0
  1 31  1  0
  1 32  1  0
  1 33  1  0
  4 34  1  0
  5 35  1  0
  8 36  1  0
 11 37  1  0
 12 38  1  0
 13 39  1  0
 14 40  1  0
 15 41  1  0
 18 42  1  0
 20 43  1  0
 20 44  1  0
 21 45  1  0
 21 46  1  0
 23 47  1  0
 23 48  1  0
 24 49  1  0
 24 50  1  0
 26 51  1  0
 29 52  1  0
 30 53  1  0
M  END
$$$$
