
     RDKit          3D

 38 39  0  0  0  0  0  0  0  0999 V2000
   -1.6777    0.0291   -0.9949 O   0  0  0  0  0  0  0  0  0  0  0  0
   -1.6514   -0.4098    0.1519 C   0  0  0  0  0  0  0  0  0  0  0  0
   -0.3298   -0.6582    0.8915 C   0  0  0  0  0  0  0  0  0  0  0  0
    0.7938   -0.7530    0.0224 O   0  0  0  0  0  0  0  0  0  0  0  0
    0.8472   -1.9045   -0.6824 C   0  0  0  0  0  0  0  0  0  0  0  0
    0.0698   -2.8427   -0.5751 O   0  0  0  0  0  0  0  0  0  0  0  0
    1.9477   -1.9146   -1.6684 C   0  0  0  0  0  0  0  0  0  0  0  0
    3.0896   -1.2085   -1.6721 C   0  0  0  0  0  0  0  0  0  0  0  0
    3.5348   -0.2640   -0.6480 C   0  0  0  0  0  0  0  0  0  0  0  0
    4.0605   -0.7264    0.5624 C   0  0  0  0  0  0  0  0  0  0  0  0
    4.4871    0.1792    1.5338 C   0  0  0  0  0  0  0  0  0  0  0  0
    4.3879    1.5513    1.3011 C   0  0  0  0  0  0  0  0  0  0  0  0
    3.8553    2.0332    0.0953 C   0  0  0  0  0  0  0  0  0  0  0  0
    3.7680    3.5167   -0.1633 C   0  0  0  0  0  0  0  0  0  0  0  0
    4.9220    4.0189   -0.6825 F   0  0  0  0  0  0  0  0  0  0  0  0
    2.7842    3.8544   -1.0420 F   0  0  0  0  0  0  0  0  0  0  0  0
    3.5214    4.2400    0.9648 F   0  0  0  0  0  0  0  0  0  0  0  0
    3.4393    1.1125   -0.8804 C   0  0  0  0  0  0  0  0  0  0  0  0
   -2.7508   -0.7066    0.9282 N   0  0  0  0  0  0  0  0  0  0  0  0
   -4.0998   -0.6020    0.5936 C   0  0  0  0  0  0  0  0  0  0  0  0
   -4.5738   -0.1592   -0.6350 C   0  0  0  0  0  0  0  0  0  0  0  0
   -5.9535   -0.1001   -0.8477 C   0  0  0  0  0  0  0  0  0  0  0  0
   -6.8143   -0.4833    0.1700 C   0  0  0  0  0  0  0  0  0  0  0  0
   -8.5144   -0.4271   -0.0470 Cl  0  0  0  0  0  0  0  0  0  0  0  0
   -6.2598   -0.9110    1.3637 C   0  0  0  0  0  0  0  0  0  0  0  0
   -4.9246   -0.9772    1.5970 N   0  0  0  0  0  0  0  0  0  0  0  0
   -0.3980   -1.5493    1.5274 H   0  0  0  0  0  0  0  0  0  0  0  0
   -0.1590    0.2008    1.5496 H   0  0  0  0  0  0  0  0  0  0  0  0
    1.7711   -2.6225   -2.4737 H   0  0  0  0  0  0  0  0  0  0  0  0
    3.7879   -1.3423   -2.4957 H   0  0  0  0  0  0  0  0  0  0  0  0
    4.1431   -1.7937    0.7556 H   0  0  0  0  0  0  0  0  0  0  0  0
    4.8985   -0.1856    2.4718 H   0  0  0  0  0  0  0  0  0  0  0  0
    4.7272    2.2480    2.0666 H   0  0  0  0  0  0  0  0  0  0  0  0
    3.0258    1.4740   -1.8215 H   0  0  0  0  0  0  0  0  0  0  0  0
   -2.6220   -1.0757    1.8609 H   0  0  0  0  0  0  0  0  0  0  0  0
   -3.9095    0.1394   -1.4374 H   0  0  0  0  0  0  0  0  0  0  0  0
   -6.3382    0.2426   -1.8040 H   0  0  0  0  0  0  0  0  0  0  0  0
   -6.8857   -1.2229    2.1948 H   0  0  0  0  0  0  0  0  0  0  0  0
  1  2  2  0
  2  3  1  0
  3  4  1  0
  4  5  1  0
  5  6  2  0
  5  7  1  0
  7  8  2  3
  8  9  1  0
  9 10  2  0
 10 11  1  0
 11 12  2  0
 12 13  1  0
 13 14  1  0
 14 15  1  0
 14 16  1  0
 14 17  1  0
 13 18  2  0
  2 19  1  0
 19 20  1  0
 20 21  2  0
 21 22  1  0
 22 23  2  0
 23 24  1  0
 23 25  1  0
 25 26  2  0
 18  9  1  0
 26 20  1  0
  3 27  1  0
  3 28  1  0
  7 29  1  0
  8 30  1  0
 10 31  1  0
 11 32  1  0
 12 33  1  0
 18 34  1  0
 19 35  1  0
 21 36  1  0
 22 37  1  0
 25 38  1  0
M  END
$$$$
