
     RDKit          3D

 35 36  0  0  0  0  0  0  0  0999 V2000
    4.0728    0.2787   -2.5156 C   0  0  0  0  0  0  0  0  0  0  0  0
    4.0417   -0.5721   -1.2582 C   0  0  0  0  0  0  0  0  0  0  0  0
    3.7466    0.2108   -0.0681 N   0  0  0  0  0  0  0  0  0  0  0  0
    4.7962    0.6969    0.6350 N   0  0  0  0  0  0  0  0  0  0  0  0
    4.2310    1.3369    1.6552 C   0  0  0  0  0  0  0  0  0  0  0  0
    2.8356    1.2530    1.6082 C   0  0  0  0  0  0  0  0  0  0  0  0
    1.7402    2.0694    2.8927 Br  0  0  0  0  0  0  0  0  0  0  0  0
    2.5125    0.5137    0.4835 C   0  0  0  0  0  0  0  0  0  0  0  0
    1.2396    0.1084   -0.0931 C   0  0  0  0  0  0  0  0  0  0  0  0
    1.1686   -0.3517   -1.2273 O   0  0  0  0  0  0  0  0  0  0  0  0
    0.1516    0.2742    0.7425 N   0  0  0  0  0  0  0  0  0  0  0  0
   -1.2059   -0.0136    0.4862 C   0  0  0  0  0  0  0  0  0  0  0  0
   -1.6873   -0.5347   -0.7158 C   0  0  0  0  0  0  0  0  0  0  0  0
   -3.0563   -0.7920   -0.8918 C   0  0  0  0  0  0  0  0  0  0  0  0
   -3.5505   -1.3907   -2.1764 C   0  0  0  0  0  0  0  0  0  0  0  0
   -3.9443   -0.5409    0.1600 C   0  0  0  0  0  0  0  0  0  0  0  0
   -3.4846   -0.0038    1.3662 C   0  0  0  0  0  0  0  0  0  0  0  0
   -4.4360    0.2411    2.4999 C   0  0  0  0  0  0  0  0  0  0  0  0
   -2.1141    0.2463    1.5224 C   0  0  0  0  0  0  0  0  0  0  0  0
    4.8402    1.0569   -2.4433 H   0  0  0  0  0  0  0  0  0  0  0  0
    3.1138    0.7763   -2.6899 H   0  0  0  0  0  0  0  0  0  0  0  0
    4.2992   -0.3420   -3.3879 H   0  0  0  0  0  0  0  0  0  0  0  0
    5.0203   -1.0430   -1.1044 H   0  0  0  0  0  0  0  0  0  0  0  0
    3.3160   -1.3862   -1.3330 H   0  0  0  0  0  0  0  0  0  0  0  0
    4.8642    1.8333    2.3794 H   0  0  0  0  0  0  0  0  0  0  0  0
    0.3477    0.6506    1.6602 H   0  0  0  0  0  0  0  0  0  0  0  0
   -1.0183   -0.7556   -1.5415 H   0  0  0  0  0  0  0  0  0  0  0  0
   -3.4857   -2.4821   -2.1294 H   0  0  0  0  0  0  0  0  0  0  0  0
   -2.9576   -1.0355   -3.0258 H   0  0  0  0  0  0  0  0  0  0  0  0
   -4.5909   -1.1064   -2.3664 H   0  0  0  0  0  0  0  0  0  0  0  0
   -5.0026   -0.7636    0.0362 H   0  0  0  0  0  0  0  0  0  0  0  0
   -5.4350    0.4887    2.1257 H   0  0  0  0  0  0  0  0  0  0  0  0
   -4.1023    1.0838    3.1144 H   0  0  0  0  0  0  0  0  0  0  0  0
   -4.5052   -0.6512    3.1296 H   0  0  0  0  0  0  0  0  0  0  0  0
   -1.7612    0.6464    2.4703 H   0  0  0  0  0  0  0  0  0  0  0  0
  1  2  1  0
  2  3  1  0
  3  4  1  0
  4  5  2  0
  5  6  1  0
  6  7  1  0
  6  8  2  0
  8  9  1  0
  9 10  2  0
  9 11  1  0
 11 12  1  0
 12 13  2  0
 13 14  1  0
 14 15  1  0
 14 16  2  0
 16 17  1  0
 17 18  1  0
 17 19  2  0
  8  3  1  0
 19 12  1  0
  1 20  1  0
  1 21  1  0
  1 22  1  0
  2 23  1  0
  2 24  1  0
  5 25  1  0
 11 26  1  0
 13 27  1  0
 15 28  1  0
 15 29  1  0
 15 30  1  0
 16 31  1  0
 18 32  1  0
 18 33  1  0
 18 34  1  0
 19 35  1  0
M  END
$$$$
