
     RDKit          3D

 57 59  0  0  0  0  0  0  0  0999 V2000
    8.1964    0.3280    1.9074 C   0  0  0  0  0  0  0  0  0  0  0  0
    7.2310   -0.0259    0.7738 C   0  0  0  0  0  0  0  0  0  0  0  0
    7.9971   -0.1070   -0.5493 C   0  0  0  0  0  0  0  0  0  0  0  0
    6.0884    1.0051    0.7166 C   0  0  0  0  0  0  0  0  0  0  0  0
    4.9836    0.6201   -0.2089 C   0  0  0  0  0  0  0  0  0  0  0  0
    3.9837   -0.3595   -0.0162 C   0  0  0  0  0  0  0  0  0  0  0  0
    3.2272   -0.3021   -1.1609 C   0  0  0  0  0  0  0  0  0  0  0  0
    2.0290   -1.0219   -1.6388 C   0  0  0  0  0  0  0  0  0  0  0  0
    0.8495   -0.3323   -1.1576 N   0  0  0  0  0  0  0  0  0  0  0  0
    0.2945   -0.6461    0.0655 C   0  0  0  0  0  0  0  0  0  0  0  0
    0.7177   -1.5597    0.7658 O   0  0  0  0  0  0  0  0  0  0  0  0
   -0.8580    0.2655    0.4809 C   0  0  0  0  0  0  0  0  0  0  0  0
   -1.3522    0.0101    1.9007 C   0  0  0  0  0  0  0  0  0  0  0  0
   -2.0939   -1.3103    2.0228 C   0  0  0  0  0  0  0  0  0  0  0  0
   -3.1045   -1.5877    0.9291 C   0  0  0  0  0  0  0  0  0  0  0  0
   -4.0283   -2.3755    1.1372 O   0  0  0  0  0  0  0  0  0  0  0  0
   -2.8799   -1.0058   -0.3105 N   0  0  0  0  0  0  0  0  0  0  0  0
   -3.8107   -1.3194   -1.3959 C   0  0  0  0  0  0  0  0  0  0  0  0
   -4.8984   -0.2813   -1.5620 C   0  0  0  0  0  0  0  0  0  0  0  0
   -4.8553    0.6362   -2.6208 C   0  0  0  0  0  0  0  0  0  0  0  0
   -5.8491    1.6054   -2.7596 C   0  0  0  0  0  0  0  0  0  0  0  0
   -6.8982    1.6685   -1.8425 C   0  0  0  0  0  0  0  0  0  0  0  0
   -6.9700    0.7566   -0.7796 C   0  0  0  0  0  0  0  0  0  0  0  0
   -8.0896    0.8304    0.2300 C   0  0  0  0  0  0  0  0  0  0  0  0
   -7.7200    1.4875    1.3642 F   0  0  0  0  0  0  0  0  0  0  0  0
   -8.5316   -0.3937    0.6305 F   0  0  0  0  0  0  0  0  0  0  0  0
   -9.1905    1.4860   -0.2362 F   0  0  0  0  0  0  0  0  0  0  0  0
   -5.9601   -0.2103   -0.6464 C   0  0  0  0  0  0  0  0  0  0  0  0
   -2.0411    0.1777   -0.4757 C   0  0  0  0  0  0  0  0  0  0  0  0
    3.7350    0.6523   -1.9855 O   0  0  0  0  0  0  0  0  0  0  0  0
    4.8364    1.2379   -1.3883 N   0  0  0  0  0  0  0  0  0  0  0  0
    8.6558    1.3095    1.7469 H   0  0  0  0  0  0  0  0  0  0  0  0
    7.6750    0.3503    2.8702 H   0  0  0  0  0  0  0  0  0  0  0  0
    8.9990   -0.4138    1.9810 H   0  0  0  0  0  0  0  0  0  0  0  0
    6.8132   -1.0185    0.9865 H   0  0  0  0  0  0  0  0  0  0  0  0
    7.3498   -0.4456   -1.3644 H   0  0  0  0  0  0  0  0  0  0  0  0
    8.8260   -0.8192   -0.4736 H   0  0  0  0  0  0  0  0  0  0  0  0
    8.4141    0.8670   -0.8274 H   0  0  0  0  0  0  0  0  0  0  0  0
    5.6583    1.1261    1.7198 H   0  0  0  0  0  0  0  0  0  0  0  0
    6.4874    1.9890    0.4366 H   0  0  0  0  0  0  0  0  0  0  0  0
    3.8283   -1.0100    0.8325 H   0  0  0  0  0  0  0  0  0  0  0  0
    2.0307   -2.0603   -1.2921 H   0  0  0  0  0  0  0  0  0  0  0  0
    1.9830   -1.0240   -2.7324 H   0  0  0  0  0  0  0  0  0  0  0  0
    0.6708    0.5804   -1.5549 H   0  0  0  0  0  0  0  0  0  0  0  0
   -0.4537    1.2867    0.4444 H   0  0  0  0  0  0  0  0  0  0  0  0
   -2.0302    0.8241    2.1897 H   0  0  0  0  0  0  0  0  0  0  0  0
   -0.5180    0.0288    2.6121 H   0  0  0  0  0  0  0  0  0  0  0  0
   -2.6239   -1.3255    2.9826 H   0  0  0  0  0  0  0  0  0  0  0  0
   -1.3914   -2.1506    2.0317 H   0  0  0  0  0  0  0  0  0  0  0  0
   -4.2737   -2.3006   -1.2369 H   0  0  0  0  0  0  0  0  0  0  0  0
   -3.2234   -1.4107   -2.3179 H   0  0  0  0  0  0  0  0  0  0  0  0
   -4.0457    0.6024   -3.3467 H   0  0  0  0  0  0  0  0  0  0  0  0
   -5.8068    2.3130   -3.5845 H   0  0  0  0  0  0  0  0  0  0  0  0
   -7.6652    2.4326   -1.9619 H   0  0  0  0  0  0  0  0  0  0  0  0
   -6.0034   -0.9202    0.1816 H   0  0  0  0  0  0  0  0  0  0  0  0
   -2.6887    1.0484   -0.3119 H   0  0  0  0  0  0  0  0  0  0  0  0
   -1.7054    0.2117   -1.5180 H   0  0  0  0  0  0  0  0  0  0  0  0
  1  2  1  0
  2  3  1  0
  2  4  1  0
  4  5  1  0
  5  6  1  0
  6  7  2  0
  7  8  1  0
  8  9  1  0
  9 10  1  0
 10 11  2  0
 10 12  1  0
 12 13  1  0
 13 14  1  0
 14 15  1  0
 15 16  2  0
 15 17  1  0
 17 18  1  0
 18 19  1  0
 19 20  2  0
 20 21  1  0
 21 22  2  0
 22 23  1  0
 23 24  1  0
 24 25  1  0
 24 26  1  0
 24 27  1  0
 23 28  2  0
 17 29  1  0
  7 30  1  0
 30 31  1  0
 31  5  2  0
 29 12  1  0
 28 19  1  0
  1 32  1  0
  1 33  1  0
  1 34  1  0
  2 35  1  0
  3 36  1  0
  3 37  1  0
  3 38  1  0
  4 39  1  0
  4 40  1  0
  6 41  1  0
  8 42  1  0
  8 43  1  0
  9 44  1  0
 12 45  1  0
 13 46  1  0
 13 47  1  0
 14 48  1  0
 14 49  1  0
 18 50  1  0
 18 51  1  0
 20 52  1  0
 21 53  1  0
 22 54  1  0
 28 55  1  0
 29 56  1  0
 29 57  1  0
M  END
$$$$
