
     RDKit          3D

 63 66  0  0  0  0  0  0  0  0999 V2000
    6.2944    0.1056    1.1831 C   0  0  0  0  0  0  0  0  0  0  0  0
    6.3476   -0.3240   -0.2889 C   0  0  0  0  0  0  0  0  0  0  0  0
    5.3872    0.5072   -1.1637 C   0  0  0  0  0  0  0  0  0  0  0  0
    3.9927    0.3755   -0.7759 N   0  0  0  0  0  0  0  0  0  0  0  0
    3.2656   -0.7537   -1.0931 C   0  0  0  0  0  0  0  0  0  0  0  0
    3.7200   -1.6924   -1.7365 O   0  0  0  0  0  0  0  0  0  0  0  0
    1.8751   -0.8100   -0.5652 C   0  0  0  0  0  0  0  0  0  0  0  0
    1.3158   -2.0614   -0.2924 C   0  0  0  0  0  0  0  0  0  0  0  0
    0.0147   -2.1513    0.2079 C   0  0  0  0  0  0  0  0  0  0  0  0
   -0.7432   -0.9999    0.4373 C   0  0  0  0  0  0  0  0  0  0  0  0
   -1.9983   -1.2365    0.9217 O   0  0  0  0  0  0  0  0  0  0  0  0
   -2.7694   -0.1383    1.4268 C   0  0  0  0  0  0  0  0  0  0  0  0
   -3.5892    0.5138    0.3047 C   0  0  0  0  0  0  0  0  0  0  0  0
   -4.9978   -0.0724    0.2266 C   0  0  0  0  0  0  0  0  0  0  0  0
   -5.7703    0.0741    1.4719 N   0  0  0  0  0  0  0  0  0  0  0  0
   -6.7029    1.2206    1.4359 C   0  0  0  0  0  0  0  0  0  0  0  0
   -7.8414    1.0762    0.4395 C   0  0  0  0  0  0  0  0  0  0  0  0
   -8.6775   -0.0390    0.4808 C   0  0  0  0  0  0  0  0  0  0  0  0
   -9.7149   -0.1389   -0.4415 C   0  0  0  0  0  0  0  0  0  0  0  0
   -9.8943    0.8740   -1.3748 C   0  0  0  0  0  0  0  0  0  0  0  0
   -9.0244    1.9505   -1.3464 C   0  0  0  0  0  0  0  0  0  0  0  0
   -8.0081    2.0762   -0.4646 N   0  0  0  0  0  0  0  0  0  0  0  0
   -4.9335    0.1341    2.6781 C   0  0  0  0  0  0  0  0  0  0  0  0
   -3.6719   -0.7059    2.5313 C   0  0  0  0  0  0  0  0  0  0  0  0
   -0.1955    0.2477    0.1372 C   0  0  0  0  0  0  0  0  0  0  0  0
    1.1098    0.3446   -0.3631 C   0  0  0  0  0  0  0  0  0  0  0  0
    7.7595   -0.2571   -0.8521 C   0  0  0  0  0  0  0  0  0  0  0  0
    8.5614    0.8871   -0.7227 C   0  0  0  0  0  0  0  0  0  0  0  0
    9.8475    0.9202   -1.2666 C   0  0  0  0  0  0  0  0  0  0  0  0
   10.3459   -0.1854   -1.9518 C   0  0  0  0  0  0  0  0  0  0  0  0
    9.5579   -1.3243   -2.0972 C   0  0  0  0  0  0  0  0  0  0  0  0
    8.2727   -1.3594   -1.5535 C   0  0  0  0  0  0  0  0  0  0  0  0
    5.3069   -0.0958    1.6118 H   0  0  0  0  0  0  0  0  0  0  0  0
    7.0310   -0.4455    1.7786 H   0  0  0  0  0  0  0  0  0  0  0  0
    6.4947    1.1752    1.3069 H   0  0  0  0  0  0  0  0  0  0  0  0
    6.0223   -1.3727   -0.3113 H   0  0  0  0  0  0  0  0  0  0  0  0
    5.4740    0.2024   -2.2140 H   0  0  0  0  0  0  0  0  0  0  0  0
    5.6308    1.5744   -1.1107 H   0  0  0  0  0  0  0  0  0  0  0  0
    3.6358    1.0120   -0.0772 H   0  0  0  0  0  0  0  0  0  0  0  0
    1.8901   -2.9689   -0.4665 H   0  0  0  0  0  0  0  0  0  0  0  0
   -0.4121   -3.1290    0.4200 H   0  0  0  0  0  0  0  0  0  0  0  0
   -2.1159    0.6103    1.8927 H   0  0  0  0  0  0  0  0  0  0  0  0
   -3.0967    0.3921   -0.6663 H   0  0  0  0  0  0  0  0  0  0  0  0
   -3.6663    1.5922    0.4929 H   0  0  0  0  0  0  0  0  0  0  0  0
   -5.5204    0.3555   -0.6368 H   0  0  0  0  0  0  0  0  0  0  0  0
   -4.9187   -1.1459    0.0098 H   0  0  0  0  0  0  0  0  0  0  0  0
   -6.1548    2.1501    1.2332 H   0  0  0  0  0  0  0  0  0  0  0  0
   -7.1747    1.3414    2.4205 H   0  0  0  0  0  0  0  0  0  0  0  0
   -8.5128   -0.8223    1.2141 H   0  0  0  0  0  0  0  0  0  0  0  0
  -10.3731   -1.0025   -0.4328 H   0  0  0  0  0  0  0  0  0  0  0  0
  -10.6917    0.8257   -2.1075 H   0  0  0  0  0  0  0  0  0  0  0  0
   -9.1242    2.7672   -2.0553 H   0  0  0  0  0  0  0  0  0  0  0  0
   -4.6402    1.1677    2.9071 H   0  0  0  0  0  0  0  0  0  0  0  0
   -5.5160   -0.2322    3.5314 H   0  0  0  0  0  0  0  0  0  0  0  0
   -3.9342   -1.7525    2.3249 H   0  0  0  0  0  0  0  0  0  0  0  0
   -3.1167   -0.7237    3.4774 H   0  0  0  0  0  0  0  0  0  0  0  0
   -0.7634    1.1641    0.2571 H   0  0  0  0  0  0  0  0  0  0  0  0
    1.4994    1.3250   -0.6218 H   0  0  0  0  0  0  0  0  0  0  0  0
    8.1952    1.7673   -0.2006 H   0  0  0  0  0  0  0  0  0  0  0  0
   10.4603    1.8110   -1.1571 H   0  0  0  0  0  0  0  0  0  0  0  0
   11.3461   -0.1582   -2.3756 H   0  0  0  0  0  0  0  0  0  0  0  0
    9.9410   -2.1864   -2.6368 H   0  0  0  0  0  0  0  0  0  0  0  0
    7.6688   -2.2557   -1.6859 H   0  0  0  0  0  0  0  0  0  0  0  0
  1  2  1  0
  2  3  1  0
  3  4  1  0
  4  5  1  0
  5  6  2  0
  5  7  1  0
  7  8  2  0
  8  9  1  0
  9 10  2  0
 10 11  1  0
 11 12  1  0
 12 13  1  0
 13 14  1  0
 14 15  1  0
 15 16  1  0
 16 17  1  0
 17 18  2  0
 18 19  1  0
 19 20  2  0
 20 21  1  0
 21 22  2  0
 15 23  1  0
 23 24  1  0
 10 25  1  0
 25 26  2  0
  2 27  1  0
 27 28  2  0
 28 29  1  0
 29 30  2  0
 30 31  1  0
 31 32  2  0
 26  7  1  0
 32 27  1  0
 24 12  1  0
 22 17  1  0
  1 33  1  0
  1 34  1  0
  1 35  1  0
  2 36  1  0
  3 37  1  0
  3 38  1  0
  4 39  1  0
  8 40  1  0
  9 41  1  0
 12 42  1  0
 13 43  1  0
 13 44  1  0
 14 45  1  0
 14 46  1  0
 16 47  1  0
 16 48  1  0
 18 49  1  0
 19 50  1  0
 20 51  1  0
 21 52  1  0
 23 53  1  0
 23 54  1  0
 24 55  1  0
 24 56  1  0
 25 57  1  0
 26 58  1  0
 28 59  1  0
 29 60  1  0
 30 61  1  0
 31 62  1  0
 32 63  1  0
M  END
$$$$
