
     RDKit          3D

 53 56  0  0  0  0  0  0  0  0999 V2000
   -2.9249    5.3536    0.7531 C   0  0  0  0  0  0  0  0  0  0  0  0
   -2.6190    4.9751   -0.5834 O   0  0  0  0  0  0  0  0  0  0  0  0
   -2.0355    3.7506   -0.7573 C   0  0  0  0  0  0  0  0  0  0  0  0
   -1.7672    2.8190    0.2435 C   0  0  0  0  0  0  0  0  0  0  0  0
   -1.1639    1.5967   -0.0749 C   0  0  0  0  0  0  0  0  0  0  0  0
   -0.8103    1.2858   -1.3969 C   0  0  0  0  0  0  0  0  0  0  0  0
   -0.1763   -0.0431   -1.7826 C   0  0  0  0  0  0  0  0  0  0  0  0
   -1.2474   -1.1110   -2.0168 C   0  0  0  0  0  0  0  0  0  0  0  0
   -1.0706   -1.9336   -0.7688 C   0  0  0  0  0  0  0  0  0  0  0  0
   -2.0498   -2.9701   -0.3732 C   0  0  0  0  0  0  0  0  0  0  0  0
   -2.7476   -3.6435   -1.3900 C   0  0  0  0  0  0  0  0  0  0  0  0
   -3.6585   -4.6530   -1.0784 C   0  0  0  0  0  0  0  0  0  0  0  0
   -3.8797   -5.0014    0.2484 C   0  0  0  0  0  0  0  0  0  0  0  0
   -3.1959   -4.3343    1.2649 C   0  0  0  0  0  0  0  0  0  0  0  0
   -2.2778   -3.3026    0.9758 C   0  0  0  0  0  0  0  0  0  0  0  0
   -1.6040   -2.5878    2.1259 C   0  0  0  0  0  0  0  0  0  0  0  0
   -1.6584   -1.2307    2.0323 F   0  0  0  0  0  0  0  0  0  0  0  0
   -2.2069   -2.8680    3.3244 F   0  0  0  0  0  0  0  0  0  0  0  0
   -0.3032   -2.9392    2.3057 F   0  0  0  0  0  0  0  0  0  0  0  0
    0.0118   -1.6881   -0.1016 N   0  0  0  0  0  0  0  0  0  0  0  0
    0.6383   -0.6461   -0.7243 N   0  0  0  0  0  0  0  0  0  0  0  0
    1.8753   -0.1873   -0.2760 C   0  0  0  0  0  0  0  0  0  0  0  0
    2.5206   -0.8095    0.8099 C   0  0  0  0  0  0  0  0  0  0  0  0
    3.7630   -0.3746    1.2840 C   0  0  0  0  0  0  0  0  0  0  0  0
    4.3932    0.6997    0.6617 C   0  0  0  0  0  0  0  0  0  0  0  0
    5.9474    1.2756    1.2711 S   0  0  0  0  0  6  0  0  0  0  0  0
    7.0303    0.2832    0.4568 N   0  0  0  0  0  0  0  0  0  0  0  0
    6.1930    2.6105    0.7759 O   0  0  0  0  0  0  0  0  0  0  0  0
    6.0717    0.9348    2.6691 O   0  0  0  0  0  0  0  0  0  0  0  0
    3.7812    1.3484   -0.4093 C   0  0  0  0  0  0  0  0  0  0  0  0
    2.5368    0.9003   -0.8712 C   0  0  0  0  0  0  0  0  0  0  0  0
   -1.0931    2.2279   -2.3975 C   0  0  0  0  0  0  0  0  0  0  0  0
   -1.6979    3.4463   -2.0769 C   0  0  0  0  0  0  0  0  0  0  0  0
   -3.6721    4.6836    1.1911 H   0  0  0  0  0  0  0  0  0  0  0  0
   -2.0207    5.3960    1.3695 H   0  0  0  0  0  0  0  0  0  0  0  0
   -3.3558    6.3591    0.7251 H   0  0  0  0  0  0  0  0  0  0  0  0
   -2.0107    3.0062    1.2840 H   0  0  0  0  0  0  0  0  0  0  0  0
   -0.9619    0.8895    0.7294 H   0  0  0  0  0  0  0  0  0  0  0  0
    0.4187    0.0827   -2.6961 H   0  0  0  0  0  0  0  0  0  0  0  0
   -2.2661   -0.7277   -2.1187 H   0  0  0  0  0  0  0  0  0  0  0  0
   -0.9884   -1.7280   -2.8839 H   0  0  0  0  0  0  0  0  0  0  0  0
   -2.5792   -3.4123   -2.4387 H   0  0  0  0  0  0  0  0  0  0  0  0
   -4.1881   -5.1741   -1.8727 H   0  0  0  0  0  0  0  0  0  0  0  0
   -4.5851   -5.7919    0.4949 H   0  0  0  0  0  0  0  0  0  0  0  0
   -3.3899   -4.6200    2.2991 H   0  0  0  0  0  0  0  0  0  0  0  0
    2.0414   -1.6516    1.3074 H   0  0  0  0  0  0  0  0  0  0  0  0
    4.2189   -0.8783    2.1326 H   0  0  0  0  0  0  0  0  0  0  0  0
    7.5409   -0.2919    1.1269 H   0  0  0  0  0  0  0  0  0  0  0  0
    7.6279    0.8476   -0.1469 H   0  0  0  0  0  0  0  0  0  0  0  0
    4.2555    2.2012   -0.8893 H   0  0  0  0  0  0  0  0  0  0  0  0
    2.0907    1.4327   -1.7061 H   0  0  0  0  0  0  0  0  0  0  0  0
   -0.8442    2.0253   -3.4368 H   0  0  0  0  0  0  0  0  0  0  0  0
   -1.9065    4.1682   -2.8630 H   0  0  0  0  0  0  0  0  0  0  0  0
  1  2  1  0
  2  3  1  0
  3  4  2  0
  4  5  1  0
  5  6  2  0
  6  7  1  0
  7  8  1  0
  8  9  1  0
  9 10  1  0
 10 11  2  0
 11 12  1  0
 12 13  2  0
 13 14  1  0
 14 15  2  0
 15 16  1  0
 16 17  1  0
 16 18  1  0
 16 19  1  0
  9 20  2  0
 20 21  1  0
 21 22  1  0
 22 23  2  0
 23 24  1  0
 24 25  2  0
 25 26  1  0
 26 27  1  0
 26 28  2  0
 26 29  2  0
 25 30  1  0
 30 31  2  0
  6 32  1  0
 32 33  2  0
 33  3  1  0
 21  7  1  0
 31 22  1  0
 15 10  1  0
  1 34  1  0
  1 35  1  0
  1 36  1  0
  4 37  1  0
  5 38  1  0
  7 39  1  0
  8 40  1  0
  8 41  1  0
 11 42  1  0
 12 43  1  0
 13 44  1  0
 14 45  1  0
 23 46  1  0
 24 47  1  0
 27 48  1  0
 27 49  1  0
 30 50  1  0
 31 51  1  0
 32 52  1  0
 33 53  1  0
M  END
$$$$
