
     RDKit          3D

 47 48  0  0  0  0  0  0  0  0999 V2000
    6.8109   -1.3090    2.2326 C   0  0  0  0  0  0  0  0  0  0  0  0
    5.4549   -1.7364    1.7024 C   0  0  0  0  0  0  0  0  0  0  0  0
    4.8901   -0.6351    0.9819 O   0  0  0  0  0  0  0  0  0  0  0  0
    3.6899   -0.8984    0.3901 C   0  0  0  0  0  0  0  0  0  0  0  0
    3.1158   -1.9774    0.4754 O   0  0  0  0  0  0  0  0  0  0  0  0
    3.1454    0.2334   -0.3655 C   0  0  0  0  0  0  0  0  0  0  0  0
    3.7742    1.4576   -0.5939 C   0  0  0  0  0  0  0  0  0  0  0  0
    5.0891    1.9966   -0.1464 C   0  0  0  0  0  0  0  0  0  0  0  0
    2.9600    2.2120   -1.3997 N   0  0  0  0  0  0  0  0  0  0  0  0
    1.8176    1.5234   -1.6942 C   0  0  0  0  0  0  0  0  0  0  0  0
    0.7489    2.1315   -2.5346 C   0  0  0  0  0  0  0  0  0  0  0  0
    1.8748    0.2915   -1.0522 C   0  0  0  0  0  0  0  0  0  0  0  0
    0.7886   -0.6990   -1.1247 C   0  0  0  0  0  0  0  0  0  0  0  0
    0.1950   -0.9042   -2.1883 O   0  0  0  0  0  0  0  0  0  0  0  0
    0.3404   -1.4144    0.1526 C   0  0  0  0  0  0  0  0  0  0  0  0
   -1.0792   -1.6053    0.2083 O   0  0  0  0  0  0  0  0  0  0  0  0
   -1.7854   -0.4562    0.3320 C   0  0  0  0  0  0  0  0  0  0  0  0
   -1.3248    0.6616    0.4933 O   0  0  0  0  0  0  0  0  0  0  0  0
   -3.2211   -0.7900    0.2488 C   0  0  0  0  0  0  0  0  0  0  0  0
   -4.1423    0.1829    0.3262 C   0  0  0  0  0  0  0  0  0  0  0  0
   -5.5906   -0.0455    0.2324 C   0  0  0  0  0  0  0  0  0  0  0  0
   -6.3896    0.9391   -0.3668 C   0  0  0  0  0  0  0  0  0  0  0  0
   -7.7758    0.7772   -0.4540 C   0  0  0  0  0  0  0  0  0  0  0  0
   -8.3725   -0.3681    0.0681 C   0  0  0  0  0  0  0  0  0  0  0  0
  -10.0776   -0.5678   -0.0347 Cl  0  0  0  0  0  0  0  0  0  0  0  0
   -7.5956   -1.3496    0.6793 C   0  0  0  0  0  0  0  0  0  0  0  0
   -6.2095   -1.1856    0.7662 C   0  0  0  0  0  0  0  0  0  0  0  0
    7.4676   -1.0029    1.4112 H   0  0  0  0  0  0  0  0  0  0  0  0
    6.7120   -0.4458    2.8994 H   0  0  0  0  0  0  0  0  0  0  0  0
    7.2893   -2.1256    2.7813 H   0  0  0  0  0  0  0  0  0  0  0  0
    5.5759   -2.5968    1.0332 H   0  0  0  0  0  0  0  0  0  0  0  0
    4.7992   -2.0060    2.5376 H   0  0  0  0  0  0  0  0  0  0  0  0
    5.1501    2.0081    0.9465 H   0  0  0  0  0  0  0  0  0  0  0  0
    5.2425    3.0224   -0.4973 H   0  0  0  0  0  0  0  0  0  0  0  0
    5.9059    1.3858   -0.5409 H   0  0  0  0  0  0  0  0  0  0  0  0
    3.1716    3.1461   -1.7276 H   0  0  0  0  0  0  0  0  0  0  0  0
   -0.1187    2.3836   -1.9096 H   0  0  0  0  0  0  0  0  0  0  0  0
    0.4263    1.4405   -3.3235 H   0  0  0  0  0  0  0  0  0  0  0  0
    1.0985    3.0515   -3.0234 H   0  0  0  0  0  0  0  0  0  0  0  0
    0.7789   -2.4161    0.1454 H   0  0  0  0  0  0  0  0  0  0  0  0
    0.6772   -0.8887    1.0526 H   0  0  0  0  0  0  0  0  0  0  0  0
   -3.4727   -1.8338    0.1031 H   0  0  0  0  0  0  0  0  0  0  0  0
   -3.8308    1.2202    0.4403 H   0  0  0  0  0  0  0  0  0  0  0  0
   -5.9390    1.8400   -0.7802 H   0  0  0  0  0  0  0  0  0  0  0  0
   -8.3797    1.5481   -0.9272 H   0  0  0  0  0  0  0  0  0  0  0  0
   -8.0597   -2.2402    1.0957 H   0  0  0  0  0  0  0  0  0  0  0  0
   -5.6260   -1.9551    1.2662 H   0  0  0  0  0  0  0  0  0  0  0  0
  1  2  1  0
  2  3  1  0
  3  4  1  0
  4  5  2  0
  4  6  1  0
  6  7  2  0
  7  8  1  0
  7  9  1  0
  9 10  1  0
 10 11  1  0
 10 12  2  0
 12 13  1  0
 13 14  2  0
 13 15  1  0
 15 16  1  0
 16 17  1  0
 17 18  2  0
 17 19  1  0
 19 20  2  3
 20 21  1  0
 21 22  2  0
 22 23  1  0
 23 24  2  0
 24 25  1  0
 24 26  1  0
 26 27  2  0
 12  6  1  0
 27 21  1  0
  1 28  1  0
  1 29  1  0
  1 30  1  0
  2 31  1  0
  2 32  1  0
  8 33  1  0
  8 34  1  0
  8 35  1  0
  9 36  1  0
 11 37  1  0
 11 38  1  0
 11 39  1  0
 15 40  1  0
 15 41  1  0
 19 42  1  0
 20 43  1  0
 22 44  1  0
 23 45  1  0
 26 46  1  0
 27 47  1  0
M  END
$$$$
