
     RDKit          3D

 43 45  0  0  0  0  0  0  0  0999 V2000
    3.2045   -0.1252    3.8481 C   0  0  0  0  0  0  0  0  0  0  0  0
    3.9283    0.2590    2.6877 O   0  0  0  0  0  0  0  0  0  0  0  0
    3.3003    0.1629    1.4712 C   0  0  0  0  0  0  0  0  0  0  0  0
    1.9724   -0.2543    1.2984 C   0  0  0  0  0  0  0  0  0  0  0  0
    1.3909   -0.3270    0.0183 C   0  0  0  0  0  0  0  0  0  0  0  0
   -0.0013   -0.8193   -0.0798 C   0  0  0  0  0  0  0  0  0  0  0  0
   -0.2212   -2.1589   -0.5314 C   0  0  0  0  0  0  0  0  0  0  0  0
   -0.3514   -3.2571   -0.8814 N   0  0  0  0  0  0  0  0  0  0  0  0
   -1.0019    0.0036    0.2916 C   0  0  0  0  0  0  0  0  0  0  0  0
   -2.4326   -0.3532    0.2899 C   0  0  0  0  0  0  0  0  0  0  0  0
   -2.8957   -1.1986    1.3104 C   0  0  0  0  0  0  0  0  0  0  0  0
   -4.2365   -1.5636    1.3694 C   0  0  0  0  0  0  0  0  0  0  0  0
   -5.1285   -1.0839    0.4137 C   0  0  0  0  0  0  0  0  0  0  0  0
   -4.6959   -0.2337   -0.6152 C   0  0  0  0  0  0  0  0  0  0  0  0
   -5.6105    0.2400   -1.5705 C   0  0  0  0  0  0  0  0  0  0  0  0
   -5.1997    1.0821   -2.6026 C   0  0  0  0  0  0  0  0  0  0  0  0
   -3.8673    1.4615   -2.6933 C   0  0  0  0  0  0  0  0  0  0  0  0
   -2.9459    1.0004   -1.7506 C   0  0  0  0  0  0  0  0  0  0  0  0
   -3.3318    0.1456   -0.6914 C   0  0  0  0  0  0  0  0  0  0  0  0
    2.1857    0.0387   -1.0799 C   0  0  0  0  0  0  0  0  0  0  0  0
    1.6477    0.0353   -2.4324 N   0  0  0  0  0  4  0  0  0  0  0  0
    2.3182   -0.5332   -3.3032 O   0  0  0  0  0  0  0  0  0  0  0  0
    0.5812    0.6335   -2.6204 O   0  0  0  0  0  1  0  0  0  0  0  0
    3.5185    0.4518   -0.9275 C   0  0  0  0  0  0  0  0  0  0  0  0
    4.0796    0.5129    0.3485 C   0  0  0  0  0  0  0  0  0  0  0  0
    5.3667    0.9097    0.6092 O   0  0  0  0  0  0  0  0  0  0  0  0
    6.2279    1.1473   -0.4963 C   0  0  0  0  0  0  0  0  0  0  0  0
    2.9150   -1.1802    3.8018 H   0  0  0  0  0  0  0  0  0  0  0  0
    2.3324    0.5191    3.9995 H   0  0  0  0  0  0  0  0  0  0  0  0
    3.8648    0.0008    4.7115 H   0  0  0  0  0  0  0  0  0  0  0  0
    1.3699   -0.5392    2.1574 H   0  0  0  0  0  0  0  0  0  0  0  0
   -0.8026    1.0235    0.6161 H   0  0  0  0  0  0  0  0  0  0  0  0
   -2.2153   -1.5815    2.0676 H   0  0  0  0  0  0  0  0  0  0  0  0
   -4.5884   -2.2239    2.1579 H   0  0  0  0  0  0  0  0  0  0  0  0
   -6.1728   -1.3835    0.4765 H   0  0  0  0  0  0  0  0  0  0  0  0
   -6.6583   -0.0489   -1.5195 H   0  0  0  0  0  0  0  0  0  0  0  0
   -5.9191    1.4360   -3.3360 H   0  0  0  0  0  0  0  0  0  0  0  0
   -3.5375    2.1118   -3.4995 H   0  0  0  0  0  0  0  0  0  0  0  0
   -1.9107    1.3149   -1.8614 H   0  0  0  0  0  0  0  0  0  0  0  0
    4.0899    0.7269   -1.8094 H   0  0  0  0  0  0  0  0  0  0  0  0
    6.3244    0.2545   -1.1230 H   0  0  0  0  0  0  0  0  0  0  0  0
    5.8863    2.0072   -1.0815 H   0  0  0  0  0  0  0  0  0  0  0  0
    7.2202    1.3863   -0.1020 H   0  0  0  0  0  0  0  0  0  0  0  0
  1  2  1  0
  2  3  1  0
  3  4  2  0
  4  5  1  0
  5  6  1  0
  6  7  1  0
  7  8  3  0
  6  9  2  3
  9 10  1  0
 10 11  2  0
 11 12  1  0
 12 13  2  0
 13 14  1  0
 14 15  2  0
 15 16  1  0
 16 17  2  0
 17 18  1  0
 18 19  2  0
  5 20  2  0
 20 21  1  0
 21 22  2  0
 21 23  1  0
 20 24  1  0
 24 25  2  0
 25 26  1  0
 26 27  1  0
 25  3  1  0
 19 10  1  0
 19 14  1  0
  1 28  1  0
  1 29  1  0
  1 30  1  0
  4 31  1  0
  9 32  1  0
 11 33  1  0
 12 34  1  0
 13 35  1  0
 15 36  1  0
 16 37  1  0
 17 38  1  0
 18 39  1  0
 24 40  1  0
 27 41  1  0
 27 42  1  0
 27 43  1  0
M  CHG  2  21   1  23  -1
M  END
$$$$
