
     RDKit          3D

 36 37  0  0  0  0  0  0  0  0999 V2000
    5.0138   -0.7107   -2.2648 C   0  0  0  0  0  0  0  0  0  0  0  0
    3.7758   -0.4619   -1.5490 N   0  0  0  0  0  0  0  0  0  0  0  0
    3.6131   -0.5350   -0.1748 C   0  0  0  0  0  0  0  0  0  0  0  0
    4.8537   -0.9617    0.8744 S   0  0  0  0  0  0  0  0  0  0  0  0
    2.2978   -0.2119    0.2204 N   0  0  0  0  0  0  0  0  0  0  0  0
    1.9715    0.0166    1.6353 C   0  0  0  0  0  0  0  0  0  0  0  0
    0.7973    0.9812    1.7870 C   0  0  0  0  0  0  0  0  0  0  0  0
   -0.3828    0.5645    0.9513 C   0  0  0  0  0  0  0  0  0  0  0  0
   -1.6689    1.0249    1.2730 C   0  0  0  0  0  0  0  0  0  0  0  0
   -2.7732    0.6689    0.4915 C   0  0  0  0  0  0  0  0  0  0  0  0
   -4.0627    1.0704    0.7402 O   0  0  0  0  0  0  0  0  0  0  0  0
   -4.2904    1.8969    1.8720 C   0  0  0  0  0  0  0  0  0  0  0  0
   -2.5885   -0.1551   -0.6347 C   0  0  0  0  0  0  0  0  0  0  0  0
   -3.7204   -0.4634   -1.3485 O   0  0  0  0  0  0  0  0  0  0  0  0
   -3.5830   -1.3236   -2.4695 C   0  0  0  0  0  0  0  0  0  0  0  0
   -1.3017   -0.5993   -0.9612 C   0  0  0  0  0  0  0  0  0  0  0  0
   -0.1899   -0.2367   -0.1814 C   0  0  0  0  0  0  0  0  0  0  0  0
    1.1789   -0.7488   -0.5712 C   0  0  0  0  0  0  0  0  0  0  0  0
    4.7971   -0.6915   -3.3357 H   0  0  0  0  0  0  0  0  0  0  0  0
    5.7344    0.0751   -2.0227 H   0  0  0  0  0  0  0  0  0  0  0  0
    5.4177   -1.6892   -1.9927 H   0  0  0  0  0  0  0  0  0  0  0  0
    3.1763    0.2282   -1.9811 H   0  0  0  0  0  0  0  0  0  0  0  0
    1.7447   -0.9571    2.0883 H   0  0  0  0  0  0  0  0  0  0  0  0
    2.8282    0.4437    2.1656 H   0  0  0  0  0  0  0  0  0  0  0  0
    0.5152    1.0336    2.8450 H   0  0  0  0  0  0  0  0  0  0  0  0
    1.1014    1.9858    1.4678 H   0  0  0  0  0  0  0  0  0  0  0  0
   -1.7812    1.6632    2.1435 H   0  0  0  0  0  0  0  0  0  0  0  0
   -3.7633    2.8519    1.7764 H   0  0  0  0  0  0  0  0  0  0  0  0
   -4.0157    1.3829    2.7990 H   0  0  0  0  0  0  0  0  0  0  0  0
   -5.3622    2.1132    1.9181 H   0  0  0  0  0  0  0  0  0  0  0  0
   -4.5778   -1.4744   -2.8996 H   0  0  0  0  0  0  0  0  0  0  0  0
   -3.1983   -2.3045   -2.1712 H   0  0  0  0  0  0  0  0  0  0  0  0
   -2.9535   -0.8685   -3.2412 H   0  0  0  0  0  0  0  0  0  0  0  0
   -1.1342   -1.2326   -1.8269 H   0  0  0  0  0  0  0  0  0  0  0  0
    1.3344   -0.5362   -1.6331 H   0  0  0  0  0  0  0  0  0  0  0  0
    1.1963   -1.8389   -0.4433 H   0  0  0  0  0  0  0  0  0  0  0  0
  1  2  1  0
  2  3  1  0
  3  4  2  0
  3  5  1  0
  5  6  1  0
  6  7  1  0
  7  8  1  0
  8  9  2  0
  9 10  1  0
 10 11  1  0
 11 12  1  0
 10 13  2  0
 13 14  1  0
 14 15  1  0
 13 16  1  0
 16 17  2  0
 17 18  1  0
 18  5  1  0
 17  8  1  0
  1 19  1  0
  1 20  1  0
  1 21  1  0
  2 22  1  0
  6 23  1  0
  6 24  1  0
  7 25  1  0
  7 26  1  0
  9 27  1  0
 12 28  1  0
 12 29  1  0
 12 30  1  0
 15 31  1  0
 15 32  1  0
 15 33  1  0
 16 34  1  0
 18 35  1  0
 18 36  1  0
M  END
$$$$
