
     RDKit          3D

 56 61  0  0  0  0  0  0  0  0999 V2000
    3.4382   -2.3415   -3.8493 C   0  0  0  0  0  0  0  0  0  0  0  0
    2.5614   -1.5345   -3.0738 O   0  0  0  0  0  0  0  0  0  0  0  0
    2.8159   -1.4535   -1.7328 C   0  0  0  0  0  0  0  0  0  0  0  0
    3.8787   -2.0552   -1.0618 C   0  0  0  0  0  0  0  0  0  0  0  0
    4.0203   -1.8893    0.3174 C   0  0  0  0  0  0  0  0  0  0  0  0
    3.1021   -1.1200    1.0327 C   0  0  0  0  0  0  0  0  0  0  0  0
    2.0232   -0.5006    0.3792 C   0  0  0  0  0  0  0  0  0  0  0  0
    1.0240    0.3386    1.1747 C   0  0  0  0  0  0  0  0  0  0  0  0
   -0.1941   -0.5125    1.2630 C   0  0  0  0  0  0  0  0  0  0  0  0
   -0.5132   -1.7173    1.9118 C   0  0  0  0  0  0  0  0  0  0  0  0
    0.3525   -2.5810    2.7505 C   0  0  0  0  0  0  0  0  0  0  0  0
   -1.7849   -2.0657    1.6940 N   0  0  0  0  0  0  0  0  0  0  0  0
   -2.3053   -1.0854    0.8901 N   0  0  0  0  0  0  0  0  0  0  0  0
   -3.6638   -1.1807    0.4519 C   0  0  0  0  0  0  0  0  0  0  0  0
   -4.2467   -0.2167   -0.3832 C   0  0  0  0  0  0  0  0  0  0  0  0
   -5.5803   -0.3438   -0.7933 C   0  0  0  0  0  0  0  0  0  0  0  0
   -6.3376   -1.4411   -0.3684 C   0  0  0  0  0  0  0  0  0  0  0  0
   -7.7350   -1.5743   -0.7977 N   0  0  0  0  0  4  0  0  0  0  0  0
   -8.3698   -2.5615   -0.3985 O   0  0  0  0  0  0  0  0  0  0  0  0
   -8.2006   -0.6924   -1.5337 O   0  0  0  0  0  1  0  0  0  0  0  0
   -5.7710   -2.4127    0.4629 C   0  0  0  0  0  0  0  0  0  0  0  0
   -4.4389   -2.2798    0.8688 C   0  0  0  0  0  0  0  0  0  0  0  0
   -1.3508   -0.1036    0.6408 C   0  0  0  0  0  0  0  0  0  0  0  0
   -1.5142    1.0414   -0.0676 N   0  0  0  0  0  0  0  0  0  0  0  0
   -0.4827    1.8491   -0.0859 C   0  0  0  0  0  0  0  0  0  0  0  0
   -0.7147    3.1544   -0.8850 C   0  0  0  0  0  0  0  0  0  0  0  0
   -1.7443    3.3590   -1.5131 O   0  0  0  0  0  0  0  0  0  0  0  0
    0.3015    4.0708   -0.8404 N   0  0  0  0  0  0  0  0  0  0  0  0
    1.4966    3.8763   -0.1432 C   0  0  0  0  0  0  0  0  0  0  0  0
    2.4337    4.9165   -0.1645 C   0  0  0  0  0  0  0  0  0  0  0  0
    3.6379    4.7813    0.5166 C   0  0  0  0  0  0  0  0  0  0  0  0
    3.8999    3.6104    1.2164 C   0  0  0  0  0  0  0  0  0  0  0  0
    2.9606    2.5714    1.2331 C   0  0  0  0  0  0  0  0  0  0  0  0
    1.7367    2.6697    0.5495 C   0  0  0  0  0  0  0  0  0  0  0  0
    0.7658    1.6475    0.5341 N   0  0  0  0  0  0  0  0  0  0  0  0
    1.8982   -0.6831   -1.0117 C   0  0  0  0  0  0  0  0  0  0  0  0
    4.4581   -1.9433   -3.8328 H   0  0  0  0  0  0  0  0  0  0  0  0
    3.0876   -2.3156   -4.8856 H   0  0  0  0  0  0  0  0  0  0  0  0
    3.4148   -3.3842   -3.5157 H   0  0  0  0  0  0  0  0  0  0  0  0
    4.6138   -2.6600   -1.5821 H   0  0  0  0  0  0  0  0  0  0  0  0
    4.8512   -2.3639    0.8343 H   0  0  0  0  0  0  0  0  0  0  0  0
    3.2376   -1.0102    2.1066 H   0  0  0  0  0  0  0  0  0  0  0  0
    1.3807    0.5012    2.2002 H   0  0  0  0  0  0  0  0  0  0  0  0
    0.9532   -3.2433    2.1194 H   0  0  0  0  0  0  0  0  0  0  0  0
   -0.2420   -3.2027    3.4281 H   0  0  0  0  0  0  0  0  0  0  0  0
    1.0284   -1.9766    3.3635 H   0  0  0  0  0  0  0  0  0  0  0  0
   -3.6970    0.6493   -0.7417 H   0  0  0  0  0  0  0  0  0  0  0  0
   -6.0042    0.4209   -1.4419 H   0  0  0  0  0  0  0  0  0  0  0  0
   -6.3431   -3.2735    0.8028 H   0  0  0  0  0  0  0  0  0  0  0  0
   -4.0158   -3.0478    1.5156 H   0  0  0  0  0  0  0  0  0  0  0  0
    0.1359    4.9262   -1.3523 H   0  0  0  0  0  0  0  0  0  0  0  0
    2.2339    5.8364   -0.7077 H   0  0  0  0  0  0  0  0  0  0  0  0
    4.3684    5.5861    0.5024 H   0  0  0  0  0  0  0  0  0  0  0  0
    4.8398    3.4988    1.7526 H   0  0  0  0  0  0  0  0  0  0  0  0
    3.2293    1.6885    1.8024 H   0  0  0  0  0  0  0  0  0  0  0  0
    1.0703   -0.2261   -1.5520 H   0  0  0  0  0  0  0  0  0  0  0  0
  1  2  1  0
  2  3  1  0
  3  4  2  0
  4  5  1  0
  5  6  2  0
  6  7  1  0
  7  8  1  0
  8  9  1  0
  9 10  1  0
 10 11  1  0
 10 12  2  0
 12 13  1  0
 13 14  1  0
 14 15  2  0
 15 16  1  0
 16 17  2  0
 17 18  1  0
 18 19  2  0
 18 20  1  0
 17 21  1  0
 21 22  2  0
 13 23  1  0
 23 24  1  0
 24 25  2  0
 25 26  1  0
 26 27  2  0
 26 28  1  0
 28 29  1  0
 29 30  2  0
 30 31  1  0
 31 32  2  0
 32 33  1  0
 33 34  2  0
 34 35  1  0
  7 36  2  0
 36  3  1  0
 35  8  1  0
 23  9  2  0
 35 25  1  0
 22 14  1  0
 34 29  1  0
  1 37  1  0
  1 38  1  0
  1 39  1  0
  4 40  1  0
  5 41  1  0
  6 42  1  0
  8 43  1  0
 11 44  1  0
 11 45  1  0
 11 46  1  0
 15 47  1  0
 16 48  1  0
 21 49  1  0
 22 50  1  0
 28 51  1  0
 30 52  1  0
 31 53  1  0
 32 54  1  0
 33 55  1  0
 36 56  1  0
M  CHG  2  18   1  20  -1
M  END
$$$$
