
     RDKit          3D

 45 46  0  0  0  0  0  0  0  0999 V2000
    5.4119   -0.7598   -3.1582 C   0  0  0  0  0  0  0  0  0  0  0  0
    4.0884   -0.8025   -2.6415 O   0  0  0  0  0  0  0  0  0  0  0  0
    3.8877   -0.3268   -1.3717 C   0  0  0  0  0  0  0  0  0  0  0  0
    4.8566    0.3521   -0.6254 C   0  0  0  0  0  0  0  0  0  0  0  0
    4.5834    0.7701    0.6789 C   0  0  0  0  0  0  0  0  0  0  0  0
    3.3404    0.5118    1.2542 C   0  0  0  0  0  0  0  0  0  0  0  0
    2.3454   -0.1498    0.5240 C   0  0  0  0  0  0  0  0  0  0  0  0
    1.0484   -0.4517    1.1466 C   0  0  0  0  0  0  0  0  0  0  0  0
    0.3044    0.4693    1.7753 C   0  0  0  0  0  0  0  0  0  0  0  0
   -0.9818    0.0911    2.4008 C   0  0  0  0  0  0  0  0  0  0  0  0
   -1.0654    0.1168    3.6257 O   0  0  0  0  0  0  0  0  0  0  0  0
   -2.0331   -0.2174    1.5593 N   0  0  0  0  0  0  0  0  0  0  0  0
   -3.3433   -0.5147    2.1359 C   0  0  0  0  0  0  0  0  0  0  0  0
   -4.4653    0.2885    1.4476 C   0  0  0  0  0  0  0  0  0  0  0  0
   -4.4340    1.7604    1.8499 C   0  0  0  0  0  0  0  0  0  0  0  0
   -4.4463    0.2341    0.0080 O   0  0  0  0  0  0  0  0  0  0  0  0
   -3.3416   -0.4970   -0.5426 C   0  0  0  0  0  0  0  0  0  0  0  0
   -3.3275   -0.2499   -2.0448 C   0  0  0  0  0  0  0  0  0  0  0  0
   -2.0109   -0.0685    0.0990 C   0  0  0  0  0  0  0  0  0  0  0  0
    2.6198   -0.5528   -0.7984 C   0  0  0  0  0  0  0  0  0  0  0  0
    1.6178   -1.2223   -1.4695 O   0  0  0  0  0  0  0  0  0  0  0  0
    1.2314   -0.5593   -2.6726 C   0  0  0  0  0  0  0  0  0  0  0  0
    5.4059   -1.2579   -4.1325 H   0  0  0  0  0  0  0  0  0  0  0  0
    5.7376    0.2734   -3.3160 H   0  0  0  0  0  0  0  0  0  0  0  0
    6.1100   -1.3022   -2.5118 H   0  0  0  0  0  0  0  0  0  0  0  0
    5.8417    0.5663   -1.0266 H   0  0  0  0  0  0  0  0  0  0  0  0
    5.3485    1.2860    1.2546 H   0  0  0  0  0  0  0  0  0  0  0  0
    3.1608    0.8187    2.2826 H   0  0  0  0  0  0  0  0  0  0  0  0
    0.7027   -1.4780    1.0432 H   0  0  0  0  0  0  0  0  0  0  0  0
    0.6168    1.4946    1.9249 H   0  0  0  0  0  0  0  0  0  0  0  0
   -3.3569   -0.3487    3.2180 H   0  0  0  0  0  0  0  0  0  0  0  0
   -3.5085   -1.5870    1.9742 H   0  0  0  0  0  0  0  0  0  0  0  0
   -5.4297   -0.1258    1.7636 H   0  0  0  0  0  0  0  0  0  0  0  0
   -3.5197    2.2504    1.4986 H   0  0  0  0  0  0  0  0  0  0  0  0
   -5.2711    2.2975    1.3906 H   0  0  0  0  0  0  0  0  0  0  0  0
   -4.5000    1.8778    2.9358 H   0  0  0  0  0  0  0  0  0  0  0  0
   -3.5222   -1.5650   -0.3681 H   0  0  0  0  0  0  0  0  0  0  0  0
   -4.2814   -0.5520   -2.4905 H   0  0  0  0  0  0  0  0  0  0  0  0
   -3.2010    0.8158   -2.2655 H   0  0  0  0  0  0  0  0  0  0  0  0
   -2.5224   -0.8078   -2.5323 H   0  0  0  0  0  0  0  0  0  0  0  0
   -1.1924   -0.6641   -0.3136 H   0  0  0  0  0  0  0  0  0  0  0  0
   -1.8096    0.9894   -0.1085 H   0  0  0  0  0  0  0  0  0  0  0  0
    1.3864    0.5252   -2.6318 H   0  0  0  0  0  0  0  0  0  0  0  0
    1.7571   -0.9917   -3.5287 H   0  0  0  0  0  0  0  0  0  0  0  0
    0.1614   -0.7366   -2.8188 H   0  0  0  0  0  0  0  0  0  0  0  0
  1  2  1  0
  2  3  1  0
  3  4  2  0
  4  5  1  0
  5  6  2  0
  6  7  1  0
  7  8  1  0
  8  9  2  3
  9 10  1  0
 10 11  2  0
 10 12  1  0
 12 13  1  0
 13 14  1  0
 14 15  1  0
 14 16  1  0
 16 17  1  0
 17 18  1  0
 17 19  1  0
  7 20  2  0
 20 21  1  0
 21 22  1  0
 20  3  1  0
 19 12  1  0
  1 23  1  0
  1 24  1  0
  1 25  1  0
  4 26  1  0
  5 27  1  0
  6 28  1  0
  8 29  1  0
  9 30  1  0
 13 31  1  0
 13 32  1  0
 14 33  1  0
 15 34  1  0
 15 35  1  0
 15 36  1  0
 17 37  1  0
 18 38  1  0
 18 39  1  0
 18 40  1  0
 19 41  1  0
 19 42  1  0
 22 43  1  0
 22 44  1  0
 22 45  1  0
M  END
$$$$
