
     RDKit          3D

 61 61  0  0  0  0  0  0  0  0999 V2000
    9.1956   -1.3318   -0.3813 C   0  0  0  0  0  0  0  0  0  0  0  0
    8.1287   -0.4118   -0.9530 C   0  0  0  0  0  0  0  0  0  0  0  0
    7.0436   -0.1033    0.0783 C   0  0  0  0  0  0  0  0  0  0  0  0
    5.9668    0.8147   -0.5049 C   0  0  0  0  0  0  0  0  0  0  0  0
    4.8818    1.1221    0.5291 C   0  0  0  0  0  0  0  0  0  0  0  0
    3.8267    2.1122    0.0272 C   0  0  0  0  0  0  0  0  0  0  0  0
    3.0313    1.6689   -1.2051 C   0  0  0  0  0  0  0  0  0  0  0  0
    2.3077    0.3246   -1.0814 C   0  0  0  0  0  0  0  0  0  0  0  0
    1.2752    0.2916    0.0484 C   0  0  0  0  0  0  0  0  0  0  0  0
    0.5116   -1.0354    0.0581 C   0  0  0  0  0  0  0  0  0  0  0  0
   -0.4503   -1.1754    1.2415 C   0  0  0  0  0  0  0  0  0  0  0  0
   -1.6089   -0.1754    1.2055 C   0  0  0  0  0  0  0  0  0  0  0  0
   -2.6007   -0.4402    2.3412 C   0  0  0  0  0  0  0  0  0  0  0  0
   -3.7218    0.6001    2.4270 C   0  0  0  0  0  0  0  0  0  0  0  0
   -4.5999    0.7348    1.1810 C   0  0  0  0  0  0  0  0  0  0  0  0
   -5.3113   -0.5577    0.7953 C   0  0  0  0  0  0  0  0  0  0  0  0
   -6.2206   -0.3358   -0.3336 N   0  0  0  0  0  0  0  0  0  0  0  0
   -5.8990   -0.4614   -1.6762 C   0  0  0  0  0  0  0  0  0  0  0  0
   -7.0318   -0.1689   -2.3816 C   0  0  0  0  0  0  0  0  0  0  0  0
   -8.0145    0.1321   -1.4528 N   0  0  0  0  0  4  0  0  0  0  0  0
   -9.3934    0.4961   -1.7518 C   0  0  0  0  0  0  0  0  0  0  0  0
   -7.5084    0.0221   -0.2155 C   0  0  0  0  0  0  0  0  0  0  0  0
    8.7629   -2.2877   -0.0690 H   0  0  0  0  0  0  0  0  0  0  0  0
    9.9628   -1.5364   -1.1345 H   0  0  0  0  0  0  0  0  0  0  0  0
    9.6838   -0.8756    0.4859 H   0  0  0  0  0  0  0  0  0  0  0  0
    7.6811   -0.8849   -1.8347 H   0  0  0  0  0  0  0  0  0  0  0  0
    8.5990    0.5199   -1.2882 H   0  0  0  0  0  0  0  0  0  0  0  0
    6.5831   -1.0389    0.4186 H   0  0  0  0  0  0  0  0  0  0  0  0
    7.4967    0.3723    0.9567 H   0  0  0  0  0  0  0  0  0  0  0  0
    5.5236    0.3322   -1.3833 H   0  0  0  0  0  0  0  0  0  0  0  0
    6.4262    1.7509   -0.8445 H   0  0  0  0  0  0  0  0  0  0  0  0
    4.4018    0.1917    0.8534 H   0  0  0  0  0  0  0  0  0  0  0  0
    5.3518    1.5524    1.4225 H   0  0  0  0  0  0  0  0  0  0  0  0
    4.3187    3.0649   -0.2066 H   0  0  0  0  0  0  0  0  0  0  0  0
    3.1327    2.3284    0.8482 H   0  0  0  0  0  0  0  0  0  0  0  0
    2.2931    2.4476   -1.4351 H   0  0  0  0  0  0  0  0  0  0  0  0
    3.7003    1.6264   -2.0728 H   0  0  0  0  0  0  0  0  0  0  0  0
    1.8010    0.1239   -2.0339 H   0  0  0  0  0  0  0  0  0  0  0  0
    3.0355   -0.4833   -0.9451 H   0  0  0  0  0  0  0  0  0  0  0  0
    0.5771    1.1259   -0.0808 H   0  0  0  0  0  0  0  0  0  0  0  0
    1.7721    0.4260    1.0154 H   0  0  0  0  0  0  0  0  0  0  0  0
   -0.0423   -1.1516   -0.8814 H   0  0  0  0  0  0  0  0  0  0  0  0
    1.2318   -1.8619    0.1040 H   0  0  0  0  0  0  0  0  0  0  0  0
    0.1050   -1.0660    2.1811 H   0  0  0  0  0  0  0  0  0  0  0  0
   -0.8572   -2.1943    1.2322 H   0  0  0  0  0  0  0  0  0  0  0  0
   -2.1172   -0.2519    0.2380 H   0  0  0  0  0  0  0  0  0  0  0  0
   -1.2260    0.8470    1.2960 H   0  0  0  0  0  0  0  0  0  0  0  0
   -3.0280   -1.4441    2.2360 H   0  0  0  0  0  0  0  0  0  0  0  0
   -2.0607   -0.4355    3.2965 H   0  0  0  0  0  0  0  0  0  0  0  0
   -3.2801    1.5800    2.6469 H   0  0  0  0  0  0  0  0  0  0  0  0
   -4.3592    0.3512    3.2846 H   0  0  0  0  0  0  0  0  0  0  0  0
   -4.0067    1.0989    0.3343 H   0  0  0  0  0  0  0  0  0  0  0  0
   -5.3517    1.5112    1.3711 H   0  0  0  0  0  0  0  0  0  0  0  0
   -4.5977   -1.3362    0.5049 H   0  0  0  0  0  0  0  0  0  0  0  0
   -5.9014   -0.9424    1.6348 H   0  0  0  0  0  0  0  0  0  0  0  0
   -4.8984   -0.7450   -1.9544 H   0  0  0  0  0  0  0  0  0  0  0  0
   -7.2690   -0.1346   -3.4313 H   0  0  0  0  0  0  0  0  0  0  0  0
   -9.4422    1.0017   -2.7199 H   0  0  0  0  0  0  0  0  0  0  0  0
   -9.9993   -0.4133   -1.7770 H   0  0  0  0  0  0  0  0  0  0  0  0
   -9.7689    1.1691   -0.9763 H   0  0  0  0  0  0  0  0  0  0  0  0
   -8.0425    0.1923    0.7125 H   0  0  0  0  0  0  0  0  0  0  0  0
  1  2  1  0
  2  3  1  0
  3  4  1  0
  4  5  1  0
  5  6  1  0
  6  7  1  0
  7  8  1  0
  8  9  1  0
  9 10  1  0
 10 11  1  0
 11 12  1  0
 12 13  1  0
 13 14  1  0
 14 15  1  0
 15 16  1  0
 16 17  1  0
 17 18  1  0
 18 19  2  0
 19 20  1  0
 20 21  1  0
 20 22  2  0
 22 17  1  0
  1 23  1  0
  1 24  1  0
  1 25  1  0
  2 26  1  0
  2 27  1  0
  3 28  1  0
  3 29  1  0
  4 30  1  0
  4 31  1  0
  5 32  1  0
  5 33  1  0
  6 34  1  0
  6 35  1  0
  7 36  1  0
  7 37  1  0
  8 38  1  0
  8 39  1  0
  9 40  1  0
  9 41  1  0
 10 42  1  0
 10 43  1  0
 11 44  1  0
 11 45  1  0
 12 46  1  0
 12 47  1  0
 13 48  1  0
 13 49  1  0
 14 50  1  0
 14 51  1  0
 15 52  1  0
 15 53  1  0
 16 54  1  0
 16 55  1  0
 18 56  1  0
 19 57  1  0
 21 58  1  0
 21 59  1  0
 21 60  1  0
 22 61  1  0
M  CHG  1  20   1
M  END
$$$$
