
     RDKit          3D

 53 56  0  0  0  0  0  0  0  0999 V2000
   -6.4836   -3.4188    1.3093 C   0  0  0  0  0  0  0  0  0  0  0  0
   -5.8895   -2.1512    1.0652 O   0  0  0  0  0  0  0  0  0  0  0  0
   -6.5075   -1.4791   -0.0300 C   0  0  0  0  0  0  0  0  0  0  0  0
   -5.8678   -0.1145   -0.2513 C   0  0  0  0  0  0  0  0  0  0  0  0
   -5.9331    0.8208    0.9585 C   0  0  0  0  0  0  0  0  0  0  0  0
   -4.8785    1.8659    0.6246 C   0  0  0  0  0  0  0  0  0  0  0  0
   -3.8702    1.1417   -0.1284 N   0  0  0  0  0  0  0  0  0  0  0  0
   -2.6254    1.7123   -0.3633 C   0  0  0  0  0  0  0  0  0  0  0  0
   -2.4033    2.8729   -0.0085 O   0  0  0  0  0  0  0  0  0  0  0  0
   -1.5624    0.9415   -1.0331 C   0  0  0  0  0  0  0  0  0  0  0  0
   -0.2746    1.4453   -1.3722 C   0  0  0  0  0  0  0  0  0  0  0  0
    0.3862    0.3866   -1.9429 C   0  0  0  0  0  0  0  0  0  0  0  0
    1.7397    0.1796   -2.5056 C   0  0  0  0  0  0  0  0  0  0  0  0
    2.6485    1.0707   -1.8489 O   0  0  0  0  0  0  0  0  0  0  0  0
    3.4834    0.4977   -0.9183 C   0  0  0  0  0  0  0  0  0  0  0  0
    3.0231   -0.4364    0.0133 C   0  0  0  0  0  0  0  0  0  0  0  0
    3.8914   -0.9666    0.9663 C   0  0  0  0  0  0  0  0  0  0  0  0
    5.2275   -0.5579    1.0116 C   0  0  0  0  0  0  0  0  0  0  0  0
    6.1424   -1.0337    1.9220 O   0  0  0  0  0  0  0  0  0  0  0  0
    5.6721   -1.9171    2.9310 C   0  0  0  0  0  0  0  0  0  0  0  0
    5.7080    0.4038    0.0857 C   0  0  0  0  0  0  0  0  0  0  0  0
    7.0483    0.8532    0.0958 C   0  0  0  0  0  0  0  0  0  0  0  0
    7.5124    1.8057   -0.8128 C   0  0  0  0  0  0  0  0  0  0  0  0
    6.6445    2.3364   -1.7554 C   0  0  0  0  0  0  0  0  0  0  0  0
    5.3156    1.9115   -1.7889 C   0  0  0  0  0  0  0  0  0  0  0  0
    4.8232    0.9449   -0.8834 C   0  0  0  0  0  0  0  0  0  0  0  0
   -0.4434   -0.6877   -1.9630 O   0  0  0  0  0  0  0  0  0  0  0  0
   -1.6522   -0.3510   -1.3917 N   0  0  0  0  0  0  0  0  0  0  0  0
   -4.3635   -0.1706   -0.5326 C   0  0  0  0  0  0  0  0  0  0  0  0
   -5.9637   -3.8861    2.1493 H   0  0  0  0  0  0  0  0  0  0  0  0
   -7.5379   -3.3004    1.5722 H   0  0  0  0  0  0  0  0  0  0  0  0
   -6.3835   -4.0657    0.4337 H   0  0  0  0  0  0  0  0  0  0  0  0
   -6.3988   -2.0876   -0.9358 H   0  0  0  0  0  0  0  0  0  0  0  0
   -7.5763   -1.3528    0.1786 H   0  0  0  0  0  0  0  0  0  0  0  0
   -6.3683    0.3769   -1.0971 H   0  0  0  0  0  0  0  0  0  0  0  0
   -6.9245    1.2602    1.1032 H   0  0  0  0  0  0  0  0  0  0  0  0
   -5.6543    0.2955    1.8802 H   0  0  0  0  0  0  0  0  0  0  0  0
   -4.4489    2.3309    1.5168 H   0  0  0  0  0  0  0  0  0  0  0  0
   -5.2844    2.6497   -0.0248 H   0  0  0  0  0  0  0  0  0  0  0  0
    0.1080    2.4428   -1.2028 H   0  0  0  0  0  0  0  0  0  0  0  0
    1.7287    0.4574   -3.5657 H   0  0  0  0  0  0  0  0  0  0  0  0
    2.0614   -0.8683   -2.4544 H   0  0  0  0  0  0  0  0  0  0  0  0
    1.9849   -0.7536    0.0326 H   0  0  0  0  0  0  0  0  0  0  0  0
    3.4883   -1.6928    1.6655 H   0  0  0  0  0  0  0  0  0  0  0  0
    4.8878   -1.4506    3.5352 H   0  0  0  0  0  0  0  0  0  0  0  0
    6.5113   -2.1409    3.5961 H   0  0  0  0  0  0  0  0  0  0  0  0
    5.3309   -2.8618    2.4963 H   0  0  0  0  0  0  0  0  0  0  0  0
    7.7488    0.4556    0.8286 H   0  0  0  0  0  0  0  0  0  0  0  0
    8.5493    2.1305   -0.7774 H   0  0  0  0  0  0  0  0  0  0  0  0
    6.9953    3.0815   -2.4643 H   0  0  0  0  0  0  0  0  0  0  0  0
    4.6537    2.3465   -2.5360 H   0  0  0  0  0  0  0  0  0  0  0  0
   -3.8490   -0.9245    0.0720 H   0  0  0  0  0  0  0  0  0  0  0  0
   -4.1702   -0.3482   -1.5946 H   0  0  0  0  0  0  0  0  0  0  0  0
  1  2  1  0
  2  3  1  0
  3  4  1  0
  4  5  1  0
  5  6  1  0
  6  7  1  0
  7  8  1  0
  8  9  2  0
  8 10  1  0
 10 11  1  0
 11 12  2  0
 12 13  1  0
 13 14  1  0
 14 15  1  0
 15 16  2  0
 16 17  1  0
 17 18  2  0
 18 19  1  0
 19 20  1  0
 18 21  1  0
 21 22  2  0
 22 23  1  0
 23 24  2  0
 24 25  1  0
 25 26  2  0
 12 27  1  0
 27 28  1  0
  7 29  1  0
 29  4  1  0
 28 10  2  0
 26 15  1  0
 26 21  1  0
  1 30  1  0
  1 31  1  0
  1 32  1  0
  3 33  1  0
  3 34  1  0
  4 35  1  0
  5 36  1  0
  5 37  1  0
  6 38  1  0
  6 39  1  0
 11 40  1  0
 13 41  1  0
 13 42  1  0
 16 43  1  0
 17 44  1  0
 20 45  1  0
 20 46  1  0
 20 47  1  0
 22 48  1  0
 23 49  1  0
 24 50  1  0
 25 51  1  0
 29 52  1  0
 29 53  1  0
M  END
$$$$
