
     RDKit          3D

 48 51  0  0  0  0  0  0  0  0999 V2000
    2.0892    0.5981   -0.9599 O   0  0  0  0  0  0  0  0  0  0  0  0
    2.3855    0.4045    0.4442 S   0  0  0  0  0  6  0  0  0  0  0  0
    2.3336    1.5081    1.3818 O   0  0  0  0  0  0  0  0  0  0  0  0
    3.9718   -0.4273    0.6247 C   0  0  0  0  0  0  0  0  0  0  0  0
    5.0751    0.4988    0.1822 C   0  0  0  0  0  0  0  0  0  0  0  0
    5.6959    1.3569    1.1014 C   0  0  0  0  0  0  0  0  0  0  0  0
    6.7163    2.2158    0.6906 C   0  0  0  0  0  0  0  0  0  0  0  0
    7.1250    2.2282   -0.6413 C   0  0  0  0  0  0  0  0  0  0  0  0
    6.5113    1.3848   -1.5650 C   0  0  0  0  0  0  0  0  0  0  0  0
    5.4905    0.5248   -1.1572 C   0  0  0  0  0  0  0  0  0  0  0  0
    1.3229   -0.7981    1.0285 N   0  0  0  0  0  0  0  0  0  0  0  0
    1.0315   -1.9488    0.1180 C   0  0  0  0  0  0  0  0  0  0  0  0
   -0.0943   -1.6347   -0.8920 C   0  0  0  0  0  0  0  0  0  0  0  0
   -1.3279   -1.1306   -0.2507 N   0  0  0  0  0  0  0  0  0  0  0  0
   -2.3245   -0.7887   -1.2805 C   0  0  0  0  0  0  0  0  0  0  0  0
   -3.7013   -0.5209   -0.7074 C   0  0  0  0  0  0  0  0  0  0  0  0
   -4.3744   -1.5266    0.0273 C   0  0  0  0  0  0  0  0  0  0  0  0
   -5.6479   -1.3025    0.5593 C   0  0  0  0  0  0  0  0  0  0  0  0
   -6.2238   -0.0708    0.3409 C   0  0  0  0  0  0  0  0  0  0  0  0
   -5.5807    0.9127   -0.3729 C   0  0  0  0  0  0  0  0  0  0  0  0
   -4.3247    0.7214   -0.9097 C   0  0  0  0  0  0  0  0  0  0  0  0
   -6.3207    2.0497   -0.4724 O   0  0  0  0  0  0  0  0  0  0  0  0
   -7.5017    1.6689    0.2633 C   0  0  0  0  0  0  0  0  0  0  0  0
   -7.4487    0.3234    0.7808 O   0  0  0  0  0  0  0  0  0  0  0  0
   -0.9991    0.0458    0.5887 C   0  0  0  0  0  0  0  0  0  0  0  0
    0.0583   -0.2978    1.6517 C   0  0  0  0  0  0  0  0  0  0  0  0
    4.0906   -0.7054    1.6766 H   0  0  0  0  0  0  0  0  0  0  0  0
    3.9665   -1.3345    0.0150 H   0  0  0  0  0  0  0  0  0  0  0  0
    5.3807    1.3728    2.1433 H   0  0  0  0  0  0  0  0  0  0  0  0
    7.1869    2.8817    1.4094 H   0  0  0  0  0  0  0  0  0  0  0  0
    7.9159    2.9015   -0.9609 H   0  0  0  0  0  0  0  0  0  0  0  0
    6.8228    1.4024   -2.6062 H   0  0  0  0  0  0  0  0  0  0  0  0
    5.0151   -0.1159   -1.8972 H   0  0  0  0  0  0  0  0  0  0  0  0
    0.7392   -2.8015    0.7440 H   0  0  0  0  0  0  0  0  0  0  0  0
    1.9363   -2.2573   -0.4144 H   0  0  0  0  0  0  0  0  0  0  0  0
    0.2633   -0.9184   -1.6402 H   0  0  0  0  0  0  0  0  0  0  0  0
   -0.3240   -2.5627   -1.4301 H   0  0  0  0  0  0  0  0  0  0  0  0
   -1.9863    0.0655   -1.8823 H   0  0  0  0  0  0  0  0  0  0  0  0
   -2.4399   -1.6285   -1.9792 H   0  0  0  0  0  0  0  0  0  0  0  0
   -3.8900   -2.4881    0.1890 H   0  0  0  0  0  0  0  0  0  0  0  0
   -6.1637   -2.0693    1.1254 H   0  0  0  0  0  0  0  0  0  0  0  0
   -3.8419    1.5170   -1.4669 H   0  0  0  0  0  0  0  0  0  0  0  0
   -8.3703    1.7552   -0.3998 H   0  0  0  0  0  0  0  0  0  0  0  0
   -7.6305    2.3623    1.1024 H   0  0  0  0  0  0  0  0  0  0  0  0
   -0.6447    0.8778   -0.0331 H   0  0  0  0  0  0  0  0  0  0  0  0
   -1.8944    0.3903    1.1184 H   0  0  0  0  0  0  0  0  0  0  0  0
   -0.3220   -1.0825    2.3188 H   0  0  0  0  0  0  0  0  0  0  0  0
    0.2531    0.5670    2.2933 H   0  0  0  0  0  0  0  0  0  0  0  0
  1  2  2  0
  2  3  2  0
  2  4  1  0
  4  5  1  0
  5  6  2  0
  6  7  1  0
  7  8  2  0
  8  9  1  0
  9 10  2  0
  2 11  1  0
 11 12  1  0
 12 13  1  0
 13 14  1  0
 14 15  1  0
 15 16  1  0
 16 17  2  0
 17 18  1  0
 18 19  2  0
 19 20  1  0
 20 21  2  0
 20 22  1  0
 22 23  1  0
 23 24  1  0
 14 25  1  0
 25 26  1  0
 10  5  1  0
 26 11  1  0
 21 16  1  0
 24 19  1  0
  4 27  1  0
  4 28  1  0
  6 29  1  0
  7 30  1  0
  8 31  1  0
  9 32  1  0
 10 33  1  0
 12 34  1  0
 12 35  1  0
 13 36  1  0
 13 37  1  0
 15 38  1  0
 15 39  1  0
 17 40  1  0
 18 41  1  0
 21 42  1  0
 23 43  1  0
 23 44  1  0
 25 45  1  0
 25 46  1  0
 26 47  1  0
 26 48  1  0
M  END
$$$$
