
     RDKit          3D

 93 99  0  0  0  0  0  0  0  0999 V2000
   -3.4523    1.5616   -3.7867 C   0  0  0  0  0  0  0  0  0  0  0  0
   -3.7994    1.0678   -2.3870 C   0  0  0  0  0  0  0  0  0  0  0  0
   -2.6125    0.4374   -1.6789 C   0  0  0  0  0  0  0  0  0  0  0  0
   -1.6894    1.1970   -1.0507 C   0  0  0  0  0  0  0  0  0  0  0  0
   -1.7948    2.5960   -1.0340 O   0  0  0  0  0  0  0  0  0  0  0  0
   -2.4790    3.0749    0.0612 C   0  0  0  0  0  0  0  0  0  0  0  0
   -3.0203    2.3619    0.9036 O   0  0  0  0  0  0  0  0  0  0  0  0
   -2.5167    4.4643    0.1007 N   0  0  0  0  0  0  0  0  0  0  0  0
   -3.2148    5.1225    1.1971 C   0  0  0  0  0  0  0  0  0  0  0  0
   -2.3080    5.3401    2.3986 C   0  0  0  0  0  0  0  0  0  0  0  0
   -1.7635    5.2943   -0.8357 C   0  0  0  0  0  0  0  0  0  0  0  0
   -2.5857    5.6246   -2.0705 C   0  0  0  0  0  0  0  0  0  0  0  0
   -0.5924    0.6420   -0.4191 N   0  0  0  0  0  0  0  0  0  0  0  0
    0.2811    1.3425    0.3818 C   0  0  0  0  0  0  0  0  0  0  0  0
    0.4630    2.5484    0.4334 O   0  0  0  0  0  0  0  0  0  0  0  0
    0.8871    0.4665    1.2063 O   0  0  0  0  0  0  0  0  0  0  0  0
    0.3932   -0.7661    0.9546 C   0  0  0  0  0  0  0  0  0  0  0  0
    0.5377   -1.7538    1.7690 N   0  0  0  0  0  0  0  0  0  0  0  0
    1.1295   -1.4574    3.0933 C   0  0  0  0  0  0  0  0  0  0  0  0
    2.6065   -1.8446    3.1823 C   0  0  0  0  0  0  0  0  0  0  0  0
    3.5403   -0.7958    2.6667 C   0  0  0  0  0  0  0  0  0  0  0  0
    4.3829   -0.9204    1.5814 C   0  0  0  0  0  0  0  0  0  0  0  0
    5.0323    0.2694    1.3988 N   0  0  0  0  0  0  0  0  0  0  0  0
    4.6891    1.1561    2.3905 C   0  0  0  0  0  0  0  0  0  0  0  0
    5.1224    2.4682    2.6160 C   0  0  0  0  0  0  0  0  0  0  0  0
    4.5986    3.1430    3.7219 C   0  0  0  0  0  0  0  0  0  0  0  0
    3.6793    2.5274    4.5668 C   0  0  0  0  0  0  0  0  0  0  0  0
    3.2542    1.2162    4.3234 C   0  0  0  0  0  0  0  0  0  0  0  0
    3.7628    0.5127    3.2115 C   0  0  0  0  0  0  0  0  0  0  0  0
   -0.3490   -0.8066   -0.3756 C   0  0  0  0  0  0  0  0  0  0  0  0
    0.5771   -1.3268   -1.5161 C   0  0  0  0  0  0  0  0  0  0  0  0
    1.8613   -0.5981   -1.8491 C   0  0  0  0  0  0  0  0  0  0  0  0
    1.8478    0.6688   -2.4486 C   0  0  0  0  0  0  0  0  0  0  0  0
    3.0404    1.3019   -2.8041 C   0  0  0  0  0  0  0  0  0  0  0  0
    4.2602    0.6639   -2.5950 C   0  0  0  0  0  0  0  0  0  0  0  0
    4.2866   -0.6083   -2.0308 C   0  0  0  0  0  0  0  0  0  0  0  0
    3.0951   -1.2332   -1.6556 C   0  0  0  0  0  0  0  0  0  0  0  0
   -1.7134   -1.5716   -0.3831 C   0  0  0  0  0  0  0  0  0  0  0  0
   -2.5039   -1.0276   -1.6206 C   0  0  0  0  0  0  0  0  0  0  0  0
   -2.9733   -1.8048   -2.6202 C   0  0  0  0  0  0  0  0  0  0  0  0
   -2.8185   -3.2912   -2.7178 C   0  0  0  0  0  0  0  0  0  0  0  0
   -2.1924   -3.8765   -1.5070 C   0  0  0  0  0  0  0  0  0  0  0  0
   -1.6729   -3.1035   -0.4092 C   0  0  0  0  0  0  0  0  0  0  0  0
   -1.3102   -4.0308    0.5571 C   0  0  0  0  0  0  0  0  0  0  0  0
   -0.8389   -3.9107    1.7896 O   0  0  0  0  0  0  0  0  0  0  0  0
   -1.5290   -5.2936    0.0580 N   0  0  0  0  0  0  0  0  0  0  0  0
   -1.2699   -6.5299    0.7784 C   0  0  0  0  0  0  0  0  0  0  0  0
    0.1499   -7.0274    0.5702 C   0  0  0  0  0  0  0  0  0  0  0  0
   -2.0470   -5.2146   -1.2060 C   0  0  0  0  0  0  0  0  0  0  0  0
   -2.3395   -6.3134   -1.8923 O   0  0  0  0  0  0  0  0  0  0  0  0
   -4.3398    1.9900   -4.2646 H   0  0  0  0  0  0  0  0  0  0  0  0
   -3.0843    0.7525   -4.4242 H   0  0  0  0  0  0  0  0  0  0  0  0
   -2.6834    2.3403   -3.7533 H   0  0  0  0  0  0  0  0  0  0  0  0
   -4.1831    1.9137   -1.8040 H   0  0  0  0  0  0  0  0  0  0  0  0
   -4.6424    0.3684   -2.4386 H   0  0  0  0  0  0  0  0  0  0  0  0
   -4.0702    4.5083    1.5011 H   0  0  0  0  0  0  0  0  0  0  0  0
   -3.6138    6.0775    0.8376 H   0  0  0  0  0  0  0  0  0  0  0  0
   -1.9153    4.3893    2.7743 H   0  0  0  0  0  0  0  0  0  0  0  0
   -2.8604    5.8268    3.2085 H   0  0  0  0  0  0  0  0  0  0  0  0
   -1.4533    5.9730    2.1390 H   0  0  0  0  0  0  0  0  0  0  0  0
   -0.8470    4.7747   -1.1355 H   0  0  0  0  0  0  0  0  0  0  0  0
   -1.4565    6.2159   -0.3289 H   0  0  0  0  0  0  0  0  0  0  0  0
   -2.0056    6.2466   -2.7590 H   0  0  0  0  0  0  0  0  0  0  0  0
   -3.4964    6.1696   -1.8005 H   0  0  0  0  0  0  0  0  0  0  0  0
   -2.8864    4.7151   -2.6005 H   0  0  0  0  0  0  0  0  0  0  0  0
    0.9445   -0.4260    3.4142 H   0  0  0  0  0  0  0  0  0  0  0  0
    0.5799   -2.0800    3.8108 H   0  0  0  0  0  0  0  0  0  0  0  0
    2.7762   -2.7925    2.6566 H   0  0  0  0  0  0  0  0  0  0  0  0
    2.8586   -2.0233    4.2358 H   0  0  0  0  0  0  0  0  0  0  0  0
    4.5549   -1.7499    0.9103 H   0  0  0  0  0  0  0  0  0  0  0  0
    5.6760    0.4730    0.6478 H   0  0  0  0  0  0  0  0  0  0  0  0
    5.8361    2.9512    1.9572 H   0  0  0  0  0  0  0  0  0  0  0  0
    4.9119    4.1645    3.9230 H   0  0  0  0  0  0  0  0  0  0  0  0
    3.2817    3.0699    5.4206 H   0  0  0  0  0  0  0  0  0  0  0  0
    2.5342    0.7506    4.9888 H   0  0  0  0  0  0  0  0  0  0  0  0
    0.0193   -1.3642   -2.4611 H   0  0  0  0  0  0  0  0  0  0  0  0
    0.8334   -2.3723   -1.2968 H   0  0  0  0  0  0  0  0  0  0  0  0
    0.9091    1.1756   -2.6608 H   0  0  0  0  0  0  0  0  0  0  0  0
    3.0145    2.2893   -3.2578 H   0  0  0  0  0  0  0  0  0  0  0  0
    5.1857    1.1537   -2.8849 H   0  0  0  0  0  0  0  0  0  0  0  0
    5.2343   -1.1198   -1.8847 H   0  0  0  0  0  0  0  0  0  0  0  0
    3.1390   -2.2306   -1.2220 H   0  0  0  0  0  0  0  0  0  0  0  0
   -2.2857   -1.2976    0.5167 H   0  0  0  0  0  0  0  0  0  0  0  0
   -3.4775   -1.3669   -3.4767 H   0  0  0  0  0  0  0  0  0  0  0  0
   -2.2119   -3.5300   -3.5991 H   0  0  0  0  0  0  0  0  0  0  0  0
   -3.8093   -3.7362   -2.8668 H   0  0  0  0  0  0  0  0  0  0  0  0
   -0.4363   -3.0203    1.8725 H   0  0  0  0  0  0  0  0  0  0  0  0
   -1.4662   -6.3541    1.8416 H   0  0  0  0  0  0  0  0  0  0  0  0
   -1.9935   -7.2803    0.4418 H   0  0  0  0  0  0  0  0  0  0  0  0
    0.3114   -7.9568    1.1253 H   0  0  0  0  0  0  0  0  0  0  0  0
    0.8826   -6.2910    0.9169 H   0  0  0  0  0  0  0  0  0  0  0  0
    0.3482   -7.2229   -0.4889 H   0  0  0  0  0  0  0  0  0  0  0  0
   -2.7046   -6.0377   -2.7499 H   0  0  0  0  0  0  0  0  0  0  0  0
  1  2  1  0
  2  3  1  0
  3  4  2  0
  4  5  1  0
  5  6  1  0
  6  7  2  0
  6  8  1  0
  8  9  1  0
  9 10  1  0
  8 11  1  0
 11 12  1  0
  4 13  1  0
 13 14  1  0
 14 15  2  0
 14 16  1  0
 16 17  1  0
 17 18  2  3
 18 19  1  0
 19 20  1  0
 20 21  1  0
 21 22  2  0
 22 23  1  0
 23 24  1  0
 24 25  2  0
 25 26  1  0
 26 27  2  0
 27 28  1  0
 28 29  2  0
 17 30  1  0
 30 31  1  0
 31 32  1  0
 32 33  2  0
 33 34  1  0
 34 35  2  0
 35 36  1  0
 36 37  2  0
 30 38  1  0
 38 39  1  0
 39 40  2  0
 40 41  1  0
 41 42  1  0
 42 43  1  0
 43 44  2  0
 44 45  1  0
 44 46  1  0
 46 47  1  0
 47 48  1  0
 46 49  1  0
 49 50  1  0
 39  3  1  0
 49 42  2  0
 30 13  1  0
 37 32  1  0
 43 38  1  0
 29 21  1  0
 29 24  1  0
  1 51  1  0
  1 52  1  0
  1 53  1  0
  2 54  1  0
  2 55  1  0
  9 56  1  0
  9 57  1  0
 10 58  1  0
 10 59  1  0
 10 60  1  0
 11 61  1  0
 11 62  1  0
 12 63  1  0
 12 64  1  0
 12 65  1  0
 19 66  1  0
 19 67  1  0
 20 68  1  0
 20 69  1  0
 22 70  1  0
 23 71  1  0
 25 72  1  0
 26 73  1  0
 27 74  1  0
 28 75  1  0
 31 76  1  0
 31 77  1  0
 33 78  1  0
 34 79  1  0
 35 80  1  0
 36 81  1  0
 37 82  1  0
 38 83  1  0
 40 84  1  0
 41 85  1  0
 41 86  1  0
 45 87  1  0
 47 88  1  0
 47 89  1  0
 48 90  1  0
 48 91  1  0
 48 92  1  0
 50 93  1  0
M  END
$$$$
