
     RDKit          3D

 47 50  0  0  0  0  0  0  0  0999 V2000
   -1.2902    0.3813    0.1673 O   0  0  0  0  0  0  0  0  0  0  0  0
   -0.4390   -0.4680    0.4417 C   0  0  0  0  0  0  0  0  0  0  0  0
   -0.7639   -1.5699    1.4415 C   0  0  0  0  0  0  0  0  0  0  0  0
   -1.4103   -3.0436    0.6062 S   0  0  0  0  0  0  0  0  0  0  0  0
   -2.9298   -2.4533    0.0059 C   0  0  0  0  0  0  0  0  0  0  0  0
   -3.5976   -3.0258   -0.9746 N   0  0  0  0  0  0  0  0  0  0  0  0
   -4.7376   -2.2708   -1.1694 N   0  0  0  0  0  0  0  0  0  0  0  0
   -4.6834   -1.2858   -0.2947 C   0  0  0  0  0  0  0  0  0  0  0  0
   -5.6068   -0.1825   -0.0605 C   0  0  0  0  0  0  0  0  0  0  0  0
   -5.2995    0.8631    0.8227 C   0  0  0  0  0  0  0  0  0  0  0  0
   -6.2030    1.9091    1.0328 C   0  0  0  0  0  0  0  0  0  0  0  0
   -7.4229    1.9222    0.3596 C   0  0  0  0  0  0  0  0  0  0  0  0
   -7.7369    0.8980   -0.5299 C   0  0  0  0  0  0  0  0  0  0  0  0
   -6.8349   -0.1486   -0.7384 C   0  0  0  0  0  0  0  0  0  0  0  0
   -3.5786   -1.3606    0.5109 O   0  0  0  0  0  0  0  0  0  0  0  0
    0.8215   -0.4496   -0.1338 N   0  0  0  0  0  0  0  0  0  0  0  0
    1.1625    0.6156   -1.0879 C   0  0  0  0  0  0  0  0  0  0  0  0
    2.5823    1.1729   -0.8622 C   0  0  0  0  0  0  0  0  0  0  0  0
    3.6133    0.1053   -0.7825 N   0  0  0  0  0  0  0  0  0  0  0  0
    4.7693    0.4441   -0.0737 C   0  0  0  0  0  0  0  0  0  0  0  0
    5.4124    1.6708   -0.3199 C   0  0  0  0  0  0  0  0  0  0  0  0
    6.5694    2.0532    0.3657 C   0  0  0  0  0  0  0  0  0  0  0  0
    7.1206    1.2099    1.3216 C   0  0  0  0  0  0  0  0  0  0  0  0
    6.5162   -0.0130    1.5821 C   0  0  0  0  0  0  0  0  0  0  0  0
    5.3593   -0.3901    0.8881 C   0  0  0  0  0  0  0  0  0  0  0  0
    3.0973   -1.2739   -0.7946 C   0  0  0  0  0  0  0  0  0  0  0  0
    1.8911   -1.4192    0.1502 C   0  0  0  0  0  0  0  0  0  0  0  0
    0.1224   -1.8415    2.0202 H   0  0  0  0  0  0  0  0  0  0  0  0
   -1.4923   -1.1883    2.1655 H   0  0  0  0  0  0  0  0  0  0  0  0
   -4.3475    0.8800    1.3507 H   0  0  0  0  0  0  0  0  0  0  0  0
   -5.9497    2.7143    1.7194 H   0  0  0  0  0  0  0  0  0  0  0  0
   -8.1269    2.7348    0.5221 H   0  0  0  0  0  0  0  0  0  0  0  0
   -8.6856    0.9108   -1.0628 H   0  0  0  0  0  0  0  0  0  0  0  0
   -7.0953   -0.9405   -1.4397 H   0  0  0  0  0  0  0  0  0  0  0  0
    1.0835    0.1789   -2.0910 H   0  0  0  0  0  0  0  0  0  0  0  0
    0.4398    1.4352   -1.0369 H   0  0  0  0  0  0  0  0  0  0  0  0
    2.5675    1.7457    0.0760 H   0  0  0  0  0  0  0  0  0  0  0  0
    2.8259    1.8613   -1.6804 H   0  0  0  0  0  0  0  0  0  0  0  0
    5.0275    2.3452   -1.0808 H   0  0  0  0  0  0  0  0  0  0  0  0
    7.0376    3.0083    0.1429 H   0  0  0  0  0  0  0  0  0  0  0  0
    8.0185    1.5019    1.8571 H   0  0  0  0  0  0  0  0  0  0  0  0
    6.9410   -0.6804    2.3274 H   0  0  0  0  0  0  0  0  0  0  0  0
    4.9238   -1.3485    1.1467 H   0  0  0  0  0  0  0  0  0  0  0  0
    3.8638   -2.0218   -0.5690 H   0  0  0  0  0  0  0  0  0  0  0  0
    2.7749   -1.4994   -1.8200 H   0  0  0  0  0  0  0  0  0  0  0  0
    1.4856   -2.4326    0.0747 H   0  0  0  0  0  0  0  0  0  0  0  0
    2.2046   -1.2540    1.1880 H   0  0  0  0  0  0  0  0  0  0  0  0
  1  2  2  0
  2  3  1  0
  3  4  1  0
  4  5  1  0
  5  6  2  0
  6  7  1  0
  7  8  2  0
  8  9  1  0
  9 10  2  0
 10 11  1  0
 11 12  2  0
 12 13  1  0
 13 14  2  0
  8 15  1  0
  2 16  1  0
 16 17  1  0
 17 18  1  0
 18 19  1  0
 19 20  1  0
 20 21  2  0
 21 22  1  0
 22 23  2  0
 23 24  1  0
 24 25  2  0
 19 26  1  0
 26 27  1  0
 15  5  1  0
 27 16  1  0
 14  9  1  0
 25 20  1  0
  3 28  1  0
  3 29  1  0
 10 30  1  0
 11 31  1  0
 12 32  1  0
 13 33  1  0
 14 34  1  0
 17 35  1  0
 17 36  1  0
 18 37  1  0
 18 38  1  0
 21 39  1  0
 22 40  1  0
 23 41  1  0
 24 42  1  0
 25 43  1  0
 26 44  1  0
 26 45  1  0
 27 46  1  0
 27 47  1  0
M  END
$$$$
