
     RDKit          3D

 52 54  0  0  0  0  0  0  0  0999 V2000
    3.7493   -0.7016   -0.4923 C   0  0  0  0  0  0  0  0  0  0  0  0
    2.9796    0.5142   -1.0040 C   0  0  0  0  0  0  0  0  0  0  0  0
    3.5405    1.8569   -0.5018 C   0  0  0  0  0  0  0  0  0  0  0  0
    4.8424    2.3100   -1.1768 C   0  0  0  0  0  0  0  0  0  0  0  0
    6.1034    1.6466   -0.6826 C   0  0  0  0  0  0  0  0  0  0  0  0
    6.9381    0.9614   -1.5768 C   0  0  0  0  0  0  0  0  0  0  0  0
    8.1137    0.3559   -1.1293 C   0  0  0  0  0  0  0  0  0  0  0  0
    8.4736    0.4376    0.2139 C   0  0  0  0  0  0  0  0  0  0  0  0
    7.6611    1.1293    1.1096 C   0  0  0  0  0  0  0  0  0  0  0  0
    6.4849    1.7348    0.6636 C   0  0  0  0  0  0  0  0  0  0  0  0
    1.5824    0.3969   -0.5845 N   0  0  0  0  0  0  0  0  0  0  0  0
    0.6428   -0.2627   -1.3505 C   0  0  0  0  0  0  0  0  0  0  0  0
    0.8656   -0.6988   -2.4735 O   0  0  0  0  0  0  0  0  0  0  0  0
   -0.7124   -0.4052   -0.7524 C   0  0  0  0  0  0  0  0  0  0  0  0
   -0.9059   -0.5611    0.6234 C   0  0  0  0  0  0  0  0  0  0  0  0
   -2.2018   -0.6971    1.1360 C   0  0  0  0  0  0  0  0  0  0  0  0
   -3.3165   -0.6879    0.2858 C   0  0  0  0  0  0  0  0  0  0  0  0
   -4.5854   -0.8234    0.8874 N   0  0  0  0  0  0  0  0  0  0  0  0
   -5.8103   -0.9068    0.2497 C   0  0  0  0  0  0  0  0  0  0  0  0
   -6.0139   -0.9360   -0.9572 O   0  0  0  0  0  0  0  0  0  0  0  0
   -6.9839   -1.0085    1.1610 C   0  0  0  0  0  0  0  0  0  0  0  0
   -7.0460   -0.2886    2.3628 C   0  0  0  0  0  0  0  0  0  0  0  0
   -8.1656   -0.4071    3.1891 C   0  0  0  0  0  0  0  0  0  0  0  0
   -9.2250   -1.2348    2.8148 C   0  0  0  0  0  0  0  0  0  0  0  0
   -9.1672   -1.9348    1.6096 C   0  0  0  0  0  0  0  0  0  0  0  0
  -10.6115   -3.0440    1.1026 Br  0  0  0  0  0  0  0  0  0  0  0  0
   -8.0558   -1.8230    0.7770 C   0  0  0  0  0  0  0  0  0  0  0  0
   -3.1142   -0.5447   -1.0877 C   0  0  0  0  0  0  0  0  0  0  0  0
   -1.8198   -0.4119   -1.6053 C   0  0  0  0  0  0  0  0  0  0  0  0
    3.2428   -1.6317   -0.7746 H   0  0  0  0  0  0  0  0  0  0  0  0
    4.7566   -0.7492   -0.9092 H   0  0  0  0  0  0  0  0  0  0  0  0
    3.8252   -0.6911    0.6006 H   0  0  0  0  0  0  0  0  0  0  0  0
    3.0012    0.5039   -2.1003 H   0  0  0  0  0  0  0  0  0  0  0  0
    2.7910    2.6313   -0.7193 H   0  0  0  0  0  0  0  0  0  0  0  0
    3.6386    1.8414    0.5905 H   0  0  0  0  0  0  0  0  0  0  0  0
    4.9639    3.3886   -1.0088 H   0  0  0  0  0  0  0  0  0  0  0  0
    4.7477    2.1901   -2.2634 H   0  0  0  0  0  0  0  0  0  0  0  0
    6.6755    0.8877   -2.6300 H   0  0  0  0  0  0  0  0  0  0  0  0
    8.7491   -0.1785   -1.8307 H   0  0  0  0  0  0  0  0  0  0  0  0
    9.3896   -0.0329    0.5610 H   0  0  0  0  0  0  0  0  0  0  0  0
    7.9462    1.2017    2.1558 H   0  0  0  0  0  0  0  0  0  0  0  0
    5.8725    2.2826    1.3756 H   0  0  0  0  0  0  0  0  0  0  0  0
    1.3311    0.7454    0.3292 H   0  0  0  0  0  0  0  0  0  0  0  0
   -0.0636   -0.6115    1.3067 H   0  0  0  0  0  0  0  0  0  0  0  0
   -2.3233   -0.8225    2.2090 H   0  0  0  0  0  0  0  0  0  0  0  0
   -4.5839   -0.9386    1.8921 H   0  0  0  0  0  0  0  0  0  0  0  0
   -6.2484    0.3909    2.6519 H   0  0  0  0  0  0  0  0  0  0  0  0
   -8.2200    0.1546    4.1190 H   0  0  0  0  0  0  0  0  0  0  0  0
  -10.0949   -1.3192    3.4620 H   0  0  0  0  0  0  0  0  0  0  0  0
   -8.0146   -2.3633   -0.1666 H   0  0  0  0  0  0  0  0  0  0  0  0
   -3.9418   -0.5345   -1.7907 H   0  0  0  0  0  0  0  0  0  0  0  0
   -1.6822   -0.3107   -2.6806 H   0  0  0  0  0  0  0  0  0  0  0  0
  1  2  1  0
  2  3  1  0
  3  4  1  0
  4  5  1  0
  5  6  2  0
  6  7  1  0
  7  8  2  0
  8  9  1  0
  9 10  2  0
  2 11  1  0
 11 12  1  0
 12 13  2  0
 12 14  1  0
 14 15  2  0
 15 16  1  0
 16 17  2  0
 17 18  1  0
 18 19  1  0
 19 20  2  0
 19 21  1  0
 21 22  2  0
 22 23  1  0
 23 24  2  0
 24 25  1  0
 25 26  1  0
 25 27  2  0
 17 28  1  0
 28 29  2  0
 10  5  1  0
 29 14  1  0
 27 21  1  0
  1 30  1  0
  1 31  1  0
  1 32  1  0
  2 33  1  0
  3 34  1  0
  3 35  1  0
  4 36  1  0
  4 37  1  0
  6 38  1  0
  7 39  1  0
  8 40  1  0
  9 41  1  0
 10 42  1  0
 11 43  1  0
 15 44  1  0
 16 45  1  0
 18 46  1  0
 22 47  1  0
 23 48  1  0
 24 49  1  0
 27 50  1  0
 28 51  1  0
 29 52  1  0
M  END
$$$$
