
     RDKit          3D

 29 31  0  0  0  0  0  0  0  0999 V2000
    2.5655    2.0272    1.1938 N   0  0  0  0  0  0  0  0  0  0  0  0
    2.2691    0.8477    0.4789 C   0  0  0  0  0  0  0  0  0  0  0  0
    0.9284    0.3610    0.5447 C   0  0  0  0  0  0  0  0  0  0  0  0
    0.4174   -0.7389   -0.1944 C   0  0  0  0  0  0  0  0  0  0  0  0
   -0.8917   -1.2245   -0.0695 N   0  0  0  0  0  0  0  0  0  0  0  0
   -2.1058   -0.5647    0.2054 C   0  0  0  0  0  0  0  0  0  0  0  0
   -2.2801    0.8185    0.0889 C   0  0  0  0  0  0  0  0  0  0  0  0
   -3.5043    1.4178    0.4030 C   0  0  0  0  0  0  0  0  0  0  0  0
   -4.5712    0.6400    0.8446 C   0  0  0  0  0  0  0  0  0  0  0  0
   -4.4156   -0.7372    0.9692 C   0  0  0  0  0  0  0  0  0  0  0  0
   -3.1917   -1.3323    0.6523 C   0  0  0  0  0  0  0  0  0  0  0  0
    1.3832   -1.3482   -1.0366 C   0  0  0  0  0  0  0  0  0  0  0  0
    1.2443   -2.4219   -1.8272 N   0  0  0  0  0  0  0  0  0  0  0  0
    2.4688   -2.5992   -2.4430 O   0  0  0  0  0  0  0  0  0  0  0  0
    3.3857   -1.6478   -2.0403 N   0  0  0  0  0  0  0  0  0  0  0  0
    2.7450   -0.8498   -1.1738 C   0  0  0  0  0  0  0  0  0  0  0  0
    3.1685    0.2735   -0.4448 C   0  0  0  0  0  0  0  0  0  0  0  0
    4.5078    0.7517   -0.6324 N   0  0  0  0  0  4  0  0  0  0  0  0
    5.1742    0.9669    0.3920 O   0  0  0  0  0  0  0  0  0  0  0  0
    4.8948    0.9522   -1.7904 O   0  0  0  0  0  1  0  0  0  0  0  0
    3.5596    2.1566    1.4013 H   0  0  0  0  0  0  0  0  0  0  0  0
    1.9973    2.1770    2.0249 H   0  0  0  0  0  0  0  0  0  0  0  0
    0.2502    0.8533    1.2440 H   0  0  0  0  0  0  0  0  0  0  0  0
   -1.0430   -2.0715   -0.6188 H   0  0  0  0  0  0  0  0  0  0  0  0
   -1.4806    1.4520   -0.2832 H   0  0  0  0  0  0  0  0  0  0  0  0
   -3.6240    2.4928    0.2950 H   0  0  0  0  0  0  0  0  0  0  0  0
   -5.5223    1.1062    1.0883 H   0  0  0  0  0  0  0  0  0  0  0  0
   -5.2436   -1.3499    1.3160 H   0  0  0  0  0  0  0  0  0  0  0  0
   -3.0859   -2.4083    0.7702 H   0  0  0  0  0  0  0  0  0  0  0  0
  1  2  1  0
  2  3  1  0
  3  4  2  0
  4  5  1  0
  5  6  1  0
  6  7  2  0
  7  8  1  0
  8  9  2  0
  9 10  1  0
 10 11  2  0
  4 12  1  0
 12 13  2  0
 13 14  1  0
 14 15  1  0
 15 16  2  0
 16 17  1  0
 17 18  1  0
 18 19  2  0
 18 20  1  0
 17  2  2  0
 11  6  1  0
 16 12  1  0
  1 21  1  0
  1 22  1  0
  3 23  1  0
  5 24  1  0
  7 25  1  0
  8 26  1  0
  9 27  1  0
 10 28  1  0
 11 29  1  0
M  CHG  2  18   1  20  -1
M  END
$$$$
