
     RDKit          3D

 49 52  0  0  0  0  0  0  0  0999 V2000
    0.6575   -3.0691    2.8847 N   0  0  0  0  0  0  0  0  0  0  0  0
   -0.2912   -3.1962    1.9399 C   0  0  0  0  0  0  0  0  0  0  0  0
   -1.0149   -4.2681    1.8209 N   0  0  0  0  0  0  0  0  0  0  0  0
   -1.8715   -3.9891    0.6414 C   0  0  0  0  0  0  0  0  0  0  0  0
   -1.6964   -2.4942    0.2998 C   0  0  0  0  0  0  0  0  0  0  0  0
   -2.9312   -1.6860    0.7309 C   0  0  0  0  0  0  0  0  0  0  0  0
   -2.9258   -0.2570    0.2360 C   0  0  0  0  0  0  0  0  0  0  0  0
   -3.1927    0.0308   -1.1111 C   0  0  0  0  0  0  0  0  0  0  0  0
   -3.2124    1.3515   -1.5649 C   0  0  0  0  0  0  0  0  0  0  0  0
   -2.9664    2.3858   -0.6689 C   0  0  0  0  0  0  0  0  0  0  0  0
   -2.9760    3.6887   -1.0705 O   0  0  0  0  0  0  0  0  0  0  0  0
   -2.6947    2.1204    0.6675 C   0  0  0  0  0  0  0  0  0  0  0  0
   -2.6722    0.8002    1.1202 C   0  0  0  0  0  0  0  0  0  0  0  0
   -0.5235   -2.1329    1.1148 N   0  0  0  0  0  0  0  0  0  0  0  0
    0.5813   -1.4789    0.3955 C   0  0  0  0  0  0  0  0  0  0  0  0
    1.2310   -0.3640    1.2214 C   0  0  0  0  0  0  0  0  0  0  0  0
    2.3969    0.2702    0.4840 C   0  0  0  0  0  0  0  0  0  0  0  0
    3.6753   -0.2739    0.7074 C   0  0  0  0  0  0  0  0  0  0  0  0
    4.7926    0.2397    0.0593 C   0  0  0  0  0  0  0  0  0  0  0  0
    4.6503    1.3033   -0.8264 C   0  0  0  0  0  0  0  0  0  0  0  0
    3.3910    1.8654   -1.0804 C   0  0  0  0  0  0  0  0  0  0  0  0
    3.2705    2.9375   -1.9806 C   0  0  0  0  0  0  0  0  0  0  0  0
    2.0307    3.5134   -2.2501 C   0  0  0  0  0  0  0  0  0  0  0  0
    0.8945    3.0202   -1.6250 C   0  0  0  0  0  0  0  0  0  0  0  0
    0.9984    1.9517   -0.7310 C   0  0  0  0  0  0  0  0  0  0  0  0
    2.2405    1.3505   -0.4287 C   0  0  0  0  0  0  0  0  0  0  0  0
    0.5703   -2.1977    3.3908 H   0  0  0  0  0  0  0  0  0  0  0  0
    0.6086   -3.8551    3.5252 H   0  0  0  0  0  0  0  0  0  0  0  0
   -2.9105   -4.2573    0.8580 H   0  0  0  0  0  0  0  0  0  0  0  0
   -1.5276   -4.6138   -0.1913 H   0  0  0  0  0  0  0  0  0  0  0  0
   -1.5173   -2.3894   -0.7773 H   0  0  0  0  0  0  0  0  0  0  0  0
   -3.0351   -1.6978    1.8241 H   0  0  0  0  0  0  0  0  0  0  0  0
   -3.8404   -2.1628    0.3406 H   0  0  0  0  0  0  0  0  0  0  0  0
   -3.3974   -0.7728   -1.8150 H   0  0  0  0  0  0  0  0  0  0  0  0
   -3.4214    1.5503   -2.6112 H   0  0  0  0  0  0  0  0  0  0  0  0
   -3.2653    3.7240   -1.9970 H   0  0  0  0  0  0  0  0  0  0  0  0
   -2.5002    2.9379    1.3559 H   0  0  0  0  0  0  0  0  0  0  0  0
   -2.4579    0.6017    2.1681 H   0  0  0  0  0  0  0  0  0  0  0  0
    0.2084   -1.0411   -0.5390 H   0  0  0  0  0  0  0  0  0  0  0  0
    1.3253   -2.2310    0.1016 H   0  0  0  0  0  0  0  0  0  0  0  0
    0.4915    0.3927    1.5057 H   0  0  0  0  0  0  0  0  0  0  0  0
    1.6022   -0.7492    2.1771 H   0  0  0  0  0  0  0  0  0  0  0  0
    3.8038   -1.1091    1.3941 H   0  0  0  0  0  0  0  0  0  0  0  0
    5.7744   -0.1881    0.2436 H   0  0  0  0  0  0  0  0  0  0  0  0
    5.5370    1.6923   -1.3222 H   0  0  0  0  0  0  0  0  0  0  0  0
    4.1506    3.3370   -2.4801 H   0  0  0  0  0  0  0  0  0  0  0  0
    1.9552    4.3459   -2.9440 H   0  0  0  0  0  0  0  0  0  0  0  0
   -0.0773    3.4653   -1.8221 H   0  0  0  0  0  0  0  0  0  0  0  0
    0.0816    1.5982   -0.2688 H   0  0  0  0  0  0  0  0  0  0  0  0
  1  2  1  0
  2  3  2  0
  3  4  1  0
  4  5  1  0
  5  6  1  0
  6  7  1  0
  7  8  2  0
  8  9  1  0
  9 10  2  0
 10 11  1  0
 10 12  1  0
 12 13  2  0
  5 14  1  0
 14 15  1  0
 15 16  1  0
 16 17  1  0
 17 18  2  0
 18 19  1  0
 19 20  2  0
 20 21  1  0
 21 22  2  0
 22 23  1  0
 23 24  2  0
 24 25  1  0
 25 26  2  0
 14  2  1  0
 26 17  1  0
 13  7  1  0
 26 21  1  0
  1 27  1  0
  1 28  1  0
  4 29  1  0
  4 30  1  0
  5 31  1  0
  6 32  1  0
  6 33  1  0
  8 34  1  0
  9 35  1  0
 11 36  1  0
 12 37  1  0
 13 38  1  0
 15 39  1  0
 15 40  1  0
 16 41  1  0
 16 42  1  0
 18 43  1  0
 19 44  1  0
 20 45  1  0
 22 46  1  0
 23 47  1  0
 24 48  1  0
 25 49  1  0
M  END
$$$$
