
     RDKit          3D

 43 44  0  0  0  0  0  0  0  0999 V2000
   -5.2084    2.7794    1.0942 C   0  0  0  0  0  0  0  0  0  0  0  0
   -4.7393    2.5570   -0.3314 C   0  0  0  0  0  0  0  0  0  0  0  0
   -3.5107    1.8194   -0.3385 O   0  0  0  0  0  0  0  0  0  0  0  0
   -3.6224    0.4571   -0.3097 C   0  0  0  0  0  0  0  0  0  0  0  0
   -4.6927   -0.1393   -0.2619 O   0  0  0  0  0  0  0  0  0  0  0  0
   -2.3205   -0.2314   -0.3369 C   0  0  0  0  0  0  0  0  0  0  0  0
   -1.1777    0.4422   -0.5336 N   0  0  0  0  0  0  0  0  0  0  0  0
   -0.1812   -0.4762   -0.5143 N   0  0  0  0  0  0  0  0  0  0  0  0
    1.1712   -0.0086   -0.5367 C   0  0  0  0  0  0  0  0  0  0  0  0
    2.2556   -0.8085   -0.1622 C   0  0  0  0  0  0  0  0  0  0  0  0
    3.5652   -0.3021   -0.1943 C   0  0  0  0  0  0  0  0  0  0  0  0
    3.8091    1.0103   -0.5921 C   0  0  0  0  0  0  0  0  0  0  0  0
    5.0257    1.6257   -0.6630 O   0  0  0  0  0  0  0  0  0  0  0  0
    6.2059    0.8442   -0.4864 C   0  0  0  0  0  0  0  0  0  0  0  0
    6.6190    0.8176    0.9748 C   0  0  0  0  0  0  0  0  0  0  0  0
    2.7280    1.8204   -0.9374 C   0  0  0  0  0  0  0  0  0  0  0  0
    1.4215    1.3227   -0.9066 C   0  0  0  0  0  0  0  0  0  0  0  0
   -0.7002   -1.7647   -0.4625 C   0  0  0  0  0  0  0  0  0  0  0  0
    0.0868   -3.0146   -0.6524 C   0  0  0  0  0  0  0  0  0  0  0  0
   -2.0679   -1.6268   -0.2332 C   0  0  0  0  0  0  0  0  0  0  0  0
   -3.0090   -2.7212   -0.0067 C   0  0  0  0  0  0  0  0  0  0  0  0
   -4.0252   -2.6022    1.1013 C   0  0  0  0  0  0  0  0  0  0  0  0
   -2.9497   -3.7582   -0.6677 O   0  0  0  0  0  0  0  0  0  0  0  0
   -4.4311    3.2801    1.6808 H   0  0  0  0  0  0  0  0  0  0  0  0
   -5.4192    1.8277    1.5920 H   0  0  0  0  0  0  0  0  0  0  0  0
   -6.1144    3.3916    1.1133 H   0  0  0  0  0  0  0  0  0  0  0  0
   -4.5359    3.5224   -0.8061 H   0  0  0  0  0  0  0  0  0  0  0  0
   -5.5075    2.0588   -0.9339 H   0  0  0  0  0  0  0  0  0  0  0  0
    2.1322   -1.8186    0.2084 H   0  0  0  0  0  0  0  0  0  0  0  0
    4.3680   -0.9604    0.1205 H   0  0  0  0  0  0  0  0  0  0  0  0
    6.9958    1.3431   -1.0595 H   0  0  0  0  0  0  0  0  0  0  0  0
    6.1148   -0.1604   -0.9138 H   0  0  0  0  0  0  0  0  0  0  0  0
    6.7453    1.8367    1.3554 H   0  0  0  0  0  0  0  0  0  0  0  0
    7.5613    0.2767    1.1001 H   0  0  0  0  0  0  0  0  0  0  0  0
    5.8574    0.3396    1.5978 H   0  0  0  0  0  0  0  0  0  0  0  0
    2.9007    2.8520   -1.2357 H   0  0  0  0  0  0  0  0  0  0  0  0
    0.6091    1.9909   -1.1886 H   0  0  0  0  0  0  0  0  0  0  0  0
    0.8885   -2.8800   -1.3847 H   0  0  0  0  0  0  0  0  0  0  0  0
   -0.5337   -3.8260   -1.0421 H   0  0  0  0  0  0  0  0  0  0  0  0
    0.5076   -3.3535    0.2990 H   0  0  0  0  0  0  0  0  0  0  0  0
   -3.9733   -3.5012    1.7230 H   0  0  0  0  0  0  0  0  0  0  0  0
   -3.8208   -1.7426    1.7447 H   0  0  0  0  0  0  0  0  0  0  0  0
   -5.0274   -2.5190    0.6743 H   0  0  0  0  0  0  0  0  0  0  0  0
  1  2  1  0
  2  3  1  0
  3  4  1  0
  4  5  2  0
  4  6  1  0
  6  7  2  0
  7  8  1  0
  8  9  1  0
  9 10  2  0
 10 11  1  0
 11 12  2  0
 12 13  1  0
 13 14  1  0
 14 15  1  0
 12 16  1  0
 16 17  2  0
  8 18  1  0
 18 19  1  0
 18 20  2  0
 20 21  1  0
 21 22  1  0
 21 23  2  0
 20  6  1  0
 17  9  1  0
  1 24  1  0
  1 25  1  0
  1 26  1  0
  2 27  1  0
  2 28  1  0
 10 29  1  0
 11 30  1  0
 14 31  1  0
 14 32  1  0
 15 33  1  0
 15 34  1  0
 15 35  1  0
 16 36  1  0
 17 37  1  0
 19 38  1  0
 19 39  1  0
 19 40  1  0
 22 41  1  0
 22 42  1  0
 22 43  1  0
M  END
$$$$
