
     RDKit          3D

 50 52  0  0  0  0  0  0  0  0999 V2000
    4.6342    3.3491   -2.5621 C   0  0  0  0  0  0  0  0  0  0  0  0
    3.7434    2.2781   -2.2727 O   0  0  0  0  0  0  0  0  0  0  0  0
    4.2434    1.2361   -1.5239 C   0  0  0  0  0  0  0  0  0  0  0  0
    5.5610    1.1390   -1.0669 C   0  0  0  0  0  0  0  0  0  0  0  0
    5.9607    0.0327   -0.3146 C   0  0  0  0  0  0  0  0  0  0  0  0
    5.0499   -0.9787   -0.0199 C   0  0  0  0  0  0  0  0  0  0  0  0
    3.7328   -0.8922   -0.4741 C   0  0  0  0  0  0  0  0  0  0  0  0
    3.3201    0.2090   -1.2265 C   0  0  0  0  0  0  0  0  0  0  0  0
    2.0082    0.3708   -1.7254 N   0  0  0  0  0  0  0  0  0  0  0  0
    0.9253   -0.4745   -1.5815 C   0  0  0  0  0  0  0  0  0  0  0  0
    0.9191   -1.5495   -0.9872 O   0  0  0  0  0  0  0  0  0  0  0  0
   -0.3324    0.0524   -2.2888 C   0  0  0  0  0  0  0  0  0  0  0  0
   -1.5569   -0.3533   -1.6810 O   0  0  0  0  0  0  0  0  0  0  0  0
   -1.8148    0.2706   -0.5028 C   0  0  0  0  0  0  0  0  0  0  0  0
   -1.1375    1.1393    0.0189 O   0  0  0  0  0  0  0  0  0  0  0  0
   -3.1026   -0.2335    0.0190 C   0  0  0  0  0  0  0  0  0  0  0  0
   -4.2265   -0.0314   -0.8048 C   0  0  0  0  0  0  0  0  0  0  0  0
   -5.4934   -0.4151   -0.3570 C   0  0  0  0  0  0  0  0  0  0  0  0
   -6.6642   -0.2002   -1.2145 N   0  0  0  0  0  4  0  0  0  0  0  0
   -6.4945    0.4230   -2.2720 O   0  0  0  0  0  0  0  0  0  0  0  0
   -7.7526   -0.6492   -0.8289 O   0  0  0  0  0  1  0  0  0  0  0  0
   -5.6533   -0.9869    0.9060 C   0  0  0  0  0  0  0  0  0  0  0  0
   -4.5297   -1.1769    1.7155 C   0  0  0  0  0  0  0  0  0  0  0  0
   -3.2321   -0.8185    1.2955 C   0  0  0  0  0  0  0  0  0  0  0  0
   -2.2094   -1.0939    2.2000 N   0  0  0  0  0  0  0  0  0  0  0  0
   -1.7926    0.0378    3.0417 C   0  0  0  0  0  0  0  0  0  0  0  0
   -0.3909   -0.3494    3.4996 C   0  0  0  0  0  0  0  0  0  0  0  0
    0.1721   -1.0514    2.2767 C   0  0  0  0  0  0  0  0  0  0  0  0
   -1.0227   -1.8415    1.7490 C   0  0  0  0  0  0  0  0  0  0  0  0
    4.9851    3.8317   -1.6438 H   0  0  0  0  0  0  0  0  0  0  0  0
    4.0798    4.0964   -3.1378 H   0  0  0  0  0  0  0  0  0  0  0  0
    5.4738    3.0093   -3.1791 H   0  0  0  0  0  0  0  0  0  0  0  0
    6.3024    1.9000   -1.2822 H   0  0  0  0  0  0  0  0  0  0  0  0
    6.9869   -0.0418    0.0396 H   0  0  0  0  0  0  0  0  0  0  0  0
    5.3621   -1.8404    0.5656 H   0  0  0  0  0  0  0  0  0  0  0  0
    3.0520   -1.6987   -0.2194 H   0  0  0  0  0  0  0  0  0  0  0  0
    1.8800    1.2449   -2.2276 H   0  0  0  0  0  0  0  0  0  0  0  0
   -0.3077    1.1429   -2.3953 H   0  0  0  0  0  0  0  0  0  0  0  0
   -0.3236   -0.3683   -3.3009 H   0  0  0  0  0  0  0  0  0  0  0  0
   -4.0982    0.4325   -1.7813 H   0  0  0  0  0  0  0  0  0  0  0  0
   -6.6312   -1.2910    1.2773 H   0  0  0  0  0  0  0  0  0  0  0  0
   -4.6579   -1.6322    2.6979 H   0  0  0  0  0  0  0  0  0  0  0  0
   -1.7596    0.9790    2.4825 H   0  0  0  0  0  0  0  0  0  0  0  0
   -2.4673    0.1647    3.8943 H   0  0  0  0  0  0  0  0  0  0  0  0
   -0.4464   -1.0484    4.3428 H   0  0  0  0  0  0  0  0  0  0  0  0
    0.2036    0.5152    3.8072 H   0  0  0  0  0  0  0  0  0  0  0  0
    1.0253   -1.6939    2.5108 H   0  0  0  0  0  0  0  0  0  0  0  0
    0.4994   -0.3103    1.5398 H   0  0  0  0  0  0  0  0  0  0  0  0
   -1.0495   -2.8305    2.2222 H   0  0  0  0  0  0  0  0  0  0  0  0
   -0.9729   -2.0029    0.6699 H   0  0  0  0  0  0  0  0  0  0  0  0
  1  2  1  0
  2  3  1  0
  3  4  2  0
  4  5  1  0
  5  6  2  0
  6  7  1  0
  7  8  2  0
  8  9  1  0
  9 10  1  0
 10 11  2  0
 10 12  1  0
 12 13  1  0
 13 14  1  0
 14 15  2  0
 14 16  1  0
 16 17  2  0
 17 18  1  0
 18 19  1  0
 19 20  2  0
 19 21  1  0
 18 22  2  0
 22 23  1  0
 23 24  2  0
 24 25  1  0
 25 26  1  0
 26 27  1  0
 27 28  1  0
 28 29  1  0
  8  3  1  0
 24 16  1  0
 29 25  1  0
  1 30  1  0
  1 31  1  0
  1 32  1  0
  4 33  1  0
  5 34  1  0
  6 35  1  0
  7 36  1  0
  9 37  1  0
 12 38  1  0
 12 39  1  0
 17 40  1  0
 22 41  1  0
 23 42  1  0
 26 43  1  0
 26 44  1  0
 27 45  1  0
 27 46  1  0
 28 47  1  0
 28 48  1  0
 29 49  1  0
 29 50  1  0
M  CHG  2  19   1  21  -1
M  END
$$$$
