
     RDKit          3D

 44 45  0  0  0  0  0  0  0  0999 V2000
    5.9540   -3.8621    1.5076 C   0  0  0  0  0  0  0  0  0  0  0  0
    5.2878   -2.5915    1.0667 C   0  0  0  0  0  0  0  0  0  0  0  0
    4.2940   -2.6268    0.0778 C   0  0  0  0  0  0  0  0  0  0  0  0
    3.6890   -1.4490   -0.3743 C   0  0  0  0  0  0  0  0  0  0  0  0
    4.0603   -0.2184    0.1671 C   0  0  0  0  0  0  0  0  0  0  0  0
    3.5082    0.9189   -0.3529 O   0  0  0  0  0  0  0  0  0  0  0  0
    2.2530    1.2301    0.2506 C   0  0  0  0  0  0  0  0  0  0  0  0
    1.0445    0.9609   -0.6547 C   0  0  0  0  0  0  0  0  0  0  0  0
    1.1094    0.2567   -1.6584 O   0  0  0  0  0  0  0  0  0  0  0  0
   -0.1043    1.5862   -0.1904 N   0  0  0  0  0  0  0  0  0  0  0  0
   -1.3325    1.5055   -0.8177 C   0  0  0  0  0  0  0  0  0  0  0  0
   -1.7501    0.8229   -1.9817 C   0  0  0  0  0  0  0  0  0  0  0  0
   -3.0482    1.0117   -2.2438 N   0  0  0  0  0  0  0  0  0  0  0  0
   -3.4562    1.8219   -1.2521 N   0  0  0  0  0  0  0  0  0  0  0  0
   -4.8340    2.2708   -1.2129 C   0  0  0  0  0  0  0  0  0  0  0  0
   -5.7176    1.4353   -0.2905 C   0  0  0  0  0  0  0  0  0  0  0  0
   -5.9004   -0.0040   -0.7764 C   0  0  0  0  0  0  0  0  0  0  0  0
   -6.8803   -0.7496    0.0879 C   0  0  0  0  0  0  0  0  0  0  0  0
   -7.4749   -0.3253    1.0641 O   0  0  0  0  0  0  0  0  0  0  0  0
   -7.0661   -2.0149   -0.3336 O   0  0  0  0  0  0  0  0  0  0  0  0
   -2.4648    2.1436   -0.3677 C   0  0  0  0  0  0  0  0  0  0  0  0
    5.0665   -0.1812    1.1344 C   0  0  0  0  0  0  0  0  0  0  0  0
    5.4858    1.0829    1.7110 N   0  0  0  0  0  4  0  0  0  0  0  0
    6.7032    1.3057    1.7649 O   0  0  0  0  0  0  0  0  0  0  0  0
    4.6020    1.8293    2.1577 O   0  0  0  0  0  1  0  0  0  0  0  0
    5.6873   -1.3547    1.5872 C   0  0  0  0  0  0  0  0  0  0  0  0
    6.4728   -3.7275    2.4622 H   0  0  0  0  0  0  0  0  0  0  0  0
    6.6833   -4.1822    0.7566 H   0  0  0  0  0  0  0  0  0  0  0  0
    5.2120   -4.6552    1.6480 H   0  0  0  0  0  0  0  0  0  0  0  0
    3.9936   -3.5762   -0.3629 H   0  0  0  0  0  0  0  0  0  0  0  0
    2.9412   -1.4983   -1.1642 H   0  0  0  0  0  0  0  0  0  0  0  0
    2.2730    2.3035    0.4730 H   0  0  0  0  0  0  0  0  0  0  0  0
    2.0955    0.6988    1.1995 H   0  0  0  0  0  0  0  0  0  0  0  0
   -0.0598    2.1571    0.6440 H   0  0  0  0  0  0  0  0  0  0  0  0
   -1.1685    0.1987   -2.6487 H   0  0  0  0  0  0  0  0  0  0  0  0
   -4.8172    3.3122   -0.8720 H   0  0  0  0  0  0  0  0  0  0  0  0
   -5.2208    2.2693   -2.2388 H   0  0  0  0  0  0  0  0  0  0  0  0
   -5.3022    1.4295    0.7255 H   0  0  0  0  0  0  0  0  0  0  0  0
   -6.6994    1.9215   -0.2223 H   0  0  0  0  0  0  0  0  0  0  0  0
   -4.9468   -0.5409   -0.7425 H   0  0  0  0  0  0  0  0  0  0  0  0
   -6.2812   -0.0059   -1.8036 H   0  0  0  0  0  0  0  0  0  0  0  0
   -7.7145   -2.3897    0.2984 H   0  0  0  0  0  0  0  0  0  0  0  0
   -2.6536    2.7861    0.4805 H   0  0  0  0  0  0  0  0  0  0  0  0
    6.4768   -1.3056    2.3349 H   0  0  0  0  0  0  0  0  0  0  0  0
  1  2  1  0
  2  3  2  0
  3  4  1  0
  4  5  2  0
  5  6  1  0
  6  7  1  0
  7  8  1  0
  8  9  2  0
  8 10  1  0
 10 11  1  0
 11 12  1  0
 12 13  2  0
 13 14  1  0
 14 15  1  0
 15 16  1  0
 16 17  1  0
 17 18  1  0
 18 19  2  0
 18 20  1  0
 14 21  1  0
  5 22  1  0
 22 23  1  0
 23 24  2  0
 23 25  1  0
 22 26  2  0
 26  2  1  0
 21 11  2  0
  1 27  1  0
  1 28  1  0
  1 29  1  0
  3 30  1  0
  4 31  1  0
  7 32  1  0
  7 33  1  0
 10 34  1  0
 12 35  1  0
 15 36  1  0
 15 37  1  0
 16 38  1  0
 16 39  1  0
 17 40  1  0
 17 41  1  0
 20 42  1  0
 21 43  1  0
 26 44  1  0
M  CHG  2  23   1  25  -1
M  END
$$$$
