
     RDKit          3D

 25 26  0  0  0  0  0  0  0  0999 V2000
    3.8960   -1.4956   -0.3163 C   0  0  0  0  0  0  0  0  0  0  0  0
    3.3416   -0.1610   -0.0275 C   0  0  0  0  0  0  0  0  0  0  0  0
    4.2285    0.8524    0.2140 O   0  0  0  0  0  0  0  0  0  0  0  0
    3.4400    1.9368    0.4429 C   0  0  0  0  0  0  0  0  0  0  0  0
    2.1462    1.7159    0.3715 N   0  0  0  0  0  0  0  0  0  0  0  0
    2.0674    0.3607    0.0674 C   0  0  0  0  0  0  0  0  0  0  0  0
    0.8030   -0.3496   -0.1128 C   0  0  0  0  0  0  0  0  0  0  0  0
    0.7625   -1.5442   -0.3804 O   0  0  0  0  0  0  0  0  0  0  0  0
   -0.2723    0.4997    0.0587 N   0  0  0  0  0  0  0  0  0  0  0  0
   -1.6425    0.2037   -0.0307 C   0  0  0  0  0  0  0  0  0  0  0  0
   -2.5389    1.2582    0.1896 C   0  0  0  0  0  0  0  0  0  0  0  0
   -3.9193    1.0473    0.1190 C   0  0  0  0  0  0  0  0  0  0  0  0
   -4.4095   -0.2220   -0.1729 C   0  0  0  0  0  0  0  0  0  0  0  0
   -6.1067   -0.4856   -0.2606 Cl  0  0  0  0  0  0  0  0  0  0  0  0
   -3.5302   -1.2782   -0.3939 C   0  0  0  0  0  0  0  0  0  0  0  0
   -2.1484   -1.0652   -0.3228 C   0  0  0  0  0  0  0  0  0  0  0  0
    3.5511   -2.2227    0.4252 H   0  0  0  0  0  0  0  0  0  0  0  0
    3.5806   -1.8356   -1.3074 H   0  0  0  0  0  0  0  0  0  0  0  0
    4.9903   -1.4846   -0.2952 H   0  0  0  0  0  0  0  0  0  0  0  0
    3.9494    2.8657    0.6591 H   0  0  0  0  0  0  0  0  0  0  0  0
   -0.0084    1.4575    0.2772 H   0  0  0  0  0  0  0  0  0  0  0  0
   -2.1761    2.2573    0.4190 H   0  0  0  0  0  0  0  0  0  0  0  0
   -4.6016    1.8751    0.2924 H   0  0  0  0  0  0  0  0  0  0  0  0
   -3.9072   -2.2717   -0.6223 H   0  0  0  0  0  0  0  0  0  0  0  0
   -1.4958   -1.9143   -0.5014 H   0  0  0  0  0  0  0  0  0  0  0  0
  1  2  1  0
  2  3  1  0
  3  4  1  0
  4  5  2  0
  5  6  1  0
  6  7  1  0
  7  8  2  0
  7  9  1  0
  9 10  1  0
 10 11  2  0
 11 12  1  0
 12 13  2  0
 13 14  1  0
 13 15  1  0
 15 16  2  0
  6  2  2  0
 16 10  1  0
  1 17  1  0
  1 18  1  0
  1 19  1  0
  4 20  1  0
  9 21  1  0
 11 22  1  0
 12 23  1  0
 15 24  1  0
 16 25  1  0
M  END
$$$$
