
     RDKit          3D

 53 55  0  0  0  0  0  0  0  0999 V2000
    2.4324   -1.3932    2.8837 C   0  0  0  0  0  0  0  0  0  0  0  0
    3.4290   -0.5764    2.2815 O   0  0  0  0  0  0  0  0  0  0  0  0
    3.1881   -0.1391    1.0061 C   0  0  0  0  0  0  0  0  0  0  0  0
    1.9970   -0.3125    0.3047 C   0  0  0  0  0  0  0  0  0  0  0  0
    1.8718    0.1982   -0.9949 C   0  0  0  0  0  0  0  0  0  0  0  0
    0.6112    0.0297   -1.7447 C   0  0  0  0  0  0  0  0  0  0  0  0
   -0.4080   -0.5936   -1.2404 N   0  0  0  0  0  0  0  0  0  0  0  0
   -1.5151   -0.6408   -2.0617 N   0  0  0  0  0  0  0  0  0  0  0  0
   -2.4015   -1.7849   -1.7994 C   0  0  0  0  0  0  0  0  0  0  0  0
   -3.3588   -1.5280   -0.6193 C   0  0  0  0  0  0  0  0  0  0  0  0
   -4.1143   -0.2573   -0.8213 N   0  0  0  0  0  0  0  0  0  0  0  0
   -5.1744   -0.0897    0.0836 C   0  0  0  0  0  0  0  0  0  0  0  0
   -6.2432   -1.0040    0.0655 C   0  0  0  0  0  0  0  0  0  0  0  0
   -7.3323   -0.8828    0.9352 C   0  0  0  0  0  0  0  0  0  0  0  0
   -7.3728    0.1690    1.8416 C   0  0  0  0  0  0  0  0  0  0  0  0
   -8.7066    0.3271    2.9157 Cl  0  0  0  0  0  0  0  0  0  0  0  0
   -6.3385    1.0971    1.8778 C   0  0  0  0  0  0  0  0  0  0  0  0
   -5.2530    0.9686    1.0015 C   0  0  0  0  0  0  0  0  0  0  0  0
   -3.2082    0.8958   -1.0534 C   0  0  0  0  0  0  0  0  0  0  0  0
   -2.2673    0.6159   -2.2422 C   0  0  0  0  0  0  0  0  0  0  0  0
    2.9253    0.8891   -1.6087 C   0  0  0  0  0  0  0  0  0  0  0  0
    4.1244    1.0710   -0.9215 C   0  0  0  0  0  0  0  0  0  0  0  0
    5.2177    1.7427   -1.4009 O   0  0  0  0  0  0  0  0  0  0  0  0
    5.2177    2.0801   -2.7820 C   0  0  0  0  0  0  0  0  0  0  0  0
    4.2394    0.5451    0.3757 C   0  0  0  0  0  0  0  0  0  0  0  0
    5.4326    0.7441    1.0833 O   0  0  0  0  0  0  0  0  0  0  0  0
    6.3444   -0.2736    0.8457 C   0  0  0  0  0  0  0  0  0  0  0  0
    7.5855    0.0016    1.6419 C   0  0  0  0  0  0  0  0  0  0  0  0
    6.2010   -1.2475    0.1166 O   0  0  0  0  0  0  0  0  0  0  0  0
    2.2473   -2.2956    2.2915 H   0  0  0  0  0  0  0  0  0  0  0  0
    2.8060   -1.7085    3.8626 H   0  0  0  0  0  0  0  0  0  0  0  0
    1.5083   -0.8290    3.0464 H   0  0  0  0  0  0  0  0  0  0  0  0
    1.1513   -0.8335    0.7421 H   0  0  0  0  0  0  0  0  0  0  0  0
    0.5757    0.4514   -2.7658 H   0  0  0  0  0  0  0  0  0  0  0  0
   -2.9779   -1.9563   -2.7164 H   0  0  0  0  0  0  0  0  0  0  0  0
   -1.7887   -2.6753   -1.6205 H   0  0  0  0  0  0  0  0  0  0  0  0
   -2.7863   -1.4625    0.3153 H   0  0  0  0  0  0  0  0  0  0  0  0
   -4.0298   -2.3903   -0.5397 H   0  0  0  0  0  0  0  0  0  0  0  0
   -6.2462   -1.8156   -0.6585 H   0  0  0  0  0  0  0  0  0  0  0  0
   -8.1409   -1.6064    0.8893 H   0  0  0  0  0  0  0  0  0  0  0  0
   -6.3644    1.9236    2.5824 H   0  0  0  0  0  0  0  0  0  0  0  0
   -4.4631    1.7101    1.0708 H   0  0  0  0  0  0  0  0  0  0  0  0
   -2.6061    1.0878   -0.1561 H   0  0  0  0  0  0  0  0  0  0  0  0
   -3.7906    1.7958   -1.2844 H   0  0  0  0  0  0  0  0  0  0  0  0
   -2.8510    0.5055   -3.1640 H   0  0  0  0  0  0  0  0  0  0  0  0
   -1.5721    1.4485   -2.3890 H   0  0  0  0  0  0  0  0  0  0  0  0
    2.7866    1.2795   -2.6108 H   0  0  0  0  0  0  0  0  0  0  0  0
    5.0785    1.1930   -3.4090 H   0  0  0  0  0  0  0  0  0  0  0  0
    4.4603    2.8404   -2.9985 H   0  0  0  0  0  0  0  0  0  0  0  0
    6.1961    2.5074   -3.0217 H   0  0  0  0  0  0  0  0  0  0  0  0
    7.3461    0.0153    2.7082 H   0  0  0  0  0  0  0  0  0  0  0  0
    8.3164   -0.7913    1.4589 H   0  0  0  0  0  0  0  0  0  0  0  0
    8.0212    0.9546    1.3316 H   0  0  0  0  0  0  0  0  0  0  0  0
  1  2  1  0
  2  3  1  0
  3  4  2  0
  4  5  1  0
  5  6  1  0
  6  7  2  3
  7  8  1  0
  8  9  1  0
  9 10  1  0
 10 11  1  0
 11 12  1  0
 12 13  2  0
 13 14  1  0
 14 15  2  0
 15 16  1  0
 15 17  1  0
 17 18  2  0
 11 19  1  0
 19 20  1  0
  5 21  2  0
 21 22  1  0
 22 23  1  0
 23 24  1  0
 22 25  2  0
 25 26  1  0
 26 27  1  0
 27 28  1  0
 27 29  2  0
 25  3  1  0
 20  8  1  0
 18 12  1  0
  1 30  1  0
  1 31  1  0
  1 32  1  0
  4 33  1  0
  6 34  1  0
  9 35  1  0
  9 36  1  0
 10 37  1  0
 10 38  1  0
 13 39  1  0
 14 40  1  0
 17 41  1  0
 18 42  1  0
 19 43  1  0
 19 44  1  0
 20 45  1  0
 20 46  1  0
 21 47  1  0
 24 48  1  0
 24 49  1  0
 24 50  1  0
 28 51  1  0
 28 52  1  0
 28 53  1  0
M  END
$$$$
