
     RDKit          3D

 58 60  0  0  0  0  0  0  0  0999 V2000
    7.5756    0.0765    1.4080 C   0  0  0  0  0  0  0  0  0  0  0  0
    6.2083   -0.4529    1.0663 C   0  0  0  0  0  0  0  0  0  0  0  0
    5.7136   -0.2814   -0.2393 C   0  0  0  0  0  0  0  0  0  0  0  0
    4.4528   -0.7679   -0.6199 C   0  0  0  0  0  0  0  0  0  0  0  0
    3.9964   -0.5757   -2.0380 C   0  0  0  0  0  0  0  0  0  0  0  0
    3.6707   -1.4075    0.3527 C   0  0  0  0  0  0  0  0  0  0  0  0
    2.3034   -1.9059    0.0764 C   0  0  0  0  0  0  0  0  0  0  0  0
    2.0718   -3.1033    0.2223 O   0  0  0  0  0  0  0  0  0  0  0  0
    1.2696   -0.8878   -0.3580 C   0  0  0  0  0  0  0  0  0  0  0  0
   -0.2200   -1.0247    0.6722 S   0  0  0  0  0  0  0  0  0  0  0  0
   -1.3038    0.0464   -0.2083 C   0  0  0  0  0  0  0  0  0  0  0  0
   -0.7827    1.0312   -0.8665 N   0  0  0  0  0  0  0  0  0  0  0  0
   -1.5875    1.9258   -1.5010 C   0  0  0  0  0  0  0  0  0  0  0  0
   -1.0105    3.0055   -1.8962 N   0  0  0  0  0  0  0  0  0  0  0  0
   -3.0541    1.6794   -1.7380 C   0  0  0  0  0  0  0  0  0  0  0  0
   -3.1805    0.9353   -2.9959 C   0  0  0  0  0  0  0  0  0  0  0  0
   -3.2448    0.2808   -3.9524 N   0  0  0  0  0  0  0  0  0  0  0  0
   -3.6675    0.9697   -0.4934 C   0  0  0  0  0  0  0  0  0  0  0  0
   -3.6605    2.0211    0.6780 C   0  0  0  0  0  0  0  0  0  0  0  0
   -4.4774    1.6234    1.9080 C   0  0  0  0  0  0  0  0  0  0  0  0
   -5.9097    1.2699    1.5398 C   0  0  0  0  0  0  0  0  0  0  0  0
   -5.9497    0.1938    0.4655 C   0  0  0  0  0  0  0  0  0  0  0  0
   -5.1555    0.6050   -0.7746 C   0  0  0  0  0  0  0  0  0  0  0  0
   -2.7868   -0.2637   -0.0831 C   0  0  0  0  0  0  0  0  0  0  0  0
   -3.1562   -1.5990   -0.7309 C   0  0  0  0  0  0  0  0  0  0  0  0
   -2.5962   -1.9441   -1.9195 N   0  0  0  0  0  0  0  0  0  0  0  0
   -3.9650   -2.3653   -0.2122 O   0  0  0  0  0  0  0  0  0  0  0  0
    4.1619   -1.6099    1.6490 C   0  0  0  0  0  0  0  0  0  0  0  0
    5.4313   -1.1416    2.0168 C   0  0  0  0  0  0  0  0  0  0  0  0
    5.9195   -1.3663    3.4217 C   0  0  0  0  0  0  0  0  0  0  0  0
    7.5271    0.7241    2.2893 H   0  0  0  0  0  0  0  0  0  0  0  0
    7.9914    0.6743    0.5896 H   0  0  0  0  0  0  0  0  0  0  0  0
    8.2640   -0.7526    1.6001 H   0  0  0  0  0  0  0  0  0  0  0  0
    6.3305    0.2321   -0.9767 H   0  0  0  0  0  0  0  0  0  0  0  0
    3.3486    0.3033   -2.1121 H   0  0  0  0  0  0  0  0  0  0  0  0
    3.4587   -1.4578   -2.4008 H   0  0  0  0  0  0  0  0  0  0  0  0
    4.8491   -0.4298   -2.7106 H   0  0  0  0  0  0  0  0  0  0  0  0
    1.6697    0.1254   -0.2575 H   0  0  0  0  0  0  0  0  0  0  0  0
    1.0277   -1.0771   -1.4086 H   0  0  0  0  0  0  0  0  0  0  0  0
   -0.0244    2.9227   -1.6165 H   0  0  0  0  0  0  0  0  0  0  0  0
   -3.5400    2.6539   -1.8814 H   0  0  0  0  0  0  0  0  0  0  0  0
   -2.6353    2.2371    1.0021 H   0  0  0  0  0  0  0  0  0  0  0  0
   -4.0669    2.9727    0.3076 H   0  0  0  0  0  0  0  0  0  0  0  0
   -4.4825    2.4553    2.6224 H   0  0  0  0  0  0  0  0  0  0  0  0
   -4.0080    0.7793    2.4244 H   0  0  0  0  0  0  0  0  0  0  0  0
   -6.4472    0.9259    2.4306 H   0  0  0  0  0  0  0  0  0  0  0  0
   -6.4292    2.1669    1.1805 H   0  0  0  0  0  0  0  0  0  0  0  0
   -5.5633   -0.7431    0.8781 H   0  0  0  0  0  0  0  0  0  0  0  0
   -6.9914    0.0049    0.1808 H   0  0  0  0  0  0  0  0  0  0  0  0
   -5.2346   -0.1908   -1.5239 H   0  0  0  0  0  0  0  0  0  0  0  0
   -5.6564    1.4778   -1.2168 H   0  0  0  0  0  0  0  0  0  0  0  0
   -2.9502   -0.4531    0.9868 H   0  0  0  0  0  0  0  0  0  0  0  0
   -2.9532   -2.8047   -2.3236 H   0  0  0  0  0  0  0  0  0  0  0  0
   -2.2231   -1.2948   -2.6010 H   0  0  0  0  0  0  0  0  0  0  0  0
    3.5437   -2.1378    2.3745 H   0  0  0  0  0  0  0  0  0  0  0  0
    5.9792   -0.4134    3.9567 H   0  0  0  0  0  0  0  0  0  0  0  0
    6.9041   -1.8439    3.4154 H   0  0  0  0  0  0  0  0  0  0  0  0
    5.2455   -2.0235    3.9812 H   0  0  0  0  0  0  0  0  0  0  0  0
  1  2  1  0
  2  3  2  0
  3  4  1  0
  4  5  1  0
  4  6  2  0
  6  7  1  0
  7  8  2  0
  7  9  1  0
  9 10  1  0
 10 11  1  0
 11 12  2  0
 12 13  1  0
 13 14  2  3
 13 15  1  0
 15 16  1  0
 16 17  3  0
 15 18  1  0
 18 19  1  0
 19 20  1  0
 20 21  1  0
 21 22  1  0
 22 23  1  0
 18 24  1  0
 24 25  1  0
 25 26  1  0
 25 27  2  0
  6 28  1  0
 28 29  2  0
 29 30  1  0
 29  2  1  0
 24 11  1  0
 23 18  1  0
  1 31  1  0
  1 32  1  0
  1 33  1  0
  3 34  1  0
  5 35  1  0
  5 36  1  0
  5 37  1  0
  9 38  1  0
  9 39  1  0
 14 40  1  0
 15 41  1  0
 19 42  1  0
 19 43  1  0
 20 44  1  0
 20 45  1  0
 21 46  1  0
 21 47  1  0
 22 48  1  0
 22 49  1  0
 23 50  1  0
 23 51  1  0
 24 52  1  0
 26 53  1  0
 26 54  1  0
 28 55  1  0
 30 56  1  0
 30 57  1  0
 30 58  1  0
M  END
$$$$
