
     RDKit          3D

 39 41  0  0  0  0  0  0  0  0999 V2000
   -0.2061    0.6403    3.6736 S   0  0  0  0  0  0  0  0  0  0  0  0
   -0.0475    0.7364    2.0027 C   0  0  0  0  0  0  0  0  0  0  0  0
    0.9511    1.5576    1.5727 N   0  0  0  0  0  0  0  0  0  0  0  0
    1.7886    1.4309    0.3839 C   0  0  0  0  0  0  0  0  0  0  0  0
    2.4556    0.0560    0.2122 C   0  0  0  0  0  0  0  0  0  0  0  0
    3.4656   -0.2767    1.3047 C   0  0  0  0  0  0  0  0  0  0  0  0
    4.7715    0.1867    0.7096 C   0  0  0  0  0  0  0  0  0  0  0  0
    4.5785   -0.1423   -0.7520 C   0  0  0  0  0  0  0  0  0  0  0  0
    3.1881    0.0639   -1.0329 O   0  0  0  0  0  0  0  0  0  0  0  0
   -0.8212    0.0551    1.0802 N   0  0  0  0  0  0  0  0  0  0  0  0
   -1.6799   -1.0657    1.5130 C   0  0  0  0  0  0  0  0  0  0  0  0
   -2.2201   -1.9132    0.3622 C   0  0  0  0  0  0  0  0  0  0  0  0
   -2.9838   -1.0254   -0.5779 C   0  0  0  0  0  0  0  0  0  0  0  0
   -4.1568   -1.4497   -1.2090 C   0  0  0  0  0  0  0  0  0  0  0  0
   -4.8316   -0.5892   -2.0739 C   0  0  0  0  0  0  0  0  0  0  0  0
   -4.3319    0.6891   -2.3193 C   0  0  0  0  0  0  0  0  0  0  0  0
   -3.1519    1.1096   -1.7042 C   0  0  0  0  0  0  0  0  0  0  0  0
   -2.4721    0.2583   -0.8241 C   0  0  0  0  0  0  0  0  0  0  0  0
   -1.1478    0.6673   -0.2199 C   0  0  0  0  0  0  0  0  0  0  0  0
    1.4179    1.9951    2.3602 H   0  0  0  0  0  0  0  0  0  0  0  0
    2.5562    2.2111    0.4597 H   0  0  0  0  0  0  0  0  0  0  0  0
    1.2112    1.6979   -0.5041 H   0  0  0  0  0  0  0  0  0  0  0  0
    1.6943   -0.7281    0.1484 H   0  0  0  0  0  0  0  0  0  0  0  0
    3.2480    0.1754    2.2758 H   0  0  0  0  0  0  0  0  0  0  0  0
    3.5007   -1.3641    1.4469 H   0  0  0  0  0  0  0  0  0  0  0  0
    4.8775    1.2697    0.8414 H   0  0  0  0  0  0  0  0  0  0  0  0
    5.6484   -0.2998    1.1443 H   0  0  0  0  0  0  0  0  0  0  0  0
    5.1850    0.4859   -1.4100 H   0  0  0  0  0  0  0  0  0  0  0  0
    4.8110   -1.1928   -0.9574 H   0  0  0  0  0  0  0  0  0  0  0  0
   -1.1070   -1.7098    2.1898 H   0  0  0  0  0  0  0  0  0  0  0  0
   -2.5150   -0.6375    2.0835 H   0  0  0  0  0  0  0  0  0  0  0  0
   -1.4001   -2.3932   -0.1848 H   0  0  0  0  0  0  0  0  0  0  0  0
   -2.8678   -2.6997    0.7655 H   0  0  0  0  0  0  0  0  0  0  0  0
   -4.5530   -2.4457   -1.0278 H   0  0  0  0  0  0  0  0  0  0  0  0
   -5.7471   -0.9163   -2.5600 H   0  0  0  0  0  0  0  0  0  0  0  0
   -4.8574    1.3556   -2.9982 H   0  0  0  0  0  0  0  0  0  0  0  0
   -2.7637    2.1021   -1.9207 H   0  0  0  0  0  0  0  0  0  0  0  0
   -0.3755    0.3476   -0.9272 H   0  0  0  0  0  0  0  0  0  0  0  0
   -1.1118    1.7576   -0.1138 H   0  0  0  0  0  0  0  0  0  0  0  0
  1  2  2  0
  2  3  1  0
  3  4  1  0
  4  5  1  0
  5  6  1  0
  6  7  1  0
  7  8  1  0
  8  9  1  0
  2 10  1  0
 10 11  1  0
 11 12  1  0
 12 13  1  0
 13 14  2  0
 14 15  1  0
 15 16  2  0
 16 17  1  0
 17 18  2  0
 18 19  1  0
  9  5  1  0
 19 10  1  0
 18 13  1  0
  3 20  1  0
  4 21  1  0
  4 22  1  0
  5 23  1  0
  6 24  1  0
  6 25  1  0
  7 26  1  0
  7 27  1  0
  8 28  1  0
  8 29  1  0
 11 30  1  0
 11 31  1  0
 12 32  1  0
 12 33  1  0
 14 34  1  0
 15 35  1  0
 16 36  1  0
 17 37  1  0
 19 38  1  0
 19 39  1  0
M  END
$$$$
