
     RDKit          3D

 39 41  0  0  0  0  0  0  0  0999 V2000
   -4.6557    1.9264   -2.1218 C   0  0  0  0  0  0  0  0  0  0  0  0
   -4.0400    0.9634   -1.1515 C   0  0  0  0  0  0  0  0  0  0  0  0
   -2.6759    0.7443   -1.1548 C   0  0  0  0  0  0  0  0  0  0  0  0
   -2.1591   -0.1695   -0.2353 C   0  0  0  0  0  0  0  0  0  0  0  0
   -0.6961   -0.3917   -0.2412 C   0  0  0  0  0  0  0  0  0  0  0  0
   -0.2664   -1.4960   -0.5496 O   0  0  0  0  0  0  0  0  0  0  0  0
    0.0347    0.7373    0.1047 N   0  0  0  0  0  0  0  0  0  0  0  0
    1.3943    0.8834    0.0339 N   0  0  0  0  0  0  0  0  0  0  0  0
    2.1468   -0.1633    0.1503 C   0  0  0  0  0  0  0  0  0  0  0  0
    3.6173   -0.0662    0.0276 C   0  0  0  0  0  0  0  0  0  0  0  0
    4.3783   -1.2342    0.1541 C   0  0  0  0  0  0  0  0  0  0  0  0
    5.7692   -1.1778    0.0422 C   0  0  0  0  0  0  0  0  0  0  0  0
    6.4023    0.0434   -0.1965 C   0  0  0  0  0  0  0  0  0  0  0  0
    5.6334    1.2100   -0.3236 C   0  0  0  0  0  0  0  0  0  0  0  0
    6.3000    2.4937   -0.5755 N   0  0  0  0  0  4  0  0  0  0  0  0
    5.5900    3.5038   -0.6768 O   0  0  0  0  0  0  0  0  0  0  0  0
    7.5357    2.4913   -0.6708 O   0  0  0  0  0  1  0  0  0  0  0  0
    4.2384    1.1632   -0.2129 C   0  0  0  0  0  0  0  0  0  0  0  0
   -2.9992   -0.8643    0.6601 C   0  0  0  0  0  0  0  0  0  0  0  0
   -2.5568   -1.8139    1.6155 C   0  0  0  0  0  0  0  0  0  0  0  0
   -3.4580   -2.4451    2.4705 C   0  0  0  0  0  0  0  0  0  0  0  0
   -4.8082   -2.1376    2.3860 C   0  0  0  0  0  0  0  0  0  0  0  0
   -5.2473   -1.2023    1.4459 C   0  0  0  0  0  0  0  0  0  0  0  0
   -4.3708   -0.5599    0.5813 C   0  0  0  0  0  0  0  0  0  0  0  0
   -4.8717    0.3315   -0.2934 N   0  0  0  0  0  0  0  0  0  0  0  0
   -5.7397    1.9832   -1.9799 H   0  0  0  0  0  0  0  0  0  0  0  0
   -4.2400    2.9282   -1.9756 H   0  0  0  0  0  0  0  0  0  0  0  0
   -4.4628    1.6028   -3.1494 H   0  0  0  0  0  0  0  0  0  0  0  0
   -2.0325    1.2542   -1.8649 H   0  0  0  0  0  0  0  0  0  0  0  0
   -0.4572    1.6188    0.2220 H   0  0  0  0  0  0  0  0  0  0  0  0
    1.7563   -1.1691    0.3738 H   0  0  0  0  0  0  0  0  0  0  0  0
    3.8971   -2.1933    0.3356 H   0  0  0  0  0  0  0  0  0  0  0  0
    6.3596   -2.0868    0.1391 H   0  0  0  0  0  0  0  0  0  0  0  0
    7.4873    0.0695   -0.2817 H   0  0  0  0  0  0  0  0  0  0  0  0
    3.6364    2.0642   -0.3118 H   0  0  0  0  0  0  0  0  0  0  0  0
   -1.5028   -2.0756    1.6917 H   0  0  0  0  0  0  0  0  0  0  0  0
   -3.1052   -3.1753    3.1944 H   0  0  0  0  0  0  0  0  0  0  0  0
   -5.5241   -2.6226    3.0444 H   0  0  0  0  0  0  0  0  0  0  0  0
   -6.3080   -0.9679    1.3847 H   0  0  0  0  0  0  0  0  0  0  0  0
  1  2  1  0
  2  3  2  0
  3  4  1  0
  4  5  1  0
  5  6  2  0
  5  7  1  0
  7  8  1  0
  8  9  2  3
  9 10  1  0
 10 11  2  0
 11 12  1  0
 12 13  2  0
 13 14  1  0
 14 15  1  0
 15 16  2  0
 15 17  1  0
 14 18  2  0
  4 19  2  0
 19 20  1  0
 20 21  2  0
 21 22  1  0
 22 23  2  0
 23 24  1  0
 24 25  2  0
 25  2  1  0
 18 10  1  0
 24 19  1  0
  1 26  1  0
  1 27  1  0
  1 28  1  0
  3 29  1  0
  7 30  1  0
  9 31  1  0
 11 32  1  0
 12 33  1  0
 13 34  1  0
 18 35  1  0
 20 36  1  0
 21 37  1  0
 22 38  1  0
 23 39  1  0
M  CHG  2  15   1  17  -1
M  END
$$$$
