
     RDKit          3D

 37 39  0  0  0  0  0  0  0  0999 V2000
   -3.8500   -3.0851   -1.2203 C   0  0  0  0  0  0  0  0  0  0  0  0
   -4.0148   -1.9357   -2.0374 O   0  0  0  0  0  0  0  0  0  0  0  0
   -3.1356   -0.9006   -1.8616 C   0  0  0  0  0  0  0  0  0  0  0  0
   -2.0660   -0.8965   -0.9624 C   0  0  0  0  0  0  0  0  0  0  0  0
   -1.2156    0.2179   -0.8634 C   0  0  0  0  0  0  0  0  0  0  0  0
   -0.0982    0.2528    0.0904 C   0  0  0  0  0  0  0  0  0  0  0  0
    0.7590   -0.7664    0.2660 C   0  0  0  0  0  0  0  0  0  0  0  0
    1.8327   -0.6609    1.1979 C   0  0  0  0  0  0  0  0  0  0  0  0
    2.1176    0.3762    1.9612 N   0  0  0  0  0  0  0  0  0  0  0  0
    3.2310    0.1218    2.7433 C   0  0  0  0  0  0  0  0  0  0  0  0
    3.8090    1.0108    3.6723 C   0  0  0  0  0  0  0  0  0  0  0  0
    4.9392    0.6211    4.3984 C   0  0  0  0  0  0  0  0  0  0  0  0
    5.4971   -0.6393    4.2094 C   0  0  0  0  0  0  0  0  0  0  0  0
    4.9419   -1.5388    3.2938 C   0  0  0  0  0  0  0  0  0  0  0  0
    3.8067   -1.1358    2.5707 C   0  0  0  0  0  0  0  0  0  0  0  0
    2.9074   -2.0030    1.3906 S   0  0  0  0  0  0  0  0  0  0  0  0
   -1.4570    1.3508   -1.6555 C   0  0  0  0  0  0  0  0  0  0  0  0
   -2.5183    1.3630   -2.5591 C   0  0  0  0  0  0  0  0  0  0  0  0
   -2.8545    2.3983   -3.3957 O   0  0  0  0  0  0  0  0  0  0  0  0
   -2.0413    3.5643   -3.3301 C   0  0  0  0  0  0  0  0  0  0  0  0
   -3.3444    0.2339   -2.6538 C   0  0  0  0  0  0  0  0  0  0  0  0
   -4.3884    0.2548   -3.5488 O   0  0  0  0  0  0  0  0  0  0  0  0
   -4.6371   -3.7985   -1.4831 H   0  0  0  0  0  0  0  0  0  0  0  0
   -3.9670   -2.8368   -0.1602 H   0  0  0  0  0  0  0  0  0  0  0  0
   -2.8862   -3.5691   -1.4095 H   0  0  0  0  0  0  0  0  0  0  0  0
   -1.8827   -1.7497   -0.3178 H   0  0  0  0  0  0  0  0  0  0  0  0
    0.0225    1.1808    0.6478 H   0  0  0  0  0  0  0  0  0  0  0  0
    0.6574   -1.6819   -0.3089 H   0  0  0  0  0  0  0  0  0  0  0  0
    3.3698    1.9929    3.8162 H   0  0  0  0  0  0  0  0  0  0  0  0
    5.3818    1.3099    5.1142 H   0  0  0  0  0  0  0  0  0  0  0  0
    6.3764   -0.9305    4.7805 H   0  0  0  0  0  0  0  0  0  0  0  0
    5.3781   -2.5222    3.1473 H   0  0  0  0  0  0  0  0  0  0  0  0
   -0.7957    2.2056   -1.5540 H   0  0  0  0  0  0  0  0  0  0  0  0
   -1.0080    3.3412   -3.6157 H   0  0  0  0  0  0  0  0  0  0  0  0
   -2.4367    4.2876   -4.0498 H   0  0  0  0  0  0  0  0  0  0  0  0
   -2.0887    4.0229   -2.3369 H   0  0  0  0  0  0  0  0  0  0  0  0
   -4.3413    1.1305   -3.9758 H   0  0  0  0  0  0  0  0  0  0  0  0
  1  2  1  0
  2  3  1  0
  3  4  2  0
  4  5  1  0
  5  6  1  0
  6  7  2  3
  7  8  1  0
  8  9  2  0
  9 10  1  0
 10 11  2  0
 11 12  1  0
 12 13  2  0
 13 14  1  0
 14 15  2  0
 15 16  1  0
  5 17  2  0
 17 18  1  0
 18 19  1  0
 19 20  1  0
 18 21  2  0
 21 22  1  0
 21  3  1  0
 16  8  1  0
 15 10  1  0
  1 23  1  0
  1 24  1  0
  1 25  1  0
  4 26  1  0
  6 27  1  0
  7 28  1  0
 11 29  1  0
 12 30  1  0
 13 31  1  0
 14 32  1  0
 17 33  1  0
 20 34  1  0
 20 35  1  0
 20 36  1  0
 22 37  1  0
M  END
$$$$
