
     RDKit          3D

 35 36  0  0  0  0  0  0  0  0999 V2000
    2.1840   -1.9730   -1.4379 C   0  0  0  0  0  0  0  0  0  0  0  0
    1.6745   -0.7689   -0.8797 O   0  0  0  0  0  0  0  0  0  0  0  0
    2.3354   -0.2571    0.2135 C   0  0  0  0  0  0  0  0  0  0  0  0
    3.5295   -0.7648    0.7345 C   0  0  0  0  0  0  0  0  0  0  0  0
    4.1165   -0.1675    1.8519 C   0  0  0  0  0  0  0  0  0  0  0  0
    3.5161    0.9369    2.4508 C   0  0  0  0  0  0  0  0  0  0  0  0
    2.3252    1.4532    1.9364 C   0  0  0  0  0  0  0  0  0  0  0  0
    1.7290    0.8647    0.8194 C   0  0  0  0  0  0  0  0  0  0  0  0
    0.5297    1.3297    0.2487 N   0  0  0  0  0  0  0  0  0  0  0  0
   -0.3050    2.3428    0.6661 C   0  0  0  0  0  0  0  0  0  0  0  0
   -0.1361    3.0785    1.6354 O   0  0  0  0  0  0  0  0  0  0  0  0
   -1.5339    2.5153   -0.2411 C   0  0  0  0  0  0  0  0  0  0  0  0
   -1.6705    1.4406   -1.2494 N   0  0  0  0  0  0  0  0  0  0  0  0
   -2.3901    0.2769   -0.9485 C   0  0  0  0  0  0  0  0  0  0  0  0
   -2.7972   -0.5408   -2.0167 C   0  0  0  0  0  0  0  0  0  0  0  0
   -3.4466   -1.7582   -1.7960 C   0  0  0  0  0  0  0  0  0  0  0  0
   -3.6710   -2.1875   -0.4955 C   0  0  0  0  0  0  0  0  0  0  0  0
   -4.2929   -3.3594   -0.3003 F   0  0  0  0  0  0  0  0  0  0  0  0
   -3.2423   -1.4174    0.5798 C   0  0  0  0  0  0  0  0  0  0  0  0
   -3.4930   -1.9563    2.1966 Cl  0  0  0  0  0  0  0  0  0  0  0  0
   -2.5930   -0.1984    0.3545 C   0  0  0  0  0  0  0  0  0  0  0  0
    1.5152   -2.2727   -2.2506 H   0  0  0  0  0  0  0  0  0  0  0  0
    2.1920   -2.7812   -0.6991 H   0  0  0  0  0  0  0  0  0  0  0  0
    3.1790   -1.8169   -1.8671 H   0  0  0  0  0  0  0  0  0  0  0  0
    4.0302   -1.6205    0.2952 H   0  0  0  0  0  0  0  0  0  0  0  0
    5.0445   -0.5646    2.2559 H   0  0  0  0  0  0  0  0  0  0  0  0
    3.9731    1.4016    3.3210 H   0  0  0  0  0  0  0  0  0  0  0  0
    1.8868    2.3164    2.4266 H   0  0  0  0  0  0  0  0  0  0  0  0
    0.1984    0.8055   -0.5627 H   0  0  0  0  0  0  0  0  0  0  0  0
   -2.4369    2.6077    0.3720 H   0  0  0  0  0  0  0  0  0  0  0  0
   -1.3933    3.4621   -0.7753 H   0  0  0  0  0  0  0  0  0  0  0  0
   -1.9379    1.8189   -2.1575 H   0  0  0  0  0  0  0  0  0  0  0  0
   -2.6064   -0.2332   -3.0431 H   0  0  0  0  0  0  0  0  0  0  0  0
   -3.7675   -2.3751   -2.6293 H   0  0  0  0  0  0  0  0  0  0  0  0
   -2.2454    0.3626    1.2170 H   0  0  0  0  0  0  0  0  0  0  0  0
  1  2  1  0
  2  3  1  0
  3  4  2  0
  4  5  1  0
  5  6  2  0
  6  7  1  0
  7  8  2  0
  8  9  1  0
  9 10  1  0
 10 11  2  0
 10 12  1  0
 12 13  1  0
 13 14  1  0
 14 15  2  0
 15 16  1  0
 16 17  2  0
 17 18  1  0
 17 19  1  0
 19 20  1  0
 19 21  2  0
  8  3  1  0
 21 14  1  0
  1 22  1  0
  1 23  1  0
  1 24  1  0
  4 25  1  0
  5 26  1  0
  6 27  1  0
  7 28  1  0
  9 29  1  0
 12 30  1  0
 12 31  1  0
 13 32  1  0
 15 33  1  0
 16 34  1  0
 21 35  1  0
M  END
$$$$
