
     RDKit          3D

 63 67  0  0  0  0  0  0  0  0999 V2000
   -2.8764    6.2438    2.2104 C   0  0  0  0  0  0  0  0  0  0  0  0
   -2.0755    5.1127    2.5275 O   0  0  0  0  0  0  0  0  0  0  0  0
   -2.4462    3.9182    1.9746 C   0  0  0  0  0  0  0  0  0  0  0  0
   -3.5263    3.7099    1.1172 C   0  0  0  0  0  0  0  0  0  0  0  0
   -3.7940    2.4279    0.6210 C   0  0  0  0  0  0  0  0  0  0  0  0
   -2.9866    1.3392    0.9763 C   0  0  0  0  0  0  0  0  0  0  0  0
   -3.2557   -0.0019    0.4442 C   0  0  0  0  0  0  0  0  0  0  0  0
   -4.7076   -0.7820    0.9036 S   0  0  0  0  0  0  0  0  0  0  0  0
   -4.3432   -2.1972   -0.0007 C   0  0  0  0  0  0  0  0  0  0  0  0
   -5.1428   -3.3580   -0.1049 C   0  0  0  0  0  0  0  0  0  0  0  0
   -4.6974   -4.4212   -0.8931 C   0  0  0  0  0  0  0  0  0  0  0  0
   -5.3587   -5.6038   -1.0887 O   0  0  0  0  0  0  0  0  0  0  0  0
   -6.6091   -5.7601   -0.4294 C   0  0  0  0  0  0  0  0  0  0  0  0
   -3.4832   -4.3229   -1.5620 C   0  0  0  0  0  0  0  0  0  0  0  0
   -2.6945   -3.1728   -1.4553 C   0  0  0  0  0  0  0  0  0  0  0  0
   -3.1176   -2.0806   -0.6571 C   0  0  0  0  0  0  0  0  0  0  0  0
   -2.4899   -0.8045   -0.3877 C   0  0  0  0  0  0  0  0  0  0  0  0
   -1.1990   -0.3651   -0.9085 C   0  0  0  0  0  0  0  0  0  0  0  0
   -0.0242   -0.9954   -0.4845 C   0  0  0  0  0  0  0  0  0  0  0  0
    1.2191   -0.5861   -0.9805 C   0  0  0  0  0  0  0  0  0  0  0  0
    1.2974    0.4540   -1.9066 C   0  0  0  0  0  0  0  0  0  0  0  0
    2.4369    0.9568   -2.4692 O   0  0  0  0  0  0  0  0  0  0  0  0
    3.6915    0.3520   -2.1406 C   0  0  0  0  0  0  0  0  0  0  0  0
    4.2748    0.9667   -0.8567 C   0  0  0  0  0  0  0  0  0  0  0  0
    5.6146    0.4562   -0.5102 N   0  0  0  0  0  0  0  0  0  0  0  0
    6.2206    1.3005    0.5453 C   0  0  0  0  0  0  0  0  0  0  0  0
    7.5918    0.7618    0.9817 C   0  0  0  0  0  0  0  0  0  0  0  0
    7.4882   -0.5855    1.4596 O   0  0  0  0  0  0  0  0  0  0  0  0
    6.9524   -1.4272    0.4313 C   0  0  0  0  0  0  0  0  0  0  0  0
    5.5656   -0.9398   -0.0211 C   0  0  0  0  0  0  0  0  0  0  0  0
    0.1214    1.0807   -2.3285 C   0  0  0  0  0  0  0  0  0  0  0  0
   -1.1220    0.6753   -1.8373 C   0  0  0  0  0  0  0  0  0  0  0  0
   -1.9037    1.5552    1.8353 C   0  0  0  0  0  0  0  0  0  0  0  0
   -1.6383    2.8355    2.3288 C   0  0  0  0  0  0  0  0  0  0  0  0
   -2.4567    7.1079    2.7343 H   0  0  0  0  0  0  0  0  0  0  0  0
   -2.8480    6.4591    1.1373 H   0  0  0  0  0  0  0  0  0  0  0  0
   -3.9053    6.1099    2.5602 H   0  0  0  0  0  0  0  0  0  0  0  0
   -4.1797    4.5200    0.8116 H   0  0  0  0  0  0  0  0  0  0  0  0
   -4.6367    2.2877   -0.0526 H   0  0  0  0  0  0  0  0  0  0  0  0
   -6.0849   -3.3932    0.4298 H   0  0  0  0  0  0  0  0  0  0  0  0
   -7.0005   -6.7493   -0.6859 H   0  0  0  0  0  0  0  0  0  0  0  0
   -7.3337   -5.0153   -0.7752 H   0  0  0  0  0  0  0  0  0  0  0  0
   -6.4895   -5.7214    0.6583 H   0  0  0  0  0  0  0  0  0  0  0  0
   -3.1397   -5.1499   -2.1796 H   0  0  0  0  0  0  0  0  0  0  0  0
   -1.7519   -3.1217   -1.9953 H   0  0  0  0  0  0  0  0  0  0  0  0
   -0.0678   -1.8060    0.2399 H   0  0  0  0  0  0  0  0  0  0  0  0
    2.1007   -1.1004   -0.6148 H   0  0  0  0  0  0  0  0  0  0  0  0
    4.3668    0.5800   -2.9745 H   0  0  0  0  0  0  0  0  0  0  0  0
    3.6146   -0.7399   -2.1131 H   0  0  0  0  0  0  0  0  0  0  0  0
    3.5789    0.8424   -0.0175 H   0  0  0  0  0  0  0  0  0  0  0  0
    4.3321    2.0510   -1.0256 H   0  0  0  0  0  0  0  0  0  0  0  0
    5.5585    1.3363    1.4200 H   0  0  0  0  0  0  0  0  0  0  0  0
    6.3494    2.3237    0.1751 H   0  0  0  0  0  0  0  0  0  0  0  0
    7.9869    1.3730    1.7994 H   0  0  0  0  0  0  0  0  0  0  0  0
    8.3152    0.8001    0.1583 H   0  0  0  0  0  0  0  0  0  0  0  0
    6.8727   -2.4392    0.8409 H   0  0  0  0  0  0  0  0  0  0  0  0
    7.6551   -1.4639   -0.4101 H   0  0  0  0  0  0  0  0  0  0  0  0
    4.8707   -1.0137    0.8257 H   0  0  0  0  0  0  0  0  0  0  0  0
    5.2113   -1.6107   -0.8102 H   0  0  0  0  0  0  0  0  0  0  0  0
    0.1735    1.8940   -3.0485 H   0  0  0  0  0  0  0  0  0  0  0  0
   -2.0218    1.1772   -2.1842 H   0  0  0  0  0  0  0  0  0  0  0  0
   -1.2590    0.7304    2.1284 H   0  0  0  0  0  0  0  0  0  0  0  0
   -0.7935    2.9895    2.9955 H   0  0  0  0  0  0  0  0  0  0  0  0
  1  2  1  0
  2  3  1  0
  3  4  2  0
  4  5  1  0
  5  6  2  0
  6  7  1  0
  7  8  1  0
  8  9  1  0
  9 10  2  0
 10 11  1  0
 11 12  1  0
 12 13  1  0
 11 14  2  0
 14 15  1  0
 15 16  2  0
 16 17  1  0
 17 18  1  0
 18 19  2  0
 19 20  1  0
 20 21  2  0
 21 22  1  0
 22 23  1  0
 23 24  1  0
 24 25  1  0
 25 26  1  0
 26 27  1  0
 27 28  1  0
 28 29  1  0
 29 30  1  0
 21 31  1  0
 31 32  2  0
  6 33  1  0
 33 34  2  0
 34  3  1  0
 17  7  2  0
 32 18  1  0
 16  9  1  0
 30 25  1  0
  1 35  1  0
  1 36  1  0
  1 37  1  0
  4 38  1  0
  5 39  1  0
 10 40  1  0
 13 41  1  0
 13 42  1  0
 13 43  1  0
 14 44  1  0
 15 45  1  0
 19 46  1  0
 20 47  1  0
 23 48  1  0
 23 49  1  0
 24 50  1  0
 24 51  1  0
 26 52  1  0
 26 53  1  0
 27 54  1  0
 27 55  1  0
 29 56  1  0
 29 57  1  0
 30 58  1  0
 30 59  1  0
 31 60  1  0
 32 61  1  0
 33 62  1  0
 34 63  1  0
M  END
$$$$
