
     RDKit          3D

 48 50  0  0  0  0  0  0  0  0999 V2000
    6.9871    1.3204    1.3521 C   0  0  0  0  0  0  0  0  0  0  0  0
    7.4112    0.6383    0.0592 C   0  0  0  0  0  0  0  0  0  0  0  0
    6.6918   -0.6878   -0.1645 C   0  0  0  0  0  0  0  0  0  0  0  0
    5.2821   -0.4444   -0.2677 O   0  0  0  0  0  0  0  0  0  0  0  0
    4.5378   -1.5564   -0.4871 C   0  0  0  0  0  0  0  0  0  0  0  0
    4.9686   -2.6911   -0.6177 O   0  0  0  0  0  0  0  0  0  0  0  0
    3.0905   -1.2167   -0.5510 C   0  0  0  0  0  0  0  0  0  0  0  0
    2.6121    0.0862   -0.3773 C   0  0  0  0  0  0  0  0  0  0  0  0
    1.2371    0.3528   -0.4465 C   0  0  0  0  0  0  0  0  0  0  0  0
    0.3253   -0.6765   -0.6846 C   0  0  0  0  0  0  0  0  0  0  0  0
   -1.0692   -0.4946   -0.7633 N   0  0  0  0  0  0  0  0  0  0  0  0
   -1.7779    0.6931   -0.6744 C   0  0  0  0  0  0  0  0  0  0  0  0
   -1.3036    1.8143   -0.5370 O   0  0  0  0  0  0  0  0  0  0  0  0
   -3.2832    0.4570   -0.7774 C   0  0  0  0  0  0  0  0  0  0  0  0
   -4.1117    1.7663   -0.7623 C   0  0  0  0  0  0  0  0  0  0  0  0
   -5.5263    1.4395   -1.2702 C   0  0  0  0  0  0  0  0  0  0  0  0
   -6.1219    0.6262   -0.1135 C   0  0  0  0  0  0  0  0  0  0  0  0
   -4.9842    0.6025    0.9274 C   0  0  0  0  0  0  0  0  0  0  0  0
   -4.3749    1.9917    0.7292 C   0  0  0  0  0  0  0  0  0  0  0  0
   -3.8073   -0.2896    0.4721 C   0  0  0  0  0  0  0  0  0  0  0  0
   -4.1762   -1.7264    0.2120 C   0  0  0  0  0  0  0  0  0  0  0  0
   -5.1281   -2.3374    0.6630 O   0  0  0  0  0  0  0  0  0  0  0  0
   -3.2574   -2.3698   -0.5414 O   0  0  0  0  0  0  0  0  0  0  0  0
    0.8065   -1.9806   -0.8515 C   0  0  0  0  0  0  0  0  0  0  0  0
    2.1777   -2.2498   -0.7883 C   0  0  0  0  0  0  0  0  0  0  0  0
    5.9239    1.5808    1.3355 H   0  0  0  0  0  0  0  0  0  0  0  0
    7.5552    2.2452    1.4929 H   0  0  0  0  0  0  0  0  0  0  0  0
    7.1700    0.6729    2.2158 H   0  0  0  0  0  0  0  0  0  0  0  0
    7.1970    1.3160   -0.7758 H   0  0  0  0  0  0  0  0  0  0  0  0
    8.4932    0.4656    0.0789 H   0  0  0  0  0  0  0  0  0  0  0  0
    7.0515   -1.1405   -1.0960 H   0  0  0  0  0  0  0  0  0  0  0  0
    6.8886   -1.3701    0.6711 H   0  0  0  0  0  0  0  0  0  0  0  0
    3.2934    0.9133   -0.1906 H   0  0  0  0  0  0  0  0  0  0  0  0
    0.9136    1.3800   -0.3045 H   0  0  0  0  0  0  0  0  0  0  0  0
   -1.6219   -1.3374   -0.9100 H   0  0  0  0  0  0  0  0  0  0  0  0
   -3.4623   -0.0864   -1.7141 H   0  0  0  0  0  0  0  0  0  0  0  0
   -3.6509    2.6076   -1.2837 H   0  0  0  0  0  0  0  0  0  0  0  0
   -5.5214    0.8779   -2.2091 H   0  0  0  0  0  0  0  0  0  0  0  0
   -6.1072    2.3555   -1.4258 H   0  0  0  0  0  0  0  0  0  0  0  0
   -6.9994    1.1441    0.2907 H   0  0  0  0  0  0  0  0  0  0  0  0
   -6.4435   -0.3674   -0.4360 H   0  0  0  0  0  0  0  0  0  0  0  0
   -5.3293    0.3861    1.9409 H   0  0  0  0  0  0  0  0  0  0  0  0
   -5.0817    2.8055    0.9238 H   0  0  0  0  0  0  0  0  0  0  0  0
   -3.4638    2.1539    1.3135 H   0  0  0  0  0  0  0  0  0  0  0  0
   -3.0512   -0.3066    1.2694 H   0  0  0  0  0  0  0  0  0  0  0  0
   -3.6133   -3.2874   -0.5654 H   0  0  0  0  0  0  0  0  0  0  0  0
    0.1241   -2.8061   -1.0379 H   0  0  0  0  0  0  0  0  0  0  0  0
    2.5295   -3.2697   -0.9302 H   0  0  0  0  0  0  0  0  0  0  0  0
  1  2  1  0
  2  3  1  0
  3  4  1  0
  4  5  1  0
  5  6  2  0
  5  7  1  0
  7  8  2  0
  8  9  1  0
  9 10  2  0
 10 11  1  0
 11 12  1  0
 12 13  2  0
 12 14  1  0
 14 15  1  0
 15 16  1  0
 16 17  1  0
 17 18  1  0
 18 19  1  0
 18 20  1  0
 20 21  1  0
 21 22  2  0
 21 23  1  0
 10 24  1  0
 24 25  2  0
 25  7  1  0
 20 14  1  0
 19 15  1  0
  1 26  1  0
  1 27  1  0
  1 28  1  0
  2 29  1  0
  2 30  1  0
  3 31  1  0
  3 32  1  0
  8 33  1  0
  9 34  1  0
 11 35  1  0
 14 36  1  0
 15 37  1  0
 16 38  1  0
 16 39  1  0
 17 40  1  0
 17 41  1  0
 18 42  1  0
 19 43  1  0
 19 44  1  0
 20 45  1  0
 23 46  1  0
 24 47  1  0
 25 48  1  0
M  END
$$$$
