
     RDKit          3D

 37 39  0  0  0  0  0  0  0  0999 V2000
   -0.8614   -1.4203    0.0263 O   0  0  0  0  0  0  0  0  0  0  0  0
   -1.0757   -0.2936    0.4595 C   0  0  0  0  0  0  0  0  0  0  0  0
    0.0183    0.5258    1.1271 C   0  0  0  0  0  0  0  0  0  0  0  0
    1.4015    0.0403    0.6944 C   0  0  0  0  0  0  0  0  0  0  0  0
    2.6536    0.6689    1.8645 S   0  0  0  0  0  0  0  0  0  0  0  0
    4.1046    0.1205    0.9867 C   0  0  0  0  0  0  0  0  0  0  0  0
    5.2742   -0.1326    1.7116 C   0  0  0  0  0  0  0  0  0  0  0  0
    6.4490   -0.4952    1.0505 C   0  0  0  0  0  0  0  0  0  0  0  0
    6.4655   -0.5899   -0.3395 C   0  0  0  0  0  0  0  0  0  0  0  0
    5.3065   -0.3271   -1.0715 C   0  0  0  0  0  0  0  0  0  0  0  0
    4.1215    0.0141   -0.4122 C   0  0  0  0  0  0  0  0  0  0  0  0
    2.9917    0.2990   -1.1951 N   0  0  0  0  0  0  0  0  0  0  0  0
    1.7199    0.5055   -0.7262 C   0  0  0  0  0  0  0  0  0  0  0  0
    0.8686    0.9674   -1.4880 O   0  0  0  0  0  0  0  0  0  0  0  0
   -2.2955    0.3610    0.4792 N   0  0  0  0  0  0  0  0  0  0  0  0
   -3.5477   -0.0747   -0.0313 C   0  0  0  0  0  0  0  0  0  0  0  0
   -3.6875   -1.3222   -0.6562 C   0  0  0  0  0  0  0  0  0  0  0  0
   -4.9205   -1.7547   -1.1602 C   0  0  0  0  0  0  0  0  0  0  0  0
   -6.0475   -0.9493   -1.0535 C   0  0  0  0  0  0  0  0  0  0  0  0
   -5.9448    0.2966   -0.4419 C   0  0  0  0  0  0  0  0  0  0  0  0
   -4.7051    0.7361    0.0664 C   0  0  0  0  0  0  0  0  0  0  0  0
   -4.6720    2.0678    0.6964 N   0  0  0  0  0  4  0  0  0  0  0  0
   -3.6281    2.4218    1.2679 O   0  0  0  0  0  0  0  0  0  0  0  0
   -5.6919    2.7689    0.6262 O   0  0  0  0  0  1  0  0  0  0  0  0
   -0.1183    1.5879    0.8880 H   0  0  0  0  0  0  0  0  0  0  0  0
   -0.1257    0.3973    2.2077 H   0  0  0  0  0  0  0  0  0  0  0  0
    1.4568   -1.0545    0.7090 H   0  0  0  0  0  0  0  0  0  0  0  0
    5.2817   -0.0420    2.7956 H   0  0  0  0  0  0  0  0  0  0  0  0
    7.3534   -0.6928    1.6209 H   0  0  0  0  0  0  0  0  0  0  0  0
    7.3834   -0.8639   -0.8542 H   0  0  0  0  0  0  0  0  0  0  0  0
    5.3396   -0.4012   -2.1554 H   0  0  0  0  0  0  0  0  0  0  0  0
    3.1078    0.4537   -2.1887 H   0  0  0  0  0  0  0  0  0  0  0  0
   -2.2978    1.2862    0.9115 H   0  0  0  0  0  0  0  0  0  0  0  0
   -2.8467   -1.9993   -0.7766 H   0  0  0  0  0  0  0  0  0  0  0  0
   -4.9908   -2.7292   -1.6399 H   0  0  0  0  0  0  0  0  0  0  0  0
   -7.0020   -1.2903   -1.4477 H   0  0  0  0  0  0  0  0  0  0  0  0
   -6.8386    0.9141   -0.3693 H   0  0  0  0  0  0  0  0  0  0  0  0
  1  2  2  0
  2  3  1  0
  3  4  1  0
  4  5  1  0
  5  6  1  0
  6  7  2  0
  7  8  1  0
  8  9  2  0
  9 10  1  0
 10 11  2  0
 11 12  1  0
 12 13  1  0
 13 14  2  0
  2 15  1  0
 15 16  1  0
 16 17  2  0
 17 18  1  0
 18 19  2  0
 19 20  1  0
 20 21  2  0
 21 22  1  0
 22 23  2  0
 22 24  1  0
 13  4  1  0
 21 16  1  0
 11  6  1  0
  3 25  1  0
  3 26  1  0
  4 27  1  0
  7 28  1  0
  8 29  1  0
  9 30  1  0
 10 31  1  0
 12 32  1  0
 15 33  1  0
 17 34  1  0
 18 35  1  0
 19 36  1  0
 20 37  1  0
M  CHG  2  22   1  24  -1
M  END
$$$$
