
     RDKit          3D

 37 39  0  0  0  0  0  0  0  0999 V2000
   -0.7728   -3.2535   -1.4709 C   0  0  0  0  0  0  0  0  0  0  0  0
   -1.5115   -2.5904   -2.4878 O   0  0  0  0  0  0  0  0  0  0  0  0
   -1.6504   -1.2125   -2.3363 C   0  0  0  0  0  0  0  0  0  0  0  0
   -2.5318   -0.6417   -3.2687 C   0  0  0  0  0  0  0  0  0  0  0  0
   -2.7967    0.7219   -3.2607 C   0  0  0  0  0  0  0  0  0  0  0  0
   -2.1926    1.5473   -2.3118 C   0  0  0  0  0  0  0  0  0  0  0  0
   -2.4526    2.8997   -2.3313 O   0  0  0  0  0  0  0  0  0  0  0  0
   -3.6867    3.1659   -1.6641 C   0  0  0  0  0  0  0  0  0  0  0  0
   -1.2817    0.9887   -1.3973 C   0  0  0  0  0  0  0  0  0  0  0  0
   -0.3719    1.7641   -0.1640 S   0  0  0  0  0  0  0  0  0  0  0  0
    0.3420    0.2623    0.3012 C   0  0  0  0  0  0  0  0  0  0  0  0
    1.2336    0.1346    1.3405 N   0  0  0  0  0  0  0  0  0  0  0  0
    2.2128    1.2096    1.5601 C   0  0  0  0  0  0  0  0  0  0  0  0
    2.8420    1.0949    2.9479 C   0  0  0  0  0  0  0  0  0  0  0  0
    3.4313   -0.2893    3.1843 C   0  0  0  0  0  0  0  0  0  0  0  0
    2.3733   -1.3561    2.9422 C   0  0  0  0  0  0  0  0  0  0  0  0
    1.7596   -1.2246    1.5511 C   0  0  0  0  0  0  0  0  0  0  0  0
   -0.0883   -0.7590   -0.4077 N   0  0  0  0  0  0  0  0  0  0  0  0
   -0.9994   -0.3789   -1.3840 C   0  0  0  0  0  0  0  0  0  0  0  0
   -0.8457   -4.3290   -1.6586 H   0  0  0  0  0  0  0  0  0  0  0  0
   -1.1996   -3.0695   -0.4808 H   0  0  0  0  0  0  0  0  0  0  0  0
    0.2879   -2.9887   -1.5194 H   0  0  0  0  0  0  0  0  0  0  0  0
   -3.0113   -1.2795   -4.0080 H   0  0  0  0  0  0  0  0  0  0  0  0
   -3.4712    1.1458   -4.0001 H   0  0  0  0  0  0  0  0  0  0  0  0
   -3.7752    4.2500   -1.5416 H   0  0  0  0  0  0  0  0  0  0  0  0
   -3.7183    2.7099   -0.6683 H   0  0  0  0  0  0  0  0  0  0  0  0
   -4.5323    2.8218   -2.2702 H   0  0  0  0  0  0  0  0  0  0  0  0
    1.7541    2.2025    1.5006 H   0  0  0  0  0  0  0  0  0  0  0  0
    2.9926    1.1598    0.7894 H   0  0  0  0  0  0  0  0  0  0  0  0
    2.0809    1.2970    3.7107 H   0  0  0  0  0  0  0  0  0  0  0  0
    3.6219    1.8561    3.0638 H   0  0  0  0  0  0  0  0  0  0  0  0
    4.2813   -0.4507    2.5120 H   0  0  0  0  0  0  0  0  0  0  0  0
    3.8084   -0.3637    4.2088 H   0  0  0  0  0  0  0  0  0  0  0  0
    1.5822   -1.2618    3.6977 H   0  0  0  0  0  0  0  0  0  0  0  0
    2.8163   -2.3514    3.0610 H   0  0  0  0  0  0  0  0  0  0  0  0
    0.9615   -1.9736    1.4760 H   0  0  0  0  0  0  0  0  0  0  0  0
    2.5084   -1.4580    0.7841 H   0  0  0  0  0  0  0  0  0  0  0  0
  1  2  1  0
  2  3  1  0
  3  4  2  0
  4  5  1  0
  5  6  2  0
  6  7  1  0
  7  8  1  0
  6  9  1  0
  9 10  1  0
 10 11  1  0
 11 12  1  0
 12 13  1  0
 13 14  1  0
 14 15  1  0
 15 16  1  0
 16 17  1  0
 11 18  2  0
 18 19  1  0
 19  3  1  0
 19  9  2  0
 17 12  1  0
  1 20  1  0
  1 21  1  0
  1 22  1  0
  4 23  1  0
  5 24  1  0
  8 25  1  0
  8 26  1  0
  8 27  1  0
 13 28  1  0
 13 29  1  0
 14 30  1  0
 14 31  1  0
 15 32  1  0
 15 33  1  0
 16 34  1  0
 16 35  1  0
 17 36  1  0
 17 37  1  0
M  END
$$$$
