
     RDKit          3D

 57 60  0  0  0  0  0  0  0  0999 V2000
    4.6676   -3.6031    1.6104 C   0  0  0  0  0  0  0  0  0  0  0  0
    4.1414   -2.3595    0.9009 C   0  0  0  0  0  0  0  0  0  0  0  0
    5.0113   -1.7340   -0.1791 C   0  0  0  0  0  0  0  0  0  0  0  0
    6.2868   -2.2571   -0.4574 C   0  0  0  0  0  0  0  0  0  0  0  0
    7.0843   -1.7145   -1.4592 C   0  0  0  0  0  0  0  0  0  0  0  0
    6.6359   -0.6158   -2.1796 C   0  0  0  0  0  0  0  0  0  0  0  0
    5.3811   -0.0387   -1.9165 C   0  0  0  0  0  0  0  0  0  0  0  0
    5.0550    1.2207   -2.6752 C   0  0  0  0  0  0  0  0  0  0  0  0
    4.5382   -0.6315   -0.9485 C   0  0  0  0  0  0  0  0  0  0  0  0
    3.2421   -0.1332   -0.6545 N   0  0  0  0  0  0  0  0  0  0  0  0
    2.3032    0.2921   -1.5791 C   0  0  0  0  0  0  0  0  0  0  0  0
    2.4024    0.2378   -2.7986 O   0  0  0  0  0  0  0  0  0  0  0  0
    1.0211    0.7742   -0.9868 C   0  0  0  0  0  0  0  0  0  0  0  0
    0.9793    1.4027    0.2642 C   0  0  0  0  0  0  0  0  0  0  0  0
   -0.2419    1.8353    0.7872 C   0  0  0  0  0  0  0  0  0  0  0  0
   -1.4328    1.6552    0.0671 C   0  0  0  0  0  0  0  0  0  0  0  0
   -2.7540    2.1327    0.6377 C   0  0  0  0  0  0  0  0  0  0  0  0
   -3.0991    1.4689    1.9048 N   0  0  0  0  0  0  0  0  0  0  0  0
   -4.1770    2.1726    2.6196 C   0  0  0  0  0  0  0  0  0  0  0  0
   -5.5295    2.1772    1.8904 C   0  0  0  0  0  0  0  0  0  0  0  0
   -5.8675    0.8421    1.2753 C   0  0  0  0  0  0  0  0  0  0  0  0
   -7.1544    0.6098    0.7718 C   0  0  0  0  0  0  0  0  0  0  0  0
   -7.4641   -0.6064    0.1641 C   0  0  0  0  0  0  0  0  0  0  0  0
   -6.4913   -1.5968    0.0507 C   0  0  0  0  0  0  0  0  0  0  0  0
   -5.2055   -1.3723    0.5428 C   0  0  0  0  0  0  0  0  0  0  0  0
   -4.8778   -0.1498    1.1471 C   0  0  0  0  0  0  0  0  0  0  0  0
   -3.4894    0.0584    1.7163 C   0  0  0  0  0  0  0  0  0  0  0  0
   -1.3804    1.0417   -1.1925 C   0  0  0  0  0  0  0  0  0  0  0  0
   -0.1609    0.6079   -1.7179 C   0  0  0  0  0  0  0  0  0  0  0  0
    3.9341   -3.9524    2.3448 H   0  0  0  0  0  0  0  0  0  0  0  0
    5.5989   -3.3937    2.1470 H   0  0  0  0  0  0  0  0  0  0  0  0
    4.8471   -4.4204    0.9041 H   0  0  0  0  0  0  0  0  0  0  0  0
    3.9549   -1.5987    1.6691 H   0  0  0  0  0  0  0  0  0  0  0  0
    3.1780   -2.6295    0.4502 H   0  0  0  0  0  0  0  0  0  0  0  0
    6.6827   -3.1069    0.0916 H   0  0  0  0  0  0  0  0  0  0  0  0
    8.0620   -2.1402   -1.6690 H   0  0  0  0  0  0  0  0  0  0  0  0
    7.2838   -0.1875   -2.9421 H   0  0  0  0  0  0  0  0  0  0  0  0
    4.6053    0.9817   -3.6428 H   0  0  0  0  0  0  0  0  0  0  0  0
    4.3993    1.8839   -2.1040 H   0  0  0  0  0  0  0  0  0  0  0  0
    5.9669    1.7998   -2.8642 H   0  0  0  0  0  0  0  0  0  0  0  0
    2.8489   -0.4140    0.2322 H   0  0  0  0  0  0  0  0  0  0  0  0
    1.8868    1.5855    0.8331 H   0  0  0  0  0  0  0  0  0  0  0  0
   -0.2694    2.3182    1.7626 H   0  0  0  0  0  0  0  0  0  0  0  0
   -2.6413    3.2127    0.8054 H   0  0  0  0  0  0  0  0  0  0  0  0
   -3.5464    2.0276   -0.1136 H   0  0  0  0  0  0  0  0  0  0  0  0
   -4.3036    1.6975    3.6023 H   0  0  0  0  0  0  0  0  0  0  0  0
   -3.8747    3.2044    2.8381 H   0  0  0  0  0  0  0  0  0  0  0  0
   -6.3132    2.4649    2.6013 H   0  0  0  0  0  0  0  0  0  0  0  0
   -5.5129    2.9287    1.0913 H   0  0  0  0  0  0  0  0  0  0  0  0
   -7.9209    1.3774    0.8490 H   0  0  0  0  0  0  0  0  0  0  0  0
   -8.4648   -0.7813   -0.2221 H   0  0  0  0  0  0  0  0  0  0  0  0
   -6.7346   -2.5458   -0.4202 H   0  0  0  0  0  0  0  0  0  0  0  0
   -4.4579   -2.1574    0.4530 H   0  0  0  0  0  0  0  0  0  0  0  0
   -3.4602   -0.4367    2.6963 H   0  0  0  0  0  0  0  0  0  0  0  0
   -2.7497   -0.4663    1.1004 H   0  0  0  0  0  0  0  0  0  0  0  0
   -2.2892    0.8958   -1.7730 H   0  0  0  0  0  0  0  0  0  0  0  0
   -0.1344    0.1362   -2.6985 H   0  0  0  0  0  0  0  0  0  0  0  0
  1  2  1  0
  2  3  1  0
  3  4  2  0
  4  5  1  0
  5  6  2  0
  6  7  1  0
  7  8  1  0
  7  9  2  0
  9 10  1  0
 10 11  1  0
 11 12  2  0
 11 13  1  0
 13 14  2  0
 14 15  1  0
 15 16  2  0
 16 17  1  0
 17 18  1  0
 18 19  1  0
 19 20  1  0
 20 21  1  0
 21 22  2  0
 22 23  1  0
 23 24  2  0
 24 25  1  0
 25 26  2  0
 26 27  1  0
 16 28  1  0
 28 29  2  0
  9  3  1  0
 29 13  1  0
 27 18  1  0
 26 21  1  0
  1 30  1  0
  1 31  1  0
  1 32  1  0
  2 33  1  0
  2 34  1  0
  4 35  1  0
  5 36  1  0
  6 37  1  0
  8 38  1  0
  8 39  1  0
  8 40  1  0
 10 41  1  0
 14 42  1  0
 15 43  1  0
 17 44  1  0
 17 45  1  0
 19 46  1  0
 19 47  1  0
 20 48  1  0
 20 49  1  0
 22 50  1  0
 23 51  1  0
 24 52  1  0
 25 53  1  0
 27 54  1  0
 27 55  1  0
 28 56  1  0
 29 57  1  0
M  END
$$$$
