
     RDKit          3D

 48 50  0  0  0  0  0  0  0  0999 V2000
    3.4127   -4.8466   -0.7160 C   0  0  0  0  0  0  0  0  0  0  0  0
    3.2747   -3.4366   -0.8574 O   0  0  0  0  0  0  0  0  0  0  0  0
    2.0084   -2.9361   -0.9870 C   0  0  0  0  0  0  0  0  0  0  0  0
    0.8984   -3.7099   -1.3425 C   0  0  0  0  0  0  0  0  0  0  0  0
   -0.3759   -3.1362   -1.3862 C   0  0  0  0  0  0  0  0  0  0  0  0
   -0.5459   -1.7852   -1.0727 C   0  0  0  0  0  0  0  0  0  0  0  0
   -1.9083   -1.2235   -1.0901 C   0  0  0  0  0  0  0  0  0  0  0  0
   -2.1589    0.0069   -0.7630 N   0  0  0  0  0  0  0  0  0  0  0  0
   -3.4894    0.2961   -0.8415 N   0  0  0  0  0  0  0  0  0  0  0  0
   -4.2325    0.8943    0.1254 C   0  0  0  0  0  0  0  0  0  0  0  0
   -5.4924    1.2116   -0.0677 N   0  0  0  0  0  0  0  0  0  0  0  0
   -6.0628    1.6958    1.0893 C   0  0  0  0  0  0  0  0  0  0  0  0
   -7.3716    2.0030    1.0941 O   0  0  0  0  0  0  0  0  0  0  0  0
   -5.2129    1.8212    2.1780 C   0  0  0  0  0  0  0  0  0  0  0  0
   -5.3340    2.3486    3.5836 C   0  0  0  0  0  0  0  0  0  0  0  0
   -6.7280    2.7084    4.0164 C   0  0  0  0  0  0  0  0  0  0  0  0
   -7.7757    2.2284    3.6085 O   0  0  0  0  0  0  0  0  0  0  0  0
   -6.7477    3.6209    5.0069 O   0  0  0  0  0  0  0  0  0  0  0  0
   -3.6509    1.2381    1.7024 S   0  0  0  0  0  0  0  0  0  0  0  0
    0.5588   -0.9915   -0.7502 C   0  0  0  0  0  0  0  0  0  0  0  0
    1.8344   -1.5594   -0.7465 C   0  0  0  0  0  0  0  0  0  0  0  0
    2.8700   -0.7087   -0.4353 O   0  0  0  0  0  0  0  0  0  0  0  0
    3.8422   -0.6404   -1.4842 C   0  0  0  0  0  0  0  0  0  0  0  0
    4.6599    0.6171   -1.3052 C   0  0  0  0  0  0  0  0  0  0  0  0
    5.5897    0.7085   -0.2571 C   0  0  0  0  0  0  0  0  0  0  0  0
    6.3703    1.8574   -0.0996 C   0  0  0  0  0  0  0  0  0  0  0  0
    6.2207    2.9225   -0.9865 C   0  0  0  0  0  0  0  0  0  0  0  0
    7.1928    4.3335   -0.8030 Cl  0  0  0  0  0  0  0  0  0  0  0  0
    5.2947    2.8513   -2.0277 C   0  0  0  0  0  0  0  0  0  0  0  0
    4.5114    1.7026   -2.1833 C   0  0  0  0  0  0  0  0  0  0  0  0
    2.6968   -5.2623   -0.0027 H   0  0  0  0  0  0  0  0  0  0  0  0
    3.3286   -5.3361   -1.6912 H   0  0  0  0  0  0  0  0  0  0  0  0
    4.4134   -5.0439   -0.3318 H   0  0  0  0  0  0  0  0  0  0  0  0
    0.9964   -4.7629   -1.5887 H   0  0  0  0  0  0  0  0  0  0  0  0
   -1.2256   -3.7575   -1.6592 H   0  0  0  0  0  0  0  0  0  0  0  0
   -2.7271   -1.9138   -1.3716 H   0  0  0  0  0  0  0  0  0  0  0  0
   -3.9091    0.3347   -1.7686 H   0  0  0  0  0  0  0  0  0  0  0  0
   -7.7364    1.9880    1.9998 H   0  0  0  0  0  0  0  0  0  0  0  0
   -4.7109    3.2475    3.6694 H   0  0  0  0  0  0  0  0  0  0  0  0
   -4.9672    1.5995    4.2982 H   0  0  0  0  0  0  0  0  0  0  0  0
   -7.6958    3.7486    5.2263 H   0  0  0  0  0  0  0  0  0  0  0  0
    0.4352    0.0614   -0.5116 H   0  0  0  0  0  0  0  0  0  0  0  0
    4.5289   -1.4911   -1.4412 H   0  0  0  0  0  0  0  0  0  0  0  0
    3.3598   -0.6352   -2.4746 H   0  0  0  0  0  0  0  0  0  0  0  0
    5.7063   -0.1205    0.4420 H   0  0  0  0  0  0  0  0  0  0  0  0
    7.0898    1.9112    0.7146 H   0  0  0  0  0  0  0  0  0  0  0  0
    5.1764    3.6811   -2.7145 H   0  0  0  0  0  0  0  0  0  0  0  0
    3.7881    1.6594   -2.9961 H   0  0  0  0  0  0  0  0  0  0  0  0
  1  2  1  0
  2  3  1  0
  3  4  2  0
  4  5  1  0
  5  6  2  0
  6  7  1  0
  7  8  2  3
  8  9  1  0
  9 10  1  0
 10 11  2  0
 11 12  1  0
 12 13  1  0
 12 14  2  0
 14 15  1  0
 15 16  1  0
 16 17  2  0
 16 18  1  0
 14 19  1  0
  6 20  1  0
 20 21  2  0
 21 22  1  0
 22 23  1  0
 23 24  1  0
 24 25  2  0
 25 26  1  0
 26 27  2  0
 27 28  1  0
 27 29  1  0
 29 30  2  0
 21  3  1  0
 30 24  1  0
 19 10  1  0
  1 31  1  0
  1 32  1  0
  1 33  1  0
  4 34  1  0
  5 35  1  0
  7 36  1  0
  9 37  1  0
 13 38  1  0
 15 39  1  0
 15 40  1  0
 18 41  1  0
 20 42  1  0
 23 43  1  0
 23 44  1  0
 25 45  1  0
 26 46  1  0
 29 47  1  0
 30 48  1  0
M  END
$$$$
