
     RDKit          3D

 44 47  0  0  0  0  0  0  0  0999 V2000
    2.7306    0.8870   -2.8718 O   0  0  0  0  0  0  0  0  0  0  0  0
    1.9229    1.7073   -1.9961 S   0  0  0  0  0  6  0  0  0  0  0  0
    1.8647    3.1413   -2.2238 O   0  0  0  0  0  0  0  0  0  0  0  0
    2.4513    1.4874   -0.3103 C   0  0  0  0  0  0  0  0  0  0  0  0
    2.5304    2.6398    0.4969 C   0  0  0  0  0  0  0  0  0  0  0  0
    2.9805    2.5477    1.8060 C   0  0  0  0  0  0  0  0  0  0  0  0
    3.3646    1.3102    2.3043 C   0  0  0  0  0  0  0  0  0  0  0  0
    3.2994    0.1621    1.4973 C   0  0  0  0  0  0  0  0  0  0  0  0
    3.6996   -1.0769    2.0165 C   0  0  0  0  0  0  0  0  0  0  0  0
    3.6440   -2.2155    1.2274 C   0  0  0  0  0  0  0  0  0  0  0  0
    3.1757   -2.0761   -0.0589 C   0  0  0  0  0  0  0  0  0  0  0  0
    2.7649   -0.9001   -0.5825 N   0  0  0  0  0  0  0  0  0  0  0  0
    2.8365    0.2283    0.1602 C   0  0  0  0  0  0  0  0  0  0  0  0
    0.3184    1.1706   -2.0451 N   0  0  0  0  0  0  0  0  0  0  0  0
   -0.6857    1.9629   -1.2827 C   0  0  0  0  0  0  0  0  0  0  0  0
   -2.0363    1.2319   -1.1599 C   0  0  0  0  0  0  0  0  0  0  0  0
   -1.8663   -0.0731   -0.5003 N   0  0  0  0  0  0  0  0  0  0  0  0
   -2.9142   -0.7086    0.1487 C   0  0  0  0  0  0  0  0  0  0  0  0
   -2.6866   -1.7723    1.0389 C   0  0  0  0  0  0  0  0  0  0  0  0
   -3.7326   -2.4193    1.7086 C   0  0  0  0  0  0  0  0  0  0  0  0
   -5.0453   -2.0137    1.5051 C   0  0  0  0  0  0  0  0  0  0  0  0
   -5.3056   -0.9617    0.6360 C   0  0  0  0  0  0  0  0  0  0  0  0
   -4.2519   -0.3199   -0.0279 C   0  0  0  0  0  0  0  0  0  0  0  0
   -0.6193   -0.8075   -0.7999 C   0  0  0  0  0  0  0  0  0  0  0  0
    0.0532   -0.2923   -2.0851 C   0  0  0  0  0  0  0  0  0  0  0  0
    2.2477    3.6157    0.1057 H   0  0  0  0  0  0  0  0  0  0  0  0
    3.0415    3.4358    2.4304 H   0  0  0  0  0  0  0  0  0  0  0  0
    3.7228    1.2459    3.3302 H   0  0  0  0  0  0  0  0  0  0  0  0
    4.0648   -1.1602    3.0377 H   0  0  0  0  0  0  0  0  0  0  0  0
    3.9603   -3.1806    1.6058 H   0  0  0  0  0  0  0  0  0  0  0  0
    3.1134   -2.9278   -0.7307 H   0  0  0  0  0  0  0  0  0  0  0  0
   -0.8439    2.9182   -1.7943 H   0  0  0  0  0  0  0  0  0  0  0  0
   -0.3096    2.1677   -0.2747 H   0  0  0  0  0  0  0  0  0  0  0  0
   -2.4789    1.0865   -2.1529 H   0  0  0  0  0  0  0  0  0  0  0  0
   -2.7043    1.8780   -0.5780 H   0  0  0  0  0  0  0  0  0  0  0  0
   -1.6738   -2.1051    1.2492 H   0  0  0  0  0  0  0  0  0  0  0  0
   -3.5140   -3.2351    2.3920 H   0  0  0  0  0  0  0  0  0  0  0  0
   -5.8601   -2.5126    2.0218 H   0  0  0  0  0  0  0  0  0  0  0  0
   -6.3285   -0.6365    0.4659 H   0  0  0  0  0  0  0  0  0  0  0  0
   -4.5105    0.4835   -0.7113 H   0  0  0  0  0  0  0  0  0  0  0  0
    0.0556   -0.6994    0.0547 H   0  0  0  0  0  0  0  0  0  0  0  0
   -0.8189   -1.8764   -0.9431 H   0  0  0  0  0  0  0  0  0  0  0  0
   -0.6131   -0.4711   -2.9394 H   0  0  0  0  0  0  0  0  0  0  0  0
    0.9566   -0.8663   -2.3002 H   0  0  0  0  0  0  0  0  0  0  0  0
  1  2  2  0
  2  3  2  0
  2  4  1  0
  4  5  2  0
  5  6  1  0
  6  7  2  0
  7  8  1  0
  8  9  2  0
  9 10  1  0
 10 11  2  0
 11 12  1  0
 12 13  2  0
  2 14  1  0
 14 15  1  0
 15 16  1  0
 16 17  1  0
 17 18  1  0
 18 19  2  0
 19 20  1  0
 20 21  2  0
 21 22  1  0
 22 23  2  0
 17 24  1  0
 24 25  1  0
 13  4  1  0
 25 14  1  0
 13  8  1  0
 23 18  1  0
  5 26  1  0
  6 27  1  0
  7 28  1  0
  9 29  1  0
 10 30  1  0
 11 31  1  0
 15 32  1  0
 15 33  1  0
 16 34  1  0
 16 35  1  0
 19 36  1  0
 20 37  1  0
 21 38  1  0
 22 39  1  0
 23 40  1  0
 24 41  1  0
 24 42  1  0
 25 43  1  0
 25 44  1  0
M  END
$$$$
