
     RDKit          3D

 36 38  0  0  0  0  0  0  0  0999 V2000
    2.6227   -2.8267   -1.8814 C   0  0  0  0  0  0  0  0  0  0  0  0
    2.4012   -1.3325   -1.6716 C   0  0  0  0  0  0  0  0  0  0  0  0
    3.3655   -0.8921   -0.7300 O   0  0  0  0  0  0  0  0  0  0  0  0
    3.0986    0.3565   -0.2358 C   0  0  0  0  0  0  0  0  0  0  0  0
    4.1965    1.0224    0.3159 C   0  0  0  0  0  0  0  0  0  0  0  0
    4.0365    2.2824    0.8837 C   0  0  0  0  0  0  0  0  0  0  0  0
    2.7743    2.8665    0.9140 C   0  0  0  0  0  0  0  0  0  0  0  0
    1.6710    2.1925    0.3769 C   0  0  0  0  0  0  0  0  0  0  0  0
    1.8164    0.9283   -0.2118 C   0  0  0  0  0  0  0  0  0  0  0  0
    0.7145    0.1958   -0.7406 N   0  0  0  0  0  0  0  0  0  0  0  0
   -0.6697    0.6102   -0.5337 C   0  0  0  0  0  0  0  0  0  0  0  0
   -1.2115    0.1555    0.8217 C   0  0  0  0  0  0  0  0  0  0  0  0
   -0.4993    0.0139    1.8153 O   0  0  0  0  0  0  0  0  0  0  0  0
   -2.6798   -0.0815    0.9611 C   0  0  0  0  0  0  0  0  0  0  0  0
   -3.6148    0.4353    0.0526 C   0  0  0  0  0  0  0  0  0  0  0  0
   -4.9787    0.1885    0.2380 C   0  0  0  0  0  0  0  0  0  0  0  0
   -5.4035   -0.5647    1.3271 C   0  0  0  0  0  0  0  0  0  0  0  0
   -6.7113   -0.7950    1.4988 F   0  0  0  0  0  0  0  0  0  0  0  0
   -4.4912   -1.0764    2.2407 C   0  0  0  0  0  0  0  0  0  0  0  0
   -3.1282   -0.8327    2.0600 C   0  0  0  0  0  0  0  0  0  0  0  0
    0.9324   -1.0454   -1.3325 C   0  0  0  0  0  0  0  0  0  0  0  0
    0.0134   -1.7997   -1.6557 O   0  0  0  0  0  0  0  0  0  0  0  0
    1.9792   -3.2247   -2.6723 H   0  0  0  0  0  0  0  0  0  0  0  0
    3.6661   -3.0287   -2.1470 H   0  0  0  0  0  0  0  0  0  0  0  0
    2.4150   -3.3817   -0.9594 H   0  0  0  0  0  0  0  0  0  0  0  0
    2.6065   -0.8268   -2.6256 H   0  0  0  0  0  0  0  0  0  0  0  0
    5.1762    0.5519    0.3049 H   0  0  0  0  0  0  0  0  0  0  0  0
    4.8904    2.7996    1.3131 H   0  0  0  0  0  0  0  0  0  0  0  0
    2.6409    3.8438    1.3719 H   0  0  0  0  0  0  0  0  0  0  0  0
    0.7084    2.6846    0.4553 H   0  0  0  0  0  0  0  0  0  0  0  0
   -0.7753    1.6935   -0.6338 H   0  0  0  0  0  0  0  0  0  0  0  0
   -1.2749    0.1614   -1.3289 H   0  0  0  0  0  0  0  0  0  0  0  0
   -3.3159    1.0396   -0.7986 H   0  0  0  0  0  0  0  0  0  0  0  0
   -5.7141    0.5808   -0.4582 H   0  0  0  0  0  0  0  0  0  0  0  0
   -4.8426   -1.6597    3.0862 H   0  0  0  0  0  0  0  0  0  0  0  0
   -2.4149   -1.2346    2.7783 H   0  0  0  0  0  0  0  0  0  0  0  0
  1  2  1  0
  2  3  1  0
  3  4  1  0
  4  5  2  0
  5  6  1  0
  6  7  2  0
  7  8  1  0
  8  9  2  0
  9 10  1  0
 10 11  1  0
 11 12  1  0
 12 13  2  0
 12 14  1  0
 14 15  2  0
 15 16  1  0
 16 17  2  0
 17 18  1  0
 17 19  1  0
 19 20  2  0
 10 21  1  0
 21 22  2  0
 21  2  1  0
  9  4  1  0
 20 14  1  0
  1 23  1  0
  1 24  1  0
  1 25  1  0
  2 26  1  0
  5 27  1  0
  6 28  1  0
  7 29  1  0
  8 30  1  0
 11 31  1  0
 11 32  1  0
 15 33  1  0
 16 34  1  0
 19 35  1  0
 20 36  1  0
M  END
$$$$
