
     RDKit          3D

 68 70  0  0  0  0  0  0  0  0999 V2000
    4.6455    1.2828   -2.4628 C   0  0  0  0  0  0  0  0  0  0  0  0
    5.3044    0.9991   -1.1223 C   0  0  0  0  0  0  0  0  0  0  0  0
    4.7815    1.9346   -0.0913 N   0  0  0  0  0  0  0  0  0  0  0  0
    5.3915    3.2909   -0.1552 C   0  0  0  0  0  0  0  0  0  0  0  0
    4.2904    4.3257   -0.3108 C   0  0  0  0  0  0  0  0  0  0  0  0
    4.6651    1.2946    1.4897 S   0  0  0  0  0  6  0  0  0  0  0  0
    5.9217    0.6294    1.7703 O   0  0  0  0  0  0  0  0  0  0  0  0
    4.1401    2.3123    2.3734 O   0  0  0  0  0  0  0  0  0  0  0  0
    3.4053    0.0530    1.3305 C   0  0  0  0  0  0  0  0  0  0  0  0
    3.6188   -1.2221    1.8584 C   0  0  0  0  0  0  0  0  0  0  0  0
    2.6266   -2.1945    1.7250 C   0  0  0  0  0  0  0  0  0  0  0  0
    1.4251   -1.9012    1.0626 C   0  0  0  0  0  0  0  0  0  0  0  0
    0.3959   -2.8593    0.8861 N   0  0  0  0  0  0  0  0  0  0  0  0
   -0.1651   -3.3696    2.1611 C   0  0  0  0  0  0  0  0  0  0  0  0
   -1.0456   -4.5935    1.8670 C   0  0  0  0  0  0  0  0  0  0  0  0
   -0.3113   -5.6980    1.3110 O   0  0  0  0  0  0  0  0  0  0  0  0
    0.8806   -5.2989    0.6166 C   0  0  0  0  0  0  0  0  0  0  0  0
    0.7578   -3.9327   -0.0773 C   0  0  0  0  0  0  0  0  0  0  0  0
    1.2373   -0.6054    0.5174 C   0  0  0  0  0  0  0  0  0  0  0  0
    0.0092   -0.3944   -0.1405 N   0  0  0  0  0  0  0  0  0  0  0  0
   -0.4051    0.7135   -0.8456 C   0  0  0  0  0  0  0  0  0  0  0  0
    0.2536    1.7229   -1.0747 O   0  0  0  0  0  0  0  0  0  0  0  0
   -1.8405    0.6000   -1.3213 C   0  0  0  0  0  0  0  0  0  0  0  0
   -2.7893    1.1420   -0.2526 C   0  0  0  0  0  0  0  0  0  0  0  0
   -4.2759    0.8701   -0.5462 C   0  0  0  0  0  0  0  0  0  0  0  0
   -5.1365    1.3556    0.6398 C   0  0  0  0  0  0  0  0  0  0  0  0
   -6.5855    1.6760    0.2671 C   0  0  0  0  0  0  0  0  0  0  0  0
   -7.0626    0.8614   -0.9250 C   0  0  0  0  0  0  0  0  0  0  0  0
   -6.2139    1.1261   -2.1679 C   0  0  0  0  0  0  0  0  0  0  0  0
   -4.7617    1.5028   -1.8562 C   0  0  0  0  0  0  0  0  0  0  0  0
    2.2217    0.3696    0.6587 C   0  0  0  0  0  0  0  0  0  0  0  0
    4.8931    2.2832   -2.8304 H   0  0  0  0  0  0  0  0  0  0  0  0
    3.5548    1.2132   -2.3869 H   0  0  0  0  0  0  0  0  0  0  0  0
    4.9860    0.5562   -3.2082 H   0  0  0  0  0  0  0  0  0  0  0  0
    6.3934    1.0866   -1.2025 H   0  0  0  0  0  0  0  0  0  0  0  0
    5.0827   -0.0392   -0.8553 H   0  0  0  0  0  0  0  0  0  0  0  0
    6.0830    3.3718   -1.0004 H   0  0  0  0  0  0  0  0  0  0  0  0
    5.9851    3.4976    0.7422 H   0  0  0  0  0  0  0  0  0  0  0  0
    3.7024    4.1404   -1.2161 H   0  0  0  0  0  0  0  0  0  0  0  0
    3.6030    4.3083    0.5410 H   0  0  0  0  0  0  0  0  0  0  0  0
    4.7190    5.3311   -0.3838 H   0  0  0  0  0  0  0  0  0  0  0  0
    4.5447   -1.4592    2.3772 H   0  0  0  0  0  0  0  0  0  0  0  0
    2.8042   -3.1823    2.1395 H   0  0  0  0  0  0  0  0  0  0  0  0
    0.6270   -3.6690    2.8560 H   0  0  0  0  0  0  0  0  0  0  0  0
   -0.7656   -2.5849    2.6341 H   0  0  0  0  0  0  0  0  0  0  0  0
   -1.5239   -4.9464    2.7871 H   0  0  0  0  0  0  0  0  0  0  0  0
   -1.8423   -4.3329    1.1606 H   0  0  0  0  0  0  0  0  0  0  0  0
    1.7042   -5.2928    1.3400 H   0  0  0  0  0  0  0  0  0  0  0  0
    1.1039   -6.0756   -0.1217 H   0  0  0  0  0  0  0  0  0  0  0  0
   -0.0562   -3.9876   -0.8129 H   0  0  0  0  0  0  0  0  0  0  0  0
    1.6773   -3.7050   -0.6311 H   0  0  0  0  0  0  0  0  0  0  0  0
   -0.6040   -1.2029   -0.0791 H   0  0  0  0  0  0  0  0  0  0  0  0
   -2.0696   -0.4475   -1.5542 H   0  0  0  0  0  0  0  0  0  0  0  0
   -1.9268    1.1617   -2.2587 H   0  0  0  0  0  0  0  0  0  0  0  0
   -2.6227    2.2218   -0.1421 H   0  0  0  0  0  0  0  0  0  0  0  0
   -2.5364    0.6970    0.7191 H   0  0  0  0  0  0  0  0  0  0  0  0
   -4.4031   -0.2185   -0.6308 H   0  0  0  0  0  0  0  0  0  0  0  0
   -5.1256    0.5805    1.4158 H   0  0  0  0  0  0  0  0  0  0  0  0
   -4.6976    2.2493    1.0993 H   0  0  0  0  0  0  0  0  0  0  0  0
   -7.2361    1.5005    1.1324 H   0  0  0  0  0  0  0  0  0  0  0  0
   -6.6693    2.7446    0.0267 H   0  0  0  0  0  0  0  0  0  0  0  0
   -7.0195   -0.2065   -0.6724 H   0  0  0  0  0  0  0  0  0  0  0  0
   -8.1134    1.0852   -1.1432 H   0  0  0  0  0  0  0  0  0  0  0  0
   -6.2372    0.2312   -2.8013 H   0  0  0  0  0  0  0  0  0  0  0  0
   -6.6641    1.9294   -2.7625 H   0  0  0  0  0  0  0  0  0  0  0  0
   -4.1404    1.1995   -2.7060 H   0  0  0  0  0  0  0  0  0  0  0  0
   -4.6778    2.5953   -1.7856 H   0  0  0  0  0  0  0  0  0  0  0  0
    2.0893    1.3730    0.2666 H   0  0  0  0  0  0  0  0  0  0  0  0
  1  2  1  0
  2  3  1  0
  3  4  1  0
  4  5  1  0
  3  6  1  0
  6  7  2  0
  6  8  2  0
  6  9  1  0
  9 10  2  0
 10 11  1  0
 11 12  2  0
 12 13  1  0
 13 14  1  0
 14 15  1  0
 15 16  1  0
 16 17  1  0
 17 18  1  0
 12 19  1  0
 19 20  1  0
 20 21  1  0
 21 22  2  0
 21 23  1  0
 23 24  1  0
 24 25  1  0
 25 26  1  0
 26 27  1  0
 27 28  1  0
 28 29  1  0
 29 30  1  0
 19 31  2  0
 31  9  1  0
 18 13  1  0
 30 25  1  0
  1 32  1  0
  1 33  1  0
  1 34  1  0
  2 35  1  0
  2 36  1  0
  4 37  1  0
  4 38  1  0
  5 39  1  0
  5 40  1  0
  5 41  1  0
 10 42  1  0
 11 43  1  0
 14 44  1  0
 14 45  1  0
 15 46  1  0
 15 47  1  0
 17 48  1  0
 17 49  1  0
 18 50  1  0
 18 51  1  0
 20 52  1  0
 23 53  1  0
 23 54  1  0
 24 55  1  0
 24 56  1  0
 25 57  1  0
 26 58  1  0
 26 59  1  0
 27 60  1  0
 27 61  1  0
 28 62  1  0
 28 63  1  0
 29 64  1  0
 29 65  1  0
 30 66  1  0
 30 67  1  0
 31 68  1  0
M  END
$$$$
