
     RDKit          3D

 39 41  0  0  0  0  0  0  0  0999 V2000
   -4.5645   -3.4950   -0.3629 C   0  0  0  0  0  0  0  0  0  0  0  0
   -3.5217   -2.3959   -0.2452 C   0  0  0  0  0  0  0  0  0  0  0  0
   -1.8739   -3.0725   -0.6222 S   0  0  0  0  0  0  0  0  0  0  0  0
   -0.8618   -1.6083   -0.4444 C   0  0  0  0  0  0  0  0  0  0  0  0
    0.5033   -1.7359   -0.5718 C   0  0  0  0  0  0  0  0  0  0  0  0
    1.2688   -0.5964   -0.4436 C   0  0  0  0  0  0  0  0  0  0  0  0
    2.6378   -0.6227   -0.5665 N   0  0  0  0  0  0  0  0  0  0  0  0
    3.4254    0.5778   -0.2984 C   0  0  0  0  0  0  0  0  0  0  0  0
    4.8046    0.0435    0.0872 C   0  0  0  0  0  0  0  0  0  0  0  0
    4.8770   -1.3069   -0.6063 C   0  0  0  0  0  0  0  0  0  0  0  0
    3.4486   -1.8301   -0.4849 C   0  0  0  0  0  0  0  0  0  0  0  0
    0.6760    0.5887   -0.2214 N   0  0  0  0  0  0  0  0  0  0  0  0
   -0.6623    0.6288   -0.1033 C   0  0  0  0  0  0  0  0  0  0  0  0
   -1.2916    1.9442    0.1455 C   0  0  0  0  0  0  0  0  0  0  0  0
   -0.5192    3.1192    0.2637 C   0  0  0  0  0  0  0  0  0  0  0  0
   -1.1125    4.3652    0.4854 C   0  0  0  0  0  0  0  0  0  0  0  0
   -2.4926    4.4554    0.5948 C   0  0  0  0  0  0  0  0  0  0  0  0
   -3.0626    5.6490    0.7969 F   0  0  0  0  0  0  0  0  0  0  0  0
   -3.2888    3.3242    0.4901 C   0  0  0  0  0  0  0  0  0  0  0  0
   -2.6912    2.0796    0.2675 C   0  0  0  0  0  0  0  0  0  0  0  0
   -1.4659   -0.4396   -0.2020 N   0  0  0  0  0  0  0  0  0  0  0  0
   -4.6368   -3.8689   -1.3891 H   0  0  0  0  0  0  0  0  0  0  0  0
   -4.3376   -4.3397    0.2951 H   0  0  0  0  0  0  0  0  0  0  0  0
   -5.5485   -3.1105   -0.0749 H   0  0  0  0  0  0  0  0  0  0  0  0
   -3.7648   -1.5907   -0.9436 H   0  0  0  0  0  0  0  0  0  0  0  0
   -3.5238   -1.9917    0.7722 H   0  0  0  0  0  0  0  0  0  0  0  0
    0.9455   -2.6999   -0.7752 H   0  0  0  0  0  0  0  0  0  0  0  0
    3.0262    1.1898    0.5191 H   0  0  0  0  0  0  0  0  0  0  0  0
    3.4840    1.1902   -1.2030 H   0  0  0  0  0  0  0  0  0  0  0  0
    5.6142    0.7181   -0.2090 H   0  0  0  0  0  0  0  0  0  0  0  0
    4.8585   -0.0962    1.1756 H   0  0  0  0  0  0  0  0  0  0  0  0
    5.6085   -1.9798   -0.1494 H   0  0  0  0  0  0  0  0  0  0  0  0
    5.1455   -1.1746   -1.6622 H   0  0  0  0  0  0  0  0  0  0  0  0
    3.2298   -2.5372   -1.2921 H   0  0  0  0  0  0  0  0  0  0  0  0
    3.3059   -2.3264    0.4814 H   0  0  0  0  0  0  0  0  0  0  0  0
    0.5651    3.0676    0.1757 H   0  0  0  0  0  0  0  0  0  0  0  0
   -0.5050    5.2606    0.5690 H   0  0  0  0  0  0  0  0  0  0  0  0
   -4.3671    3.4130    0.5762 H   0  0  0  0  0  0  0  0  0  0  0  0
   -3.3323    1.2038    0.1828 H   0  0  0  0  0  0  0  0  0  0  0  0
  1  2  1  0
  2  3  1  0
  3  4  1  0
  4  5  2  0
  5  6  1  0
  6  7  1  0
  7  8  1  0
  8  9  1  0
  9 10  1  0
 10 11  1  0
  6 12  2  0
 12 13  1  0
 13 14  1  0
 14 15  2  0
 15 16  1  0
 16 17  2  0
 17 18  1  0
 17 19  1  0
 19 20  2  0
 13 21  2  0
 21  4  1  0
 11  7  1  0
 20 14  1  0
  1 22  1  0
  1 23  1  0
  1 24  1  0
  2 25  1  0
  2 26  1  0
  5 27  1  0
  8 28  1  0
  8 29  1  0
  9 30  1  0
  9 31  1  0
 10 32  1  0
 10 33  1  0
 11 34  1  0
 11 35  1  0
 15 36  1  0
 16 37  1  0
 19 38  1  0
 20 39  1  0
M  END
$$$$
