
     RDKit          3D

 41 44  0  0  0  0  0  0  0  0999 V2000
   -1.0475    1.6927    2.5535 C   0  0  0  0  0  0  0  0  0  0  0  0
   -2.1865    0.8949    1.9293 C   0  0  0  0  0  0  0  0  0  0  0  0
   -3.1516    1.8012    1.1315 C   0  0  0  0  0  0  0  0  0  0  0  0
   -3.4484    0.9316   -0.0422 C   0  0  0  0  0  0  0  0  0  0  0  0
   -4.4198    1.1160   -1.0123 C   0  0  0  0  0  0  0  0  0  0  0  0
   -4.4849    0.1970   -2.0570 C   0  0  0  0  0  0  0  0  0  0  0  0
   -3.5677   -0.8624   -2.1276 C   0  0  0  0  0  0  0  0  0  0  0  0
   -2.5911   -1.0291   -1.1442 C   0  0  0  0  0  0  0  0  0  0  0  0
   -2.5480   -0.1368   -0.0833 C   0  0  0  0  0  0  0  0  0  0  0  0
   -1.6327   -0.1187    0.9872 N   0  0  0  0  0  0  0  0  0  0  0  0
   -1.2465   -1.4314    1.5696 C   0  0  0  0  0  0  0  0  0  0  0  0
    0.2348   -1.7433    1.3141 C   0  0  0  0  0  0  0  0  0  0  0  0
    0.7642   -2.7276    1.8231 O   0  0  0  0  0  0  0  0  0  0  0  0
    0.8304   -0.8373    0.4609 N   0  0  0  0  0  0  0  0  0  0  0  0
    2.1725   -0.7621    0.0617 C   0  0  0  0  0  0  0  0  0  0  0  0
    3.1970   -1.5450    0.6293 C   0  0  0  0  0  0  0  0  0  0  0  0
    4.5277   -1.4022    0.2155 C   0  0  0  0  0  0  0  0  0  0  0  0
    4.7948   -0.4846   -0.7757 C   0  0  0  0  0  0  0  0  0  0  0  0
    3.7986    0.2727   -1.3425 C   0  0  0  0  0  0  0  0  0  0  0  0
    2.4834    0.1669   -0.9382 C   0  0  0  0  0  0  0  0  0  0  0  0
    4.2670    1.1052   -2.3117 O   0  0  0  0  0  0  0  0  0  0  0  0
    5.6643    0.7470   -2.3252 C   0  0  0  0  0  0  0  0  0  0  0  0
    6.0179   -0.2122   -1.3020 O   0  0  0  0  0  0  0  0  0  0  0  0
   -0.3728    1.0342    3.1150 H   0  0  0  0  0  0  0  0  0  0  0  0
   -1.4307    2.4549    3.2359 H   0  0  0  0  0  0  0  0  0  0  0  0
   -0.4488    2.1907    1.7811 H   0  0  0  0  0  0  0  0  0  0  0  0
   -2.7565    0.3890    2.7200 H   0  0  0  0  0  0  0  0  0  0  0  0
   -2.6737    2.7314    0.7975 H   0  0  0  0  0  0  0  0  0  0  0  0
   -4.0471    2.0351    1.7153 H   0  0  0  0  0  0  0  0  0  0  0  0
   -5.1126    1.9511   -0.9624 H   0  0  0  0  0  0  0  0  0  0  0  0
   -5.2431    0.3035   -2.8308 H   0  0  0  0  0  0  0  0  0  0  0  0
   -3.6140   -1.5568   -2.9600 H   0  0  0  0  0  0  0  0  0  0  0  0
   -1.8753   -1.8421   -1.2341 H   0  0  0  0  0  0  0  0  0  0  0  0
   -1.8475   -2.2562    1.1719 H   0  0  0  0  0  0  0  0  0  0  0  0
   -1.3782   -1.4177    2.6574 H   0  0  0  0  0  0  0  0  0  0  0  0
    0.1735   -0.1447    0.1015 H   0  0  0  0  0  0  0  0  0  0  0  0
    2.9865   -2.2626    1.4162 H   0  0  0  0  0  0  0  0  0  0  0  0
    5.3202   -1.9950    0.6634 H   0  0  0  0  0  0  0  0  0  0  0  0
    1.7217    0.7827   -1.4057 H   0  0  0  0  0  0  0  0  0  0  0  0
    6.2605    1.6584   -2.1854 H   0  0  0  0  0  0  0  0  0  0  0  0
    5.9099    0.3117   -3.3073 H   0  0  0  0  0  0  0  0  0  0  0  0
  1  2  1  0
  2  3  1  0
  3  4  1  0
  4  5  2  0
  5  6  1  0
  6  7  2  0
  7  8  1  0
  8  9  2  0
  9 10  1  0
 10 11  1  0
 11 12  1  0
 12 13  2  0
 12 14  1  0
 14 15  1  0
 15 16  2  0
 16 17  1  0
 17 18  2  0
 18 19  1  0
 19 20  2  0
 19 21  1  0
 21 22  1  0
 22 23  1  0
 10  2  1  0
 20 15  1  0
  9  4  1  0
 23 18  1  0
  1 24  1  0
  1 25  1  0
  1 26  1  0
  2 27  1  0
  3 28  1  0
  3 29  1  0
  5 30  1  0
  6 31  1  0
  7 32  1  0
  8 33  1  0
 11 34  1  0
 11 35  1  0
 14 36  1  0
 16 37  1  0
 17 38  1  0
 20 39  1  0
 22 40  1  0
 22 41  1  0
M  END
$$$$
