
     RDKit          3D

 45 46  0  0  0  0  0  0  0  0999 V2000
    7.9974   -0.6587    1.1963 C   0  0  0  0  0  0  0  0  0  0  0  0
    7.3223    0.6398    0.7919 C   0  0  0  0  0  0  0  0  0  0  0  0
    5.8799    0.5799    0.9506 N   0  0  0  0  0  0  0  0  0  0  0  0
    5.3517    0.8883    2.1494 N   0  0  0  0  0  0  0  0  0  0  0  0
    4.0382    0.7575    1.9609 C   0  0  0  0  0  0  0  0  0  0  0  0
    3.7115    0.3574    0.6477 C   0  0  0  0  0  0  0  0  0  0  0  0
    2.4030    0.1195    0.0831 C   0  0  0  0  0  0  0  0  0  0  0  0
    1.3682    0.2774    0.8443 N   0  0  0  0  0  0  0  0  0  0  0  0
    0.1200    0.0879    0.3073 N   0  0  0  0  0  0  0  0  0  0  0  0
   -0.2611    0.3786   -0.9982 C   0  0  0  0  0  0  0  0  0  0  0  0
    0.4932    0.6924   -1.9173 O   0  0  0  0  0  0  0  0  0  0  0  0
   -1.7683    0.2441   -1.2226 C   0  0  0  0  0  0  0  0  0  0  0  0
   -2.4645    0.1096    0.0133 O   0  0  0  0  0  0  0  0  0  0  0  0
   -3.8249   -0.0212   -0.0524 C   0  0  0  0  0  0  0  0  0  0  0  0
   -4.4560   -0.1551    1.1875 C   0  0  0  0  0  0  0  0  0  0  0  0
   -5.8459   -0.2978    1.2775 C   0  0  0  0  0  0  0  0  0  0  0  0
   -6.5055   -0.4822    2.6119 C   0  0  0  0  0  0  0  0  0  0  0  0
   -6.6028   -0.3255    0.1012 C   0  0  0  0  0  0  0  0  0  0  0  0
   -5.9879   -0.1765   -1.1482 C   0  0  0  0  0  0  0  0  0  0  0  0
   -6.8071   -0.2317   -2.4049 C   0  0  0  0  0  0  0  0  0  0  0  0
   -4.5935   -0.0348   -1.2175 C   0  0  0  0  0  0  0  0  0  0  0  0
    4.9373    0.2435    0.0069 C   0  0  0  0  0  0  0  0  0  0  0  0
    5.2871   -0.1356   -1.3863 C   0  0  0  0  0  0  0  0  0  0  0  0
    7.6395   -1.4971    0.5897 H   0  0  0  0  0  0  0  0  0  0  0  0
    7.7968   -0.8979    2.2461 H   0  0  0  0  0  0  0  0  0  0  0  0
    9.0810   -0.5802    1.0654 H   0  0  0  0  0  0  0  0  0  0  0  0
    7.6880    1.4710    1.4056 H   0  0  0  0  0  0  0  0  0  0  0  0
    7.5428    0.8828   -0.2522 H   0  0  0  0  0  0  0  0  0  0  0  0
    3.3646    0.9574    2.7848 H   0  0  0  0  0  0  0  0  0  0  0  0
    2.3572   -0.2168   -0.9636 H   0  0  0  0  0  0  0  0  0  0  0  0
   -0.6336    0.0798    0.9948 H   0  0  0  0  0  0  0  0  0  0  0  0
   -1.9204   -0.6448   -1.8457 H   0  0  0  0  0  0  0  0  0  0  0  0
   -2.0971    1.1524   -1.7407 H   0  0  0  0  0  0  0  0  0  0  0  0
   -3.8536   -0.1504    2.0934 H   0  0  0  0  0  0  0  0  0  0  0  0
   -7.5236   -0.0791    2.6034 H   0  0  0  0  0  0  0  0  0  0  0  0
   -6.5480   -1.5461    2.8643 H   0  0  0  0  0  0  0  0  0  0  0  0
   -5.9542    0.0464    3.3966 H   0  0  0  0  0  0  0  0  0  0  0  0
   -7.6814   -0.4617    0.1585 H   0  0  0  0  0  0  0  0  0  0  0  0
   -7.8196    0.1465   -2.2289 H   0  0  0  0  0  0  0  0  0  0  0  0
   -6.3612    0.3893   -3.1889 H   0  0  0  0  0  0  0  0  0  0  0  0
   -6.8721   -1.2635   -2.7636 H   0  0  0  0  0  0  0  0  0  0  0  0
   -4.1370    0.0606   -2.1976 H   0  0  0  0  0  0  0  0  0  0  0  0
    5.6526    0.7363   -1.9382 H   0  0  0  0  0  0  0  0  0  0  0  0
    4.4233   -0.5349   -1.9253 H   0  0  0  0  0  0  0  0  0  0  0  0
    6.0636   -0.9069   -1.3990 H   0  0  0  0  0  0  0  0  0  0  0  0
  1  2  1  0
  2  3  1  0
  3  4  1  0
  4  5  2  0
  5  6  1  0
  6  7  1  0
  7  8  2  3
  8  9  1  0
  9 10  1  0
 10 11  2  0
 10 12  1  0
 12 13  1  0
 13 14  1  0
 14 15  2  0
 15 16  1  0
 16 17  1  0
 16 18  2  0
 18 19  1  0
 19 20  1  0
 19 21  2  0
  6 22  2  0
 22 23  1  0
 22  3  1  0
 21 14  1  0
  1 24  1  0
  1 25  1  0
  1 26  1  0
  2 27  1  0
  2 28  1  0
  5 29  1  0
  7 30  1  0
  9 31  1  0
 12 32  1  0
 12 33  1  0
 15 34  1  0
 17 35  1  0
 17 36  1  0
 17 37  1  0
 18 38  1  0
 20 39  1  0
 20 40  1  0
 20 41  1  0
 21 42  1  0
 23 43  1  0
 23 44  1  0
 23 45  1  0
M  END
$$$$
