
     RDKit          3D

 46 48  0  0  0  0  0  0  0  0999 V2000
    8.1466   -1.4517   -1.3125 C   0  0  0  0  0  0  0  0  0  0  0  0
    7.5547   -0.1617   -1.2187 O   0  0  0  0  0  0  0  0  0  0  0  0
    6.1272   -0.1995   -1.2397 C   0  0  0  0  0  0  0  0  0  0  0  0
    5.5512   -0.4471    0.1589 C   0  0  0  0  0  0  0  0  0  0  0  0
    4.0929   -0.5661    0.1431 N   0  0  0  0  0  0  0  0  0  0  0  0
    3.3325    0.5870    0.2283 C   0  0  0  0  0  0  0  0  0  0  0  0
    3.7648    1.7273    0.3207 O   0  0  0  0  0  0  0  0  0  0  0  0
    1.8858    0.2547    0.1696 C   0  0  0  0  0  0  0  0  0  0  0  0
    0.9406    1.1989    0.2634 C   0  0  0  0  0  0  0  0  0  0  0  0
   -0.5055    0.9541    0.2221 C   0  0  0  0  0  0  0  0  0  0  0  0
   -1.1275    0.7882   -1.0169 C   0  0  0  0  0  0  0  0  0  0  0  0
   -2.5051    0.5494   -1.0968 C   0  0  0  0  0  0  0  0  0  0  0  0
   -3.3134    0.4656    0.0443 C   0  0  0  0  0  0  0  0  0  0  0  0
   -4.6652    0.2291   -0.0388 N   0  0  0  0  0  0  0  0  0  0  0  0
   -5.4135    0.1638   -1.2919 C   0  0  0  0  0  0  0  0  0  0  0  0
   -6.8738    0.1667   -0.8474 C   0  0  0  0  0  0  0  0  0  0  0  0
   -6.8242   -0.5463    0.4921 C   0  0  0  0  0  0  0  0  0  0  0  0
   -5.5288   -0.0275    1.1116 C   0  0  0  0  0  0  0  0  0  0  0  0
   -2.6640    0.6400    1.2784 C   0  0  0  0  0  0  0  0  0  0  0  0
   -1.2791    0.8855    1.3891 C   0  0  0  0  0  0  0  0  0  0  0  0
   -0.6691    1.0538    2.7539 C   0  0  0  0  0  0  0  0  0  0  0  0
    1.6739   -1.4384   -0.0201 S   0  0  0  0  0  0  0  0  0  0  0  0
    3.4047   -1.7486   -0.0329 C   0  0  0  0  0  0  0  0  0  0  0  0
    4.0322   -3.2804   -0.2420 S   0  0  0  0  0  0  0  0  0  0  0  0
    7.8610   -1.9361   -2.2512 H   0  0  0  0  0  0  0  0  0  0  0  0
    7.8611   -2.0780   -0.4633 H   0  0  0  0  0  0  0  0  0  0  0  0
    9.2332   -1.3303   -1.3023 H   0  0  0  0  0  0  0  0  0  0  0  0
    5.7862    0.7771   -1.6011 H   0  0  0  0  0  0  0  0  0  0  0  0
    5.7743   -0.9418   -1.9654 H   0  0  0  0  0  0  0  0  0  0  0  0
    5.8398    0.3838    0.8148 H   0  0  0  0  0  0  0  0  0  0  0  0
    5.9904   -1.3428    0.6078 H   0  0  0  0  0  0  0  0  0  0  0  0
    1.2200    2.2431    0.3923 H   0  0  0  0  0  0  0  0  0  0  0  0
   -0.5504    0.8391   -1.9372 H   0  0  0  0  0  0  0  0  0  0  0  0
   -2.9328    0.4185   -2.0865 H   0  0  0  0  0  0  0  0  0  0  0  0
   -5.2170    1.0195   -1.9466 H   0  0  0  0  0  0  0  0  0  0  0  0
   -5.1765   -0.7644   -1.8246 H   0  0  0  0  0  0  0  0  0  0  0  0
   -7.2233    1.1971   -0.7093 H   0  0  0  0  0  0  0  0  0  0  0  0
   -7.5322   -0.3250   -1.5688 H   0  0  0  0  0  0  0  0  0  0  0  0
   -6.7586   -1.6300    0.3359 H   0  0  0  0  0  0  0  0  0  0  0  0
   -7.6981   -0.3426    1.1170 H   0  0  0  0  0  0  0  0  0  0  0  0
   -5.1131   -0.7761    1.7946 H   0  0  0  0  0  0  0  0  0  0  0  0
   -5.7111    0.9039    1.6597 H   0  0  0  0  0  0  0  0  0  0  0  0
   -3.2456    0.5950    2.1956 H   0  0  0  0  0  0  0  0  0  0  0  0
   -1.4306    1.0347    3.5408 H   0  0  0  0  0  0  0  0  0  0  0  0
   -0.1516    2.0159    2.8260 H   0  0  0  0  0  0  0  0  0  0  0  0
    0.0371    0.2423    2.9569 H   0  0  0  0  0  0  0  0  0  0  0  0
  1  2  1  0
  2  3  1  0
  3  4  1  0
  4  5  1  0
  5  6  1  0
  6  7  2  0
  6  8  1  0
  8  9  2  3
  9 10  1  0
 10 11  2  0
 11 12  1  0
 12 13  2  0
 13 14  1  0
 14 15  1  0
 15 16  1  0
 16 17  1  0
 17 18  1  0
 13 19  1  0
 19 20  2  0
 20 21  1  0
  8 22  1  0
 22 23  1  0
 23 24  2  0
 23  5  1  0
 20 10  1  0
 18 14  1  0
  1 25  1  0
  1 26  1  0
  1 27  1  0
  3 28  1  0
  3 29  1  0
  4 30  1  0
  4 31  1  0
  9 32  1  0
 11 33  1  0
 12 34  1  0
 15 35  1  0
 15 36  1  0
 16 37  1  0
 16 38  1  0
 17 39  1  0
 17 40  1  0
 18 41  1  0
 18 42  1  0
 19 43  1  0
 21 44  1  0
 21 45  1  0
 21 46  1  0
M  END
$$$$
