
     RDKit          3D

 46 47  0  0  0  0  0  0  0  0999 V2000
   -0.2329   -0.9966    0.5660 O   0  0  0  0  0  0  0  0  0  0  0  0
    0.2775   -0.2990   -0.2995 C   0  0  0  0  0  0  0  0  0  0  0  0
   -0.3694    0.2788   -1.3682 N   0  0  0  0  0  0  0  0  0  0  0  0
   -1.7952    0.1526   -1.5797 C   0  0  0  0  0  0  0  0  0  0  0  0
   -2.5822    1.1133   -0.6905 C   0  0  0  0  0  0  0  0  0  0  0  0
   -4.0891    1.0845   -0.9762 C   0  0  0  0  0  0  0  0  0  0  0  0
   -4.7075   -0.2392   -0.8212 N   0  0  0  0  0  0  0  0  0  0  0  0
   -6.1232   -0.2406   -1.2533 C   0  0  0  0  0  0  0  0  0  0  0  0
   -7.1206   -0.1497   -0.0881 C   0  0  0  0  0  0  0  0  0  0  0  0
   -6.9985   -1.2318    0.8443 O   0  0  0  0  0  0  0  0  0  0  0  0
   -5.6760   -1.7852    0.8931 C   0  0  0  0  0  0  0  0  0  0  0  0
   -4.5890   -0.7503    0.5656 C   0  0  0  0  0  0  0  0  0  0  0  0
    1.7865    0.0134   -0.2413 C   0  0  0  0  0  0  0  0  0  0  0  0
    2.2702    0.7803   -1.0638 O   0  0  0  0  0  0  0  0  0  0  0  0
    2.4071   -0.6470    0.8079 N   0  0  0  0  0  0  0  0  0  0  0  0
    3.6942   -0.4729    1.2433 N   0  0  0  0  0  0  0  0  0  0  0  0
    4.5988   -0.1188    0.3837 C   0  0  0  0  0  0  0  0  0  0  0  0
    5.9964    0.1257    0.8032 C   0  0  0  0  0  0  0  0  0  0  0  0
    6.9263    0.4716   -0.1841 C   0  0  0  0  0  0  0  0  0  0  0  0
    8.2579    0.7090    0.1652 C   0  0  0  0  0  0  0  0  0  0  0  0
    8.6611    0.6038    1.4973 C   0  0  0  0  0  0  0  0  0  0  0  0
    7.7355    0.2617    2.4839 C   0  0  0  0  0  0  0  0  0  0  0  0
    6.4080    0.0225    2.1377 C   0  0  0  0  0  0  0  0  0  0  0  0
    5.5598   -0.3069    3.1598 O   0  0  0  0  0  0  0  0  0  0  0  0
    0.1872    0.8842   -1.9668 H   0  0  0  0  0  0  0  0  0  0  0  0
   -1.9818    0.3654   -2.6374 H   0  0  0  0  0  0  0  0  0  0  0  0
   -2.0782   -0.8866   -1.3815 H   0  0  0  0  0  0  0  0  0  0  0  0
   -2.2185    2.1361   -0.8553 H   0  0  0  0  0  0  0  0  0  0  0  0
   -2.3881    0.8958    0.3667 H   0  0  0  0  0  0  0  0  0  0  0  0
   -4.2304    1.4254   -2.0106 H   0  0  0  0  0  0  0  0  0  0  0  0
   -4.5888    1.8202   -0.3323 H   0  0  0  0  0  0  0  0  0  0  0  0
   -6.2934   -1.1897   -1.7775 H   0  0  0  0  0  0  0  0  0  0  0  0
   -6.3247    0.5512   -1.9844 H   0  0  0  0  0  0  0  0  0  0  0  0
   -8.1463   -0.1630   -0.4709 H   0  0  0  0  0  0  0  0  0  0  0  0
   -6.9915    0.7906    0.4609 H   0  0  0  0  0  0  0  0  0  0  0  0
   -5.5251   -2.1827    1.9015 H   0  0  0  0  0  0  0  0  0  0  0  0
   -5.6314   -2.6330    0.1998 H   0  0  0  0  0  0  0  0  0  0  0  0
   -3.6037   -1.2099    0.6997 H   0  0  0  0  0  0  0  0  0  0  0  0
   -4.6806    0.0747    1.2847 H   0  0  0  0  0  0  0  0  0  0  0  0
    1.7794   -1.1121    1.4667 H   0  0  0  0  0  0  0  0  0  0  0  0
    4.3959   -0.0113   -0.6945 H   0  0  0  0  0  0  0  0  0  0  0  0
    6.6277    0.5610   -1.2251 H   0  0  0  0  0  0  0  0  0  0  0  0
    8.9822    0.9769   -0.6006 H   0  0  0  0  0  0  0  0  0  0  0  0
    9.6971    0.7898    1.7697 H   0  0  0  0  0  0  0  0  0  0  0  0
    8.0468    0.1820    3.5222 H   0  0  0  0  0  0  0  0  0  0  0  0
    4.6707   -0.4442    2.7657 H   0  0  0  0  0  0  0  0  0  0  0  0
  1  2  2  0
  2  3  1  0
  3  4  1  0
  4  5  1  0
  5  6  1  0
  6  7  1  0
  7  8  1  0
  8  9  1  0
  9 10  1  0
 10 11  1  0
 11 12  1  0
  2 13  1  0
 13 14  2  0
 13 15  1  0
 15 16  1  0
 16 17  2  3
 17 18  1  0
 18 19  2  0
 19 20  1  0
 20 21  2  0
 21 22  1  0
 22 23  2  0
 23 24  1  0
 12  7  1  0
 23 18  1  0
  3 25  1  0
  4 26  1  0
  4 27  1  0
  5 28  1  0
  5 29  1  0
  6 30  1  0
  6 31  1  0
  8 32  1  0
  8 33  1  0
  9 34  1  0
  9 35  1  0
 11 36  1  0
 11 37  1  0
 12 38  1  0
 12 39  1  0
 15 40  1  0
 17 41  1  0
 19 42  1  0
 20 43  1  0
 21 44  1  0
 22 45  1  0
 24 46  1  0
M  END
$$$$
