
     RDKit          3D

 57 60  0  0  0  0  0  0  0  0999 V2000
    5.5819    1.6212   -0.2847 C   0  0  0  0  0  0  0  0  0  0  0  0
    5.7995    0.3841    0.5771 C   0  0  0  0  0  0  0  0  0  0  0  0
    5.7295   -0.8983   -0.2278 C   0  0  0  0  0  0  0  0  0  0  0  0
    6.9541   -1.5356   -0.5099 C   0  0  0  0  0  0  0  0  0  0  0  0
    7.0200   -2.6302   -1.3663 C   0  0  0  0  0  0  0  0  0  0  0  0
    5.8631   -3.1017   -1.9739 C   0  0  0  0  0  0  0  0  0  0  0  0
    4.6214   -2.5026   -1.7106 C   0  0  0  0  0  0  0  0  0  0  0  0
    3.4014   -3.0726   -2.3855 C   0  0  0  0  0  0  0  0  0  0  0  0
    4.5471   -1.4155   -0.8056 C   0  0  0  0  0  0  0  0  0  0  0  0
    3.2756   -0.8355   -0.5767 N   0  0  0  0  0  0  0  0  0  0  0  0
    2.7387   -0.6234    0.6832 C   0  0  0  0  0  0  0  0  0  0  0  0
    3.2446   -0.9522    1.7497 O   0  0  0  0  0  0  0  0  0  0  0  0
    1.3731   -0.0220    0.6861 C   0  0  0  0  0  0  0  0  0  0  0  0
    0.5157   -0.3061    1.7553 C   0  0  0  0  0  0  0  0  0  0  0  0
   -0.7719    0.2349    1.7888 C   0  0  0  0  0  0  0  0  0  0  0  0
   -1.2169    1.0730    0.7570 C   0  0  0  0  0  0  0  0  0  0  0  0
   -2.6107    1.6692    0.7943 C   0  0  0  0  0  0  0  0  0  0  0  0
   -3.4245    1.3075   -0.3781 N   0  0  0  0  0  0  0  0  0  0  0  0
   -3.7400   -0.1298   -0.4587 C   0  0  0  0  0  0  0  0  0  0  0  0
   -4.6139   -0.6590    0.6885 C   0  0  0  0  0  0  0  0  0  0  0  0
   -5.7425    0.2772    1.0432 C   0  0  0  0  0  0  0  0  0  0  0  0
   -6.7596   -0.1507    1.9069 C   0  0  0  0  0  0  0  0  0  0  0  0
   -7.7877    0.7185    2.2696 C   0  0  0  0  0  0  0  0  0  0  0  0
   -7.8059    2.0209    1.7764 C   0  0  0  0  0  0  0  0  0  0  0  0
   -6.7937    2.4583    0.9217 C   0  0  0  0  0  0  0  0  0  0  0  0
   -5.7477    1.5979    0.5579 C   0  0  0  0  0  0  0  0  0  0  0  0
   -4.6830    2.0761   -0.4071 C   0  0  0  0  0  0  0  0  0  0  0  0
   -0.3453    1.3704   -0.3020 C   0  0  0  0  0  0  0  0  0  0  0  0
    0.9428    0.8305   -0.3383 C   0  0  0  0  0  0  0  0  0  0  0  0
    6.3124    1.6679   -1.0995 H   0  0  0  0  0  0  0  0  0  0  0  0
    4.5820    1.6381   -0.7290 H   0  0  0  0  0  0  0  0  0  0  0  0
    5.6931    2.5260    0.3215 H   0  0  0  0  0  0  0  0  0  0  0  0
    5.0992    0.3784    1.4119 H   0  0  0  0  0  0  0  0  0  0  0  0
    6.7863    0.4683    1.0509 H   0  0  0  0  0  0  0  0  0  0  0  0
    7.8789   -1.1595   -0.0763 H   0  0  0  0  0  0  0  0  0  0  0  0
    7.9767   -3.1028   -1.5720 H   0  0  0  0  0  0  0  0  0  0  0  0
    5.9349   -3.9496   -2.6516 H   0  0  0  0  0  0  0  0  0  0  0  0
    2.6534   -3.3639   -1.6409 H   0  0  0  0  0  0  0  0  0  0  0  0
    2.9708   -2.3373   -3.0727 H   0  0  0  0  0  0  0  0  0  0  0  0
    3.6427   -3.9675   -2.9691 H   0  0  0  0  0  0  0  0  0  0  0  0
    2.5777   -1.0075   -1.2877 H   0  0  0  0  0  0  0  0  0  0  0  0
    0.8493   -0.9523    2.5654 H   0  0  0  0  0  0  0  0  0  0  0  0
   -1.4230   -0.0013    2.6278 H   0  0  0  0  0  0  0  0  0  0  0  0
   -3.1063    1.4095    1.7375 H   0  0  0  0  0  0  0  0  0  0  0  0
   -2.4727    2.7589    0.8217 H   0  0  0  0  0  0  0  0  0  0  0  0
   -4.2619   -0.3072   -1.4097 H   0  0  0  0  0  0  0  0  0  0  0  0
   -2.8249   -0.7296   -0.5290 H   0  0  0  0  0  0  0  0  0  0  0  0
   -3.9979   -0.8104    1.5831 H   0  0  0  0  0  0  0  0  0  0  0  0
   -5.0231   -1.6342    0.3985 H   0  0  0  0  0  0  0  0  0  0  0  0
   -6.7539   -1.1640    2.3019 H   0  0  0  0  0  0  0  0  0  0  0  0
   -8.5752    0.3793    2.9374 H   0  0  0  0  0  0  0  0  0  0  0  0
   -8.6104    2.6962    2.0560 H   0  0  0  0  0  0  0  0  0  0  0  0
   -6.8259    3.4759    0.5387 H   0  0  0  0  0  0  0  0  0  0  0  0
   -4.4712    3.1394   -0.2365 H   0  0  0  0  0  0  0  0  0  0  0  0
   -5.1021    2.0123   -1.4200 H   0  0  0  0  0  0  0  0  0  0  0  0
   -0.6758    2.0289   -1.1036 H   0  0  0  0  0  0  0  0  0  0  0  0
    1.6022    1.1039   -1.1577 H   0  0  0  0  0  0  0  0  0  0  0  0
  1  2  1  0
  2  3  1  0
  3  4  2  0
  4  5  1  0
  5  6  2  0
  6  7  1  0
  7  8  1  0
  7  9  2  0
  9 10  1  0
 10 11  1  0
 11 12  2  0
 11 13  1  0
 13 14  2  0
 14 15  1  0
 15 16  2  0
 16 17  1  0
 17 18  1  0
 18 19  1  0
 19 20  1  0
 20 21  1  0
 21 22  2  0
 22 23  1  0
 23 24  2  0
 24 25  1  0
 25 26  2  0
 26 27  1  0
 16 28  1  0
 28 29  2  0
  9  3  1  0
 29 13  1  0
 27 18  1  0
 26 21  1  0
  1 30  1  0
  1 31  1  0
  1 32  1  0
  2 33  1  0
  2 34  1  0
  4 35  1  0
  5 36  1  0
  6 37  1  0
  8 38  1  0
  8 39  1  0
  8 40  1  0
 10 41  1  0
 14 42  1  0
 15 43  1  0
 17 44  1  0
 17 45  1  0
 19 46  1  0
 19 47  1  0
 20 48  1  0
 20 49  1  0
 22 50  1  0
 23 51  1  0
 24 52  1  0
 25 53  1  0
 27 54  1  0
 27 55  1  0
 28 56  1  0
 29 57  1  0
M  END
$$$$
