
     RDKit          3D

 41 43  0  0  0  0  0  0  0  0999 V2000
   -7.8351    0.9782    0.4339 C   0  0  0  0  0  0  0  0  0  0  0  0
   -6.3251    1.1332    0.4597 C   0  0  0  0  0  0  0  0  0  0  0  0
   -5.7471   -0.1516    0.2358 O   0  0  0  0  0  0  0  0  0  0  0  0
   -4.3827   -0.2268    0.2226 C   0  0  0  0  0  0  0  0  0  0  0  0
   -3.4984    0.8334    0.4065 C   0  0  0  0  0  0  0  0  0  0  0  0
   -2.1149    0.6130    0.3665 C   0  0  0  0  0  0  0  0  0  0  0  0
   -1.5907   -0.6708    0.1528 C   0  0  0  0  0  0  0  0  0  0  0  0
   -0.1634   -0.8838    0.0973 N   0  0  0  0  0  0  0  0  0  0  0  0
    0.5604   -0.0241   -0.7504 C   0  0  0  0  0  0  0  0  0  0  0  0
    0.0596    0.8672   -1.4400 O   0  0  0  0  0  0  0  0  0  0  0  0
    2.0320   -0.2466   -0.8066 C   0  0  0  0  0  0  0  0  0  0  0  0
    2.7692    0.7505   -1.3332 C   0  0  0  0  0  0  0  0  0  0  0  0
    4.1882    0.7940   -1.3325 C   0  0  0  0  0  0  0  0  0  0  0  0
    5.0404    1.3141   -2.2989 C   0  0  0  0  0  0  0  0  0  0  0  0
    6.3687    1.1646   -1.8347 C   0  0  0  0  0  0  0  0  0  0  0  0
    6.2714    0.5799   -0.5955 C   0  0  0  0  0  0  0  0  0  0  0  0
    7.2609    0.1510    0.4110 C   0  0  0  0  0  0  0  0  0  0  0  0
    4.9664    0.3747   -0.2783 O   0  0  0  0  0  0  0  0  0  0  0  0
    2.5790   -1.5171   -0.3037 C   0  0  0  0  0  0  0  0  0  0  0  0
    3.6190   -2.0410   -0.6784 O   0  0  0  0  0  0  0  0  0  0  0  0
    1.7693   -2.1433    0.5975 N   0  0  0  0  0  0  0  0  0  0  0  0
    0.4418   -1.9038    0.8482 C   0  0  0  0  0  0  0  0  0  0  0  0
   -0.2286   -2.8561    2.0634 S   0  0  0  0  0  0  0  0  0  0  0  0
   -2.4898   -1.7264   -0.0474 C   0  0  0  0  0  0  0  0  0  0  0  0
   -3.8705   -1.5040   -0.0069 C   0  0  0  0  0  0  0  0  0  0  0  0
   -8.1635    0.2728    1.2045 H   0  0  0  0  0  0  0  0  0  0  0  0
   -8.3287    1.9395    0.6014 H   0  0  0  0  0  0  0  0  0  0  0  0
   -8.1648    0.5743   -0.5292 H   0  0  0  0  0  0  0  0  0  0  0  0
   -6.0235    1.8292   -0.3315 H   0  0  0  0  0  0  0  0  0  0  0  0
   -6.0222    1.5213    1.4391 H   0  0  0  0  0  0  0  0  0  0  0  0
   -3.8462    1.8462    0.5803 H   0  0  0  0  0  0  0  0  0  0  0  0
   -1.4544    1.4641    0.5183 H   0  0  0  0  0  0  0  0  0  0  0  0
    2.2799    1.6281   -1.7507 H   0  0  0  0  0  0  0  0  0  0  0  0
    4.7302    1.7423   -3.2423 H   0  0  0  0  0  0  0  0  0  0  0  0
    7.2809    1.4468   -2.3411 H   0  0  0  0  0  0  0  0  0  0  0  0
    7.1108    0.6921    1.3503 H   0  0  0  0  0  0  0  0  0  0  0  0
    8.2814    0.3434    0.0658 H   0  0  0  0  0  0  0  0  0  0  0  0
    7.1647   -0.9208    0.6099 H   0  0  0  0  0  0  0  0  0  0  0  0
    2.1689   -2.9700    1.0249 H   0  0  0  0  0  0  0  0  0  0  0  0
   -2.1404   -2.7317   -0.2682 H   0  0  0  0  0  0  0  0  0  0  0  0
   -4.5532   -2.3361   -0.1639 H   0  0  0  0  0  0  0  0  0  0  0  0
  1  2  1  0
  2  3  1  0
  3  4  1  0
  4  5  2  0
  5  6  1  0
  6  7  2  0
  7  8  1  0
  8  9  1  0
  9 10  2  0
  9 11  1  0
 11 12  2  3
 12 13  1  0
 13 14  2  0
 14 15  1  0
 15 16  2  0
 16 17  1  0
 16 18  1  0
 11 19  1  0
 19 20  2  0
 19 21  1  0
 21 22  1  0
 22 23  2  0
  7 24  1  0
 24 25  2  0
 25  4  1  0
 22  8  1  0
 18 13  1  0
  1 26  1  0
  1 27  1  0
  1 28  1  0
  2 29  1  0
  2 30  1  0
  5 31  1  0
  6 32  1  0
 12 33  1  0
 14 34  1  0
 15 35  1  0
 17 36  1  0
 17 37  1  0
 17 38  1  0
 21 39  1  0
 24 40  1  0
 25 41  1  0
M  END
$$$$
