
     RDKit          3D

 50 51  0  0  0  0  0  0  0  0999 V2000
    6.1677    0.7161   -1.6050 C   0  0  0  0  0  0  0  0  0  0  0  0
    5.2671    1.0033   -0.4397 C   0  0  0  0  0  0  0  0  0  0  0  0
    4.0507    1.6689   -0.6312 C   0  0  0  0  0  0  0  0  0  0  0  0
    3.1990    1.9106    0.4490 C   0  0  0  0  0  0  0  0  0  0  0  0
    3.5459    1.4748    1.7328 C   0  0  0  0  0  0  0  0  0  0  0  0
    2.6522    1.7290    2.8620 C   0  0  0  0  0  0  0  0  0  0  0  0
    2.7160    2.8575    3.5796 C   0  0  0  0  0  0  0  0  0  0  0  0
    1.5178    2.8945    4.8276 S   0  0  0  0  0  0  0  0  0  0  0  0
    0.8820    1.3095    4.3340 C   0  0  0  0  0  0  0  0  0  0  0  0
   -0.4143    0.5819    5.0838 S   0  0  0  0  0  0  0  0  0  0  0  0
    1.6613    0.8414    3.2721 N   0  0  0  0  0  0  0  0  0  0  0  0
    1.3982   -0.4160    2.5589 C   0  0  0  0  0  0  0  0  0  0  0  0
    0.5776   -0.1935    1.2951 C   0  0  0  0  0  0  0  0  0  0  0  0
   -0.1014    0.7943    1.0436 O   0  0  0  0  0  0  0  0  0  0  0  0
    0.7020   -1.2770    0.4728 O   0  0  0  0  0  0  0  0  0  0  0  0
   -0.1494   -1.2330   -0.6707 C   0  0  0  0  0  0  0  0  0  0  0  0
   -1.6047   -1.5564   -0.3233 C   0  0  0  0  0  0  0  0  0  0  0  0
   -1.9201   -2.1690    0.6935 O   0  0  0  0  0  0  0  0  0  0  0  0
   -2.5175   -1.1116   -1.2599 N   0  0  0  0  0  0  0  0  0  0  0  0
   -3.9483   -1.3826   -1.1354 C   0  0  0  0  0  0  0  0  0  0  0  0
   -4.2598   -2.7865   -1.6591 C   0  0  0  0  0  0  0  0  0  0  0  0
   -4.7737   -0.2544   -1.8053 C   0  0  0  0  0  0  0  0  0  0  0  0
   -6.2387   -0.2924   -1.3585 C   0  0  0  0  0  0  0  0  0  0  0  0
   -4.7029   -0.2609   -3.3355 C   0  0  0  0  0  0  0  0  0  0  0  0
    4.7579    0.8037    1.9260 C   0  0  0  0  0  0  0  0  0  0  0  0
    5.6089    0.5627    0.8446 C   0  0  0  0  0  0  0  0  0  0  0  0
    5.9110   -0.2520   -2.0460 H   0  0  0  0  0  0  0  0  0  0  0  0
    7.2169    0.6961   -1.2919 H   0  0  0  0  0  0  0  0  0  0  0  0
    6.0730    1.4913   -2.3726 H   0  0  0  0  0  0  0  0  0  0  0  0
    3.7598    2.0084   -1.6231 H   0  0  0  0  0  0  0  0  0  0  0  0
    2.2595    2.4354    0.2816 H   0  0  0  0  0  0  0  0  0  0  0  0
    3.4098    3.6713    3.4165 H   0  0  0  0  0  0  0  0  0  0  0  0
    2.3543   -0.8834    2.3019 H   0  0  0  0  0  0  0  0  0  0  0  0
    0.8498   -1.1140    3.1970 H   0  0  0  0  0  0  0  0  0  0  0  0
    0.1996   -2.0023   -1.3678 H   0  0  0  0  0  0  0  0  0  0  0  0
   -0.0702   -0.2660   -1.1813 H   0  0  0  0  0  0  0  0  0  0  0  0
   -2.1755   -0.7130   -2.1239 H   0  0  0  0  0  0  0  0  0  0  0  0
   -4.1777   -1.3740   -0.0618 H   0  0  0  0  0  0  0  0  0  0  0  0
   -5.3252   -3.0195   -1.5771 H   0  0  0  0  0  0  0  0  0  0  0  0
   -3.9573   -2.9034   -2.7050 H   0  0  0  0  0  0  0  0  0  0  0  0
   -3.7135   -3.5429   -1.0844 H   0  0  0  0  0  0  0  0  0  0  0  0
   -4.3608    0.7054   -1.4648 H   0  0  0  0  0  0  0  0  0  0  0  0
   -6.3146   -0.2657   -0.2664 H   0  0  0  0  0  0  0  0  0  0  0  0
   -6.7500   -1.1920   -1.7149 H   0  0  0  0  0  0  0  0  0  0  0  0
   -6.7821    0.5749   -1.7491 H   0  0  0  0  0  0  0  0  0  0  0  0
   -3.6687   -0.2260   -3.6903 H   0  0  0  0  0  0  0  0  0  0  0  0
   -5.2187    0.6152   -3.7441 H   0  0  0  0  0  0  0  0  0  0  0  0
   -5.1812   -1.1495   -3.7600 H   0  0  0  0  0  0  0  0  0  0  0  0
    5.0453    0.4597    2.9173 H   0  0  0  0  0  0  0  0  0  0  0  0
    6.5434    0.0311    1.0120 H   0  0  0  0  0  0  0  0  0  0  0  0
  1  2  1  0
  2  3  2  0
  3  4  1  0
  4  5  2  0
  5  6  1  0
  6  7  2  0
  7  8  1  0
  8  9  1  0
  9 10  2  0
  9 11  1  0
 11 12  1  0
 12 13  1  0
 13 14  2  0
 13 15  1  0
 15 16  1  0
 16 17  1  0
 17 18  2  0
 17 19  1  0
 19 20  1  0
 20 21  1  0
 20 22  1  0
 22 23  1  0
 22 24  1  0
  5 25  1  0
 25 26  2  0
 26  2  1  0
 11  6  1  0
  1 27  1  0
  1 28  1  0
  1 29  1  0
  3 30  1  0
  4 31  1  0
  7 32  1  0
 12 33  1  0
 12 34  1  0
 16 35  1  0
 16 36  1  0
 19 37  1  0
 20 38  1  0
 21 39  1  0
 21 40  1  0
 21 41  1  0
 22 42  1  0
 23 43  1  0
 23 44  1  0
 23 45  1  0
 24 46  1  0
 24 47  1  0
 24 48  1  0
 25 49  1  0
 26 50  1  0
M  END
$$$$
