
     RDKit          3D

 53 55  0  0  0  0  0  0  0  0999 V2000
   -7.1257    0.8788    1.0253 C   0  0  0  0  0  0  0  0  0  0  0  0
   -6.8167    0.3601   -0.3704 C   0  0  0  0  0  0  0  0  0  0  0  0
   -5.3321    0.4300   -0.7326 C   0  0  0  0  0  0  0  0  0  0  0  0
   -4.4552   -0.4863    0.1240 C   0  0  0  0  0  0  0  0  0  0  0  0
   -3.0853   -0.4511   -0.3372 N   0  0  0  0  0  0  0  0  0  0  0  0
   -2.1052    0.4959   -0.0332 C   0  0  0  0  0  0  0  0  0  0  0  0
   -2.1601    1.4493    0.8324 N   0  0  0  0  0  0  0  0  0  0  0  0
   -1.0047    0.2286   -0.8436 N   0  0  0  0  0  0  0  0  0  0  0  0
    0.2790    0.8954   -0.7497 C   0  0  0  0  0  0  0  0  0  0  0  0
    1.1510    0.2625    0.3453 C   0  0  0  0  0  0  0  0  0  0  0  0
    1.8651   -0.8661   -0.1937 O   0  0  0  0  0  0  0  0  0  0  0  0
    2.1666    1.2782    0.8813 C   0  0  0  0  0  0  0  0  0  0  0  0
    2.9144    0.6678    1.9452 O   0  0  0  0  0  0  0  0  0  0  0  0
    4.2732    0.6536    1.7974 C   0  0  0  0  0  0  0  0  0  0  0  0
    5.0135    0.8722    2.9588 C   0  0  0  0  0  0  0  0  0  0  0  0
    6.4098    0.8407    2.9238 C   0  0  0  0  0  0  0  0  0  0  0  0
    7.0807    0.5824    1.7235 C   0  0  0  0  0  0  0  0  0  0  0  0
    8.5785    0.5121    1.6881 C   0  0  0  0  0  0  0  0  0  0  0  0
    6.3311    0.3231    0.5694 C   0  0  0  0  0  0  0  0  0  0  0  0
    4.9333    0.3563    0.6058 C   0  0  0  0  0  0  0  0  0  0  0  0
   -1.2700   -0.8935   -1.6223 C   0  0  0  0  0  0  0  0  0  0  0  0
   -0.4978   -1.5685   -2.5436 C   0  0  0  0  0  0  0  0  0  0  0  0
   -1.0659   -2.6674   -3.1950 C   0  0  0  0  0  0  0  0  0  0  0  0
   -2.3846   -3.0688   -2.9166 C   0  0  0  0  0  0  0  0  0  0  0  0
   -3.1596   -2.3851   -1.9742 C   0  0  0  0  0  0  0  0  0  0  0  0
   -2.5902   -1.3052   -1.3301 C   0  0  0  0  0  0  0  0  0  0  0  0
   -8.2080    0.8984    1.1872 H   0  0  0  0  0  0  0  0  0  0  0  0
   -6.7445    1.8961    1.1605 H   0  0  0  0  0  0  0  0  0  0  0  0
   -6.6880    0.2393    1.7971 H   0  0  0  0  0  0  0  0  0  0  0  0
   -7.1760   -0.6713   -0.4648 H   0  0  0  0  0  0  0  0  0  0  0  0
   -7.3792    0.9591   -1.0965 H   0  0  0  0  0  0  0  0  0  0  0  0
   -5.2247    0.1538   -1.7893 H   0  0  0  0  0  0  0  0  0  0  0  0
   -4.9813    1.4664   -0.6494 H   0  0  0  0  0  0  0  0  0  0  0  0
   -4.8486   -1.5097    0.1105 H   0  0  0  0  0  0  0  0  0  0  0  0
   -4.4923   -0.1727    1.1731 H   0  0  0  0  0  0  0  0  0  0  0  0
   -3.0698    1.4248    1.2932 H   0  0  0  0  0  0  0  0  0  0  0  0
    0.7966    0.8722   -1.7163 H   0  0  0  0  0  0  0  0  0  0  0  0
    0.0997    1.9536   -0.5232 H   0  0  0  0  0  0  0  0  0  0  0  0
    0.5402   -0.1161    1.1735 H   0  0  0  0  0  0  0  0  0  0  0  0
    2.3494   -1.2493    0.5624 H   0  0  0  0  0  0  0  0  0  0  0  0
    2.8006    1.6677    0.0767 H   0  0  0  0  0  0  0  0  0  0  0  0
    1.6391    2.1340    1.3178 H   0  0  0  0  0  0  0  0  0  0  0  0
    4.5015    1.0713    3.8968 H   0  0  0  0  0  0  0  0  0  0  0  0
    6.9680    1.0163    3.8407 H   0  0  0  0  0  0  0  0  0  0  0  0
    8.9608    0.8424    0.7163 H   0  0  0  0  0  0  0  0  0  0  0  0
    8.9098   -0.5153    1.8690 H   0  0  0  0  0  0  0  0  0  0  0  0
    9.0191    1.1652    2.4486 H   0  0  0  0  0  0  0  0  0  0  0  0
    6.8311    0.0837   -0.3669 H   0  0  0  0  0  0  0  0  0  0  0  0
    4.3839    0.1229   -0.3018 H   0  0  0  0  0  0  0  0  0  0  0  0
    0.5218   -1.2692   -2.7566 H   0  0  0  0  0  0  0  0  0  0  0  0
   -0.4788   -3.2202   -3.9250 H   0  0  0  0  0  0  0  0  0  0  0  0
   -2.8031   -3.9272   -3.4373 H   0  0  0  0  0  0  0  0  0  0  0  0
   -4.1705   -2.7108   -1.7633 H   0  0  0  0  0  0  0  0  0  0  0  0
  1  2  1  0
  2  3  1  0
  3  4  1  0
  4  5  1  0
  5  6  1  0
  6  7  2  3
  6  8  1  0
  8  9  1  0
  9 10  1  0
 10 11  1  0
 10 12  1  0
 12 13  1  0
 13 14  1  0
 14 15  2  0
 15 16  1  0
 16 17  2  0
 17 18  1  0
 17 19  1  0
 19 20  2  0
  8 21  1  0
 21 22  2  0
 22 23  1  0
 23 24  2  0
 24 25  1  0
 25 26  2  0
 26  5  1  0
 20 14  1  0
 26 21  1  0
  1 27  1  0
  1 28  1  0
  1 29  1  0
  2 30  1  0
  2 31  1  0
  3 32  1  0
  3 33  1  0
  4 34  1  0
  4 35  1  0
  7 36  1  0
  9 37  1  0
  9 38  1  0
 10 39  1  0
 11 40  1  0
 12 41  1  0
 12 42  1  0
 15 43  1  0
 16 44  1  0
 18 45  1  0
 18 46  1  0
 18 47  1  0
 19 48  1  0
 20 49  1  0
 22 50  1  0
 23 51  1  0
 24 52  1  0
 25 53  1  0
M  END
$$$$
