
     RDKit          3D

 39 40  0  0  0  0  0  0  0  0999 V2000
    7.6109   -0.2865    0.7792 C   0  0  0  0  0  0  0  0  0  0  0  0
    6.7629   -0.5734   -0.3254 O   0  0  0  0  0  0  0  0  0  0  0  0
    5.4159   -0.5640   -0.0890 C   0  0  0  0  0  0  0  0  0  0  0  0
    4.6257   -0.8604   -1.2014 C   0  0  0  0  0  0  0  0  0  0  0  0
    3.2329   -0.8852   -1.1015 C   0  0  0  0  0  0  0  0  0  0  0  0
    2.6085   -0.6156    0.1211 C   0  0  0  0  0  0  0  0  0  0  0  0
    1.1063   -0.6207    0.2253 C   0  0  0  0  0  0  0  0  0  0  0  0
    0.5002    0.7217   -0.1804 C   0  0  0  0  0  0  0  0  0  0  0  0
   -0.9280    0.7017   -0.0070 O   0  0  0  0  0  0  0  0  0  0  0  0
   -1.6332    0.1674   -1.0333 C   0  0  0  0  0  0  0  0  0  0  0  0
   -1.1666   -0.3091   -2.0549 O   0  0  0  0  0  0  0  0  0  0  0  0
   -3.0929    0.2223   -0.7474 C   0  0  0  0  0  0  0  0  0  0  0  0
   -3.9732   -0.3027   -1.7005 C   0  0  0  0  0  0  0  0  0  0  0  0
   -5.3563   -0.2766   -1.4842 C   0  0  0  0  0  0  0  0  0  0  0  0
   -5.8995    0.2344   -0.2974 C   0  0  0  0  0  0  0  0  0  0  0  0
   -7.2963    0.3557   -0.2145 N   0  0  0  0  0  0  0  0  0  0  0  0
   -5.0034    0.8054    0.6285 C   0  0  0  0  0  0  0  0  0  0  0  0
   -5.4960    1.4200    1.8624 N   0  0  0  0  0  4  0  0  0  0  0  0
   -4.8295    2.3475    2.3444 O   0  0  0  0  0  0  0  0  0  0  0  0
   -6.5339    0.9610    2.3652 O   0  0  0  0  0  1  0  0  0  0  0  0
   -3.6113    0.7873    0.4218 C   0  0  0  0  0  0  0  0  0  0  0  0
    3.4018   -0.3134    1.2343 C   0  0  0  0  0  0  0  0  0  0  0  0
    4.7975   -0.2897    1.1307 C   0  0  0  0  0  0  0  0  0  0  0  0
    7.4382    0.7267    1.1567 H   0  0  0  0  0  0  0  0  0  0  0  0
    7.4910   -1.0310    1.5732 H   0  0  0  0  0  0  0  0  0  0  0  0
    8.6461   -0.3385    0.4282 H   0  0  0  0  0  0  0  0  0  0  0  0
    5.0997   -1.0738   -2.1564 H   0  0  0  0  0  0  0  0  0  0  0  0
    2.6409   -1.1169   -1.9848 H   0  0  0  0  0  0  0  0  0  0  0  0
    0.7988   -0.8700    1.2492 H   0  0  0  0  0  0  0  0  0  0  0  0
    0.6972   -1.4303   -0.3919 H   0  0  0  0  0  0  0  0  0  0  0  0
    0.7617    0.9998   -1.2092 H   0  0  0  0  0  0  0  0  0  0  0  0
    0.8835    1.5207    0.4647 H   0  0  0  0  0  0  0  0  0  0  0  0
   -3.5889   -0.7239   -2.6291 H   0  0  0  0  0  0  0  0  0  0  0  0
   -6.0118   -0.6602   -2.2644 H   0  0  0  0  0  0  0  0  0  0  0  0
   -7.8174   -0.3431   -0.7371 H   0  0  0  0  0  0  0  0  0  0  0  0
   -7.6469    0.4422    0.7441 H   0  0  0  0  0  0  0  0  0  0  0  0
   -2.9443    1.2180    1.1662 H   0  0  0  0  0  0  0  0  0  0  0  0
    2.9400   -0.0941    2.1947 H   0  0  0  0  0  0  0  0  0  0  0  0
    5.3698   -0.0527    2.0211 H   0  0  0  0  0  0  0  0  0  0  0  0
  1  2  1  0
  2  3  1  0
  3  4  2  0
  4  5  1  0
  5  6  2  0
  6  7  1  0
  7  8  1  0
  8  9  1  0
  9 10  1  0
 10 11  2  0
 10 12  1  0
 12 13  2  0
 13 14  1  0
 14 15  2  0
 15 16  1  0
 15 17  1  0
 17 18  1  0
 18 19  2  0
 18 20  1  0
 17 21  2  0
  6 22  1  0
 22 23  2  0
 23  3  1  0
 21 12  1  0
  1 24  1  0
  1 25  1  0
  1 26  1  0
  4 27  1  0
  5 28  1  0
  7 29  1  0
  7 30  1  0
  8 31  1  0
  8 32  1  0
 13 33  1  0
 14 34  1  0
 16 35  1  0
 16 36  1  0
 21 37  1  0
 22 38  1  0
 23 39  1  0
M  CHG  2  18   1  20  -1
M  END
$$$$
