
     RDKit          3D

 36 37  0  0  0  0  0  0  0  0999 V2000
    1.1196    1.9630   -2.0156 C   0  0  0  0  0  0  0  0  0  0  0  0
    1.0408    0.6705   -1.4144 O   0  0  0  0  0  0  0  0  0  0  0  0
    2.0793    0.3519   -0.5718 C   0  0  0  0  0  0  0  0  0  0  0  0
    2.7830    1.2967    0.1815 C   0  0  0  0  0  0  0  0  0  0  0  0
    3.7907    0.8888    1.0563 C   0  0  0  0  0  0  0  0  0  0  0  0
    4.0846   -0.4652    1.1979 C   0  0  0  0  0  0  0  0  0  0  0  0
    3.3800   -1.4141    0.4590 C   0  0  0  0  0  0  0  0  0  0  0  0
    2.3754   -1.0160   -0.4367 C   0  0  0  0  0  0  0  0  0  0  0  0
    1.6164   -2.0704   -1.2112 C   0  0  0  0  0  0  0  0  0  0  0  0
    0.3400   -2.5018   -0.5068 C   0  0  0  0  0  0  0  0  0  0  0  0
    0.2548   -3.5898    0.0521 O   0  0  0  0  0  0  0  0  0  0  0  0
   -0.6633   -1.5510   -0.5874 N   0  0  0  0  0  0  0  0  0  0  0  0
   -1.8732   -1.6446    0.0683 C   0  0  0  0  0  0  0  0  0  0  0  0
   -2.5251   -2.6741    0.2212 O   0  0  0  0  0  0  0  0  0  0  0  0
   -2.5038   -0.3499    0.4395 C   0  0  0  0  0  0  0  0  0  0  0  0
   -1.7231    0.7470    0.8329 C   0  0  0  0  0  0  0  0  0  0  0  0
   -2.3317    1.9634    1.1503 C   0  0  0  0  0  0  0  0  0  0  0  0
   -3.7213    2.0844    1.0942 C   0  0  0  0  0  0  0  0  0  0  0  0
   -4.5054    0.9901    0.7331 C   0  0  0  0  0  0  0  0  0  0  0  0
   -3.8995   -0.2247    0.4192 C   0  0  0  0  0  0  0  0  0  0  0  0
   -4.7375   -1.2568    0.0965 O   0  0  0  0  0  0  0  0  0  0  0  0
    0.4151    1.9867   -2.8529 H   0  0  0  0  0  0  0  0  0  0  0  0
    0.8153    2.7373   -1.3047 H   0  0  0  0  0  0  0  0  0  0  0  0
    2.1198    2.1628   -2.4154 H   0  0  0  0  0  0  0  0  0  0  0  0
    2.5555    2.3555    0.1248 H   0  0  0  0  0  0  0  0  0  0  0  0
    4.3418    1.6234    1.6399 H   0  0  0  0  0  0  0  0  0  0  0  0
    4.8566   -0.7853    1.8935 H   0  0  0  0  0  0  0  0  0  0  0  0
    3.6129   -2.4700    0.5927 H   0  0  0  0  0  0  0  0  0  0  0  0
    1.3768   -1.7174   -2.2212 H   0  0  0  0  0  0  0  0  0  0  0  0
    2.2456   -2.9563   -1.3578 H   0  0  0  0  0  0  0  0  0  0  0  0
   -0.3562   -0.6293   -0.8799 H   0  0  0  0  0  0  0  0  0  0  0  0
   -0.6441    0.6675    0.9242 H   0  0  0  0  0  0  0  0  0  0  0  0
   -1.7248    2.8115    1.4575 H   0  0  0  0  0  0  0  0  0  0  0  0
   -4.1941    3.0300    1.3453 H   0  0  0  0  0  0  0  0  0  0  0  0
   -5.5891    1.0751    0.7073 H   0  0  0  0  0  0  0  0  0  0  0  0
   -4.2117   -2.0884    0.1056 H   0  0  0  0  0  0  0  0  0  0  0  0
  1  2  1  0
  2  3  1  0
  3  4  2  0
  4  5  1  0
  5  6  2  0
  6  7  1  0
  7  8  2  0
  8  9  1  0
  9 10  1  0
 10 11  2  0
 10 12  1  0
 12 13  1  0
 13 14  2  0
 13 15  1  0
 15 16  2  0
 16 17  1  0
 17 18  2  0
 18 19  1  0
 19 20  2  0
 20 21  1  0
  8  3  1  0
 20 15  1  0
  1 22  1  0
  1 23  1  0
  1 24  1  0
  4 25  1  0
  5 26  1  0
  6 27  1  0
  7 28  1  0
  9 29  1  0
  9 30  1  0
 12 31  1  0
 16 32  1  0
 17 33  1  0
 18 34  1  0
 19 35  1  0
 21 36  1  0
M  END
$$$$
