
     RDKit          3D

 50 52  0  0  0  0  0  0  0  0999 V2000
    3.0322    2.5852    0.9175 O   0  0  0  0  0  0  0  0  0  0  0  0
    3.6628    1.7736    0.2481 C   0  0  0  0  0  0  0  0  0  0  0  0
    5.1082    1.4200    0.5139 C   0  0  0  0  0  0  0  0  0  0  0  0
    5.4916   -0.0131    0.2179 C   0  0  0  0  0  0  0  0  0  0  0  0
    4.8322   -1.0750    0.8596 C   0  0  0  0  0  0  0  0  0  0  0  0
    5.1952   -2.3959    0.5937 C   0  0  0  0  0  0  0  0  0  0  0  0
    6.2211   -2.6569   -0.3054 C   0  0  0  0  0  0  0  0  0  0  0  0
    6.5700   -3.9249   -0.5603 F   0  0  0  0  0  0  0  0  0  0  0  0
    6.8921   -1.6215   -0.9444 C   0  0  0  0  0  0  0  0  0  0  0  0
    6.5299   -0.2991   -0.6826 C   0  0  0  0  0  0  0  0  0  0  0  0
    3.1739    1.1487   -0.8585 O   0  0  0  0  0  0  0  0  0  0  0  0
    1.7763    1.3474   -1.0664 C   0  0  0  0  0  0  0  0  0  0  0  0
    0.8995    0.6138   -0.0374 C   0  0  0  0  0  0  0  0  0  0  0  0
    1.3761   -0.2342    0.7209 O   0  0  0  0  0  0  0  0  0  0  0  0
   -0.4508    0.9381   -0.0093 N   0  0  0  0  0  0  0  0  0  0  0  0
   -1.2983    0.3452    1.0292 C   0  0  0  0  0  0  0  0  0  0  0  0
   -2.4411    1.2757    1.4538 C   0  0  0  0  0  0  0  0  0  0  0  0
   -3.2777    1.7027    0.2960 N   0  0  0  0  0  0  0  0  0  0  0  0
   -4.9365    1.3708    0.3424 S   0  0  0  0  0  6  0  0  0  0  0  0
   -5.4179    1.6596    1.6759 O   0  0  0  0  0  0  0  0  0  0  0  0
   -5.5433    1.9742   -0.8252 O   0  0  0  0  0  0  0  0  0  0  0  0
   -5.0071   -0.3983    0.1223 C   0  0  0  0  0  0  0  0  0  0  0  0
   -5.1442   -0.9313   -1.1645 C   0  0  0  0  0  0  0  0  0  0  0  0
   -5.2241   -2.3153   -1.3325 C   0  0  0  0  0  0  0  0  0  0  0  0
   -5.1856   -3.1536   -0.2176 C   0  0  0  0  0  0  0  0  0  0  0  0
   -5.2840   -4.8577   -0.4288 Cl  0  0  0  0  0  0  0  0  0  0  0  0
   -5.0778   -2.6208    1.0676 C   0  0  0  0  0  0  0  0  0  0  0  0
   -4.9976   -1.2375    1.2421 C   0  0  0  0  0  0  0  0  0  0  0  0
   -2.6100    1.6538   -1.0311 C   0  0  0  0  0  0  0  0  0  0  0  0
   -1.0990    1.8981   -0.9093 C   0  0  0  0  0  0  0  0  0  0  0  0
    5.3173    1.6104    1.5737 H   0  0  0  0  0  0  0  0  0  0  0  0
    5.7227    2.1140   -0.0710 H   0  0  0  0  0  0  0  0  0  0  0  0
    4.0213   -0.8822    1.5612 H   0  0  0  0  0  0  0  0  0  0  0  0
    4.6817   -3.2189    1.0801 H   0  0  0  0  0  0  0  0  0  0  0  0
    7.6919   -1.8508   -1.6410 H   0  0  0  0  0  0  0  0  0  0  0  0
    7.0630    0.5034   -1.1873 H   0  0  0  0  0  0  0  0  0  0  0  0
    1.5516    2.4196   -1.0815 H   0  0  0  0  0  0  0  0  0  0  0  0
    1.5414    0.9366   -2.0538 H   0  0  0  0  0  0  0  0  0  0  0  0
   -1.7028   -0.5847    0.6121 H   0  0  0  0  0  0  0  0  0  0  0  0
   -0.6958    0.0804    1.9046 H   0  0  0  0  0  0  0  0  0  0  0  0
   -3.0394    0.7824    2.2246 H   0  0  0  0  0  0  0  0  0  0  0  0
   -2.0292    2.1852    1.9079 H   0  0  0  0  0  0  0  0  0  0  0  0
   -5.1973   -0.2806   -2.0348 H   0  0  0  0  0  0  0  0  0  0  0  0
   -5.3265   -2.7336   -2.3310 H   0  0  0  0  0  0  0  0  0  0  0  0
   -5.0676   -3.2764    1.9352 H   0  0  0  0  0  0  0  0  0  0  0  0
   -4.9406   -0.8264    2.2478 H   0  0  0  0  0  0  0  0  0  0  0  0
   -3.0401    2.4234   -1.6804 H   0  0  0  0  0  0  0  0  0  0  0  0
   -2.7729    0.6748   -1.4930 H   0  0  0  0  0  0  0  0  0  0  0  0
   -0.6378    1.8450   -1.8999 H   0  0  0  0  0  0  0  0  0  0  0  0
   -0.9072    2.8974   -0.5007 H   0  0  0  0  0  0  0  0  0  0  0  0
  1  2  2  0
  2  3  1  0
  3  4  1  0
  4  5  2  0
  5  6  1  0
  6  7  2  0
  7  8  1  0
  7  9  1  0
  9 10  2  0
  2 11  1  0
 11 12  1  0
 12 13  1  0
 13 14  2  0
 13 15  1  0
 15 16  1  0
 16 17  1  0
 17 18  1  0
 18 19  1  0
 19 20  2  0
 19 21  2  0
 19 22  1  0
 22 23  2  0
 23 24  1  0
 24 25  2  0
 25 26  1  0
 25 27  1  0
 27 28  2  0
 18 29  1  0
 29 30  1  0
 10  4  1  0
 30 15  1  0
 28 22  1  0
  3 31  1  0
  3 32  1  0
  5 33  1  0
  6 34  1  0
  9 35  1  0
 10 36  1  0
 12 37  1  0
 12 38  1  0
 16 39  1  0
 16 40  1  0
 17 41  1  0
 17 42  1  0
 23 43  1  0
 24 44  1  0
 27 45  1  0
 28 46  1  0
 29 47  1  0
 29 48  1  0
 30 49  1  0
 30 50  1  0
M  END
$$$$
