
     RDKit          3D

 36 38  0  0  0  0  0  0  0  0999 V2000
   -0.6556    2.2189   -2.0720 C   0  0  0  0  0  0  0  0  0  0  0  0
   -1.0730    0.7746   -2.3150 C   0  0  0  0  0  0  0  0  0  0  0  0
   -1.5170    0.1215   -1.0784 N   0  0  0  0  0  0  0  0  0  0  0  0
   -0.6551   -0.5127   -0.1995 C   0  0  0  0  0  0  0  0  0  0  0  0
    0.7727   -0.6102   -0.5906 C   0  0  0  0  0  0  0  0  0  0  0  0
    1.6916   -0.1061    0.2441 C   0  0  0  0  0  0  0  0  0  0  0  0
    3.0869   -0.1602   -0.0227 C   0  0  0  0  0  0  0  0  0  0  0  0
    3.8098   -0.7587   -1.0559 C   0  0  0  0  0  0  0  0  0  0  0  0
    5.1894   -0.5102   -0.8400 C   0  0  0  0  0  0  0  0  0  0  0  0
    5.2386    0.2272    0.3132 C   0  0  0  0  0  0  0  0  0  0  0  0
    6.3347    0.7802    1.0430 N   0  0  0  0  0  4  0  0  0  0  0  0
    7.4629    0.5689    0.5766 O   0  0  0  0  0  0  0  0  0  0  0  0
    6.0843    1.4226    2.0703 O   0  0  0  0  0  1  0  0  0  0  0  0
    4.0003    0.4481    0.8170 O   0  0  0  0  0  0  0  0  0  0  0  0
   -1.0235   -1.0328    0.9296 N   0  0  0  0  0  0  0  0  0  0  0  0
   -2.3692   -0.9561    1.2982 C   0  0  0  0  0  0  0  0  0  0  0  0
   -2.7725   -1.5300    2.5063 C   0  0  0  0  0  0  0  0  0  0  0  0
   -4.1090   -1.4722    2.9115 C   0  0  0  0  0  0  0  0  0  0  0  0
   -5.0554   -0.8368    2.1084 C   0  0  0  0  0  0  0  0  0  0  0  0
   -4.6640   -0.2601    0.9008 C   0  0  0  0  0  0  0  0  0  0  0  0
   -3.3222   -0.3261    0.5053 C   0  0  0  0  0  0  0  0  0  0  0  0
   -2.8689    0.2743   -0.7596 C   0  0  0  0  0  0  0  0  0  0  0  0
   -3.6775    0.8800   -1.4602 O   0  0  0  0  0  0  0  0  0  0  0  0
   -1.4860    2.8066   -1.6672 H   0  0  0  0  0  0  0  0  0  0  0  0
    0.1729    2.2802   -1.3597 H   0  0  0  0  0  0  0  0  0  0  0  0
   -0.3345    2.6833   -3.0095 H   0  0  0  0  0  0  0  0  0  0  0  0
   -1.8851    0.7545   -3.0511 H   0  0  0  0  0  0  0  0  0  0  0  0
   -0.2424    0.2218   -2.7621 H   0  0  0  0  0  0  0  0  0  0  0  0
    1.0025   -1.1142   -1.5188 H   0  0  0  0  0  0  0  0  0  0  0  0
    1.3865    0.3726    1.1727 H   0  0  0  0  0  0  0  0  0  0  0  0
    3.3870   -1.3220   -1.8772 H   0  0  0  0  0  0  0  0  0  0  0  0
    6.0296   -0.8280   -1.4422 H   0  0  0  0  0  0  0  0  0  0  0  0
   -2.0364   -2.0248    3.1350 H   0  0  0  0  0  0  0  0  0  0  0  0
   -4.4085   -1.9228    3.8547 H   0  0  0  0  0  0  0  0  0  0  0  0
   -6.0952   -0.7897    2.4229 H   0  0  0  0  0  0  0  0  0  0  0  0
   -5.3986    0.2381    0.2723 H   0  0  0  0  0  0  0  0  0  0  0  0
  1  2  1  0
  2  3  1  0
  3  4  1  0
  4  5  1  0
  5  6  2  3
  6  7  1  0
  7  8  2  0
  8  9  1  0
  9 10  2  0
 10 11  1  0
 11 12  2  0
 11 13  1  0
 10 14  1  0
  4 15  2  0
 15 16  1  0
 16 17  2  0
 17 18  1  0
 18 19  2  0
 19 20  1  0
 20 21  2  0
 21 22  1  0
 22 23  2  0
 22  3  1  0
 14  7  1  0
 21 16  1  0
  1 24  1  0
  1 25  1  0
  1 26  1  0
  2 27  1  0
  2 28  1  0
  5 29  1  0
  6 30  1  0
  8 31  1  0
  9 32  1  0
 17 33  1  0
 18 34  1  0
 19 35  1  0
 20 36  1  0
M  CHG  2  11   1  13  -1
M  END
$$$$
