
     RDKit          3D

 56 58  0  0  0  0  0  0  0  0999 V2000
   -6.1025    1.0237   -2.2089 C   0  0  0  0  0  0  0  0  0  0  0  0
   -5.8736    2.0839   -1.1488 C   0  0  0  0  0  0  0  0  0  0  0  0
   -5.1985    1.5194   -0.0156 O   0  0  0  0  0  0  0  0  0  0  0  0
   -3.8379    1.4967   -0.0777 C   0  0  0  0  0  0  0  0  0  0  0  0
   -3.1715    1.8804   -1.0305 O   0  0  0  0  0  0  0  0  0  0  0  0
   -3.2616    0.9082    1.1853 C   0  0  0  0  0  0  0  0  0  0  0  0
   -2.2507    1.8567    1.7855 C   0  0  0  0  0  0  0  0  0  0  0  0
   -2.5911    2.8065    2.4904 O   0  0  0  0  0  0  0  0  0  0  0  0
   -0.8089    1.6699    1.4893 C   0  0  0  0  0  0  0  0  0  0  0  0
   -0.3778    0.6410    0.7421 C   0  0  0  0  0  0  0  0  0  0  0  0
    1.0228    0.4738    0.3897 C   0  0  0  0  0  0  0  0  0  0  0  0
    2.0419    0.5793    1.2580 C   0  0  0  0  0  0  0  0  0  0  0  0
    3.4532    0.4013    0.8915 C   0  0  0  0  0  0  0  0  0  0  0  0
    3.8802   -0.5712   -0.0111 C   0  0  0  0  0  0  0  0  0  0  0  0
    5.2444   -0.7252   -0.3081 C   0  0  0  0  0  0  0  0  0  0  0  0
    6.2391    0.0782    0.2759 C   0  0  0  0  0  0  0  0  0  0  0  0
    7.5986   -0.0907   -0.0156 N   0  0  0  0  0  0  0  0  0  0  0  0
    8.5492    0.9306    0.4208 C   0  0  0  0  0  0  0  0  0  0  0  0
    7.9716   -0.8203   -1.2267 C   0  0  0  0  0  0  0  0  0  0  0  0
    5.7834    1.0262    1.2078 C   0  0  0  0  0  0  0  0  0  0  0  0
    4.4220    1.1879    1.5123 C   0  0  0  0  0  0  0  0  0  0  0  0
   -1.3155   -0.3963    0.1693 C   0  0  0  0  0  0  0  0  0  0  0  0
   -2.6340   -0.4786    0.9662 C   0  0  0  0  0  0  0  0  0  0  0  0
   -3.6353   -1.4971    0.4403 C   0  0  0  0  0  0  0  0  0  0  0  0
   -4.4450   -2.1907    1.3557 C   0  0  0  0  0  0  0  0  0  0  0  0
   -5.3913   -3.1186    0.9169 C   0  0  0  0  0  0  0  0  0  0  0  0
   -5.5472   -3.3643   -0.4440 C   0  0  0  0  0  0  0  0  0  0  0  0
   -4.7592   -2.6799   -1.3651 C   0  0  0  0  0  0  0  0  0  0  0  0
   -3.8118   -1.7508   -0.9277 C   0  0  0  0  0  0  0  0  0  0  0  0
   -6.6834    1.4284   -3.0425 H   0  0  0  0  0  0  0  0  0  0  0  0
   -6.6381    0.1667   -1.7878 H   0  0  0  0  0  0  0  0  0  0  0  0
   -5.1518    0.6476   -2.5988 H   0  0  0  0  0  0  0  0  0  0  0  0
   -6.8377    2.4597   -0.7905 H   0  0  0  0  0  0  0  0  0  0  0  0
   -5.3240    2.9423   -1.5519 H   0  0  0  0  0  0  0  0  0  0  0  0
   -4.0659    0.8100    1.9281 H   0  0  0  0  0  0  0  0  0  0  0  0
   -0.1477    2.4326    1.8860 H   0  0  0  0  0  0  0  0  0  0  0  0
    1.2139    0.2349   -0.6557 H   0  0  0  0  0  0  0  0  0  0  0  0
    1.8588    0.8216    2.3023 H   0  0  0  0  0  0  0  0  0  0  0  0
    3.1675   -1.2386   -0.4885 H   0  0  0  0  0  0  0  0  0  0  0  0
    5.5032   -1.5111   -1.0107 H   0  0  0  0  0  0  0  0  0  0  0  0
    8.3195    1.9019   -0.0311 H   0  0  0  0  0  0  0  0  0  0  0  0
    9.5737    0.6665    0.1350 H   0  0  0  0  0  0  0  0  0  0  0  0
    8.5587    1.0239    1.5120 H   0  0  0  0  0  0  0  0  0  0  0  0
    7.6482   -1.8653   -1.1758 H   0  0  0  0  0  0  0  0  0  0  0  0
    7.5483   -0.3460   -2.1190 H   0  0  0  0  0  0  0  0  0  0  0  0
    9.0597   -0.8499   -1.3541 H   0  0  0  0  0  0  0  0  0  0  0  0
    6.4786    1.6740    1.7325 H   0  0  0  0  0  0  0  0  0  0  0  0
    4.1364    1.9446    2.2395 H   0  0  0  0  0  0  0  0  0  0  0  0
   -0.8372   -1.3852    0.1934 H   0  0  0  0  0  0  0  0  0  0  0  0
   -1.4857   -0.1571   -0.8865 H   0  0  0  0  0  0  0  0  0  0  0  0
   -2.3334   -0.8459    1.9618 H   0  0  0  0  0  0  0  0  0  0  0  0
   -4.3462   -2.0139    2.4252 H   0  0  0  0  0  0  0  0  0  0  0  0
   -6.0080   -3.6480    1.6386 H   0  0  0  0  0  0  0  0  0  0  0  0
   -6.2845   -4.0852   -0.7868 H   0  0  0  0  0  0  0  0  0  0  0  0
   -4.8851   -2.8645   -2.4291 H   0  0  0  0  0  0  0  0  0  0  0  0
   -3.2308   -1.2241   -1.6810 H   0  0  0  0  0  0  0  0  0  0  0  0
  1  2  1  0
  2  3  1  0
  3  4  1  0
  4  5  2  0
  4  6  1  0
  6  7  1  0
  7  8  2  0
  7  9  1  0
  9 10  2  0
 10 11  1  0
 11 12  2  3
 12 13  1  0
 13 14  2  0
 14 15  1  0
 15 16  2  0
 16 17  1  0
 17 18  1  0
 17 19  1  0
 16 20  1  0
 20 21  2  0
 10 22  1  0
 22 23  1  0
 23 24  1  0
 24 25  2  0
 25 26  1  0
 26 27  2  0
 27 28  1  0
 28 29  2  0
 23  6  1  0
 29 24  1  0
 21 13  1  0
  1 30  1  0
  1 31  1  0
  1 32  1  0
  2 33  1  0
  2 34  1  0
  6 35  1  0
  9 36  1  0
 11 37  1  0
 12 38  1  0
 14 39  1  0
 15 40  1  0
 18 41  1  0
 18 42  1  0
 18 43  1  0
 19 44  1  0
 19 45  1  0
 19 46  1  0
 20 47  1  0
 21 48  1  0
 22 49  1  0
 22 50  1  0
 23 51  1  0
 25 52  1  0
 26 53  1  0
 27 54  1  0
 28 55  1  0
 29 56  1  0
M  END
$$$$
