
     RDKit          3D

 46 48  0  0  0  0  0  0  0  0999 V2000
    8.2085   -0.1540    0.3476 C   0  0  0  0  0  0  0  0  0  0  0  0
    7.3413   -0.2796   -0.7723 O   0  0  0  0  0  0  0  0  0  0  0  0
    5.9979   -0.2755   -0.5217 C   0  0  0  0  0  0  0  0  0  0  0  0
    5.1925   -0.4060   -1.6541 C   0  0  0  0  0  0  0  0  0  0  0  0
    3.7997   -0.4170   -1.5409 C   0  0  0  0  0  0  0  0  0  0  0  0
    3.1907   -0.2981   -0.2860 C   0  0  0  0  0  0  0  0  0  0  0  0
    1.6970   -0.3145   -0.2156 C   0  0  0  0  0  0  0  0  0  0  0  0
    1.0493   -0.3506   -1.2625 O   0  0  0  0  0  0  0  0  0  0  0  0
    1.0392   -0.2728    1.1609 C   0  0  0  0  0  0  0  0  0  0  0  0
   -0.3896   -0.4197    1.0115 N   0  0  0  0  0  0  0  0  0  0  0  0
   -1.0349   -1.6124    0.9541 C   0  0  0  0  0  0  0  0  0  0  0  0
   -0.5480   -2.7235    1.0791 O   0  0  0  0  0  0  0  0  0  0  0  0
   -2.3717   -1.3749    0.7386 N   0  0  0  0  0  0  0  0  0  0  0  0
   -2.6593    0.0268    0.4969 C   0  0  0  0  0  0  0  0  0  0  0  0
   -3.6651    0.5656    1.5299 C   0  0  0  0  0  0  0  0  0  0  0  0
   -4.5580    1.6938    1.0129 C   0  0  0  0  0  0  0  0  0  0  0  0
   -5.6520    1.2684    0.0238 C   0  0  0  0  0  0  0  0  0  0  0  0
   -5.5122   -0.1177   -0.6014 C   0  0  0  0  0  0  0  0  0  0  0  0
   -4.2893   -0.3109   -1.4919 C   0  0  0  0  0  0  0  0  0  0  0  0
   -2.9768    0.2817   -0.9840 C   0  0  0  0  0  0  0  0  0  0  0  0
   -1.2556    0.6106    0.7820 C   0  0  0  0  0  0  0  0  0  0  0  0
   -0.9710    1.8017    0.7857 O   0  0  0  0  0  0  0  0  0  0  0  0
    3.9981   -0.1649    0.8502 C   0  0  0  0  0  0  0  0  0  0  0  0
    5.3955   -0.1544    0.7306 C   0  0  0  0  0  0  0  0  0  0  0  0
    8.0593    0.8040    0.8565 H   0  0  0  0  0  0  0  0  0  0  0  0
    9.2381   -0.1777   -0.0224 H   0  0  0  0  0  0  0  0  0  0  0  0
    8.0837   -0.9934    1.0395 H   0  0  0  0  0  0  0  0  0  0  0  0
    5.6521   -0.5002   -2.6355 H   0  0  0  0  0  0  0  0  0  0  0  0
    3.1960   -0.5201   -2.4411 H   0  0  0  0  0  0  0  0  0  0  0  0
    1.2524    0.6917    1.6316 H   0  0  0  0  0  0  0  0  0  0  0  0
    1.4148   -1.1008    1.7696 H   0  0  0  0  0  0  0  0  0  0  0  0
   -3.0034   -2.1454    0.5634 H   0  0  0  0  0  0  0  0  0  0  0  0
   -3.1238    0.9395    2.4098 H   0  0  0  0  0  0  0  0  0  0  0  0
   -4.2985   -0.2433    1.9160 H   0  0  0  0  0  0  0  0  0  0  0  0
   -5.0476    2.1716    1.8715 H   0  0  0  0  0  0  0  0  0  0  0  0
   -3.9394    2.4806    0.5643 H   0  0  0  0  0  0  0  0  0  0  0  0
   -6.6131    1.2940    0.5539 H   0  0  0  0  0  0  0  0  0  0  0  0
   -5.7318    2.0243   -0.7673 H   0  0  0  0  0  0  0  0  0  0  0  0
   -5.5214   -0.8843    0.1821 H   0  0  0  0  0  0  0  0  0  0  0  0
   -6.4067   -0.3184   -1.2052 H   0  0  0  0  0  0  0  0  0  0  0  0
   -4.4971    0.1267   -2.4768 H   0  0  0  0  0  0  0  0  0  0  0  0
   -4.1572   -1.3862   -1.6662 H   0  0  0  0  0  0  0  0  0  0  0  0
   -2.1664   -0.1134   -1.6132 H   0  0  0  0  0  0  0  0  0  0  0  0
   -2.9763    1.3613   -1.1833 H   0  0  0  0  0  0  0  0  0  0  0  0
    3.5764   -0.0633    1.8457 H   0  0  0  0  0  0  0  0  0  0  0  0
    5.9841   -0.0490    1.6366 H   0  0  0  0  0  0  0  0  0  0  0  0
  1  2  1  0
  2  3  1  0
  3  4  2  0
  4  5  1  0
  5  6  2  0
  6  7  1  0
  7  8  2  0
  7  9  1  0
  9 10  1  0
 10 11  1  0
 11 12  2  0
 11 13  1  0
 13 14  1  0
 14 15  1  0
 15 16  1  0
 16 17  1  0
 17 18  1  0
 18 19  1  0
 19 20  1  0
 14 21  1  0
 21 22  2  0
  6 23  1  0
 23 24  2  0
 24  3  1  0
 21 10  1  0
 20 14  1  0
  1 25  1  0
  1 26  1  0
  1 27  1  0
  4 28  1  0
  5 29  1  0
  9 30  1  0
  9 31  1  0
 13 32  1  0
 15 33  1  0
 15 34  1  0
 16 35  1  0
 16 36  1  0
 17 37  1  0
 17 38  1  0
 18 39  1  0
 18 40  1  0
 19 41  1  0
 19 42  1  0
 20 43  1  0
 20 44  1  0
 23 45  1  0
 24 46  1  0
M  END
$$$$
