
     RDKit          3D

 40 41  0  0  0  0  0  0  0  0999 V2000
    0.2355    3.9186   -0.6679 C   0  0  0  0  0  0  0  0  0  0  0  0
    0.3993    2.5754   -1.3675 C   0  0  0  0  0  0  0  0  0  0  0  0
   -0.1985    1.4367   -0.5669 C   0  0  0  0  0  0  0  0  0  0  0  0
   -1.5199    1.0429   -0.7814 C   0  0  0  0  0  0  0  0  0  0  0  0
   -2.3964    1.6709   -1.8280 C   0  0  0  0  0  0  0  0  0  0  0  0
   -2.1145    0.0563   -0.0748 N   0  0  0  0  0  0  0  0  0  0  0  0
   -1.4620   -0.5792    0.9176 C   0  0  0  0  0  0  0  0  0  0  0  0
   -2.1244   -1.5816    1.6579 C   0  0  0  0  0  0  0  0  0  0  0  0
   -3.4236   -1.8446    1.2734 O   0  0  0  0  0  0  0  0  0  0  0  0
   -4.1598   -2.8035    2.0171 C   0  0  0  0  0  0  0  0  0  0  0  0
   -1.4848   -2.2516    2.7068 C   0  0  0  0  0  0  0  0  0  0  0  0
   -0.1792   -1.9272    3.0388 C   0  0  0  0  0  0  0  0  0  0  0  0
    0.4874   -0.9430    2.3159 C   0  0  0  0  0  0  0  0  0  0  0  0
   -0.1274   -0.2566    1.2346 C   0  0  0  0  0  0  0  0  0  0  0  0
    0.5107    0.7513    0.4459 C   0  0  0  0  0  0  0  0  0  0  0  0
    2.2514    1.1765    0.7507 S   0  0  0  0  0  0  0  0  0  0  0  0
    3.0688   -0.2644   -0.0312 C   0  0  0  0  0  0  0  0  0  0  0  0
    3.0292   -0.1897   -1.5510 C   0  0  0  0  0  0  0  0  0  0  0  0
    3.7775   -1.3470   -2.1472 C   0  0  0  0  0  0  0  0  0  0  0  0
    4.3405   -2.2499   -1.5531 O   0  0  0  0  0  0  0  0  0  0  0  0
    3.7775   -1.3060   -3.4940 O   0  0  0  0  0  0  0  0  0  0  0  0
    0.7358    3.9315    0.3055 H   0  0  0  0  0  0  0  0  0  0  0  0
   -0.8202    4.1566   -0.5017 H   0  0  0  0  0  0  0  0  0  0  0  0
    0.6687    4.7165   -1.2795 H   0  0  0  0  0  0  0  0  0  0  0  0
    1.4570    2.3945   -1.5827 H   0  0  0  0  0  0  0  0  0  0  0  0
   -0.0610    2.6299   -2.3604 H   0  0  0  0  0  0  0  0  0  0  0  0
   -2.4716    2.7514   -1.6763 H   0  0  0  0  0  0  0  0  0  0  0  0
   -3.4118    1.2622   -1.7803 H   0  0  0  0  0  0  0  0  0  0  0  0
   -2.0040    1.4641   -2.8283 H   0  0  0  0  0  0  0  0  0  0  0  0
   -4.2613   -2.5002    3.0643 H   0  0  0  0  0  0  0  0  0  0  0  0
   -5.1655   -2.8583    1.5893 H   0  0  0  0  0  0  0  0  0  0  0  0
   -3.7096   -3.7980    1.9333 H   0  0  0  0  0  0  0  0  0  0  0  0
   -1.9802   -3.0245    3.2836 H   0  0  0  0  0  0  0  0  0  0  0  0
    0.3213   -2.4353    3.8592 H   0  0  0  0  0  0  0  0  0  0  0  0
    1.5059   -0.7089    2.6177 H   0  0  0  0  0  0  0  0  0  0  0  0
    4.1089   -0.2647    0.3143 H   0  0  0  0  0  0  0  0  0  0  0  0
    2.6192   -1.1959    0.3277 H   0  0  0  0  0  0  0  0  0  0  0  0
    1.9986   -0.2369   -1.9174 H   0  0  0  0  0  0  0  0  0  0  0  0
    3.5010    0.7349   -1.9019 H   0  0  0  0  0  0  0  0  0  0  0  0
    4.2817   -2.1030   -3.7622 H   0  0  0  0  0  0  0  0  0  0  0  0
  1  2  1  0
  2  3  1  0
  3  4  2  0
  4  5  1  0
  4  6  1  0
  6  7  2  0
  7  8  1  0
  8  9  1  0
  9 10  1  0
  8 11  2  0
 11 12  1  0
 12 13  2  0
 13 14  1  0
 14 15  2  0
 15 16  1  0
 16 17  1  0
 17 18  1  0
 18 19  1  0
 19 20  2  0
 19 21  1  0
 15  3  1  0
 14  7  1  0
  1 22  1  0
  1 23  1  0
  1 24  1  0
  2 25  1  0
  2 26  1  0
  5 27  1  0
  5 28  1  0
  5 29  1  0
 10 30  1  0
 10 31  1  0
 10 32  1  0
 11 33  1  0
 12 34  1  0
 13 35  1  0
 17 36  1  0
 17 37  1  0
 18 38  1  0
 18 39  1  0
 21 40  1  0
M  END
$$$$
