
     RDKit          3D

 49 52  0  0  0  0  0  0  0  0999 V2000
   -1.2618    5.2972    1.8659 C   0  0  0  0  0  0  0  0  0  0  0  0
   -1.1655    4.0199    1.0856 C   0  0  0  0  0  0  0  0  0  0  0  0
   -1.2633    4.0313   -0.3095 C   0  0  0  0  0  0  0  0  0  0  0  0
   -1.1405    2.8457   -1.0390 C   0  0  0  0  0  0  0  0  0  0  0  0
   -0.9000    1.6247   -0.3895 C   0  0  0  0  0  0  0  0  0  0  0  0
   -0.7981    0.3468   -1.2089 C   0  0  0  0  0  0  0  0  0  0  0  0
   -2.1225   -0.4186   -1.1969 C   0  0  0  0  0  0  0  0  0  0  0  0
   -1.7315   -1.6277   -0.3930 C   0  0  0  0  0  0  0  0  0  0  0  0
   -2.7298   -2.6351    0.0370 C   0  0  0  0  0  0  0  0  0  0  0  0
   -2.3084   -3.7140    0.8245 C   0  0  0  0  0  0  0  0  0  0  0  0
   -3.2252   -4.6790    1.2455 C   0  0  0  0  0  0  0  0  0  0  0  0
   -4.5661   -4.5715    0.8816 C   0  0  0  0  0  0  0  0  0  0  0  0
   -4.9918   -3.5008    0.0964 C   0  0  0  0  0  0  0  0  0  0  0  0
   -4.0772   -2.5327   -0.3273 C   0  0  0  0  0  0  0  0  0  0  0  0
   -0.4627   -1.7313   -0.1360 N   0  0  0  0  0  0  0  0  0  0  0  0
    0.1481   -0.6253   -0.6551 N   0  0  0  0  0  0  0  0  0  0  0  0
    1.5379   -0.5448   -0.7240 C   0  0  0  0  0  0  0  0  0  0  0  0
    2.3427   -1.5849   -0.2199 C   0  0  0  0  0  0  0  0  0  0  0  0
    3.7399   -1.5339   -0.2657 C   0  0  0  0  0  0  0  0  0  0  0  0
    4.3613   -0.4168   -0.8160 C   0  0  0  0  0  0  0  0  0  0  0  0
    6.1283   -0.3218   -0.8719 S   0  0  0  0  0  6  0  0  0  0  0  0
    6.4606    0.5243    0.5475 N   0  0  0  0  0  0  0  0  0  0  0  0
    6.6712   -1.6456   -0.6704 O   0  0  0  0  0  0  0  0  0  0  0  0
    6.5094    0.5129   -1.9862 O   0  0  0  0  0  0  0  0  0  0  0  0
    3.6007    0.6278   -1.3379 C   0  0  0  0  0  0  0  0  0  0  0  0
    2.2031    0.5583   -1.2859 C   0  0  0  0  0  0  0  0  0  0  0  0
   -0.7966    1.6224    1.0100 C   0  0  0  0  0  0  0  0  0  0  0  0
   -0.9194    2.8080    1.7384 C   0  0  0  0  0  0  0  0  0  0  0  0
   -0.2700    5.7479    1.9696 H   0  0  0  0  0  0  0  0  0  0  0  0
   -1.9249    6.0112    1.3662 H   0  0  0  0  0  0  0  0  0  0  0  0
   -1.6744    5.1152    2.8639 H   0  0  0  0  0  0  0  0  0  0  0  0
   -1.4373    4.9659   -0.8384 H   0  0  0  0  0  0  0  0  0  0  0  0
   -1.2300    2.8866   -2.1226 H   0  0  0  0  0  0  0  0  0  0  0  0
   -0.5313    0.5883   -2.2458 H   0  0  0  0  0  0  0  0  0  0  0  0
   -2.3984   -0.7412   -2.2066 H   0  0  0  0  0  0  0  0  0  0  0  0
   -2.9521    0.1279   -0.7399 H   0  0  0  0  0  0  0  0  0  0  0  0
   -1.2640   -3.8097    1.1148 H   0  0  0  0  0  0  0  0  0  0  0  0
   -2.8909   -5.5138    1.8565 H   0  0  0  0  0  0  0  0  0  0  0  0
   -5.2796   -5.3237    1.2095 H   0  0  0  0  0  0  0  0  0  0  0  0
   -6.0386   -3.4208   -0.1873 H   0  0  0  0  0  0  0  0  0  0  0  0
   -4.4400   -1.7139   -0.9408 H   0  0  0  0  0  0  0  0  0  0  0  0
    1.8692   -2.4626    0.2171 H   0  0  0  0  0  0  0  0  0  0  0  0
    4.3191   -2.3657    0.1275 H   0  0  0  0  0  0  0  0  0  0  0  0
    5.6229    0.9002    0.9911 H   0  0  0  0  0  0  0  0  0  0  0  0
    6.9807   -0.0884    1.1779 H   0  0  0  0  0  0  0  0  0  0  0  0
    4.0798    1.4970   -1.7843 H   0  0  0  0  0  0  0  0  0  0  0  0
    1.6446    1.3960   -1.6935 H   0  0  0  0  0  0  0  0  0  0  0  0
   -0.6074    0.6921    1.5443 H   0  0  0  0  0  0  0  0  0  0  0  0
   -0.8204    2.7761    2.8212 H   0  0  0  0  0  0  0  0  0  0  0  0
  1  2  1  0
  2  3  2  0
  3  4  1  0
  4  5  2  0
  5  6  1  0
  6  7  1  0
  7  8  1  0
  8  9  1  0
  9 10  2  0
 10 11  1  0
 11 12  2  0
 12 13  1  0
 13 14  2  0
  8 15  2  0
 15 16  1  0
 16 17  1  0
 17 18  2  0
 18 19  1  0
 19 20  2  0
 20 21  1  0
 21 22  1  0
 21 23  2  0
 21 24  2  0
 20 25  1  0
 25 26  2  0
  5 27  1  0
 27 28  2  0
 28  2  1  0
 16  6  1  0
 26 17  1  0
 14  9  1  0
  1 29  1  0
  1 30  1  0
  1 31  1  0
  3 32  1  0
  4 33  1  0
  6 34  1  0
  7 35  1  0
  7 36  1  0
 10 37  1  0
 11 38  1  0
 12 39  1  0
 13 40  1  0
 14 41  1  0
 18 42  1  0
 19 43  1  0
 22 44  1  0
 22 45  1  0
 25 46  1  0
 26 47  1  0
 27 48  1  0
 28 49  1  0
M  END
$$$$
