
     RDKit          3D

 53 56  0  0  0  0  0  0  0  0999 V2000
   -6.6763   -0.1731    0.1445 C   0  0  0  0  0  0  0  0  0  0  0  0
   -5.8420    1.1022    0.3934 C   0  0  0  0  0  0  0  0  0  0  0  0
   -6.4818    2.2359   -0.4395 C   0  0  0  0  0  0  0  0  0  0  0  0
   -5.9605    1.5045    1.8794 C   0  0  0  0  0  0  0  0  0  0  0  0
   -4.3679    0.8318    0.0468 C   0  0  0  0  0  0  0  0  0  0  0  0
   -3.6710    1.5607   -0.9258 C   0  0  0  0  0  0  0  0  0  0  0  0
   -2.3269    1.2882   -1.2161 C   0  0  0  0  0  0  0  0  0  0  0  0
   -1.6325    0.2680   -0.5495 C   0  0  0  0  0  0  0  0  0  0  0  0
   -0.2629    0.0321   -0.8846 N   0  0  0  0  0  0  0  0  0  0  0  0
    0.3869    0.9344   -1.6801 N   0  0  0  0  0  0  0  0  0  0  0  0
    1.6467    0.5116   -1.7461 C   0  0  0  0  0  0  0  0  0  0  0  0
    1.8479   -0.6766   -1.0369 C   0  0  0  0  0  0  0  0  0  0  0  0
    0.5983   -1.0011   -0.5364 C   0  0  0  0  0  0  0  0  0  0  0  0
    0.2994   -2.2636    0.1972 C   0  0  0  0  0  0  0  0  0  0  0  0
    1.4314   -3.2876   -0.0196 C   0  0  0  0  0  0  0  0  0  0  0  0
    2.8216   -2.6527    0.1442 C   0  0  0  0  0  0  0  0  0  0  0  0
    3.0659   -1.5235   -0.8833 C   0  0  0  0  0  0  0  0  0  0  0  0
    4.1616   -0.6794   -0.4676 N   0  0  0  0  0  0  0  0  0  0  0  0
    5.4789   -1.0489   -0.6256 C   0  0  0  0  0  0  0  0  0  0  0  0
    5.8437   -2.0537   -1.2231 O   0  0  0  0  0  0  0  0  0  0  0  0
    6.4574   -0.1226    0.0084 C   0  0  0  0  0  0  0  0  0  0  0  0
    7.8184   -0.3592   -0.1083 C   0  0  0  0  0  0  0  0  0  0  0  0
    8.7439    0.4584    0.4569 N   0  0  0  0  0  0  0  0  0  0  0  0
    8.2436    1.5158    1.1381 C   0  0  0  0  0  0  0  0  0  0  0  0
    6.8813    1.7508    1.2554 C   0  0  0  0  0  0  0  0  0  0  0  0
    5.9501    0.9416    0.6986 N   0  0  0  0  0  0  0  0  0  0  0  0
   -2.3096   -0.4553    0.4316 C   0  0  0  0  0  0  0  0  0  0  0  0
   -3.6546   -0.1771    0.7192 C   0  0  0  0  0  0  0  0  0  0  0  0
   -6.5884   -0.5048   -0.8970 H   0  0  0  0  0  0  0  0  0  0  0  0
   -6.3611   -1.0059    0.7826 H   0  0  0  0  0  0  0  0  0  0  0  0
   -7.7386    0.0033    0.3500 H   0  0  0  0  0  0  0  0  0  0  0  0
   -5.9649    3.1903   -0.2867 H   0  0  0  0  0  0  0  0  0  0  0  0
   -6.4667    2.0067   -1.5113 H   0  0  0  0  0  0  0  0  0  0  0  0
   -7.5303    2.3897   -0.1577 H   0  0  0  0  0  0  0  0  0  0  0  0
   -6.9987    1.7355    2.1448 H   0  0  0  0  0  0  0  0  0  0  0  0
   -5.6281    0.7067    2.5525 H   0  0  0  0  0  0  0  0  0  0  0  0
   -5.3550    2.3923    2.0973 H   0  0  0  0  0  0  0  0  0  0  0  0
   -4.1461    2.3605   -1.4872 H   0  0  0  0  0  0  0  0  0  0  0  0
   -1.8377    1.8853   -1.9846 H   0  0  0  0  0  0  0  0  0  0  0  0
    2.3638    1.0851   -2.3200 H   0  0  0  0  0  0  0  0  0  0  0  0
    0.2190   -2.0509    1.2695 H   0  0  0  0  0  0  0  0  0  0  0  0
   -0.6384   -2.7115   -0.1466 H   0  0  0  0  0  0  0  0  0  0  0  0
    1.3513   -3.7169   -1.0267 H   0  0  0  0  0  0  0  0  0  0  0  0
    1.3130   -4.1146    0.6898 H   0  0  0  0  0  0  0  0  0  0  0  0
    2.9106   -2.2606    1.1667 H   0  0  0  0  0  0  0  0  0  0  0  0
    3.5971   -3.4211    0.0402 H   0  0  0  0  0  0  0  0  0  0  0  0
    3.3131   -1.9725   -1.8538 H   0  0  0  0  0  0  0  0  0  0  0  0
    3.9846    0.1137    0.1442 H   0  0  0  0  0  0  0  0  0  0  0  0
    8.2072   -1.2102   -0.6578 H   0  0  0  0  0  0  0  0  0  0  0  0
    8.9739    2.1762    1.5928 H   0  0  0  0  0  0  0  0  0  0  0  0
    6.5028    2.6052    1.8059 H   0  0  0  0  0  0  0  0  0  0  0  0
   -1.8337   -1.2217    1.0273 H   0  0  0  0  0  0  0  0  0  0  0  0
   -4.1397   -0.7673    1.4948 H   0  0  0  0  0  0  0  0  0  0  0  0
  1  2  1  0
  2  3  1  0
  2  4  1  0
  2  5  1  0
  5  6  2  0
  6  7  1  0
  7  8  2  0
  8  9  1  0
  9 10  1  0
 10 11  2  0
 11 12  1  0
 12 13  2  0
 13 14  1  0
 14 15  1  0
 15 16  1  0
 16 17  1  0
 17 18  1  0
 18 19  1  0
 19 20  2  0
 19 21  1  0
 21 22  2  0
 22 23  1  0
 23 24  2  0
 24 25  1  0
 25 26  2  0
  8 27  1  0
 27 28  2  0
 28  5  1  0
 13  9  1  0
 26 21  1  0
 17 12  1  0
  1 29  1  0
  1 30  1  0
  1 31  1  0
  3 32  1  0
  3 33  1  0
  3 34  1  0
  4 35  1  0
  4 36  1  0
  4 37  1  0
  6 38  1  0
  7 39  1  0
 11 40  1  0
 14 41  1  0
 14 42  1  0
 15 43  1  0
 15 44  1  0
 16 45  1  0
 16 46  1  0
 17 47  1  0
 18 48  1  0
 22 49  1  0
 24 50  1  0
 25 51  1  0
 27 52  1  0
 28 53  1  0
M  END
$$$$
