
     RDKit          3D

 23 25  0  0  0  0  0  0  0  0999 V2000
    1.9276   -0.2557    2.3224 O   0  0  0  0  0  0  0  0  0  0  0  0
    1.4158    0.5909    1.6115 C   0  0  0  0  0  0  0  0  0  0  0  0
    2.0165    1.7725    1.4067 O   0  0  0  0  0  0  0  0  0  0  0  0
    0.0351    0.5346    1.0136 C   0  0  0  0  0  0  0  0  0  0  0  0
   -0.5536   -0.8866    0.8137 C   0  0  0  0  0  0  0  0  0  0  0  0
   -1.8807   -0.5061    0.1341 C   0  0  0  0  0  0  0  0  0  0  0  0
   -1.1961    0.2130   -1.0205 C   0  0  0  0  0  0  0  0  0  0  0  0
   -0.2064   -0.8084   -1.5804 C   0  0  0  0  0  0  0  0  0  0  0  0
    0.9023   -0.0324   -2.0239 O   0  0  0  0  0  0  0  0  0  0  0  0
    0.9547    1.1313   -1.3133 C   0  0  0  0  0  0  0  0  0  0  0  0
    1.8135    1.9824   -1.4590 O   0  0  0  0  0  0  0  0  0  0  0  0
   -0.2080    1.1855   -0.3601 C   0  0  0  0  0  0  0  0  0  0  0  0
    0.0871   -1.6948   -0.3454 C   0  0  0  0  0  0  0  0  0  0  0  0
    1.7782   -2.1449   -0.1419 Cl  0  0  0  0  0  0  0  0  0  0  0  0
    2.9005    1.6897    1.8230 H   0  0  0  0  0  0  0  0  0  0  0  0
   -0.6000    1.0544    1.7473 H   0  0  0  0  0  0  0  0  0  0  0  0
   -0.6666   -1.4569    1.7390 H   0  0  0  0  0  0  0  0  0  0  0  0
   -2.4703   -1.3713   -0.1867 H   0  0  0  0  0  0  0  0  0  0  0  0
   -2.5065    0.1562    0.7413 H   0  0  0  0  0  0  0  0  0  0  0  0
   -1.8421    0.6740   -1.7709 H   0  0  0  0  0  0  0  0  0  0  0  0
   -0.6160   -1.3906   -2.4116 H   0  0  0  0  0  0  0  0  0  0  0  0
   -0.6155    2.1977   -0.2885 H   0  0  0  0  0  0  0  0  0  0  0  0
   -0.4696   -2.6347   -0.4505 H   0  0  0  0  0  0  0  0  0  0  0  0
  1  2  2  0
  2  3  1  0
  2  4  1  0
  4  5  1  0
  5  6  1  0
  6  7  1  0
  7  8  1  0
  8  9  1  0
  9 10  1  0
 10 11  2  0
 10 12  1  0
  8 13  1  0
 13 14  1  0
 12  4  1  0
 13  5  1  0
 12  7  1  0
  3 15  1  0
  4 16  1  0
  5 17  1  0
  6 18  1  0
  6 19  1  0
  7 20  1  0
  8 21  1  0
 12 22  1  0
 13 23  1  0
M  END
$$$$
