
     RDKit          3D

 54 58  0  0  0  0  0  0  0  0999 V2000
    6.0894   -2.3438    1.6041 C   0  0  0  0  0  0  0  0  0  0  0  0
    4.7776   -1.5759    1.5741 C   0  0  0  0  0  0  0  0  0  0  0  0
    4.3648   -1.1878    0.1624 C   0  0  0  0  0  0  0  0  0  0  0  0
    5.1082   -1.3803   -0.7999 O   0  0  0  0  0  0  0  0  0  0  0  0
    3.1081   -0.6052    0.0134 N   0  0  0  0  0  0  0  0  0  0  0  0
    2.6654   -0.2776   -1.3379 C   0  0  0  0  0  0  0  0  0  0  0  0
    1.1449   -0.2336   -1.4378 C   0  0  0  0  0  0  0  0  0  0  0  0
    0.5564    0.8649   -0.5177 C   0  0  0  0  0  0  0  0  0  0  0  0
    1.3267    0.9116    0.8380 C   0  0  0  0  0  0  0  0  0  0  0  0
    2.1895   -0.3176    1.1104 C   0  0  0  0  0  0  0  0  0  0  0  0
    0.8619    2.1585   -1.1172 O   0  0  0  0  0  0  0  0  0  0  0  0
    0.0469    2.6158   -2.1101 C   0  0  0  0  0  0  0  0  0  0  0  0
    0.5102    3.7207   -2.8240 C   0  0  0  0  0  0  0  0  0  0  0  0
   -0.2454    4.2417   -3.8776 C   0  0  0  0  0  0  0  0  0  0  0  0
   -1.4660    3.6558   -4.2137 C   0  0  0  0  0  0  0  0  0  0  0  0
   -2.3890    4.2960   -5.5158 Cl  0  0  0  0  0  0  0  0  0  0  0  0
   -1.9424    2.5593   -3.5007 C   0  0  0  0  0  0  0  0  0  0  0  0
   -1.1822    2.0542   -2.4415 C   0  0  0  0  0  0  0  0  0  0  0  0
   -1.6636    0.9122   -1.6538 C   0  0  0  0  0  0  0  0  0  0  0  0
   -2.5555    0.1936   -2.0961 O   0  0  0  0  0  0  0  0  0  0  0  0
   -0.9766    0.7011   -0.3101 C   0  0  0  0  0  0  0  0  0  0  0  0
   -1.4114   -0.6049    0.3366 C   0  0  0  0  0  0  0  0  0  0  0  0
   -2.5332   -0.0829    1.1698 C   0  0  0  0  0  0  0  0  0  0  0  0
   -3.5318   -0.9769    1.8024 C   0  0  0  0  0  0  0  0  0  0  0  0
   -3.4366   -2.3703    1.7051 C   0  0  0  0  0  0  0  0  0  0  0  0
   -4.3962   -3.1823    2.3197 C   0  0  0  0  0  0  0  0  0  0  0  0
   -5.4469   -2.6042    3.0306 C   0  0  0  0  0  0  0  0  0  0  0  0
   -6.6218   -3.6081    3.7853 Cl  0  0  0  0  0  0  0  0  0  0  0  0
   -5.5489   -1.2192    3.1338 C   0  0  0  0  0  0  0  0  0  0  0  0
   -4.5918   -0.4060    2.5206 C   0  0  0  0  0  0  0  0  0  0  0  0
   -2.5367    1.2028    1.3254 N   0  0  0  0  0  0  0  0  0  0  0  0
   -1.4611    1.7261    0.5754 O   0  0  0  0  0  0  0  0  0  0  0  0
    6.0191   -3.2644    1.0153 H   0  0  0  0  0  0  0  0  0  0  0  0
    6.9073   -1.7431    1.1926 H   0  0  0  0  0  0  0  0  0  0  0  0
    6.3488   -2.6139    2.6324 H   0  0  0  0  0  0  0  0  0  0  0  0
    4.8920   -0.6630    2.1680 H   0  0  0  0  0  0  0  0  0  0  0  0
    3.9933   -2.1986    2.0174 H   0  0  0  0  0  0  0  0  0  0  0  0
    3.0559   -1.0199   -2.0431 H   0  0  0  0  0  0  0  0  0  0  0  0
    3.1072    0.6897   -1.6043 H   0  0  0  0  0  0  0  0  0  0  0  0
    0.7469   -1.2189   -1.1669 H   0  0  0  0  0  0  0  0  0  0  0  0
    0.8780   -0.0561   -2.4857 H   0  0  0  0  0  0  0  0  0  0  0  0
    1.9860    1.7909    0.8578 H   0  0  0  0  0  0  0  0  0  0  0  0
    0.6425    1.0465    1.6833 H   0  0  0  0  0  0  0  0  0  0  0  0
    1.5700   -1.2098    1.2494 H   0  0  0  0  0  0  0  0  0  0  0  0
    2.7399   -0.1628    2.0420 H   0  0  0  0  0  0  0  0  0  0  0  0
    1.4645    4.1747   -2.5662 H   0  0  0  0  0  0  0  0  0  0  0  0
    0.1242    5.1011   -4.4319 H   0  0  0  0  0  0  0  0  0  0  0  0
   -2.8981    2.1076   -3.7560 H   0  0  0  0  0  0  0  0  0  0  0  0
   -1.7262   -1.3728   -0.3732 H   0  0  0  0  0  0  0  0  0  0  0  0
   -0.6645   -1.0211    1.0162 H   0  0  0  0  0  0  0  0  0  0  0  0
   -2.6302   -2.8508    1.1595 H   0  0  0  0  0  0  0  0  0  0  0  0
   -4.3195   -4.2640    2.2391 H   0  0  0  0  0  0  0  0  0  0  0  0
   -6.3674   -0.7646    3.6861 H   0  0  0  0  0  0  0  0  0  0  0  0
   -4.6824    0.6757    2.6057 H   0  0  0  0  0  0  0  0  0  0  0  0
  1  2  1  0
  2  3  1  0
  3  4  2  0
  3  5  1  0
  5  6  1  0
  6  7  1  0
  7  8  1  0
  8  9  1  0
  9 10  1  0
  8 11  1  0
 11 12  1  0
 12 13  2  0
 13 14  1  0
 14 15  2  0
 15 16  1  0
 15 17  1  0
 17 18  2  0
 18 19  1  0
 19 20  2  0
 19 21  1  0
 21 22  1  0
 22 23  1  0
 23 24  1  0
 24 25  2  0
 25 26  1  0
 26 27  2  0
 27 28  1  0
 27 29  1  0
 29 30  2  0
 23 31  2  0
 31 32  1  0
 10  5  1  0
 18 12  1  0
 32 21  1  0
 21  8  1  0
 30 24  1  0
  1 33  1  0
  1 34  1  0
  1 35  1  0
  2 36  1  0
  2 37  1  0
  6 38  1  0
  6 39  1  0
  7 40  1  0
  7 41  1  0
  9 42  1  0
  9 43  1  0
 10 44  1  0
 10 45  1  0
 13 46  1  0
 14 47  1  0
 17 48  1  0
 22 49  1  0
 22 50  1  0
 25 51  1  0
 26 52  1  0
 29 53  1  0
 30 54  1  0
M  END
$$$$
