
     RDKit          3D

 60 64  0  0  0  0  0  0  0  0999 V2000
    7.5981   -0.5504    1.4227 C   0  0  0  0  0  0  0  0  0  0  0  0
    7.0099   -1.5501    0.5867 O   0  0  0  0  0  0  0  0  0  0  0  0
    6.6789   -1.0181   -0.6356 C   0  0  0  0  0  0  0  0  0  0  0  0
    7.6938   -0.9480   -1.6026 C   0  0  0  0  0  0  0  0  0  0  0  0
    7.4146   -0.4520   -2.8740 C   0  0  0  0  0  0  0  0  0  0  0  0
    6.1189   -0.0323   -3.1811 C   0  0  0  0  0  0  0  0  0  0  0  0
    5.1014   -0.1182   -2.2196 C   0  0  0  0  0  0  0  0  0  0  0  0
    5.3577   -0.6254   -0.9293 C   0  0  0  0  0  0  0  0  0  0  0  0
    4.2738   -0.7340    0.0530 C   0  0  0  0  0  0  0  0  0  0  0  0
    4.2739   -1.2331    1.2737 N   0  0  0  0  0  0  0  0  0  0  0  0
    2.9738   -1.0745    1.6941 C   0  0  0  0  0  0  0  0  0  0  0  0
    2.5638   -1.5315    2.9810 C   0  0  0  0  0  0  0  0  0  0  0  0
    2.1925   -1.8940    4.0222 N   0  0  0  0  0  0  0  0  0  0  0  0
    2.2058   -0.4663    0.7165 C   0  0  0  0  0  0  0  0  0  0  0  0
    0.9153   -0.0639    0.5666 N   0  0  0  0  0  0  0  0  0  0  0  0
    0.3935    0.2959   -0.7599 C   0  0  0  0  0  0  0  0  0  0  0  0
   -1.1028   -0.0646   -0.8778 C   0  0  0  0  0  0  0  0  0  0  0  0
   -1.9685    0.6427    0.0991 N   0  0  0  0  0  0  0  0  0  0  0  0
   -3.3208    0.0184    0.2153 C   0  0  0  0  0  0  0  0  0  0  0  0
   -4.0132   -0.1944   -1.1418 C   0  0  0  0  0  0  0  0  0  0  0  0
   -4.5425   -1.4551   -1.4730 C   0  0  0  0  0  0  0  0  0  0  0  0
   -5.1807   -1.6609   -2.6985 C   0  0  0  0  0  0  0  0  0  0  0  0
   -5.3000   -0.6115   -3.6093 C   0  0  0  0  0  0  0  0  0  0  0  0
   -4.7868    0.6426   -3.2953 C   0  0  0  0  0  0  0  0  0  0  0  0
   -4.1526    0.8530   -2.0688 C   0  0  0  0  0  0  0  0  0  0  0  0
   -4.2705    0.7826    1.1502 C   0  0  0  0  0  0  0  0  0  0  0  0
   -4.3326    2.1856    1.1620 C   0  0  0  0  0  0  0  0  0  0  0  0
   -5.2229    2.8561    2.0026 C   0  0  0  0  0  0  0  0  0  0  0  0
   -6.0675    2.1357    2.8418 C   0  0  0  0  0  0  0  0  0  0  0  0
   -6.0236    0.7437    2.8416 C   0  0  0  0  0  0  0  0  0  0  0  0
   -5.1355    0.0710    1.9987 C   0  0  0  0  0  0  0  0  0  0  0  0
   -1.2758    0.7726    1.4060 C   0  0  0  0  0  0  0  0  0  0  0  0
   -0.0671   -0.1651    1.6500 C   0  0  0  0  0  0  0  0  0  0  0  0
    3.0503   -0.2379   -0.3401 O   0  0  0  0  0  0  0  0  0  0  0  0
    8.6034   -0.2926    1.0684 H   0  0  0  0  0  0  0  0  0  0  0  0
    6.9761    0.3522    1.4815 H   0  0  0  0  0  0  0  0  0  0  0  0
    7.6845   -0.9678    2.4322 H   0  0  0  0  0  0  0  0  0  0  0  0
    8.7002   -1.2866   -1.3637 H   0  0  0  0  0  0  0  0  0  0  0  0
    8.2029   -0.3983   -3.6241 H   0  0  0  0  0  0  0  0  0  0  0  0
    5.8933    0.3539   -4.1732 H   0  0  0  0  0  0  0  0  0  0  0  0
    4.0945    0.2115   -2.4974 H   0  0  0  0  0  0  0  0  0  0  0  0
    0.5394    1.3686   -0.9297 H   0  0  0  0  0  0  0  0  0  0  0  0
    0.9251   -0.2400   -1.5537 H   0  0  0  0  0  0  0  0  0  0  0  0
   -1.4174    0.1792   -1.8990 H   0  0  0  0  0  0  0  0  0  0  0  0
   -1.1980   -1.1527   -0.7513 H   0  0  0  0  0  0  0  0  0  0  0  0
   -3.1640   -0.9769    0.6636 H   0  0  0  0  0  0  0  0  0  0  0  0
   -4.4628   -2.2885   -0.7758 H   0  0  0  0  0  0  0  0  0  0  0  0
   -5.5823   -2.6402   -2.9400 H   0  0  0  0  0  0  0  0  0  0  0  0
   -5.7992   -0.7717   -4.5619 H   0  0  0  0  0  0  0  0  0  0  0  0
   -4.8831    1.4638   -4.0017 H   0  0  0  0  0  0  0  0  0  0  0  0
   -3.7608    1.8388   -1.8370 H   0  0  0  0  0  0  0  0  0  0  0  0
   -3.6801    2.7642    0.5127 H   0  0  0  0  0  0  0  0  0  0  0  0
   -5.2579    3.9424    1.9973 H   0  0  0  0  0  0  0  0  0  0  0  0
   -6.7610    2.6598    3.4937 H   0  0  0  0  0  0  0  0  0  0  0  0
   -6.6862    0.1824    3.4926 H   0  0  0  0  0  0  0  0  0  0  0  0
   -5.1279   -1.0172    2.0015 H   0  0  0  0  0  0  0  0  0  0  0  0
   -1.9590    0.6692    2.2588 H   0  0  0  0  0  0  0  0  0  0  0  0
   -0.9036    1.8057    1.4491 H   0  0  0  0  0  0  0  0  0  0  0  0
   -0.4126   -1.2027    1.7379 H   0  0  0  0  0  0  0  0  0  0  0  0
    0.3840    0.1249    2.6053 H   0  0  0  0  0  0  0  0  0  0  0  0
  1  2  1  0
  2  3  1  0
  3  4  2  0
  4  5  1  0
  5  6  2  0
  6  7  1  0
  7  8  2  0
  8  9  1  0
  9 10  2  0
 10 11  1  0
 11 12  1  0
 12 13  3  0
 11 14  2  0
 14 15  1  0
 15 16  1  0
 16 17  1  0
 17 18  1  0
 18 19  1  0
 19 20  1  0
 20 21  2  0
 21 22  1  0
 22 23  2  0
 23 24  1  0
 24 25  2  0
 19 26  1  0
 26 27  2  0
 27 28  1  0
 28 29  2  0
 29 30  1  0
 30 31  2  0
 18 32  1  0
 32 33  1  0
 14 34  1  0
  8  3  1  0
 34  9  1  0
 33 15  1  0
 25 20  1  0
 31 26  1  0
  1 35  1  0
  1 36  1  0
  1 37  1  0
  4 38  1  0
  5 39  1  0
  6 40  1  0
  7 41  1  0
 16 42  1  0
 16 43  1  0
 17 44  1  0
 17 45  1  0
 19 46  1  0
 21 47  1  0
 22 48  1  0
 23 49  1  0
 24 50  1  0
 25 51  1  0
 27 52  1  0
 28 53  1  0
 29 54  1  0
 30 55  1  0
 31 56  1  0
 32 57  1  0
 32 58  1  0
 33 59  1  0
 33 60  1  0
M  END
$$$$
