
     RDKit          3D

 49 52  0  0  0  0  0  0  0  0999 V2000
   -0.6130    1.6586    4.6666 C   0  0  0  0  0  0  0  0  0  0  0  0
   -0.6348    1.6118    3.1473 C   0  0  0  0  0  0  0  0  0  0  0  0
   -0.1592    0.2573    2.6238 C   0  0  0  0  0  0  0  0  0  0  0  0
   -0.1591    0.2257    1.1198 C   0  0  0  0  0  0  0  0  0  0  0  0
    1.0248    0.3614    0.4922 N   0  0  0  0  0  0  0  0  0  0  0  0
    1.0470    0.3610   -0.8574 C   0  0  0  0  0  0  0  0  0  0  0  0
    2.2867    0.5025   -1.5165 N   0  0  0  0  0  0  0  0  0  0  0  0
    2.6884   -0.7555   -2.1992 C   0  0  0  0  0  0  0  0  0  0  0  0
    4.2257   -0.8995   -2.2944 C   0  0  0  0  0  0  0  0  0  0  0  0
    4.9409   -0.8540   -1.0011 N   0  0  0  0  0  0  0  0  0  0  0  0
    5.1567   -2.1889   -0.4499 C   0  0  0  0  0  0  0  0  0  0  0  0
    4.2291    0.0027   -0.0211 C   0  0  0  0  0  0  0  0  0  0  0  0
    3.3597    1.0946   -0.6812 C   0  0  0  0  0  0  0  0  0  0  0  0
   -0.1372    0.2328   -1.5643 C   0  0  0  0  0  0  0  0  0  0  0  0
   -0.4571    0.3013   -3.2956 S   0  0  0  0  0  0  0  0  0  0  0  0
   -2.1995    0.0720   -3.0395 C   0  0  0  0  0  0  0  0  0  0  0  0
   -3.2227   -0.1236   -4.3485 S   0  0  0  0  0  0  0  0  0  0  0  0
   -2.4671    0.0047   -1.6665 N   0  0  0  0  0  0  0  0  0  0  0  0
   -3.7526   -0.0925   -1.0566 C   0  0  0  0  0  0  0  0  0  0  0  0
   -4.8266    0.6856   -1.5137 C   0  0  0  0  0  0  0  0  0  0  0  0
   -6.0911    0.5889   -0.9232 C   0  0  0  0  0  0  0  0  0  0  0  0
   -6.3028   -0.2877    0.1363 C   0  0  0  0  0  0  0  0  0  0  0  0
   -5.2501   -1.0654    0.6078 C   0  0  0  0  0  0  0  0  0  0  0  0
   -3.9862   -0.9668    0.0171 C   0  0  0  0  0  0  0  0  0  0  0  0
   -1.3052    0.0889   -0.8405 C   0  0  0  0  0  0  0  0  0  0  0  0
   -1.3397    0.0856    0.5011 N   0  0  0  0  0  0  0  0  0  0  0  0
   -1.2539    0.8800    5.0925 H   0  0  0  0  0  0  0  0  0  0  0  0
    0.4034    1.5164    5.0490 H   0  0  0  0  0  0  0  0  0  0  0  0
   -0.9768    2.6283    5.0206 H   0  0  0  0  0  0  0  0  0  0  0  0
   -1.6552    1.8128    2.7974 H   0  0  0  0  0  0  0  0  0  0  0  0
   -0.0003    2.4144    2.7516 H   0  0  0  0  0  0  0  0  0  0  0  0
   -0.8121   -0.5417    2.9933 H   0  0  0  0  0  0  0  0  0  0  0  0
    0.8515    0.0436    2.9926 H   0  0  0  0  0  0  0  0  0  0  0  0
    2.2850   -0.7618   -3.2167 H   0  0  0  0  0  0  0  0  0  0  0  0
    2.2910   -1.6349   -1.6743 H   0  0  0  0  0  0  0  0  0  0  0  0
    4.6107   -0.0722   -2.9052 H   0  0  0  0  0  0  0  0  0  0  0  0
    4.4777   -1.8108   -2.8510 H   0  0  0  0  0  0  0  0  0  0  0  0
    5.7658   -2.7921   -1.1321 H   0  0  0  0  0  0  0  0  0  0  0  0
    5.7102   -2.1290    0.4940 H   0  0  0  0  0  0  0  0  0  0  0  0
    4.2157   -2.7197   -0.2680 H   0  0  0  0  0  0  0  0  0  0  0  0
    4.9767    0.4787    0.6232 H   0  0  0  0  0  0  0  0  0  0  0  0
    3.5862   -0.6058    0.6279 H   0  0  0  0  0  0  0  0  0  0  0  0
    2.9678    1.7880    0.0739 H   0  0  0  0  0  0  0  0  0  0  0  0
    3.9921    1.7110   -1.3335 H   0  0  0  0  0  0  0  0  0  0  0  0
   -4.6946    1.4122   -2.3110 H   0  0  0  0  0  0  0  0  0  0  0  0
   -6.9075    1.2058   -1.2903 H   0  0  0  0  0  0  0  0  0  0  0  0
   -7.2854   -0.3629    0.5944 H   0  0  0  0  0  0  0  0  0  0  0  0
   -5.4092   -1.7540    1.4335 H   0  0  0  0  0  0  0  0  0  0  0  0
   -3.1939   -1.6078    0.3955 H   0  0  0  0  0  0  0  0  0  0  0  0
  1  2  1  0
  2  3  1  0
  3  4  1  0
  4  5  2  0
  5  6  1  0
  6  7  1  0
  7  8  1  0
  8  9  1  0
  9 10  1  0
 10 11  1  0
 10 12  1  0
 12 13  1  0
  6 14  2  0
 14 15  1  0
 15 16  1  0
 16 17  2  0
 16 18  1  0
 18 19  1  0
 19 20  2  0
 20 21  1  0
 21 22  2  0
 22 23  1  0
 23 24  2  0
 18 25  1  0
 25 26  2  0
 26  4  1  0
 13  7  1  0
 25 14  1  0
 24 19  1  0
  1 27  1  0
  1 28  1  0
  1 29  1  0
  2 30  1  0
  2 31  1  0
  3 32  1  0
  3 33  1  0
  8 34  1  0
  8 35  1  0
  9 36  1  0
  9 37  1  0
 11 38  1  0
 11 39  1  0
 11 40  1  0
 12 41  1  0
 12 42  1  0
 13 43  1  0
 13 44  1  0
 20 45  1  0
 21 46  1  0
 22 47  1  0
 23 48  1  0
 24 49  1  0
M  END
$$$$
