
     RDKit          3D

 54 57  0  0  0  0  0  0  0  0999 V2000
   -8.1115    0.8467    2.1068 C   0  0  0  0  0  0  0  0  0  0  0  0
   -7.3485    0.8252    0.9068 O   0  0  0  0  0  0  0  0  0  0  0  0
   -6.0239    0.5095    1.0247 C   0  0  0  0  0  0  0  0  0  0  0  0
   -5.3500    0.2181    2.2068 C   0  0  0  0  0  0  0  0  0  0  0  0
   -3.9833   -0.0894    2.1793 C   0  0  0  0  0  0  0  0  0  0  0  0
   -3.2680   -0.1210    0.9686 C   0  0  0  0  0  0  0  0  0  0  0  0
   -1.8747   -0.4422    1.0012 N   0  0  0  0  0  0  0  0  0  0  0  0
   -1.2395   -0.4889    2.2105 N   0  0  0  0  0  0  0  0  0  0  0  0
    0.0416   -0.7153    1.9329 C   0  0  0  0  0  0  0  0  0  0  0  0
    0.2725   -0.8566    0.5610 C   0  0  0  0  0  0  0  0  0  0  0  0
   -0.9780   -0.7347   -0.0196 C   0  0  0  0  0  0  0  0  0  0  0  0
   -1.2513   -0.9340   -1.4744 C   0  0  0  0  0  0  0  0  0  0  0  0
   -0.0639   -1.6598   -2.1836 C   0  0  0  0  0  0  0  0  0  0  0  0
   -0.1928   -1.4466   -3.7040 C   0  0  0  0  0  0  0  0  0  0  0  0
   -0.1202   -3.1768   -1.9103 C   0  0  0  0  0  0  0  0  0  0  0  0
    1.2957   -1.0680   -1.7083 C   0  0  0  0  0  0  0  0  0  0  0  0
    1.5239   -1.1745   -0.1818 C   0  0  0  0  0  0  0  0  0  0  0  0
    2.5544   -0.2566    0.2466 N   0  0  0  0  0  0  0  0  0  0  0  0
    3.8951   -0.5196    0.0720 C   0  0  0  0  0  0  0  0  0  0  0  0
    4.3373   -1.5816   -0.3488 O   0  0  0  0  0  0  0  0  0  0  0  0
    4.7953    0.6117    0.4289 C   0  0  0  0  0  0  0  0  0  0  0  0
    6.1694    0.4658    0.3346 C   0  0  0  0  0  0  0  0  0  0  0  0
    7.0257    1.4725    0.6475 N   0  0  0  0  0  0  0  0  0  0  0  0
    6.4531    2.6320    1.0593 C   0  0  0  0  0  0  0  0  0  0  0  0
    7.3549    3.7710    1.4182 C   0  0  0  0  0  0  0  0  0  0  0  0
    5.0688    2.7676    1.1487 C   0  0  0  0  0  0  0  0  0  0  0  0
    4.2044    1.7718    0.8374 N   0  0  0  0  0  0  0  0  0  0  0  0
   -3.9489    0.1886   -0.2110 C   0  0  0  0  0  0  0  0  0  0  0  0
   -5.3157    0.4964   -0.1777 C   0  0  0  0  0  0  0  0  0  0  0  0
   -7.7401    1.6113    2.7970 H   0  0  0  0  0  0  0  0  0  0  0  0
   -8.1296   -0.1401    2.5812 H   0  0  0  0  0  0  0  0  0  0  0  0
   -9.1410    1.1081    1.8435 H   0  0  0  0  0  0  0  0  0  0  0  0
   -5.8498    0.2204    3.1697 H   0  0  0  0  0  0  0  0  0  0  0  0
   -3.4889   -0.3142    3.1238 H   0  0  0  0  0  0  0  0  0  0  0  0
    0.7525   -0.7802    2.7472 H   0  0  0  0  0  0  0  0  0  0  0  0
   -2.1670   -1.5166   -1.6246 H   0  0  0  0  0  0  0  0  0  0  0  0
   -1.3899    0.0536   -1.9321 H   0  0  0  0  0  0  0  0  0  0  0  0
    0.6117   -1.9578   -4.2447 H   0  0  0  0  0  0  0  0  0  0  0  0
   -1.1471   -1.8344   -4.0778 H   0  0  0  0  0  0  0  0  0  0  0  0
   -0.1420   -0.3828   -3.9618 H   0  0  0  0  0  0  0  0  0  0  0  0
    0.7231   -3.6912   -2.3849 H   0  0  0  0  0  0  0  0  0  0  0  0
   -0.0908   -3.4101   -0.8416 H   0  0  0  0  0  0  0  0  0  0  0  0
   -1.0421   -3.6131   -2.3117 H   0  0  0  0  0  0  0  0  0  0  0  0
    1.3351   -0.0091   -2.0048 H   0  0  0  0  0  0  0  0  0  0  0  0
    2.1285   -1.5541   -2.2335 H   0  0  0  0  0  0  0  0  0  0  0  0
    1.8419   -2.1947    0.0660 H   0  0  0  0  0  0  0  0  0  0  0  0
    2.3101    0.6993    0.4941 H   0  0  0  0  0  0  0  0  0  0  0  0
    6.6262   -0.4617    0.0061 H   0  0  0  0  0  0  0  0  0  0  0  0
    8.4055    3.4911    1.2901 H   0  0  0  0  0  0  0  0  0  0  0  0
    7.2038    4.0586    2.4632 H   0  0  0  0  0  0  0  0  0  0  0  0
    7.1509    4.6325    0.7749 H   0  0  0  0  0  0  0  0  0  0  0  0
    4.6125    3.6958    1.4785 H   0  0  0  0  0  0  0  0  0  0  0  0
   -3.4625    0.2401   -1.1751 H   0  0  0  0  0  0  0  0  0  0  0  0
   -5.8330    0.7384   -1.1037 H   0  0  0  0  0  0  0  0  0  0  0  0
  1  2  1  0
  2  3  1  0
  3  4  2  0
  4  5  1  0
  5  6  2  0
  6  7  1  0
  7  8  1  0
  8  9  2  0
  9 10  1  0
 10 11  2  0
 11 12  1  0
 12 13  1  0
 13 14  1  0
 13 15  1  0
 13 16  1  0
 16 17  1  0
 17 18  1  0
 18 19  1  0
 19 20  2  0
 19 21  1  0
 21 22  2  0
 22 23  1  0
 23 24  2  0
 24 25  1  0
 24 26  1  0
 26 27  2  0
  6 28  1  0
 28 29  2  0
 29  3  1  0
 11  7  1  0
 27 21  1  0
 17 10  1  0
  1 30  1  0
  1 31  1  0
  1 32  1  0
  4 33  1  0
  5 34  1  0
  9 35  1  0
 12 36  1  0
 12 37  1  0
 14 38  1  0
 14 39  1  0
 14 40  1  0
 15 41  1  0
 15 42  1  0
 15 43  1  0
 16 44  1  0
 16 45  1  0
 17 46  1  0
 18 47  1  0
 22 48  1  0
 25 49  1  0
 25 50  1  0
 25 51  1  0
 26 52  1  0
 28 53  1  0
 29 54  1  0
M  END
$$$$
