
     RDKit          3D

 44 46  0  0  0  0  0  0  0  0999 V2000
    3.6450    1.8557    1.5326 C   0  0  0  0  0  0  0  0  0  0  0  0
    2.5695    0.9515    1.0310 C   0  0  0  0  0  0  0  0  0  0  0  0
    1.2184    1.0454    1.2992 C   0  0  0  0  0  0  0  0  0  0  0  0
    0.5311    0.0676    0.5360 C   0  0  0  0  0  0  0  0  0  0  0  0
   -0.9203   -0.1741    0.4841 C   0  0  0  0  0  0  0  0  0  0  0  0
   -1.4122   -1.0319   -0.2533 O   0  0  0  0  0  0  0  0  0  0  0  0
   -1.8121    0.6611    1.4095 C   0  0  0  0  0  0  0  0  0  0  0  0
   -3.2031    0.4369    1.1674 O   0  0  0  0  0  0  0  0  0  0  0  0
   -3.6740    1.0768    0.0613 C   0  0  0  0  0  0  0  0  0  0  0  0
   -3.0431    1.8736   -0.6151 O   0  0  0  0  0  0  0  0  0  0  0  0
   -5.0557    0.6504   -0.2090 C   0  0  0  0  0  0  0  0  0  0  0  0
   -5.3469   -0.6637   -0.2682 C   0  0  0  0  0  0  0  0  0  0  0  0
   -6.6807   -1.1197   -0.5884 C   0  0  0  0  0  0  0  0  0  0  0  0
   -7.6415   -0.2269   -0.8526 C   0  0  0  0  0  0  0  0  0  0  0  0
   -7.3660    1.1149   -0.8049 N   0  0  0  0  0  0  0  0  0  0  0  0
   -6.1303    1.6418   -0.4866 C   0  0  0  0  0  0  0  0  0  0  0  0
   -5.9599    2.8534   -0.4106 O   0  0  0  0  0  0  0  0  0  0  0  0
    1.5100   -0.6494   -0.1504 C   0  0  0  0  0  0  0  0  0  0  0  0
    1.3292   -1.8824   -0.9822 C   0  0  0  0  0  0  0  0  0  0  0  0
    2.7546   -0.0731    0.1083 N   0  0  0  0  0  0  0  0  0  0  0  0
    3.9947   -0.4477   -0.4888 C   0  0  0  0  0  0  0  0  0  0  0  0
    4.0643   -0.6646   -1.8734 C   0  0  0  0  0  0  0  0  0  0  0  0
    5.2786   -1.0227   -2.4625 C   0  0  0  0  0  0  0  0  0  0  0  0
    6.4114   -1.1638   -1.6697 C   0  0  0  0  0  0  0  0  0  0  0  0
    7.5746   -1.5089   -2.2367 F   0  0  0  0  0  0  0  0  0  0  0  0
    6.3556   -0.9530   -0.2966 C   0  0  0  0  0  0  0  0  0  0  0  0
    5.1452   -0.5918    0.2992 C   0  0  0  0  0  0  0  0  0  0  0  0
    4.3443    2.1355    0.7390 H   0  0  0  0  0  0  0  0  0  0  0  0
    4.1940    1.3869    2.3544 H   0  0  0  0  0  0  0  0  0  0  0  0
    3.2123    2.7855    1.9186 H   0  0  0  0  0  0  0  0  0  0  0  0
    0.7818    1.7845    1.9602 H   0  0  0  0  0  0  0  0  0  0  0  0
   -1.5750    1.7275    1.3250 H   0  0  0  0  0  0  0  0  0  0  0  0
   -1.6124    0.3501    2.4403 H   0  0  0  0  0  0  0  0  0  0  0  0
   -4.5840   -1.4210   -0.1045 H   0  0  0  0  0  0  0  0  0  0  0  0
   -6.8743   -2.1871   -0.6208 H   0  0  0  0  0  0  0  0  0  0  0  0
   -8.6570   -0.5131   -1.1066 H   0  0  0  0  0  0  0  0  0  0  0  0
   -8.0942    1.7938   -0.9934 H   0  0  0  0  0  0  0  0  0  0  0  0
    2.2308   -2.5006   -1.0146 H   0  0  0  0  0  0  0  0  0  0  0  0
    0.5481   -2.5241   -0.5625 H   0  0  0  0  0  0  0  0  0  0  0  0
    1.0423   -1.6147   -2.0036 H   0  0  0  0  0  0  0  0  0  0  0  0
    3.1946   -0.5232   -2.5107 H   0  0  0  0  0  0  0  0  0  0  0  0
    5.3488   -1.1847   -3.5335 H   0  0  0  0  0  0  0  0  0  0  0  0
    7.2525   -1.0794    0.3017 H   0  0  0  0  0  0  0  0  0  0  0  0
    5.1110   -0.4713    1.3781 H   0  0  0  0  0  0  0  0  0  0  0  0
  1  2  1  0
  2  3  2  0
  3  4  1  0
  4  5  1  0
  5  6  2  0
  5  7  1  0
  7  8  1  0
  8  9  1  0
  9 10  2  0
  9 11  1  0
 11 12  2  0
 12 13  1  0
 13 14  2  0
 14 15  1  0
 15 16  1  0
 16 17  2  0
  4 18  2  0
 18 19  1  0
 18 20  1  0
 20 21  1  0
 21 22  2  0
 22 23  1  0
 23 24  2  0
 24 25  1  0
 24 26  1  0
 26 27  2  0
 20  2  1  0
 27 21  1  0
 16 11  1  0
  1 28  1  0
  1 29  1  0
  1 30  1  0
  3 31  1  0
  7 32  1  0
  7 33  1  0
 12 34  1  0
 13 35  1  0
 14 36  1  0
 15 37  1  0
 19 38  1  0
 19 39  1  0
 19 40  1  0
 22 41  1  0
 23 42  1  0
 26 43  1  0
 27 44  1  0
M  END
$$$$
