
     RDKit          3D

 47 50  0  0  0  0  0  0  0  0999 V2000
    7.4639   -0.4979   -1.1790 C   0  0  0  0  0  0  0  0  0  0  0  0
    6.5043   -1.0677   -0.4379 C   0  0  0  0  0  0  0  0  0  0  0  0
    5.9880   -0.5111    0.8605 C   0  0  0  0  0  0  0  0  0  0  0  0
    4.6589    0.0407    0.6422 N   0  0  0  0  0  0  0  0  0  0  0  0
    4.5659    1.3853    0.3465 C   0  0  0  0  0  0  0  0  0  0  0  0
    5.5214    2.1595    0.3233 O   0  0  0  0  0  0  0  0  0  0  0  0
    3.3206    1.8735    0.0891 N   0  0  0  0  0  0  0  0  0  0  0  0
    2.1270    1.2351    0.2485 C   0  0  0  0  0  0  0  0  0  0  0  0
    1.0809    1.8662    0.1707 O   0  0  0  0  0  0  0  0  0  0  0  0
    2.2330   -0.2116    0.5352 C   0  0  0  0  0  0  0  0  0  0  0  0
    1.1736   -1.0411    0.6298 C   0  0  0  0  0  0  0  0  0  0  0  0
   -0.2410   -0.7049    0.4520 C   0  0  0  0  0  0  0  0  0  0  0  0
   -0.7800   -0.5305   -0.8223 C   0  0  0  0  0  0  0  0  0  0  0  0
   -2.1441   -0.2343   -0.9898 C   0  0  0  0  0  0  0  0  0  0  0  0
   -2.9896   -0.0891    0.1310 C   0  0  0  0  0  0  0  0  0  0  0  0
   -2.4387   -0.2959    1.4139 C   0  0  0  0  0  0  0  0  0  0  0  0
   -1.0725   -0.5908    1.5655 C   0  0  0  0  0  0  0  0  0  0  0  0
   -3.2826   -0.1477    2.6550 C   0  0  0  0  0  0  0  0  0  0  0  0
   -4.7699   -0.2069    2.3436 C   0  0  0  0  0  0  0  0  0  0  0  0
   -5.0683    0.6828    1.1486 C   0  0  0  0  0  0  0  0  0  0  0  0
   -4.3570    0.1899   -0.0295 N   0  0  0  0  0  0  0  0  0  0  0  0
   -4.7648    0.7487   -1.3173 C   0  0  0  0  0  0  0  0  0  0  0  0
   -4.1817   -0.0802   -2.4494 C   0  0  0  0  0  0  0  0  0  0  0  0
   -2.6636   -0.0161   -2.3887 C   0  0  0  0  0  0  0  0  0  0  0  0
    3.5771   -0.8205    0.7447 C   0  0  0  0  0  0  0  0  0  0  0  0
    3.7005   -2.0193    0.9969 O   0  0  0  0  0  0  0  0  0  0  0  0
    7.9263    0.4417   -0.8882 H   0  0  0  0  0  0  0  0  0  0  0  0
    7.8015   -0.9577   -2.1029 H   0  0  0  0  0  0  0  0  0  0  0  0
    6.0709   -2.0107   -0.7668 H   0  0  0  0  0  0  0  0  0  0  0  0
    6.6615    0.2590    1.2537 H   0  0  0  0  0  0  0  0  0  0  0  0
    5.9508   -1.3122    1.6076 H   0  0  0  0  0  0  0  0  0  0  0  0
    3.2667    2.8684   -0.0775 H   0  0  0  0  0  0  0  0  0  0  0  0
    1.3223   -2.0961    0.8614 H   0  0  0  0  0  0  0  0  0  0  0  0
   -0.1420   -0.6191   -1.6984 H   0  0  0  0  0  0  0  0  0  0  0  0
   -0.6634   -0.7277    2.5640 H   0  0  0  0  0  0  0  0  0  0  0  0
   -3.0420    0.8163    3.1203 H   0  0  0  0  0  0  0  0  0  0  0  0
   -3.0374   -0.9368    3.3756 H   0  0  0  0  0  0  0  0  0  0  0  0
   -5.3485    0.1137    3.2168 H   0  0  0  0  0  0  0  0  0  0  0  0
   -5.0630   -1.2408    2.1192 H   0  0  0  0  0  0  0  0  0  0  0  0
   -4.7896    1.7243    1.3544 H   0  0  0  0  0  0  0  0  0  0  0  0
   -6.1481    0.6664    0.9593 H   0  0  0  0  0  0  0  0  0  0  0  0
   -5.8582    0.7307   -1.3959 H   0  0  0  0  0  0  0  0  0  0  0  0
   -4.4500    1.7973   -1.3950 H   0  0  0  0  0  0  0  0  0  0  0  0
   -4.5338    0.2895   -3.4186 H   0  0  0  0  0  0  0  0  0  0  0  0
   -4.5149   -1.1221   -2.3565 H   0  0  0  0  0  0  0  0  0  0  0  0
   -2.3228    0.9688   -2.7314 H   0  0  0  0  0  0  0  0  0  0  0  0
   -2.2474   -0.7688   -3.0686 H   0  0  0  0  0  0  0  0  0  0  0  0
  1  2  2  0
  2  3  1  0
  3  4  1  0
  4  5  1  0
  5  6  2  0
  5  7  1  0
  7  8  1  0
  8  9  2  0
  8 10  1  0
 10 11  2  3
 11 12  1  0
 12 13  2  0
 13 14  1  0
 14 15  2  0
 15 16  1  0
 16 17  2  0
 16 18  1  0
 18 19  1  0
 19 20  1  0
 20 21  1  0
 21 22  1  0
 22 23  1  0
 23 24  1  0
 10 25  1  0
 25 26  2  0
 25  4  1  0
 17 12  1  0
 24 14  1  0
 21 15  1  0
  1 27  1  0
  1 28  1  0
  2 29  1  0
  3 30  1  0
  3 31  1  0
  7 32  1  0
 11 33  1  0
 13 34  1  0
 17 35  1  0
 18 36  1  0
 18 37  1  0
 19 38  1  0
 19 39  1  0
 20 40  1  0
 20 41  1  0
 22 42  1  0
 22 43  1  0
 23 44  1  0
 23 45  1  0
 24 46  1  0
 24 47  1  0
M  END
$$$$
