
     RDKit          3D

 46 48  0  0  0  0  0  0  0  0999 V2000
   -2.4024    2.6729    1.5729 O   0  0  0  0  0  0  0  0  0  0  0  0
   -1.7109    2.0433    0.7810 C   0  0  0  0  0  0  0  0  0  0  0  0
   -2.2283    1.3960   -0.3205 N   0  0  0  0  0  0  0  0  0  0  0  0
   -3.6470    1.4488   -0.6301 C   0  0  0  0  0  0  0  0  0  0  0  0
   -4.5271    0.6249    0.3143 C   0  0  0  0  0  0  0  0  0  0  0  0
   -4.1203   -0.8366    0.4247 C   0  0  0  0  0  0  0  0  0  0  0  0
   -5.4140   -1.4755    0.8636 C   0  0  0  0  0  0  0  0  0  0  0  0
   -6.4389   -0.6944    0.0688 C   0  0  0  0  0  0  0  0  0  0  0  0
   -5.8859    0.6084   -0.1699 O   0  0  0  0  0  0  0  0  0  0  0  0
   -0.2429    1.9191    1.0153 C   0  0  0  0  0  0  0  0  0  0  0  0
    0.2411    2.1524    2.3071 C   0  0  0  0  0  0  0  0  0  0  0  0
    1.6094    2.0643    2.5789 C   0  0  0  0  0  0  0  0  0  0  0  0
    2.5189    1.7422    1.5644 C   0  0  0  0  0  0  0  0  0  0  0  0
    4.3457    1.6681    2.0735 Br  0  0  0  0  0  0  0  0  0  0  0  0
    2.0400    1.5085    0.2718 C   0  0  0  0  0  0  0  0  0  0  0  0
    3.1164    1.0965   -1.0786 S   0  0  0  0  0  6  0  0  0  0  0  0
    4.0861    2.1597   -1.2100 O   0  0  0  0  0  0  0  0  0  0  0  0
    2.2872    0.7064   -2.2025 O   0  0  0  0  0  0  0  0  0  0  0  0
    3.9006   -0.3186   -0.5587 N   0  0  0  0  0  0  0  0  0  0  0  0
    5.1624   -0.6085   -1.3150 C   0  0  0  0  0  0  0  0  0  0  0  0
    5.6135   -2.0497   -1.0624 C   0  0  0  0  0  0  0  0  0  0  0  0
    4.6646   -3.0260   -1.5174 O   0  0  0  0  0  0  0  0  0  0  0  0
    3.3111   -2.5519   -1.5051 C   0  0  0  0  0  0  0  0  0  0  0  0
    3.0448   -1.5357   -0.3910 C   0  0  0  0  0  0  0  0  0  0  0  0
    0.6625    1.6105   -0.0052 C   0  0  0  0  0  0  0  0  0  0  0  0
   -1.6578    0.7718   -0.8718 H   0  0  0  0  0  0  0  0  0  0  0  0
   -3.9719    2.4960   -0.6111 H   0  0  0  0  0  0  0  0  0  0  0  0
   -3.7689    1.1039   -1.6634 H   0  0  0  0  0  0  0  0  0  0  0  0
   -4.5457    1.0806    1.3118 H   0  0  0  0  0  0  0  0  0  0  0  0
   -3.2988   -0.9999    1.1278 H   0  0  0  0  0  0  0  0  0  0  0  0
   -3.8252   -1.2368   -0.5529 H   0  0  0  0  0  0  0  0  0  0  0  0
   -5.4595   -2.5516    0.6770 H   0  0  0  0  0  0  0  0  0  0  0  0
   -5.5664   -1.3083    1.9365 H   0  0  0  0  0  0  0  0  0  0  0  0
   -7.3927   -0.5990    0.5953 H   0  0  0  0  0  0  0  0  0  0  0  0
   -6.6232   -1.1596   -0.9052 H   0  0  0  0  0  0  0  0  0  0  0  0
   -0.4474    2.4130    3.1105 H   0  0  0  0  0  0  0  0  0  0  0  0
    1.9546    2.2589    3.5932 H   0  0  0  0  0  0  0  0  0  0  0  0
    4.9904   -0.4638   -2.3880 H   0  0  0  0  0  0  0  0  0  0  0  0
    5.9420    0.0830   -0.9795 H   0  0  0  0  0  0  0  0  0  0  0  0
    5.7809   -2.2198    0.0076 H   0  0  0  0  0  0  0  0  0  0  0  0
    6.5588   -2.2470   -1.5776 H   0  0  0  0  0  0  0  0  0  0  0  0
    3.0951   -2.1195   -2.4888 H   0  0  0  0  0  0  0  0  0  0  0  0
    2.6617   -3.4244   -1.3820 H   0  0  0  0  0  0  0  0  0  0  0  0
    3.2919   -1.9705    0.5849 H   0  0  0  0  0  0  0  0  0  0  0  0
    1.9819   -1.2778   -0.3678 H   0  0  0  0  0  0  0  0  0  0  0  0
    0.3135    1.4823   -1.0266 H   0  0  0  0  0  0  0  0  0  0  0  0
  1  2  2  0
  2  3  1  0
  3  4  1  0
  4  5  1  0
  5  6  1  0
  6  7  1  0
  7  8  1  0
  8  9  1  0
  2 10  1  0
 10 11  2  0
 11 12  1  0
 12 13  2  0
 13 14  1  0
 13 15  1  0
 15 16  1  0
 16 17  2  0
 16 18  2  0
 16 19  1  0
 19 20  1  0
 20 21  1  0
 21 22  1  0
 22 23  1  0
 23 24  1  0
 15 25  2  0
  9  5  1  0
 25 10  1  0
 24 19  1  0
  3 26  1  0
  4 27  1  0
  4 28  1  0
  5 29  1  0
  6 30  1  0
  6 31  1  0
  7 32  1  0
  7 33  1  0
  8 34  1  0
  8 35  1  0
 11 36  1  0
 12 37  1  0
 20 38  1  0
 20 39  1  0
 21 40  1  0
 21 41  1  0
 23 42  1  0
 23 43  1  0
 24 44  1  0
 24 45  1  0
 25 46  1  0
M  END
$$$$
