
     RDKit          3D

 60 65  0  0  0  0  0  0  0  0999 V2000
    3.7947    1.0111    1.4639 O   0  0  0  0  0  0  0  0  0  0  0  0
    3.0581    0.8012    0.5054 C   0  0  0  0  0  0  0  0  0  0  0  0
    1.5555    0.6747    0.6988 C   0  0  0  0  0  0  0  0  0  0  0  0
    1.0281   -1.0286    0.3429 S   0  0  0  0  0  0  0  0  0  0  0  0
   -0.6929   -0.8422    0.6562 C   0  0  0  0  0  0  0  0  0  0  0  0
   -1.2497    0.1522    0.0496 N   0  0  0  0  0  0  0  0  0  0  0  0
   -2.5865    0.4198    0.3142 C   0  0  0  0  0  0  0  0  0  0  0  0
   -3.0911    1.4625   -0.3766 N   0  0  0  0  0  0  0  0  0  0  0  0
   -4.3866    1.8038   -0.1597 C   0  0  0  0  0  0  0  0  0  0  0  0
   -5.2018    1.1374    0.7613 C   0  0  0  0  0  0  0  0  0  0  0  0
   -4.6518    0.0579    1.4584 C   0  0  0  0  0  0  0  0  0  0  0  0
   -3.3226   -0.2962    1.2299 C   0  0  0  0  0  0  0  0  0  0  0  0
   -2.6722   -1.4194    1.9120 C   0  0  0  0  0  0  0  0  0  0  0  0
   -3.3506   -2.0518    2.7204 O   0  0  0  0  0  0  0  0  0  0  0  0
   -1.3450   -1.6909    1.5526 N   0  0  0  0  0  0  0  0  0  0  0  0
   -0.7302   -2.8530    2.1306 C   0  0  0  0  0  0  0  0  0  0  0  0
   -0.7873   -3.0730    3.5152 C   0  0  0  0  0  0  0  0  0  0  0  0
   -0.1996   -4.2054    4.0851 C   0  0  0  0  0  0  0  0  0  0  0  0
    0.4401   -5.1410    3.2769 C   0  0  0  0  0  0  0  0  0  0  0  0
    0.4843   -4.9506    1.8983 C   0  0  0  0  0  0  0  0  0  0  0  0
   -0.1029   -3.8177    1.3276 C   0  0  0  0  0  0  0  0  0  0  0  0
   -6.6475    1.5056    0.9622 C   0  0  0  0  0  0  0  0  0  0  0  0
   -6.9998    2.8885    0.4154 C   0  0  0  0  0  0  0  0  0  0  0  0
   -6.4150    3.0787   -0.9793 C   0  0  0  0  0  0  0  0  0  0  0  0
   -4.8913    2.9975   -0.9294 C   0  0  0  0  0  0  0  0  0  0  0  0
    3.4319    0.6819   -0.8255 N   0  0  0  0  0  0  0  0  0  0  0  0
    4.7267    0.7864   -1.3968 C   0  0  0  0  0  0  0  0  0  0  0  0
    5.8394    1.1137   -0.6115 C   0  0  0  0  0  0  0  0  0  0  0  0
    7.1087    1.2188   -1.1734 C   0  0  0  0  0  0  0  0  0  0  0  0
    7.2867    1.0029   -2.5339 C   0  0  0  0  0  0  0  0  0  0  0  0
    6.2007    0.6773   -3.3552 C   0  0  0  0  0  0  0  0  0  0  0  0
    6.4184    0.4675   -4.7276 C   0  0  0  0  0  0  0  0  0  0  0  0
    5.3696    0.1396   -5.5813 C   0  0  0  0  0  0  0  0  0  0  0  0
    4.0865    0.0175   -5.0717 C   0  0  0  0  0  0  0  0  0  0  0  0
    3.8530    0.2244   -3.7083 C   0  0  0  0  0  0  0  0  0  0  0  0
    4.8960    0.5610   -2.8033 C   0  0  0  0  0  0  0  0  0  0  0  0
    1.0584    1.3932    0.0395 H   0  0  0  0  0  0  0  0  0  0  0  0
    1.3085    0.9264    1.7346 H   0  0  0  0  0  0  0  0  0  0  0  0
   -5.2528   -0.5055    2.1696 H   0  0  0  0  0  0  0  0  0  0  0  0
   -1.2780   -2.3586    4.1722 H   0  0  0  0  0  0  0  0  0  0  0  0
   -0.2456   -4.3555    5.1609 H   0  0  0  0  0  0  0  0  0  0  0  0
    0.8965   -6.0222    3.7207 H   0  0  0  0  0  0  0  0  0  0  0  0
    0.9692   -5.6881    1.2639 H   0  0  0  0  0  0  0  0  0  0  0  0
   -0.0850   -3.7203    0.2449 H   0  0  0  0  0  0  0  0  0  0  0  0
   -6.8967    1.4734    2.0295 H   0  0  0  0  0  0  0  0  0  0  0  0
   -7.2628    0.7512    0.4560 H   0  0  0  0  0  0  0  0  0  0  0  0
   -8.0889    3.0076    0.3896 H   0  0  0  0  0  0  0  0  0  0  0  0
   -6.6074    3.6645    1.0853 H   0  0  0  0  0  0  0  0  0  0  0  0
   -6.7187    4.0492   -1.3877 H   0  0  0  0  0  0  0  0  0  0  0  0
   -6.8099    2.3070   -1.6523 H   0  0  0  0  0  0  0  0  0  0  0  0
   -4.4932    3.8999   -0.4486 H   0  0  0  0  0  0  0  0  0  0  0  0
   -4.4967    2.9696   -1.9518 H   0  0  0  0  0  0  0  0  0  0  0  0
    2.6827    0.4264   -1.4521 H   0  0  0  0  0  0  0  0  0  0  0  0
    5.7552    1.2968    0.4546 H   0  0  0  0  0  0  0  0  0  0  0  0
    7.9589    1.4697   -0.5439 H   0  0  0  0  0  0  0  0  0  0  0  0
    8.2887    1.0915   -2.9487 H   0  0  0  0  0  0  0  0  0  0  0  0
    7.4189    0.5601   -5.1456 H   0  0  0  0  0  0  0  0  0  0  0  0
    5.5563   -0.0201   -6.6395 H   0  0  0  0  0  0  0  0  0  0  0  0
    3.2617   -0.2411   -5.7300 H   0  0  0  0  0  0  0  0  0  0  0  0
    2.8266    0.1126   -3.3743 H   0  0  0  0  0  0  0  0  0  0  0  0
  1  2  2  0
  2  3  1  0
  3  4  1  0
  4  5  1  0
  5  6  2  0
  6  7  1  0
  7  8  2  0
  8  9  1  0
  9 10  2  0
 10 11  1  0
 11 12  2  0
 12 13  1  0
 13 14  2  0
 13 15  1  0
 15 16  1  0
 16 17  2  0
 17 18  1  0
 18 19  2  0
 19 20  1  0
 20 21  2  0
 10 22  1  0
 22 23  1  0
 23 24  1  0
 24 25  1  0
  2 26  1  0
 26 27  1  0
 27 28  2  0
 28 29  1  0
 29 30  2  0
 30 31  1  0
 31 32  2  0
 32 33  1  0
 33 34  2  0
 34 35  1  0
 35 36  2  0
 15  5  1  0
 21 16  1  0
 36 27  1  0
 12  7  1  0
 36 31  1  0
 25  9  1  0
  3 37  1  0
  3 38  1  0
 11 39  1  0
 17 40  1  0
 18 41  1  0
 19 42  1  0
 20 43  1  0
 21 44  1  0
 22 45  1  0
 22 46  1  0
 23 47  1  0
 23 48  1  0
 24 49  1  0
 24 50  1  0
 25 51  1  0
 25 52  1  0
 26 53  1  0
 28 54  1  0
 29 55  1  0
 30 56  1  0
 32 57  1  0
 33 58  1  0
 34 59  1  0
 35 60  1  0
M  END
$$$$
