
     RDKit          3D

 40 42  0  0  0  0  0  0  0  0999 V2000
   -2.4496   -2.5148   -2.6215 C   0  0  0  0  0  0  0  0  0  0  0  0
   -1.6359   -1.2594   -2.2991 C   0  0  0  0  0  0  0  0  0  0  0  0
   -2.3620   -0.0244   -2.8335 C   0  0  0  0  0  0  0  0  0  0  0  0
   -1.3752   -1.1845   -0.7827 C   0  0  0  0  0  0  0  0  0  0  0  0
   -0.4208   -0.1660   -0.3913 N   0  0  0  0  0  0  0  0  0  0  0  0
    0.9465   -0.2685   -0.4267 C   0  0  0  0  0  0  0  0  0  0  0  0
    1.8161   -1.6496   -0.9944 S   0  0  0  0  0  0  0  0  0  0  0  0
    3.3521   -1.4818   -0.0317 C   0  0  0  0  0  0  0  0  0  0  0  0
    3.0985   -1.7363    1.4496 C   0  0  0  0  0  0  0  0  0  0  0  0
    2.5720   -2.7990    1.7963 O   0  0  0  0  0  0  0  0  0  0  0  0
    3.5343   -0.7210    2.4082 C   0  0  0  0  0  0  0  0  0  0  0  0
    3.9382    0.5915    2.2196 C   0  0  0  0  0  0  0  0  0  0  0  0
    4.2828    1.2447    3.4432 C   0  0  0  0  0  0  0  0  0  0  0  0
    4.1261    0.4041    4.5116 C   0  0  0  0  0  0  0  0  0  0  0  0
    4.4255    0.7768    6.1605 Cl  0  0  0  0  0  0  0  0  0  0  0  0
    3.5752   -1.1328    4.0827 S   0  0  0  0  0  0  0  0  0  0  0  0
    1.4956    0.8267    0.0379 N   0  0  0  0  0  0  0  0  0  0  0  0
    0.4821    1.6674    0.4133 N   0  0  0  0  0  0  0  0  0  0  0  0
   -0.6703    1.0710    0.1625 C   0  0  0  0  0  0  0  0  0  0  0  0
   -1.9380    1.6751    0.4439 C   0  0  0  0  0  0  0  0  0  0  0  0
   -2.1706    2.9134    1.0247 C   0  0  0  0  0  0  0  0  0  0  0  0
   -3.5719    3.0926    1.1024 C   0  0  0  0  0  0  0  0  0  0  0  0
   -4.1246    1.9574    0.5653 C   0  0  0  0  0  0  0  0  0  0  0  0
   -3.1524    1.1005    0.1660 O   0  0  0  0  0  0  0  0  0  0  0  0
   -3.4249   -2.4952   -2.1232 H   0  0  0  0  0  0  0  0  0  0  0  0
   -2.6214   -2.6019   -3.6997 H   0  0  0  0  0  0  0  0  0  0  0  0
   -1.9198   -3.4162   -2.2956 H   0  0  0  0  0  0  0  0  0  0  0  0
   -0.6797   -1.3369   -2.8304 H   0  0  0  0  0  0  0  0  0  0  0  0
   -3.3387    0.1021   -2.3554 H   0  0  0  0  0  0  0  0  0  0  0  0
   -1.7761    0.8849   -2.6697 H   0  0  0  0  0  0  0  0  0  0  0  0
   -2.5293   -0.1133   -3.9126 H   0  0  0  0  0  0  0  0  0  0  0  0
   -2.3057   -1.0398   -0.2286 H   0  0  0  0  0  0  0  0  0  0  0  0
   -0.9800   -2.1422   -0.4212 H   0  0  0  0  0  0  0  0  0  0  0  0
    4.0597   -2.2443   -0.3751 H   0  0  0  0  0  0  0  0  0  0  0  0
    3.8137   -0.5136   -0.2318 H   0  0  0  0  0  0  0  0  0  0  0  0
    3.9662    1.0936    1.2594 H   0  0  0  0  0  0  0  0  0  0  0  0
    4.6133    2.2728    3.5231 H   0  0  0  0  0  0  0  0  0  0  0  0
   -1.4022    3.6017    1.3523 H   0  0  0  0  0  0  0  0  0  0  0  0
   -4.1089    3.9421    1.5004 H   0  0  0  0  0  0  0  0  0  0  0  0
   -5.1400    1.6231    0.4033 H   0  0  0  0  0  0  0  0  0  0  0  0
  1  2  1  0
  2  3  1  0
  2  4  1  0
  4  5  1  0
  5  6  1  0
  6  7  1  0
  7  8  1  0
  8  9  1  0
  9 10  2  0
  9 11  1  0
 11 12  2  0
 12 13  1  0
 13 14  2  0
 14 15  1  0
 14 16  1  0
  6 17  2  0
 17 18  1  0
 18 19  2  0
 19 20  1  0
 20 21  2  0
 21 22  1  0
 22 23  2  0
 23 24  1  0
 19  5  1  0
 24 20  1  0
 16 11  1  0
  1 25  1  0
  1 26  1  0
  1 27  1  0
  2 28  1  0
  3 29  1  0
  3 30  1  0
  3 31  1  0
  4 32  1  0
  4 33  1  0
  8 34  1  0
  8 35  1  0
 12 36  1  0
 13 37  1  0
 21 38  1  0
 22 39  1  0
 23 40  1  0
M  END
$$$$
