
     RDKit          3D

 55 58  0  0  0  0  0  0  0  0999 V2000
    1.7847   -3.8207    2.5100 C   0  0  0  0  0  0  0  0  0  0  0  0
    1.9417   -3.7061    1.0040 C   0  0  0  0  0  0  0  0  0  0  0  0
    3.0816   -2.9088    0.6845 O   0  0  0  0  0  0  0  0  0  0  0  0
    2.9011   -1.5850    0.3831 C   0  0  0  0  0  0  0  0  0  0  0  0
    1.7621   -0.8428    0.7102 C   0  0  0  0  0  0  0  0  0  0  0  0
    1.6495    0.5061    0.3379 C   0  0  0  0  0  0  0  0  0  0  0  0
    0.4527    1.2981    0.6567 C   0  0  0  0  0  0  0  0  0  0  0  0
   -0.8300    0.9636    0.4070 C   0  0  0  0  0  0  0  0  0  0  0  0
   -1.2014   -0.3105   -0.2831 C   0  0  0  0  0  0  0  0  0  0  0  0
   -1.8182   -1.1698    0.3495 O   0  0  0  0  0  0  0  0  0  0  0  0
   -0.8752   -0.4504   -1.6168 N   0  0  0  0  0  0  0  0  0  0  0  0
   -0.3949    0.6241   -2.4969 C   0  0  0  0  0  0  0  0  0  0  0  0
   -0.9310    0.4369   -3.9207 C   0  0  0  0  0  0  0  0  0  0  0  0
   -0.5599   -0.8163   -4.5134 O   0  0  0  0  0  0  0  0  0  0  0  0
   -0.3316   -1.8690   -3.5647 C   0  0  0  0  0  0  0  0  0  0  0  0
   -1.1561   -1.7220   -2.2838 C   0  0  0  0  0  0  0  0  0  0  0  0
   -1.8646    1.8229    0.8729 C   0  0  0  0  0  0  0  0  0  0  0  0
   -1.8492    3.1163    1.1435 N   0  0  0  0  0  0  0  0  0  0  0  0
   -3.1187    3.4271    1.5675 C   0  0  0  0  0  0  0  0  0  0  0  0
   -3.6536    4.6588    1.9714 C   0  0  0  0  0  0  0  0  0  0  0  0
   -4.9965    4.7098    2.3674 C   0  0  0  0  0  0  0  0  0  0  0  0
   -5.7879    3.5579    2.3638 C   0  0  0  0  0  0  0  0  0  0  0  0
   -5.2702    2.3197    1.9649 C   0  0  0  0  0  0  0  0  0  0  0  0
   -3.9306    2.2999    1.5721 C   0  0  0  0  0  0  0  0  0  0  0  0
   -3.1101    1.2927    1.1357 N   0  0  0  0  0  0  0  0  0  0  0  0
    2.7120    1.1269   -0.3247 C   0  0  0  0  0  0  0  0  0  0  0  0
    3.8611    0.4008   -0.6395 C   0  0  0  0  0  0  0  0  0  0  0  0
    5.1318    1.2107   -1.4851 Cl  0  0  0  0  0  0  0  0  0  0  0  0
    3.9656   -0.9455   -0.2731 C   0  0  0  0  0  0  0  0  0  0  0  0
    5.0830   -1.6654   -0.6282 O   0  0  0  0  0  0  0  0  0  0  0  0
    6.0015   -1.7209    0.4648 C   0  0  0  0  0  0  0  0  0  0  0  0
    0.9562   -4.4880    2.7631 H   0  0  0  0  0  0  0  0  0  0  0  0
    2.7027   -4.2125    2.9616 H   0  0  0  0  0  0  0  0  0  0  0  0
    1.6003   -2.8444    2.9681 H   0  0  0  0  0  0  0  0  0  0  0  0
    1.0252   -3.3582    0.5138 H   0  0  0  0  0  0  0  0  0  0  0  0
    2.1384   -4.7052    0.5987 H   0  0  0  0  0  0  0  0  0  0  0  0
    0.9482   -1.2985    1.2680 H   0  0  0  0  0  0  0  0  0  0  0  0
    0.6642    2.2441    1.1577 H   0  0  0  0  0  0  0  0  0  0  0  0
   -0.6862    1.6042   -2.1109 H   0  0  0  0  0  0  0  0  0  0  0  0
    0.6974    0.5564   -2.5084 H   0  0  0  0  0  0  0  0  0  0  0  0
   -0.5610    1.2338   -4.5735 H   0  0  0  0  0  0  0  0  0  0  0  0
   -2.0263    0.4912   -3.9238 H   0  0  0  0  0  0  0  0  0  0  0  0
    0.7394   -1.8767   -3.3294 H   0  0  0  0  0  0  0  0  0  0  0  0
   -0.5655   -2.8159   -4.0613 H   0  0  0  0  0  0  0  0  0  0  0  0
   -0.9550   -2.5502   -1.5959 H   0  0  0  0  0  0  0  0  0  0  0  0
   -2.2269   -1.7243   -2.5196 H   0  0  0  0  0  0  0  0  0  0  0  0
   -3.0332    5.5480    1.9739 H   0  0  0  0  0  0  0  0  0  0  0  0
   -5.4251    5.6583    2.6825 H   0  0  0  0  0  0  0  0  0  0  0  0
   -6.8276    3.6239    2.6784 H   0  0  0  0  0  0  0  0  0  0  0  0
   -5.8837    1.4253    1.9649 H   0  0  0  0  0  0  0  0  0  0  0  0
   -3.3598    0.3150    1.0457 H   0  0  0  0  0  0  0  0  0  0  0  0
    2.6434    2.1760   -0.6081 H   0  0  0  0  0  0  0  0  0  0  0  0
    6.8663   -2.3094    0.1443 H   0  0  0  0  0  0  0  0  0  0  0  0
    6.3552   -0.7192    0.7322 H   0  0  0  0  0  0  0  0  0  0  0  0
    5.5653   -2.2128    1.3408 H   0  0  0  0  0  0  0  0  0  0  0  0
  1  2  1  0
  2  3  1  0
  3  4  1  0
  4  5  2  0
  5  6  1  0
  6  7  1  0
  7  8  2  3
  8  9  1  0
  9 10  2  0
  9 11  1  0
 11 12  1  0
 12 13  1  0
 13 14  1  0
 14 15  1  0
 15 16  1  0
  8 17  1  0
 17 18  2  0
 18 19  1  0
 19 20  2  0
 20 21  1  0
 21 22  2  0
 22 23  1  0
 23 24  2  0
 24 25  1  0
  6 26  2  0
 26 27  1  0
 27 28  1  0
 27 29  2  0
 29 30  1  0
 30 31  1  0
 29  4  1  0
 16 11  1  0
 25 17  1  0
 24 19  1  0
  1 32  1  0
  1 33  1  0
  1 34  1  0
  2 35  1  0
  2 36  1  0
  5 37  1  0
  7 38  1  0
 12 39  1  0
 12 40  1  0
 13 41  1  0
 13 42  1  0
 15 43  1  0
 15 44  1  0
 16 45  1  0
 16 46  1  0
 20 47  1  0
 21 48  1  0
 22 49  1  0
 23 50  1  0
 25 51  1  0
 26 52  1  0
 31 53  1  0
 31 54  1  0
 31 55  1  0
M  END
$$$$
