
     RDKit          3D

 50 53  0  0  0  0  0  0  0  0999 V2000
   -5.4863    0.1638    1.5747 C   0  0  0  0  0  0  0  0  0  0  0  0
   -5.0357    0.8174    0.2654 C   0  0  0  0  0  0  0  0  0  0  0  0
   -5.0655   -0.2142   -0.8783 C   0  0  0  0  0  0  0  0  0  0  0  0
   -3.9491    0.0394   -1.8934 C   0  0  0  0  0  0  0  0  0  0  0  0
   -4.0338   -0.9394   -3.0627 C   0  0  0  0  0  0  0  0  0  0  0  0
   -2.5757   -0.0528   -1.2028 C   0  0  0  0  0  0  0  0  0  0  0  0
   -2.5953    0.5633    0.1245 N   0  0  0  0  0  0  0  0  0  0  0  0
   -1.3461    0.8171    0.6734 C   0  0  0  0  0  0  0  0  0  0  0  0
   -1.2261    1.7362    1.6473 N   0  0  0  0  0  0  0  0  0  0  0  0
   -0.0043    1.9375    2.1859 C   0  0  0  0  0  0  0  0  0  0  0  0
    1.1142    1.2532    1.7845 C   0  0  0  0  0  0  0  0  0  0  0  0
    0.9255    0.3338    0.7785 C   0  0  0  0  0  0  0  0  0  0  0  0
   -0.2890    0.1076    0.2279 N   0  0  0  0  0  0  0  0  0  0  0  0
    2.0672   -0.5024    0.2680 C   0  0  0  0  0  0  0  0  0  0  0  0
    3.4026    0.2390    0.4317 C   0  0  0  0  0  0  0  0  0  0  0  0
    4.5732   -0.5820   -0.0810 C   0  0  0  0  0  0  0  0  0  0  0  0
    5.3394   -0.1028   -1.1557 C   0  0  0  0  0  0  0  0  0  0  0  0
    6.4205   -0.8400   -1.6461 C   0  0  0  0  0  0  0  0  0  0  0  0
    6.7447   -2.0631   -1.0663 C   0  0  0  0  0  0  0  0  0  0  0  0
    8.0751   -2.9711   -1.6700 Cl  0  0  0  0  0  0  0  0  0  0  0  0
    5.9971   -2.5549    0.0000 C   0  0  0  0  0  0  0  0  0  0  0  0
    4.9159   -1.8179    0.4909 C   0  0  0  0  0  0  0  0  0  0  0  0
    3.5991    0.6629    1.8926 C   0  0  0  0  0  0  0  0  0  0  0  0
    2.4334    1.4893    2.3897 C   0  0  0  0  0  0  0  0  0  0  0  0
    2.5516    2.3017    3.3016 O   0  0  0  0  0  0  0  0  0  0  0  0
   -3.6643    1.5052    0.4251 C   0  0  0  0  0  0  0  0  0  0  0  0
   -6.4725   -0.2979    1.4581 H   0  0  0  0  0  0  0  0  0  0  0  0
   -5.5594    0.9071    2.3757 H   0  0  0  0  0  0  0  0  0  0  0  0
   -4.7822   -0.6113    1.8959 H   0  0  0  0  0  0  0  0  0  0  0  0
   -5.7650    1.6059    0.0360 H   0  0  0  0  0  0  0  0  0  0  0  0
   -6.0457   -0.1770   -1.3698 H   0  0  0  0  0  0  0  0  0  0  0  0
   -4.9617   -1.2322   -0.4792 H   0  0  0  0  0  0  0  0  0  0  0  0
   -4.0733    1.0530   -2.2981 H   0  0  0  0  0  0  0  0  0  0  0  0
   -4.9937   -0.8423   -3.5806 H   0  0  0  0  0  0  0  0  0  0  0  0
   -3.2385   -0.7440   -3.7897 H   0  0  0  0  0  0  0  0  0  0  0  0
   -3.9366   -1.9764   -2.7238 H   0  0  0  0  0  0  0  0  0  0  0  0
   -2.2864   -1.1066   -1.0975 H   0  0  0  0  0  0  0  0  0  0  0  0
   -1.8371    0.4323   -1.8556 H   0  0  0  0  0  0  0  0  0  0  0  0
    0.0358    2.6863    2.9725 H   0  0  0  0  0  0  0  0  0  0  0  0
    2.0662   -1.4501    0.8203 H   0  0  0  0  0  0  0  0  0  0  0  0
    1.9012   -0.7428   -0.7897 H   0  0  0  0  0  0  0  0  0  0  0  0
    3.3414    1.1598   -0.1683 H   0  0  0  0  0  0  0  0  0  0  0  0
    5.1035    0.8511   -1.6238 H   0  0  0  0  0  0  0  0  0  0  0  0
    7.0031   -0.4541   -2.4784 H   0  0  0  0  0  0  0  0  0  0  0  0
    6.2495   -3.5097    0.4538 H   0  0  0  0  0  0  0  0  0  0  0  0
    4.3481   -2.2245    1.3251 H   0  0  0  0  0  0  0  0  0  0  0  0
    4.5082    1.2704    1.9786 H   0  0  0  0  0  0  0  0  0  0  0  0
    3.7038   -0.1992    2.5614 H   0  0  0  0  0  0  0  0  0  0  0  0
   -3.5964    2.3577   -0.2638 H   0  0  0  0  0  0  0  0  0  0  0  0
   -3.6003    1.9178    1.4394 H   0  0  0  0  0  0  0  0  0  0  0  0
  1  2  1  0
  2  3  1  0
  3  4  1  0
  4  5  1  0
  4  6  1  0
  6  7  1  0
  7  8  1  0
  8  9  2  0
  9 10  1  0
 10 11  2  0
 11 12  1  0
 12 13  2  0
 12 14  1  0
 14 15  1  0
 15 16  1  0
 16 17  2  0
 17 18  1  0
 18 19  2  0
 19 20  1  0
 19 21  1  0
 21 22  2  0
 15 23  1  0
 23 24  1  0
 24 25  2  0
  7 26  1  0
 26  2  1  0
 13  8  1  0
 22 16  1  0
 24 11  1  0
  1 27  1  0
  1 28  1  0
  1 29  1  0
  2 30  1  0
  3 31  1  0
  3 32  1  0
  4 33  1  0
  5 34  1  0
  5 35  1  0
  5 36  1  0
  6 37  1  0
  6 38  1  0
 10 39  1  0
 14 40  1  0
 14 41  1  0
 15 42  1  0
 17 43  1  0
 18 44  1  0
 21 45  1  0
 22 46  1  0
 23 47  1  0
 23 48  1  0
 26 49  1  0
 26 50  1  0
M  END
$$$$
