
     RDKit          3D

 44 46  0  0  0  0  0  0  0  0999 V2000
    5.9622    0.9996    2.2955 C   0  0  0  0  0  0  0  0  0  0  0  0
    6.3621    0.1202    1.2527 O   0  0  0  0  0  0  0  0  0  0  0  0
    5.6226    0.3028    0.0461 C   0  0  0  0  0  0  0  0  0  0  0  0
    4.2633   -0.3852    0.1147 C   0  0  0  0  0  0  0  0  0  0  0  0
    3.5297   -0.2858   -1.2237 C   0  0  0  0  0  0  0  0  0  0  0  0
    2.1935   -0.8979   -1.1594 N   0  0  0  0  0  0  0  0  0  0  0  0
    1.9814   -2.2353   -1.4920 C   0  0  0  0  0  0  0  0  0  0  0  0
    3.1262   -3.3406   -2.0250 S   0  0  0  0  0  0  0  0  0  0  0  0
    0.7010   -2.7053   -1.3775 N   0  0  0  0  0  0  0  0  0  0  0  0
   -0.3765   -1.9377   -0.9466 C   0  0  0  0  0  0  0  0  0  0  0  0
   -1.6448   -2.4984   -0.8640 C   0  0  0  0  0  0  0  0  0  0  0  0
   -2.7172   -1.7127   -0.4258 C   0  0  0  0  0  0  0  0  0  0  0  0
   -2.5560   -0.3605   -0.0698 C   0  0  0  0  0  0  0  0  0  0  0  0
   -3.6661    0.3711    0.3783 N   0  0  0  0  0  0  0  0  0  0  0  0
   -3.4235    1.6693    1.0495 C   0  0  0  0  0  0  0  0  0  0  0  0
   -4.7326    2.1983    1.6563 C   0  0  0  0  0  0  0  0  0  0  0  0
   -5.7546    2.3349    0.6559 O   0  0  0  0  0  0  0  0  0  0  0  0
   -6.0237    1.0596    0.0533 C   0  0  0  0  0  0  0  0  0  0  0  0
   -4.7696    0.4673   -0.6115 C   0  0  0  0  0  0  0  0  0  0  0  0
   -1.2602    0.1688   -0.1494 C   0  0  0  0  0  0  0  0  0  0  0  0
   -0.1827   -0.6148   -0.5903 C   0  0  0  0  0  0  0  0  0  0  0  0
    1.1774   -0.0540   -0.6798 C   0  0  0  0  0  0  0  0  0  0  0  0
    1.3634    1.1100   -0.3271 O   0  0  0  0  0  0  0  0  0  0  0  0
    6.6218    0.8346    3.1519 H   0  0  0  0  0  0  0  0  0  0  0  0
    6.0601    2.0426    1.9794 H   0  0  0  0  0  0  0  0  0  0  0  0
    4.9358    0.7946    2.6104 H   0  0  0  0  0  0  0  0  0  0  0  0
    6.2170   -0.1486   -0.7560 H   0  0  0  0  0  0  0  0  0  0  0  0
    5.5247    1.3703   -0.1843 H   0  0  0  0  0  0  0  0  0  0  0  0
    3.6554    0.0625    0.9089 H   0  0  0  0  0  0  0  0  0  0  0  0
    4.3973   -1.4335    0.4072 H   0  0  0  0  0  0  0  0  0  0  0  0
    3.4236    0.7694   -1.5053 H   0  0  0  0  0  0  0  0  0  0  0  0
    4.1238   -0.7479   -2.0180 H   0  0  0  0  0  0  0  0  0  0  0  0
    0.5555   -3.6778   -1.6258 H   0  0  0  0  0  0  0  0  0  0  0  0
   -1.8196   -3.5386   -1.1229 H   0  0  0  0  0  0  0  0  0  0  0  0
   -3.6946   -2.1818   -0.3329 H   0  0  0  0  0  0  0  0  0  0  0  0
   -3.0513    2.3985    0.3188 H   0  0  0  0  0  0  0  0  0  0  0  0
   -2.6876    1.5576    1.8542 H   0  0  0  0  0  0  0  0  0  0  0  0
   -4.5653    3.1868    2.0956 H   0  0  0  0  0  0  0  0  0  0  0  0
   -5.0963    1.5355    2.4506 H   0  0  0  0  0  0  0  0  0  0  0  0
   -6.8060    1.2072   -0.6978 H   0  0  0  0  0  0  0  0  0  0  0  0
   -6.4193    0.3809    0.8185 H   0  0  0  0  0  0  0  0  0  0  0  0
   -5.0354   -0.5089   -1.0304 H   0  0  0  0  0  0  0  0  0  0  0  0
   -4.4519    1.1190   -1.4356 H   0  0  0  0  0  0  0  0  0  0  0  0
   -1.0625    1.2038    0.1143 H   0  0  0  0  0  0  0  0  0  0  0  0
  1  2  1  0
  2  3  1  0
  3  4  1  0
  4  5  1  0
  5  6  1  0
  6  7  1  0
  7  8  2  0
  7  9  1  0
  9 10  1  0
 10 11  2  0
 11 12  1  0
 12 13  2  0
 13 14  1  0
 14 15  1  0
 15 16  1  0
 16 17  1  0
 17 18  1  0
 18 19  1  0
 13 20  1  0
 20 21  2  0
 21 22  1  0
 22 23  2  0
 22  6  1  0
 21 10  1  0
 19 14  1  0
  1 24  1  0
  1 25  1  0
  1 26  1  0
  3 27  1  0
  3 28  1  0
  4 29  1  0
  4 30  1  0
  5 31  1  0
  5 32  1  0
  9 33  1  0
 11 34  1  0
 12 35  1  0
 15 36  1  0
 15 37  1  0
 16 38  1  0
 16 39  1  0
 18 40  1  0
 18 41  1  0
 19 42  1  0
 19 43  1  0
 20 44  1  0
M  END
$$$$
