
     RDKit          3D

 35 36  0  0  0  0  0  0  0  0999 V2000
   -5.9378   -0.2192   -0.3923 C   0  0  0  0  0  0  0  0  0  0  0  0
   -4.4524   -0.1747   -0.1911 C   0  0  0  0  0  0  0  0  0  0  0  0
   -3.8763   -0.7430    0.9479 C   0  0  0  0  0  0  0  0  0  0  0  0
   -2.4891   -0.7323    1.1205 C   0  0  0  0  0  0  0  0  0  0  0  0
   -1.6484   -0.1467    0.1588 C   0  0  0  0  0  0  0  0  0  0  0  0
   -0.2349   -0.1606    0.3786 N   0  0  0  0  0  0  0  0  0  0  0  0
    0.2665   -1.0100    1.3069 N   0  0  0  0  0  0  0  0  0  0  0  0
    1.5946   -0.9661    1.1676 C   0  0  0  0  0  0  0  0  0  0  0  0
    2.4031   -1.8818    2.0110 C   0  0  0  0  0  0  0  0  0  0  0  0
    1.9799    0.0121    0.2174 C   0  0  0  0  0  0  0  0  0  0  0  0
    3.2048    0.4533   -0.2606 N   0  0  0  0  0  0  0  0  0  0  0  0
    4.4632   -0.0120    0.0503 C   0  0  0  0  0  0  0  0  0  0  0  0
    4.7229   -0.9198    0.8365 O   0  0  0  0  0  0  0  0  0  0  0  0
    5.6089    0.7047   -0.6523 C   0  0  0  0  0  0  0  0  0  0  0  0
    5.0639    1.8802   -1.8740 Cl  0  0  0  0  0  0  0  0  0  0  0  0
    0.7859    0.5793   -0.2117 C   0  0  0  0  0  0  0  0  0  0  0  0
    0.5748    1.7742   -1.0744 C   0  0  0  0  0  0  0  0  0  0  0  0
   -2.2257    0.3862   -0.9984 C   0  0  0  0  0  0  0  0  0  0  0  0
   -3.6161    0.3722   -1.1692 C   0  0  0  0  0  0  0  0  0  0  0  0
   -6.2253   -1.1695   -0.8529 H   0  0  0  0  0  0  0  0  0  0  0  0
   -6.4628   -0.1134    0.5632 H   0  0  0  0  0  0  0  0  0  0  0  0
   -6.2715    0.6001   -1.0387 H   0  0  0  0  0  0  0  0  0  0  0  0
   -4.5008   -1.2014    1.7117 H   0  0  0  0  0  0  0  0  0  0  0  0
   -2.0766   -1.1798    2.0238 H   0  0  0  0  0  0  0  0  0  0  0  0
    1.7655   -2.4852    2.6676 H   0  0  0  0  0  0  0  0  0  0  0  0
    2.9723   -2.5806    1.3907 H   0  0  0  0  0  0  0  0  0  0  0  0
    3.0819   -1.3176    2.6574 H   0  0  0  0  0  0  0  0  0  0  0  0
    3.1716    1.1896   -0.9580 H   0  0  0  0  0  0  0  0  0  0  0  0
    6.2329   -0.0360   -1.1600 H   0  0  0  0  0  0  0  0  0  0  0  0
    6.2021    1.2421    0.0931 H   0  0  0  0  0  0  0  0  0  0  0  0
   -0.3013    2.3516   -0.7651 H   0  0  0  0  0  0  0  0  0  0  0  0
    0.4751    1.4819   -2.1239 H   0  0  0  0  0  0  0  0  0  0  0  0
    1.4239    2.4627   -1.0052 H   0  0  0  0  0  0  0  0  0  0  0  0
   -1.6333    0.7773   -1.8162 H   0  0  0  0  0  0  0  0  0  0  0  0
   -4.0415    0.7821   -2.0832 H   0  0  0  0  0  0  0  0  0  0  0  0
  1  2  1  0
  2  3  2  0
  3  4  1  0
  4  5  2  0
  5  6  1  0
  6  7  1  0
  7  8  2  0
  8  9  1  0
  8 10  1  0
 10 11  1  0
 11 12  1  0
 12 13  2  0
 12 14  1  0
 14 15  1  0
 10 16  2  0
 16 17  1  0
  5 18  1  0
 18 19  2  0
 19  2  1  0
 16  6  1  0
  1 20  1  0
  1 21  1  0
  1 22  1  0
  3 23  1  0
  4 24  1  0
  9 25  1  0
  9 26  1  0
  9 27  1  0
 11 28  1  0
 14 29  1  0
 14 30  1  0
 17 31  1  0
 17 32  1  0
 17 33  1  0
 18 34  1  0
 19 35  1  0
M  END
$$$$
