
     RDKit          3D

 66 72  0  0  0  0  0  0  0  0999 V2000
    0.9427    0.6137    1.7315 O   0  0  0  0  0  0  0  0  0  0  0  0
    1.1427    0.0547    0.6605 C   0  0  0  0  0  0  0  0  0  0  0  0
    2.3602   -0.4916    0.2220 N   0  0  0  0  0  0  0  0  0  0  0  0
    3.5810   -0.4272    0.9934 C   0  0  0  0  0  0  0  0  0  0  0  0
    4.4261    0.7814    0.6617 C   0  0  0  0  0  0  0  0  0  0  0  0
    4.0127    2.0666    1.0472 C   0  0  0  0  0  0  0  0  0  0  0  0
    4.7875    3.1857    0.7387 C   0  0  0  0  0  0  0  0  0  0  0  0
    5.9857    3.0340    0.0447 C   0  0  0  0  0  0  0  0  0  0  0  0
    6.4106    1.7636   -0.3398 C   0  0  0  0  0  0  0  0  0  0  0  0
    5.6367    0.6428   -0.0324 C   0  0  0  0  0  0  0  0  0  0  0  0
    2.2526   -0.9808   -1.0896 C   0  0  0  0  0  0  0  0  0  0  0  0
    3.2263   -1.5668   -1.8784 C   0  0  0  0  0  0  0  0  0  0  0  0
    2.8717   -1.9736   -3.1684 C   0  0  0  0  0  0  0  0  0  0  0  0
    1.5649   -1.7882   -3.6478 C   0  0  0  0  0  0  0  0  0  0  0  0
    0.5904   -1.1962   -2.8428 C   0  0  0  0  0  0  0  0  0  0  0  0
    0.9452   -0.8038   -1.5595 C   0  0  0  0  0  0  0  0  0  0  0  0
    0.1213   -0.1610   -0.4878 C   0  0  0  0  0  0  0  0  0  0  0  0
   -0.5572    1.1052   -0.8928 N   0  0  0  0  0  0  0  0  0  0  0  0
   -1.9653    1.1071   -0.3580 C   0  0  2  0  0  0  0  0  0  0  0  0
   -2.1603    1.9959    0.8880 C   0  0  0  0  0  0  0  0  0  0  0  0
   -1.8357    3.4536    0.6530 C   0  0  0  0  0  0  0  0  0  0  0  0
   -2.6726    4.2518   -0.1381 C   0  0  0  0  0  0  0  0  0  0  0  0
   -2.3583    5.5917   -0.3689 C   0  0  0  0  0  0  0  0  0  0  0  0
   -1.2078    6.1452    0.1898 C   0  0  0  0  0  0  0  0  0  0  0  0
   -0.3714    5.3614    0.9825 C   0  0  0  0  0  0  0  0  0  0  0  0
   -0.6838    4.0215    1.2157 C   0  0  0  0  0  0  0  0  0  0  0  0
   -2.1798   -0.3276   -0.0622 C   0  0  0  0  0  0  0  0  0  0  0  0
   -0.9935   -1.0547   -0.1264 C   0  0  0  0  0  0  0  0  0  0  0  0
   -1.2650   -2.3651    0.1781 C   0  0  0  0  0  0  0  0  0  0  0  0
   -0.4610   -3.4256    0.1897 O   0  0  0  0  0  0  0  0  0  0  0  0
   -2.6525   -2.4581    0.4117 N   0  0  0  0  0  0  0  0  0  0  0  0
   -3.3909   -3.6592    0.6592 C   0  0  0  0  0  0  0  0  0  0  0  0
   -4.7133   -3.7819    0.2037 C   0  0  0  0  0  0  0  0  0  0  0  0
   -5.4392   -4.9503    0.4503 C   0  0  0  0  0  0  0  0  0  0  0  0
   -4.8509   -6.0043    1.1455 C   0  0  0  0  0  0  0  0  0  0  0  0
   -3.5336   -5.8968    1.5860 C   0  0  0  0  0  0  0  0  0  0  0  0
   -2.8023   -4.7315    1.3411 C   0  0  0  0  0  0  0  0  0  0  0  0
   -3.1928   -1.1580    0.3275 C   0  0  0  0  0  0  0  0  0  0  0  0
   -4.4453   -0.8275    0.6426 O   0  0  0  0  0  0  0  0  0  0  0  0
    3.3253   -0.3877    2.0603 H   0  0  0  0  0  0  0  0  0  0  0  0
    4.1458   -1.3565    0.8512 H   0  0  0  0  0  0  0  0  0  0  0  0
    3.0818    2.2039    1.5947 H   0  0  0  0  0  0  0  0  0  0  0  0
    4.4541    4.1757    1.0391 H   0  0  0  0  0  0  0  0  0  0  0  0
    6.5873    3.9061   -0.1954 H   0  0  0  0  0  0  0  0  0  0  0  0
    7.3458    1.6461   -0.8812 H   0  0  0  0  0  0  0  0  0  0  0  0
    5.9894   -0.3379   -0.3415 H   0  0  0  0  0  0  0  0  0  0  0  0
    4.2412   -1.7134   -1.5296 H   0  0  0  0  0  0  0  0  0  0  0  0
    3.6174   -2.4328   -3.8144 H   0  0  0  0  0  0  0  0  0  0  0  0
    1.3113   -2.1035   -4.6579 H   0  0  0  0  0  0  0  0  0  0  0  0
   -0.4204   -1.0427   -3.2106 H   0  0  0  0  0  0  0  0  0  0  0  0
   -0.0471    1.8991   -0.5105 H   0  0  0  0  0  0  0  0  0  0  0  0
   -2.6282    1.4330   -1.1677 H   0  0  0  0  0  0  0  0  0  0  0  0
   -1.5624    1.6173    1.7275 H   0  0  0  0  0  0  0  0  0  0  0  0
   -3.2026    1.9280    1.2284 H   0  0  0  0  0  0  0  0  0  0  0  0
   -3.5748    3.8351   -0.5803 H   0  0  0  0  0  0  0  0  0  0  0  0
   -3.0117    6.2036   -0.9852 H   0  0  0  0  0  0  0  0  0  0  0  0
   -0.9644    7.1887    0.0087 H   0  0  0  0  0  0  0  0  0  0  0  0
    0.5239    5.7941    1.4200 H   0  0  0  0  0  0  0  0  0  0  0  0
   -0.0220    3.4212    1.8378 H   0  0  0  0  0  0  0  0  0  0  0  0
    0.4050   -3.1516   -0.1628 H   0  0  0  0  0  0  0  0  0  0  0  0
   -5.1837   -3.0032   -0.3941 H   0  0  0  0  0  0  0  0  0  0  0  0
   -6.4591   -5.0431    0.0855 H   0  0  0  0  0  0  0  0  0  0  0  0
   -5.4141   -6.9142    1.3350 H   0  0  0  0  0  0  0  0  0  0  0  0
   -3.0710   -6.7216    2.1214 H   0  0  0  0  0  0  0  0  0  0  0  0
   -1.7855   -4.6746    1.7202 H   0  0  0  0  0  0  0  0  0  0  0  0
   -4.8070   -1.5153    1.2304 H   0  0  0  0  0  0  0  0  0  0  0  0
  1  2  2  0
  2  3  1  0
  3  4  1  0
  4  5  1  0
  5  6  2  0
  6  7  1  0
  7  8  2  0
  8  9  1  0
  9 10  2  0
  3 11  1  0
 11 12  2  0
 12 13  1  0
 13 14  2  0
 14 15  1  0
 15 16  2  0
 16 17  1  0
 17 18  1  0
 18 19  1  0
 19 20  1  0
 20 21  1  0
 21 22  2  0
 22 23  1  0
 23 24  2  0
 24 25  1  0
 25 26  2  0
 19 27  1  0
 27 28  1  0
 28 29  2  0
 29 30  1  0
 29 31  1  0
 31 32  1  0
 32 33  2  0
 33 34  1  0
 34 35  2  0
 35 36  1  0
 36 37  2  0
 31 38  1  0
 38 39  1  0
 17  2  1  0
 26 21  1  0
 38 27  2  0
 10  5  1  0
 16 11  1  0
 28 17  1  0
 37 32  1  0
  4 40  1  0
  4 41  1  0
  6 42  1  0
  7 43  1  0
  8 44  1  0
  9 45  1  0
 10 46  1  0
 12 47  1  0
 13 48  1  0
 14 49  1  0
 15 50  1  0
 18 51  1  0
 19 52  1  6
 20 53  1  0
 20 54  1  0
 22 55  1  0
 23 56  1  0
 24 57  1  0
 25 58  1  0
 26 59  1  0
 30 60  1  0
 33 61  1  0
 34 62  1  0
 35 63  1  0
 36 64  1  0
 37 65  1  0
 39 66  1  0
M  END
$$$$
