
     RDKit          3D

 45 48  0  0  0  0  0  0  0  0999 V2000
   -4.2674    2.1676   -2.2725 C   0  0  0  0  0  0  0  0  0  0  0  0
   -3.4534    0.9871   -1.7402 C   0  0  0  0  0  0  0  0  0  0  0  0
   -3.8309   -0.2885   -2.4954 C   0  0  0  0  0  0  0  0  0  0  0  0
   -3.6702    0.8436   -0.2233 C   0  0  0  0  0  0  0  0  0  0  0  0
   -2.7839   -0.1500    0.3833 N   0  0  0  0  0  0  0  0  0  0  0  0
   -1.4735    0.2325    0.5356 N   0  0  0  0  0  0  0  0  0  0  0  0
   -0.6295   -0.6006    1.0717 C   0  0  0  0  0  0  0  0  0  0  0  0
    0.8015   -0.0807    1.1986 C   0  0  0  0  0  0  0  0  0  0  0  0
    1.4336   -0.3077    2.2159 O   0  0  0  0  0  0  0  0  0  0  0  0
    1.1737    0.6241    0.0831 N   0  0  0  0  0  0  0  0  0  0  0  0
    2.3802    1.2277   -0.1477 C   0  0  0  0  0  0  0  0  0  0  0  0
    2.6137    1.9442   -1.2257 N   0  0  0  0  0  0  0  0  0  0  0  0
    3.9011    2.4471   -1.2468 N   0  0  0  0  0  0  0  0  0  0  0  0
    4.5791    2.0730   -0.1851 C   0  0  0  0  0  0  0  0  0  0  0  0
    6.0573    2.5073    0.0550 C   0  0  0  0  0  0  0  0  0  0  0  0
    7.1565    1.4811   -0.0559 C   0  0  0  0  0  0  0  0  0  0  0  0
    7.0130    2.5388   -1.1107 C   0  0  0  0  0  0  0  0  0  0  0  0
    3.7084    1.0972    0.9136 S   0  0  0  0  0  0  0  0  0  0  0  0
   -0.9859   -1.9633    1.5006 C   0  0  0  0  0  0  0  0  0  0  0  0
   -0.0650   -2.8807    2.0224 C   0  0  0  0  0  0  0  0  0  0  0  0
   -0.4854   -4.1600    2.3983 C   0  0  0  0  0  0  0  0  0  0  0  0
   -1.8196   -4.5320    2.2499 C   0  0  0  0  0  0  0  0  0  0  0  0
   -2.7365   -3.6254    1.7205 C   0  0  0  0  0  0  0  0  0  0  0  0
   -2.3161   -2.3420    1.3435 C   0  0  0  0  0  0  0  0  0  0  0  0
   -3.2846   -1.3946    0.7591 C   0  0  0  0  0  0  0  0  0  0  0  0
   -4.4551   -1.7397    0.6199 O   0  0  0  0  0  0  0  0  0  0  0  0
   -4.0999    2.3035   -3.3463 H   0  0  0  0  0  0  0  0  0  0  0  0
   -3.9786    3.0970   -1.7704 H   0  0  0  0  0  0  0  0  0  0  0  0
   -5.3403    2.0149   -2.1134 H   0  0  0  0  0  0  0  0  0  0  0  0
   -2.3931    1.1938   -1.9338 H   0  0  0  0  0  0  0  0  0  0  0  0
   -3.7071   -0.1509   -3.5750 H   0  0  0  0  0  0  0  0  0  0  0  0
   -3.1941   -1.1278   -2.1985 H   0  0  0  0  0  0  0  0  0  0  0  0
   -4.8733   -0.5678   -2.3080 H   0  0  0  0  0  0  0  0  0  0  0  0
   -3.4700    1.7987    0.2783 H   0  0  0  0  0  0  0  0  0  0  0  0
   -4.7153    0.5885   -0.0126 H   0  0  0  0  0  0  0  0  0  0  0  0
    0.4633    0.8068   -0.6174 H   0  0  0  0  0  0  0  0  0  0  0  0
    6.1705    3.2857    0.8020 H   0  0  0  0  0  0  0  0  0  0  0  0
    6.8987    0.4633   -0.3262 H   0  0  0  0  0  0  0  0  0  0  0  0
    7.9910    1.5583    0.6315 H   0  0  0  0  0  0  0  0  0  0  0  0
    6.6473    2.2404   -2.0874 H   0  0  0  0  0  0  0  0  0  0  0  0
    7.7464    3.3363   -1.1399 H   0  0  0  0  0  0  0  0  0  0  0  0
    0.9847   -2.6318    2.1545 H   0  0  0  0  0  0  0  0  0  0  0  0
    0.2321   -4.8671    2.8103 H   0  0  0  0  0  0  0  0  0  0  0  0
   -2.1459   -5.5272    2.5435 H   0  0  0  0  0  0  0  0  0  0  0  0
   -3.7773   -3.9208    1.5991 H   0  0  0  0  0  0  0  0  0  0  0  0
  1  2  1  0
  2  3  1  0
  2  4  1  0
  4  5  1  0
  5  6  1  0
  6  7  2  0
  7  8  1  0
  8  9  2  0
  8 10  1  0
 10 11  1  0
 11 12  2  0
 12 13  1  0
 13 14  2  0
 14 15  1  0
 15 16  1  0
 16 17  1  0
 14 18  1  0
  7 19  1  0
 19 20  2  0
 20 21  1  0
 21 22  2  0
 22 23  1  0
 23 24  2  0
 24 25  1  0
 25 26  2  0
 25  5  1  0
 18 11  1  0
 24 19  1  0
 17 15  1  0
  1 27  1  0
  1 28  1  0
  1 29  1  0
  2 30  1  0
  3 31  1  0
  3 32  1  0
  3 33  1  0
  4 34  1  0
  4 35  1  0
 10 36  1  0
 15 37  1  0
 16 38  1  0
 16 39  1  0
 17 40  1  0
 17 41  1  0
 20 42  1  0
 21 43  1  0
 22 44  1  0
 23 45  1  0
M  END
$$$$
