
     RDKit          3D

 47 49  0  0  0  0  0  0  0  0999 V2000
    6.9372   -0.3993   -4.1803 C   0  0  0  0  0  0  0  0  0  0  0  0
    5.6274   -0.5733   -3.6539 O   0  0  0  0  0  0  0  0  0  0  0  0
    5.2150    0.3309   -2.7132 C   0  0  0  0  0  0  0  0  0  0  0  0
    5.9737    1.3775   -2.1945 C   0  0  0  0  0  0  0  0  0  0  0  0
    5.4256    2.2172   -1.2235 C   0  0  0  0  0  0  0  0  0  0  0  0
    4.1162    2.0227   -0.7749 C   0  0  0  0  0  0  0  0  0  0  0  0
    3.3350    0.9975   -1.3051 C   0  0  0  0  0  0  0  0  0  0  0  0
    2.0185    0.7078   -0.8851 N   0  0  0  0  0  0  0  0  0  0  0  0
    1.0481    1.5011   -0.2852 C   0  0  0  0  0  0  0  0  0  0  0  0
    0.9964    3.1810   -0.3545 S   0  0  0  0  0  0  0  0  0  0  0  0
    0.0417    0.7137    0.3239 N   0  0  0  0  0  0  0  0  0  0  0  0
    0.3751   -0.5478    1.0004 C   0  0  0  0  0  0  0  0  0  0  0  0
   -0.7022   -1.5997    0.7532 C   0  0  0  0  0  0  0  0  0  0  0  0
   -2.0756   -1.0705    1.0767 C   0  0  0  0  0  0  0  0  0  0  0  0
   -3.1261   -1.9634    1.3390 C   0  0  0  0  0  0  0  0  0  0  0  0
   -4.4137   -1.4922    1.6184 C   0  0  0  0  0  0  0  0  0  0  0  0
   -5.4924   -2.2967    1.8926 O   0  0  0  0  0  0  0  0  0  0  0  0
   -5.2896   -3.7018    1.8795 C   0  0  0  0  0  0  0  0  0  0  0  0
   -4.6586   -0.1058    1.6274 C   0  0  0  0  0  0  0  0  0  0  0  0
   -5.9458    0.2773    1.9145 O   0  0  0  0  0  0  0  0  0  0  0  0
   -6.2409    1.6662    1.9015 C   0  0  0  0  0  0  0  0  0  0  0  0
   -3.6119    0.7819    1.3523 C   0  0  0  0  0  0  0  0  0  0  0  0
   -2.3192    0.3111    1.0656 C   0  0  0  0  0  0  0  0  0  0  0  0
   -1.2204    1.3148    0.7818 C   0  0  0  0  0  0  0  0  0  0  0  0
    3.9049    0.1427   -2.2581 C   0  0  0  0  0  0  0  0  0  0  0  0
    7.1040   -1.1821   -4.9266 H   0  0  0  0  0  0  0  0  0  0  0  0
    7.0357    0.5678   -4.6845 H   0  0  0  0  0  0  0  0  0  0  0  0
    7.6949   -0.5178   -3.3987 H   0  0  0  0  0  0  0  0  0  0  0  0
    6.9935    1.5628   -2.5139 H   0  0  0  0  0  0  0  0  0  0  0  0
    6.0220    3.0243   -0.8049 H   0  0  0  0  0  0  0  0  0  0  0  0
    3.7483    2.6701    0.0138 H   0  0  0  0  0  0  0  0  0  0  0  0
    1.6341   -0.1517   -1.2567 H   0  0  0  0  0  0  0  0  0  0  0  0
    0.4580   -0.3220    2.0719 H   0  0  0  0  0  0  0  0  0  0  0  0
    1.3492   -0.9402    0.6965 H   0  0  0  0  0  0  0  0  0  0  0  0
   -0.6908   -1.9012   -0.3014 H   0  0  0  0  0  0  0  0  0  0  0  0
   -0.4834   -2.4839    1.3628 H   0  0  0  0  0  0  0  0  0  0  0  0
   -2.9117   -3.0270    1.3202 H   0  0  0  0  0  0  0  0  0  0  0  0
   -4.5721   -4.0048    2.6491 H   0  0  0  0  0  0  0  0  0  0  0  0
   -4.9779   -4.0472    0.8883 H   0  0  0  0  0  0  0  0  0  0  0  0
   -6.2461   -4.1801    2.1114 H   0  0  0  0  0  0  0  0  0  0  0  0
   -5.6714    2.1980    2.6707 H   0  0  0  0  0  0  0  0  0  0  0  0
   -7.3035    1.7845    2.1347 H   0  0  0  0  0  0  0  0  0  0  0  0
   -6.0688    2.0982    0.9102 H   0  0  0  0  0  0  0  0  0  0  0  0
   -3.7758    1.8553    1.3515 H   0  0  0  0  0  0  0  0  0  0  0  0
   -1.5788    2.0099    0.0145 H   0  0  0  0  0  0  0  0  0  0  0  0
   -1.0072    1.8734    1.7016 H   0  0  0  0  0  0  0  0  0  0  0  0
    3.3289   -0.6789   -2.6763 H   0  0  0  0  0  0  0  0  0  0  0  0
  1  2  1  0
  2  3  1  0
  3  4  2  0
  4  5  1  0
  5  6  2  0
  6  7  1  0
  7  8  1  0
  8  9  1  0
  9 10  2  0
  9 11  1  0
 11 12  1  0
 12 13  1  0
 13 14  1  0
 14 15  2  0
 15 16  1  0
 16 17  1  0
 17 18  1  0
 16 19  2  0
 19 20  1  0
 20 21  1  0
 19 22  1  0
 22 23  2  0
 23 24  1  0
  7 25  2  0
 25  3  1  0
 24 11  1  0
 23 14  1  0
  1 26  1  0
  1 27  1  0
  1 28  1  0
  4 29  1  0
  5 30  1  0
  6 31  1  0
  8 32  1  0
 12 33  1  0
 12 34  1  0
 13 35  1  0
 13 36  1  0
 15 37  1  0
 18 38  1  0
 18 39  1  0
 18 40  1  0
 21 41  1  0
 21 42  1  0
 21 43  1  0
 22 44  1  0
 24 45  1  0
 24 46  1  0
 25 47  1  0
M  END
$$$$
