
     RDKit          3D

 46 48  0  0  0  0  0  0  0  0999 V2000
   -4.7346    1.8803    2.7604 C   0  0  0  0  0  0  0  0  0  0  0  0
   -4.5855    2.3696    1.4275 O   0  0  0  0  0  0  0  0  0  0  0  0
   -3.7566    1.5455    0.7054 C   0  0  0  0  0  0  0  0  0  0  0  0
   -2.4678    2.0190    0.4512 C   0  0  0  0  0  0  0  0  0  0  0  0
   -1.5737    1.2533   -0.3033 C   0  0  0  0  0  0  0  0  0  0  0  0
   -1.9821   -0.0025   -0.7970 C   0  0  0  0  0  0  0  0  0  0  0  0
   -3.2958   -0.4501   -0.5614 C   0  0  0  0  0  0  0  0  0  0  0  0
   -4.1946    0.3197    0.1835 C   0  0  0  0  0  0  0  0  0  0  0  0
   -5.4955   -0.0237    0.4422 O   0  0  0  0  0  0  0  0  0  0  0  0
   -5.9698   -1.2517   -0.0923 C   0  0  0  0  0  0  0  0  0  0  0  0
   -1.0482   -0.8440   -1.6457 C   0  0  0  0  0  0  0  0  0  0  0  0
    0.3591   -0.4580   -1.4584 N   0  0  0  0  0  0  0  0  0  0  0  0
    1.2619   -1.2266   -0.6872 C   0  0  0  0  0  0  0  0  0  0  0  0
    0.8619   -2.6689    0.0823 S   0  0  0  0  0  0  0  0  0  0  0  0
    2.5486   -0.6993   -0.7184 N   0  0  0  0  0  0  0  0  0  0  0  0
    3.6167   -0.8345    0.2047 C   0  0  0  0  0  0  0  0  0  0  0  0
    3.3625   -1.0212    1.5712 C   0  0  0  0  0  0  0  0  0  0  0  0
    4.4035   -1.0928    2.4944 C   0  0  0  0  0  0  0  0  0  0  0  0
    5.7154   -0.9479    2.0644 C   0  0  0  0  0  0  0  0  0  0  0  0
    5.9896   -0.7295    0.7118 C   0  0  0  0  0  0  0  0  0  0  0  0
    7.6547   -0.5177    0.2871 Cl  0  0  0  0  0  0  0  0  0  0  0  0
    4.9516   -0.6760   -0.2429 C   0  0  0  0  0  0  0  0  0  0  0  0
    5.2446   -0.4378   -1.7028 C   0  0  0  0  0  0  0  0  0  0  0  0
    0.5466    0.9892   -1.6470 C   0  0  0  0  0  0  0  0  0  0  0  0
   -0.1637    1.7522   -0.5251 C   0  0  0  0  0  0  0  0  0  0  0  0
   -3.7614    1.7200    3.2385 H   0  0  0  0  0  0  0  0  0  0  0  0
   -5.2684    2.6426    3.3361 H   0  0  0  0  0  0  0  0  0  0  0  0
   -5.3297    0.9624    2.7898 H   0  0  0  0  0  0  0  0  0  0  0  0
   -2.1688    2.9847    0.8509 H   0  0  0  0  0  0  0  0  0  0  0  0
   -3.5917   -1.4082   -0.9761 H   0  0  0  0  0  0  0  0  0  0  0  0
   -7.0166   -1.3633    0.2053 H   0  0  0  0  0  0  0  0  0  0  0  0
   -5.4169   -2.1019    0.3186 H   0  0  0  0  0  0  0  0  0  0  0  0
   -5.9348   -1.2466   -1.1867 H   0  0  0  0  0  0  0  0  0  0  0  0
   -1.2895   -0.6663   -2.7018 H   0  0  0  0  0  0  0  0  0  0  0  0
   -1.2105   -1.9077   -1.4584 H   0  0  0  0  0  0  0  0  0  0  0  0
    2.7999   -0.3764   -1.6420 H   0  0  0  0  0  0  0  0  0  0  0  0
    2.3463   -1.0799    1.9510 H   0  0  0  0  0  0  0  0  0  0  0  0
    4.1851   -1.2459    3.5479 H   0  0  0  0  0  0  0  0  0  0  0  0
    6.5240   -0.9939    2.7902 H   0  0  0  0  0  0  0  0  0  0  0  0
    6.2982   -0.5643   -1.9640 H   0  0  0  0  0  0  0  0  0  0  0  0
    4.6998   -1.1574   -2.3247 H   0  0  0  0  0  0  0  0  0  0  0  0
    4.9478    0.5794   -1.9804 H   0  0  0  0  0  0  0  0  0  0  0  0
    1.5998    1.2780   -1.6708 H   0  0  0  0  0  0  0  0  0  0  0  0
    0.1226    1.2538   -2.6240 H   0  0  0  0  0  0  0  0  0  0  0  0
   -0.1751    2.8207   -0.7697 H   0  0  0  0  0  0  0  0  0  0  0  0
    0.3911    1.6240    0.4128 H   0  0  0  0  0  0  0  0  0  0  0  0
  1  2  1  0
  2  3  1  0
  3  4  2  0
  4  5  1  0
  5  6  2  0
  6  7  1  0
  7  8  2  0
  8  9  1  0
  9 10  1  0
  6 11  1  0
 11 12  1  0
 12 13  1  0
 13 14  2  0
 13 15  1  0
 15 16  1  0
 16 17  2  0
 17 18  1  0
 18 19  2  0
 19 20  1  0
 20 21  1  0
 20 22  2  0
 22 23  1  0
 12 24  1  0
 24 25  1  0
  8  3  1  0
 22 16  1  0
 25  5  1  0
  1 26  1  0
  1 27  1  0
  1 28  1  0
  4 29  1  0
  7 30  1  0
 10 31  1  0
 10 32  1  0
 10 33  1  0
 11 34  1  0
 11 35  1  0
 15 36  1  0
 17 37  1  0
 18 38  1  0
 19 39  1  0
 23 40  1  0
 23 41  1  0
 23 42  1  0
 24 43  1  0
 24 44  1  0
 25 45  1  0
 25 46  1  0
M  END
$$$$
