
     RDKit          3D

 59 63  0  0  0  0  0  0  0  0999 V2000
   -5.3293   -2.6178    1.5558 C   0  0  0  0  0  0  0  0  0  0  0  0
   -4.7637   -1.5765    0.7727 O   0  0  0  0  0  0  0  0  0  0  0  0
   -4.2557   -1.9110   -0.4578 C   0  0  0  0  0  0  0  0  0  0  0  0
   -4.1722   -3.2192   -0.9494 C   0  0  0  0  0  0  0  0  0  0  0  0
   -3.6241   -3.4707   -2.2109 C   0  0  0  0  0  0  0  0  0  0  0  0
   -3.1520   -2.4209   -2.9929 C   0  0  0  0  0  0  0  0  0  0  0  0
   -3.2279   -1.1141   -2.5150 C   0  0  0  0  0  0  0  0  0  0  0  0
   -3.7800   -0.8466   -1.2514 C   0  0  0  0  0  0  0  0  0  0  0  0
   -3.8290    0.5459   -0.7866 C   0  0  0  0  0  0  0  0  0  0  0  0
   -5.2592    1.4413   -1.0577 S   0  0  0  0  0  0  0  0  0  0  0  0
   -4.6129    2.8589   -0.3320 C   0  0  0  0  0  0  0  0  0  0  0  0
   -5.2635    4.0996   -0.1774 C   0  0  0  0  0  0  0  0  0  0  0  0
   -4.5837    5.1505    0.4414 C   0  0  0  0  0  0  0  0  0  0  0  0
   -3.2864    4.9761    0.8993 C   0  0  0  0  0  0  0  0  0  0  0  0
   -2.6450    3.7438    0.7434 C   0  0  0  0  0  0  0  0  0  0  0  0
   -3.3055    2.6551    0.1156 C   0  0  0  0  0  0  0  0  0  0  0  0
   -2.8587    1.3071   -0.1567 C   0  0  0  0  0  0  0  0  0  0  0  0
   -1.5447    0.7606    0.1601 C   0  0  0  0  0  0  0  0  0  0  0  0
   -0.4244    1.1631   -0.5741 C   0  0  0  0  0  0  0  0  0  0  0  0
    0.8413    0.6468   -0.2732 C   0  0  0  0  0  0  0  0  0  0  0  0
    0.9943   -0.2733    0.7651 C   0  0  0  0  0  0  0  0  0  0  0  0
    2.1681   -0.8531    1.1605 O   0  0  0  0  0  0  0  0  0  0  0  0
    3.3414   -0.5264    0.4098 C   0  0  0  0  0  0  0  0  0  0  0  0
    4.5216   -1.3161    1.0048 C   0  0  0  0  0  0  0  0  0  0  0  0
    5.8319   -1.1717    0.3599 N   0  0  0  0  0  0  0  0  0  0  0  0
    5.8783   -1.6128   -1.0444 C   0  0  0  0  0  0  0  0  0  0  0  0
    6.0315   -0.4545   -2.0441 C   0  0  0  0  0  0  0  0  0  0  0  0
    7.1889    0.3580   -1.8075 O   0  0  0  0  0  0  0  0  0  0  0  0
    7.6049    0.3692   -0.4342 C   0  0  0  0  0  0  0  0  0  0  0  0
    6.4367    0.1581    0.5408 C   0  0  0  0  0  0  0  0  0  0  0  0
   -0.1263   -0.6676    1.5010 C   0  0  0  0  0  0  0  0  0  0  0  0
   -1.3909   -0.1545    1.2041 C   0  0  0  0  0  0  0  0  0  0  0  0
   -6.1650   -3.0970    1.0353 H   0  0  0  0  0  0  0  0  0  0  0  0
   -4.5686   -3.3503    1.8446 H   0  0  0  0  0  0  0  0  0  0  0  0
   -5.7229   -2.1695    2.4732 H   0  0  0  0  0  0  0  0  0  0  0  0
   -4.5202   -4.0697   -0.3732 H   0  0  0  0  0  0  0  0  0  0  0  0
   -3.5637   -4.4913   -2.5808 H   0  0  0  0  0  0  0  0  0  0  0  0
   -2.7238   -2.6181   -3.9720 H   0  0  0  0  0  0  0  0  0  0  0  0
   -2.8545   -0.2983   -3.1300 H   0  0  0  0  0  0  0  0  0  0  0  0
   -6.2810    4.2368   -0.5325 H   0  0  0  0  0  0  0  0  0  0  0  0
   -5.0788    6.1106    0.5664 H   0  0  0  0  0  0  0  0  0  0  0  0
   -2.7648    5.7975    1.3842 H   0  0  0  0  0  0  0  0  0  0  0  0
   -1.6299    3.6191    1.1133 H   0  0  0  0  0  0  0  0  0  0  0  0
   -0.5309    1.8779   -1.3870 H   0  0  0  0  0  0  0  0  0  0  0  0
    1.6817    0.9860   -0.8689 H   0  0  0  0  0  0  0  0  0  0  0  0
    3.1956   -0.8094   -0.6387 H   0  0  0  0  0  0  0  0  0  0  0  0
    3.5341    0.5490    0.4857 H   0  0  0  0  0  0  0  0  0  0  0  0
    4.2550   -2.3817    1.0149 H   0  0  0  0  0  0  0  0  0  0  0  0
    4.6160   -1.0589    2.0685 H   0  0  0  0  0  0  0  0  0  0  0  0
    5.0126   -2.2304   -1.3097 H   0  0  0  0  0  0  0  0  0  0  0  0
    6.7570   -2.2629   -1.1417 H   0  0  0  0  0  0  0  0  0  0  0  0
    6.1108   -0.8471   -3.0630 H   0  0  0  0  0  0  0  0  0  0  0  0
    5.1513    0.1980   -2.0171 H   0  0  0  0  0  0  0  0  0  0  0  0
    8.0827    1.3360   -0.2456 H   0  0  0  0  0  0  0  0  0  0  0  0
    8.3714   -0.4035   -0.3015 H   0  0  0  0  0  0  0  0  0  0  0  0
    6.7963    0.2547    1.5709 H   0  0  0  0  0  0  0  0  0  0  0  0
    5.7026    0.9519    0.3632 H   0  0  0  0  0  0  0  0  0  0  0  0
   -0.0155   -1.3827    2.3123 H   0  0  0  0  0  0  0  0  0  0  0  0
   -2.2512   -0.4745    1.7876 H   0  0  0  0  0  0  0  0  0  0  0  0
  1  2  1  0
  2  3  1  0
  3  4  2  0
  4  5  1  0
  5  6  2  0
  6  7  1  0
  7  8  2  0
  8  9  1  0
  9 10  1  0
 10 11  1  0
 11 12  2  0
 12 13  1  0
 13 14  2  0
 14 15  1  0
 15 16  2  0
 16 17  1  0
 17 18  1  0
 18 19  2  0
 19 20  1  0
 20 21  2  0
 21 22  1  0
 22 23  1  0
 23 24  1  0
 24 25  1  0
 25 26  1  0
 26 27  1  0
 27 28  1  0
 28 29  1  0
 29 30  1  0
 21 31  1  0
 31 32  2  0
  8  3  1  0
 17  9  2  0
 32 18  1  0
 16 11  1  0
 30 25  1  0
  1 33  1  0
  1 34  1  0
  1 35  1  0
  4 36  1  0
  5 37  1  0
  6 38  1  0
  7 39  1  0
 12 40  1  0
 13 41  1  0
 14 42  1  0
 15 43  1  0
 19 44  1  0
 20 45  1  0
 23 46  1  0
 23 47  1  0
 24 48  1  0
 24 49  1  0
 26 50  1  0
 26 51  1  0
 27 52  1  0
 27 53  1  0
 29 54  1  0
 29 55  1  0
 30 56  1  0
 30 57  1  0
 31 58  1  0
 32 59  1  0
M  END
$$$$
