
     RDKit          3D

 55 58  0  0  0  0  0  0  0  0999 V2000
   -4.4278    1.8238   -2.0385 C   0  0  0  0  0  0  0  0  0  0  0  0
   -3.5278    0.6777   -1.5707 C   0  0  0  0  0  0  0  0  0  0  0  0
   -3.9033   -0.6492   -2.2308 C   0  0  0  0  0  0  0  0  0  0  0  0
   -3.4596    0.5751   -0.1155 N   0  0  0  0  0  0  0  0  0  0  0  0
   -2.3195    0.7537    0.6520 C   0  0  0  0  0  0  0  0  0  0  0  0
   -1.0868    0.9347    0.0989 N   0  0  0  0  0  0  0  0  0  0  0  0
   -0.1554    1.7384    0.9240 C   0  0  0  0  0  0  0  0  0  0  0  0
    1.2654    1.7171    0.3211 C   0  0  0  0  0  0  0  0  0  0  0  0
    1.8855    0.3709    0.2211 N   0  0  0  0  0  0  0  0  0  0  0  0
    2.8419    0.1492    1.3380 C   0  0  0  0  0  0  0  0  0  0  0  0
    3.7366   -1.0729    1.0895 C   0  0  0  0  0  0  0  0  0  0  0  0
    4.2169   -1.7333    2.0065 O   0  0  0  0  0  0  0  0  0  0  0  0
    4.0004   -1.3091   -0.2393 N   0  0  0  0  0  0  0  0  0  0  0  0
    4.9432   -2.2983   -0.6931 C   0  0  0  0  0  0  0  0  0  0  0  0
    6.2355   -1.6106   -0.9975 C   0  0  0  0  0  0  0  0  0  0  0  0
    7.2424   -1.2635   -0.1168 C   0  0  0  0  0  0  0  0  0  0  0  0
    8.3326   -0.6166   -0.7657 C   0  0  0  0  0  0  0  0  0  0  0  0
    8.1228   -0.4899   -2.1204 C   0  0  0  0  0  0  0  0  0  0  0  0
    6.6189   -1.1463   -2.6021 S   0  0  0  0  0  0  0  0  0  0  0  0
    0.8315   -0.6814    0.2329 C   0  0  0  0  0  0  0  0  0  0  0  0
   -0.4625   -0.2680   -0.5038 C   0  0  0  0  0  0  0  0  0  0  0  0
   -2.6095    0.7592    1.9321 N   0  0  0  0  0  0  0  0  0  0  0  0
   -3.9497    0.4998    2.0147 C   0  0  0  0  0  0  0  0  0  0  0  0
   -4.7534    0.3652    3.1574 C   0  0  0  0  0  0  0  0  0  0  0  0
   -6.1160    0.0936    2.9993 C   0  0  0  0  0  0  0  0  0  0  0  0
   -6.6683   -0.0394    1.7263 C   0  0  0  0  0  0  0  0  0  0  0  0
   -5.8821    0.0954    0.5752 C   0  0  0  0  0  0  0  0  0  0  0  0
   -4.5170    0.3659    0.7499 C   0  0  0  0  0  0  0  0  0  0  0  0
   -4.1494    2.7636   -1.5490 H   0  0  0  0  0  0  0  0  0  0  0  0
   -5.4841    1.6370   -1.8262 H   0  0  0  0  0  0  0  0  0  0  0  0
   -4.3316    1.9673   -3.1202 H   0  0  0  0  0  0  0  0  0  0  0  0
   -2.5213    0.9298   -1.9214 H   0  0  0  0  0  0  0  0  0  0  0  0
   -3.2451   -1.4566   -1.8924 H   0  0  0  0  0  0  0  0  0  0  0  0
   -4.9322   -0.9456   -2.0079 H   0  0  0  0  0  0  0  0  0  0  0  0
   -3.8103   -0.5748   -3.3197 H   0  0  0  0  0  0  0  0  0  0  0  0
   -0.1110    1.3656    1.9561 H   0  0  0  0  0  0  0  0  0  0  0  0
   -0.5124    2.7749    0.9577 H   0  0  0  0  0  0  0  0  0  0  0  0
    1.2085    2.1142   -0.7010 H   0  0  0  0  0  0  0  0  0  0  0  0
    1.9077    2.4153    0.8716 H   0  0  0  0  0  0  0  0  0  0  0  0
    3.5301    0.9998    1.4187 H   0  0  0  0  0  0  0  0  0  0  0  0
    2.3242    0.0328    2.2970 H   0  0  0  0  0  0  0  0  0  0  0  0
    3.6078   -0.6456   -0.8996 H   0  0  0  0  0  0  0  0  0  0  0  0
    5.0893   -3.0672    0.0729 H   0  0  0  0  0  0  0  0  0  0  0  0
    4.5171   -2.7792   -1.5796 H   0  0  0  0  0  0  0  0  0  0  0  0
    7.1904   -1.4639    0.9479 H   0  0  0  0  0  0  0  0  0  0  0  0
    9.2241   -0.2617   -0.2635 H   0  0  0  0  0  0  0  0  0  0  0  0
    8.7799   -0.0419   -2.8531 H   0  0  0  0  0  0  0  0  0  0  0  0
    0.5609   -0.9494    1.2634 H   0  0  0  0  0  0  0  0  0  0  0  0
    1.2254   -1.5867   -0.2424 H   0  0  0  0  0  0  0  0  0  0  0  0
   -0.2291   -0.0447   -1.5521 H   0  0  0  0  0  0  0  0  0  0  0  0
   -1.1516   -1.1220   -0.5068 H   0  0  0  0  0  0  0  0  0  0  0  0
   -4.3131    0.4704    4.1427 H   0  0  0  0  0  0  0  0  0  0  0  0
   -6.7467   -0.0136    3.8782 H   0  0  0  0  0  0  0  0  0  0  0  0
   -7.7310   -0.2500    1.6242 H   0  0  0  0  0  0  0  0  0  0  0  0
   -6.3312   -0.0090   -0.4054 H   0  0  0  0  0  0  0  0  0  0  0  0
  1  2  1  0
  2  3  1  0
  2  4  1  0
  4  5  1  0
  5  6  1  0
  6  7  1  0
  7  8  1  0
  8  9  1  0
  9 10  1  0
 10 11  1  0
 11 12  2  0
 11 13  1  0
 13 14  1  0
 14 15  1  0
 15 16  2  0
 16 17  1  0
 17 18  2  0
 18 19  1  0
  9 20  1  0
 20 21  1  0
  5 22  2  0
 22 23  1  0
 23 24  2  0
 24 25  1  0
 25 26  2  0
 26 27  1  0
 27 28  2  0
 28  4  1  0
 21  6  1  0
 28 23  1  0
 19 15  1  0
  1 29  1  0
  1 30  1  0
  1 31  1  0
  2 32  1  0
  3 33  1  0
  3 34  1  0
  3 35  1  0
  7 36  1  0
  7 37  1  0
  8 38  1  0
  8 39  1  0
 10 40  1  0
 10 41  1  0
 13 42  1  0
 14 43  1  0
 14 44  1  0
 16 45  1  0
 17 46  1  0
 18 47  1  0
 20 48  1  0
 20 49  1  0
 21 50  1  0
 21 51  1  0
 24 52  1  0
 25 53  1  0
 26 54  1  0
 27 55  1  0
M  END
$$$$
