
     RDKit          3D

 49 52  0  0  0  0  0  0  0  0999 V2000
   -8.0169    2.0327    0.6971 C   0  0  0  0  0  0  0  0  0  0  0  0
   -7.7294    0.9865   -0.2223 O   0  0  0  0  0  0  0  0  0  0  0  0
   -6.7258    0.1230    0.1209 C   0  0  0  0  0  0  0  0  0  0  0  0
   -5.9544    0.1795    1.2810 C   0  0  0  0  0  0  0  0  0  0  0  0
   -4.9542   -0.7725    1.5071 C   0  0  0  0  0  0  0  0  0  0  0  0
   -4.7141   -1.7958    0.5798 C   0  0  0  0  0  0  0  0  0  0  0  0
   -3.6151   -2.7978    0.8209 C   0  0  0  0  0  0  0  0  0  0  0  0
   -2.3336   -2.2511    0.4378 N   0  0  0  0  0  0  0  0  0  0  0  0
   -1.4731   -1.7011    1.3700 C   0  0  0  0  0  0  0  0  0  0  0  0
   -1.7131   -1.7669    2.5740 O   0  0  0  0  0  0  0  0  0  0  0  0
   -0.2985   -1.0447    0.8043 C   0  0  0  0  0  0  0  0  0  0  0  0
    0.2332   -1.0973   -0.4846 C   0  0  0  0  0  0  0  0  0  0  0  0
    1.3894   -0.2947   -0.5915 C   0  0  0  0  0  0  0  0  0  0  0  0
    1.6948    0.3201    0.5792 C   0  0  0  0  0  0  0  0  0  0  0  0
    0.6577   -0.0213    1.8364 S   0  0  0  0  0  0  0  0  0  0  0  0
    2.9072    1.1500    0.4782 C   0  0  0  0  0  0  0  0  0  0  0  0
    3.4535    0.7956   -0.8825 N   0  0  0  0  0  0  0  0  0  0  0  0
    4.6441   -0.0646   -0.7553 C   0  0  0  0  0  0  0  0  0  0  0  0
    5.8499    0.6649   -0.1975 C   0  0  0  0  0  0  0  0  0  0  0  0
    6.3044    1.8536   -0.7887 C   0  0  0  0  0  0  0  0  0  0  0  0
    7.4250    2.5148   -0.2841 C   0  0  0  0  0  0  0  0  0  0  0  0
    8.1074    1.9925    0.8127 C   0  0  0  0  0  0  0  0  0  0  0  0
    7.6709    0.8089    1.4049 C   0  0  0  0  0  0  0  0  0  0  0  0
    6.5498    0.1461    0.9016 C   0  0  0  0  0  0  0  0  0  0  0  0
    2.3743    0.0617   -1.6358 C   0  0  0  0  0  0  0  0  0  0  0  0
   -5.4865   -1.8430   -0.5865 C   0  0  0  0  0  0  0  0  0  0  0  0
   -6.4852   -0.8914   -0.8086 C   0  0  0  0  0  0  0  0  0  0  0  0
   -8.8381    2.6254    0.2826 H   0  0  0  0  0  0  0  0  0  0  0  0
   -7.1557    2.6977    0.8202 H   0  0  0  0  0  0  0  0  0  0  0  0
   -8.3491    1.6319    1.6605 H   0  0  0  0  0  0  0  0  0  0  0  0
   -6.0997    0.9503    2.0303 H   0  0  0  0  0  0  0  0  0  0  0  0
   -4.3551   -0.7095    2.4152 H   0  0  0  0  0  0  0  0  0  0  0  0
   -3.6131   -3.1163    1.8692 H   0  0  0  0  0  0  0  0  0  0  0  0
   -3.7778   -3.6942    0.2121 H   0  0  0  0  0  0  0  0  0  0  0  0
   -2.2215   -1.9933   -0.5301 H   0  0  0  0  0  0  0  0  0  0  0  0
   -0.1792   -1.6870   -1.2925 H   0  0  0  0  0  0  0  0  0  0  0  0
    3.6064    0.9617    1.2986 H   0  0  0  0  0  0  0  0  0  0  0  0
    2.6449    2.2136    0.4800 H   0  0  0  0  0  0  0  0  0  0  0  0
    4.9437   -0.4272   -1.7480 H   0  0  0  0  0  0  0  0  0  0  0  0
    4.4211   -0.9550   -0.1524 H   0  0  0  0  0  0  0  0  0  0  0  0
    5.7765    2.2709   -1.6439 H   0  0  0  0  0  0  0  0  0  0  0  0
    7.7638    3.4377   -0.7472 H   0  0  0  0  0  0  0  0  0  0  0  0
    8.9796    2.5080    1.2059 H   0  0  0  0  0  0  0  0  0  0  0  0
    8.2040    0.4012    2.2598 H   0  0  0  0  0  0  0  0  0  0  0  0
    6.2244   -0.7767    1.3765 H   0  0  0  0  0  0  0  0  0  0  0  0
    1.9246    0.7496   -2.3600 H   0  0  0  0  0  0  0  0  0  0  0  0
    2.7431   -0.8184   -2.1730 H   0  0  0  0  0  0  0  0  0  0  0  0
   -5.3218   -2.6188   -1.3302 H   0  0  0  0  0  0  0  0  0  0  0  0
   -7.0828   -0.9393   -1.7159 H   0  0  0  0  0  0  0  0  0  0  0  0
  1  2  1  0
  2  3  1  0
  3  4  2  0
  4  5  1  0
  5  6  2  0
  6  7  1  0
  7  8  1  0
  8  9  1  0
  9 10  2  0
  9 11  1  0
 11 12  2  0
 12 13  1  0
 13 14  2  0
 14 15  1  0
 14 16  1  0
 16 17  1  0
 17 18  1  0
 18 19  1  0
 19 20  2  0
 20 21  1  0
 21 22  2  0
 22 23  1  0
 23 24  2  0
 17 25  1  0
  6 26  1  0
 26 27  2  0
 27  3  1  0
 15 11  1  0
 24 19  1  0
 25 13  1  0
  1 28  1  0
  1 29  1  0
  1 30  1  0
  4 31  1  0
  5 32  1  0
  7 33  1  0
  7 34  1  0
  8 35  1  0
 12 36  1  0
 16 37  1  0
 16 38  1  0
 18 39  1  0
 18 40  1  0
 20 41  1  0
 21 42  1  0
 22 43  1  0
 23 44  1  0
 24 45  1  0
 25 46  1  0
 25 47  1  0
 26 48  1  0
 27 49  1  0
M  END
$$$$
