
     RDKit          3D

 39 40  0  0  0  0  0  0  0  0999 V2000
    7.2894    0.6915    0.4578 C   0  0  0  0  0  0  0  0  0  0  0  0
    5.9781    0.2075    0.1660 O   0  0  0  0  0  0  0  0  0  0  0  0
    4.9985    1.1210    0.3668 C   0  0  0  0  0  0  0  0  0  0  0  0
    5.1641    2.2689    0.7495 O   0  0  0  0  0  0  0  0  0  0  0  0
    3.7983    0.5613    0.0624 N   0  0  0  0  0  0  0  0  0  0  0  0
    2.5901    1.3395    0.0432 C   0  0  0  0  0  0  0  0  0  0  0  0
    1.3841    0.4567   -0.1404 C   0  0  0  0  0  0  0  0  0  0  0  0
    0.8244    0.2690   -1.4131 C   0  0  0  0  0  0  0  0  0  0  0  0
   -0.2760   -0.5727   -1.5856 C   0  0  0  0  0  0  0  0  0  0  0  0
   -0.8283   -1.2240   -0.4789 C   0  0  0  0  0  0  0  0  0  0  0  0
   -2.2122   -2.3246   -0.7019 S   0  0  0  0  0  6  0  0  0  0  0  0
   -2.1809   -3.2854    0.3804 O   0  0  0  0  0  0  0  0  0  0  0  0
   -2.2049   -2.7524   -2.0849 O   0  0  0  0  0  0  0  0  0  0  0  0
   -3.5543   -1.3233   -0.4717 N   0  0  0  0  0  0  0  0  0  0  0  0
   -3.8587   -0.2918   -1.5013 C   0  0  0  0  0  0  0  0  0  0  0  0
   -3.7994    1.1141   -0.8947 C   0  0  0  0  0  0  0  0  0  0  0  0
   -4.7162    1.3109    0.1909 O   0  0  0  0  0  0  0  0  0  0  0  0
   -5.0240    0.1061    0.9077 C   0  0  0  0  0  0  0  0  0  0  0  0
   -3.8638   -0.8945    0.9189 C   0  0  0  0  0  0  0  0  0  0  0  0
   -0.2574   -1.0773    0.7879 C   0  0  0  0  0  0  0  0  0  0  0  0
    0.8420   -0.2337    0.9548 C   0  0  0  0  0  0  0  0  0  0  0  0
    7.9991   -0.1191    0.2703 H   0  0  0  0  0  0  0  0  0  0  0  0
    7.5429    1.5315   -0.1966 H   0  0  0  0  0  0  0  0  0  0  0  0
    7.3664    0.9819    1.5104 H   0  0  0  0  0  0  0  0  0  0  0  0
    3.8264   -0.3550   -0.3617 H   0  0  0  0  0  0  0  0  0  0  0  0
    2.5107    1.9108    0.9760 H   0  0  0  0  0  0  0  0  0  0  0  0
    2.6662    2.0714   -0.7697 H   0  0  0  0  0  0  0  0  0  0  0  0
    1.2514    0.7703   -2.2802 H   0  0  0  0  0  0  0  0  0  0  0  0
   -0.6853   -0.7236   -2.5822 H   0  0  0  0  0  0  0  0  0  0  0  0
   -3.1776   -0.3552   -2.3540 H   0  0  0  0  0  0  0  0  0  0  0  0
   -4.8682   -0.4963   -1.8771 H   0  0  0  0  0  0  0  0  0  0  0  0
   -4.0305    1.8639   -1.6579 H   0  0  0  0  0  0  0  0  0  0  0  0
   -2.7921    1.3300   -0.5207 H   0  0  0  0  0  0  0  0  0  0  0  0
   -5.9160   -0.3385    0.4510 H   0  0  0  0  0  0  0  0  0  0  0  0
   -5.2872    0.3922    1.9309 H   0  0  0  0  0  0  0  0  0  0  0  0
   -2.9864   -0.4191    1.3672 H   0  0  0  0  0  0  0  0  0  0  0  0
   -4.1450   -1.7692    1.5135 H   0  0  0  0  0  0  0  0  0  0  0  0
   -0.6541   -1.6189    1.6441 H   0  0  0  0  0  0  0  0  0  0  0  0
    1.2862   -0.1242    1.9431 H   0  0  0  0  0  0  0  0  0  0  0  0
  1  2  1  0
  2  3  1  0
  3  4  2  0
  3  5  1  0
  5  6  1  0
  6  7  1  0
  7  8  2  0
  8  9  1  0
  9 10  2  0
 10 11  1  0
 11 12  2  0
 11 13  2  0
 11 14  1  0
 14 15  1  0
 15 16  1  0
 16 17  1  0
 17 18  1  0
 18 19  1  0
 10 20  1  0
 20 21  2  0
 21  7  1  0
 19 14  1  0
  1 22  1  0
  1 23  1  0
  1 24  1  0
  5 25  1  0
  6 26  1  0
  6 27  1  0
  8 28  1  0
  9 29  1  0
 15 30  1  0
 15 31  1  0
 16 32  1  0
 16 33  1  0
 18 34  1  0
 18 35  1  0
 19 36  1  0
 19 37  1  0
 20 38  1  0
 21 39  1  0
M  END
$$$$
