
     RDKit          3D

 49 52  0  0  0  0  0  0  0  0999 V2000
   -6.3838    3.1121    0.2852 C   0  0  0  0  0  0  0  0  0  0  0  0
   -5.9127    1.7130    0.0186 C   0  0  0  0  0  0  0  0  0  0  0  0
   -6.7854    0.7652   -0.5253 C   0  0  0  0  0  0  0  0  0  0  0  0
   -6.3456   -0.5353   -0.7960 C   0  0  0  0  0  0  0  0  0  0  0  0
   -7.2796   -1.5432   -1.3997 C   0  0  0  0  0  0  0  0  0  0  0  0
   -5.0055   -0.8746   -0.5526 C   0  0  0  0  0  0  0  0  0  0  0  0
   -4.1138    0.0624   -0.0282 C   0  0  0  0  0  0  0  0  0  0  0  0
   -2.7558   -0.2078    0.2490 N   0  0  0  0  0  0  0  0  0  0  0  0
   -2.0607   -1.3753   -0.0123 C   0  0  0  0  0  0  0  0  0  0  0  0
   -2.4801   -2.3640   -0.6014 O   0  0  0  0  0  0  0  0  0  0  0  0
   -0.6386   -1.3806    0.4429 C   0  0  0  0  0  0  0  0  0  0  0  0
   -0.2212   -0.6972    1.5926 C   0  0  0  0  0  0  0  0  0  0  0  0
    1.1232   -0.7357    1.9776 C   0  0  0  0  0  0  0  0  0  0  0  0
    2.0582   -1.4545    1.2283 C   0  0  0  0  0  0  0  0  0  0  0  0
    3.3961   -1.5007    1.6312 N   0  0  0  0  0  0  0  0  0  0  0  0
    4.2123   -0.6337    1.1500 C   0  0  0  0  0  0  0  0  0  0  0  0
    4.0215    0.3776    0.2464 N   0  0  0  0  0  0  0  0  0  0  0  0
    5.2250    0.9495   -0.3308 C   0  0  0  0  0  0  0  0  0  0  0  0
    5.6879    0.1709   -1.5522 C   0  0  0  0  0  0  0  0  0  0  0  0
    7.4179    0.5409   -1.6428 S   0  0  0  0  0  6  0  0  0  0  0  0
    7.5552    1.8084   -2.3314 O   0  0  0  0  0  0  0  0  0  0  0  0
    8.1336   -0.6447   -2.0582 O   0  0  0  0  0  0  0  0  0  0  0  0
    7.6885    0.8272    0.0938 C   0  0  0  0  0  0  0  0  0  0  0  0
    6.3167    0.8366    0.7471 C   0  0  0  0  0  0  0  0  0  0  0  0
    5.9043   -0.7036    1.6482 S   0  0  0  0  0  0  0  0  0  0  0  0
    1.6326   -2.1662    0.1044 C   0  0  0  0  0  0  0  0  0  0  0  0
    0.2925   -2.1284   -0.2902 C   0  0  0  0  0  0  0  0  0  0  0  0
   -4.5780    1.3546    0.2549 C   0  0  0  0  0  0  0  0  0  0  0  0
   -5.8365    3.5556    1.1234 H   0  0  0  0  0  0  0  0  0  0  0  0
   -6.2342    3.7327   -0.6035 H   0  0  0  0  0  0  0  0  0  0  0  0
   -7.4463    3.1229    0.5501 H   0  0  0  0  0  0  0  0  0  0  0  0
   -7.8172    1.0392   -0.7374 H   0  0  0  0  0  0  0  0  0  0  0  0
   -8.3126   -1.3539   -1.0898 H   0  0  0  0  0  0  0  0  0  0  0  0
   -7.2239   -1.4972   -2.4915 H   0  0  0  0  0  0  0  0  0  0  0  0
   -7.0244   -2.5569   -1.0735 H   0  0  0  0  0  0  0  0  0  0  0  0
   -4.6832   -1.8859   -0.7823 H   0  0  0  0  0  0  0  0  0  0  0  0
   -2.2310    0.5686    0.6262 H   0  0  0  0  0  0  0  0  0  0  0  0
   -0.9279   -0.1655    2.2230 H   0  0  0  0  0  0  0  0  0  0  0  0
    1.4456   -0.2207    2.8794 H   0  0  0  0  0  0  0  0  0  0  0  0
    3.1751    0.3385   -0.3102 H   0  0  0  0  0  0  0  0  0  0  0  0
    5.0622    2.0018   -0.5915 H   0  0  0  0  0  0  0  0  0  0  0  0
    5.5732   -0.9121   -1.4456 H   0  0  0  0  0  0  0  0  0  0  0  0
    5.1913    0.4958   -2.4698 H   0  0  0  0  0  0  0  0  0  0  0  0
    8.3648    0.0651    0.4888 H   0  0  0  0  0  0  0  0  0  0  0  0
    8.1658    1.8082    0.1819 H   0  0  0  0  0  0  0  0  0  0  0  0
    6.2365    1.6495    1.4773 H   0  0  0  0  0  0  0  0  0  0  0  0
    2.3450   -2.7660   -0.4566 H   0  0  0  0  0  0  0  0  0  0  0  0
   -0.0270   -2.6943   -1.1638 H   0  0  0  0  0  0  0  0  0  0  0  0
   -3.9002    2.1018    0.6603 H   0  0  0  0  0  0  0  0  0  0  0  0
  1  2  1  0
  2  3  2  0
  3  4  1  0
  4  5  1  0
  4  6  2  0
  6  7  1  0
  7  8  1  0
  8  9  1  0
  9 10  2  0
  9 11  1  0
 11 12  2  0
 12 13  1  0
 13 14  2  0
 14 15  1  0
 15 16  2  3
 16 17  1  0
 17 18  1  0
 18 19  1  0
 19 20  1  0
 20 21  2  0
 20 22  2  0
 20 23  1  0
 23 24  1  0
 24 25  1  0
 14 26  1  0
 26 27  2  0
  7 28  2  0
 28  2  1  0
 27 11  1  0
 25 16  1  0
 24 18  1  0
  1 29  1  0
  1 30  1  0
  1 31  1  0
  3 32  1  0
  5 33  1  0
  5 34  1  0
  5 35  1  0
  6 36  1  0
  8 37  1  0
 12 38  1  0
 13 39  1  0
 17 40  1  0
 18 41  1  0
 19 42  1  0
 19 43  1  0
 23 44  1  0
 23 45  1  0
 24 46  1  0
 26 47  1  0
 27 48  1  0
 28 49  1  0
M  END
$$$$
