
     RDKit          3D

 42 45  0  0  0  0  0  0  0  0999 V2000
    1.1647    2.5025    1.0670 O   0  0  0  0  0  0  0  0  0  0  0  0
    0.3401    1.6159    1.2501 C   0  0  0  0  0  0  0  0  0  0  0  0
   -0.8754    1.9212    1.7866 N   0  0  0  0  0  0  0  0  0  0  0  0
   -2.0168    1.1840    1.6917 C   0  0  0  0  0  0  0  0  0  0  0  0
   -3.0856    1.7041    2.0090 O   0  0  0  0  0  0  0  0  0  0  0  0
   -1.8818   -0.1141    1.2423 N   0  0  0  0  0  0  0  0  0  0  0  0
   -3.0989   -0.9124    1.0815 C   0  0  0  0  0  0  0  0  0  0  0  0
   -3.5612   -0.9627   -0.3888 C   0  0  0  0  0  0  0  0  0  0  0  0
   -4.8894   -1.6868   -0.5544 C   0  0  0  0  0  0  0  0  0  0  0  0
   -5.8947   -0.5709   -0.4127 C   0  0  0  0  0  0  0  0  0  0  0  0
   -5.1790    0.5872   -1.0715 C   0  0  0  0  0  0  0  0  0  0  0  0
   -3.7737    0.3782   -0.8750 O   0  0  0  0  0  0  0  0  0  0  0  0
   -0.6851   -0.6899    0.8460 C   0  0  0  0  0  0  0  0  0  0  0  0
   -0.6110   -1.8610    0.4716 O   0  0  0  0  0  0  0  0  0  0  0  0
    0.5165    0.1910    0.8967 C   0  0  0  0  0  0  0  0  0  0  0  0
    1.6950   -0.3900    0.5896 C   0  0  0  0  0  0  0  0  0  0  0  0
    3.0152    0.1534    0.5955 C   0  0  0  0  0  0  0  0  0  0  0  0
    3.5719    0.9226    1.5923 C   0  0  0  0  0  0  0  0  0  0  0  0
    4.8591    1.2179    1.2266 N   0  0  0  0  0  0  0  0  0  0  0  0
    5.1708    0.6036    0.0353 C   0  0  0  0  0  0  0  0  0  0  0  0
    6.3663    0.6038   -0.6936 C   0  0  0  0  0  0  0  0  0  0  0  0
    6.3966   -0.1195   -1.8893 C   0  0  0  0  0  0  0  0  0  0  0  0
    5.2748   -0.8126   -2.3372 C   0  0  0  0  0  0  0  0  0  0  0  0
    4.0864   -0.8005   -1.5975 C   0  0  0  0  0  0  0  0  0  0  0  0
    4.0282   -0.0797   -0.3855 C   0  0  0  0  0  0  0  0  0  0  0  0
   -1.0196    2.8970    2.0043 H   0  0  0  0  0  0  0  0  0  0  0  0
   -3.8900   -0.4955    1.7143 H   0  0  0  0  0  0  0  0  0  0  0  0
   -2.9039   -1.9307    1.4391 H   0  0  0  0  0  0  0  0  0  0  0  0
   -2.7889   -1.4276   -1.0105 H   0  0  0  0  0  0  0  0  0  0  0  0
   -5.0402   -2.5046    0.1557 H   0  0  0  0  0  0  0  0  0  0  0  0
   -4.9551   -2.1034   -1.5671 H   0  0  0  0  0  0  0  0  0  0  0  0
   -6.0668   -0.3523    0.6474 H   0  0  0  0  0  0  0  0  0  0  0  0
   -6.8613   -0.7908   -0.8737 H   0  0  0  0  0  0  0  0  0  0  0  0
   -5.3649    0.6045   -2.1506 H   0  0  0  0  0  0  0  0  0  0  0  0
   -5.4696    1.5544   -0.6521 H   0  0  0  0  0  0  0  0  0  0  0  0
    1.6757   -1.4372    0.2843 H   0  0  0  0  0  0  0  0  0  0  0  0
    3.1682    1.3082    2.5185 H   0  0  0  0  0  0  0  0  0  0  0  0
    5.4965    1.7937    1.7583 H   0  0  0  0  0  0  0  0  0  0  0  0
    7.2415    1.1444   -0.3487 H   0  0  0  0  0  0  0  0  0  0  0  0
    7.3102   -0.1388   -2.4791 H   0  0  0  0  0  0  0  0  0  0  0  0
    5.3190   -1.3667   -3.2715 H   0  0  0  0  0  0  0  0  0  0  0  0
    3.2166   -1.3398   -1.9604 H   0  0  0  0  0  0  0  0  0  0  0  0
  1  2  2  0
  2  3  1  0
  3  4  1  0
  4  5  2  0
  4  6  1  0
  6  7  1  0
  7  8  1  0
  8  9  1  0
  9 10  1  0
 10 11  1  0
 11 12  1  0
  6 13  1  0
 13 14  2  0
 13 15  1  0
 15 16  2  3
 16 17  1  0
 17 18  2  0
 18 19  1  0
 19 20  1  0
 20 21  2  0
 21 22  1  0
 22 23  2  0
 23 24  1  0
 24 25  2  0
 15  2  1  0
 25 17  1  0
 12  8  1  0
 25 20  1  0
  3 26  1  0
  7 27  1  0
  7 28  1  0
  8 29  1  0
  9 30  1  0
  9 31  1  0
 10 32  1  0
 10 33  1  0
 11 34  1  0
 11 35  1  0
 16 36  1  0
 18 37  1  0
 19 38  1  0
 21 39  1  0
 22 40  1  0
 23 41  1  0
 24 42  1  0
M  END
$$$$
