
     RDKit          3D

 38 40  0  0  0  0  0  0  0  0999 V2000
    1.4223   -0.4167    2.0445 O   0  0  0  0  0  0  0  0  0  0  0  0
    1.1498    0.3951    1.1635 C   0  0  0  0  0  0  0  0  0  0  0  0
   -0.1542    1.2015    1.2160 C   0  0  0  0  0  0  0  0  0  0  0  0
   -1.1464    0.7216    0.2466 N   0  0  0  0  0  0  0  0  0  0  0  0
   -0.9919    1.1084   -1.0804 C   0  0  0  0  0  0  0  0  0  0  0  0
   -0.0826    1.8646   -1.4389 O   0  0  0  0  0  0  0  0  0  0  0  0
   -1.9113    0.4886   -2.1062 C   0  0  0  0  0  0  0  0  0  0  0  0
   -3.2191    1.2377   -2.2305 C   0  0  0  0  0  0  0  0  0  0  0  0
   -4.0786    1.5926   -0.6688 S   0  0  0  0  0  0  0  0  0  0  0  0
   -3.5815    0.1873    0.3242 C   0  0  0  0  0  0  0  0  0  0  0  0
   -4.6192   -0.6078    0.8358 C   0  0  0  0  0  0  0  0  0  0  0  0
   -4.3516   -1.6354    1.7385 C   0  0  0  0  0  0  0  0  0  0  0  0
   -3.0465   -1.8630    2.1574 C   0  0  0  0  0  0  0  0  0  0  0  0
   -2.0059   -1.0711    1.6665 C   0  0  0  0  0  0  0  0  0  0  0  0
   -2.2495   -0.0494    0.7329 C   0  0  0  0  0  0  0  0  0  0  0  0
    1.9178    0.6856    0.0485 N   0  0  0  0  0  0  0  0  0  0  0  0
    3.1654    0.1443   -0.3116 C   0  0  0  0  0  0  0  0  0  0  0  0
    3.8816   -0.7616    0.4758 C   0  0  0  0  0  0  0  0  0  0  0  0
    5.1183   -1.2502    0.0421 C   0  0  0  0  0  0  0  0  0  0  0  0
    5.6362   -0.8310   -1.1762 C   0  0  0  0  0  0  0  0  0  0  0  0
    6.8205   -1.3005   -1.5890 F   0  0  0  0  0  0  0  0  0  0  0  0
    4.9413    0.0699   -1.9714 C   0  0  0  0  0  0  0  0  0  0  0  0
    3.7062    0.5578   -1.5384 C   0  0  0  0  0  0  0  0  0  0  0  0
   -0.5568    1.1737    2.2353 H   0  0  0  0  0  0  0  0  0  0  0  0
    0.0775    2.2534    1.0067 H   0  0  0  0  0  0  0  0  0  0  0  0
   -2.0682   -0.5731   -1.8835 H   0  0  0  0  0  0  0  0  0  0  0  0
   -1.3931    0.5006   -3.0734 H   0  0  0  0  0  0  0  0  0  0  0  0
   -3.0471    2.2022   -2.7209 H   0  0  0  0  0  0  0  0  0  0  0  0
   -3.9014    0.6714   -2.8735 H   0  0  0  0  0  0  0  0  0  0  0  0
   -5.6520   -0.4176    0.5497 H   0  0  0  0  0  0  0  0  0  0  0  0
   -5.1641   -2.2444    2.1273 H   0  0  0  0  0  0  0  0  0  0  0  0
   -2.8323   -2.6580    2.8682 H   0  0  0  0  0  0  0  0  0  0  0  0
   -0.9973   -1.2974    2.0050 H   0  0  0  0  0  0  0  0  0  0  0  0
    1.4957    1.3313   -0.6229 H   0  0  0  0  0  0  0  0  0  0  0  0
    3.5076   -1.1064    1.4346 H   0  0  0  0  0  0  0  0  0  0  0  0
    5.6766   -1.9538    0.6514 H   0  0  0  0  0  0  0  0  0  0  0  0
    5.3622    0.3868   -2.9200 H   0  0  0  0  0  0  0  0  0  0  0  0
    3.1716    1.2628   -2.1712 H   0  0  0  0  0  0  0  0  0  0  0  0
  1  2  2  0
  2  3  1  0
  3  4  1  0
  4  5  1  0
  5  6  2  0
  5  7  1  0
  7  8  1  0
  8  9  1  0
  9 10  1  0
 10 11  2  0
 11 12  1  0
 12 13  2  0
 13 14  1  0
 14 15  2  0
  2 16  1  0
 16 17  1  0
 17 18  2  0
 18 19  1  0
 19 20  2  0
 20 21  1  0
 20 22  1  0
 22 23  2  0
 15  4  1  0
 23 17  1  0
 15 10  1  0
  3 24  1  0
  3 25  1  0
  7 26  1  0
  7 27  1  0
  8 28  1  0
  8 29  1  0
 11 30  1  0
 12 31  1  0
 13 32  1  0
 14 33  1  0
 16 34  1  0
 18 35  1  0
 19 36  1  0
 22 37  1  0
 23 38  1  0
M  END
$$$$
