
     RDKit          3D

 32 33  0  0  0  0  0  0  0  0999 V2000
    0.6404    2.9075   -0.3465 O   0  0  0  0  0  0  0  0  0  0  0  0
    0.4922    1.6999   -0.1819 C   0  0  0  0  0  0  0  0  0  0  0  0
   -0.7147    1.0753   -0.2073 N   0  0  0  0  0  0  0  0  0  0  0  0
   -1.9405    1.8299   -0.2894 C   0  0  0  0  0  0  0  0  0  0  0  0
   -3.1199    0.9176   -0.4886 C   0  0  0  0  0  0  0  0  0  0  0  0
   -3.4407    0.4424   -1.7696 C   0  0  0  0  0  0  0  0  0  0  0  0
   -4.5196   -0.4242   -1.9568 C   0  0  0  0  0  0  0  0  0  0  0  0
   -5.2835   -0.8321   -0.8640 C   0  0  0  0  0  0  0  0  0  0  0  0
   -4.9620   -0.3749    0.4125 C   0  0  0  0  0  0  0  0  0  0  0  0
   -5.8963   -0.8890    1.7637 Cl  0  0  0  0  0  0  0  0  0  0  0  0
   -3.8863    0.4922    0.6060 C   0  0  0  0  0  0  0  0  0  0  0  0
    1.5901    0.9103    0.0286 N   0  0  0  0  0  0  0  0  0  0  0  0
    1.6238   -0.3817    0.5157 C   0  0  0  0  0  0  0  0  0  0  0  0
    0.6141   -1.0369    0.7618 O   0  0  0  0  0  0  0  0  0  0  0  0
    2.9677   -0.9339    0.7361 C   0  0  0  0  0  0  0  0  0  0  0  0
    3.1480   -2.1482    1.3839 C   0  0  0  0  0  0  0  0  0  0  0  0
    4.7912   -2.6008    1.5313 S   0  0  0  0  0  0  0  0  0  0  0  0
    5.2972   -1.2012    0.7210 C   0  0  0  0  0  0  0  0  0  0  0  0
    6.6965   -0.9537    0.4820 N   0  0  0  0  0  4  0  0  0  0  0  0
    7.5197   -1.7919    0.8689 O   0  0  0  0  0  0  0  0  0  0  0  0
    6.9671    0.1027   -0.1053 O   0  0  0  0  0  1  0  0  0  0  0  0
    4.2447   -0.3907    0.3448 C   0  0  0  0  0  0  0  0  0  0  0  0
   -0.7553    0.1424    0.1977 H   0  0  0  0  0  0  0  0  0  0  0  0
   -2.0474    2.4115    0.6335 H   0  0  0  0  0  0  0  0  0  0  0  0
   -1.8685    2.5515   -1.1119 H   0  0  0  0  0  0  0  0  0  0  0  0
   -2.8434    0.7433   -2.6289 H   0  0  0  0  0  0  0  0  0  0  0  0
   -4.7611   -0.7839   -2.9539 H   0  0  0  0  0  0  0  0  0  0  0  0
   -6.1205   -1.5087   -1.0128 H   0  0  0  0  0  0  0  0  0  0  0  0
   -3.6441    0.8353    1.6096 H   0  0  0  0  0  0  0  0  0  0  0  0
    2.4396    1.4492    0.0053 H   0  0  0  0  0  0  0  0  0  0  0  0
    2.3782   -2.7974    1.7849 H   0  0  0  0  0  0  0  0  0  0  0  0
    4.3933    0.5380   -0.1946 H   0  0  0  0  0  0  0  0  0  0  0  0
  1  2  2  0
  2  3  1  0
  3  4  1  0
  4  5  1  0
  5  6  2  0
  6  7  1  0
  7  8  2  0
  8  9  1  0
  9 10  1  0
  9 11  2  0
  2 12  1  0
 12 13  1  0
 13 14  2  0
 13 15  1  0
 15 16  2  0
 16 17  1  0
 17 18  1  0
 18 19  1  0
 19 20  2  0
 19 21  1  0
 18 22  2  0
 11  5  1  0
 22 15  1  0
  3 23  1  0
  4 24  1  0
  4 25  1  0
  6 26  1  0
  7 27  1  0
  8 28  1  0
 11 29  1  0
 12 30  1  0
 16 31  1  0
 22 32  1  0
M  CHG  2  19   1  21  -1
M  END
$$$$
