
     RDKit          3D

 39 40  0  0  0  0  0  0  0  0999 V2000
   -4.2093    2.8159    0.8058 N   0  0  0  0  0  0  0  0  0  0  0  0
   -5.1643    1.4632    1.1166 S   0  0  0  0  0  6  0  0  0  0  0  0
   -5.3942    1.4017    2.5404 O   0  0  0  0  0  0  0  0  0  0  0  0
   -6.2416    1.5139    0.1555 O   0  0  0  0  0  0  0  0  0  0  0  0
   -4.0670    0.1472    0.6632 C   0  0  0  0  0  0  0  0  0  0  0  0
   -3.2591   -0.4421    1.6383 C   0  0  0  0  0  0  0  0  0  0  0  0
   -2.3940   -1.4771    1.2805 C   0  0  0  0  0  0  0  0  0  0  0  0
   -2.3366   -1.9292   -0.0461 C   0  0  0  0  0  0  0  0  0  0  0  0
   -1.3863   -3.0373   -0.4398 C   0  0  0  0  0  0  0  0  0  0  0  0
   -0.1322   -2.5250   -1.1520 C   0  0  0  0  0  0  0  0  0  0  0  0
    0.7364   -1.7554   -0.2743 N   0  0  0  0  0  0  0  0  0  0  0  0
    1.7471   -0.9900   -0.8264 C   0  0  0  0  0  0  0  0  0  0  0  0
    1.9159   -0.8875   -2.0328 O   0  0  0  0  0  0  0  0  0  0  0  0
    2.4813   -0.3761    0.1653 N   0  0  0  0  0  0  0  0  0  0  0  0
    3.6365    0.4153    0.0108 C   0  0  0  0  0  0  0  0  0  0  0  0
    4.1084    1.0857    1.1459 C   0  0  0  0  0  0  0  0  0  0  0  0
    5.2534    1.8847    1.0767 C   0  0  0  0  0  0  0  0  0  0  0  0
    5.9433    2.0180   -0.1293 C   0  0  0  0  0  0  0  0  0  0  0  0
    7.3505    3.0193   -0.1438 Cl  0  0  0  0  0  0  0  0  0  0  0  0
    5.4837    1.3460   -1.2658 C   0  0  0  0  0  0  0  0  0  0  0  0
    6.2929    1.4565   -2.7901 Cl  0  0  0  0  0  0  0  0  0  0  0  0
    4.3350    0.5464   -1.1925 C   0  0  0  0  0  0  0  0  0  0  0  0
   -3.1649   -1.3341   -1.0106 C   0  0  0  0  0  0  0  0  0  0  0  0
   -4.0345   -0.3010   -0.6586 C   0  0  0  0  0  0  0  0  0  0  0  0
   -4.6443    3.3595    0.0580 H   0  0  0  0  0  0  0  0  0  0  0  0
   -3.2414    2.5811    0.5880 H   0  0  0  0  0  0  0  0  0  0  0  0
   -3.3004   -0.1052    2.6723 H   0  0  0  0  0  0  0  0  0  0  0  0
   -1.7678   -1.9313    2.0452 H   0  0  0  0  0  0  0  0  0  0  0  0
   -1.1032   -3.6164    0.4484 H   0  0  0  0  0  0  0  0  0  0  0  0
   -1.9190   -3.7342   -1.0990 H   0  0  0  0  0  0  0  0  0  0  0  0
   -0.3972   -1.9108   -2.0206 H   0  0  0  0  0  0  0  0  0  0  0  0
    0.4569   -3.3743   -1.5170 H   0  0  0  0  0  0  0  0  0  0  0  0
    0.9880   -2.2019    0.5949 H   0  0  0  0  0  0  0  0  0  0  0  0
    2.0428   -0.3725    1.0743 H   0  0  0  0  0  0  0  0  0  0  0  0
    3.5922    1.0004    2.0993 H   0  0  0  0  0  0  0  0  0  0  0  0
    5.6019    2.4003    1.9687 H   0  0  0  0  0  0  0  0  0  0  0  0
    4.0084    0.0295   -2.0902 H   0  0  0  0  0  0  0  0  0  0  0  0
   -3.1388   -1.6762   -2.0439 H   0  0  0  0  0  0  0  0  0  0  0  0
   -4.6782    0.1423   -1.4154 H   0  0  0  0  0  0  0  0  0  0  0  0
  1  2  1  0
  2  3  2  0
  2  4  2  0
  2  5  1  0
  5  6  2  0
  6  7  1  0
  7  8  2  0
  8  9  1  0
  9 10  1  0
 10 11  1  0
 11 12  1  0
 12 13  2  0
 12 14  1  0
 14 15  1  0
 15 16  2  0
 16 17  1  0
 17 18  2  0
 18 19  1  0
 18 20  1  0
 20 21  1  0
 20 22  2  0
  8 23  1  0
 23 24  2  0
 24  5  1  0
 22 15  1  0
  1 25  1  0
  1 26  1  0
  6 27  1  0
  7 28  1  0
  9 29  1  0
  9 30  1  0
 10 31  1  0
 10 32  1  0
 11 33  1  0
 14 34  1  0
 16 35  1  0
 17 36  1  0
 22 37  1  0
 23 38  1  0
 24 39  1  0
M  END
$$$$
