
     RDKit          3D

 41 42  0  0  0  0  0  0  0  0999 V2000
   -7.2717   -2.1450    2.7134 C   0  0  0  0  0  0  0  0  0  0  0  0
   -6.7027   -0.8605    2.9323 O   0  0  0  0  0  0  0  0  0  0  0  0
   -5.7041   -0.4758    2.0805 C   0  0  0  0  0  0  0  0  0  0  0  0
   -5.2335   -1.1999    0.9859 C   0  0  0  0  0  0  0  0  0  0  0  0
   -4.2021   -0.6855    0.1917 C   0  0  0  0  0  0  0  0  0  0  0  0
   -3.6283    0.5600    0.4803 C   0  0  0  0  0  0  0  0  0  0  0  0
   -2.5155    1.1100   -0.3800 C   0  0  0  0  0  0  0  0  0  0  0  0
   -1.1604    0.4752   -0.1439 C   0  0  0  0  0  0  0  0  0  0  0  0
   -0.9396   -0.5042    0.5572 O   0  0  0  0  0  0  0  0  0  0  0  0
   -0.2342    1.1897   -0.8773 O   0  0  0  0  0  0  0  0  0  0  0  0
    1.0352    0.5938   -0.7589 N   0  0  0  0  0  0  0  0  0  0  0  0
    1.9417    1.2570   -1.4138 C   0  0  0  0  0  0  0  0  0  0  0  0
    1.6759    2.4167   -2.1086 N   0  0  0  0  0  0  0  0  0  0  0  0
    3.3466    0.7318   -1.3880 C   0  0  0  0  0  0  0  0  0  0  0  0
    3.7307   -0.1843   -0.4012 C   0  0  0  0  0  0  0  0  0  0  0  0
    5.0406   -0.6772   -0.3592 C   0  0  0  0  0  0  0  0  0  0  0  0
    5.9759   -0.2624   -1.3072 C   0  0  0  0  0  0  0  0  0  0  0  0
    7.2812   -0.6635   -1.3794 O   0  0  0  0  0  0  0  0  0  0  0  0
    7.7159   -1.6111   -0.4119 C   0  0  0  0  0  0  0  0  0  0  0  0
    5.5889    0.6444   -2.2977 C   0  0  0  0  0  0  0  0  0  0  0  0
    4.2820    1.1396   -2.3442 C   0  0  0  0  0  0  0  0  0  0  0  0
   -4.1006    1.2796    1.5840 C   0  0  0  0  0  0  0  0  0  0  0  0
   -5.1325    0.7641    2.3725 C   0  0  0  0  0  0  0  0  0  0  0  0
   -8.0283   -2.3115    3.4862 H   0  0  0  0  0  0  0  0  0  0  0  0
   -6.5182   -2.9337    2.8101 H   0  0  0  0  0  0  0  0  0  0  0  0
   -7.7733   -2.1933    1.7412 H   0  0  0  0  0  0  0  0  0  0  0  0
   -5.6410   -2.1701    0.7232 H   0  0  0  0  0  0  0  0  0  0  0  0
   -3.8413   -1.2745   -0.6493 H   0  0  0  0  0  0  0  0  0  0  0  0
   -2.4236    2.1888   -0.2035 H   0  0  0  0  0  0  0  0  0  0  0  0
   -2.7822    0.9711   -1.4347 H   0  0  0  0  0  0  0  0  0  0  0  0
    2.4113    3.1145   -2.0808 H   0  0  0  0  0  0  0  0  0  0  0  0
    0.7747    2.8103   -1.8624 H   0  0  0  0  0  0  0  0  0  0  0  0
    3.0128   -0.5216    0.3446 H   0  0  0  0  0  0  0  0  0  0  0  0
    5.2913   -1.3837    0.4252 H   0  0  0  0  0  0  0  0  0  0  0  0
    7.6495   -1.1996    0.6007 H   0  0  0  0  0  0  0  0  0  0  0  0
    8.7684   -1.8339   -0.6120 H   0  0  0  0  0  0  0  0  0  0  0  0
    7.1553   -2.5479   -0.4966 H   0  0  0  0  0  0  0  0  0  0  0  0
    6.3115    0.9608   -3.0465 H   0  0  0  0  0  0  0  0  0  0  0  0
    4.0072    1.8197   -3.1447 H   0  0  0  0  0  0  0  0  0  0  0  0
   -3.6724    2.2443    1.8450 H   0  0  0  0  0  0  0  0  0  0  0  0
   -5.4911    1.3318    3.2277 H   0  0  0  0  0  0  0  0  0  0  0  0
  1  2  1  0
  2  3  1  0
  3  4  2  0
  4  5  1  0
  5  6  2  0
  6  7  1  0
  7  8  1  0
  8  9  2  0
  8 10  1  0
 10 11  1  0
 11 12  2  3
 12 13  1  0
 12 14  1  0
 14 15  2  0
 15 16  1  0
 16 17  2  0
 17 18  1  0
 18 19  1  0
 17 20  1  0
 20 21  2  0
  6 22  1  0
 22 23  2  0
 23  3  1  0
 21 14  1  0
  1 24  1  0
  1 25  1  0
  1 26  1  0
  4 27  1  0
  5 28  1  0
  7 29  1  0
  7 30  1  0
 13 31  1  0
 13 32  1  0
 15 33  1  0
 16 34  1  0
 19 35  1  0
 19 36  1  0
 19 37  1  0
 20 38  1  0
 21 39  1  0
 22 40  1  0
 23 41  1  0
M  END
$$$$
