
     RDKit          3D

 33 35  0  0  0  0  0  0  0  0999 V2000
    1.5866    1.7257   -1.4282 O   0  0  0  0  0  0  0  0  0  0  0  0
    1.7465    0.8679   -0.5682 C   0  0  0  0  0  0  0  0  0  0  0  0
    0.7822    0.1450    0.1039 N   0  0  0  0  0  0  0  0  0  0  0  0
   -0.5920    0.1819   -0.0900 C   0  0  0  0  0  0  0  0  0  0  0  0
   -1.3002    1.1938   -1.2806 S   0  0  0  0  0  0  0  0  0  0  0  0
   -2.8242    0.6534   -0.8808 C   0  0  0  0  0  0  0  0  0  0  0  0
   -2.8404   -0.2716    0.1241 C   0  0  0  0  0  0  0  0  0  0  0  0
   -1.5384   -0.5654    0.6173 C   0  0  0  0  0  0  0  0  0  0  0  0
   -1.1841   -1.4828    1.6854 C   0  0  0  0  0  0  0  0  0  0  0  0
   -0.0460   -1.6898    2.0878 O   0  0  0  0  0  0  0  0  0  0  0  0
   -2.2272   -2.1291    2.2515 O   0  0  0  0  0  0  0  0  0  0  0  0
   -4.2310   -0.7021    0.4234 C   0  0  0  0  0  0  0  0  0  0  0  0
   -5.0258   -0.1414   -0.7981 C   0  0  0  0  0  0  0  0  0  0  0  0
   -4.1603    0.9981   -1.4161 C   0  0  0  0  0  0  0  0  0  0  0  0
    3.1422    0.6073   -0.1234 C   0  0  0  0  0  0  0  0  0  0  0  0
    3.9498    1.7349    0.1026 C   0  0  0  0  0  0  0  0  0  0  0  0
    5.2700    1.5880    0.5301 C   0  0  0  0  0  0  0  0  0  0  0  0
    5.7977    0.3144    0.7267 C   0  0  0  0  0  0  0  0  0  0  0  0
    5.0088   -0.8122    0.4864 C   0  0  0  0  0  0  0  0  0  0  0  0
    3.6835   -0.6721    0.0560 C   0  0  0  0  0  0  0  0  0  0  0  0
    2.8066   -2.1248   -0.2695 Cl  0  0  0  0  0  0  0  0  0  0  0  0
    1.0922   -0.5127    0.8177 H   0  0  0  0  0  0  0  0  0  0  0  0
   -1.8043   -2.6914    2.9316 H   0  0  0  0  0  0  0  0  0  0  0  0
   -4.5826   -0.2420    1.3528 H   0  0  0  0  0  0  0  0  0  0  0  0
   -4.3366   -1.7882    0.4909 H   0  0  0  0  0  0  0  0  0  0  0  0
   -6.0276    0.2006   -0.5202 H   0  0  0  0  0  0  0  0  0  0  0  0
   -5.1458   -0.9409   -1.5413 H   0  0  0  0  0  0  0  0  0  0  0  0
   -4.2080    0.9841   -2.5083 H   0  0  0  0  0  0  0  0  0  0  0  0
   -4.4890    1.9742   -1.0450 H   0  0  0  0  0  0  0  0  0  0  0  0
    3.5452    2.7337   -0.0566 H   0  0  0  0  0  0  0  0  0  0  0  0
    5.8854    2.4678    0.7039 H   0  0  0  0  0  0  0  0  0  0  0  0
    6.8276    0.1970    1.0561 H   0  0  0  0  0  0  0  0  0  0  0  0
    5.4390   -1.8014    0.6269 H   0  0  0  0  0  0  0  0  0  0  0  0
  1  2  2  0
  2  3  1  0
  3  4  1  0
  4  5  1  0
  5  6  1  0
  6  7  2  0
  7  8  1  0
  8  9  1  0
  9 10  2  0
  9 11  1  0
  7 12  1  0
 12 13  1  0
 13 14  1  0
  2 15  1  0
 15 16  2  0
 16 17  1  0
 17 18  2  0
 18 19  1  0
 19 20  2  0
 20 21  1  0
  8  4  2  0
 20 15  1  0
 14  6  1  0
  3 22  1  0
 11 23  1  0
 12 24  1  0
 12 25  1  0
 13 26  1  0
 13 27  1  0
 14 28  1  0
 14 29  1  0
 16 30  1  0
 17 31  1  0
 18 32  1  0
 19 33  1  0
M  END
$$$$
