
     RDKit          3D

 47 49  0  0  0  0  0  0  0  0999 V2000
    2.3250   -0.0021    0.0418 O   0  0  0  0  0  0  0  0  0  0  0  0
    1.3960    0.3604   -0.6698 C   0  0  0  0  0  0  0  0  0  0  0  0
    0.1117   -0.4220   -0.8230 C   0  0  0  0  0  0  0  0  0  0  0  0
    0.0484   -1.5643    0.1878 C   0  0  0  0  0  0  0  0  0  0  0  0
   -1.1867   -2.3439    0.0533 N   0  0  0  0  0  0  0  0  0  0  0  0
   -2.3369   -1.8644    0.6626 C   0  0  0  0  0  0  0  0  0  0  0  0
   -2.4130   -0.8100    1.2770 O   0  0  0  0  0  0  0  0  0  0  0  0
   -3.4778   -2.7938    0.4229 C   0  0  0  0  0  0  0  0  0  0  0  0
   -4.7432   -2.6867    0.8536 C   0  0  0  0  0  0  0  0  0  0  0  0
   -5.2995   -1.6151    1.6839 C   0  0  0  0  0  0  0  0  0  0  0  0
   -4.8843   -1.4250    3.0088 C   0  0  0  0  0  0  0  0  0  0  0  0
   -5.4529   -0.4122    3.7847 C   0  0  0  0  0  0  0  0  0  0  0  0
   -6.4407    0.3987    3.2375 C   0  0  0  0  0  0  0  0  0  0  0  0
   -6.9881    1.3682    3.9827 F   0  0  0  0  0  0  0  0  0  0  0  0
   -6.8731    0.2159    1.9295 C   0  0  0  0  0  0  0  0  0  0  0  0
   -6.3040   -0.7944    1.1516 C   0  0  0  0  0  0  0  0  0  0  0  0
   -2.9582   -4.1001   -0.5792 S   0  0  0  0  0  0  0  0  0  0  0  0
   -1.3157   -3.4875   -0.7037 C   0  0  0  0  0  0  0  0  0  0  0  0
   -0.1601   -4.2404   -1.6399 S   0  0  0  0  0  0  0  0  0  0  0  0
    1.4320    1.5008   -1.4403 N   0  0  0  0  0  0  0  0  0  0  0  0
    2.5380    2.4406   -1.4023 C   0  0  0  0  0  0  0  0  0  0  0  0
    3.5448    2.1947   -2.5254 C   0  0  0  0  0  0  0  0  0  0  0  0
    4.5368    1.0651   -2.2408 C   0  0  0  0  0  0  0  0  0  0  0  0
    5.5428    1.4193   -1.2596 N   0  0  0  0  0  0  0  0  0  0  0  0
    6.6371    2.2094   -1.4826 C   0  0  0  0  0  0  0  0  0  0  0  0
    7.3041    2.2376   -0.2799 C   0  0  0  0  0  0  0  0  0  0  0  0
    6.6476    1.4844    0.6571 N   0  0  0  0  0  0  0  0  0  0  0  0
    5.5962    0.9952    0.0368 C   0  0  0  0  0  0  0  0  0  0  0  0
   -0.7368    0.2580   -0.6834 H   0  0  0  0  0  0  0  0  0  0  0  0
    0.0648   -0.8115   -1.8465 H   0  0  0  0  0  0  0  0  0  0  0  0
    0.9160   -2.2239    0.0815 H   0  0  0  0  0  0  0  0  0  0  0  0
    0.0904   -1.1573    1.2063 H   0  0  0  0  0  0  0  0  0  0  0  0
   -5.4766   -3.4379    0.5647 H   0  0  0  0  0  0  0  0  0  0  0  0
   -4.1105   -2.0529    3.4447 H   0  0  0  0  0  0  0  0  0  0  0  0
   -5.1298   -0.2495    4.8079 H   0  0  0  0  0  0  0  0  0  0  0  0
   -7.6480    0.8595    1.5246 H   0  0  0  0  0  0  0  0  0  0  0  0
   -6.6473   -0.9320    0.1287 H   0  0  0  0  0  0  0  0  0  0  0  0
    0.6068    1.7624   -1.9666 H   0  0  0  0  0  0  0  0  0  0  0  0
    2.0903    3.4323   -1.5353 H   0  0  0  0  0  0  0  0  0  0  0  0
    3.0112    2.4225   -0.4159 H   0  0  0  0  0  0  0  0  0  0  0  0
    4.0996    3.1240   -2.7035 H   0  0  0  0  0  0  0  0  0  0  0  0
    3.0048    1.9663   -3.4529 H   0  0  0  0  0  0  0  0  0  0  0  0
    5.0812    0.8211   -3.1620 H   0  0  0  0  0  0  0  0  0  0  0  0
    4.0383    0.1471   -1.9158 H   0  0  0  0  0  0  0  0  0  0  0  0
    6.8462    2.6681   -2.4385 H   0  0  0  0  0  0  0  0  0  0  0  0
    8.2213    2.7584   -0.0398 H   0  0  0  0  0  0  0  0  0  0  0  0
    4.8519    0.3429    0.4769 H   0  0  0  0  0  0  0  0  0  0  0  0
  1  2  2  0
  2  3  1  0
  3  4  1  0
  4  5  1  0
  5  6  1  0
  6  7  2  0
  6  8  1  0
  8  9  2  3
  9 10  1  0
 10 11  2  0
 11 12  1  0
 12 13  2  0
 13 14  1  0
 13 15  1  0
 15 16  2  0
  8 17  1  0
 17 18  1  0
 18 19  2  0
  2 20  1  0
 20 21  1  0
 21 22  1  0
 22 23  1  0
 23 24  1  0
 24 25  1  0
 25 26  2  0
 26 27  1  0
 27 28  2  0
 18  5  1  0
 28 24  1  0
 16 10  1  0
  3 29  1  0
  3 30  1  0
  4 31  1  0
  4 32  1  0
  9 33  1  0
 11 34  1  0
 12 35  1  0
 15 36  1  0
 16 37  1  0
 20 38  1  0
 21 39  1  0
 21 40  1  0
 22 41  1  0
 22 42  1  0
 23 43  1  0
 23 44  1  0
 25 45  1  0
 26 46  1  0
 28 47  1  0
M  END
$$$$
