
     RDKit          3D

 56 59  0  0  0  0  0  0  0  0999 V2000
   -5.6755    2.4485   -3.0582 C   0  0  0  0  0  0  0  0  0  0  0  0
   -4.1758    2.2695   -2.9303 C   0  0  0  0  0  0  0  0  0  0  0  0
   -3.9149    1.5715   -1.7074 O   0  0  0  0  0  0  0  0  0  0  0  0
   -2.5998    1.3006   -1.4763 C   0  0  0  0  0  0  0  0  0  0  0  0
   -1.6914    1.6328   -2.2345 O   0  0  0  0  0  0  0  0  0  0  0  0
   -2.3590    0.5841   -0.2186 C   0  0  0  0  0  0  0  0  0  0  0  0
   -1.0675    0.2845    0.2082 C   0  0  0  0  0  0  0  0  0  0  0  0
    0.1048    0.5873   -0.4724 N   0  0  0  0  0  0  0  0  0  0  0  0
    1.4098    0.2698   -0.1089 C   0  0  0  0  0  0  0  0  0  0  0  0
    1.7642   -0.3320    0.9008 O   0  0  0  0  0  0  0  0  0  0  0  0
    2.4096    0.8113   -1.1424 C   0  0  0  0  0  0  0  0  0  0  0  0
    3.7524    0.2994   -0.9132 N   0  0  0  0  0  0  0  0  0  0  0  0
    4.6159    1.1129   -0.2154 N   0  0  0  0  0  0  0  0  0  0  0  0
    5.7977    0.6554    0.0751 C   0  0  0  0  0  0  0  0  0  0  0  0
    6.7203    1.5867    0.8430 C   0  0  0  0  0  0  0  0  0  0  0  0
    7.0889    1.4043    1.9845 O   0  0  0  0  0  0  0  0  0  0  0  0
    7.1187    2.6219    0.0961 O   0  0  0  0  0  0  0  0  0  0  0  0
    6.2782   -0.6820   -0.2974 C   0  0  0  0  0  0  0  0  0  0  0  0
    7.5504   -1.1606    0.0404 C   0  0  0  0  0  0  0  0  0  0  0  0
    7.9404   -2.4415   -0.3604 C   0  0  0  0  0  0  0  0  0  0  0  0
    7.0679   -3.2431   -1.0958 C   0  0  0  0  0  0  0  0  0  0  0  0
    5.8007   -2.7664   -1.4311 C   0  0  0  0  0  0  0  0  0  0  0  0
    5.4081   -1.4831   -1.0292 C   0  0  0  0  0  0  0  0  0  0  0  0
    4.0683   -0.9741   -1.3756 C   0  0  0  0  0  0  0  0  0  0  0  0
    3.3064   -1.6672   -2.0461 O   0  0  0  0  0  0  0  0  0  0  0  0
   -1.0409   -0.5036    1.7083 S   0  0  0  0  0  0  0  0  0  0  0  0
   -2.7290   -0.4848    1.8310 C   0  0  0  0  0  0  0  0  0  0  0  0
   -3.3385    0.0960    0.7348 C   0  0  0  0  0  0  0  0  0  0  0  0
   -4.8375    0.2009    0.6481 C   0  0  0  0  0  0  0  0  0  0  0  0
   -5.5523   -0.6856    1.6817 C   0  0  0  0  0  0  0  0  0  0  0  0
   -4.8947   -0.5931    3.0723 C   0  0  0  0  0  0  0  0  0  0  0  0
   -5.6850   -1.3966    4.1028 C   0  0  0  0  0  0  0  0  0  0  0  0
   -3.4319   -1.0799    3.0130 C   0  0  0  0  0  0  0  0  0  0  0  0
   -6.0699    3.0163   -2.2092 H   0  0  0  0  0  0  0  0  0  0  0  0
   -6.1810    1.4770   -3.0530 H   0  0  0  0  0  0  0  0  0  0  0  0
   -5.9282    2.9736   -3.9836 H   0  0  0  0  0  0  0  0  0  0  0  0
   -3.7996    1.6866   -3.7785 H   0  0  0  0  0  0  0  0  0  0  0  0
   -3.6855    3.2489   -2.9071 H   0  0  0  0  0  0  0  0  0  0  0  0
   -0.0362    1.0623   -1.3632 H   0  0  0  0  0  0  0  0  0  0  0  0
    2.4254    1.9053   -1.0794 H   0  0  0  0  0  0  0  0  0  0  0  0
    2.0818    0.5197   -2.1466 H   0  0  0  0  0  0  0  0  0  0  0  0
    7.6549    3.1722    0.7026 H   0  0  0  0  0  0  0  0  0  0  0  0
    8.2513   -0.5652    0.6200 H   0  0  0  0  0  0  0  0  0  0  0  0
    8.9262   -2.8174   -0.0938 H   0  0  0  0  0  0  0  0  0  0  0  0
    7.3711   -4.2412   -1.4041 H   0  0  0  0  0  0  0  0  0  0  0  0
    5.1187   -3.3958   -2.0000 H   0  0  0  0  0  0  0  0  0  0  0  0
   -5.1854   -0.0901   -0.3490 H   0  0  0  0  0  0  0  0  0  0  0  0
   -5.1243    1.2471    0.8124 H   0  0  0  0  0  0  0  0  0  0  0  0
   -6.6074   -0.3918    1.7354 H   0  0  0  0  0  0  0  0  0  0  0  0
   -5.5315   -1.7291    1.3391 H   0  0  0  0  0  0  0  0  0  0  0  0
   -4.9016    0.4603    3.3850 H   0  0  0  0  0  0  0  0  0  0  0  0
   -6.7140   -1.0297    4.1743 H   0  0  0  0  0  0  0  0  0  0  0  0
   -5.7239   -2.4583    3.8360 H   0  0  0  0  0  0  0  0  0  0  0  0
   -5.2282   -1.3117    5.0941 H   0  0  0  0  0  0  0  0  0  0  0  0
   -2.9211   -0.8096    3.9447 H   0  0  0  0  0  0  0  0  0  0  0  0
   -3.4007   -2.1732    2.9257 H   0  0  0  0  0  0  0  0  0  0  0  0
  1  2  1  0
  2  3  1  0
  3  4  1  0
  4  5  2  0
  4  6  1  0
  6  7  2  0
  7  8  1  0
  8  9  1  0
  9 10  2  0
  9 11  1  0
 11 12  1  0
 12 13  1  0
 13 14  2  0
 14 15  1  0
 15 16  2  0
 15 17  1  0
 14 18  1  0
 18 19  2  0
 19 20  1  0
 20 21  2  0
 21 22  1  0
 22 23  2  0
 23 24  1  0
 24 25  2  0
  7 26  1  0
 26 27  1  0
 27 28  2  0
 28 29  1  0
 29 30  1  0
 30 31  1  0
 31 32  1  0
 31 33  1  0
 28  6  1  0
 24 12  1  0
 33 27  1  0
 23 18  1  0
  1 34  1  0
  1 35  1  0
  1 36  1  0
  2 37  1  0
  2 38  1  0
  8 39  1  0
 11 40  1  0
 11 41  1  0
 17 42  1  0
 19 43  1  0
 20 44  1  0
 21 45  1  0
 22 46  1  0
 29 47  1  0
 29 48  1  0
 30 49  1  0
 30 50  1  0
 31 51  1  0
 32 52  1  0
 32 53  1  0
 32 54  1  0
 33 55  1  0
 33 56  1  0
M  END
$$$$
