
     RDKit          3D

 79 86  0  0  0  0  0  0  0  0999 V2000
    3.5819   -5.4801    4.4770 C   0  0  0  0  0  0  0  0  0  0  0  0
    2.4119   -4.9914    3.8345 O   0  0  0  0  0  0  0  0  0  0  0  0
    2.5819   -3.9433    2.9672 C   0  0  0  0  0  0  0  0  0  0  0  0
    3.8006   -3.6044    2.3659 C   0  0  0  0  0  0  0  0  0  0  0  0
    3.8930   -2.5061    1.4995 C   0  0  0  0  0  0  0  0  0  0  0  0
    2.7639   -1.7446    1.1954 C   0  0  0  0  0  0  0  0  0  0  0  0
    1.5456   -2.1083    1.7692 C   0  0  0  0  0  0  0  0  0  0  0  0
    1.4408   -3.1886    2.6651 C   0  0  0  0  0  0  0  0  0  0  0  0
    0.2534   -3.5442    3.3041 O   0  0  0  0  0  0  0  0  0  0  0  0
   -0.8288   -2.7376    3.0392 C   0  0  0  0  0  0  0  0  0  0  0  0
   -0.9399   -1.4995    3.6751 C   0  0  0  0  0  0  0  0  0  0  0  0
   -1.8004   -0.5436    3.1431 C   0  0  0  0  0  0  0  0  0  0  0  0
   -2.5666   -0.8446    2.0077 C   0  0  0  0  0  0  0  0  0  0  0  0
   -2.5759   -2.1565    1.5058 C   0  0  0  0  0  0  0  0  0  0  0  0
   -1.6974   -3.1068    2.0158 C   0  0  0  0  0  0  0  0  0  0  0  0
   -3.3141    0.2551    1.2845 C   0  0  0  0  0  0  0  0  0  0  0  0
   -2.8765    0.3985   -0.2144 C   0  0  0  0  0  0  0  0  0  0  0  0
   -2.5413    1.8459   -0.5501 C   0  0  0  0  0  0  0  0  0  0  0  0
   -3.6245    2.7361   -0.7183 C   0  0  0  0  0  0  0  0  0  0  0  0
   -3.4068    4.0987   -0.9412 C   0  0  0  0  0  0  0  0  0  0  0  0
   -2.1039    4.5791   -1.0671 C   0  0  0  0  0  0  0  0  0  0  0  0
   -1.8037    5.8906   -1.3343 O   0  0  0  0  0  0  0  0  0  0  0  0
   -2.6880    6.8472   -0.7622 C   0  0  0  0  0  0  0  0  0  0  0  0
   -1.0297    3.6790   -1.0042 C   0  0  0  0  0  0  0  0  0  0  0  0
   -1.2336    2.3246   -0.7161 C   0  0  0  0  0  0  0  0  0  0  0  0
   -0.1672    1.4517   -0.6232 O   0  0  0  0  0  0  0  0  0  0  0  0
    1.0067    1.8823   -1.2066 C   0  0  0  0  0  0  0  0  0  0  0  0
    1.1769    3.2270   -1.5410 C   0  0  0  0  0  0  0  0  0  0  0  0
    2.3270    3.6678   -2.1912 C   0  0  0  0  0  0  0  0  0  0  0  0
    3.3040    2.7483   -2.5605 C   0  0  0  0  0  0  0  0  0  0  0  0
    3.1556    1.3924   -2.2362 C   0  0  0  0  0  0  0  0  0  0  0  0
    2.0285    0.9600   -1.4987 C   0  0  0  0  0  0  0  0  0  0  0  0
    2.0142   -0.4837   -0.9958 C   0  0  0  0  0  0  0  0  0  0  0  0
    2.8424   -0.5055    0.3353 C   0  0  0  0  0  0  0  0  0  0  0  0
    2.4855   -1.3529   -2.0975 N   0  0  0  0  0  0  0  0  0  0  0  0
    2.2379   -2.7713   -1.8796 C   0  0  0  0  0  0  0  0  0  0  0  0
    3.8831   -1.0858   -2.4426 C   0  0  0  0  0  0  0  0  0  0  0  0
    4.1812    0.3993   -2.7373 C   0  0  0  0  0  0  0  0  0  0  0  0
    0.2275    4.1723   -1.2575 O   0  0  0  0  0  0  0  0  0  0  0  0
   -5.0103    2.1438   -0.7107 C   0  0  0  0  0  0  0  0  0  0  0  0
   -4.9727    0.8279   -1.5070 C   0  0  0  0  0  0  0  0  0  0  0  0
   -3.9612   -0.1570   -1.0704 N   0  0  0  0  0  0  0  0  0  0  0  0
   -3.4187   -0.8877   -2.2155 C   0  0  0  0  0  0  0  0  0  0  0  0
    3.2674   -6.1642    5.2706 H   0  0  0  0  0  0  0  0  0  0  0  0
    4.2033   -6.0470    3.7765 H   0  0  0  0  0  0  0  0  0  0  0  0
    4.1539   -4.6688    4.9432 H   0  0  0  0  0  0  0  0  0  0  0  0
    4.7014   -4.1783    2.5546 H   0  0  0  0  0  0  0  0  0  0  0  0
    4.8582   -2.2525    1.0676 H   0  0  0  0  0  0  0  0  0  0  0  0
    0.6811   -1.5016    1.5217 H   0  0  0  0  0  0  0  0  0  0  0  0
   -0.2743   -1.2433    4.4941 H   0  0  0  0  0  0  0  0  0  0  0  0
   -1.8104    0.4563    3.5701 H   0  0  0  0  0  0  0  0  0  0  0  0
   -3.2047   -2.4156    0.6563 H   0  0  0  0  0  0  0  0  0  0  0  0
   -1.6175   -4.0866    1.5553 H   0  0  0  0  0  0  0  0  0  0  0  0
   -3.1591    1.2019    1.8164 H   0  0  0  0  0  0  0  0  0  0  0  0
   -4.3860    0.0396    1.3759 H   0  0  0  0  0  0  0  0  0  0  0  0
   -1.9677   -0.1972   -0.3680 H   0  0  0  0  0  0  0  0  0  0  0  0
   -4.2600    4.7569   -1.0685 H   0  0  0  0  0  0  0  0  0  0  0  0
   -2.1966    7.8235   -0.8049 H   0  0  0  0  0  0  0  0  0  0  0  0
   -2.8985    6.6237    0.2881 H   0  0  0  0  0  0  0  0  0  0  0  0
   -3.6126    6.9150   -1.3401 H   0  0  0  0  0  0  0  0  0  0  0  0
    2.4375    4.7187   -2.4470 H   0  0  0  0  0  0  0  0  0  0  0  0
    4.1753    3.0892   -3.1153 H   0  0  0  0  0  0  0  0  0  0  0  0
    0.9725   -0.7532   -0.7856 H   0  0  0  0  0  0  0  0  0  0  0  0
    2.5058    0.3269    0.9725 H   0  0  0  0  0  0  0  0  0  0  0  0
    3.8971   -0.2722    0.1401 H   0  0  0  0  0  0  0  0  0  0  0  0
    2.8856   -3.2093   -1.1175 H   0  0  0  0  0  0  0  0  0  0  0  0
    2.4097   -3.3268   -2.8090 H   0  0  0  0  0  0  0  0  0  0  0  0
    1.1940   -2.9517   -1.5996 H   0  0  0  0  0  0  0  0  0  0  0  0
    4.1656   -1.6677   -3.3285 H   0  0  0  0  0  0  0  0  0  0  0  0
    4.5532   -1.4333   -1.6462 H   0  0  0  0  0  0  0  0  0  0  0  0
    5.1608    0.6536   -2.3099 H   0  0  0  0  0  0  0  0  0  0  0  0
    4.2513    0.5233   -3.8273 H   0  0  0  0  0  0  0  0  0  0  0  0
   -5.3427    1.9840    0.3199 H   0  0  0  0  0  0  0  0  0  0  0  0
   -5.7248    2.8267   -1.1844 H   0  0  0  0  0  0  0  0  0  0  0  0
   -4.8041    1.0925   -2.5604 H   0  0  0  0  0  0  0  0  0  0  0  0
   -5.9589    0.3526   -1.4619 H   0  0  0  0  0  0  0  0  0  0  0  0
   -2.8278   -0.2470   -2.8779 H   0  0  0  0  0  0  0  0  0  0  0  0
   -2.7841   -1.7127   -1.8774 H   0  0  0  0  0  0  0  0  0  0  0  0
   -4.2266   -1.3400   -2.7988 H   0  0  0  0  0  0  0  0  0  0  0  0
  1  2  1  0
  2  3  1  0
  3  4  2  0
  4  5  1  0
  5  6  2  0
  6  7  1  0
  7  8  2  0
  8  9  1  0
  9 10  1  0
 10 11  2  0
 11 12  1  0
 12 13  2  0
 13 14  1  0
 14 15  2  0
 13 16  1  0
 16 17  1  0
 17 18  1  0
 18 19  2  0
 19 20  1  0
 20 21  2  0
 21 22  1  0
 22 23  1  0
 21 24  1  0
 24 25  2  0
 25 26  1  0
 26 27  1  0
 27 28  2  0
 28 29  1  0
 29 30  2  0
 30 31  1  0
 31 32  2  0
 32 33  1  0
 33 34  1  0
 33 35  1  0
 35 36  1  0
 35 37  1  0
 37 38  1  0
 28 39  1  0
 19 40  1  0
 40 41  1  0
 41 42  1  0
 42 43  1  0
  8  3  1  0
 15 10  1  0
 42 17  1  0
 34  6  1  0
 25 18  1  0
 32 27  1  0
 39 24  1  0
 38 31  1  0
  1 44  1  0
  1 45  1  0
  1 46  1  0
  4 47  1  0
  5 48  1  0
  7 49  1  0
 11 50  1  0
 12 51  1  0
 14 52  1  0
 15 53  1  0
 16 54  1  0
 16 55  1  0
 17 56  1  0
 20 57  1  0
 23 58  1  0
 23 59  1  0
 23 60  1  0
 29 61  1  0
 30 62  1  0
 33 63  1  0
 34 64  1  0
 34 65  1  0
 36 66  1  0
 36 67  1  0
 36 68  1  0
 37 69  1  0
 37 70  1  0
 38 71  1  0
 38 72  1  0
 40 73  1  0
 40 74  1  0
 41 75  1  0
 41 76  1  0
 43 77  1  0
 43 78  1  0
 43 79  1  0
M  END
$$$$
