
     RDKit          3D

 30 31  0  0  0  0  0  0  0  0999 V2000
    2.4454   -3.3701   -0.8541 C   0  0  0  0  0  0  0  0  0  0  0  0
    1.6517   -2.2057   -0.2949 C   0  0  0  0  0  0  0  0  0  0  0  0
    0.4045   -2.4523    0.0069 N   0  0  0  0  0  0  0  0  0  0  0  0
   -0.4314   -1.4177    0.3467 N   0  0  0  0  0  0  0  0  0  0  0  0
   -0.7394   -0.4346   -0.5942 C   0  0  0  0  0  0  0  0  0  0  0  0
   -0.2172   -0.3254   -1.7026 O   0  0  0  0  0  0  0  0  0  0  0  0
   -1.8217    0.5196   -0.2237 C   0  0  0  0  0  0  0  0  0  0  0  0
   -2.1828    0.7302    1.1150 C   0  0  0  0  0  0  0  0  0  0  0  0
   -3.2060    1.6286    1.4242 C   0  0  0  0  0  0  0  0  0  0  0  0
   -3.6452    1.8784    3.0694 Cl  0  0  0  0  0  0  0  0  0  0  0  0
   -3.8719    2.3268    0.4188 C   0  0  0  0  0  0  0  0  0  0  0  0
   -3.5042    2.1369   -0.9124 C   0  0  0  0  0  0  0  0  0  0  0  0
   -2.4793    1.2467   -1.2295 C   0  0  0  0  0  0  0  0  0  0  0  0
   -2.1701    1.1374   -2.5589 O   0  0  0  0  0  0  0  0  0  0  0  0
    2.3504   -0.9411   -0.0916 C   0  0  0  0  0  0  0  0  0  0  0  0
    2.2450   -0.0539    0.9679 C   0  0  0  0  0  0  0  0  0  0  0  0
    3.0842    1.0899    0.8140 C   0  0  0  0  0  0  0  0  0  0  0  0
    3.8025    1.0194   -0.3511 C   0  0  0  0  0  0  0  0  0  0  0  0
    5.0396    2.3645   -0.9093 Br  0  0  0  0  0  0  0  0  0  0  0  0
    3.4949   -0.3834   -1.2451 S   0  0  0  0  0  0  0  0  0  0  0  0
    3.4315   -3.4218   -0.3836 H   0  0  0  0  0  0  0  0  0  0  0  0
    2.5610   -3.2502   -1.9351 H   0  0  0  0  0  0  0  0  0  0  0  0
    1.9215   -4.3122   -0.6655 H   0  0  0  0  0  0  0  0  0  0  0  0
   -1.2136   -1.7279    0.9173 H   0  0  0  0  0  0  0  0  0  0  0  0
   -1.6665    0.2251    1.9259 H   0  0  0  0  0  0  0  0  0  0  0  0
   -4.6684    3.0252    0.6628 H   0  0  0  0  0  0  0  0  0  0  0  0
   -4.0087    2.6858   -1.7040 H   0  0  0  0  0  0  0  0  0  0  0  0
   -1.3516    0.5956   -2.6410 H   0  0  0  0  0  0  0  0  0  0  0  0
    1.5956   -0.2199    1.8188 H   0  0  0  0  0  0  0  0  0  0  0  0
    3.1502    1.9063    1.5224 H   0  0  0  0  0  0  0  0  0  0  0  0
  1  2  1  0
  2  3  2  3
  3  4  1  0
  4  5  1  0
  5  6  2  0
  5  7  1  0
  7  8  2  0
  8  9  1  0
  9 10  1  0
  9 11  2  0
 11 12  1  0
 12 13  2  0
 13 14  1  0
  2 15  1  0
 15 16  2  0
 16 17  1  0
 17 18  2  0
 18 19  1  0
 18 20  1  0
 13  7  1  0
 20 15  1  0
  1 21  1  0
  1 22  1  0
  1 23  1  0
  4 24  1  0
  8 25  1  0
 11 26  1  0
 12 27  1  0
 14 28  1  0
 16 29  1  0
 17 30  1  0
M  END
$$$$
