
     RDKit          3D

 45 47  0  0  0  0  0  0  0  0999 V2000
    1.4098   -3.4503    2.0289 C   0  0  0  0  0  0  0  0  0  0  0  0
    2.6344   -2.6203    1.7640 C   0  0  0  0  0  0  0  0  0  0  0  0
    3.8843   -3.0865    2.2175 C   0  0  0  0  0  0  0  0  0  0  0  0
    5.0524   -2.3636    1.9937 C   0  0  0  0  0  0  0  0  0  0  0  0
    5.0176   -1.1455    1.3155 C   0  0  0  0  0  0  0  0  0  0  0  0
    3.7728   -0.6697    0.8759 C   0  0  0  0  0  0  0  0  0  0  0  0
    3.4144    0.7774    0.0216 S   0  0  0  0  0  0  0  0  0  0  0  0
    1.7449    0.3986    0.0438 C   0  0  0  0  0  0  0  0  0  0  0  0
    0.7951    1.2079   -0.5961 N   0  0  0  0  0  0  0  0  0  0  0  0
   -0.5677    0.6595   -0.7610 C   0  0  0  0  0  0  0  0  0  0  0  0
   -1.4422    0.9268    0.4695 C   0  0  0  0  0  0  0  0  0  0  0  0
   -2.9076    0.5301    0.2486 C   0  0  0  0  0  0  0  0  0  0  0  0
   -3.0994   -0.8559   -0.2046 N   0  0  0  0  0  0  0  0  0  0  0  0
   -2.7120   -1.8257    0.8249 C   0  0  0  0  0  0  0  0  0  0  0  0
   -4.4989   -1.0735   -0.5827 C   0  0  0  0  0  0  0  0  0  0  0  0
    1.0395    2.5874   -0.7619 C   0  0  0  0  0  0  0  0  0  0  0  0
    1.8859    3.2178   -0.1284 O   0  0  0  0  0  0  0  0  0  0  0  0
    0.2116    3.2755   -1.7465 C   0  0  0  0  0  0  0  0  0  0  0  0
    0.0224    2.9823   -3.0872 C   0  0  0  0  0  0  0  0  0  0  0  0
   -0.8424    3.9209   -3.7274 C   0  0  0  0  0  0  0  0  0  0  0  0
   -1.2641    4.8831   -2.8468 C   0  0  0  0  0  0  0  0  0  0  0  0
   -2.3075    6.2028   -3.1937 Cl  0  0  0  0  0  0  0  0  0  0  0  0
   -0.6385    4.6928   -1.2867 S   0  0  0  0  0  0  0  0  0  0  0  0
    1.4506   -0.7664    0.5783 N   0  0  0  0  0  0  0  0  0  0  0  0
    2.5890   -1.3766    1.0861 C   0  0  0  0  0  0  0  0  0  0  0  0
    0.5320   -3.0468    1.5154 H   0  0  0  0  0  0  0  0  0  0  0  0
    1.5617   -4.4750    1.6732 H   0  0  0  0  0  0  0  0  0  0  0  0
    1.1986   -3.4724    3.1030 H   0  0  0  0  0  0  0  0  0  0  0  0
    3.9451   -4.0366    2.7464 H   0  0  0  0  0  0  0  0  0  0  0  0
    6.0044   -2.7544    2.3460 H   0  0  0  0  0  0  0  0  0  0  0  0
    5.9273   -0.5821    1.1349 H   0  0  0  0  0  0  0  0  0  0  0  0
   -1.0450    1.0884   -1.6459 H   0  0  0  0  0  0  0  0  0  0  0  0
   -0.4895   -0.4167   -0.9617 H   0  0  0  0  0  0  0  0  0  0  0  0
   -1.4141    1.9955    0.7175 H   0  0  0  0  0  0  0  0  0  0  0  0
   -1.0312    0.4102    1.3449 H   0  0  0  0  0  0  0  0  0  0  0  0
   -3.3135    1.2117   -0.5103 H   0  0  0  0  0  0  0  0  0  0  0  0
   -3.4734    0.7186    1.1706 H   0  0  0  0  0  0  0  0  0  0  0  0
   -2.8840   -2.8496    0.4722 H   0  0  0  0  0  0  0  0  0  0  0  0
   -1.6430   -1.7595    1.0497 H   0  0  0  0  0  0  0  0  0  0  0  0
   -3.2737   -1.6844    1.7563 H   0  0  0  0  0  0  0  0  0  0  0  0
   -5.1845   -0.9238    0.2598 H   0  0  0  0  0  0  0  0  0  0  0  0
   -4.6399   -2.0900   -0.9672 H   0  0  0  0  0  0  0  0  0  0  0  0
   -4.7896   -0.3942   -1.3922 H   0  0  0  0  0  0  0  0  0  0  0  0
    0.4919    2.1422   -3.5865 H   0  0  0  0  0  0  0  0  0  0  0  0
   -1.1238    3.8903   -4.7716 H   0  0  0  0  0  0  0  0  0  0  0  0
  1  2  1  0
  2  3  2  0
  3  4  1  0
  4  5  2  0
  5  6  1  0
  6  7  1  0
  7  8  1  0
  8  9  1  0
  9 10  1  0
 10 11  1  0
 11 12  1  0
 12 13  1  0
 13 14  1  0
 13 15  1  0
  9 16  1  0
 16 17  2  0
 16 18  1  0
 18 19  2  0
 19 20  1  0
 20 21  2  0
 21 22  1  0
 21 23  1  0
  8 24  2  0
 24 25  1  0
 25  2  1  0
 25  6  2  0
 23 18  1  0
  1 26  1  0
  1 27  1  0
  1 28  1  0
  3 29  1  0
  4 30  1  0
  5 31  1  0
 10 32  1  0
 10 33  1  0
 11 34  1  0
 11 35  1  0
 12 36  1  0
 12 37  1  0
 14 38  1  0
 14 39  1  0
 14 40  1  0
 15 41  1  0
 15 42  1  0
 15 43  1  0
 19 44  1  0
 20 45  1  0
M  END
$$$$
