
     RDKit          3D

 61 64  0  0  0  0  0  0  0  0999 V2000
    8.3907    0.4309   -3.5122 C   0  0  0  0  0  0  0  0  0  0  0  0
    7.4294    0.0237   -2.4351 C   0  0  0  0  0  0  0  0  0  0  0  0
    7.6801    0.3537   -1.0986 C   0  0  0  0  0  0  0  0  0  0  0  0
    6.7700    0.0009   -0.0993 C   0  0  0  0  0  0  0  0  0  0  0  0
    5.5867   -0.6764   -0.4199 C   0  0  0  0  0  0  0  0  0  0  0  0
    4.5916   -1.0255    0.6597 C   0  0  0  0  0  0  0  0  0  0  0  0
    3.9055    0.1463    1.1750 N   0  0  0  0  0  0  0  0  0  0  0  0
    3.0690    0.9806    0.3518 C   0  0  0  0  0  0  0  0  0  0  0  0
    2.4639    1.9802    1.3234 C   0  0  0  0  0  0  0  0  0  0  0  0
    1.0750    1.5275    1.7617 C   0  0  0  0  0  0  0  0  0  0  0  0
    0.8743    1.0351    2.8639 O   0  0  0  0  0  0  0  0  0  0  0  0
    0.1224    1.7325    0.7731 N   0  0  0  0  0  0  0  0  0  0  0  0
   -1.2533    1.4216    0.8293 C   0  0  0  0  0  0  0  0  0  0  0  0
   -1.8710    0.7930    1.9146 C   0  0  0  0  0  0  0  0  0  0  0  0
   -3.2436    0.5191    1.8933 C   0  0  0  0  0  0  0  0  0  0  0  0
   -4.0011    0.8767    0.7778 C   0  0  0  0  0  0  0  0  0  0  0  0
   -5.7453    0.5408    0.7332 S   0  0  0  0  0  6  0  0  0  0  0  0
   -6.4018    1.7983    0.4491 O   0  0  0  0  0  0  0  0  0  0  0  0
   -6.0895   -0.2380    1.9036 O   0  0  0  0  0  0  0  0  0  0  0  0
   -5.8966   -0.4642   -0.6349 N   0  0  0  0  0  0  0  0  0  0  0  0
   -5.2007   -1.7766   -0.6155 C   0  0  0  0  0  0  0  0  0  0  0  0
   -6.0325   -2.8628    0.0593 C   0  0  0  0  0  0  0  0  0  0  0  0
   -7.4374   -2.9470   -0.5272 C   0  0  0  0  0  0  0  0  0  0  0  0
   -8.1148   -1.5804   -0.5162 C   0  0  0  0  0  0  0  0  0  0  0  0
   -7.2554   -0.5433   -1.2289 C   0  0  0  0  0  0  0  0  0  0  0  0
   -3.4029    1.5085   -0.3122 C   0  0  0  0  0  0  0  0  0  0  0  0
   -2.0312    1.7755   -0.2842 C   0  0  0  0  0  0  0  0  0  0  0  0
    3.4665    2.0445    2.4774 C   0  0  0  0  0  0  0  0  0  0  0  0
    4.2263    0.7458    2.3794 C   0  0  0  0  0  0  0  0  0  0  0  0
    5.0310    0.3408    3.2039 O   0  0  0  0  0  0  0  0  0  0  0  0
    5.3317   -0.9958   -1.7600 C   0  0  0  0  0  0  0  0  0  0  0  0
    6.2435   -0.6428   -2.7589 C   0  0  0  0  0  0  0  0  0  0  0  0
    8.1161    1.4150   -3.9054 H   0  0  0  0  0  0  0  0  0  0  0  0
    8.3849   -0.2928   -4.3338 H   0  0  0  0  0  0  0  0  0  0  0  0
    9.4151    0.4770   -3.1274 H   0  0  0  0  0  0  0  0  0  0  0  0
    8.5880    0.8850   -0.8245 H   0  0  0  0  0  0  0  0  0  0  0  0
    6.9844    0.2604    0.9363 H   0  0  0  0  0  0  0  0  0  0  0  0
    5.1102   -1.5428    1.4754 H   0  0  0  0  0  0  0  0  0  0  0  0
    3.8278   -1.7134    0.2786 H   0  0  0  0  0  0  0  0  0  0  0  0
    2.3357    0.3629   -0.1737 H   0  0  0  0  0  0  0  0  0  0  0  0
    3.7039    1.4937   -0.3775 H   0  0  0  0  0  0  0  0  0  0  0  0
    2.3523    2.9711    0.8659 H   0  0  0  0  0  0  0  0  0  0  0  0
    0.4267    2.2007   -0.0706 H   0  0  0  0  0  0  0  0  0  0  0  0
   -1.3156    0.5039    2.8025 H   0  0  0  0  0  0  0  0  0  0  0  0
   -3.7055    0.0361    2.7525 H   0  0  0  0  0  0  0  0  0  0  0  0
   -4.9939   -2.0583   -1.6558 H   0  0  0  0  0  0  0  0  0  0  0  0
   -4.2242   -1.6967   -0.1286 H   0  0  0  0  0  0  0  0  0  0  0  0
   -6.1006   -2.6729    1.1367 H   0  0  0  0  0  0  0  0  0  0  0  0
   -5.5295   -3.8306   -0.0549 H   0  0  0  0  0  0  0  0  0  0  0  0
   -7.3818   -3.3190   -1.5582 H   0  0  0  0  0  0  0  0  0  0  0  0
   -8.0367   -3.6659    0.0424 H   0  0  0  0  0  0  0  0  0  0  0  0
   -8.3003   -1.2717    0.5194 H   0  0  0  0  0  0  0  0  0  0  0  0
   -9.0911   -1.6506   -1.0084 H   0  0  0  0  0  0  0  0  0  0  0  0
   -7.7457    0.4358   -1.2129 H   0  0  0  0  0  0  0  0  0  0  0  0
   -7.1482   -0.8069   -2.2892 H   0  0  0  0  0  0  0  0  0  0  0  0
   -3.9985    1.7965   -1.1764 H   0  0  0  0  0  0  0  0  0  0  0  0
   -1.5851    2.2689   -1.1434 H   0  0  0  0  0  0  0  0  0  0  0  0
    4.1801    2.8605    2.3214 H   0  0  0  0  0  0  0  0  0  0  0  0
    3.0062    2.1474    3.4629 H   0  0  0  0  0  0  0  0  0  0  0  0
    4.4210   -1.5204   -2.0371 H   0  0  0  0  0  0  0  0  0  0  0  0
    6.0240   -0.8958   -3.7940 H   0  0  0  0  0  0  0  0  0  0  0  0
  1  2  1  0
  2  3  2  0
  3  4  1  0
  4  5  2  0
  5  6  1  0
  6  7  1  0
  7  8  1  0
  8  9  1  0
  9 10  1  0
 10 11  2  0
 10 12  1  0
 12 13  1  0
 13 14  2  0
 14 15  1  0
 15 16  2  0
 16 17  1  0
 17 18  2  0
 17 19  2  0
 17 20  1  0
 20 21  1  0
 21 22  1  0
 22 23  1  0
 23 24  1  0
 24 25  1  0
 16 26  1  0
 26 27  2  0
  9 28  1  0
 28 29  1  0
 29 30  2  0
  5 31  1  0
 31 32  2  0
 32  2  1  0
 29  7  1  0
 27 13  1  0
 25 20  1  0
  1 33  1  0
  1 34  1  0
  1 35  1  0
  3 36  1  0
  4 37  1  0
  6 38  1  0
  6 39  1  0
  8 40  1  0
  8 41  1  0
  9 42  1  0
 12 43  1  0
 14 44  1  0
 15 45  1  0
 21 46  1  0
 21 47  1  0
 22 48  1  0
 22 49  1  0
 23 50  1  0
 23 51  1  0
 24 52  1  0
 24 53  1  0
 25 54  1  0
 25 55  1  0
 26 56  1  0
 27 57  1  0
 28 58  1  0
 28 59  1  0
 31 60  1  0
 32 61  1  0
M  END
$$$$
