
     RDKit          3D

 46 48  0  0  0  0  0  0  0  0999 V2000
   -7.3618   -0.8718    1.2229 C   0  0  0  0  0  0  0  0  0  0  0  0
   -6.1020   -1.1351    2.0372 C   0  0  0  0  0  0  0  0  0  0  0  0
   -4.8050   -0.8154    1.2919 C   0  0  0  0  0  0  0  0  0  0  0  0
   -4.5181   -1.9614   -0.1021 S   0  0  0  0  0  0  0  0  0  0  0  0
   -2.9577   -1.3540   -0.7366 C   0  0  0  0  0  0  0  0  0  0  0  0
   -2.4565   -0.2417   -0.1451 N   0  0  0  0  0  0  0  0  0  0  0  0
   -1.2751    0.2748   -0.5854 C   0  0  0  0  0  0  0  0  0  0  0  0
   -0.8089    1.5059    0.1397 C   0  0  0  0  0  0  0  0  0  0  0  0
   -0.5529   -0.2982   -1.6364 C   0  0  0  0  0  0  0  0  0  0  0  0
    0.7132    0.2444   -2.1028 C   0  0  0  0  0  0  0  0  0  0  0  0
    1.0169    0.4453   -3.4308 C   0  0  0  0  0  0  0  0  0  0  0  0
    2.5968    1.0799   -3.5765 S   0  0  0  0  0  0  0  0  0  0  0  0
    2.7891    1.0567   -1.8409 C   0  0  0  0  0  0  0  0  0  0  0  0
    4.0198    1.4978   -1.2332 C   0  0  0  0  0  0  0  0  0  0  0  0
    4.8810    2.3938   -1.9484 C   0  0  0  0  0  0  0  0  0  0  0  0
    5.5848    3.1223   -2.5162 N   0  0  0  0  0  0  0  0  0  0  0  0
    4.3728    1.0920    0.0122 C   0  0  0  0  0  0  0  0  0  0  0  0
    5.6692    1.4709    0.7012 C   0  0  0  0  0  0  0  0  0  0  0  0
    5.8299    0.4009    1.7722 C   0  0  0  0  0  0  0  0  0  0  0  0
    4.4051    0.1295    2.2162 C   0  0  0  0  0  0  0  0  0  0  0  0
    3.6002    0.1565    0.9206 C   0  0  0  0  0  0  0  0  0  0  0  0
    1.7150    0.5948   -1.2196 N   0  0  0  0  0  0  0  0  0  0  0  0
   -1.0854   -1.4466   -2.2350 C   0  0  0  0  0  0  0  0  0  0  0  0
   -2.2985   -1.9857   -1.7870 C   0  0  0  0  0  0  0  0  0  0  0  0
   -2.8061   -3.1623   -2.4238 C   0  0  0  0  0  0  0  0  0  0  0  0
   -3.1731   -4.1157   -2.9753 N   0  0  0  0  0  0  0  0  0  0  0  0
   -8.2490   -1.0289    1.8452 H   0  0  0  0  0  0  0  0  0  0  0  0
   -7.4383   -1.5453    0.3638 H   0  0  0  0  0  0  0  0  0  0  0  0
   -7.3835    0.1601    0.8573 H   0  0  0  0  0  0  0  0  0  0  0  0
   -6.1414   -0.5072    2.9357 H   0  0  0  0  0  0  0  0  0  0  0  0
   -6.0978   -2.1749    2.3866 H   0  0  0  0  0  0  0  0  0  0  0  0
   -4.8358    0.2162    0.9235 H   0  0  0  0  0  0  0  0  0  0  0  0
   -3.9668   -0.9065    1.9927 H   0  0  0  0  0  0  0  0  0  0  0  0
    0.0665    1.2784    0.7553 H   0  0  0  0  0  0  0  0  0  0  0  0
   -1.5942    1.8790    0.8063 H   0  0  0  0  0  0  0  0  0  0  0  0
   -0.5700    2.3083   -0.5655 H   0  0  0  0  0  0  0  0  0  0  0  0
    0.4087    0.2646   -4.3060 H   0  0  0  0  0  0  0  0  0  0  0  0
    5.5645    2.4587    1.1657 H   0  0  0  0  0  0  0  0  0  0  0  0
    6.5349    1.4753    0.0318 H   0  0  0  0  0  0  0  0  0  0  0  0
    6.2745   -0.5067    1.3438 H   0  0  0  0  0  0  0  0  0  0  0  0
    6.4663    0.7335    2.5977 H   0  0  0  0  0  0  0  0  0  0  0  0
    4.0626    0.9231    2.8921 H   0  0  0  0  0  0  0  0  0  0  0  0
    4.3070   -0.8249    2.7426 H   0  0  0  0  0  0  0  0  0  0  0  0
    3.5620   -0.8472    0.4828 H   0  0  0  0  0  0  0  0  0  0  0  0
    2.5863    0.5076    1.1304 H   0  0  0  0  0  0  0  0  0  0  0  0
   -0.5491   -1.9407   -3.0448 H   0  0  0  0  0  0  0  0  0  0  0  0
  1  2  1  0
  2  3  1  0
  3  4  1  0
  4  5  1  0
  5  6  2  0
  6  7  1  0
  7  8  1  0
  7  9  2  0
  9 10  1  0
 10 11  2  0
 11 12  1  0
 12 13  1  0
 13 14  1  0
 14 15  1  0
 15 16  3  0
 14 17  2  3
 17 18  1  0
 18 19  1  0
 19 20  1  0
 20 21  1  0
 13 22  2  0
  9 23  1  0
 23 24  2  0
 24 25  1  0
 25 26  3  0
 24  5  1  0
 22 10  1  0
 21 17  1  0
  1 27  1  0
  1 28  1  0
  1 29  1  0
  2 30  1  0
  2 31  1  0
  3 32  1  0
  3 33  1  0
  8 34  1  0
  8 35  1  0
  8 36  1  0
 11 37  1  0
 18 38  1  0
 18 39  1  0
 19 40  1  0
 19 41  1  0
 20 42  1  0
 20 43  1  0
 21 44  1  0
 21 45  1  0
 23 46  1  0
M  END
$$$$
