
     RDKit          3D

 49 51  0  0  0  0  0  0  0  0999 V2000
   -5.1469    1.0721    3.9124 C   0  0  0  0  0  0  0  0  0  0  0  0
   -5.6504    0.9673    2.5887 O   0  0  0  0  0  0  0  0  0  0  0  0
   -4.9434    0.1962    1.6992 C   0  0  0  0  0  0  0  0  0  0  0  0
   -3.8120   -0.5556    2.0307 C   0  0  0  0  0  0  0  0  0  0  0  0
   -3.1585   -1.3177    1.0585 C   0  0  0  0  0  0  0  0  0  0  0  0
   -3.6226   -1.3298   -0.2576 C   0  0  0  0  0  0  0  0  0  0  0  0
   -2.9724   -2.1481   -1.2848 C   0  0  0  0  0  0  0  0  0  0  0  0
   -1.7502   -1.9608   -1.8033 C   0  0  0  0  0  0  0  0  0  0  0  0
   -1.1037   -2.9973   -3.0281 S   0  0  0  0  0  0  0  0  0  0  0  0
    0.3988   -2.1023   -3.1205 C   0  0  0  0  0  0  0  0  0  0  0  0
    1.3421   -2.4633   -3.8056 O   0  0  0  0  0  0  0  0  0  0  0  0
    0.3446   -1.0111   -2.2982 N   0  0  0  0  0  0  0  0  0  0  0  0
    1.4779   -0.1062   -2.1736 C   0  0  0  0  0  0  0  0  0  0  0  0
    2.4625   -0.5759   -1.1068 C   0  0  0  0  0  0  0  0  0  0  0  0
    3.6374    0.3758   -0.9890 C   0  0  0  0  0  0  0  0  0  0  0  0
    3.7367    1.3680   -1.7006 O   0  0  0  0  0  0  0  0  0  0  0  0
    4.5269   -0.0351   -0.0098 N   0  0  0  0  0  0  0  0  0  0  0  0
    5.7241    0.5981    0.3850 C   0  0  0  0  0  0  0  0  0  0  0  0
    6.4654   -0.0165    1.4037 C   0  0  0  0  0  0  0  0  0  0  0  0
    7.6617    0.5469    1.8555 C   0  0  0  0  0  0  0  0  0  0  0  0
    8.1300    1.7301    1.2923 C   0  0  0  0  0  0  0  0  0  0  0  0
    7.4010    2.3480    0.2794 C   0  0  0  0  0  0  0  0  0  0  0  0
    6.2032    1.7844   -0.1731 C   0  0  0  0  0  0  0  0  0  0  0  0
   -0.7559   -0.8958   -1.4776 C   0  0  0  0  0  0  0  0  0  0  0  0
   -0.8797   -0.0686   -0.5872 O   0  0  0  0  0  0  0  0  0  0  0  0
   -4.7612   -0.5865   -0.5935 C   0  0  0  0  0  0  0  0  0  0  0  0
   -5.4238    0.1796    0.3743 C   0  0  0  0  0  0  0  0  0  0  0  0
   -6.5443    0.9361    0.1309 O   0  0  0  0  0  0  0  0  0  0  0  0
   -7.0163    1.0071   -1.2065 C   0  0  0  0  0  0  0  0  0  0  0  0
   -5.8043    1.7475    4.4679 H   0  0  0  0  0  0  0  0  0  0  0  0
   -5.1655    0.1016    4.4185 H   0  0  0  0  0  0  0  0  0  0  0  0
   -4.1411    1.5054    3.9211 H   0  0  0  0  0  0  0  0  0  0  0  0
   -3.4106   -0.5714    3.0380 H   0  0  0  0  0  0  0  0  0  0  0  0
   -2.2800   -1.8923    1.3414 H   0  0  0  0  0  0  0  0  0  0  0  0
   -3.5938   -2.9664   -1.6462 H   0  0  0  0  0  0  0  0  0  0  0  0
    1.1013    0.8935   -1.9259 H   0  0  0  0  0  0  0  0  0  0  0  0
    1.9797   -0.0378   -3.1464 H   0  0  0  0  0  0  0  0  0  0  0  0
    2.8436   -1.5730   -1.3570 H   0  0  0  0  0  0  0  0  0  0  0  0
    1.9634   -0.6395   -0.1326 H   0  0  0  0  0  0  0  0  0  0  0  0
    4.3002   -0.8887    0.4848 H   0  0  0  0  0  0  0  0  0  0  0  0
    6.1247   -0.9411    1.8614 H   0  0  0  0  0  0  0  0  0  0  0  0
    8.2270    0.0613    2.6465 H   0  0  0  0  0  0  0  0  0  0  0  0
    9.0596    2.1721    1.6410 H   0  0  0  0  0  0  0  0  0  0  0  0
    7.7610    3.2731   -0.1643 H   0  0  0  0  0  0  0  0  0  0  0  0
    5.6696    2.3017   -0.9636 H   0  0  0  0  0  0  0  0  0  0  0  0
   -5.1158   -0.6184   -1.6184 H   0  0  0  0  0  0  0  0  0  0  0  0
   -6.2579    1.4308   -1.8733 H   0  0  0  0  0  0  0  0  0  0  0  0
   -7.3505    0.0255   -1.5585 H   0  0  0  0  0  0  0  0  0  0  0  0
   -7.8818    1.6767   -1.2206 H   0  0  0  0  0  0  0  0  0  0  0  0
  1  2  1  0
  2  3  1  0
  3  4  2  0
  4  5  1  0
  5  6  2  0
  6  7  1  0
  7  8  2  3
  8  9  1  0
  9 10  1  0
 10 11  2  0
 10 12  1  0
 12 13  1  0
 13 14  1  0
 14 15  1  0
 15 16  2  0
 15 17  1  0
 17 18  1  0
 18 19  2  0
 19 20  1  0
 20 21  2  0
 21 22  1  0
 22 23  2  0
 12 24  1  0
 24 25  2  0
  6 26  1  0
 26 27  2  0
 27 28  1  0
 28 29  1  0
 27  3  1  0
 24  8  1  0
 23 18  1  0
  1 30  1  0
  1 31  1  0
  1 32  1  0
  4 33  1  0
  5 34  1  0
  7 35  1  0
 13 36  1  0
 13 37  1  0
 14 38  1  0
 14 39  1  0
 17 40  1  0
 19 41  1  0
 20 42  1  0
 21 43  1  0
 22 44  1  0
 23 45  1  0
 26 46  1  0
 29 47  1  0
 29 48  1  0
 29 49  1  0
M  END
$$$$
