
     RDKit          3D

 44 47  0  0  0  0  0  0  0  0999 V2000
   -0.1508   -3.9209   -0.2684 O   0  0  0  0  0  0  0  0  0  0  0  0
   -0.0496   -2.6901   -0.2454 C   0  0  0  0  0  0  0  0  0  0  0  0
    1.2809   -2.0363   -0.5794 C   0  0  0  0  0  0  0  0  0  0  0  0
    2.1455   -1.5893    0.9556 S   0  0  0  0  0  0  0  0  0  0  0  0
    3.5058   -0.7655    0.2986 C   0  0  0  0  0  0  0  0  0  0  0  0
    3.6283   -0.2660   -0.9053 N   0  0  0  0  0  0  0  0  0  0  0  0
    4.8889    0.2830   -0.9287 C   0  0  0  0  0  0  0  0  0  0  0  0
    5.5538    0.9466   -1.9685 C   0  0  0  0  0  0  0  0  0  0  0  0
    6.8484    1.4156   -1.7278 C   0  0  0  0  0  0  0  0  0  0  0  0
    7.6895    2.2442   -2.9825 Cl  0  0  0  0  0  0  0  0  0  0  0  0
    7.4742    1.2310   -0.4915 C   0  0  0  0  0  0  0  0  0  0  0  0
    6.8234    0.5707    0.5574 C   0  0  0  0  0  0  0  0  0  0  0  0
    5.5312    0.1123    0.2963 C   0  0  0  0  0  0  0  0  0  0  0  0
    4.6137   -0.5587    1.0649 N   0  0  0  0  0  0  0  0  0  0  0  0
   -1.1331   -1.8832    0.0822 N   0  0  0  0  0  0  0  0  0  0  0  0
   -1.1179   -0.4167    0.1470 C   0  0  0  0  0  0  0  0  0  0  0  0
   -2.4883    0.2063   -0.1642 C   0  0  0  0  0  0  0  0  0  0  0  0
   -3.5793   -0.3573    0.6375 N   0  0  0  0  0  0  0  0  0  0  0  0
   -4.7893    0.2910    0.9118 C   0  0  0  0  0  0  0  0  0  0  0  0
   -5.5346   -0.1519    1.7894 O   0  0  0  0  0  0  0  0  0  0  0  0
   -5.1625    1.4825    0.1614 C   0  0  0  0  0  0  0  0  0  0  0  0
   -6.1658    2.4039    0.4152 C   0  0  0  0  0  0  0  0  0  0  0  0
   -6.1404    3.3490   -0.6372 C   0  0  0  0  0  0  0  0  0  0  0  0
   -5.1389    2.9439   -1.4846 C   0  0  0  0  0  0  0  0  0  0  0  0
   -4.5472    1.8157   -1.0171 O   0  0  0  0  0  0  0  0  0  0  0  0
   -3.3143   -1.6412    1.2903 C   0  0  0  0  0  0  0  0  0  0  0  0
   -2.3896   -2.5391    0.4611 C   0  0  0  0  0  0  0  0  0  0  0  0
    1.1365   -1.1817   -1.2438 H   0  0  0  0  0  0  0  0  0  0  0  0
    1.8872   -2.7649   -1.1298 H   0  0  0  0  0  0  0  0  0  0  0  0
    5.0657    1.0863   -2.9258 H   0  0  0  0  0  0  0  0  0  0  0  0
    8.4833    1.6072   -0.3347 H   0  0  0  0  0  0  0  0  0  0  0  0
    7.3052    0.4272    1.5187 H   0  0  0  0  0  0  0  0  0  0  0  0
    4.7271   -0.8627    2.0200 H   0  0  0  0  0  0  0  0  0  0  0  0
   -0.8177   -0.1536    1.1684 H   0  0  0  0  0  0  0  0  0  0  0  0
   -0.3742    0.0002   -0.5341 H   0  0  0  0  0  0  0  0  0  0  0  0
   -2.4285    1.2861    0.0033 H   0  0  0  0  0  0  0  0  0  0  0  0
   -2.7390    0.0224   -1.2153 H   0  0  0  0  0  0  0  0  0  0  0  0
   -6.8325    2.3789    1.2668 H   0  0  0  0  0  0  0  0  0  0  0  0
   -6.7807    4.2102   -0.7674 H   0  0  0  0  0  0  0  0  0  0  0  0
   -4.7466    3.3270   -2.4167 H   0  0  0  0  0  0  0  0  0  0  0  0
   -4.2546   -2.1664    1.4889 H   0  0  0  0  0  0  0  0  0  0  0  0
   -2.8506   -1.4137    2.2579 H   0  0  0  0  0  0  0  0  0  0  0  0
   -2.8867   -2.8220   -0.4748 H   0  0  0  0  0  0  0  0  0  0  0  0
   -2.1759   -3.4600    1.0146 H   0  0  0  0  0  0  0  0  0  0  0  0
  1  2  2  0
  2  3  1  0
  3  4  1  0
  4  5  1  0
  5  6  2  0
  6  7  1  0
  7  8  2  0
  8  9  1  0
  9 10  1  0
  9 11  2  0
 11 12  1  0
 12 13  2  0
 13 14  1  0
  2 15  1  0
 15 16  1  0
 16 17  1  0
 17 18  1  0
 18 19  1  0
 19 20  2  0
 19 21  1  0
 21 22  2  0
 22 23  1  0
 23 24  2  0
 24 25  1  0
 18 26  1  0
 26 27  1  0
 14  5  1  0
 27 15  1  0
 13  7  1  0
 25 21  1  0
  3 28  1  0
  3 29  1  0
  8 30  1  0
 11 31  1  0
 12 32  1  0
 14 33  1  0
 16 34  1  0
 16 35  1  0
 17 36  1  0
 17 37  1  0
 22 38  1  0
 23 39  1  0
 24 40  1  0
 26 41  1  0
 26 42  1  0
 27 43  1  0
 27 44  1  0
M  END
$$$$
