
     RDKit          3D

 95 98  0  0  0  0  0  0  0  0999 V2000
   -0.8370   -2.2583   -4.9314 C   0  0  0  0  0  0  0  0  0  0  0  0
   -0.3821   -2.0980   -3.6841 C   0  0  0  0  0  0  0  0  0  0  0  0
   -1.0957   -2.5742   -2.4535 C   0  0  0  0  0  0  0  0  0  0  0  0
   -1.5254   -1.3941   -1.5795 C   0  0  0  0  0  0  0  0  0  0  0  0
   -2.1805   -1.8299   -0.2535 C   0  0  0  0  0  0  0  0  0  0  0  0
   -3.6060   -2.3772   -0.4360 C   0  0  0  0  0  0  0  0  0  0  0  0
   -4.1659   -2.9615    0.8421 C   0  0  0  0  0  0  0  0  0  0  0  0
   -3.8331   -4.2698    1.2248 C   0  0  0  0  0  0  0  0  0  0  0  0
   -4.3148   -4.7967    2.4229 C   0  0  0  0  0  0  0  0  0  0  0  0
   -5.1243   -4.0162    3.2391 C   0  0  0  0  0  0  0  0  0  0  0  0
   -5.5825   -4.5240    4.3904 F   0  0  0  0  0  0  0  0  0  0  0  0
   -5.4646   -2.7185    2.8787 C   0  0  0  0  0  0  0  0  0  0  0  0
   -4.9887   -2.1909    1.6790 C   0  0  0  0  0  0  0  0  0  0  0  0
   -2.1833   -0.6527    0.7045 C   0  0  0  0  0  0  0  0  0  0  0  0
   -1.5907   -0.6432    1.7786 O   0  0  0  0  0  0  0  0  0  0  0  0
   -2.8999    0.3905    0.2019 O   0  0  0  0  0  0  0  0  0  0  0  0
   -2.9208    1.5991    0.9906 C   0  0  0  0  0  0  0  0  0  0  0  0
   -1.6635    2.4567    0.7272 C   0  0  0  0  0  0  0  0  0  0  0  0
   -1.7815    3.8453    1.3872 C   0  0  0  0  0  0  0  0  0  0  0  0
   -2.8365    4.7126    0.7761 C   0  0  0  0  0  0  0  0  0  0  0  0
   -4.0669    5.0240    1.3210 C   0  0  0  0  0  0  0  0  0  0  0  0
   -4.7294    5.8411    0.4447 N   0  0  0  0  0  0  0  0  0  0  0  0
   -3.9544    6.0803   -0.6641 C   0  0  0  0  0  0  0  0  0  0  0  0
   -4.2183    6.8547   -1.8005 C   0  0  0  0  0  0  0  0  0  0  0  0
   -3.2267    6.9234   -2.7829 C   0  0  0  0  0  0  0  0  0  0  0  0
   -2.0194    6.2458   -2.6310 C   0  0  0  0  0  0  0  0  0  0  0  0
   -1.7721    5.4762   -1.4882 C   0  0  0  0  0  0  0  0  0  0  0  0
   -2.7568    5.3894   -0.4830 C   0  0  0  0  0  0  0  0  0  0  0  0
   -0.4653    1.7713    1.2217 N   0  0  0  0  0  0  0  0  0  0  0  0
    0.7925    2.0047    0.7243 C   0  0  0  0  0  0  0  0  0  0  0  0
    1.0263    2.8456   -0.1381 O   0  0  0  0  0  0  0  0  0  0  0  0
    1.8793    1.1589    1.3783 C   0  0  0  0  0  0  0  0  0  0  0  0
    2.4336    1.9002    2.6087 C   0  0  0  0  0  0  0  0  0  0  0  0
    1.4723    1.9271    3.7687 C   0  0  0  0  0  0  0  0  0  0  0  0
    1.5573    1.1031    4.8229 C   0  0  0  0  0  0  0  0  0  0  0  0
    2.9726    0.8798    0.3332 C   0  0  0  0  0  0  0  0  0  0  0  0
    3.8964   -0.2668    0.7278 C   0  0  0  0  0  0  0  0  0  0  0  0
    3.7986   -0.8142    1.8274 O   0  0  0  0  0  0  0  0  0  0  0  0
    4.8747   -0.6481   -0.1890 N   0  0  0  0  0  0  0  0  0  0  0  0
    4.9246   -0.1786   -1.5853 C   0  0  0  0  0  0  0  0  0  0  0  0
    4.2153   -1.1039   -2.5843 C   0  0  0  0  0  0  0  0  0  0  0  0
    2.9093   -1.4542   -2.1391 O   0  0  0  0  0  0  0  0  0  0  0  0
    5.8815   -1.6255    0.2389 C   0  0  0  0  0  0  0  0  0  0  0  0
    5.6025   -3.0360   -0.2288 C   0  0  0  0  0  0  0  0  0  0  0  0
    4.5096   -3.7551    0.2798 C   0  0  0  0  0  0  0  0  0  0  0  0
    4.2464   -5.0513   -0.1613 C   0  0  0  0  0  0  0  0  0  0  0  0
    5.0759   -5.6473   -1.1080 C   0  0  0  0  0  0  0  0  0  0  0  0
    6.1754   -4.9526   -1.6072 C   0  0  0  0  0  0  0  0  0  0  0  0
    6.4414   -3.6560   -1.1672 C   0  0  0  0  0  0  0  0  0  0  0  0
   -0.2661   -1.8929   -5.7796 H   0  0  0  0  0  0  0  0  0  0  0  0
   -1.7811   -2.7487   -5.1406 H   0  0  0  0  0  0  0  0  0  0  0  0
    0.5740   -1.5986   -3.5341 H   0  0  0  0  0  0  0  0  0  0  0  0
   -1.9644   -3.1816   -2.7297 H   0  0  0  0  0  0  0  0  0  0  0  0
   -0.4177   -3.2303   -1.8941 H   0  0  0  0  0  0  0  0  0  0  0  0
   -0.6463   -0.7747   -1.3579 H   0  0  0  0  0  0  0  0  0  0  0  0
   -2.2154   -0.7500   -2.1428 H   0  0  0  0  0  0  0  0  0  0  0  0
   -1.5459   -2.6014    0.2053 H   0  0  0  0  0  0  0  0  0  0  0  0
   -4.2824   -1.5953   -0.8051 H   0  0  0  0  0  0  0  0  0  0  0  0
   -3.6226   -3.1605   -1.2022 H   0  0  0  0  0  0  0  0  0  0  0  0
   -3.1924   -4.8837    0.5942 H   0  0  0  0  0  0  0  0  0  0  0  0
   -4.0617   -5.8075    2.7276 H   0  0  0  0  0  0  0  0  0  0  0  0
   -6.0913   -2.1267    3.5376 H   0  0  0  0  0  0  0  0  0  0  0  0
   -5.2551   -1.1721    1.4070 H   0  0  0  0  0  0  0  0  0  0  0  0
   -3.0361    1.3588    2.0554 H   0  0  0  0  0  0  0  0  0  0  0  0
   -3.8246    2.1339    0.6850 H   0  0  0  0  0  0  0  0  0  0  0  0
   -1.5362    2.5629   -0.3577 H   0  0  0  0  0  0  0  0  0  0  0  0
   -1.9766    3.7248    2.4606 H   0  0  0  0  0  0  0  0  0  0  0  0
   -0.8229    4.3767    1.3216 H   0  0  0  0  0  0  0  0  0  0  0  0
   -4.5288    4.7340    2.2543 H   0  0  0  0  0  0  0  0  0  0  0  0
   -5.6510    6.2281    0.5889 H   0  0  0  0  0  0  0  0  0  0  0  0
   -5.1548    7.3878   -1.9218 H   0  0  0  0  0  0  0  0  0  0  0  0
   -3.3974    7.5199   -3.6761 H   0  0  0  0  0  0  0  0  0  0  0  0
   -1.2593    6.3126   -3.4044 H   0  0  0  0  0  0  0  0  0  0  0  0
   -0.8251    4.9517   -1.3802 H   0  0  0  0  0  0  0  0  0  0  0  0
   -0.5903    1.0082    1.8887 H   0  0  0  0  0  0  0  0  0  0  0  0
    1.4385    0.2013    1.6847 H   0  0  0  0  0  0  0  0  0  0  0  0
    3.3747    1.4445    2.9382 H   0  0  0  0  0  0  0  0  0  0  0  0
    2.6798    2.9389    2.3508 H   0  0  0  0  0  0  0  0  0  0  0  0
    0.6795    2.6718    3.7426 H   0  0  0  0  0  0  0  0  0  0  0  0
    0.8433    1.1612    5.6379 H   0  0  0  0  0  0  0  0  0  0  0  0
    2.3320    0.3434    4.8897 H   0  0  0  0  0  0  0  0  0  0  0  0
    2.4872    0.6121   -0.6135 H   0  0  0  0  0  0  0  0  0  0  0  0
    3.5790    1.7810    0.1727 H   0  0  0  0  0  0  0  0  0  0  0  0
    5.9730   -0.0446   -1.8739 H   0  0  0  0  0  0  0  0  0  0  0  0
    4.4643    0.8115   -1.6482 H   0  0  0  0  0  0  0  0  0  0  0  0
    4.1206   -0.5988   -3.5520 H   0  0  0  0  0  0  0  0  0  0  0  0
    4.7799   -2.0245   -2.7536 H   0  0  0  0  0  0  0  0  0  0  0  0
    3.0434   -1.9827   -1.3301 H   0  0  0  0  0  0  0  0  0  0  0  0
    5.9655   -1.6343    1.3342 H   0  0  0  0  0  0  0  0  0  0  0  0
    6.8551   -1.2806   -0.1320 H   0  0  0  0  0  0  0  0  0  0  0  0
    3.8593   -3.3054    1.0282 H   0  0  0  0  0  0  0  0  0  0  0  0
    3.3944   -5.5970    0.2373 H   0  0  0  0  0  0  0  0  0  0  0  0
    4.8665   -6.6556   -1.4550 H   0  0  0  0  0  0  0  0  0  0  0  0
    6.8265   -5.4218   -2.3402 H   0  0  0  0  0  0  0  0  0  0  0  0
    7.3094   -3.1307   -1.5621 H   0  0  0  0  0  0  0  0  0  0  0  0
  1  2  2  0
  2  3  1  0
  3  4  1  0
  4  5  1  0
  5  6  1  0
  6  7  1  0
  7  8  2  0
  8  9  1  0
  9 10  2  0
 10 11  1  0
 10 12  1  0
 12 13  2  0
  5 14  1  0
 14 15  2  0
 14 16  1  0
 16 17  1  0
 17 18  1  0
 18 19  1  0
 19 20  1  0
 20 21  2  0
 21 22  1  0
 22 23  1  0
 23 24  2  0
 24 25  1  0
 25 26  2  0
 26 27  1  0
 27 28  2  0
 18 29  1  0
 29 30  1  0
 30 31  2  0
 30 32  1  0
 32 33  1  0
 33 34  1  0
 34 35  2  0
 32 36  1  0
 36 37  1  0
 37 38  2  0
 37 39  1  0
 39 40  1  0
 40 41  1  0
 41 42  1  0
 39 43  1  0
 43 44  1  0
 44 45  2  0
 45 46  1  0
 46 47  2  0
 47 48  1  0
 48 49  2  0
 13  7  1  0
 28 20  1  0
 49 44  1  0
 28 23  1  0
  1 50  1  0
  1 51  1  0
  2 52  1  0
  3 53  1  0
  3 54  1  0
  4 55  1  0
  4 56  1  0
  5 57  1  0
  6 58  1  0
  6 59  1  0
  8 60  1  0
  9 61  1  0
 12 62  1  0
 13 63  1  0
 17 64  1  0
 17 65  1  0
 18 66  1  0
 19 67  1  0
 19 68  1  0
 21 69  1  0
 22 70  1  0
 24 71  1  0
 25 72  1  0
 26 73  1  0
 27 74  1  0
 29 75  1  0
 32 76  1  0
 33 77  1  0
 33 78  1  0
 34 79  1  0
 35 80  1  0
 35 81  1  0
 36 82  1  0
 36 83  1  0
 40 84  1  0
 40 85  1  0
 41 86  1  0
 41 87  1  0
 42 88  1  0
 43 89  1  0
 43 90  1  0
 45 91  1  0
 46 92  1  0
 47 93  1  0
 48 94  1  0
 49 95  1  0
M  END
$$$$
