
     RDKit          3D

 45 48  0  0  0  0  0  0  0  0999 V2000
    4.3832   -1.2442   -0.7846 O   0  0  0  0  0  0  0  0  0  0  0  0
    3.6018   -0.3020   -0.8469 C   0  0  0  0  0  0  0  0  0  0  0  0
    2.2372   -0.3771   -1.0587 N   0  0  0  0  0  0  0  0  0  0  0  0
    1.4466   -1.5291   -1.3215 C   0  0  0  0  0  0  0  0  0  0  0  0
    2.0177   -2.8017   -1.4601 C   0  0  0  0  0  0  0  0  0  0  0  0
    1.2279   -3.9255   -1.7170 C   0  0  0  0  0  0  0  0  0  0  0  0
   -0.1482   -3.7973   -1.8442 C   0  0  0  0  0  0  0  0  0  0  0  0
   -0.7376   -2.5409   -1.7157 C   0  0  0  0  0  0  0  0  0  0  0  0
    0.0398   -1.3931   -1.4549 C   0  0  0  0  0  0  0  0  0  0  0  0
   -0.6167   -0.0916   -1.3338 C   0  0  0  0  0  0  0  0  0  0  0  0
   -0.0895    1.1124   -1.2232 N   0  0  0  0  0  0  0  0  0  0  0  0
   -1.1442    1.9931   -1.1203 N   0  0  0  0  0  0  0  0  0  0  0  0
   -2.2462    1.2721   -1.1587 C   0  0  0  0  0  0  0  0  0  0  0  0
   -3.8419    1.9445   -1.0569 S   0  0  0  0  0  0  0  0  0  0  0  0
   -4.7890    0.5202   -0.4564 C   0  0  0  0  0  0  0  0  0  0  0  0
   -4.4785    0.1517    0.9754 C   0  0  0  0  0  0  0  0  0  0  0  0
   -4.8654    0.9937    2.0305 C   0  0  0  0  0  0  0  0  0  0  0  0
   -4.5724    0.6554    3.3539 C   0  0  0  0  0  0  0  0  0  0  0  0
   -3.8925   -0.5275    3.6320 C   0  0  0  0  0  0  0  0  0  0  0  0
   -3.5317   -0.9444    5.2615 Cl  0  0  0  0  0  0  0  0  0  0  0  0
   -3.5048   -1.3764    2.5982 C   0  0  0  0  0  0  0  0  0  0  0  0
   -3.7990   -1.0394    1.2746 C   0  0  0  0  0  0  0  0  0  0  0  0
   -1.9866   -0.0647   -1.3120 O   0  0  0  0  0  0  0  0  0  0  0  0
    4.1391    1.0774   -0.6407 C   0  0  0  0  0  0  0  0  0  0  0  0
    3.5629    2.2050   -1.2426 C   0  0  0  0  0  0  0  0  0  0  0  0
    4.1059    3.4726   -1.0172 C   0  0  0  0  0  0  0  0  0  0  0  0
    5.2282    3.6197   -0.2026 C   0  0  0  0  0  0  0  0  0  0  0  0
    5.8166    2.5006    0.3842 C   0  0  0  0  0  0  0  0  0  0  0  0
    5.2770    1.2323    0.1630 C   0  0  0  0  0  0  0  0  0  0  0  0
    1.7185    0.4924   -0.9613 H   0  0  0  0  0  0  0  0  0  0  0  0
    3.0889   -2.9582   -1.3756 H   0  0  0  0  0  0  0  0  0  0  0  0
    1.6988   -4.9006   -1.8186 H   0  0  0  0  0  0  0  0  0  0  0  0
   -0.7603   -4.6726   -2.0475 H   0  0  0  0  0  0  0  0  0  0  0  0
   -1.8172   -2.4674   -1.8300 H   0  0  0  0  0  0  0  0  0  0  0  0
   -4.6355   -0.3348   -1.1247 H   0  0  0  0  0  0  0  0  0  0  0  0
   -5.8548    0.7679   -0.5268 H   0  0  0  0  0  0  0  0  0  0  0  0
   -5.3941    1.9239    1.8283 H   0  0  0  0  0  0  0  0  0  0  0  0
   -4.8744    1.3192    4.1598 H   0  0  0  0  0  0  0  0  0  0  0  0
   -2.9739   -2.2996    2.8155 H   0  0  0  0  0  0  0  0  0  0  0  0
   -3.4894   -1.7155    0.4805 H   0  0  0  0  0  0  0  0  0  0  0  0
    2.7074    2.1204   -1.9071 H   0  0  0  0  0  0  0  0  0  0  0  0
    3.6559    4.3459   -1.4838 H   0  0  0  0  0  0  0  0  0  0  0  0
    5.6492    4.6073   -0.0311 H   0  0  0  0  0  0  0  0  0  0  0  0
    6.6970    2.6132    1.0119 H   0  0  0  0  0  0  0  0  0  0  0  0
    5.7444    0.3627    0.6211 H   0  0  0  0  0  0  0  0  0  0  0  0
  1  2  2  0
  2  3  1  0
  3  4  1  0
  4  5  2  0
  5  6  1  0
  6  7  2  0
  7  8  1  0
  8  9  2  0
  9 10  1  0
 10 11  2  0
 11 12  1  0
 12 13  2  0
 13 14  1  0
 14 15  1  0
 15 16  1  0
 16 17  2  0
 17 18  1  0
 18 19  2  0
 19 20  1  0
 19 21  1  0
 21 22  2  0
 13 23  1  0
  2 24  1  0
 24 25  2  0
 25 26  1  0
 26 27  2  0
 27 28  1  0
 28 29  2  0
  9  4  1  0
 23 10  1  0
 29 24  1  0
 22 16  1  0
  3 30  1  0
  5 31  1  0
  6 32  1  0
  7 33  1  0
  8 34  1  0
 15 35  1  0
 15 36  1  0
 17 37  1  0
 18 38  1  0
 21 39  1  0
 22 40  1  0
 25 41  1  0
 26 42  1  0
 27 43  1  0
 28 44  1  0
 29 45  1  0
M  END
$$$$
