
     RDKit          3D

 27 28  0  0  0  0  0  0  0  0999 V2000
    4.3233   -0.8022    1.1149 C   0  0  0  0  0  0  0  0  0  0  0  0
    3.1082   -0.1430    0.5327 C   0  0  0  0  0  0  0  0  0  0  0  0
    3.2386    0.9408   -0.3387 C   0  0  0  0  0  0  0  0  0  0  0  0
    2.1043    1.5611   -0.8572 C   0  0  0  0  0  0  0  0  0  0  0  0
    0.8303    1.1105   -0.5008 C   0  0  0  0  0  0  0  0  0  0  0  0
    0.6675    0.0446    0.3900 C   0  0  0  0  0  0  0  0  0  0  0  0
   -0.5865   -0.4798    0.7627 N   0  0  0  0  0  0  0  0  0  0  0  0
   -1.8254   -0.3115    0.1844 C   0  0  0  0  0  0  0  0  0  0  0  0
   -2.0339   -0.2296   -1.1402 C   0  0  0  0  0  0  0  0  0  0  0  0
   -3.3966   -0.0802   -1.6779 C   0  0  0  0  0  0  0  0  0  0  0  0
   -3.5948    0.0143   -2.8836 O   0  0  0  0  0  0  0  0  0  0  0  0
   -4.4014   -0.0548   -0.7600 N   0  0  0  0  0  0  0  0  0  0  0  0
   -4.2171   -0.1603    0.5831 C   0  0  0  0  0  0  0  0  0  0  0  0
   -5.1523   -0.1375    1.3767 O   0  0  0  0  0  0  0  0  0  0  0  0
   -2.9255   -0.2939    1.0014 N   0  0  0  0  0  0  0  0  0  0  0  0
    1.8231   -0.5745    0.8956 C   0  0  0  0  0  0  0  0  0  0  0  0
    5.1747   -0.7289    0.4300 H   0  0  0  0  0  0  0  0  0  0  0  0
    4.1416   -1.8673    1.2931 H   0  0  0  0  0  0  0  0  0  0  0  0
    4.5900   -0.3245    2.0626 H   0  0  0  0  0  0  0  0  0  0  0  0
    4.2231    1.3066   -0.6213 H   0  0  0  0  0  0  0  0  0  0  0  0
    2.2094    2.4025   -1.5376 H   0  0  0  0  0  0  0  0  0  0  0  0
   -0.0287    1.6367   -0.9065 H   0  0  0  0  0  0  0  0  0  0  0  0
   -0.6065   -0.8135    1.7193 H   0  0  0  0  0  0  0  0  0  0  0  0
   -1.2377   -0.2899   -1.8703 H   0  0  0  0  0  0  0  0  0  0  0  0
   -5.3457    0.0442   -1.0969 H   0  0  0  0  0  0  0  0  0  0  0  0
   -2.8057   -0.3510    2.0027 H   0  0  0  0  0  0  0  0  0  0  0  0
    1.7237   -1.4191    1.5746 H   0  0  0  0  0  0  0  0  0  0  0  0
  1  2  1  0
  2  3  2  0
  3  4  1  0
  4  5  2  0
  5  6  1  0
  6  7  1  0
  7  8  1  0
  8  9  2  0
  9 10  1  0
 10 11  2  0
 10 12  1  0
 12 13  1  0
 13 14  2  0
 13 15  1  0
  6 16  2  0
 16  2  1  0
 15  8  1  0
  1 17  1  0
  1 18  1  0
  1 19  1  0
  3 20  1  0
  4 21  1  0
  5 22  1  0
  7 23  1  0
  9 24  1  0
 12 25  1  0
 15 26  1  0
 16 27  1  0
M  END
$$$$
