
     RDKit          3D

 36 37  0  0  0  0  0  0  0  0999 V2000
    0.4786   -1.8794    1.1439 O   0  0  0  0  0  0  0  0  0  0  0  0
    0.9925   -1.7533    0.0351 C   0  0  0  0  0  0  0  0  0  0  0  0
    0.2001   -1.8967   -1.2659 C   0  0  0  0  0  0  0  0  0  0  0  0
   -1.1797   -1.5863   -1.0777 O   0  0  0  0  0  0  0  0  0  0  0  0
   -1.4721   -0.2712   -1.1975 C   0  0  0  0  0  0  0  0  0  0  0  0
   -0.7253    0.6292   -1.5370 O   0  0  0  0  0  0  0  0  0  0  0  0
   -2.8723   -0.0770   -0.8153 C   0  0  0  0  0  0  0  0  0  0  0  0
   -3.9016   -0.4707   -1.6773 C   0  0  0  0  0  0  0  0  0  0  0  0
   -3.5969   -1.1845   -3.2216 Cl  0  0  0  0  0  0  0  0  0  0  0  0
   -5.2355   -0.2721   -1.3063 C   0  0  0  0  0  0  0  0  0  0  0  0
   -5.5418    0.3228   -0.0823 C   0  0  0  0  0  0  0  0  0  0  0  0
   -4.5147    0.7239    0.7725 C   0  0  0  0  0  0  0  0  0  0  0  0
   -3.1785    0.5283    0.4082 C   0  0  0  0  0  0  0  0  0  0  0  0
   -1.9616    1.0465    1.5199 Cl  0  0  0  0  0  0  0  0  0  0  0  0
    2.3361   -1.5078   -0.1473 N   0  0  0  0  0  0  0  0  0  0  0  0
    3.2518   -1.3193    0.9665 C   0  0  0  0  0  0  0  0  0  0  0  0
    3.5585    0.1550    1.2680 C   0  0  0  0  0  0  0  0  0  0  0  0
    2.3842    0.9751    1.7873 C   0  0  0  0  0  0  0  0  0  0  0  0
    1.9711    1.7982    0.5941 C   0  0  0  0  0  0  0  0  0  0  0  0
    3.2841    2.0070   -0.1204 C   0  0  0  0  0  0  0  0  0  0  0  0
    4.0322    0.7974    0.0624 O   0  0  0  0  0  0  0  0  0  0  0  0
    0.6440   -1.2973   -2.0693 H   0  0  0  0  0  0  0  0  0  0  0  0
    0.2613   -2.9466   -1.5719 H   0  0  0  0  0  0  0  0  0  0  0  0
   -6.0425   -0.5758   -1.9701 H   0  0  0  0  0  0  0  0  0  0  0  0
   -6.5800    0.4768    0.2045 H   0  0  0  0  0  0  0  0  0  0  0  0
   -4.7616    1.1891    1.7248 H   0  0  0  0  0  0  0  0  0  0  0  0
    2.6589   -1.1672   -1.0455 H   0  0  0  0  0  0  0  0  0  0  0  0
    2.8688   -1.8232    1.8600 H   0  0  0  0  0  0  0  0  0  0  0  0
    4.1786   -1.8190    0.6632 H   0  0  0  0  0  0  0  0  0  0  0  0
    4.3736    0.1859    2.0010 H   0  0  0  0  0  0  0  0  0  0  0  0
    2.7375    1.6463    2.5803 H   0  0  0  0  0  0  0  0  0  0  0  0
    1.5725    0.3786    2.2115 H   0  0  0  0  0  0  0  0  0  0  0  0
    1.4742    2.7349    0.8593 H   0  0  0  0  0  0  0  0  0  0  0  0
    1.2928    1.2187   -0.0374 H   0  0  0  0  0  0  0  0  0  0  0  0
    3.1578    2.2041   -1.1884 H   0  0  0  0  0  0  0  0  0  0  0  0
    3.8549    2.8292    0.3248 H   0  0  0  0  0  0  0  0  0  0  0  0
  1  2  2  0
  2  3  1  0
  3  4  1  0
  4  5  1  0
  5  6  2  0
  5  7  1  0
  7  8  2  0
  8  9  1  0
  8 10  1  0
 10 11  2  0
 11 12  1  0
 12 13  2  0
 13 14  1  0
  2 15  1  0
 15 16  1  0
 16 17  1  0
 17 18  1  0
 18 19  1  0
 19 20  1  0
 20 21  1  0
 13  7  1  0
 21 17  1  0
  3 22  1  0
  3 23  1  0
 10 24  1  0
 11 25  1  0
 12 26  1  0
 15 27  1  0
 16 28  1  0
 16 29  1  0
 17 30  1  0
 18 31  1  0
 18 32  1  0
 19 33  1  0
 19 34  1  0
 20 35  1  0
 20 36  1  0
M  END
$$$$
