
     RDKit          3D

 47 49  0  0  0  0  0  0  0  0999 V2000
    7.7240   -0.6131   -2.3589 C   0  0  0  0  0  0  0  0  0  0  0  0
    6.4273   -0.7915   -1.8022 O   0  0  0  0  0  0  0  0  0  0  0  0
    5.5438    0.2426   -1.9518 C   0  0  0  0  0  0  0  0  0  0  0  0
    5.7832    1.4327   -2.6346 C   0  0  0  0  0  0  0  0  0  0  0  0
    4.7787    2.3982   -2.7197 C   0  0  0  0  0  0  0  0  0  0  0  0
    3.5367    2.1847   -2.1152 C   0  0  0  0  0  0  0  0  0  0  0  0
    3.2919    1.0113   -1.4042 C   0  0  0  0  0  0  0  0  0  0  0  0
    2.0576    0.6985   -0.7941 N   0  0  0  0  0  0  0  0  0  0  0  0
    1.0244    1.5082   -0.3382 C   0  0  0  0  0  0  0  0  0  0  0  0
    1.1810    3.1307    0.0771 S   0  0  0  0  0  0  0  0  0  0  0  0
   -0.1741    0.7729   -0.1748 N   0  0  0  0  0  0  0  0  0  0  0  0
   -0.5384   -0.2975   -1.1137 C   0  0  0  0  0  0  0  0  0  0  0  0
   -1.1913   -1.4658   -0.3810 C   0  0  0  0  0  0  0  0  0  0  0  0
   -2.3255   -1.0030    0.4967 C   0  0  0  0  0  0  0  0  0  0  0  0
   -3.3133   -1.9136    0.9026 C   0  0  0  0  0  0  0  0  0  0  0  0
   -4.3616   -1.5087    1.7363 C   0  0  0  0  0  0  0  0  0  0  0  0
   -5.3699   -2.3329    2.1720 O   0  0  0  0  0  0  0  0  0  0  0  0
   -5.3385   -3.6910    1.7594 C   0  0  0  0  0  0  0  0  0  0  0  0
   -4.4199   -0.1735    2.1793 C   0  0  0  0  0  0  0  0  0  0  0  0
   -5.4807    0.1469    2.9905 O   0  0  0  0  0  0  0  0  0  0  0  0
   -5.5622    1.4779    3.4781 C   0  0  0  0  0  0  0  0  0  0  0  0
   -3.4258    0.7291    1.7838 C   0  0  0  0  0  0  0  0  0  0  0  0
   -2.3686    0.3235    0.9515 C   0  0  0  0  0  0  0  0  0  0  0  0
   -1.3224    1.3420    0.5475 C   0  0  0  0  0  0  0  0  0  0  0  0
    4.2971    0.0366   -1.3498 C   0  0  0  0  0  0  0  0  0  0  0  0
    7.6743   -0.5081   -3.4477 H   0  0  0  0  0  0  0  0  0  0  0  0
    8.2371    0.2393   -1.9015 H   0  0  0  0  0  0  0  0  0  0  0  0
    8.3088   -1.5112   -2.1378 H   0  0  0  0  0  0  0  0  0  0  0  0
    6.7318    1.6381   -3.1186 H   0  0  0  0  0  0  0  0  0  0  0  0
    4.9579    3.3207   -3.2667 H   0  0  0  0  0  0  0  0  0  0  0  0
    2.7713    2.9419   -2.2467 H   0  0  0  0  0  0  0  0  0  0  0  0
    1.9868   -0.2474   -0.4408 H   0  0  0  0  0  0  0  0  0  0  0  0
    0.3182   -0.6570   -1.6902 H   0  0  0  0  0  0  0  0  0  0  0  0
   -1.2337    0.1409   -1.8419 H   0  0  0  0  0  0  0  0  0  0  0  0
   -0.4496   -1.9667    0.2532 H   0  0  0  0  0  0  0  0  0  0  0  0
   -1.5543   -2.1908   -1.1185 H   0  0  0  0  0  0  0  0  0  0  0  0
   -3.2417   -2.9379    0.5514 H   0  0  0  0  0  0  0  0  0  0  0  0
   -5.4236   -3.7754    0.6710 H   0  0  0  0  0  0  0  0  0  0  0  0
   -6.2048   -4.1944    2.1995 H   0  0  0  0  0  0  0  0  0  0  0  0
   -4.4392   -4.1956    2.1275 H   0  0  0  0  0  0  0  0  0  0  0  0
   -5.6800    2.1927    2.6571 H   0  0  0  0  0  0  0  0  0  0  0  0
   -4.6949    1.7259    4.0988 H   0  0  0  0  0  0  0  0  0  0  0  0
   -6.4529    1.5489    4.1098 H   0  0  0  0  0  0  0  0  0  0  0  0
   -3.4473    1.7633    2.1139 H   0  0  0  0  0  0  0  0  0  0  0  0
   -1.7903    2.0870   -0.1079 H   0  0  0  0  0  0  0  0  0  0  0  0
   -0.9580    1.8392    1.4534 H   0  0  0  0  0  0  0  0  0  0  0  0
    4.1306   -0.8983   -0.8207 H   0  0  0  0  0  0  0  0  0  0  0  0
  1  2  1  0
  2  3  1  0
  3  4  2  0
  4  5  1  0
  5  6  2  0
  6  7  1  0
  7  8  1  0
  8  9  1  0
  9 10  2  0
  9 11  1  0
 11 12  1  0
 12 13  1  0
 13 14  1  0
 14 15  2  0
 15 16  1  0
 16 17  1  0
 17 18  1  0
 16 19  2  0
 19 20  1  0
 20 21  1  0
 19 22  1  0
 22 23  2  0
 23 24  1  0
  7 25  2  0
 25  3  1  0
 24 11  1  0
 23 14  1  0
  1 26  1  0
  1 27  1  0
  1 28  1  0
  4 29  1  0
  5 30  1  0
  6 31  1  0
  8 32  1  0
 12 33  1  0
 12 34  1  0
 13 35  1  0
 13 36  1  0
 15 37  1  0
 18 38  1  0
 18 39  1  0
 18 40  1  0
 21 41  1  0
 21 42  1  0
 21 43  1  0
 22 44  1  0
 24 45  1  0
 24 46  1  0
 25 47  1  0
M  END
$$$$
