
     RDKit          3D

 55 57  0  0  0  0  0  0  0  0999 V2000
    7.2805   -0.5979   -1.1673 C   0  0  0  0  0  0  0  0  0  0  0  0
    6.6589    0.6728   -1.2812 O   0  0  0  0  0  0  0  0  0  0  0  0
    5.3294    0.7455   -0.9997 C   0  0  0  0  0  0  0  0  0  0  0  0
    4.7673    2.0029   -1.2351 C   0  0  0  0  0  0  0  0  0  0  0  0
    3.4119    2.2365   -1.0017 C   0  0  0  0  0  0  0  0  0  0  0  0
    2.5843    1.2088   -0.5240 C   0  0  0  0  0  0  0  0  0  0  0  0
    1.0964    1.4916   -0.3053 C   0  0  0  0  0  0  0  0  0  0  0  0
    0.6698    1.3536    1.4868 S   0  0  0  0  0  0  0  0  0  0  0  0
   -1.0959    1.6687    1.3718 C   0  0  0  0  0  0  0  0  0  0  0  0
   -1.5704    2.8104    2.0470 C   0  0  0  0  0  0  0  0  0  0  0  0
   -2.9404    3.0993    2.1008 C   0  0  0  0  0  0  0  0  0  0  0  0
   -3.8484    2.2421    1.4829 C   0  0  0  0  0  0  0  0  0  0  0  0
   -3.3895    1.0881    0.8232 C   0  0  0  0  0  0  0  0  0  0  0  0
   -2.0125    0.7799    0.7584 C   0  0  0  0  0  0  0  0  0  0  0  0
   -1.5940   -0.4402    0.1147 N   0  0  0  0  0  0  0  0  0  0  0  0
   -2.2966   -1.6890    0.4726 C   0  0  0  0  0  0  0  0  0  0  0  0
   -1.7937   -2.3023    1.8063 C   0  0  0  0  0  0  0  0  0  0  0  0
   -2.4386   -3.5642    2.2590 N   0  0  0  0  0  0  0  0  0  0  0  0
   -2.2747   -4.6414    1.2879 C   0  0  0  0  0  0  0  0  0  0  0  0
   -3.8458   -3.3684    2.6105 C   0  0  0  0  0  0  0  0  0  0  0  0
   -0.4073   -0.5761   -0.6142 C   0  0  0  0  0  0  0  0  0  0  0  0
    0.1245   -1.6764   -0.8003 O   0  0  0  0  0  0  0  0  0  0  0  0
    0.1982    0.6770   -1.2576 C   0  0  0  0  0  0  0  0  0  0  0  0
   -0.8749    1.5138   -1.7804 O   0  0  0  0  0  0  0  0  0  0  0  0
   -0.6598    2.1094   -2.9846 C   0  0  0  0  0  0  0  0  0  0  0  0
   -1.8764    2.9150   -3.3958 C   0  0  0  0  0  0  0  0  0  0  0  0
    0.3658    2.0428   -3.6367 O   0  0  0  0  0  0  0  0  0  0  0  0
    3.1579   -0.0572   -0.2862 C   0  0  0  0  0  0  0  0  0  0  0  0
    4.5212   -0.2857   -0.5222 C   0  0  0  0  0  0  0  0  0  0  0  0
    8.3026   -0.4842   -1.5221 H   0  0  0  0  0  0  0  0  0  0  0  0
    7.3261   -0.9203   -0.1234 H   0  0  0  0  0  0  0  0  0  0  0  0
    6.7898   -1.3538   -1.7999 H   0  0  0  0  0  0  0  0  0  0  0  0
    5.3930    2.8092   -1.6117 H   0  0  0  0  0  0  0  0  0  0  0  0
    3.0105    3.2258   -1.2097 H   0  0  0  0  0  0  0  0  0  0  0  0
    0.9301    2.5591   -0.5356 H   0  0  0  0  0  0  0  0  0  0  0  0
   -0.8752    3.4805    2.5579 H   0  0  0  0  0  0  0  0  0  0  0  0
   -3.2939    3.9848    2.6368 H   0  0  0  0  0  0  0  0  0  0  0  0
   -4.9161    2.4642    1.5177 H   0  0  0  0  0  0  0  0  0  0  0  0
   -4.1309    0.4574    0.3321 H   0  0  0  0  0  0  0  0  0  0  0  0
   -3.3789   -1.5143    0.5042 H   0  0  0  0  0  0  0  0  0  0  0  0
   -2.1389   -2.4042   -0.3405 H   0  0  0  0  0  0  0  0  0  0  0  0
   -0.7070   -2.4708    1.7435 H   0  0  0  0  0  0  0  0  0  0  0  0
   -1.9050   -1.5559    2.6012 H   0  0  0  0  0  0  0  0  0  0  0  0
   -2.6375   -5.5867    1.7135 H   0  0  0  0  0  0  0  0  0  0  0  0
   -1.2090   -4.7899    1.0371 H   0  0  0  0  0  0  0  0  0  0  0  0
   -2.8313   -4.4529    0.3609 H   0  0  0  0  0  0  0  0  0  0  0  0
   -4.3019   -4.3082    2.9525 H   0  0  0  0  0  0  0  0  0  0  0  0
   -4.4436   -2.9969    1.7644 H   0  0  0  0  0  0  0  0  0  0  0  0
   -3.9397   -2.6527    3.4376 H   0  0  0  0  0  0  0  0  0  0  0  0
    0.7793    0.3001   -2.1144 H   0  0  0  0  0  0  0  0  0  0  0  0
   -2.7790    2.5587   -2.8658 H   0  0  0  0  0  0  0  0  0  0  0  0
   -2.0449    2.8048   -4.4883 H   0  0  0  0  0  0  0  0  0  0  0  0
   -1.7119    3.9652   -3.1450 H   0  0  0  0  0  0  0  0  0  0  0  0
    2.5471   -0.8810    0.0886 H   0  0  0  0  0  0  0  0  0  0  0  0
    4.9188   -1.2714   -0.3212 H   0  0  0  0  0  0  0  0  0  0  0  0
  1  2  1  0
  2  3  1  0
  3  4  2  0
  4  5  1  0
  5  6  2  0
  6  7  1  0
  7  8  1  0
  8  9  1  0
  9 10  2  0
 10 11  1  0
 11 12  2  0
 12 13  1  0
 13 14  2  0
 14 15  1  0
 15 16  1  0
 16 17  1  0
 17 18  1  0
 18 19  1  0
 18 20  1  0
 15 21  1  0
 21 22  2  0
 21 23  1  0
 23 24  1  0
 24 25  1  0
 25 26  1  0
 25 27  2  0
  6 28  1  0
 28 29  2  0
 29  3  1  0
 23  7  1  0
 14  9  1  0
  1 30  1  0
  1 31  1  0
  1 32  1  0
  4 33  1  0
  5 34  1  0
  7 35  1  0
 10 36  1  0
 11 37  1  0
 12 38  1  0
 13 39  1  0
 16 40  1  0
 16 41  1  0
 17 42  1  0
 17 43  1  0
 19 44  1  0
 19 45  1  0
 19 46  1  0
 20 47  1  0
 20 48  1  0
 20 49  1  0
 23 50  1  0
 26 51  1  0
 26 52  1  0
 26 53  1  0
 28 54  1  0
 29 55  1  0
M  END
$$$$
