
     RDKit          3D

 52 54  0  0  0  0  0  0  0  0999 V2000
    7.1989    0.3877   -0.6034 C   0  0  0  0  0  0  0  0  0  0  0  0
    6.1742   -0.3502   -1.3332 N   0  0  0  0  0  0  0  0  0  0  0  0
    6.5469   -0.9227   -2.6334 C   0  0  0  0  0  0  0  0  0  0  0  0
    6.2868   -0.0031   -3.8291 C   0  0  0  0  0  0  0  0  0  0  0  0
    7.2806    1.0731   -3.8998 C   0  0  0  0  0  0  0  0  0  0  0  0
    8.0766    1.9166   -3.9395 N   0  0  0  0  0  0  0  0  0  0  0  0
    4.8167   -0.3102   -1.0099 C   0  0  0  0  0  0  0  0  0  0  0  0
    3.9638   -0.7638   -1.7783 O   0  0  0  0  0  0  0  0  0  0  0  0
    4.4219    0.3456    0.3215 C   0  0  0  0  0  0  0  0  0  0  0  0
    3.0153    0.2721    0.5673 O   0  0  0  0  0  0  0  0  0  0  0  0
    2.5918   -0.9409    0.9987 C   0  0  0  0  0  0  0  0  0  0  0  0
    3.3063   -1.8847    1.2964 O   0  0  0  0  0  0  0  0  0  0  0  0
    1.1059   -0.9780    1.0828 C   0  0  0  0  0  0  0  0  0  0  0  0
    0.4999   -2.1699    1.5573 C   0  0  0  0  0  0  0  0  0  0  0  0
   -0.8917   -2.2840    1.6638 C   0  0  0  0  0  0  0  0  0  0  0  0
   -1.6439   -1.1908    1.2836 C   0  0  0  0  0  0  0  0  0  0  0  0
   -1.0595   -0.0282    0.8201 C   0  0  0  0  0  0  0  0  0  0  0  0
    0.3109    0.1162    0.7065 C   0  0  0  0  0  0  0  0  0  0  0  0
   -2.1346    0.9154    0.5263 C   0  0  0  0  0  0  0  0  0  0  0  0
   -1.9437    2.0580    0.1560 O   0  0  0  0  0  0  0  0  0  0  0  0
   -3.3148    0.2637    0.7764 N   0  0  0  0  0  0  0  0  0  0  0  0
   -4.6204    0.9174    0.6800 C   0  0  0  0  0  0  0  0  0  0  0  0
   -5.1301    1.3333    2.0701 C   0  0  0  0  0  0  0  0  0  0  0  0
   -6.5893    1.7657    2.0085 C   0  0  0  0  0  0  0  0  0  0  0  0
   -7.5081    0.6461    1.5176 C   0  0  0  0  0  0  0  0  0  0  0  0
   -6.7819   -0.4558    0.7470 C   0  0  0  0  0  0  0  0  0  0  0  0
   -5.6507    0.0922   -0.1177 C   0  0  0  0  0  0  0  0  0  0  0  0
   -3.0912   -0.9889    1.2846 C   0  0  0  0  0  0  0  0  0  0  0  0
   -3.8800   -1.8162    1.6980 O   0  0  0  0  0  0  0  0  0  0  0  0
    6.9620    0.4574    0.4594 H   0  0  0  0  0  0  0  0  0  0  0  0
    7.2632    1.3991   -1.0126 H   0  0  0  0  0  0  0  0  0  0  0  0
    8.1622   -0.1194   -0.7063 H   0  0  0  0  0  0  0  0  0  0  0  0
    7.5950   -1.2429   -2.5917 H   0  0  0  0  0  0  0  0  0  0  0  0
    5.9505   -1.8337   -2.7703 H   0  0  0  0  0  0  0  0  0  0  0  0
    5.2789    0.4228   -3.7879 H   0  0  0  0  0  0  0  0  0  0  0  0
    6.3479   -0.5965   -4.7489 H   0  0  0  0  0  0  0  0  0  0  0  0
    4.6789    1.4084    0.2672 H   0  0  0  0  0  0  0  0  0  0  0  0
    4.9761   -0.1023    1.1533 H   0  0  0  0  0  0  0  0  0  0  0  0
    1.1245   -3.0165    1.8443 H   0  0  0  0  0  0  0  0  0  0  0  0
   -1.3619   -3.1920    2.0284 H   0  0  0  0  0  0  0  0  0  0  0  0
    0.7328    1.0450    0.3355 H   0  0  0  0  0  0  0  0  0  0  0  0
   -4.4584    1.8415    0.1081 H   0  0  0  0  0  0  0  0  0  0  0  0
   -4.5134    2.1543    2.4558 H   0  0  0  0  0  0  0  0  0  0  0  0
   -5.0261    0.5107    2.7888 H   0  0  0  0  0  0  0  0  0  0  0  0
   -6.6788    2.6264    1.3335 H   0  0  0  0  0  0  0  0  0  0  0  0
   -6.9234    2.1109    2.9936 H   0  0  0  0  0  0  0  0  0  0  0  0
   -8.2909    1.0847    0.8866 H   0  0  0  0  0  0  0  0  0  0  0  0
   -8.0267    0.1930    2.3713 H   0  0  0  0  0  0  0  0  0  0  0  0
   -6.3808   -1.1867    1.4582 H   0  0  0  0  0  0  0  0  0  0  0  0
   -7.5008   -0.9989    0.1226 H   0  0  0  0  0  0  0  0  0  0  0  0
   -6.0977    0.7440   -0.8805 H   0  0  0  0  0  0  0  0  0  0  0  0
   -5.1696   -0.7250   -0.6679 H   0  0  0  0  0  0  0  0  0  0  0  0
  1  2  1  0
  2  3  1  0
  3  4  1  0
  4  5  1  0
  5  6  3  0
  2  7  1  0
  7  8  2  0
  7  9  1  0
  9 10  1  0
 10 11  1  0
 11 12  2  0
 11 13  1  0
 13 14  2  0
 14 15  1  0
 15 16  2  0
 16 17  1  0
 17 18  2  0
 17 19  1  0
 19 20  2  0
 19 21  1  0
 21 22  1  0
 22 23  1  0
 23 24  1  0
 24 25  1  0
 25 26  1  0
 26 27  1  0
 21 28  1  0
 28 29  2  0
 18 13  1  0
 27 22  1  0
 28 16  1  0
  1 30  1  0
  1 31  1  0
  1 32  1  0
  3 33  1  0
  3 34  1  0
  4 35  1  0
  4 36  1  0
  9 37  1  0
  9 38  1  0
 14 39  1  0
 15 40  1  0
 18 41  1  0
 22 42  1  0
 23 43  1  0
 23 44  1  0
 24 45  1  0
 24 46  1  0
 25 47  1  0
 25 48  1  0
 26 49  1  0
 26 50  1  0
 27 51  1  0
 27 52  1  0
M  END
$$$$
