
     RDKit          3D

 22 22  0  0  0  0  0  0  0  0999 V2000
    3.0294    1.1498    0.0366 C   0  0  0  0  0  0  0  0  0  0  0  0
    1.5436    0.9297   -0.0191 C   0  0  0  0  0  0  0  0  0  0  0  0
    0.7901    2.0602   -0.0496 N   0  0  0  0  0  0  0  0  0  0  0  0
   -0.5538    1.9216   -0.0647 C   0  0  0  0  0  0  0  0  0  0  0  0
   -1.1965    0.6988   -0.0410 C   0  0  0  0  0  0  0  0  0  0  0  0
   -2.6595    0.7143   -0.1323 C   0  0  0  0  0  0  0  0  0  0  0  0
   -3.3958    1.5290    0.3896 O   0  0  0  0  0  0  0  0  0  0  0  0
   -3.1160   -0.2165   -0.9872 O   0  0  0  0  0  0  0  0  0  0  0  0
   -0.4114   -0.4532    0.0311 C   0  0  0  0  0  0  0  0  0  0  0  0
   -1.0315   -1.7810    0.1887 C   0  0  0  0  0  0  0  0  0  0  0  0
   -0.6799   -2.8026   -0.3736 O   0  0  0  0  0  0  0  0  0  0  0  0
   -1.9830   -1.7786    1.1391 O   0  0  0  0  0  0  0  0  0  0  0  0
    0.9962   -0.3663   -0.0323 C   0  0  0  0  0  0  0  0  0  0  0  0
    1.8150   -1.5065    0.1267 N   0  0  0  0  0  0  0  0  0  0  0  0
    3.2637    2.2193    0.0598 H   0  0  0  0  0  0  0  0  0  0  0  0
    3.5110    0.7208   -0.8475 H   0  0  0  0  0  0  0  0  0  0  0  0
    3.4499    0.6960    0.9394 H   0  0  0  0  0  0  0  0  0  0  0  0
   -1.1095    2.8559   -0.1061 H   0  0  0  0  0  0  0  0  0  0  0  0
   -4.0878   -0.0832   -0.9976 H   0  0  0  0  0  0  0  0  0  0  0  0
   -2.2734   -2.7131    1.1962 H   0  0  0  0  0  0  0  0  0  0  0  0
    2.7429   -1.4234   -0.2771 H   0  0  0  0  0  0  0  0  0  0  0  0
    1.3564   -2.3710   -0.1792 H   0  0  0  0  0  0  0  0  0  0  0  0
  1  2  1  0
  2  3  2  0
  3  4  1  0
  4  5  2  0
  5  6  1  0
  6  7  2  0
  6  8  1  0
  5  9  1  0
  9 10  1  0
 10 11  2  0
 10 12  1  0
  9 13  2  0
 13 14  1  0
 13  2  1  0
  1 15  1  0
  1 16  1  0
  1 17  1  0
  4 18  1  0
  8 19  1  0
 12 20  1  0
 14 21  1  0
 14 22  1  0
M  END
$$$$
