
     RDKit          3D

 55 58  0  0  0  0  0  0  0  0999 V2000
   -8.4800   -1.3880   -1.1692 C   0  0  0  0  0  0  0  0  0  0  0  0
   -7.6959   -1.1440    0.1108 C   0  0  0  0  0  0  0  0  0  0  0  0
   -6.2645   -0.6642   -0.1333 C   0  0  0  0  0  0  0  0  0  0  0  0
   -6.1930    0.7116   -0.7942 C   0  0  0  0  0  0  0  0  0  0  0  0
   -4.8225    1.1620   -0.9369 N   0  0  0  0  0  0  0  0  0  0  0  0
   -4.1553    1.7738    0.1055 C   0  0  0  0  0  0  0  0  0  0  0  0
   -4.6722    2.0214    1.1889 O   0  0  0  0  0  0  0  0  0  0  0  0
   -2.7211    2.0967   -0.1304 C   0  0  0  0  0  0  0  0  0  0  0  0
   -2.2256    2.3868   -1.4059 C   0  0  0  0  0  0  0  0  0  0  0  0
   -0.8699    2.6841   -1.5804 C   0  0  0  0  0  0  0  0  0  0  0  0
    0.0108    2.6962   -0.4878 C   0  0  0  0  0  0  0  0  0  0  0  0
    1.4820    3.0158   -0.6843 C   0  0  0  0  0  0  0  0  0  0  0  0
    2.3583    1.8631   -0.4398 N   0  0  0  0  0  0  0  0  0  0  0  0
    2.6364    0.9193   -1.4502 C   0  0  0  0  0  0  0  0  0  0  0  0
    2.0903    0.9468   -3.0399 S   0  0  0  0  0  0  0  0  0  0  0  0
    3.4504   -0.1443   -1.1208 N   0  0  0  0  0  0  0  0  0  0  0  0
    3.9917   -0.2899    0.1274 C   0  0  0  0  0  0  0  0  0  0  0  0
    3.7257    0.6474    1.0787 C   0  0  0  0  0  0  0  0  0  0  0  0
    4.3789    0.2826    2.2224 N   0  0  0  0  0  0  0  0  0  0  0  0
    5.0676   -0.8948    2.0071 C   0  0  0  0  0  0  0  0  0  0  0  0
    5.8685   -1.6402    2.8759 C   0  0  0  0  0  0  0  0  0  0  0  0
    6.4476   -2.8092    2.3708 C   0  0  0  0  0  0  0  0  0  0  0  0
    6.2406   -3.2245    1.0534 C   0  0  0  0  0  0  0  0  0  0  0  0
    6.8800   -4.3895    0.7215 O   0  0  0  0  0  0  0  0  0  0  0  0
    6.7041   -4.8668   -0.6061 C   0  0  0  0  0  0  0  0  0  0  0  0
    5.4345   -2.4638    0.1979 C   0  0  0  0  0  0  0  0  0  0  0  0
    4.8372   -1.2794    0.6810 C   0  0  0  0  0  0  0  0  0  0  0  0
    2.9018    1.7928    0.8606 C   0  0  0  0  0  0  0  0  0  0  0  0
    2.7106    2.6241    1.7437 O   0  0  0  0  0  0  0  0  0  0  0  0
   -0.5026    2.4313    0.7906 C   0  0  0  0  0  0  0  0  0  0  0  0
   -1.8573    2.1367    0.9684 C   0  0  0  0  0  0  0  0  0  0  0  0
   -9.4591   -1.8174   -0.9336 H   0  0  0  0  0  0  0  0  0  0  0  0
   -8.6506   -0.4577   -1.7188 H   0  0  0  0  0  0  0  0  0  0  0  0
   -7.9529   -2.0873   -1.8259 H   0  0  0  0  0  0  0  0  0  0  0  0
   -7.6562   -2.0811    0.6789 H   0  0  0  0  0  0  0  0  0  0  0  0
   -8.2314   -0.4183    0.7339 H   0  0  0  0  0  0  0  0  0  0  0  0
   -5.7428   -0.6329    0.8315 H   0  0  0  0  0  0  0  0  0  0  0  0
   -5.7265   -1.3970   -0.7476 H   0  0  0  0  0  0  0  0  0  0  0  0
   -6.6174    0.6845   -1.8023 H   0  0  0  0  0  0  0  0  0  0  0  0
   -6.7507    1.4487   -0.2059 H   0  0  0  0  0  0  0  0  0  0  0  0
   -4.2878    0.7964   -1.7126 H   0  0  0  0  0  0  0  0  0  0  0  0
   -2.8825    2.4141   -2.2705 H   0  0  0  0  0  0  0  0  0  0  0  0
   -0.5097    2.9127   -2.5820 H   0  0  0  0  0  0  0  0  0  0  0  0
    1.7432    3.8471   -0.0175 H   0  0  0  0  0  0  0  0  0  0  0  0
    1.6549    3.4009   -1.6954 H   0  0  0  0  0  0  0  0  0  0  0  0
    3.6546   -0.8347   -1.8333 H   0  0  0  0  0  0  0  0  0  0  0  0
    4.3566    0.8013    3.0913 H   0  0  0  0  0  0  0  0  0  0  0  0
    6.0406   -1.3334    3.9024 H   0  0  0  0  0  0  0  0  0  0  0  0
    7.0768   -3.4113    3.0239 H   0  0  0  0  0  0  0  0  0  0  0  0
    5.6525   -5.0967   -0.8069 H   0  0  0  0  0  0  0  0  0  0  0  0
    7.1006   -4.1547   -1.3373 H   0  0  0  0  0  0  0  0  0  0  0  0
    7.2726   -5.7965   -0.7052 H   0  0  0  0  0  0  0  0  0  0  0  0
    5.2527   -2.7559   -0.8285 H   0  0  0  0  0  0  0  0  0  0  0  0
    0.1426    2.4627    1.6665 H   0  0  0  0  0  0  0  0  0  0  0  0
   -2.2376    1.9379    1.9689 H   0  0  0  0  0  0  0  0  0  0  0  0
  1  2  1  0
  2  3  1  0
  3  4  1  0
  4  5  1  0
  5  6  1  0
  6  7  2  0
  6  8  1  0
  8  9  2  0
  9 10  1  0
 10 11  2  0
 11 12  1  0
 12 13  1  0
 13 14  1  0
 14 15  2  0
 14 16  1  0
 16 17  1  0
 17 18  2  0
 18 19  1  0
 19 20  1  0
 20 21  2  0
 21 22  1  0
 22 23  2  0
 23 24  1  0
 24 25  1  0
 23 26  1  0
 26 27  2  0
 18 28  1  0
 28 29  2  0
 11 30  1  0
 30 31  2  0
 31  8  1  0
 28 13  1  0
 27 17  1  0
 27 20  1  0
  1 32  1  0
  1 33  1  0
  1 34  1  0
  2 35  1  0
  2 36  1  0
  3 37  1  0
  3 38  1  0
  4 39  1  0
  4 40  1  0
  5 41  1  0
  9 42  1  0
 10 43  1  0
 12 44  1  0
 12 45  1  0
 16 46  1  0
 19 47  1  0
 21 48  1  0
 22 49  1  0
 25 50  1  0
 25 51  1  0
 25 52  1  0
 26 53  1  0
 30 54  1  0
 31 55  1  0
M  END
$$$$
