
     RDKit          3D

 41 41  0  0  0  0  0  0  0  0999 V2000
    3.5627   -2.9781    2.5411 C   0  0  0  0  0  0  0  0  0  0  0  0
    2.4353   -2.2143    1.8624 C   0  0  0  0  0  0  0  0  0  0  0  0
    2.9637   -0.9816    1.1271 C   0  0  0  0  0  0  0  0  0  0  0  0
    1.8808   -0.2354    0.3398 C   0  0  0  0  0  0  0  0  0  0  0  0
    0.8770    0.4930    1.2413 C   0  0  0  0  0  0  0  0  0  0  0  0
   -0.2814    1.2267    0.5278 C   0  0  0  0  0  0  0  0  0  0  0  0
    0.1358    1.9633   -0.7458 C   0  0  0  0  0  0  0  0  0  0  0  0
   -1.0142    2.7827   -1.3098 C   0  0  0  0  0  0  0  0  0  0  0  0
   -0.6996    3.8814   -1.9270 N   0  0  0  0  0  0  0  0  0  0  0  0
   -1.8235    4.5543   -2.4195 O   0  0  0  0  0  0  0  0  0  0  0  0
   -2.3966    2.2407   -1.1418 C   0  0  0  0  0  0  0  0  0  0  0  0
   -2.6334    1.1253   -0.4282 C   0  0  0  0  0  0  0  0  0  0  0  0
   -4.0282    0.5790   -0.2866 C   0  0  0  0  0  0  0  0  0  0  0  0
   -1.5388    0.3552    0.2973 C   0  0  0  0  0  0  0  0  0  0  0  0
   -1.2543   -0.9759   -0.4003 C   0  0  0  0  0  0  0  0  0  0  0  0
   -1.1877   -2.0459    0.1942 O   0  0  0  0  0  0  0  0  0  0  0  0
   -1.0716   -0.8231   -1.7407 O   0  0  0  0  0  0  0  0  0  0  0  0
   -0.8124   -2.0408   -2.4397 C   0  0  0  0  0  0  0  0  0  0  0  0
    4.0835   -2.3449    3.2669 H   0  0  0  0  0  0  0  0  0  0  0  0
    3.1653   -3.8483    3.0727 H   0  0  0  0  0  0  0  0  0  0  0  0
    4.2937   -3.3327    1.8073 H   0  0  0  0  0  0  0  0  0  0  0  0
    1.9244   -2.8795    1.1570 H   0  0  0  0  0  0  0  0  0  0  0  0
    1.7038   -1.9231    2.6227 H   0  0  0  0  0  0  0  0  0  0  0  0
    3.4426   -0.2988    1.8389 H   0  0  0  0  0  0  0  0  0  0  0  0
    3.7418   -1.2973    0.4207 H   0  0  0  0  0  0  0  0  0  0  0  0
    2.3864    0.4994   -0.2979 H   0  0  0  0  0  0  0  0  0  0  0  0
    1.3776   -0.9382   -0.3286 H   0  0  0  0  0  0  0  0  0  0  0  0
    0.4527   -0.1938    1.9817 H   0  0  0  0  0  0  0  0  0  0  0  0
    1.4390    1.2411    1.8168 H   0  0  0  0  0  0  0  0  0  0  0  0
   -0.6030    2.0041    1.2403 H   0  0  0  0  0  0  0  0  0  0  0  0
    0.9695    2.6403   -0.5222 H   0  0  0  0  0  0  0  0  0  0  0  0
    0.4704    1.2780   -1.5317 H   0  0  0  0  0  0  0  0  0  0  0  0
   -1.4263    5.3407   -2.8379 H   0  0  0  0  0  0  0  0  0  0  0  0
   -3.1964    2.7815   -1.6352 H   0  0  0  0  0  0  0  0  0  0  0  0
   -4.3179    0.5468    0.7687 H   0  0  0  0  0  0  0  0  0  0  0  0
   -4.0873   -0.4346   -0.6955 H   0  0  0  0  0  0  0  0  0  0  0  0
   -4.7666    1.1924   -0.8140 H   0  0  0  0  0  0  0  0  0  0  0  0
   -1.9328    0.0952    1.2907 H   0  0  0  0  0  0  0  0  0  0  0  0
   -0.7117   -1.8061   -3.5027 H   0  0  0  0  0  0  0  0  0  0  0  0
    0.1235   -2.4895   -2.0928 H   0  0  0  0  0  0  0  0  0  0  0  0
   -1.6460   -2.7392   -2.3170 H   0  0  0  0  0  0  0  0  0  0  0  0
  1  2  1  0
  2  3  1  0
  3  4  1  0
  4  5  1  0
  5  6  1  0
  6  7  1  0
  7  8  1  0
  8  9  2  3
  9 10  1  0
  8 11  1  0
 11 12  2  0
 12 13  1  0
 12 14  1  0
 14 15  1  0
 15 16  2  0
 15 17  1  0
 17 18  1  0
 14  6  1  0
  1 19  1  0
  1 20  1  0
  1 21  1  0
  2 22  1  0
  2 23  1  0
  3 24  1  0
  3 25  1  0
  4 26  1  0
  4 27  1  0
  5 28  1  0
  5 29  1  0
  6 30  1  0
  7 31  1  0
  7 32  1  0
 10 33  1  0
 11 34  1  0
 13 35  1  0
 13 36  1  0
 13 37  1  0
 14 38  1  0
 18 39  1  0
 18 40  1  0
 18 41  1  0
M  END
$$$$
