
     RDKit          3D

 43 46  0  0  0  0  0  0  0  0999 V2000
   -4.8606   -2.9243    1.3912 C   0  0  0  0  0  0  0  0  0  0  0  0
   -3.5458   -2.4721    0.7863 C   0  0  0  0  0  0  0  0  0  0  0  0
   -3.6479   -1.0757    0.4896 O   0  0  0  0  0  0  0  0  0  0  0  0
   -2.5212   -0.5335   -0.0511 C   0  0  0  0  0  0  0  0  0  0  0  0
   -1.4982   -1.1596   -0.3005 O   0  0  0  0  0  0  0  0  0  0  0  0
   -2.7184    0.8845   -0.2970 C   0  0  0  0  0  0  0  0  0  0  0  0
   -3.8661    1.6402   -0.0849 C   0  0  0  0  0  0  0  0  0  0  0  0
   -3.5532    2.9747   -0.4575 C   0  0  0  0  0  0  0  0  0  0  0  0
   -4.3167    4.5268   -0.5314 S   0  0  0  0  0  0  0  0  0  0  0  0
   -2.8538    5.2131   -1.1187 C   0  0  0  0  0  0  0  0  0  0  0  0
   -1.8227    4.3091   -1.2629 C   0  0  0  0  0  0  0  0  0  0  0  0
   -2.2575    3.0103   -0.8756 C   0  0  0  0  0  0  0  0  0  0  0  0
   -1.7411    1.7342   -0.7897 N   0  0  0  0  0  0  0  0  0  0  0  0
   -0.3840    1.3864   -1.1904 C   0  0  0  0  0  0  0  0  0  0  0  0
    0.5450    1.1864   -0.0093 C   0  0  0  0  0  0  0  0  0  0  0  0
    0.3531    1.7123    1.0865 O   0  0  0  0  0  0  0  0  0  0  0  0
    1.7670    0.3488   -0.1989 C   0  0  0  0  0  0  0  0  0  0  0  0
    2.2539    0.0104   -1.4693 C   0  0  0  0  0  0  0  0  0  0  0  0
    3.4036   -0.7764   -1.5936 C   0  0  0  0  0  0  0  0  0  0  0  0
    4.0689   -1.2247   -0.4551 C   0  0  0  0  0  0  0  0  0  0  0  0
    3.6072   -0.8618    0.8129 C   0  0  0  0  0  0  0  0  0  0  0  0
    2.4545   -0.0889    0.9424 C   0  0  0  0  0  0  0  0  0  0  0  0
    4.2323   -1.2370    1.9744 O   0  0  0  0  0  0  0  0  0  0  0  0
    5.5575   -1.7186    1.7240 C   0  0  0  0  0  0  0  0  0  0  0  0
    5.5649   -2.6803    0.5472 C   0  0  0  0  0  0  0  0  0  0  0  0
    5.1750   -2.0090   -0.6571 O   0  0  0  0  0  0  0  0  0  0  0  0
   -5.6872   -2.7430    0.6962 H   0  0  0  0  0  0  0  0  0  0  0  0
   -4.8317   -3.9898    1.6357 H   0  0  0  0  0  0  0  0  0  0  0  0
   -5.0807   -2.3580    2.3022 H   0  0  0  0  0  0  0  0  0  0  0  0
   -3.3506   -3.0328   -0.1347 H   0  0  0  0  0  0  0  0  0  0  0  0
   -2.7327   -2.6409    1.5013 H   0  0  0  0  0  0  0  0  0  0  0  0
   -4.8122    1.2801    0.2978 H   0  0  0  0  0  0  0  0  0  0  0  0
   -2.8264    6.2735   -1.3295 H   0  0  0  0  0  0  0  0  0  0  0  0
   -0.8333    4.5708   -1.6135 H   0  0  0  0  0  0  0  0  0  0  0  0
   -0.4613    0.4859   -1.8058 H   0  0  0  0  0  0  0  0  0  0  0  0
    0.0102    2.1943   -1.8153 H   0  0  0  0  0  0  0  0  0  0  0  0
    1.7664    0.3453   -2.3798 H   0  0  0  0  0  0  0  0  0  0  0  0
    3.7759   -1.0479   -2.5783 H   0  0  0  0  0  0  0  0  0  0  0  0
    2.0984    0.1755    1.9361 H   0  0  0  0  0  0  0  0  0  0  0  0
    5.9028   -2.2262    2.6301 H   0  0  0  0  0  0  0  0  0  0  0  0
    6.2130   -0.8576    1.5432 H   0  0  0  0  0  0  0  0  0  0  0  0
    6.5714   -3.0813    0.3921 H   0  0  0  0  0  0  0  0  0  0  0  0
    4.8825   -3.5232    0.7128 H   0  0  0  0  0  0  0  0  0  0  0  0
  1  2  1  0
  2  3  1  0
  3  4  1  0
  4  5  2  0
  4  6  1  0
  6  7  2  0
  7  8  1  0
  8  9  1  0
  9 10  1  0
 10 11  2  0
 11 12  1  0
 12 13  1  0
 13 14  1  0
 14 15  1  0
 15 16  2  0
 15 17  1  0
 17 18  2  0
 18 19  1  0
 19 20  2  0
 20 21  1  0
 21 22  2  0
 21 23  1  0
 23 24  1  0
 24 25  1  0
 25 26  1  0
 13  6  1  0
 22 17  1  0
 12  8  2  0
 26 20  1  0
  1 27  1  0
  1 28  1  0
  1 29  1  0
  2 30  1  0
  2 31  1  0
  7 32  1  0
 10 33  1  0
 11 34  1  0
 14 35  1  0
 14 36  1  0
 18 37  1  0
 19 38  1  0
 22 39  1  0
 24 40  1  0
 24 41  1  0
 25 42  1  0
 25 43  1  0
M  END
$$$$
