
     RDKit          3D

 43 45  0  0  0  0  0  0  0  0999 V2000
   -0.2415   -3.6407   -1.8769 C   0  0  0  0  0  0  0  0  0  0  0  0
    0.0749   -2.2965   -2.4775 C   0  0  0  0  0  0  0  0  0  0  0  0
   -0.3215   -1.9775   -3.5981 O   0  0  0  0  0  0  0  0  0  0  0  0
    0.8811   -1.3589   -1.6614 C   0  0  0  0  0  0  0  0  0  0  0  0
    0.2672   -0.6682   -0.6745 C   0  0  0  0  0  0  0  0  0  0  0  0
   -1.1018   -0.7558   -0.4099 N   0  0  0  0  0  0  0  0  0  0  0  0
   -1.6070   -0.9915    0.9634 C   0  0  0  0  0  0  0  0  0  0  0  0
   -2.5800    0.1158    1.4187 C   0  0  0  0  0  0  0  0  0  0  0  0
   -3.7494    0.3247    0.5416 N   0  0  0  0  0  0  0  0  0  0  0  0
   -4.9692   -0.2452    1.1079 C   0  0  0  0  0  0  0  0  0  0  0  0
   -3.5136   -0.2067   -0.8191 C   0  0  0  0  0  0  0  0  0  0  0  0
   -2.0570   -0.0302   -1.2939 C   0  0  0  0  0  0  0  0  0  0  0  0
    1.0412    0.1692    0.0937 N   0  0  0  0  0  0  0  0  0  0  0  0
    2.3540    0.4332   -0.2016 C   0  0  0  0  0  0  0  0  0  0  0  0
    3.0799    1.5026    0.5541 C   0  0  0  0  0  0  0  0  0  0  0  0
    4.2020    2.1117   -0.0218 C   0  0  0  0  0  0  0  0  0  0  0  0
    4.8860    3.1169    0.6642 C   0  0  0  0  0  0  0  0  0  0  0  0
    4.4570    3.5134    1.9298 C   0  0  0  0  0  0  0  0  0  0  0  0
    3.3481    2.9025    2.5146 C   0  0  0  0  0  0  0  0  0  0  0  0
    2.6597    1.8966    1.8313 C   0  0  0  0  0  0  0  0  0  0  0  0
    2.9976   -0.2083   -1.1303 N   0  0  0  0  0  0  0  0  0  0  0  0
    2.3632   -1.2107   -1.8445 C   0  0  0  0  0  0  0  0  0  0  0  0
    3.2757   -2.2143   -2.8606 S   0  0  0  0  0  0  0  0  0  0  0  0
    0.0761   -4.4262   -2.5678 H   0  0  0  0  0  0  0  0  0  0  0  0
   -1.3174   -3.7108   -1.6972 H   0  0  0  0  0  0  0  0  0  0  0  0
    0.2849   -3.7840   -0.9289 H   0  0  0  0  0  0  0  0  0  0  0  0
   -2.1166   -1.9627    0.9800 H   0  0  0  0  0  0  0  0  0  0  0  0
   -0.7792   -1.0616    1.6793 H   0  0  0  0  0  0  0  0  0  0  0  0
   -2.0264    1.0637    1.4403 H   0  0  0  0  0  0  0  0  0  0  0  0
   -2.8863   -0.0710    2.4555 H   0  0  0  0  0  0  0  0  0  0  0  0
   -5.2014    0.2252    2.0698 H   0  0  0  0  0  0  0  0  0  0  0  0
   -5.8251   -0.0544    0.4509 H   0  0  0  0  0  0  0  0  0  0  0  0
   -4.8861   -1.3268    1.2638 H   0  0  0  0  0  0  0  0  0  0  0  0
   -4.1827    0.3077   -1.5186 H   0  0  0  0  0  0  0  0  0  0  0  0
   -3.7575   -1.2772   -0.8622 H   0  0  0  0  0  0  0  0  0  0  0  0
   -1.7998    1.0368   -1.3064 H   0  0  0  0  0  0  0  0  0  0  0  0
   -1.9761   -0.4004   -2.3203 H   0  0  0  0  0  0  0  0  0  0  0  0
    0.5043    0.8484    0.6156 H   0  0  0  0  0  0  0  0  0  0  0  0
    4.5477    1.8089   -1.0083 H   0  0  0  0  0  0  0  0  0  0  0  0
    5.7552    3.5867    0.2103 H   0  0  0  0  0  0  0  0  0  0  0  0
    4.9936    4.2940    2.4640 H   0  0  0  0  0  0  0  0  0  0  0  0
    3.0263    3.2050    3.5082 H   0  0  0  0  0  0  0  0  0  0  0  0
    1.8198    1.4165    2.3230 H   0  0  0  0  0  0  0  0  0  0  0  0
  1  2  1  0
  2  3  2  0
  2  4  1  0
  4  5  2  0
  5  6  1  0
  6  7  1  0
  7  8  1  0
  8  9  1  0
  9 10  1  0
  9 11  1  0
 11 12  1  0
  5 13  1  0
 13 14  1  0
 14 15  1  0
 15 16  2  0
 16 17  1  0
 17 18  2  0
 18 19  1  0
 19 20  2  0
 14 21  2  0
 21 22  1  0
 22 23  2  0
 22  4  1  0
 12  6  1  0
 20 15  1  0
  1 24  1  0
  1 25  1  0
  1 26  1  0
  7 27  1  0
  7 28  1  0
  8 29  1  0
  8 30  1  0
 10 31  1  0
 10 32  1  0
 10 33  1  0
 11 34  1  0
 11 35  1  0
 12 36  1  0
 12 37  1  0
 13 38  1  0
 16 39  1  0
 17 40  1  0
 18 41  1  0
 19 42  1  0
 20 43  1  0
M  END
$$$$
