
     RDKit          3D

 31 33  0  0  0  0  0  0  0  0999 V2000
    3.9734    1.7005    3.0329 O   0  0  0  0  0  0  0  0  0  0  0  0
    3.8770    1.5558    1.8250 C   0  0  0  0  0  0  0  0  0  0  0  0
    4.5424    2.3831    0.9853 O   0  0  0  0  0  0  0  0  0  0  0  0
    3.1041    0.4652    1.1147 C   0  0  0  0  0  0  0  0  0  0  0  0
    2.7751    0.8722   -0.2613 N   0  0  0  0  0  0  0  0  0  0  0  0
    1.9119   -0.1984   -1.2152 S   0  0  0  0  0  6  0  0  0  0  0  0
    2.0947    0.2360   -2.5807 O   0  0  0  0  0  0  0  0  0  0  0  0
    2.2709   -1.5259   -0.7720 O   0  0  0  0  0  0  0  0  0  0  0  0
    0.2239    0.1499   -0.7847 C   0  0  0  0  0  0  0  0  0  0  0  0
   -0.1317    1.5104   -0.5553 C   0  0  0  0  0  0  0  0  0  0  0  0
   -1.4353    1.8716   -0.1831 C   0  0  0  0  0  0  0  0  0  0  0  0
   -2.3526    0.8567   -0.0545 C   0  0  0  0  0  0  0  0  0  0  0  0
   -2.0048   -0.4488   -0.2884 C   0  0  0  0  0  0  0  0  0  0  0  0
   -3.1043   -1.2498   -0.1031 C   0  0  0  0  0  0  0  0  0  0  0  0
   -3.0330   -2.6134   -0.2864 C   0  0  0  0  0  0  0  0  0  0  0  0
   -1.7952   -3.1419   -0.6732 C   0  0  0  0  0  0  0  0  0  0  0  0
   -0.6664   -2.3063   -0.8629 C   0  0  0  0  0  0  0  0  0  0  0  0
   -0.7389   -0.8957   -0.6633 C   0  0  0  0  0  0  0  0  0  0  0  0
   -4.2274   -0.3684    0.2837 C   0  0  0  0  0  0  0  0  0  0  0  0
   -5.3638   -0.7129    0.5335 O   0  0  0  0  0  0  0  0  0  0  0  0
   -3.6980    0.9124    0.2946 N   0  0  0  0  0  0  0  0  0  0  0  0
    5.0062    3.0056    1.5857 H   0  0  0  0  0  0  0  0  0  0  0  0
    2.1828    0.2759    1.6728 H   0  0  0  0  0  0  0  0  0  0  0  0
    3.7417   -0.4235    1.1049 H   0  0  0  0  0  0  0  0  0  0  0  0
    3.5029    1.3852   -0.7653 H   0  0  0  0  0  0  0  0  0  0  0  0
    0.6138    2.2952   -0.6766 H   0  0  0  0  0  0  0  0  0  0  0  0
   -1.7010    2.9085   -0.0108 H   0  0  0  0  0  0  0  0  0  0  0  0
   -3.9032   -3.2447   -0.1416 H   0  0  0  0  0  0  0  0  0  0  0  0
   -1.6958   -4.2141   -0.8355 H   0  0  0  0  0  0  0  0  0  0  0  0
    0.2633   -2.7784   -1.1749 H   0  0  0  0  0  0  0  0  0  0  0  0
   -4.2329    1.7378    0.5181 H   0  0  0  0  0  0  0  0  0  0  0  0
  1  2  2  0
  2  3  1  0
  2  4  1  0
  4  5  1  0
  5  6  1  0
  6  7  2  0
  6  8  2  0
  6  9  1  0
  9 10  2  0
 10 11  1  0
 11 12  2  0
 12 13  1  0
 13 14  2  0
 14 15  1  0
 15 16  2  0
 16 17  1  0
 17 18  2  0
 14 19  1  0
 19 20  2  0
 19 21  1  0
 18  9  1  0
 21 12  1  0
 18 13  1  0
  3 22  1  0
  4 23  1  0
  4 24  1  0
  5 25  1  0
 10 26  1  0
 11 27  1  0
 15 28  1  0
 16 29  1  0
 17 30  1  0
 21 31  1  0
M  END
$$$$
