
     RDKit          3D

 68 73  0  0  0  0  0  0  0  0999 V2000
   -4.2553    4.9263   -1.8129 C   0  0  0  0  0  0  0  0  0  0  0  0
   -3.3872    3.8139   -1.6381 O   0  0  0  0  0  0  0  0  0  0  0  0
   -3.1661    3.3897   -0.3560 C   0  0  0  0  0  0  0  0  0  0  0  0
   -3.7002    3.9781    0.8067 C   0  0  0  0  0  0  0  0  0  0  0  0
   -3.4058    3.4634    2.0758 C   0  0  0  0  0  0  0  0  0  0  0  0
   -2.5796    2.3630    2.1412 C   0  0  0  0  0  0  0  0  0  0  0  0
   -2.0453    1.7599    1.0008 C   0  0  0  0  0  0  0  0  0  0  0  0
   -2.3281    2.2722   -0.2559 C   0  0  0  0  0  0  0  0  0  0  0  0
   -1.2025    0.5959    1.4226 C   0  0  1  0  0  0  0  0  0  0  0  0
   -1.3045    0.6366    2.9738 C   0  0  0  0  0  0  0  0  0  0  0  0
   -0.7569   -0.0817    3.7961 O   0  0  0  0  0  0  0  0  0  0  0  0
   -2.1543    1.7026    3.2863 N   0  0  0  0  0  0  0  0  0  0  0  0
   -1.7497   -0.6559    0.8307 C   0  0  0  0  0  0  0  0  0  0  0  0
   -0.6943   -1.4954    0.4389 C   0  0  0  0  0  0  0  0  0  0  0  0
   -1.2130   -2.6456   -0.0899 C   0  0  0  0  0  0  0  0  0  0  0  0
   -0.5865   -3.6979   -0.6104 O   0  0  0  0  0  0  0  0  0  0  0  0
   -2.6240   -2.5318   -0.0485 N   0  0  0  0  0  0  0  0  0  0  0  0
   -3.5712   -3.5106   -0.5155 C   0  0  0  0  0  0  0  0  0  0  0  0
   -4.8643   -3.1314   -0.9060 C   0  0  0  0  0  0  0  0  0  0  0  0
   -5.7836   -4.0830   -1.3611 C   0  0  0  0  0  0  0  0  0  0  0  0
   -5.4254   -5.4254   -1.4318 C   0  0  0  0  0  0  0  0  0  0  0  0
   -4.1470   -5.8174   -1.0477 C   0  0  0  0  0  0  0  0  0  0  0  0
   -3.2252   -4.8678   -0.5934 C   0  0  0  0  0  0  0  0  0  0  0  0
   -2.9347   -1.2796    0.5349 C   0  0  0  0  0  0  0  0  0  0  0  0
   -4.1836   -0.8778    0.7631 O   0  0  0  0  0  0  0  0  0  0  0  0
    0.6012   -0.8616    0.7686 C   0  0  1  0  0  0  0  0  0  0  0  0
    1.7468   -0.9407   -0.2332 C   0  0  0  0  0  0  0  0  0  0  0  0
    2.8566   -0.0619    0.1749 N   0  0  0  0  0  0  0  0  0  0  0  0
    4.1209   -0.3590   -0.3054 C   0  0  0  0  0  0  0  0  0  0  0  0
    4.3949   -1.4083   -0.8737 O   0  0  0  0  0  0  0  0  0  0  0  0
    5.0064    0.6422   -0.0684 O   0  0  0  0  0  0  0  0  0  0  0  0
    6.3908    0.5333   -0.4876 C   0  0  0  0  0  0  0  0  0  0  0  0
    7.0366    1.8537   -0.0394 C   0  0  0  0  0  0  0  0  0  0  0  0
    7.1000   -0.6236    0.2248 C   0  0  0  0  0  0  0  0  0  0  0  0
    6.5060    0.4270   -2.0122 C   0  0  0  0  0  0  0  0  0  0  0  0
    2.4958    1.3000    0.6148 C   0  0  0  0  0  0  0  0  0  0  0  0
    1.2240    1.3625    1.5007 C   0  0  0  0  0  0  0  0  0  0  0  0
    0.1738    0.5690    0.8853 N   0  0  0  0  0  0  0  0  0  0  0  0
   -5.2606    4.7051   -1.4395 H   0  0  0  0  0  0  0  0  0  0  0  0
   -3.8452    5.8241   -1.3389 H   0  0  0  0  0  0  0  0  0  0  0  0
   -4.3348    5.1234   -2.8863 H   0  0  0  0  0  0  0  0  0  0  0  0
   -4.3489    4.8472    0.7516 H   0  0  0  0  0  0  0  0  0  0  0  0
   -3.8157    3.9242    2.9678 H   0  0  0  0  0  0  0  0  0  0  0  0
   -1.9104    1.8134   -1.1483 H   0  0  0  0  0  0  0  0  0  0  0  0
   -2.3850    1.9524    4.2367 H   0  0  0  0  0  0  0  0  0  0  0  0
    0.3727   -3.5536   -0.5448 H   0  0  0  0  0  0  0  0  0  0  0  0
   -5.1795   -2.0928   -0.9041 H   0  0  0  0  0  0  0  0  0  0  0  0
   -6.7783   -3.7687   -1.6660 H   0  0  0  0  0  0  0  0  0  0  0  0
   -6.1396   -6.1637   -1.7851 H   0  0  0  0  0  0  0  0  0  0  0  0
   -3.8624   -6.8653   -1.0937 H   0  0  0  0  0  0  0  0  0  0  0  0
   -2.2536   -5.2290   -0.2717 H   0  0  0  0  0  0  0  0  0  0  0  0
   -4.1536    0.0291    1.1135 H   0  0  0  0  0  0  0  0  0  0  0  0
    0.9355   -1.2374    1.7465 H   0  0  0  0  0  0  0  0  0  0  0  0
    1.4301   -0.6246   -1.2356 H   0  0  0  0  0  0  0  0  0  0  0  0
    2.1022   -1.9736   -0.3199 H   0  0  0  0  0  0  0  0  0  0  0  0
    6.9422    1.9855    1.0449 H   0  0  0  0  0  0  0  0  0  0  0  0
    6.5311    2.7108   -0.4995 H   0  0  0  0  0  0  0  0  0  0  0  0
    8.0989    1.8970   -0.3018 H   0  0  0  0  0  0  0  0  0  0  0  0
    6.9307   -0.5762    1.3064 H   0  0  0  0  0  0  0  0  0  0  0  0
    8.1795   -0.6033    0.0401 H   0  0  0  0  0  0  0  0  0  0  0  0
    6.7302   -1.5979   -0.1080 H   0  0  0  0  0  0  0  0  0  0  0  0
    7.5474    0.5169   -2.3400 H   0  0  0  0  0  0  0  0  0  0  0  0
    6.1277   -0.5290   -2.3863 H   0  0  0  0  0  0  0  0  0  0  0  0
    5.9174    1.2112   -2.5017 H   0  0  0  0  0  0  0  0  0  0  0  0
    2.3409    1.8904   -0.2971 H   0  0  0  0  0  0  0  0  0  0  0  0
    3.3320    1.7508    1.1598 H   0  0  0  0  0  0  0  0  0  0  0  0
    0.9183    2.4100    1.5983 H   0  0  0  0  0  0  0  0  0  0  0  0
    1.4653    0.9913    2.5040 H   0  0  0  0  0  0  0  0  0  0  0  0
  1  2  1  0
  2  3  1  0
  3  4  2  0
  4  5  1  0
  5  6  2  0
  6  7  1  0
  7  8  2  0
  7  9  1  0
  9 10  1  0
 10 11  2  0
 10 12  1  0
  9 13  1  0
 13 14  1  0
 14 15  2  0
 15 16  1  0
 15 17  1  0
 17 18  1  0
 18 19  2  0
 19 20  1  0
 20 21  2  0
 21 22  1  0
 22 23  2  0
 17 24  1  0
 24 25  1  0
 14 26  1  0
 26 27  1  0
 27 28  1  0
 28 29  1  0
 29 30  2  0
 29 31  1  0
 31 32  1  0
 32 33  1  0
 32 34  1  0
 32 35  1  0
 28 36  1  0
 36 37  1  0
 37 38  1  0
  8  3  1  0
  9 38  1  1
 12  6  1  0
 24 13  2  0
 38 26  1  0
 23 18  1  0
  1 39  1  0
  1 40  1  0
  1 41  1  0
  4 42  1  0
  5 43  1  0
  8 44  1  0
 12 45  1  0
 16 46  1  0
 19 47  1  0
 20 48  1  0
 21 49  1  0
 22 50  1  0
 23 51  1  0
 25 52  1  0
 26 53  1  1
 27 54  1  0
 27 55  1  0
 33 56  1  0
 33 57  1  0
 33 58  1  0
 34 59  1  0
 34 60  1  0
 34 61  1  0
 35 62  1  0
 35 63  1  0
 35 64  1  0
 36 65  1  0
 36 66  1  0
 37 67  1  0
 37 68  1  0
M  END
$$$$
