
     RDKit          3D

 50 52  0  0  0  0  0  0  0  0999 V2000
    2.2701   -0.9806   -0.1055 O   0  0  0  0  0  0  0  0  0  0  0  0
    2.4634    0.4381    0.0169 C   0  0  0  0  0  0  0  0  0  0  0  0
    3.8710    0.6706    0.5886 C   0  0  0  0  0  0  0  0  0  0  0  0
    4.8432    0.0193   -0.2398 O   0  0  0  0  0  0  0  0  0  0  0  0
    5.2994    0.8468   -1.3106 C   0  0  0  0  0  0  0  0  0  0  0  0
    6.1679   -0.0136   -2.1693 C   0  0  0  0  0  0  0  0  0  0  0  0
    5.7919   -1.0698   -2.9777 C   0  0  0  0  0  0  0  0  0  0  0  0
    6.8985   -1.6537   -3.6587 C   0  0  0  0  0  0  0  0  0  0  0  0
    8.0829   -1.0239   -3.3497 C   0  0  0  0  0  0  0  0  0  0  0  0
    7.8574    0.2621   -2.2459 S   0  0  0  0  0  0  0  0  0  0  0  0
    1.3889    1.0592    0.9389 C   0  0  0  0  0  0  0  0  0  0  0  0
    0.0721    1.2580    0.2978 N   0  0  0  0  0  0  0  0  0  0  0  0
   -0.5204   -0.0227   -0.1558 C   0  0  0  0  0  0  0  0  0  0  0  0
   -2.0578    0.0120   -0.3302 C   0  0  0  0  0  0  0  0  0  0  0  0
   -2.7257    0.3526    0.9389 N   0  0  0  0  0  0  0  0  0  0  0  0
   -4.0076   -0.0802    1.2275 C   0  0  0  0  0  0  0  0  0  0  0  0
   -4.4876   -0.1585    2.5443 C   0  0  0  0  0  0  0  0  0  0  0  0
   -5.7827   -0.5984    2.8407 C   0  0  0  0  0  0  0  0  0  0  0  0
   -6.6441   -0.9707    1.8157 C   0  0  0  0  0  0  0  0  0  0  0  0
   -6.2156   -0.8980    0.4874 C   0  0  0  0  0  0  0  0  0  0  0  0
   -7.1246   -1.3111   -0.6409 C   0  0  0  0  0  0  0  0  0  0  0  0
   -8.4483   -1.2040   -0.3328 F   0  0  0  0  0  0  0  0  0  0  0  0
   -6.9336   -2.6071   -1.0135 F   0  0  0  0  0  0  0  0  0  0  0  0
   -6.9486   -0.5690   -1.7705 F   0  0  0  0  0  0  0  0  0  0  0  0
   -4.9034   -0.4621    0.2149 C   0  0  0  0  0  0  0  0  0  0  0  0
   -1.9251    1.1179    1.9068 C   0  0  0  0  0  0  0  0  0  0  0  0
   -0.8637    1.9836    1.1866 C   0  0  0  0  0  0  0  0  0  0  0  0
    3.1266   -1.3370   -0.4158 H   0  0  0  0  0  0  0  0  0  0  0  0
    2.3940    0.8608   -0.9911 H   0  0  0  0  0  0  0  0  0  0  0  0
    4.1028    1.7356    0.7032 H   0  0  0  0  0  0  0  0  0  0  0  0
    3.9470    0.1976    1.5740 H   0  0  0  0  0  0  0  0  0  0  0  0
    4.4535    1.2156   -1.9009 H   0  0  0  0  0  0  0  0  0  0  0  0
    5.8435    1.7052   -0.9011 H   0  0  0  0  0  0  0  0  0  0  0  0
    4.7678   -1.4113   -3.0701 H   0  0  0  0  0  0  0  0  0  0  0  0
    6.8295   -2.4945   -4.3378 H   0  0  0  0  0  0  0  0  0  0  0  0
    9.0727   -1.2573   -3.7170 H   0  0  0  0  0  0  0  0  0  0  0  0
    1.7542    2.0461    1.2503 H   0  0  0  0  0  0  0  0  0  0  0  0
    1.2761    0.4456    1.8423 H   0  0  0  0  0  0  0  0  0  0  0  0
   -0.0733   -0.3005   -1.1168 H   0  0  0  0  0  0  0  0  0  0  0  0
   -0.2938   -0.8216    0.5635 H   0  0  0  0  0  0  0  0  0  0  0  0
   -2.3329    0.7454   -1.0978 H   0  0  0  0  0  0  0  0  0  0  0  0
   -2.3672   -0.9806   -0.6794 H   0  0  0  0  0  0  0  0  0  0  0  0
   -3.8448    0.1000    3.3813 H   0  0  0  0  0  0  0  0  0  0  0  0
   -6.1101   -0.6540    3.8758 H   0  0  0  0  0  0  0  0  0  0  0  0
   -7.6483   -1.3152    2.0554 H   0  0  0  0  0  0  0  0  0  0  0  0
   -4.5966   -0.4009   -0.8278 H   0  0  0  0  0  0  0  0  0  0  0  0
   -2.5621    1.7993    2.4835 H   0  0  0  0  0  0  0  0  0  0  0  0
   -1.4357    0.4309    2.6076 H   0  0  0  0  0  0  0  0  0  0  0  0
   -1.3956    2.7070    0.5542 H   0  0  0  0  0  0  0  0  0  0  0  0
   -0.3252    2.5871    1.9279 H   0  0  0  0  0  0  0  0  0  0  0  0
  1  2  1  0
  2  3  1  0
  3  4  1  0
  4  5  1  0
  5  6  1  0
  6  7  2  0
  7  8  1  0
  8  9  2  0
  9 10  1  0
  2 11  1  0
 11 12  1  0
 12 13  1  0
 13 14  1  0
 14 15  1  0
 15 16  1  0
 16 17  2  0
 17 18  1  0
 18 19  2  0
 19 20  1  0
 20 21  1  0
 21 22  1  0
 21 23  1  0
 21 24  1  0
 20 25  2  0
 15 26  1  0
 26 27  1  0
 10  6  1  0
 27 12  1  0
 25 16  1  0
  1 28  1  0
  2 29  1  0
  3 30  1  0
  3 31  1  0
  5 32  1  0
  5 33  1  0
  7 34  1  0
  8 35  1  0
  9 36  1  0
 11 37  1  0
 11 38  1  0
 13 39  1  0
 13 40  1  0
 14 41  1  0
 14 42  1  0
 17 43  1  0
 18 44  1  0
 19 45  1  0
 25 46  1  0
 26 47  1  0
 26 48  1  0
 27 49  1  0
 27 50  1  0
M  END
$$$$
