
     RDKit          3D

 64 64  0  0  0  0  0  0  0  0999 V2000
   -8.5755    0.1591    2.6172 C   0  0  0  0  0  0  0  0  0  0  0  0
   -8.4912   -1.2844    2.1450 C   0  0  0  0  0  0  0  0  0  0  0  0
   -7.9438   -1.4323    0.7233 C   0  0  0  0  0  0  0  0  0  0  0  0
   -6.4809   -1.0014    0.5893 C   0  0  0  0  0  0  0  0  0  0  0  0
   -5.9548   -1.2687   -0.8240 C   0  0  0  0  0  0  0  0  0  0  0  0
   -4.4632   -0.9563   -0.9852 C   0  0  0  0  0  0  0  0  0  0  0  0
   -4.1366    0.5310   -0.8228 C   0  0  0  0  0  0  0  0  0  0  0  0
   -2.6947    0.8822   -1.2088 C   0  0  0  0  0  0  0  0  0  0  0  0
   -1.6525    0.2780   -0.2634 C   0  0  0  0  0  0  0  0  0  0  0  0
   -0.2078    0.6133   -0.6514 C   0  0  0  0  0  0  0  0  0  0  0  0
    0.1410    2.0951   -0.4839 C   0  0  0  0  0  0  0  0  0  0  0  0
    1.5950    2.4191   -0.8473 C   0  0  0  0  0  0  0  0  0  0  0  0
    2.6110    1.8209    0.1291 C   0  0  0  0  0  0  0  0  0  0  0  0
    4.0421    2.3186   -0.1029 C   0  0  0  0  0  0  0  0  0  0  0  0
    4.6372    2.0141   -1.4818 C   0  0  0  0  0  0  0  0  0  0  0  0
    4.7511    0.5319   -1.8300 C   0  0  0  0  0  0  0  0  0  0  0  0
    5.7283   -0.1478   -0.9393 N   0  0  0  0  0  4  0  0  0  0  0  0
    5.2877   -0.9588    0.0515 C   0  0  0  0  0  0  0  0  0  0  0  0
    6.1840   -1.6190    0.8800 C   0  0  0  0  0  0  0  0  0  0  0  0
    7.5485   -1.4607    0.6657 C   0  0  0  0  0  0  0  0  0  0  0  0
    8.5593   -2.1293    1.5100 C   0  0  0  0  0  0  0  0  0  0  0  0
    8.5255   -3.3241    2.0175 N   0  0  0  0  0  0  0  0  0  0  0  0
    7.4058   -4.0624    1.6270 O   0  0  0  0  0  0  0  0  0  0  0  0
    7.9926   -0.6158   -0.3455 C   0  0  0  0  0  0  0  0  0  0  0  0
    7.0563    0.0241   -1.1482 C   0  0  0  0  0  0  0  0  0  0  0  0
   -7.5828    0.6069    2.7201 H   0  0  0  0  0  0  0  0  0  0  0  0
   -9.0622    0.2057    3.5970 H   0  0  0  0  0  0  0  0  0  0  0  0
   -9.1598    0.7681    1.9201 H   0  0  0  0  0  0  0  0  0  0  0  0
   -9.4972   -1.7200    2.1759 H   0  0  0  0  0  0  0  0  0  0  0  0
   -7.8750   -1.8619    2.8441 H   0  0  0  0  0  0  0  0  0  0  0  0
   -8.5652   -0.8545    0.0281 H   0  0  0  0  0  0  0  0  0  0  0  0
   -8.0359   -2.4856    0.4295 H   0  0  0  0  0  0  0  0  0  0  0  0
   -5.8690   -1.5462    1.3185 H   0  0  0  0  0  0  0  0  0  0  0  0
   -6.3916    0.0655    0.8186 H   0  0  0  0  0  0  0  0  0  0  0  0
   -6.5334   -0.6863   -1.5516 H   0  0  0  0  0  0  0  0  0  0  0  0
   -6.1111   -2.3265   -1.0717 H   0  0  0  0  0  0  0  0  0  0  0  0
   -3.8940   -1.5510   -0.2618 H   0  0  0  0  0  0  0  0  0  0  0  0
   -4.1514   -1.2852   -1.9842 H   0  0  0  0  0  0  0  0  0  0  0  0
   -4.8123    1.1165   -1.4588 H   0  0  0  0  0  0  0  0  0  0  0  0
   -4.3180    0.8482    0.2107 H   0  0  0  0  0  0  0  0  0  0  0  0
   -2.6086    1.9745   -1.2007 H   0  0  0  0  0  0  0  0  0  0  0  0
   -2.4981    0.5555   -2.2373 H   0  0  0  0  0  0  0  0  0  0  0  0
   -1.8443    0.6126    0.7631 H   0  0  0  0  0  0  0  0  0  0  0  0
   -1.7486   -0.8136   -0.2646 H   0  0  0  0  0  0  0  0  0  0  0  0
   -0.0231    0.3033   -1.6872 H   0  0  0  0  0  0  0  0  0  0  0  0
    0.4515    0.0091   -0.0180 H   0  0  0  0  0  0  0  0  0  0  0  0
   -0.0606    2.4117    0.5466 H   0  0  0  0  0  0  0  0  0  0  0  0
   -0.5031    2.6989   -1.1327 H   0  0  0  0  0  0  0  0  0  0  0  0
    1.7085    3.5103   -0.8557 H   0  0  0  0  0  0  0  0  0  0  0  0
    1.7962    2.0690   -1.8661 H   0  0  0  0  0  0  0  0  0  0  0  0
    2.3230    2.0883    1.1536 H   0  0  0  0  0  0  0  0  0  0  0  0
    2.5869    0.7287    0.0773 H   0  0  0  0  0  0  0  0  0  0  0  0
    4.6897    1.8982    0.6753 H   0  0  0  0  0  0  0  0  0  0  0  0
    4.0622    3.4060    0.0446 H   0  0  0  0  0  0  0  0  0  0  0  0
    5.6301    2.4780   -1.5311 H   0  0  0  0  0  0  0  0  0  0  0  0
    4.0380    2.5095   -2.2540 H   0  0  0  0  0  0  0  0  0  0  0  0
    3.7907    0.0112   -1.7659 H   0  0  0  0  0  0  0  0  0  0  0  0
    5.1219    0.4039   -2.8542 H   0  0  0  0  0  0  0  0  0  0  0  0
    4.2145   -1.0697    0.1784 H   0  0  0  0  0  0  0  0  0  0  0  0
    5.8121   -2.2467    1.6865 H   0  0  0  0  0  0  0  0  0  0  0  0
    9.4695   -1.5385    1.7158 H   0  0  0  0  0  0  0  0  0  0  0  0
    7.5748   -4.9286    2.0497 H   0  0  0  0  0  0  0  0  0  0  0  0
    9.0552   -0.4690   -0.5278 H   0  0  0  0  0  0  0  0  0  0  0  0
    7.3563    0.6773   -1.9635 H   0  0  0  0  0  0  0  0  0  0  0  0
  1  2  1  0
  2  3  1  0
  3  4  1  0
  4  5  1  0
  5  6  1  0
  6  7  1  0
  7  8  1  0
  8  9  1  0
  9 10  1  0
 10 11  1  0
 11 12  1  0
 12 13  1  0
 13 14  1  0
 14 15  1  0
 15 16  1  0
 16 17  1  0
 17 18  2  0
 18 19  1  0
 19 20  2  0
 20 21  1  0
 21 22  2  3
 22 23  1  0
 20 24  1  0
 24 25  2  0
 25 17  1  0
  1 26  1  0
  1 27  1  0
  1 28  1  0
  2 29  1  0
  2 30  1  0
  3 31  1  0
  3 32  1  0
  4 33  1  0
  4 34  1  0
  5 35  1  0
  5 36  1  0
  6 37  1  0
  6 38  1  0
  7 39  1  0
  7 40  1  0
  8 41  1  0
  8 42  1  0
  9 43  1  0
  9 44  1  0
 10 45  1  0
 10 46  1  0
 11 47  1  0
 11 48  1  0
 12 49  1  0
 12 50  1  0
 13 51  1  0
 13 52  1  0
 14 53  1  0
 14 54  1  0
 15 55  1  0
 15 56  1  0
 16 57  1  0
 16 58  1  0
 18 59  1  0
 19 60  1  0
 21 61  1  0
 23 62  1  0
 24 63  1  0
 25 64  1  0
M  CHG  1  17   1
M  END
$$$$
