
     RDKit          3D

 41 44  0  0  0  0  0  0  0  0999 V2000
    1.0741   -0.5524   -3.7584 O   0  0  0  0  0  0  0  0  0  0  0  0
    1.0641   -0.5127   -2.5285 C   0  0  0  0  0  0  0  0  0  0  0  0
    2.2850   -0.3904   -1.7629 C   0  0  0  0  0  0  0  0  0  0  0  0
    3.3772   -1.6975   -1.7490 S   0  0  0  0  0  0  0  0  0  0  0  0
    4.4772   -0.8679   -0.7174 C   0  0  0  0  0  0  0  0  0  0  0  0
    5.6992   -1.3619   -0.2188 C   0  0  0  0  0  0  0  0  0  0  0  0
    6.4758   -0.5449    0.6047 C   0  0  0  0  0  0  0  0  0  0  0  0
    6.0524    0.7358    0.9262 C   0  0  0  0  0  0  0  0  0  0  0  0
    4.8400    1.2227    0.4285 C   0  0  0  0  0  0  0  0  0  0  0  0
    4.0224    0.4181   -0.4083 C   0  0  0  0  0  0  0  0  0  0  0  0
    2.7548    0.6821   -1.0393 C   0  0  0  0  0  0  0  0  0  0  0  0
    1.9494    2.1935   -0.8894 Cl  0  0  0  0  0  0  0  0  0  0  0  0
   -0.1330   -0.5863   -1.8169 N   0  0  0  0  0  0  0  0  0  0  0  0
   -0.2355   -0.7619   -0.3575 C   0  0  0  0  0  0  0  0  0  0  0  0
   -1.5503   -1.4466    0.0542 C   0  0  0  0  0  0  0  0  0  0  0  0
   -2.7355   -0.7130   -0.4369 N   0  0  0  0  0  0  0  0  0  0  0  0
   -3.4841    0.0589    0.4716 C   0  0  0  0  0  0  0  0  0  0  0  0
   -4.8342    0.3215    0.1736 C   0  0  0  0  0  0  0  0  0  0  0  0
   -5.6435    1.0813    1.0263 C   0  0  0  0  0  0  0  0  0  0  0  0
   -5.1195    1.6033    2.2047 C   0  0  0  0  0  0  0  0  0  0  0  0
   -3.7875    1.3638    2.5264 C   0  0  0  0  0  0  0  0  0  0  0  0
   -2.9874    0.6035    1.6708 C   0  0  0  0  0  0  0  0  0  0  0  0
   -1.7006    0.4427    2.0197 F   0  0  0  0  0  0  0  0  0  0  0  0
   -2.5707   -0.0439   -1.7539 C   0  0  0  0  0  0  0  0  0  0  0  0
   -1.3959   -0.6246   -2.5608 C   0  0  0  0  0  0  0  0  0  0  0  0
    6.0366   -2.3631   -0.4732 H   0  0  0  0  0  0  0  0  0  0  0  0
    7.4213   -0.9168    0.9931 H   0  0  0  0  0  0  0  0  0  0  0  0
    6.6650    1.3670    1.5658 H   0  0  0  0  0  0  0  0  0  0  0  0
    4.5258    2.2311    0.6895 H   0  0  0  0  0  0  0  0  0  0  0  0
    0.6112   -1.3519    0.0056 H   0  0  0  0  0  0  0  0  0  0  0  0
   -0.1735    0.2361    0.0876 H   0  0  0  0  0  0  0  0  0  0  0  0
   -1.5824   -1.6310    1.1334 H   0  0  0  0  0  0  0  0  0  0  0  0
   -1.5787   -2.4441   -0.4043 H   0  0  0  0  0  0  0  0  0  0  0  0
   -5.2765   -0.0941   -0.7292 H   0  0  0  0  0  0  0  0  0  0  0  0
   -6.6849    1.2570    0.7677 H   0  0  0  0  0  0  0  0  0  0  0  0
   -5.7455    2.1937    2.8684 H   0  0  0  0  0  0  0  0  0  0  0  0
   -3.3573    1.7685    3.4370 H   0  0  0  0  0  0  0  0  0  0  0  0
   -3.4897   -0.1520   -2.3412 H   0  0  0  0  0  0  0  0  0  0  0  0
   -2.3848    1.0290   -1.6073 H   0  0  0  0  0  0  0  0  0  0  0  0
   -1.2919   -0.0775   -3.5042 H   0  0  0  0  0  0  0  0  0  0  0  0
   -1.5887   -1.6754   -2.8089 H   0  0  0  0  0  0  0  0  0  0  0  0
  1  2  2  0
  2  3  1  0
  3  4  1  0
  4  5  1  0
  5  6  2  0
  6  7  1  0
  7  8  2  0
  8  9  1  0
  9 10  2  0
 10 11  1  0
 11 12  1  0
  2 13  1  0
 13 14  1  0
 14 15  1  0
 15 16  1  0
 16 17  1  0
 17 18  2  0
 18 19  1  0
 19 20  2  0
 20 21  1  0
 21 22  2  0
 22 23  1  0
 16 24  1  0
 24 25  1  0
 11  3  2  0
 25 13  1  0
 10  5  1  0
 22 17  1  0
  6 26  1  0
  7 27  1  0
  8 28  1  0
  9 29  1  0
 14 30  1  0
 14 31  1  0
 15 32  1  0
 15 33  1  0
 18 34  1  0
 19 35  1  0
 20 36  1  0
 21 37  1  0
 24 38  1  0
 24 39  1  0
 25 40  1  0
 25 41  1  0
M  END
$$$$
