
     RDKit          3D

 43 45  0  0  0  0  0  0  0  0999 V2000
    4.0992    1.4457    2.3568 C   0  0  0  0  0  0  0  0  0  0  0  0
    4.2472    0.5342    1.1741 C   0  0  0  0  0  0  0  0  0  0  0  0
    5.3231   -0.3535    1.0961 C   0  0  0  0  0  0  0  0  0  0  0  0
    5.4322   -1.2352    0.0207 C   0  0  0  0  0  0  0  0  0  0  0  0
    4.4655   -1.2458   -0.9944 C   0  0  0  0  0  0  0  0  0  0  0  0
    4.5965   -2.2111   -2.1396 C   0  0  0  0  0  0  0  0  0  0  0  0
    3.3827   -0.3527   -0.9244 C   0  0  0  0  0  0  0  0  0  0  0  0
    2.4688   -0.4421   -1.9431 O   0  0  0  0  0  0  0  0  0  0  0  0
    1.6409    0.6942   -2.2018 C   0  0  0  0  0  0  0  0  0  0  0  0
    0.3456    0.5180   -1.5073 C   0  0  0  0  0  0  0  0  0  0  0  0
   -0.3701   -0.5579   -1.0447 C   0  0  0  0  0  0  0  0  0  0  0  0
   -1.5488   -0.0025   -0.4738 C   0  0  0  0  0  0  0  0  0  0  0  0
   -2.6133   -0.7669    0.1991 C   0  0  0  0  0  0  0  0  0  0  0  0
   -2.3782   -1.9168    0.5790 O   0  0  0  0  0  0  0  0  0  0  0  0
   -3.8834   -0.2086    0.4091 N   0  0  0  0  0  0  0  0  0  0  0  0
   -4.3098    1.1218   -0.0294 C   0  0  0  0  0  0  0  0  0  0  0  0
   -5.8272    1.2090   -0.1806 C   0  0  0  0  0  0  0  0  0  0  0  0
   -6.5108    0.7913    1.0176 N   0  0  0  0  0  0  0  0  0  0  0  0
   -6.1217   -0.3333    1.6960 C   0  0  0  0  0  0  0  0  0  0  0  0
   -6.8784   -0.8426    2.5201 O   0  0  0  0  0  0  0  0  0  0  0  0
   -4.7210   -0.8907    1.4046 C   0  0  0  0  0  0  0  0  0  0  0  0
   -1.5146    1.3380   -0.5710 N   0  0  0  0  0  0  0  0  0  0  0  0
   -0.3449    1.6543   -1.2307 O   0  0  0  0  0  0  0  0  0  0  0  0
    3.2709    0.5164    0.1673 C   0  0  0  0  0  0  0  0  0  0  0  0
    5.0770    1.7057    2.7758 H   0  0  0  0  0  0  0  0  0  0  0  0
    3.5008    0.9579    3.1324 H   0  0  0  0  0  0  0  0  0  0  0  0
    3.6109    2.3824    2.0680 H   0  0  0  0  0  0  0  0  0  0  0  0
    6.0802   -0.3713    1.8769 H   0  0  0  0  0  0  0  0  0  0  0  0
    6.2759   -1.9207   -0.0162 H   0  0  0  0  0  0  0  0  0  0  0  0
    3.7384   -2.8906   -2.1622 H   0  0  0  0  0  0  0  0  0  0  0  0
    4.6564   -1.6681   -3.0884 H   0  0  0  0  0  0  0  0  0  0  0  0
    5.5015   -2.8214   -2.0499 H   0  0  0  0  0  0  0  0  0  0  0  0
    2.1352    1.6407   -1.9541 H   0  0  0  0  0  0  0  0  0  0  0  0
    1.4577    0.7127   -3.2821 H   0  0  0  0  0  0  0  0  0  0  0  0
   -0.0886   -1.6005   -1.0931 H   0  0  0  0  0  0  0  0  0  0  0  0
   -3.8647    1.3617   -0.9978 H   0  0  0  0  0  0  0  0  0  0  0  0
   -3.9577    1.8404    0.7195 H   0  0  0  0  0  0  0  0  0  0  0  0
   -6.1370    2.2332   -0.4087 H   0  0  0  0  0  0  0  0  0  0  0  0
   -6.1663    0.5538   -0.9910 H   0  0  0  0  0  0  0  0  0  0  0  0
   -7.4770    1.0554    1.1709 H   0  0  0  0  0  0  0  0  0  0  0  0
   -4.8428   -1.9327    1.0867 H   0  0  0  0  0  0  0  0  0  0  0  0
   -4.1688   -0.8823    2.3524 H   0  0  0  0  0  0  0  0  0  0  0  0
    2.4184    1.1806    0.2724 H   0  0  0  0  0  0  0  0  0  0  0  0
  1  2  1  0
  2  3  2  0
  3  4  1  0
  4  5  2  0
  5  6  1  0
  5  7  1  0
  7  8  1  0
  8  9  1  0
  9 10  1  0
 10 11  2  0
 11 12  1  0
 12 13  1  0
 13 14  2  0
 13 15  1  0
 15 16  1  0
 16 17  1  0
 17 18  1  0
 18 19  1  0
 19 20  2  0
 19 21  1  0
 12 22  2  0
 22 23  1  0
  7 24  2  0
 24  2  1  0
 23 10  1  0
 21 15  1  0
  1 25  1  0
  1 26  1  0
  1 27  1  0
  3 28  1  0
  4 29  1  0
  6 30  1  0
  6 31  1  0
  6 32  1  0
  9 33  1  0
  9 34  1  0
 11 35  1  0
 16 36  1  0
 16 37  1  0
 17 38  1  0
 17 39  1  0
 18 40  1  0
 21 41  1  0
 21 42  1  0
 24 43  1  0
M  END
$$$$
