
     RDKit          3D

 36 37  0  0  0  0  0  0  0  0999 V2000
    6.0393   -0.9344   -1.4468 C   0  0  0  0  0  0  0  0  0  0  0  0
    4.9524   -0.4959   -2.2512 O   0  0  0  0  0  0  0  0  0  0  0  0
    3.7376   -0.3545   -1.6385 C   0  0  0  0  0  0  0  0  0  0  0  0
    2.7008    0.0256   -2.4907 C   0  0  0  0  0  0  0  0  0  0  0  0
    1.4032    0.2102   -2.0055 C   0  0  0  0  0  0  0  0  0  0  0  0
    1.1234   -0.0009   -0.6578 C   0  0  0  0  0  0  0  0  0  0  0  0
   -0.1509    0.1858   -0.0701 N   0  0  0  0  0  0  0  0  0  0  0  0
   -1.4448    0.1761   -0.5939 C   0  0  0  0  0  0  0  0  0  0  0  0
   -1.8958   -0.3896   -2.1012 S   0  0  0  0  0  0  0  0  0  0  0  0
   -2.2945    0.7351    0.3669 N   0  0  0  0  0  0  0  0  0  0  0  0
   -3.6994    0.7147    0.5072 C   0  0  0  0  0  0  0  0  0  0  0  0
   -4.2709    1.7102    1.3123 C   0  0  0  0  0  0  0  0  0  0  0  0
   -5.6508    1.7522    1.5303 C   0  0  0  0  0  0  0  0  0  0  0  0
   -6.4740    0.7869    0.9590 C   0  0  0  0  0  0  0  0  0  0  0  0
   -5.9143   -0.2229    0.1808 C   0  0  0  0  0  0  0  0  0  0  0  0
   -4.5325   -0.2631   -0.0371 C   0  0  0  0  0  0  0  0  0  0  0  0
    2.1760   -0.3576    0.2155 C   0  0  0  0  0  0  0  0  0  0  0  0
    1.8141   -0.4976    1.5386 O   0  0  0  0  0  0  0  0  0  0  0  0
    2.8080   -0.9735    2.4381 C   0  0  0  0  0  0  0  0  0  0  0  0
    3.4748   -0.5387   -0.2800 C   0  0  0  0  0  0  0  0  0  0  0  0
    5.8393   -1.9205   -1.0146 H   0  0  0  0  0  0  0  0  0  0  0  0
    6.9179   -1.0260   -2.0927 H   0  0  0  0  0  0  0  0  0  0  0  0
    6.2735   -0.2010   -0.6683 H   0  0  0  0  0  0  0  0  0  0  0  0
    2.9036    0.1897   -3.5468 H   0  0  0  0  0  0  0  0  0  0  0  0
    0.6479    0.5510   -2.7038 H   0  0  0  0  0  0  0  0  0  0  0  0
   -0.1182    0.0851    0.9408 H   0  0  0  0  0  0  0  0  0  0  0  0
   -1.8219    1.4135    0.9513 H   0  0  0  0  0  0  0  0  0  0  0  0
   -3.6525    2.4787    1.7686 H   0  0  0  0  0  0  0  0  0  0  0  0
   -6.0807    2.5388    2.1447 H   0  0  0  0  0  0  0  0  0  0  0  0
   -7.5475    0.8151    1.1252 H   0  0  0  0  0  0  0  0  0  0  0  0
   -6.5498   -0.9903   -0.2542 H   0  0  0  0  0  0  0  0  0  0  0  0
   -4.1386   -1.0957   -0.6091 H   0  0  0  0  0  0  0  0  0  0  0  0
    3.1772   -1.9591    2.1362 H   0  0  0  0  0  0  0  0  0  0  0  0
    3.6272   -0.2536    2.5346 H   0  0  0  0  0  0  0  0  0  0  0  0
    2.3426   -1.0804    3.4227 H   0  0  0  0  0  0  0  0  0  0  0  0
    4.2782   -0.8136    0.3894 H   0  0  0  0  0  0  0  0  0  0  0  0
  1  2  1  0
  2  3  1  0
  3  4  2  0
  4  5  1  0
  5  6  2  0
  6  7  1  0
  7  8  1  0
  8  9  2  0
  8 10  1  0
 10 11  1  0
 11 12  2  0
 12 13  1  0
 13 14  2  0
 14 15  1  0
 15 16  2  0
  6 17  1  0
 17 18  1  0
 18 19  1  0
 17 20  2  0
 20  3  1  0
 16 11  1  0
  1 21  1  0
  1 22  1  0
  1 23  1  0
  4 24  1  0
  5 25  1  0
  7 26  1  0
 10 27  1  0
 12 28  1  0
 13 29  1  0
 14 30  1  0
 15 31  1  0
 16 32  1  0
 19 33  1  0
 19 34  1  0
 19 35  1  0
 20 36  1  0
M  END
$$$$
