
     RDKit          3D

 44 46  0  0  0  0  0  0  0  0999 V2000
    2.9112    3.5849   -3.7858 C   0  0  0  0  0  0  0  0  0  0  0  0
    2.8874    3.2391   -2.3673 N   0  0  0  0  0  0  0  0  0  0  0  0
    3.3962    1.8680   -2.1590 C   0  0  0  0  0  0  0  0  0  0  0  0
    2.9197    1.2160   -0.8414 C   0  0  0  0  0  0  0  0  0  0  0  0
    1.4431    1.0876   -0.7959 N   0  0  0  0  0  0  0  0  0  0  0  0
    0.7713    0.2037    0.0699 C   0  0  0  0  0  0  0  0  0  0  0  0
   -0.5281   -0.1315   -0.0840 C   0  0  0  0  0  0  0  0  0  0  0  0
   -1.2840   -0.9745    0.8301 C   0  0  0  0  0  0  0  0  0  0  0  0
   -2.5306   -1.3829    0.5251 C   0  0  0  0  0  0  0  0  0  0  0  0
   -3.3583   -2.2118    1.4097 C   0  0  0  0  0  0  0  0  0  0  0  0
   -4.5541   -2.7315    1.0308 C   0  0  0  0  0  0  0  0  0  0  0  0
   -5.3456   -3.5089    1.9271 C   0  0  0  0  0  0  0  0  0  0  0  0
   -5.9805   -4.1386    2.6670 N   0  0  0  0  0  0  0  0  0  0  0  0
   -5.0964   -2.5261   -0.2725 C   0  0  0  0  0  0  0  0  0  0  0  0
   -5.5295   -2.3480   -1.3346 N   0  0  0  0  0  0  0  0  0  0  0  0
   -2.7706   -2.4291    2.7991 C   0  0  0  0  0  0  0  0  0  0  0  0
   -1.2515   -2.5863    2.7619 C   0  0  0  0  0  0  0  0  0  0  0  0
   -0.5978   -1.3555    2.1227 C   0  0  0  0  0  0  0  0  0  0  0  0
    0.8916   -1.6037    1.8852 C   0  0  0  0  0  0  0  0  0  0  0  0
    1.5565   -0.3873    1.2361 C   0  0  0  0  0  0  0  0  0  0  0  0
    0.7275    2.0887   -1.6268 C   0  0  0  0  0  0  0  0  0  0  0  0
    1.5394    3.3948   -1.7846 C   0  0  0  0  0  0  0  0  0  0  0  0
    2.6277    4.6334   -3.9294 H   0  0  0  0  0  0  0  0  0  0  0  0
    2.2314    2.9602   -4.3764 H   0  0  0  0  0  0  0  0  0  0  0  0
    3.9230    3.4754   -4.1918 H   0  0  0  0  0  0  0  0  0  0  0  0
    3.0844    1.2135   -2.9852 H   0  0  0  0  0  0  0  0  0  0  0  0
    4.4921    1.8968   -2.1674 H   0  0  0  0  0  0  0  0  0  0  0  0
    3.2636    1.8009    0.0200 H   0  0  0  0  0  0  0  0  0  0  0  0
    3.3839    0.2252   -0.7903 H   0  0  0  0  0  0  0  0  0  0  0  0
   -1.0731    0.2435   -0.9458 H   0  0  0  0  0  0  0  0  0  0  0  0
   -2.9496   -1.0832   -0.4350 H   0  0  0  0  0  0  0  0  0  0  0  0
   -3.0338   -1.5700    3.4300 H   0  0  0  0  0  0  0  0  0  0  0  0
   -3.1839   -3.3194    3.2847 H   0  0  0  0  0  0  0  0  0  0  0  0
   -0.9920   -3.4955    2.2025 H   0  0  0  0  0  0  0  0  0  0  0  0
   -0.8700   -2.7219    3.7812 H   0  0  0  0  0  0  0  0  0  0  0  0
   -0.7024   -0.5095    2.8174 H   0  0  0  0  0  0  0  0  0  0  0  0
    1.3968   -1.8315    2.8316 H   0  0  0  0  0  0  0  0  0  0  0  0
    1.0303   -2.4788    1.2354 H   0  0  0  0  0  0  0  0  0  0  0  0
    2.5542   -0.7077    0.9214 H   0  0  0  0  0  0  0  0  0  0  0  0
    1.6939    0.3992    1.9892 H   0  0  0  0  0  0  0  0  0  0  0  0
   -0.2301    2.3568   -1.1651 H   0  0  0  0  0  0  0  0  0  0  0  0
    0.5149    1.6521   -2.6099 H   0  0  0  0  0  0  0  0  0  0  0  0
    0.9469    4.1290   -2.3446 H   0  0  0  0  0  0  0  0  0  0  0  0
    1.6748    3.8290   -0.7851 H   0  0  0  0  0  0  0  0  0  0  0  0
  1  2  1  0
  2  3  1  0
  3  4  1  0
  4  5  1  0
  5  6  1  0
  6  7  2  0
  7  8  1  0
  8  9  2  0
  9 10  1  0
 10 11  2  3
 11 12  1  0
 12 13  3  0
 11 14  1  0
 14 15  3  0
 10 16  1  0
 16 17  1  0
 17 18  1  0
 18 19  1  0
 19 20  1  0
  5 21  1  0
 21 22  1  0
 22  2  1  0
 20  6  1  0
 18  8  1  0
  1 23  1  0
  1 24  1  0
  1 25  1  0
  3 26  1  0
  3 27  1  0
  4 28  1  0
  4 29  1  0
  7 30  1  0
  9 31  1  0
 16 32  1  0
 16 33  1  0
 17 34  1  0
 17 35  1  0
 18 36  1  0
 19 37  1  0
 19 38  1  0
 20 39  1  0
 20 40  1  0
 21 41  1  0
 21 42  1  0
 22 43  1  0
 22 44  1  0
M  END
$$$$
