
     RDKit          3D

 35 36  0  0  0  0  0  0  0  0999 V2000
    1.9592    0.9688    1.9155 O   0  0  0  0  0  0  0  0  0  0  0  0
    2.4254    0.6466    0.8293 C   0  0  0  0  0  0  0  0  0  0  0  0
    1.7887    0.8878   -0.3721 N   0  0  0  0  0  0  0  0  0  0  0  0
    0.4855    1.5235   -0.4193 C   0  0  0  0  0  0  0  0  0  0  0  0
   -0.6400    0.5342   -0.1291 C   0  0  0  0  0  0  0  0  0  0  0  0
   -2.0030    1.2015   -0.2850 C   0  0  0  0  0  0  0  0  0  0  0  0
   -3.1201    0.3511    0.0964 N   0  0  0  0  0  0  0  0  0  0  0  0
   -3.2818   -0.9950   -0.3966 C   0  0  0  0  0  0  0  0  0  0  0  0
   -4.5514   -1.4619    0.2855 C   0  0  0  0  0  0  0  0  0  0  0  0
   -5.3923   -0.1967    0.3764 C   0  0  0  0  0  0  0  0  0  0  0  0
   -4.3605    0.9048    0.4175 C   0  0  0  0  0  0  0  0  0  0  0  0
   -4.5997    2.0817    0.6337 O   0  0  0  0  0  0  0  0  0  0  0  0
    3.7197   -0.0713    0.7637 C   0  0  0  0  0  0  0  0  0  0  0  0
    4.5559   -0.0530   -0.3554 C   0  0  0  0  0  0  0  0  0  0  0  0
    5.7579   -0.7593   -0.3216 C   0  0  0  0  0  0  0  0  0  0  0  0
    6.0835   -1.4557    0.8322 C   0  0  0  0  0  0  0  0  0  0  0  0
    5.3040   -1.4851    1.9340 N   0  0  0  0  0  0  0  0  0  0  0  0
    4.1434   -0.7832    1.8795 C   0  0  0  0  0  0  0  0  0  0  0  0
    2.1201    0.4338   -1.2118 H   0  0  0  0  0  0  0  0  0  0  0  0
    0.4670    2.3470    0.3035 H   0  0  0  0  0  0  0  0  0  0  0  0
    0.3763    1.9475   -1.4231 H   0  0  0  0  0  0  0  0  0  0  0  0
   -0.5581   -0.3206   -0.8117 H   0  0  0  0  0  0  0  0  0  0  0  0
   -0.5362    0.1312    0.8858 H   0  0  0  0  0  0  0  0  0  0  0  0
   -2.1644    1.5019   -1.3274 H   0  0  0  0  0  0  0  0  0  0  0  0
   -2.0473    2.1140    0.3214 H   0  0  0  0  0  0  0  0  0  0  0  0
   -3.4007   -0.9589   -1.4850 H   0  0  0  0  0  0  0  0  0  0  0  0
   -2.4242   -1.6185   -0.1319 H   0  0  0  0  0  0  0  0  0  0  0  0
   -5.0527   -2.2703   -0.2539 H   0  0  0  0  0  0  0  0  0  0  0  0
   -4.3218   -1.8215    1.2964 H   0  0  0  0  0  0  0  0  0  0  0  0
   -6.0137   -0.1856    1.2749 H   0  0  0  0  0  0  0  0  0  0  0  0
   -6.0117   -0.0651   -0.5160 H   0  0  0  0  0  0  0  0  0  0  0  0
    4.3065    0.5229   -1.2405 H   0  0  0  0  0  0  0  0  0  0  0  0
    6.4317   -0.7591   -1.1717 H   0  0  0  0  0  0  0  0  0  0  0  0
    7.0098   -2.0191    0.9054 H   0  0  0  0  0  0  0  0  0  0  0  0
    3.5450   -0.8183    2.7872 H   0  0  0  0  0  0  0  0  0  0  0  0
  1  2  2  0
  2  3  1  0
  3  4  1  0
  4  5  1  0
  5  6  1  0
  6  7  1  0
  7  8  1  0
  8  9  1  0
  9 10  1  0
 10 11  1  0
 11 12  2  0
  2 13  1  0
 13 14  2  0
 14 15  1  0
 15 16  2  0
 16 17  1  0
 17 18  2  0
 11  7  1  0
 18 13  1  0
  3 19  1  0
  4 20  1  0
  4 21  1  0
  5 22  1  0
  5 23  1  0
  6 24  1  0
  6 25  1  0
  8 26  1  0
  8 27  1  0
  9 28  1  0
  9 29  1  0
 10 30  1  0
 10 31  1  0
 14 32  1  0
 15 33  1  0
 16 34  1  0
 18 35  1  0
M  END
$$$$
