
     RDKit          3D

 59 62  0  0  0  0  0  0  0  0999 V2000
   -7.7264   -2.6256   -1.4158 C   0  0  0  0  0  0  0  0  0  0  0  0
   -6.3482   -2.3067   -1.2695 O   0  0  0  0  0  0  0  0  0  0  0  0
   -5.9839   -1.6410   -0.1341 C   0  0  0  0  0  0  0  0  0  0  0  0
   -6.8397   -1.2211    0.8818 C   0  0  0  0  0  0  0  0  0  0  0  0
   -6.3237   -0.5308    1.9808 C   0  0  0  0  0  0  0  0  0  0  0  0
   -4.9479   -0.2608    2.0668 C   0  0  0  0  0  0  0  0  0  0  0  0
   -4.4032    0.4398    3.1484 C   0  0  0  0  0  0  0  0  0  0  0  0
   -3.0307    0.6944    3.1900 C   0  0  0  0  0  0  0  0  0  0  0  0
   -2.4852    1.4104    4.3032 C   0  0  0  0  0  0  0  0  0  0  0  0
   -2.0930    2.0119    5.2176 N   0  0  0  0  0  0  0  0  0  0  0  0
   -2.2239    0.2257    2.1468 C   0  0  0  0  0  0  0  0  0  0  0  0
   -0.8358    0.4854    2.1512 N   0  0  0  0  0  0  0  0  0  0  0  0
   -0.5648    1.7637    1.4459 C   0  0  0  0  0  0  0  0  0  0  0  0
    0.9083    1.8550    0.9875 C   0  0  0  0  0  0  0  0  0  0  0  0
    1.3827    0.7428    0.1215 N   0  0  0  0  0  0  0  0  0  0  0  0
    1.5422    1.1311   -1.2862 C   0  0  0  0  0  0  0  0  0  0  0  0
    2.6536    2.0947   -1.5392 C   0  0  0  0  0  0  0  0  0  0  0  0
    2.5893    3.1602   -2.3188 N   0  0  0  0  0  0  0  0  0  0  0  0
    3.8323    3.7361   -2.2948 N   0  0  0  0  0  0  0  0  0  0  0  0
    4.6561    3.0522   -1.5149 N   0  0  0  0  0  0  0  0  0  0  0  0
    3.9343    2.0180   -1.0496 N   0  0  0  0  0  0  0  0  0  0  0  0
    4.5240    1.1078   -0.0995 C   0  0  0  0  0  0  0  0  0  0  0  0
    4.6529   -0.3514   -0.5551 C   0  0  0  0  0  0  0  0  0  0  0  0
    5.9038   -0.6608   -1.4058 C   0  0  0  0  0  0  0  0  0  0  0  0
    5.8279   -0.0756   -2.8154 C   0  0  0  0  0  0  0  0  0  0  0  0
    6.0933   -2.1807   -1.4970 C   0  0  0  0  0  0  0  0  0  0  0  0
    0.4764   -0.4272    0.2184 C   0  0  0  0  0  0  0  0  0  0  0  0
   -0.0348   -0.6566    1.6534 C   0  0  0  0  0  0  0  0  0  0  0  0
   -2.7471   -0.4592    1.0969 N   0  0  0  0  0  0  0  0  0  0  0  0
   -4.0731   -0.6923    1.0507 C   0  0  0  0  0  0  0  0  0  0  0  0
   -4.6134   -1.3728   -0.0327 C   0  0  0  0  0  0  0  0  0  0  0  0
   -8.0542   -3.3130   -0.6302 H   0  0  0  0  0  0  0  0  0  0  0  0
   -7.8508   -3.1351   -2.3770 H   0  0  0  0  0  0  0  0  0  0  0  0
   -8.3471   -1.7250   -1.4380 H   0  0  0  0  0  0  0  0  0  0  0  0
   -7.9087   -1.4090    0.8529 H   0  0  0  0  0  0  0  0  0  0  0  0
   -7.0022   -0.1998    2.7647 H   0  0  0  0  0  0  0  0  0  0  0  0
   -5.0432    0.7913    3.9569 H   0  0  0  0  0  0  0  0  0  0  0  0
   -0.7715    2.5982    2.1256 H   0  0  0  0  0  0  0  0  0  0  0  0
   -1.2157    1.8821    0.5682 H   0  0  0  0  0  0  0  0  0  0  0  0
    1.5441    1.8402    1.8832 H   0  0  0  0  0  0  0  0  0  0  0  0
    1.0781    2.8370    0.5248 H   0  0  0  0  0  0  0  0  0  0  0  0
    0.6074    1.5488   -1.6776 H   0  0  0  0  0  0  0  0  0  0  0  0
    1.7560    0.2389   -1.8858 H   0  0  0  0  0  0  0  0  0  0  0  0
    5.5087    1.5015    0.1878 H   0  0  0  0  0  0  0  0  0  0  0  0
    3.9031    1.1591    0.8039 H   0  0  0  0  0  0  0  0  0  0  0  0
    3.7526   -0.6831   -1.0877 H   0  0  0  0  0  0  0  0  0  0  0  0
    4.7118   -0.9591    0.3581 H   0  0  0  0  0  0  0  0  0  0  0  0
    6.7887   -0.2454   -0.9058 H   0  0  0  0  0  0  0  0  0  0  0  0
    4.9074   -0.3795   -3.3276 H   0  0  0  0  0  0  0  0  0  0  0  0
    5.8707    1.0158   -2.7965 H   0  0  0  0  0  0  0  0  0  0  0  0
    6.6775   -0.4147   -3.4224 H   0  0  0  0  0  0  0  0  0  0  0  0
    6.9757   -2.4336   -2.0908 H   0  0  0  0  0  0  0  0  0  0  0  0
    5.2250   -2.6631   -1.9598 H   0  0  0  0  0  0  0  0  0  0  0  0
    6.2299   -2.6133   -0.4990 H   0  0  0  0  0  0  0  0  0  0  0  0
   -0.3825   -0.3084   -0.4550 H   0  0  0  0  0  0  0  0  0  0  0  0
    1.0240   -1.3192   -0.1083 H   0  0  0  0  0  0  0  0  0  0  0  0
   -0.5733   -1.6121    1.7195 H   0  0  0  0  0  0  0  0  0  0  0  0
    0.8319   -0.7636    2.3224 H   0  0  0  0  0  0  0  0  0  0  0  0
   -3.9453   -1.7025   -0.8278 H   0  0  0  0  0  0  0  0  0  0  0  0
  1  2  1  0
  2  3  1  0
  3  4  2  0
  4  5  1  0
  5  6  2  0
  6  7  1  0
  7  8  2  0
  8  9  1  0
  9 10  3  0
  8 11  1  0
 11 12  1  0
 12 13  1  0
 13 14  1  0
 14 15  1  0
 15 16  1  0
 16 17  1  0
 17 18  2  0
 18 19  1  0
 19 20  2  0
 20 21  1  0
 21 22  1  0
 22 23  1  0
 23 24  1  0
 24 25  1  0
 24 26  1  0
 15 27  1  0
 27 28  1  0
 11 29  2  0
 29 30  1  0
 30 31  2  0
 31  3  1  0
 30  6  1  0
 28 12  1  0
 21 17  1  0
  1 32  1  0
  1 33  1  0
  1 34  1  0
  4 35  1  0
  5 36  1  0
  7 37  1  0
 13 38  1  0
 13 39  1  0
 14 40  1  0
 14 41  1  0
 16 42  1  0
 16 43  1  0
 22 44  1  0
 22 45  1  0
 23 46  1  0
 23 47  1  0
 24 48  1  0
 25 49  1  0
 25 50  1  0
 25 51  1  0
 26 52  1  0
 26 53  1  0
 26 54  1  0
 27 55  1  0
 27 56  1  0
 28 57  1  0
 28 58  1  0
 31 59  1  0
M  END
$$$$
