
     RDKit          3D

 33 36  0  0  0  0  0  0  0  0999 V2000
    4.8563    0.1713    0.5614 C   0  0  0  0  0  0  0  0  0  0  0  0
    4.4909   -1.1674    0.6122 C   0  0  0  0  0  0  0  0  0  0  0  0
    3.1771   -1.5338    0.3158 C   0  0  0  0  0  0  0  0  0  0  0  0
    2.2207   -0.5872   -0.0311 C   0  0  0  0  0  0  0  0  0  0  0  0
    0.9646   -0.9881   -0.3058 N   0  0  0  0  0  0  0  0  0  0  0  0
    0.0595   -0.0410   -0.6417 C   0  0  0  0  0  0  0  0  0  0  0  0
    0.4599    1.3133   -0.7002 C   0  0  0  0  0  0  0  0  0  0  0  0
    1.7121    1.7328   -0.4126 N   0  0  0  0  0  0  0  0  0  0  0  0
    2.5943    0.7770   -0.0839 C   0  0  0  0  0  0  0  0  0  0  0  0
    3.9047    1.1311    0.2140 C   0  0  0  0  0  0  0  0  0  0  0  0
   -0.4078    2.3432   -0.9832 O   0  0  0  0  0  0  0  0  0  0  0  0
   -1.5921    1.8890   -1.6411 C   0  0  0  0  0  0  0  0  0  0  0  0
   -2.2214    0.6710   -0.9538 C   0  0  0  0  0  0  0  0  0  0  0  0
   -2.7029    0.9635    0.4784 C   0  0  0  0  0  0  0  0  0  0  0  0
   -3.2295   -0.3083    1.1495 C   0  0  0  0  0  0  0  0  0  0  0  0
   -2.1992   -1.4389    1.0920 C   0  0  0  0  0  0  0  0  0  0  0  0
   -1.7244   -1.6837   -0.3421 C   0  0  0  0  0  0  0  0  0  0  0  0
   -1.2555   -0.4340   -0.9405 N   0  0  0  0  0  0  0  0  0  0  0  0
    5.8755    0.4726    0.7894 H   0  0  0  0  0  0  0  0  0  0  0  0
    5.2210   -1.9267    0.8803 H   0  0  0  0  0  0  0  0  0  0  0  0
    2.8892   -2.5816    0.3545 H   0  0  0  0  0  0  0  0  0  0  0  0
    4.1876    2.1803    0.1728 H   0  0  0  0  0  0  0  0  0  0  0  0
   -1.3453    1.6647   -2.6872 H   0  0  0  0  0  0  0  0  0  0  0  0
   -2.3028    2.7228   -1.6493 H   0  0  0  0  0  0  0  0  0  0  0  0
   -3.0884    0.3616   -1.5523 H   0  0  0  0  0  0  0  0  0  0  0  0
   -1.8903    1.3732    1.0907 H   0  0  0  0  0  0  0  0  0  0  0  0
   -3.4949    1.7211    0.4569 H   0  0  0  0  0  0  0  0  0  0  0  0
   -4.1505   -0.6295    0.6477 H   0  0  0  0  0  0  0  0  0  0  0  0
   -3.4897   -0.0965    2.1925 H   0  0  0  0  0  0  0  0  0  0  0  0
   -2.6366   -2.3577    1.4984 H   0  0  0  0  0  0  0  0  0  0  0  0
   -1.3445   -1.1808    1.7293 H   0  0  0  0  0  0  0  0  0  0  0  0
   -0.9698   -2.4781   -0.3723 H   0  0  0  0  0  0  0  0  0  0  0  0
   -2.5678   -2.0549   -0.9385 H   0  0  0  0  0  0  0  0  0  0  0  0
  1  2  2  0
  2  3  1  0
  3  4  2  0
  4  5  1  0
  5  6  2  0
  6  7  1  0
  7  8  2  0
  8  9  1  0
  9 10  2  0
  7 11  1  0
 11 12  1  0
 12 13  1  0
 13 14  1  0
 14 15  1  0
 15 16  1  0
 16 17  1  0
 17 18  1  0
 10  1  1  0
 18 13  1  0
  9  4  1  0
 18  6  1  0
  1 19  1  0
  2 20  1  0
  3 21  1  0
 10 22  1  0
 12 23  1  0
 12 24  1  0
 13 25  1  0
 14 26  1  0
 14 27  1  0
 15 28  1  0
 15 29  1  0
 16 30  1  0
 16 31  1  0
 17 32  1  0
 17 33  1  0
M  END
$$$$
