
     RDKit          3D

 44 47  0  0  0  0  0  0  0  0999 V2000
    6.6296   -0.6526    0.5398 C   0  0  0  0  0  0  0  0  0  0  0  0
    5.4854   -0.4499    1.5208 C   0  0  0  0  0  0  0  0  0  0  0  0
    4.1612   -0.3811    0.8216 C   0  0  0  0  0  0  0  0  0  0  0  0
    3.3267   -1.4238    0.4660 C   0  0  0  0  0  0  0  0  0  0  0  0
    2.1464   -0.9623   -0.1874 C   0  0  0  0  0  0  0  0  0  0  0  0
    1.0303   -1.7223   -0.7059 C   0  0  0  0  0  0  0  0  0  0  0  0
    1.0080   -2.9477   -0.6253 O   0  0  0  0  0  0  0  0  0  0  0  0
    0.0118   -0.9490   -1.2770 N   0  0  0  0  0  0  0  0  0  0  0  0
   -1.1574   -1.6883   -1.7637 C   0  0  0  0  0  0  0  0  0  0  0  0
   -2.3068   -1.6861   -0.7750 C   0  0  0  0  0  0  0  0  0  0  0  0
   -2.1747   -2.2935    0.4841 C   0  0  0  0  0  0  0  0  0  0  0  0
   -3.2362   -2.2894    1.3905 C   0  0  0  0  0  0  0  0  0  0  0  0
   -4.4448   -1.6866    1.0479 C   0  0  0  0  0  0  0  0  0  0  0  0
   -4.5957   -1.0926   -0.2029 C   0  0  0  0  0  0  0  0  0  0  0  0
   -3.5355   -1.0963   -1.1105 C   0  0  0  0  0  0  0  0  0  0  0  0
    0.1323    0.4412   -1.3429 C   0  0  0  0  0  0  0  0  0  0  0  0
   -1.1572    1.3492   -2.1126 S   0  0  0  0  0  0  0  0  0  0  0  0
   -1.0941    2.8989   -1.1539 C   0  0  0  0  0  0  0  0  0  0  0  0
   -1.4833    2.7348    0.3021 C   0  0  0  0  0  0  0  0  0  0  0  0
   -2.9737    2.9292    0.2828 C   0  0  0  0  0  0  0  0  0  0  0  0
   -3.2175    3.8581   -0.7717 O   0  0  0  0  0  0  0  0  0  0  0  0
   -2.1764    3.8245   -1.6526 C   0  0  0  0  0  0  0  0  0  0  0  0
   -2.1624    4.4504   -2.6998 O   0  0  0  0  0  0  0  0  0  0  0  0
    1.1330    1.1294   -0.8865 N   0  0  0  0  0  0  0  0  0  0  0  0
    2.1155    0.4029   -0.3115 C   0  0  0  0  0  0  0  0  0  0  0  0
    3.5002    1.1344    0.3615 S   0  0  0  0  0  0  0  0  0  0  0  0
    6.5009   -1.5760   -0.0339 H   0  0  0  0  0  0  0  0  0  0  0  0
    6.6959    0.1771   -0.1706 H   0  0  0  0  0  0  0  0  0  0  0  0
    7.5819   -0.7160    1.0756 H   0  0  0  0  0  0  0  0  0  0  0  0
    5.4723   -1.2809    2.2354 H   0  0  0  0  0  0  0  0  0  0  0  0
    5.6626    0.4595    2.1065 H   0  0  0  0  0  0  0  0  0  0  0  0
    3.5472   -2.4679    0.6618 H   0  0  0  0  0  0  0  0  0  0  0  0
   -1.4760   -1.2748   -2.7266 H   0  0  0  0  0  0  0  0  0  0  0  0
   -0.8952   -2.7310   -1.9756 H   0  0  0  0  0  0  0  0  0  0  0  0
   -1.2488   -2.7891    0.7691 H   0  0  0  0  0  0  0  0  0  0  0  0
   -3.1217   -2.7651    2.3617 H   0  0  0  0  0  0  0  0  0  0  0  0
   -5.2723   -1.6897    1.7520 H   0  0  0  0  0  0  0  0  0  0  0  0
   -5.5414   -0.6313   -0.4759 H   0  0  0  0  0  0  0  0  0  0  0  0
   -3.6817   -0.6302   -2.0834 H   0  0  0  0  0  0  0  0  0  0  0  0
   -0.1233    3.3941   -1.2526 H   0  0  0  0  0  0  0  0  0  0  0  0
   -1.1818    1.7971    0.7761 H   0  0  0  0  0  0  0  0  0  0  0  0
   -1.0271    3.5481    0.8824 H   0  0  0  0  0  0  0  0  0  0  0  0
   -3.5173    2.0040    0.0668 H   0  0  0  0  0  0  0  0  0  0  0  0
   -3.3387    3.3406    1.2284 H   0  0  0  0  0  0  0  0  0  0  0  0
  1  2  1  0
  2  3  1  0
  3  4  2  0
  4  5  1  0
  5  6  1  0
  6  7  2  0
  6  8  1  0
  8  9  1  0
  9 10  1  0
 10 11  2  0
 11 12  1  0
 12 13  2  0
 13 14  1  0
 14 15  2  0
  8 16  1  0
 16 17  1  0
 17 18  1  0
 18 19  1  0
 19 20  1  0
 20 21  1  0
 21 22  1  0
 22 23  2  0
 16 24  2  0
 24 25  1  0
 25 26  1  0
 26  3  1  0
 25  5  2  0
 15 10  1  0
 22 18  1  0
  1 27  1  0
  1 28  1  0
  1 29  1  0
  2 30  1  0
  2 31  1  0
  4 32  1  0
  9 33  1  0
  9 34  1  0
 11 35  1  0
 12 36  1  0
 13 37  1  0
 14 38  1  0
 15 39  1  0
 18 40  1  0
 19 41  1  0
 19 42  1  0
 20 43  1  0
 20 44  1  0
M  END
$$$$
