
     RDKit          3D

 55 58  0  0  0  0  0  0  0  0999 V2000
    3.4949   -1.2208    2.1909 C   0  0  0  0  0  0  0  0  0  0  0  0
    3.4830   -0.1650    1.2371 O   0  0  0  0  0  0  0  0  0  0  0  0
    4.5380    0.7108    1.2562 C   0  0  0  0  0  0  0  0  0  0  0  0
    5.6622    0.5869    2.0796 C   0  0  0  0  0  0  0  0  0  0  0  0
    6.7007    1.5186    2.0053 C   0  0  0  0  0  0  0  0  0  0  0  0
    6.6300    2.5757    1.1036 C   0  0  0  0  0  0  0  0  0  0  0  0
    5.5152    2.7092    0.2789 C   0  0  0  0  0  0  0  0  0  0  0  0
    4.4546    1.7906    0.3562 C   0  0  0  0  0  0  0  0  0  0  0  0
    3.2661    1.9566   -0.5628 C   0  0  0  0  0  0  0  0  0  0  0  0
    3.4272    1.1473   -1.7692 N   0  0  0  0  0  0  0  0  0  0  0  0
    2.3075    1.3158   -2.9998 S   0  0  0  0  0  6  0  0  0  0  0  0
    2.6159    0.3057   -3.9878 O   0  0  0  0  0  0  0  0  0  0  0  0
    2.2221    2.7179   -3.3426 O   0  0  0  0  0  0  0  0  0  0  0  0
    0.7856    0.8411   -2.2120 C   0  0  0  0  0  0  0  0  0  0  0  0
   -0.1389    1.8259   -1.8249 C   0  0  0  0  0  0  0  0  0  0  0  0
   -1.3420    1.4575   -1.2117 C   0  0  0  0  0  0  0  0  0  0  0  0
   -1.5961    0.1116   -0.9974 C   0  0  0  0  0  0  0  0  0  0  0  0
   -0.6786   -0.8610   -1.4093 C   0  0  0  0  0  0  0  0  0  0  0  0
    0.5156   -0.5187   -2.0254 C   0  0  0  0  0  0  0  0  0  0  0  0
   -1.2194   -2.2379   -1.1825 C   0  0  0  0  0  0  0  0  0  0  0  0
   -2.4117   -1.9499   -0.2450 C   0  0  0  0  0  0  0  0  0  0  0  0
   -2.0275   -2.2693    1.2063 C   0  0  0  0  0  0  0  0  0  0  0  0
   -2.7214   -0.5064   -0.4089 N   0  0  0  0  0  0  0  0  0  0  0  0
   -3.8978    0.1429   -0.0394 C   0  0  0  0  0  0  0  0  0  0  0  0
   -4.0239    1.3732   -0.0769 O   0  0  0  0  0  0  0  0  0  0  0  0
   -5.0819   -0.7705    0.3949 C   0  0  0  0  0  0  0  0  0  0  0  0
   -6.4017   -0.0741    0.8449 C   0  0  0  0  0  0  0  0  0  0  0  0
   -7.1658   -1.2241    0.1650 C   0  0  0  0  0  0  0  0  0  0  0  0
   -5.9339   -1.4111   -0.7390 C   0  0  0  0  0  0  0  0  0  0  0  0
    2.5709   -1.7931    2.0651 H   0  0  0  0  0  0  0  0  0  0  0  0
    4.3335   -1.9020    2.0129 H   0  0  0  0  0  0  0  0  0  0  0  0
    3.5085   -0.8314    3.2143 H   0  0  0  0  0  0  0  0  0  0  0  0
    5.7680   -0.2280    2.7876 H   0  0  0  0  0  0  0  0  0  0  0  0
    7.5715    1.4126    2.6478 H   0  0  0  0  0  0  0  0  0  0  0  0
    7.4438    3.2932    1.0380 H   0  0  0  0  0  0  0  0  0  0  0  0
    5.4755    3.5320   -0.4329 H   0  0  0  0  0  0  0  0  0  0  0  0
    3.1578    3.0146   -0.8285 H   0  0  0  0  0  0  0  0  0  0  0  0
    2.3560    1.6721   -0.0245 H   0  0  0  0  0  0  0  0  0  0  0  0
    3.7429    0.1902   -1.6244 H   0  0  0  0  0  0  0  0  0  0  0  0
    0.0670    2.8805   -1.9995 H   0  0  0  0  0  0  0  0  0  0  0  0
   -2.0443    2.2295   -0.9149 H   0  0  0  0  0  0  0  0  0  0  0  0
    1.2087   -1.2825   -2.3663 H   0  0  0  0  0  0  0  0  0  0  0  0
   -1.5719   -2.6469   -2.1357 H   0  0  0  0  0  0  0  0  0  0  0  0
   -0.4796   -2.9147   -0.7453 H   0  0  0  0  0  0  0  0  0  0  0  0
   -3.2780   -2.5556   -0.5287 H   0  0  0  0  0  0  0  0  0  0  0  0
   -1.1414   -1.7050    1.5190 H   0  0  0  0  0  0  0  0  0  0  0  0
   -1.8057   -3.3363    1.3170 H   0  0  0  0  0  0  0  0  0  0  0  0
   -2.8284   -2.0192    1.9067 H   0  0  0  0  0  0  0  0  0  0  0  0
   -4.7841   -1.5107    1.1476 H   0  0  0  0  0  0  0  0  0  0  0  0
   -6.5467    0.0109    1.9251 H   0  0  0  0  0  0  0  0  0  0  0  0
   -6.5871    0.9034    0.3851 H   0  0  0  0  0  0  0  0  0  0  0  0
   -8.0922   -0.9468   -0.3437 H   0  0  0  0  0  0  0  0  0  0  0  0
   -7.3610   -2.0760    0.8262 H   0  0  0  0  0  0  0  0  0  0  0  0
   -5.9677   -0.8218   -1.6629 H   0  0  0  0  0  0  0  0  0  0  0  0
   -5.6942   -2.4477   -0.9892 H   0  0  0  0  0  0  0  0  0  0  0  0
  1  2  1  0
  2  3  1  0
  3  4  2  0
  4  5  1  0
  5  6  2  0
  6  7  1  0
  7  8  2  0
  8  9  1  0
  9 10  1  0
 10 11  1  0
 11 12  2  0
 11 13  2  0
 11 14  1  0
 14 15  2  0
 15 16  1  0
 16 17  2  0
 17 18  1  0
 18 19  2  0
 18 20  1  0
 20 21  1  0
 21 22  1  0
 21 23  1  0
 23 24  1  0
 24 25  2  0
 24 26  1  0
 26 27  1  0
 27 28  1  0
 28 29  1  0
  8  3  1  0
 19 14  1  0
 29 26  1  0
 23 17  1  0
  1 30  1  0
  1 31  1  0
  1 32  1  0
  4 33  1  0
  5 34  1  0
  6 35  1  0
  7 36  1  0
  9 37  1  0
  9 38  1  0
 10 39  1  0
 15 40  1  0
 16 41  1  0
 19 42  1  0
 20 43  1  0
 20 44  1  0
 21 45  1  0
 22 46  1  0
 22 47  1  0
 22 48  1  0
 26 49  1  0
 27 50  1  0
 27 51  1  0
 28 52  1  0
 28 53  1  0
 29 54  1  0
 29 55  1  0
M  END
$$$$
