
     RDKit          3D

 43 45  0  0  0  0  0  0  0  0999 V2000
   -7.2228   -0.8699    1.8813 C   0  0  0  0  0  0  0  0  0  0  0  0
   -7.2471   -0.1391    0.5467 C   0  0  0  0  0  0  0  0  0  0  0  0
   -6.3453    1.0937    0.5289 C   0  0  0  0  0  0  0  0  0  0  0  0
   -4.8907    0.7266    0.5484 C   0  0  0  0  0  0  0  0  0  0  0  0
   -4.2918    0.1152   -0.4242 N   0  0  0  0  0  0  0  0  0  0  0  0
   -2.9703   -0.0682   -0.0841 N   0  0  0  0  0  0  0  0  0  0  0  0
   -2.0830   -0.7097   -0.9196 C   0  0  0  0  0  0  0  0  0  0  0  0
   -2.3266   -1.1876   -2.0230 O   0  0  0  0  0  0  0  0  0  0  0  0
   -0.7127   -0.8035   -0.3649 C   0  0  0  0  0  0  0  0  0  0  0  0
   -0.4433   -0.2867    0.8472 C   0  0  0  0  0  0  0  0  0  0  0  0
    0.9476   -0.3910    1.4375 C   0  0  0  0  0  0  0  0  0  0  0  0
    1.7386    1.2461    1.6460 S   0  0  0  0  0  0  0  0  0  0  0  0
    1.9030    1.7507   -0.0953 C   0  0  0  0  0  0  0  0  0  0  0  0
    2.8032    0.7891   -0.8537 C   0  0  0  0  0  0  0  0  0  0  0  0
    2.3311    0.0028   -1.6698 O   0  0  0  0  0  0  0  0  0  0  0  0
    4.1355    0.9056   -0.4931 N   0  0  0  0  0  0  0  0  0  0  0  0
    5.2337    0.1949   -1.0154 C   0  0  0  0  0  0  0  0  0  0  0  0
    5.1474   -0.6953   -2.0901 C   0  0  0  0  0  0  0  0  0  0  0  0
    6.2886   -1.3592   -2.5518 C   0  0  0  0  0  0  0  0  0  0  0  0
    7.5137   -1.1303   -1.9405 C   0  0  0  0  0  0  0  0  0  0  0  0
    8.6050   -1.7666   -2.3843 F   0  0  0  0  0  0  0  0  0  0  0  0
    7.6213   -0.2473   -0.8749 C   0  0  0  0  0  0  0  0  0  0  0  0
    6.4816    0.4163   -0.4134 C   0  0  0  0  0  0  0  0  0  0  0  0
   -1.3947    0.3247    1.6411 N   0  0  0  0  0  0  0  0  0  0  0  0
   -2.5802    0.4032    1.1400 C   0  0  0  0  0  0  0  0  0  0  0  0
   -3.9275    1.1359    1.9479 S   0  0  0  0  0  0  0  0  0  0  0  0
   -7.9348   -1.7013    1.8676 H   0  0  0  0  0  0  0  0  0  0  0  0
   -7.5003   -0.1999    2.7012 H   0  0  0  0  0  0  0  0  0  0  0  0
   -6.2318   -1.2831    2.0921 H   0  0  0  0  0  0  0  0  0  0  0  0
   -8.2766    0.1767    0.3405 H   0  0  0  0  0  0  0  0  0  0  0  0
   -6.9605   -0.8359   -0.2497 H   0  0  0  0  0  0  0  0  0  0  0  0
   -6.5257    1.6519   -0.3978 H   0  0  0  0  0  0  0  0  0  0  0  0
   -6.5915    1.7620    1.3611 H   0  0  0  0  0  0  0  0  0  0  0  0
    0.0270   -1.2924   -0.9880 H   0  0  0  0  0  0  0  0  0  0  0  0
    0.8773   -0.8507    2.4300 H   0  0  0  0  0  0  0  0  0  0  0  0
    1.6021   -1.0395    0.8462 H   0  0  0  0  0  0  0  0  0  0  0  0
    0.9248    1.8110   -0.5808 H   0  0  0  0  0  0  0  0  0  0  0  0
    2.3415    2.7536   -0.1323 H   0  0  0  0  0  0  0  0  0  0  0  0
    4.3296    1.5174    0.2928 H   0  0  0  0  0  0  0  0  0  0  0  0
    4.2081   -0.8927   -2.5972 H   0  0  0  0  0  0  0  0  0  0  0  0
    6.2237   -2.0507   -3.3861 H   0  0  0  0  0  0  0  0  0  0  0  0
    8.5881   -0.0808   -0.4109 H   0  0  0  0  0  0  0  0  0  0  0  0
    6.5846    1.1037    0.4224 H   0  0  0  0  0  0  0  0  0  0  0  0
  1  2  1  0
  2  3  1  0
  3  4  1  0
  4  5  2  0
  5  6  1  0
  6  7  1  0
  7  8  2  0
  7  9  1  0
  9 10  2  0
 10 11  1  0
 11 12  1  0
 12 13  1  0
 13 14  1  0
 14 15  2  0
 14 16  1  0
 16 17  1  0
 17 18  2  0
 18 19  1  0
 19 20  2  0
 20 21  1  0
 20 22  1  0
 22 23  2  0
 10 24  1  0
 24 25  2  0
 25 26  1  0
 26  4  1  0
 25  6  1  0
 23 17  1  0
  1 27  1  0
  1 28  1  0
  1 29  1  0
  2 30  1  0
  2 31  1  0
  3 32  1  0
  3 33  1  0
  9 34  1  0
 11 35  1  0
 11 36  1  0
 13 37  1  0
 13 38  1  0
 16 39  1  0
 18 40  1  0
 19 41  1  0
 22 42  1  0
 23 43  1  0
M  END
$$$$
