
     RDKit          3D

 50 52  0  0  0  0  0  0  0  0999 V2000
    6.9756   -0.0088   -0.1922 O   0  0  0  0  0  0  0  0  0  0  0  0
    6.2382    0.8987    0.1422 C   0  0  0  0  0  0  0  0  0  0  0  0
    6.6845    1.9325    0.8753 O   0  0  0  0  0  0  0  0  0  0  0  0
    4.8000    1.0166   -0.1974 C   0  0  0  0  0  0  0  0  0  0  0  0
    4.0182    2.0839    0.2651 C   0  0  0  0  0  0  0  0  0  0  0  0
    2.6718    2.1527   -0.0837 C   0  0  0  0  0  0  0  0  0  0  0  0
    1.8395    3.1793    0.4471 N   0  0  0  0  0  0  0  0  0  0  0  0
    1.0991    2.8862    1.9480 S   0  0  0  0  0  6  0  0  0  0  0  0
    2.0668    2.2766    2.8330 O   0  0  0  0  0  0  0  0  0  0  0  0
    0.4095    4.1048    2.3106 O   0  0  0  0  0  0  0  0  0  0  0  0
   -0.1294    1.6767    1.5303 C   0  0  0  0  0  0  0  0  0  0  0  0
   -1.2821    2.0709    0.8473 C   0  0  0  0  0  0  0  0  0  0  0  0
   -2.1957    1.1025    0.4120 C   0  0  0  0  0  0  0  0  0  0  0  0
   -1.9843   -0.2675    0.6509 C   0  0  0  0  0  0  0  0  0  0  0  0
   -2.8416   -1.2418    0.1197 N   0  0  0  0  0  0  0  0  0  0  0  0
   -2.4070   -1.7075   -1.2148 C   0  0  0  0  0  0  0  0  0  0  0  0
   -3.4420   -2.6660   -1.7947 C   0  0  0  0  0  0  0  0  0  0  0  0
   -4.7997   -1.9858   -1.9757 C   0  0  0  0  0  0  0  0  0  0  0  0
   -5.0143   -0.8245   -1.0039 C   0  0  0  0  0  0  0  0  0  0  0  0
   -4.2898   -1.0534    0.3189 C   0  0  0  0  0  0  0  0  0  0  0  0
   -0.8319   -0.6106    1.3834 C   0  0  0  0  0  0  0  0  0  0  0  0
   -0.5532   -1.9984    1.6867 N   0  0  0  0  0  4  0  0  0  0  0  0
    0.3775   -2.5277    1.0596 O   0  0  0  0  0  0  0  0  0  0  0  0
   -1.2073   -2.5278    2.5956 O   0  0  0  0  0  1  0  0  0  0  0  0
    0.0951    0.3356    1.8351 C   0  0  0  0  0  0  0  0  0  0  0  0
    2.0984    1.1659   -0.8846 C   0  0  0  0  0  0  0  0  0  0  0  0
    2.8676    0.0867   -1.3308 C   0  0  0  0  0  0  0  0  0  0  0  0
    2.1911   -0.9574   -2.1368 C   0  0  0  0  0  0  0  0  0  0  0  0
    1.0135   -0.9585   -2.4459 O   0  0  0  0  0  0  0  0  0  0  0  0
    3.0241   -1.9422   -2.5081 O   0  0  0  0  0  0  0  0  0  0  0  0
    4.2229    0.0147   -0.9909 C   0  0  0  0  0  0  0  0  0  0  0  0
    7.6286    1.7204    1.0363 H   0  0  0  0  0  0  0  0  0  0  0  0
    4.4516    2.8422    0.9126 H   0  0  0  0  0  0  0  0  0  0  0  0
    2.1904    4.1374    0.4114 H   0  0  0  0  0  0  0  0  0  0  0  0
   -1.4598    3.1203    0.6186 H   0  0  0  0  0  0  0  0  0  0  0  0
   -3.0622    1.4306   -0.1579 H   0  0  0  0  0  0  0  0  0  0  0  0
   -1.4472   -2.2303   -1.1347 H   0  0  0  0  0  0  0  0  0  0  0  0
   -2.2670   -0.8595   -1.8982 H   0  0  0  0  0  0  0  0  0  0  0  0
   -3.0974   -3.0656   -2.7550 H   0  0  0  0  0  0  0  0  0  0  0  0
   -3.5577   -3.5240   -1.1198 H   0  0  0  0  0  0  0  0  0  0  0  0
   -5.5908   -2.7341   -1.8461 H   0  0  0  0  0  0  0  0  0  0  0  0
   -4.8968   -1.6109   -3.0017 H   0  0  0  0  0  0  0  0  0  0  0  0
   -4.6492    0.1005   -1.4669 H   0  0  0  0  0  0  0  0  0  0  0  0
   -6.0870   -0.6840   -0.8301 H   0  0  0  0  0  0  0  0  0  0  0  0
   -4.5089   -0.2346    1.0150 H   0  0  0  0  0  0  0  0  0  0  0  0
   -4.6825   -1.9622    0.7920 H   0  0  0  0  0  0  0  0  0  0  0  0
    0.9853    0.0231    2.3771 H   0  0  0  0  0  0  0  0  0  0  0  0
    1.0477    1.2275   -1.1608 H   0  0  0  0  0  0  0  0  0  0  0  0
    2.4558   -2.5816   -2.9869 H   0  0  0  0  0  0  0  0  0  0  0  0
    4.8321   -0.8214   -1.3315 H   0  0  0  0  0  0  0  0  0  0  0  0
  1  2  2  0
  2  3  1  0
  2  4  1  0
  4  5  2  0
  5  6  1  0
  6  7  1  0
  7  8  1  0
  8  9  2  0
  8 10  2  0
  8 11  1  0
 11 12  2  0
 12 13  1  0
 13 14  2  0
 14 15  1  0
 15 16  1  0
 16 17  1  0
 17 18  1  0
 18 19  1  0
 19 20  1  0
 14 21  1  0
 21 22  1  0
 22 23  2  0
 22 24  1  0
 21 25  2  0
  6 26  2  0
 26 27  1  0
 27 28  1  0
 28 29  2  0
 28 30  1  0
 27 31  2  0
 31  4  1  0
 25 11  1  0
 20 15  1  0
  3 32  1  0
  5 33  1  0
  7 34  1  0
 12 35  1  0
 13 36  1  0
 16 37  1  0
 16 38  1  0
 17 39  1  0
 17 40  1  0
 18 41  1  0
 18 42  1  0
 19 43  1  0
 19 44  1  0
 20 45  1  0
 20 46  1  0
 25 47  1  0
 26 48  1  0
 30 49  1  0
 31 50  1  0
M  CHG  2  22   1  24  -1
M  END
$$$$
