
     RDKit          3D

 32 34  0  0  0  0  0  0  0  0999 V2000
    3.2741   -1.1313   -1.8716 O   0  0  0  0  0  0  0  0  0  0  0  0
    3.9280   -0.3650   -0.9422 C   0  0  0  0  0  0  0  0  0  0  0  0
    5.3228   -0.2701   -1.0115 C   0  0  0  0  0  0  0  0  0  0  0  0
    6.3144   -1.1734   -2.3547 Br  0  0  0  0  0  0  0  0  0  0  0  0
    6.0262    0.5008   -0.0829 C   0  0  0  0  0  0  0  0  0  0  0  0
    5.3305    1.1774    0.9166 C   0  0  0  0  0  0  0  0  0  0  0  0
    6.2807    2.2214    2.1746 Br  0  0  0  0  0  0  0  0  0  0  0  0
    3.9414    1.0942    1.0007 C   0  0  0  0  0  0  0  0  0  0  0  0
    3.2381    0.3213    0.0693 C   0  0  0  0  0  0  0  0  0  0  0  0
    1.7651    0.2692    0.2068 C   0  0  0  0  0  0  0  0  0  0  0  0
    1.0396   -0.4224   -0.6131 N   0  0  0  0  0  0  0  0  0  0  0  0
   -0.2997   -0.3836   -0.3733 C   0  0  0  0  0  0  0  0  0  0  0  0
   -0.9409    0.2660    0.5811 N   0  0  0  0  0  0  0  0  0  0  0  0
   -2.2974    0.0445    0.4822 C   0  0  0  0  0  0  0  0  0  0  0  0
   -2.6875   -0.7697   -0.5576 C   0  0  0  0  0  0  0  0  0  0  0  0
   -1.3317   -1.2907   -1.4359 S   0  0  0  0  0  0  0  0  0  0  0  0
   -4.0903   -1.1719   -0.8592 C   0  0  0  0  0  0  0  0  0  0  0  0
   -5.0753   -0.2534   -0.1119 C   0  0  0  0  0  0  0  0  0  0  0  0
   -4.6429   -0.0005    1.3438 C   0  0  0  0  0  0  0  0  0  0  0  0
   -3.2633    0.6773    1.4255 C   0  0  0  0  0  0  0  0  0  0  0  0
    2.3114   -1.0921   -1.6844 H   0  0  0  0  0  0  0  0  0  0  0  0
    7.1096    0.5718   -0.1404 H   0  0  0  0  0  0  0  0  0  0  0  0
    3.4135    1.6286    1.7871 H   0  0  0  0  0  0  0  0  0  0  0  0
    1.3343    0.8519    1.0439 H   0  0  0  0  0  0  0  0  0  0  0  0
   -4.2935   -1.1281   -1.9350 H   0  0  0  0  0  0  0  0  0  0  0  0
   -4.2431   -2.2079   -0.5332 H   0  0  0  0  0  0  0  0  0  0  0  0
   -6.0762   -0.6991   -0.1327 H   0  0  0  0  0  0  0  0  0  0  0  0
   -5.1436    0.7100   -0.6339 H   0  0  0  0  0  0  0  0  0  0  0  0
   -4.6110   -0.9597    1.8764 H   0  0  0  0  0  0  0  0  0  0  0  0
   -5.3867    0.6233    1.8523 H   0  0  0  0  0  0  0  0  0  0  0  0
   -3.3620    1.7378    1.1649 H   0  0  0  0  0  0  0  0  0  0  0  0
   -2.8847    0.6236    2.4519 H   0  0  0  0  0  0  0  0  0  0  0  0
  1  2  1  0
  2  3  2  0
  3  4  1  0
  3  5  1  0
  5  6  2  0
  6  7  1  0
  6  8  1  0
  8  9  2  0
  9 10  1  0
 10 11  2  3
 11 12  1  0
 12 13  2  0
 13 14  1  0
 14 15  2  0
 15 16  1  0
 15 17  1  0
 17 18  1  0
 18 19  1  0
 19 20  1  0
  9  2  1  0
 16 12  1  0
 20 14  1  0
  1 21  1  0
  5 22  1  0
  8 23  1  0
 10 24  1  0
 17 25  1  0
 17 26  1  0
 18 27  1  0
 18 28  1  0
 19 29  1  0
 19 30  1  0
 20 31  1  0
 20 32  1  0
M  END
$$$$
