
     RDKit          3D

 46 49  0  0  0  0  0  0  0  0999 V2000
    5.4074   -1.4221    3.2826 N   0  0  0  0  0  0  0  0  0  0  0  0
    5.7517   -0.4283    1.9659 S   0  0  0  0  0  6  0  0  0  0  0  0
    6.2267    0.8366    2.4729 O   0  0  0  0  0  0  0  0  0  0  0  0
    6.5271   -1.2444    1.0596 O   0  0  0  0  0  0  0  0  0  0  0  0
    4.1390   -0.1904    1.2745 C   0  0  0  0  0  0  0  0  0  0  0  0
    3.7201   -0.9625    0.1933 C   0  0  0  0  0  0  0  0  0  0  0  0
    2.4389   -0.7684   -0.3384 C   0  0  0  0  0  0  0  0  0  0  0  0
    1.5573    0.1927    0.1858 C   0  0  0  0  0  0  0  0  0  0  0  0
    0.2763    0.3919   -0.3260 N   0  0  0  0  0  0  0  0  0  0  0  0
   -0.5363    1.3639    0.1843 N   0  0  0  0  0  0  0  0  0  0  0  0
   -1.5582    1.4695   -0.6104 C   0  0  0  0  0  0  0  0  0  0  0  0
   -2.6752    2.4137   -0.3728 C   0  0  0  0  0  0  0  0  0  0  0  0
   -2.6810    3.1749    0.8029 C   0  0  0  0  0  0  0  0  0  0  0  0
   -3.7202    4.0723    1.0556 C   0  0  0  0  0  0  0  0  0  0  0  0
   -4.7571    4.2142    0.1355 C   0  0  0  0  0  0  0  0  0  0  0  0
   -4.7563    3.4609   -1.0378 C   0  0  0  0  0  0  0  0  0  0  0  0
   -3.7178    2.5615   -1.2947 C   0  0  0  0  0  0  0  0  0  0  0  0
   -1.5160    0.5810   -1.8229 C   0  0  0  0  0  0  0  0  0  0  0  0
   -0.3025   -0.2878   -1.4868 C   0  0  0  0  0  0  0  0  0  0  0  0
   -0.7209   -1.7218   -1.1936 C   0  0  0  0  0  0  0  0  0  0  0  0
   -1.2485   -2.1046    0.0516 C   0  0  0  0  0  0  0  0  0  0  0  0
   -1.6465   -3.4224    0.2862 C   0  0  0  0  0  0  0  0  0  0  0  0
   -1.5296   -4.3773   -0.7218 C   0  0  0  0  0  0  0  0  0  0  0  0
   -1.0155   -4.0081   -1.9621 C   0  0  0  0  0  0  0  0  0  0  0  0
   -0.8597   -5.2997   -3.3341 Br  0  0  0  0  0  0  0  0  0  0  0  0
   -0.6158   -2.6928   -2.2041 C   0  0  0  0  0  0  0  0  0  0  0  0
    2.0239    0.9609    1.2699 C   0  0  0  0  0  0  0  0  0  0  0  0
    3.3009    0.7829    1.8119 C   0  0  0  0  0  0  0  0  0  0  0  0
    5.8492   -2.3305    3.1322 H   0  0  0  0  0  0  0  0  0  0  0  0
    4.4082   -1.5102    3.4654 H   0  0  0  0  0  0  0  0  0  0  0  0
    4.3733   -1.7142   -0.2445 H   0  0  0  0  0  0  0  0  0  0  0  0
    2.1452   -1.3941   -1.1761 H   0  0  0  0  0  0  0  0  0  0  0  0
   -1.8767    3.0745    1.5289 H   0  0  0  0  0  0  0  0  0  0  0  0
   -3.7180    4.6603    1.9701 H   0  0  0  0  0  0  0  0  0  0  0  0
   -5.5658    4.9140    0.3326 H   0  0  0  0  0  0  0  0  0  0  0  0
   -5.5659    3.5759   -1.7547 H   0  0  0  0  0  0  0  0  0  0  0  0
   -3.7446    1.9938   -2.2195 H   0  0  0  0  0  0  0  0  0  0  0  0
   -1.3229    1.2000   -2.7056 H   0  0  0  0  0  0  0  0  0  0  0  0
   -2.4455    0.0206   -1.9555 H   0  0  0  0  0  0  0  0  0  0  0  0
    0.3995   -0.2679   -2.3302 H   0  0  0  0  0  0  0  0  0  0  0  0
   -1.3445   -1.3735    0.8542 H   0  0  0  0  0  0  0  0  0  0  0  0
   -2.0465   -3.7017    1.2579 H   0  0  0  0  0  0  0  0  0  0  0  0
   -1.8411   -5.4007   -0.5307 H   0  0  0  0  0  0  0  0  0  0  0  0
   -0.2200   -2.4231   -3.1808 H   0  0  0  0  0  0  0  0  0  0  0  0
    1.3786    1.7240    1.7021 H   0  0  0  0  0  0  0  0  0  0  0  0
    3.6253    1.4067    2.6419 H   0  0  0  0  0  0  0  0  0  0  0  0
  1  2  1  0
  2  3  2  0
  2  4  2  0
  2  5  1  0
  5  6  2  0
  6  7  1  0
  7  8  2  0
  8  9  1  0
  9 10  1  0
 10 11  2  0
 11 12  1  0
 12 13  2  0
 13 14  1  0
 14 15  2  0
 15 16  1  0
 16 17  2  0
 11 18  1  0
 18 19  1  0
 19 20  1  0
 20 21  2  0
 21 22  1  0
 22 23  2  0
 23 24  1  0
 24 25  1  0
 24 26  2  0
  8 27  1  0
 27 28  2  0
 28  5  1  0
 19  9  1  0
 26 20  1  0
 17 12  1  0
  1 29  1  0
  1 30  1  0
  6 31  1  0
  7 32  1  0
 13 33  1  0
 14 34  1  0
 15 35  1  0
 16 36  1  0
 17 37  1  0
 18 38  1  0
 18 39  1  0
 19 40  1  0
 21 41  1  0
 22 42  1  0
 23 43  1  0
 26 44  1  0
 27 45  1  0
 28 46  1  0
M  END
$$$$
