
     RDKit          3D

 81 84  0  0  0  0  0  0  0  0999 V2000
   -6.7602   -0.5291    0.2757 O   0  0  0  0  0  0  0  0  0  0  0  0
   -6.2405    0.1832    1.1252 C   0  0  0  0  0  0  0  0  0  0  0  0
   -6.9774    0.9606    1.9993 N   0  0  0  0  0  0  0  0  0  0  0  0
   -8.4297    0.9680    1.9448 C   0  0  0  0  0  0  0  0  0  0  0  0
   -8.9640    1.7570    0.7478 C   0  0  0  0  0  0  0  0  0  0  0  0
  -10.4968    1.8342    0.7190 C   0  0  0  0  0  0  0  0  0  0  0  0
  -11.1770    0.5353    0.8125 N   0  0  0  0  0  0  0  0  0  0  0  0
  -10.9115   -0.3620   -0.3360 C   0  0  0  0  0  0  0  0  0  0  0  0
  -11.6447    0.0418   -1.6273 C   0  0  0  0  0  0  0  0  0  0  0  0
  -13.0598    0.1419   -1.4186 O   0  0  0  0  0  0  0  0  0  0  0  0
  -13.3540    1.0722   -0.3712 C   0  0  0  0  0  0  0  0  0  0  0  0
  -12.6444    0.6927    0.9407 C   0  0  0  0  0  0  0  0  0  0  0  0
   -4.8917    0.3173    1.3756 N   0  0  0  0  0  0  0  0  0  0  0  0
   -3.8304   -0.2258    0.6203 C   0  0  0  0  0  0  0  0  0  0  0  0
   -2.5536   -0.2279    1.1930 C   0  0  0  0  0  0  0  0  0  0  0  0
   -1.4562   -0.7402    0.4909 C   0  0  0  0  0  0  0  0  0  0  0  0
   -1.6071   -1.2257   -0.8147 C   0  0  0  0  0  0  0  0  0  0  0  0
   -0.4632   -1.8388   -1.5967 C   0  0  0  0  0  0  0  0  0  0  0  0
    0.9129   -1.2360   -1.4108 C   0  0  0  0  0  0  0  0  0  0  0  0
    2.0170   -2.0776   -1.2307 C   0  0  0  0  0  0  0  0  0  0  0  0
    3.3096   -1.5529   -1.1216 C   0  0  0  0  0  0  0  0  0  0  0  0
    3.5262   -0.1778   -1.1990 C   0  0  0  0  0  0  0  0  0  0  0  0
    4.8024    0.4110   -1.0845 N   0  0  0  0  0  0  0  0  0  0  0  0
    6.0187   -0.2259   -1.2135 C   0  0  0  0  0  0  0  0  0  0  0  0
    6.2068   -1.3842   -1.5639 O   0  0  0  0  0  0  0  0  0  0  0  0
    7.0533    0.6425   -0.9269 N   0  0  0  0  0  0  0  0  0  0  0  0
    8.4393    0.2209   -1.0317 C   0  0  0  0  0  0  0  0  0  0  0  0
    8.8778   -0.6419    0.1530 C   0  0  0  0  0  0  0  0  0  0  0  0
   10.3080   -1.1734   -0.0144 C   0  0  0  0  0  0  0  0  0  0  0  0
   11.3092   -0.1099   -0.1678 N   0  0  0  0  0  0  0  0  0  0  0  0
   11.5998    0.6125    1.0893 C   0  0  0  0  0  0  0  0  0  0  0  0
   12.9311    0.2049    1.7424 C   0  0  0  0  0  0  0  0  0  0  0  0
   14.0636    0.4154    0.8904 O   0  0  0  0  0  0  0  0  0  0  0  0
   13.7538    0.2760   -0.5043 C   0  0  0  0  0  0  0  0  0  0  0  0
   12.5558   -0.6505   -0.7577 C   0  0  0  0  0  0  0  0  0  0  0  0
    2.4274    0.6687   -1.3741 C   0  0  0  0  0  0  0  0  0  0  0  0
    1.1346    0.1455   -1.5002 C   0  0  0  0  0  0  0  0  0  0  0  0
   -2.8917   -1.2331   -1.3748 C   0  0  0  0  0  0  0  0  0  0  0  0
   -3.9891   -0.7313   -0.6670 C   0  0  0  0  0  0  0  0  0  0  0  0
   -6.5236    1.7939    2.3439 H   0  0  0  0  0  0  0  0  0  0  0  0
   -8.7676   -0.0752    1.9098 H   0  0  0  0  0  0  0  0  0  0  0  0
   -8.7810    1.4122    2.8826 H   0  0  0  0  0  0  0  0  0  0  0  0
   -8.5906    1.3330   -0.1910 H   0  0  0  0  0  0  0  0  0  0  0  0
   -8.5649    2.7792    0.7871 H   0  0  0  0  0  0  0  0  0  0  0  0
  -10.8020    2.4465    1.5770 H   0  0  0  0  0  0  0  0  0  0  0  0
  -10.8026    2.3868   -0.1770 H   0  0  0  0  0  0  0  0  0  0  0  0
   -9.8385   -0.4601   -0.5290 H   0  0  0  0  0  0  0  0  0  0  0  0
  -11.2518   -1.3654   -0.0434 H   0  0  0  0  0  0  0  0  0  0  0  0
  -11.4809   -0.7203   -2.3969 H   0  0  0  0  0  0  0  0  0  0  0  0
  -11.2709    0.9937   -2.0215 H   0  0  0  0  0  0  0  0  0  0  0  0
  -13.0814    2.0822   -0.6992 H   0  0  0  0  0  0  0  0  0  0  0  0
  -14.4387    1.0601   -0.2173 H   0  0  0  0  0  0  0  0  0  0  0  0
  -13.0439   -0.2696    1.2882 H   0  0  0  0  0  0  0  0  0  0  0  0
  -12.8885    1.4212    1.7240 H   0  0  0  0  0  0  0  0  0  0  0  0
   -4.6632    0.6616    2.2953 H   0  0  0  0  0  0  0  0  0  0  0  0
   -2.3986    0.1446    2.2028 H   0  0  0  0  0  0  0  0  0  0  0  0
   -0.4820   -0.7576    0.9764 H   0  0  0  0  0  0  0  0  0  0  0  0
   -0.4367   -2.9050   -1.3351 H   0  0  0  0  0  0  0  0  0  0  0  0
   -0.6849   -1.7873   -2.6712 H   0  0  0  0  0  0  0  0  0  0  0  0
    1.8888   -3.1571   -1.1807 H   0  0  0  0  0  0  0  0  0  0  0  0
    4.1323   -2.2462   -0.9682 H   0  0  0  0  0  0  0  0  0  0  0  0
    4.8450    1.4167   -1.1433 H   0  0  0  0  0  0  0  0  0  0  0  0
    6.8469    1.3831   -0.2712 H   0  0  0  0  0  0  0  0  0  0  0  0
    8.5637   -0.3290   -1.9722 H   0  0  0  0  0  0  0  0  0  0  0  0
    9.0373    1.1360   -1.0888 H   0  0  0  0  0  0  0  0  0  0  0  0
    8.2058   -1.5030    0.2531 H   0  0  0  0  0  0  0  0  0  0  0  0
    8.7732   -0.0756    1.0866 H   0  0  0  0  0  0  0  0  0  0  0  0
   10.3104   -1.8079   -0.9102 H   0  0  0  0  0  0  0  0  0  0  0  0
   10.5624   -1.8254    0.8310 H   0  0  0  0  0  0  0  0  0  0  0  0
   11.6579    1.6787    0.8339 H   0  0  0  0  0  0  0  0  0  0  0  0
   10.7930    0.5158    1.8219 H   0  0  0  0  0  0  0  0  0  0  0  0
   12.9130   -0.8511    2.0346 H   0  0  0  0  0  0  0  0  0  0  0  0
   13.0962    0.7863    2.6540 H   0  0  0  0  0  0  0  0  0  0  0  0
   14.6483   -0.1179   -0.9993 H   0  0  0  0  0  0  0  0  0  0  0  0
   13.5670    1.2750   -0.9146 H   0  0  0  0  0  0  0  0  0  0  0  0
   12.4133   -0.7797   -1.8373 H   0  0  0  0  0  0  0  0  0  0  0  0
   12.7844   -1.6341   -0.3250 H   0  0  0  0  0  0  0  0  0  0  0  0
    2.5626    1.7447   -1.4461 H   0  0  0  0  0  0  0  0  0  0  0  0
    0.3018    0.8259   -1.6705 H   0  0  0  0  0  0  0  0  0  0  0  0
   -3.0565   -1.6316   -2.3757 H   0  0  0  0  0  0  0  0  0  0  0  0
   -4.9588   -0.7357   -1.1588 H   0  0  0  0  0  0  0  0  0  0  0  0
  1  2  2  0
  2  3  1  0
  3  4  1  0
  4  5  1  0
  5  6  1  0
  6  7  1  0
  7  8  1  0
  8  9  1  0
  9 10  1  0
 10 11  1  0
 11 12  1  0
  2 13  1  0
 13 14  1  0
 14 15  2  0
 15 16  1  0
 16 17  2  0
 17 18  1  0
 18 19  1  0
 19 20  2  0
 20 21  1  0
 21 22  2  0
 22 23  1  0
 23 24  1  0
 24 25  2  0
 24 26  1  0
 26 27  1  0
 27 28  1  0
 28 29  1  0
 29 30  1  0
 30 31  1  0
 31 32  1  0
 32 33  1  0
 33 34  1  0
 34 35  1  0
 22 36  1  0
 36 37  2  0
 17 38  1  0
 38 39  2  0
 12  7  1  0
 39 14  1  0
 37 19  1  0
 35 30  1  0
  3 40  1  0
  4 41  1  0
  4 42  1  0
  5 43  1  0
  5 44  1  0
  6 45  1  0
  6 46  1  0
  8 47  1  0
  8 48  1  0
  9 49  1  0
  9 50  1  0
 11 51  1  0
 11 52  1  0
 12 53  1  0
 12 54  1  0
 13 55  1  0
 15 56  1  0
 16 57  1  0
 18 58  1  0
 18 59  1  0
 20 60  1  0
 21 61  1  0
 23 62  1  0
 26 63  1  0
 27 64  1  0
 27 65  1  0
 28 66  1  0
 28 67  1  0
 29 68  1  0
 29 69  1  0
 31 70  1  0
 31 71  1  0
 32 72  1  0
 32 73  1  0
 34 74  1  0
 34 75  1  0
 35 76  1  0
 35 77  1  0
 36 78  1  0
 37 79  1  0
 38 80  1  0
 39 81  1  0
M  END
$$$$
