
     RDKit          3D

 72 77  0  0  0  0  0  0  0  0999 V2000
    3.2894   -1.8487    0.4229 O   0  0  0  0  0  0  0  0  0  0  0  0
    4.1357   -1.5798    1.2698 C   0  0  0  0  0  0  0  0  0  0  0  0
    3.8085   -1.3548    2.7406 C   0  0  0  0  0  0  0  0  0  0  0  0
    2.1190   -0.7253    2.9721 S   0  0  0  0  0  0  0  0  0  0  0  0
    2.1589    0.5956    1.8037 C   0  0  0  0  0  0  0  0  0  0  0  0
    3.2283    1.3425    1.7775 N   0  0  0  0  0  0  0  0  0  0  0  0
    3.3001    2.4157    0.8570 C   0  0  0  0  0  0  0  0  0  0  0  0
    4.4533    3.2009    0.8234 C   0  0  0  0  0  0  0  0  0  0  0  0
    4.5528    4.2812   -0.0595 C   0  0  0  0  0  0  0  0  0  0  0  0
    3.4939    4.5853   -0.9176 C   0  0  0  0  0  0  0  0  0  0  0  0
    2.3390    3.8028   -0.9036 C   0  0  0  0  0  0  0  0  0  0  0  0
    2.2449    2.7212   -0.0213 C   0  0  0  0  0  0  0  0  0  0  0  0
    1.0744    1.8658    0.0467 C   0  0  0  0  0  0  0  0  0  0  0  0
   -0.0404    1.9277   -0.6486 N   0  0  0  0  0  0  0  0  0  0  0  0
   -0.8212    0.9011   -0.1665 C   0  0  0  0  0  0  0  0  0  0  0  0
   -2.1885    0.6623   -0.7010 C   0  0  0  0  0  0  0  0  0  0  0  0
   -3.2873    1.1378    0.2471 C   0  0  0  0  0  0  0  0  0  0  0  0
   -3.0519    1.6093    1.3621 O   0  0  0  0  0  0  0  0  0  0  0  0
   -4.5999    1.0357   -0.2267 N   0  0  0  0  0  0  0  0  0  0  0  0
   -5.6934    1.4051    0.6830 C   0  0  0  0  0  0  0  0  0  0  0  0
   -6.2698    0.1460    1.3696 C   0  0  0  0  0  0  0  0  0  0  0  0
   -6.7024   -0.8527    0.3461 N   0  0  0  0  0  0  0  0  0  0  0  0
   -8.0275   -0.7736   -0.0942 C   0  0  0  0  0  0  0  0  0  0  0  0
   -8.3987   -0.8320   -1.4471 C   0  0  0  0  0  0  0  0  0  0  0  0
   -9.7391   -0.7630   -1.8529 C   0  0  0  0  0  0  0  0  0  0  0  0
  -10.7517   -0.6428   -0.9093 C   0  0  0  0  0  0  0  0  0  0  0  0
  -10.4221   -0.6108    0.4390 C   0  0  0  0  0  0  0  0  0  0  0  0
   -9.0804   -0.6819    0.8344 C   0  0  0  0  0  0  0  0  0  0  0  0
   -5.6102   -1.1945   -0.5996 C   0  0  0  0  0  0  0  0  0  0  0  0
   -5.0198    0.0743   -1.2591 C   0  0  0  0  0  0  0  0  0  0  0  0
   -0.1450    0.1674    0.7915 C   0  0  0  0  0  0  0  0  0  0  0  0
   -0.5339   -0.9262    1.4457 O   0  0  0  0  0  0  0  0  0  0  0  0
    1.0667    0.8222    0.9512 N   0  0  0  0  0  0  0  0  0  0  0  0
    5.4748   -1.4460    0.9780 N   0  0  0  0  0  0  0  0  0  0  0  0
    5.9803   -1.5659   -0.3791 C   0  0  0  0  0  0  0  0  0  0  0  0
    7.4530   -1.1624   -0.4604 C   0  0  0  0  0  0  0  0  0  0  0  0
    8.0163   -1.2139   -1.8701 C   0  0  0  0  0  0  0  0  0  0  0  0
    9.4748   -1.5005   -1.6114 C   0  0  0  0  0  0  0  0  0  0  0  0
    9.4007   -2.4484   -0.4350 C   0  0  0  0  0  0  0  0  0  0  0  0
    8.2610   -2.0517    0.3411 O   0  0  0  0  0  0  0  0  0  0  0  0
    3.9069   -2.3139    3.2605 H   0  0  0  0  0  0  0  0  0  0  0  0
    4.5158   -0.6490    3.1867 H   0  0  0  0  0  0  0  0  0  0  0  0
    5.2771    2.9720    1.4943 H   0  0  0  0  0  0  0  0  0  0  0  0
    5.4540    4.8900   -0.0714 H   0  0  0  0  0  0  0  0  0  0  0  0
    3.5668    5.4346   -1.5946 H   0  0  0  0  0  0  0  0  0  0  0  0
    1.5104    4.0359   -1.5706 H   0  0  0  0  0  0  0  0  0  0  0  0
   -2.3058   -0.4142   -0.8750 H   0  0  0  0  0  0  0  0  0  0  0  0
   -2.3065    1.1920   -1.6556 H   0  0  0  0  0  0  0  0  0  0  0  0
   -5.3518    2.1249    1.4350 H   0  0  0  0  0  0  0  0  0  0  0  0
   -6.4678    1.8972    0.0818 H   0  0  0  0  0  0  0  0  0  0  0  0
   -5.4901   -0.3206    1.9857 H   0  0  0  0  0  0  0  0  0  0  0  0
   -7.0707    0.4381    2.0549 H   0  0  0  0  0  0  0  0  0  0  0  0
   -7.6542   -0.9201   -2.2310 H   0  0  0  0  0  0  0  0  0  0  0  0
   -9.9877   -0.8066   -2.9102 H   0  0  0  0  0  0  0  0  0  0  0  0
  -11.7908   -0.5899   -1.2235 H   0  0  0  0  0  0  0  0  0  0  0  0
  -11.2024   -0.5439    1.1905 H   0  0  0  0  0  0  0  0  0  0  0  0
   -8.8704   -0.7025    1.9007 H   0  0  0  0  0  0  0  0  0  0  0  0
   -4.8153   -1.6868   -0.0229 H   0  0  0  0  0  0  0  0  0  0  0  0
   -5.9273   -1.9241   -1.3525 H   0  0  0  0  0  0  0  0  0  0  0  0
   -4.1929   -0.2022   -1.9175 H   0  0  0  0  0  0  0  0  0  0  0  0
   -5.7725    0.5770   -1.8756 H   0  0  0  0  0  0  0  0  0  0  0  0
    0.1683   -1.2111    2.0631 H   0  0  0  0  0  0  0  0  0  0  0  0
    6.1064   -1.0832    1.6909 H   0  0  0  0  0  0  0  0  0  0  0  0
    5.8474   -2.6132   -0.6713 H   0  0  0  0  0  0  0  0  0  0  0  0
    5.3678   -0.9377   -1.0363 H   0  0  0  0  0  0  0  0  0  0  0  0
    7.5909   -0.1560   -0.0404 H   0  0  0  0  0  0  0  0  0  0  0  0
    7.5691   -2.0284   -2.4548 H   0  0  0  0  0  0  0  0  0  0  0  0
    7.8626   -0.2759   -2.4169 H   0  0  0  0  0  0  0  0  0  0  0  0
    9.9859   -0.5758   -1.3157 H   0  0  0  0  0  0  0  0  0  0  0  0
   10.0001   -1.9243   -2.4717 H   0  0  0  0  0  0  0  0  0  0  0  0
   10.3000   -2.4208    0.1917 H   0  0  0  0  0  0  0  0  0  0  0  0
    9.2344   -3.4801   -0.7677 H   0  0  0  0  0  0  0  0  0  0  0  0
  1  2  2  0
  2  3  1  0
  3  4  1  0
  4  5  1  0
  5  6  2  0
  6  7  1  0
  7  8  2  0
  8  9  1  0
  9 10  2  0
 10 11  1  0
 11 12  2  0
 12 13  1  0
 13 14  2  0
 14 15  1  0
 15 16  1  0
 16 17  1  0
 17 18  2  0
 17 19  1  0
 19 20  1  0
 20 21  1  0
 21 22  1  0
 22 23  1  0
 23 24  2  0
 24 25  1  0
 25 26  2  0
 26 27  1  0
 27 28  2  0
 22 29  1  0
 29 30  1  0
 15 31  2  0
 31 32  1  0
 31 33  1  0
  2 34  1  0
 34 35  1  0
 35 36  1  0
 36 37  1  0
 37 38  1  0
 38 39  1  0
 39 40  1  0
 33  5  1  0
 40 36  1  0
 12  7  1  0
 33 13  1  0
 30 19  1  0
 28 23  1  0
  3 41  1  0
  3 42  1  0
  8 43  1  0
  9 44  1  0
 10 45  1  0
 11 46  1  0
 16 47  1  0
 16 48  1  0
 20 49  1  0
 20 50  1  0
 21 51  1  0
 21 52  1  0
 24 53  1  0
 25 54  1  0
 26 55  1  0
 27 56  1  0
 28 57  1  0
 29 58  1  0
 29 59  1  0
 30 60  1  0
 30 61  1  0
 32 62  1  0
 34 63  1  0
 35 64  1  0
 35 65  1  0
 36 66  1  0
 37 67  1  0
 37 68  1  0
 38 69  1  0
 38 70  1  0
 39 71  1  0
 39 72  1  0
M  END
$$$$
