
     RDKit          3D

 51 54  0  0  0  0  0  0  0  0999 V2000
    4.1967    2.0067    2.2649 C   0  0  0  0  0  0  0  0  0  0  0  0
    2.9297    1.4105    1.6780 C   0  0  0  0  0  0  0  0  0  0  0  0
    1.9089    1.4789    2.6754 O   0  0  0  0  0  0  0  0  0  0  0  0
    0.6213    1.3773    2.2069 C   0  0  0  0  0  0  0  0  0  0  0  0
    0.2625    0.5032    1.1727 C   0  0  0  0  0  0  0  0  0  0  0  0
   -1.0730    0.4063    0.7434 C   0  0  0  0  0  0  0  0  0  0  0  0
   -1.5053   -0.5616   -0.3589 C   0  0  0  0  0  0  0  0  0  0  0  0
   -1.3405   -2.0142    0.0991 C   0  0  0  0  0  0  0  0  0  0  0  0
   -2.5214   -2.9012   -0.2590 C   0  0  0  0  0  0  0  0  0  0  0  0
   -3.6455   -2.4524   -0.4688 O   0  0  0  0  0  0  0  0  0  0  0  0
   -2.2447   -4.3981   -0.3214 C   0  0  0  0  0  0  0  0  0  0  0  0
   -1.0452   -4.7684    0.5550 C   0  0  0  0  0  0  0  0  0  0  0  0
    0.2382   -4.0438    0.1377 C   0  0  0  0  0  0  0  0  0  0  0  0
   -0.0913   -2.6827   -0.4440 C   0  0  0  0  0  0  0  0  0  0  0  0
    0.6535   -2.2298   -1.4020 N   0  0  0  0  0  0  0  0  0  0  0  0
    0.2687   -1.0917   -2.0240 C   0  0  0  0  0  0  0  0  0  0  0  0
    0.7430   -0.5424   -3.1176 N   0  0  0  0  0  0  0  0  0  0  0  0
   -0.0520    0.5775   -3.3267 C   0  0  0  0  0  0  0  0  0  0  0  0
    0.1235    1.4993   -4.4664 C   0  0  0  0  0  0  0  0  0  0  0  0
   -0.5753    2.4887   -4.6727 O   0  0  0  0  0  0  0  0  0  0  0  0
    1.1627    1.1279   -5.2794 O   0  0  0  0  0  0  0  0  0  0  0  0
    1.3680    1.9917   -6.3954 C   0  0  0  0  0  0  0  0  0  0  0  0
   -1.0057    0.7333   -2.3851 N   0  0  0  0  0  0  0  0  0  0  0  0
   -0.7563   -0.3073   -1.5763 N   0  0  0  0  0  0  0  0  0  0  0  0
   -2.0388    1.1963    1.3830 C   0  0  0  0  0  0  0  0  0  0  0  0
   -1.6861    2.0564    2.4284 C   0  0  0  0  0  0  0  0  0  0  0  0
   -0.3589    2.1488    2.8538 C   0  0  0  0  0  0  0  0  0  0  0  0
    0.0816    2.9570    3.8705 O   0  0  0  0  0  0  0  0  0  0  0  0
   -0.8761    3.7856    4.5136 C   0  0  0  0  0  0  0  0  0  0  0  0
    4.4955    1.4655    3.1689 H   0  0  0  0  0  0  0  0  0  0  0  0
    4.0320    3.0495    2.5565 H   0  0  0  0  0  0  0  0  0  0  0  0
    5.0174    1.9666    1.5427 H   0  0  0  0  0  0  0  0  0  0  0  0
    3.1170    0.3640    1.4122 H   0  0  0  0  0  0  0  0  0  0  0  0
    2.6469    1.9770    0.7821 H   0  0  0  0  0  0  0  0  0  0  0  0
    1.0266   -0.1132    0.7087 H   0  0  0  0  0  0  0  0  0  0  0  0
   -2.5485   -0.3429   -0.6177 H   0  0  0  0  0  0  0  0  0  0  0  0
   -1.2858   -2.0566    1.1966 H   0  0  0  0  0  0  0  0  0  0  0  0
   -2.0616   -4.6719   -1.3659 H   0  0  0  0  0  0  0  0  0  0  0  0
   -3.1343   -4.9296    0.0319 H   0  0  0  0  0  0  0  0  0  0  0  0
   -1.2734   -4.5122    1.5978 H   0  0  0  0  0  0  0  0  0  0  0  0
   -0.8796   -5.8513    0.5302 H   0  0  0  0  0  0  0  0  0  0  0  0
    0.9059   -3.9165    0.9955 H   0  0  0  0  0  0  0  0  0  0  0  0
    0.7679   -4.6309   -0.6208 H   0  0  0  0  0  0  0  0  0  0  0  0
    0.4862    1.9986   -7.0439 H   0  0  0  0  0  0  0  0  0  0  0  0
    2.2152    1.6073   -6.9702 H   0  0  0  0  0  0  0  0  0  0  0  0
    1.6110    3.0044   -6.0585 H   0  0  0  0  0  0  0  0  0  0  0  0
   -3.0831    1.1521    1.0750 H   0  0  0  0  0  0  0  0  0  0  0  0
   -2.4753    2.6415    2.8894 H   0  0  0  0  0  0  0  0  0  0  0  0
   -1.3278    4.4903    3.8078 H   0  0  0  0  0  0  0  0  0  0  0  0
   -0.3539    4.3702    5.2772 H   0  0  0  0  0  0  0  0  0  0  0  0
   -1.6405    3.1861    5.0192 H   0  0  0  0  0  0  0  0  0  0  0  0
  1  2  1  0
  2  3  1  0
  3  4  1  0
  4  5  2  0
  5  6  1  0
  6  7  1  0
  7  8  1  0
  8  9  1  0
  9 10  2  0
  9 11  1  0
 11 12  1  0
 12 13  1  0
 13 14  1  0
 14 15  2  0
 15 16  1  0
 16 17  2  0
 17 18  1  0
 18 19  1  0
 19 20  2  0
 19 21  1  0
 21 22  1  0
 18 23  2  0
 23 24  1  0
  6 25  2  0
 25 26  1  0
 26 27  2  0
 27 28  1  0
 28 29  1  0
 27  4  1  0
 24  7  1  0
 14  8  1  0
 24 16  1  0
  1 30  1  0
  1 31  1  0
  1 32  1  0
  2 33  1  0
  2 34  1  0
  5 35  1  0
  7 36  1  0
  8 37  1  0
 11 38  1  0
 11 39  1  0
 12 40  1  0
 12 41  1  0
 13 42  1  0
 13 43  1  0
 22 44  1  0
 22 45  1  0
 22 46  1  0
 25 47  1  0
 26 48  1  0
 29 49  1  0
 29 50  1  0
 29 51  1  0
M  END
$$$$
