
     RDKit          3D

 60 63  0  0  0  0  0  0  0  0999 V2000
   -6.5686    1.2633    2.0016 O   0  0  0  0  0  0  0  0  0  0  0  0
   -6.2719    1.2730    0.8199 C   0  0  0  0  0  0  0  0  0  0  0  0
   -5.6047    2.3130    0.2811 O   0  0  0  0  0  0  0  0  0  0  0  0
   -6.5826    0.2082   -0.2013 C   0  0  0  0  0  0  0  0  0  0  0  0
   -8.0992    0.1593   -0.4271 C   0  0  0  0  0  0  0  0  0  0  0  0
   -8.5318   -1.0659   -1.1825 C   0  0  0  0  0  0  0  0  0  0  0  0
   -7.7482   -2.1401   -1.3500 C   0  0  0  0  0  0  0  0  0  0  0  0
   -6.3646   -2.2535   -0.7753 C   0  0  0  0  0  0  0  0  0  0  0  0
   -6.0460   -1.1574    0.2538 C   0  0  0  0  0  0  0  0  0  0  0  0
   -4.5499   -1.1346    0.5694 C   0  0  0  0  0  0  0  0  0  0  0  0
   -4.1587   -1.5086    1.6717 O   0  0  0  0  0  0  0  0  0  0  0  0
   -3.7483   -0.6935   -0.4685 N   0  0  0  0  0  0  0  0  0  0  0  0
   -2.3467   -0.5296   -0.4569 C   0  0  0  0  0  0  0  0  0  0  0  0
   -1.5364   -0.7796    0.6472 C   0  0  0  0  0  0  0  0  0  0  0  0
   -0.1481   -0.5833    0.5777 C   0  0  0  0  0  0  0  0  0  0  0  0
    0.4739   -0.1183   -0.5877 C   0  0  0  0  0  0  0  0  0  0  0  0
    1.8589    0.0903   -0.7020 N   0  0  0  0  0  0  0  0  0  0  0  0
    2.7291   -0.5133    0.3317 C   0  0  0  0  0  0  0  0  0  0  0  0
    4.2169   -0.3693   -0.0601 C   0  0  0  0  0  0  0  0  0  0  0  0
    4.6065    1.0498   -0.2574 N   0  0  0  0  0  0  0  0  0  0  0  0
    6.0151    1.1734   -0.6687 C   0  0  0  0  0  0  0  0  0  0  0  0
    7.0037    0.7323    0.3920 C   0  0  0  0  0  0  0  0  0  0  0  0
    6.9731    1.2883    1.6809 C   0  0  0  0  0  0  0  0  0  0  0  0
    7.8956    0.8880    2.6492 C   0  0  0  0  0  0  0  0  0  0  0  0
    8.8624   -0.0672    2.3393 C   0  0  0  0  0  0  0  0  0  0  0  0
    8.9083   -0.6215    1.0608 C   0  0  0  0  0  0  0  0  0  0  0  0
    7.9860   -0.2237    0.0915 C   0  0  0  0  0  0  0  0  0  0  0  0
    3.7278    1.6313   -1.2987 C   0  0  0  0  0  0  0  0  0  0  0  0
    2.2205    1.5027   -0.9710 C   0  0  0  0  0  0  0  0  0  0  0  0
   -0.3553    0.1166   -1.6939 C   0  0  0  0  0  0  0  0  0  0  0  0
   -1.7418   -0.0791   -1.6334 C   0  0  0  0  0  0  0  0  0  0  0  0
   -5.4398    2.9165    1.0387 H   0  0  0  0  0  0  0  0  0  0  0  0
   -6.1063    0.4933   -1.1485 H   0  0  0  0  0  0  0  0  0  0  0  0
   -8.6439    0.1895    0.5253 H   0  0  0  0  0  0  0  0  0  0  0  0
   -8.4055    1.0504   -0.9901 H   0  0  0  0  0  0  0  0  0  0  0  0
   -9.5367   -1.0631   -1.6011 H   0  0  0  0  0  0  0  0  0  0  0  0
   -8.1215   -2.9921   -1.9146 H   0  0  0  0  0  0  0  0  0  0  0  0
   -5.6495   -2.2455   -1.6058 H   0  0  0  0  0  0  0  0  0  0  0  0
   -6.2598   -3.2329   -0.2920 H   0  0  0  0  0  0  0  0  0  0  0  0
   -6.5486   -1.4250    1.1956 H   0  0  0  0  0  0  0  0  0  0  0  0
   -4.1983   -0.4774   -1.3472 H   0  0  0  0  0  0  0  0  0  0  0  0
   -1.9438   -1.1219    1.5925 H   0  0  0  0  0  0  0  0  0  0  0  0
    0.4236   -0.7834    1.4780 H   0  0  0  0  0  0  0  0  0  0  0  0
    2.5067   -1.5818    0.4355 H   0  0  0  0  0  0  0  0  0  0  0  0
    2.5686   -0.0268    1.3020 H   0  0  0  0  0  0  0  0  0  0  0  0
    4.4034   -0.9451   -0.9791 H   0  0  0  0  0  0  0  0  0  0  0  0
    4.8141   -0.8228    0.7421 H   0  0  0  0  0  0  0  0  0  0  0  0
    6.1915    0.6202   -1.6026 H   0  0  0  0  0  0  0  0  0  0  0  0
    6.2426    2.2283   -0.8843 H   0  0  0  0  0  0  0  0  0  0  0  0
    6.2176    2.0311    1.9339 H   0  0  0  0  0  0  0  0  0  0  0  0
    7.8576    1.3203    3.6460 H   0  0  0  0  0  0  0  0  0  0  0  0
    9.5793   -0.3792    3.0930 H   0  0  0  0  0  0  0  0  0  0  0  0
    9.6627   -1.3659    0.8168 H   0  0  0  0  0  0  0  0  0  0  0  0
    8.0365   -0.6653   -0.9025 H   0  0  0  0  0  0  0  0  0  0  0  0
    3.9168    1.1440   -2.2640 H   0  0  0  0  0  0  0  0  0  0  0  0
    3.9601    2.6957   -1.4173 H   0  0  0  0  0  0  0  0  0  0  0  0
    1.9803    2.1216   -0.0974 H   0  0  0  0  0  0  0  0  0  0  0  0
    1.6621    1.9038   -1.8243 H   0  0  0  0  0  0  0  0  0  0  0  0
    0.0838    0.4468   -2.6342 H   0  0  0  0  0  0  0  0  0  0  0  0
   -2.3286    0.1153   -2.5255 H   0  0  0  0  0  0  0  0  0  0  0  0
  1  2  2  0
  2  3  1  0
  2  4  1  0
  4  5  1  0
  5  6  1  0
  6  7  2  0
  7  8  1  0
  8  9  1  0
  9 10  1  0
 10 11  2  0
 10 12  1  0
 12 13  1  0
 13 14  2  0
 14 15  1  0
 15 16  2  0
 16 17  1  0
 17 18  1  0
 18 19  1  0
 19 20  1  0
 20 21  1  0
 21 22  1  0
 22 23  2  0
 23 24  1  0
 24 25  2  0
 25 26  1  0
 26 27  2  0
 20 28  1  0
 28 29  1  0
 16 30  1  0
 30 31  2  0
  9  4  1  0
 31 13  1  0
 29 17  1  0
 27 22  1  0
  3 32  1  0
  4 33  1  0
  5 34  1  0
  5 35  1  0
  6 36  1  0
  7 37  1  0
  8 38  1  0
  8 39  1  0
  9 40  1  0
 12 41  1  0
 14 42  1  0
 15 43  1  0
 18 44  1  0
 18 45  1  0
 19 46  1  0
 19 47  1  0
 21 48  1  0
 21 49  1  0
 23 50  1  0
 24 51  1  0
 25 52  1  0
 26 53  1  0
 27 54  1  0
 28 55  1  0
 28 56  1  0
 29 57  1  0
 29 58  1  0
 30 59  1  0
 31 60  1  0
M  END
$$$$
