
     RDKit          3D

 37 40  0  0  0  0  0  0  0  0999 V2000
    2.9212   -2.4580    0.6665 C   0  0  0  0  0  0  0  0  0  0  0  0
    3.2186   -1.0426    0.3206 C   0  0  0  0  0  0  0  0  0  0  0  0
    4.5079   -0.6680    0.3072 N   0  0  0  0  0  0  0  0  0  0  0  0
    4.4639    0.6471    0.0699 N   0  0  0  0  0  0  0  0  0  0  0  0
    5.6941    1.3957   -0.0086 C   0  0  0  0  0  0  0  0  0  0  0  0
    3.2010    1.1313   -0.0620 C   0  0  0  0  0  0  0  0  0  0  0  0
    2.3331    0.0623    0.0673 C   0  0  0  0  0  0  0  0  0  0  0  0
    0.9165    0.1192   -0.0108 N   0  0  0  0  0  0  0  0  0  0  0  0
    0.2717    1.3374    0.2604 C   0  0  0  0  0  0  0  0  0  0  0  0
    0.8141    2.4016    0.5579 O   0  0  0  0  0  0  0  0  0  0  0  0
   -1.2129    1.3442    0.2249 C   0  0  0  0  0  0  0  0  0  0  0  0
   -1.8905    2.5353    0.5232 C   0  0  0  0  0  0  0  0  0  0  0  0
   -3.2780    2.5673    0.5301 C   0  0  0  0  0  0  0  0  0  0  0  0
   -3.9961    1.4060    0.2508 C   0  0  0  0  0  0  0  0  0  0  0  0
   -3.3476    0.1859   -0.0470 C   0  0  0  0  0  0  0  0  0  0  0  0
   -4.0492   -1.0194   -0.3200 C   0  0  0  0  0  0  0  0  0  0  0  0
   -5.4543   -1.0867   -0.4184 N   0  0  0  0  0  0  0  0  0  0  0  0
   -3.3397   -2.1611   -0.7036 C   0  0  0  0  0  0  0  0  0  0  0  0
   -1.9500   -2.1564   -0.7359 C   0  0  0  0  0  0  0  0  0  0  0  0
   -1.2442   -0.9925   -0.4108 C   0  0  0  0  0  0  0  0  0  0  0  0
   -1.9233    0.1775   -0.0708 C   0  0  0  0  0  0  0  0  0  0  0  0
    0.2355   -1.0092   -0.4815 C   0  0  0  0  0  0  0  0  0  0  0  0
    0.7490   -1.9898   -1.0173 O   0  0  0  0  0  0  0  0  0  0  0  0
    1.9708   -2.5480    1.2008 H   0  0  0  0  0  0  0  0  0  0  0  0
    3.6946   -2.8680    1.3262 H   0  0  0  0  0  0  0  0  0  0  0  0
    2.8935   -3.0788   -0.2339 H   0  0  0  0  0  0  0  0  0  0  0  0
    6.2184    1.2989    0.9454 H   0  0  0  0  0  0  0  0  0  0  0  0
    5.4698    2.4469   -0.2057 H   0  0  0  0  0  0  0  0  0  0  0  0
    6.2968    0.9844   -0.8223 H   0  0  0  0  0  0  0  0  0  0  0  0
    3.0308    2.1808   -0.2563 H   0  0  0  0  0  0  0  0  0  0  0  0
   -1.3372    3.4442    0.7554 H   0  0  0  0  0  0  0  0  0  0  0  0
   -3.8011    3.4928    0.7593 H   0  0  0  0  0  0  0  0  0  0  0  0
   -5.0805    1.4736    0.2688 H   0  0  0  0  0  0  0  0  0  0  0  0
   -5.7562   -1.0186   -1.3887 H   0  0  0  0  0  0  0  0  0  0  0  0
   -5.9405   -0.4004    0.1477 H   0  0  0  0  0  0  0  0  0  0  0  0
   -3.8772   -3.0706   -0.9648 H   0  0  0  0  0  0  0  0  0  0  0  0
   -1.4227   -3.0644   -1.0240 H   0  0  0  0  0  0  0  0  0  0  0  0
  1  2  1  0
  2  3  2  0
  3  4  1  0
  4  5  1  0
  4  6  1  0
  6  7  2  0
  7  8  1  0
  8  9  1  0
  9 10  2  0
  9 11  1  0
 11 12  2  0
 12 13  1  0
 13 14  2  0
 14 15  1  0
 15 16  2  0
 16 17  1  0
 16 18  1  0
 18 19  2  0
 19 20  1  0
 20 21  2  0
 20 22  1  0
 22 23  2  0
  7  2  1  0
 22  8  1  0
 21 11  1  0
 21 15  1  0
  1 24  1  0
  1 25  1  0
  1 26  1  0
  5 27  1  0
  5 28  1  0
  5 29  1  0
  6 30  1  0
 12 31  1  0
 13 32  1  0
 14 33  1  0
 17 34  1  0
 17 35  1  0
 18 36  1  0
 19 37  1  0
M  END
$$$$
