
     RDKit          3D

 42 45  0  0  0  0  0  0  0  0999 V2000
   -2.7465    3.5827   -0.3396 C   0  0  0  0  0  0  0  0  0  0  0  0
   -1.7008    2.5658    0.0144 C   0  0  0  0  0  0  0  0  0  0  0  0
   -0.3693    2.9678    0.2300 C   0  0  0  0  0  0  0  0  0  0  0  0
    0.6300    2.0350    0.5314 C   0  0  0  0  0  0  0  0  0  0  0  0
    0.2851    0.6984    0.6195 C   0  0  0  0  0  0  0  0  0  0  0  0
   -1.0317    0.2870    0.3636 C   0  0  0  0  0  0  0  0  0  0  0  0
   -2.0304    1.2058    0.0711 C   0  0  0  0  0  0  0  0  0  0  0  0
   -1.1482   -1.2064    0.5388 C   0  0  0  0  0  0  0  0  0  0  0  0
   -2.1100   -1.9884   -0.3581 C   0  0  0  0  0  0  0  0  0  0  0  0
   -1.6274   -2.1703   -1.7331 N   0  0  0  0  0  0  0  0  0  0  0  0
   -2.6019   -2.9216   -2.5249 C   0  0  0  0  0  0  0  0  0  0  0  0
   -0.3277   -2.8495   -1.7368 C   0  0  0  0  0  0  0  0  0  0  0  0
    0.7176   -1.9772   -1.0576 C   0  0  0  0  0  0  0  0  0  0  0  0
    0.3311   -1.6179    0.3877 C   0  0  0  0  0  0  0  0  0  0  0  0
    1.0962   -0.4344    0.8507 N   0  0  0  0  0  0  0  0  0  0  0  0
    2.4284   -0.5391    1.2322 C   0  0  0  0  0  0  0  0  0  0  0  0
    3.0659   -1.5640    0.9717 O   0  0  0  0  0  0  0  0  0  0  0  0
    3.0449    0.5268    2.0002 C   0  0  0  0  0  0  0  0  0  0  0  0
    4.3764    0.8842    2.1244 C   0  0  0  0  0  0  0  0  0  0  0  0
    4.4329    1.9449    3.0607 C   0  0  0  0  0  0  0  0  0  0  0  0
    3.1394    2.1542    3.4775 C   0  0  0  0  0  0  0  0  0  0  0  0
    2.5894    3.4582    4.7474 Br  0  0  0  0  0  0  0  0  0  0  0  0
    2.2953    1.2908    2.8552 O   0  0  0  0  0  0  0  0  0  0  0  0
   -2.5313    4.5454    0.1358 H   0  0  0  0  0  0  0  0  0  0  0  0
   -3.7350    3.2636    0.0071 H   0  0  0  0  0  0  0  0  0  0  0  0
   -2.7798    3.7226   -1.4244 H   0  0  0  0  0  0  0  0  0  0  0  0
   -0.1007    4.0198    0.1548 H   0  0  0  0  0  0  0  0  0  0  0  0
    1.6479    2.3824    0.6538 H   0  0  0  0  0  0  0  0  0  0  0  0
   -3.0494    0.8788   -0.1108 H   0  0  0  0  0  0  0  0  0  0  0  0
   -1.4550   -1.3617    1.5835 H   0  0  0  0  0  0  0  0  0  0  0  0
   -3.0842   -1.4853   -0.3727 H   0  0  0  0  0  0  0  0  0  0  0  0
   -2.2763   -2.9735    0.1004 H   0  0  0  0  0  0  0  0  0  0  0  0
   -3.5624   -2.3951   -2.5531 H   0  0  0  0  0  0  0  0  0  0  0  0
   -2.7712   -3.9287   -2.1272 H   0  0  0  0  0  0  0  0  0  0  0  0
   -2.2649   -3.0129   -3.5635 H   0  0  0  0  0  0  0  0  0  0  0  0
   -0.0014   -3.0268   -2.7691 H   0  0  0  0  0  0  0  0  0  0  0  0
   -0.3861   -3.8278   -1.2421 H   0  0  0  0  0  0  0  0  0  0  0  0
    1.6843   -2.4945   -1.0661 H   0  0  0  0  0  0  0  0  0  0  0  0
    0.8623   -1.0660   -1.6543 H   0  0  0  0  0  0  0  0  0  0  0  0
    0.5548   -2.4719    1.0399 H   0  0  0  0  0  0  0  0  0  0  0  0
    5.1996    0.4205    1.5971 H   0  0  0  0  0  0  0  0  0  0  0  0
    5.3102    2.4782    3.3988 H   0  0  0  0  0  0  0  0  0  0  0  0
  1  2  1  0
  2  3  2  0
  3  4  1  0
  4  5  2  0
  5  6  1  0
  6  7  2  0
  6  8  1  0
  8  9  1  0
  9 10  1  0
 10 11  1  0
 10 12  1  0
 12 13  1  0
 13 14  1  0
 14 15  1  0
 15 16  1  0
 16 17  2  0
 16 18  1  0
 18 19  2  0
 19 20  1  0
 20 21  2  0
 21 22  1  0
 21 23  1  0
  7  2  1  0
 14  8  1  0
 23 18  1  0
 15  5  1  0
  1 24  1  0
  1 25  1  0
  1 26  1  0
  3 27  1  0
  4 28  1  0
  7 29  1  0
  8 30  1  0
  9 31  1  0
  9 32  1  0
 11 33  1  0
 11 34  1  0
 11 35  1  0
 12 36  1  0
 12 37  1  0
 13 38  1  0
 13 39  1  0
 14 40  1  0
 19 41  1  0
 20 42  1  0
M  END
$$$$
