
     RDKit          3D

 33 35  0  0  0  0  0  0  0  0999 V2000
    4.3057   -1.6848    1.5248 O   0  0  0  0  0  0  0  0  0  0  0  0
    4.5306   -1.1649    0.2158 C   0  0  0  0  0  0  0  0  0  0  0  0
    3.6058    0.0294   -0.0254 C   0  0  0  0  0  0  0  0  0  0  0  0
    2.2209   -0.4308    0.1407 N   0  0  0  0  0  0  0  0  0  0  0  0
    1.2730    0.3982   -0.1400 C   0  0  0  0  0  0  0  0  0  0  0  0
    1.4322    1.8349   -0.6392 C   0  0  0  0  0  0  0  0  0  0  0  0
    0.2289    2.7214   -0.2697 C   0  0  0  0  0  0  0  0  0  0  0  0
   -1.1142    2.1212   -0.7210 C   0  0  0  0  0  0  0  0  0  0  0  0
   -1.2084    0.6961   -0.2943 C   0  0  0  0  0  0  0  0  0  0  0  0
   -0.0865   -0.0670   -0.0358 C   0  0  0  0  0  0  0  0  0  0  0  0
   -0.5023   -1.3179    0.3290 N   0  0  0  0  0  0  0  0  0  0  0  0
   -1.8778   -1.3851    0.3080 C   0  0  0  0  0  0  0  0  0  0  0  0
   -2.7308   -2.4555    0.6023 C   0  0  0  0  0  0  0  0  0  0  0  0
   -4.1072   -2.2340    0.4933 C   0  0  0  0  0  0  0  0  0  0  0  0
   -4.6000   -0.9904    0.1051 C   0  0  0  0  0  0  0  0  0  0  0  0
   -6.3025   -0.7545   -0.0190 Cl  0  0  0  0  0  0  0  0  0  0  0  0
   -3.7394    0.0723   -0.1867 C   0  0  0  0  0  0  0  0  0  0  0  0
   -2.3490   -0.1279   -0.0830 C   0  0  0  0  0  0  0  0  0  0  0  0
    3.3333   -1.6770    1.6257 H   0  0  0  0  0  0  0  0  0  0  0  0
    5.5800   -0.8674    0.1368 H   0  0  0  0  0  0  0  0  0  0  0  0
    4.3358   -1.9652   -0.5053 H   0  0  0  0  0  0  0  0  0  0  0  0
    3.8252    0.8027    0.7195 H   0  0  0  0  0  0  0  0  0  0  0  0
    3.7791    0.4225   -1.0328 H   0  0  0  0  0  0  0  0  0  0  0  0
    2.3371    2.2853   -0.2217 H   0  0  0  0  0  0  0  0  0  0  0  0
    1.5483    1.7968   -1.7288 H   0  0  0  0  0  0  0  0  0  0  0  0
    0.3529    3.7171   -0.7102 H   0  0  0  0  0  0  0  0  0  0  0  0
    0.2118    2.8526    0.8206 H   0  0  0  0  0  0  0  0  0  0  0  0
   -1.1944    2.1745   -1.8132 H   0  0  0  0  0  0  0  0  0  0  0  0
   -1.9376    2.7068   -0.2976 H   0  0  0  0  0  0  0  0  0  0  0  0
    0.1230   -2.0752    0.5701 H   0  0  0  0  0  0  0  0  0  0  0  0
   -2.3446   -3.4239    0.9043 H   0  0  0  0  0  0  0  0  0  0  0  0
   -4.7943   -3.0470    0.7157 H   0  0  0  0  0  0  0  0  0  0  0  0
   -4.1345    1.0370   -0.4883 H   0  0  0  0  0  0  0  0  0  0  0  0
  1  2  1  0
  2  3  1  0
  3  4  1  0
  4  5  2  3
  5  6  1  0
  6  7  1  0
  7  8  1  0
  8  9  1  0
  9 10  2  0
 10 11  1  0
 11 12  1  0
 12 13  2  0
 13 14  1  0
 14 15  2  0
 15 16  1  0
 15 17  1  0
 17 18  2  0
 10  5  1  0
 18 12  1  0
 18  9  1  0
  1 19  1  0
  2 20  1  0
  2 21  1  0
  3 22  1  0
  3 23  1  0
  6 24  1  0
  6 25  1  0
  7 26  1  0
  7 27  1  0
  8 28  1  0
  8 29  1  0
 11 30  1  0
 13 31  1  0
 14 32  1  0
 17 33  1  0
M  END
$$$$
