
     RDKit          3D

 45 48  0  0  0  0  0  0  0  0999 V2000
   -0.1365   -0.5005   -4.4092 O   0  0  0  0  0  0  0  0  0  0  0  0
    0.7691   -1.2183   -4.0397 C   0  0  0  0  0  0  0  0  0  0  0  0
    1.6383   -1.7553   -4.9149 O   0  0  0  0  0  0  0  0  0  0  0  0
    1.1323   -1.6423   -2.6780 C   0  0  0  0  0  0  0  0  0  0  0  0
    0.4750   -1.4020   -1.5327 C   0  0  0  0  0  0  0  0  0  0  0  0
   -0.7609   -0.7312   -1.3053 C   0  0  0  0  0  0  0  0  0  0  0  0
   -1.8978   -0.8111   -2.0741 C   0  0  0  0  0  0  0  0  0  0  0  0
   -2.8547   -0.0201   -1.4766 N   0  0  0  0  0  0  0  0  0  0  0  0
   -4.1777    0.2482   -1.9310 C   0  0  0  0  0  0  0  0  0  0  0  0
   -5.0283    1.0445   -1.1476 C   0  0  0  0  0  0  0  0  0  0  0  0
   -6.3298    1.3179   -1.5743 C   0  0  0  0  0  0  0  0  0  0  0  0
   -6.7905    0.8026   -2.7837 C   0  0  0  0  0  0  0  0  0  0  0  0
   -5.9510    0.0148   -3.5696 C   0  0  0  0  0  0  0  0  0  0  0  0
   -4.6470   -0.2639   -3.1488 C   0  0  0  0  0  0  0  0  0  0  0  0
   -2.4002    0.5085   -0.3107 N   0  0  0  0  0  0  0  0  0  0  0  0
   -1.1331    0.0899   -0.2150 C   0  0  0  0  0  0  0  0  0  0  0  0
   -0.2308    0.5073    0.9962 C   0  0  0  0  0  0  0  0  0  0  0  0
   -0.6244    1.3064    2.0501 C   0  0  0  0  0  0  0  0  0  0  0  0
    0.4934    1.4271    2.9108 C   0  0  0  0  0  0  0  0  0  0  0  0
    1.5165    0.6983    2.3367 C   0  0  0  0  0  0  0  0  0  0  0  0
    2.9032    0.4163    2.7028 C   0  0  0  0  0  0  0  0  0  0  0  0
    3.7645   -0.2604    1.8220 C   0  0  0  0  0  0  0  0  0  0  0  0
    5.0928   -0.5295    2.1712 C   0  0  0  0  0  0  0  0  0  0  0  0
    5.5734   -0.1182    3.4186 C   0  0  0  0  0  0  0  0  0  0  0  0
    6.9653   -0.3973    3.7928 N   0  0  0  0  0  4  0  0  0  0  0  0
    7.6710   -1.0060    2.9758 O   0  0  0  0  0  0  0  0  0  0  0  0
    7.3524   -0.0084    4.9040 O   0  0  0  0  0  1  0  0  0  0  0  0
    4.7350    0.5579    4.3118 C   0  0  0  0  0  0  0  0  0  0  0  0
    3.4083    0.8211    3.9495 C   0  0  0  0  0  0  0  0  0  0  0  0
    1.0725    0.1367    1.1724 O   0  0  0  0  0  0  0  0  0  0  0  0
    1.3335   -1.4136   -5.7815 H   0  0  0  0  0  0  0  0  0  0  0  0
    2.0705   -2.1879   -2.6222 H   0  0  0  0  0  0  0  0  0  0  0  0
    0.9673   -1.7639   -0.6294 H   0  0  0  0  0  0  0  0  0  0  0  0
   -2.0964   -1.3495   -2.9873 H   0  0  0  0  0  0  0  0  0  0  0  0
   -4.6911    1.4592   -0.1995 H   0  0  0  0  0  0  0  0  0  0  0  0
   -6.9818    1.9348   -0.9612 H   0  0  0  0  0  0  0  0  0  0  0  0
   -7.8030    1.0175   -3.1155 H   0  0  0  0  0  0  0  0  0  0  0  0
   -6.3110   -0.3816   -4.5160 H   0  0  0  0  0  0  0  0  0  0  0  0
   -4.0256   -0.8723   -3.7985 H   0  0  0  0  0  0  0  0  0  0  0  0
   -1.6054    1.7453    2.1720 H   0  0  0  0  0  0  0  0  0  0  0  0
    0.5402    1.9858    3.8345 H   0  0  0  0  0  0  0  0  0  0  0  0
    3.4071   -0.5827    0.8453 H   0  0  0  0  0  0  0  0  0  0  0  0
    5.7302   -1.0545    1.4626 H   0  0  0  0  0  0  0  0  0  0  0  0
    5.0922    0.8849    5.2864 H   0  0  0  0  0  0  0  0  0  0  0  0
    2.7730    1.3456    4.6605 H   0  0  0  0  0  0  0  0  0  0  0  0
  1  2  2  0
  2  3  1  0
  2  4  1  0
  4  5  2  3
  5  6  1  0
  6  7  2  0
  7  8  1  0
  8  9  1  0
  9 10  2  0
 10 11  1  0
 11 12  2  0
 12 13  1  0
 13 14  2  0
  8 15  1  0
 15 16  2  0
 16 17  1  0
 17 18  2  0
 18 19  1  0
 19 20  2  0
 20 21  1  0
 21 22  2  0
 22 23  1  0
 23 24  2  0
 24 25  1  0
 25 26  2  0
 25 27  1  0
 24 28  1  0
 28 29  2  0
 20 30  1  0
 16  6  1  0
 30 17  1  0
 14  9  1  0
 29 21  1  0
  3 31  1  0
  4 32  1  0
  5 33  1  0
  7 34  1  0
 10 35  1  0
 11 36  1  0
 12 37  1  0
 13 38  1  0
 14 39  1  0
 18 40  1  0
 19 41  1  0
 22 42  1  0
 23 43  1  0
 28 44  1  0
 29 45  1  0
M  CHG  2  25   1  27  -1
M  END
$$$$
