
     RDKit          3D

 48 50  0  0  0  0  0  0  0  0999 V2000
   -2.5126   -0.9559    0.2538 O   0  0  0  0  0  0  0  0  0  0  0  0
   -2.6688    0.1281    0.8092 C   0  0  0  0  0  0  0  0  0  0  0  0
   -1.5855    0.8565    1.5759 C   0  0  0  0  0  0  0  0  0  0  0  0
   -0.2529    0.1091    1.6050 C   0  0  0  0  0  0  0  0  0  0  0  0
    0.4463    0.0884    0.2398 C   0  0  0  0  0  0  0  0  0  0  0  0
    1.8200   -0.4074    0.3486 N   0  0  0  0  0  0  0  0  0  0  0  0
    2.8199    0.4918    0.6797 C   0  0  0  0  0  0  0  0  0  0  0  0
    2.6686    1.6852    0.9060 O   0  0  0  0  0  0  0  0  0  0  0  0
    4.1320   -0.1996    0.7531 C   0  0  0  0  0  0  0  0  0  0  0  0
    5.2662    0.4614    1.0184 C   0  0  0  0  0  0  0  0  0  0  0  0
    6.5983   -0.1531    1.0899 C   0  0  0  0  0  0  0  0  0  0  0  0
    7.0517   -0.6169    2.3334 C   0  0  0  0  0  0  0  0  0  0  0  0
    8.3073   -1.2173    2.4508 C   0  0  0  0  0  0  0  0  0  0  0  0
    9.1215   -1.3601    1.3290 C   0  0  0  0  0  0  0  0  0  0  0  0
    8.6822   -0.9021    0.0866 C   0  0  0  0  0  0  0  0  0  0  0  0
    7.4262   -0.3008   -0.0351 C   0  0  0  0  0  0  0  0  0  0  0  0
    6.9409    0.2515   -1.6008 Cl  0  0  0  0  0  0  0  0  0  0  0  0
    3.9359   -1.8779    0.4541 S   0  0  0  0  0  0  0  0  0  0  0  0
    2.1984   -1.7273    0.2100 C   0  0  0  0  0  0  0  0  0  0  0  0
    1.2405   -3.0494   -0.1289 S   0  0  0  0  0  0  0  0  0  0  0  0
   -3.8737    0.8051    0.7966 N   0  0  0  0  0  0  0  0  0  0  0  0
   -4.8529    0.3297   -0.0988 N   0  0  0  0  0  0  0  0  0  0  0  0
   -5.4885    1.2795   -0.8782 C   0  0  0  0  0  0  0  0  0  0  0  0
   -5.3498    2.4855   -0.6856 O   0  0  0  0  0  0  0  0  0  0  0  0
   -6.3294    0.7741   -1.9992 C   0  0  0  0  0  0  0  0  0  0  0  0
   -6.6209    1.6492   -3.0556 C   0  0  0  0  0  0  0  0  0  0  0  0
   -7.4076    1.2232   -4.1293 C   0  0  0  0  0  0  0  0  0  0  0  0
   -7.9108   -0.0759   -4.1447 C   0  0  0  0  0  0  0  0  0  0  0  0
   -8.8807   -0.6018   -5.4641 Cl  0  0  0  0  0  0  0  0  0  0  0  0
   -7.6386   -0.9507   -3.0935 C   0  0  0  0  0  0  0  0  0  0  0  0
   -6.8510   -0.5273   -2.0174 C   0  0  0  0  0  0  0  0  0  0  0  0
   -1.9404    0.9844    2.6056 H   0  0  0  0  0  0  0  0  0  0  0  0
   -1.4521    1.8533    1.1400 H   0  0  0  0  0  0  0  0  0  0  0  0
   -0.3982   -0.9164    1.9651 H   0  0  0  0  0  0  0  0  0  0  0  0
    0.3973    0.6036    2.3375 H   0  0  0  0  0  0  0  0  0  0  0  0
   -0.1079   -0.5215   -0.4785 H   0  0  0  0  0  0  0  0  0  0  0  0
    0.4815    1.1058   -0.1686 H   0  0  0  0  0  0  0  0  0  0  0  0
    5.2492    1.5373    1.1826 H   0  0  0  0  0  0  0  0  0  0  0  0
    6.4288   -0.5174    3.2201 H   0  0  0  0  0  0  0  0  0  0  0  0
    8.6488   -1.5759    3.4192 H   0  0  0  0  0  0  0  0  0  0  0  0
   10.0983   -1.8291    1.4210 H   0  0  0  0  0  0  0  0  0  0  0  0
    9.3228   -1.0174   -0.7841 H   0  0  0  0  0  0  0  0  0  0  0  0
   -3.9006    1.8138    0.9548 H   0  0  0  0  0  0  0  0  0  0  0  0
   -4.6799   -0.6106   -0.4549 H   0  0  0  0  0  0  0  0  0  0  0  0
   -6.2341    2.6671   -3.0471 H   0  0  0  0  0  0  0  0  0  0  0  0
   -7.6242    1.9091   -4.9444 H   0  0  0  0  0  0  0  0  0  0  0  0
   -8.0423   -1.9605   -3.1022 H   0  0  0  0  0  0  0  0  0  0  0  0
   -6.6791   -1.2201   -1.1981 H   0  0  0  0  0  0  0  0  0  0  0  0
  1  2  2  0
  2  3  1  0
  3  4  1  0
  4  5  1  0
  5  6  1  0
  6  7  1  0
  7  8  2  0
  7  9  1  0
  9 10  2  3
 10 11  1  0
 11 12  2  0
 12 13  1  0
 13 14  2  0
 14 15  1  0
 15 16  2  0
 16 17  1  0
  9 18  1  0
 18 19  1  0
 19 20  2  0
  2 21  1  0
 21 22  1  0
 22 23  1  0
 23 24  2  0
 23 25  1  0
 25 26  2  0
 26 27  1  0
 27 28  2  0
 28 29  1  0
 28 30  1  0
 30 31  2  0
 19  6  1  0
 31 25  1  0
 16 11  1  0
  3 32  1  0
  3 33  1  0
  4 34  1  0
  4 35  1  0
  5 36  1  0
  5 37  1  0
 10 38  1  0
 12 39  1  0
 13 40  1  0
 14 41  1  0
 15 42  1  0
 21 43  1  0
 22 44  1  0
 26 45  1  0
 27 46  1  0
 30 47  1  0
 31 48  1  0
M  END
$$$$
