
     RDKit          3D

 39 41  0  0  0  0  0  0  0  0999 V2000
   -4.9150    0.4226   -2.7075 C   0  0  0  0  0  0  0  0  0  0  0  0
   -4.1888    0.1965   -1.4156 C   0  0  0  0  0  0  0  0  0  0  0  0
   -2.8190    0.3630   -1.3454 C   0  0  0  0  0  0  0  0  0  0  0  0
   -2.1977    0.1482   -0.1144 C   0  0  0  0  0  0  0  0  0  0  0  0
   -0.7296    0.3191   -0.0510 C   0  0  0  0  0  0  0  0  0  0  0  0
   -0.2668    1.2223    0.6339 O   0  0  0  0  0  0  0  0  0  0  0  0
   -0.0325   -0.5997   -0.8252 N   0  0  0  0  0  0  0  0  0  0  0  0
    1.3118   -0.5833   -1.0875 N   0  0  0  0  0  0  0  0  0  0  0  0
    2.1130   -0.0854   -0.2002 C   0  0  0  0  0  0  0  0  0  0  0  0
    3.5683    0.0122   -0.4457 C   0  0  0  0  0  0  0  0  0  0  0  0
    4.1232   -0.4207   -1.6561 C   0  0  0  0  0  0  0  0  0  0  0  0
    5.4991   -0.3204   -1.8729 C   0  0  0  0  0  0  0  0  0  0  0  0
    6.3250    0.2121   -0.8819 C   0  0  0  0  0  0  0  0  0  0  0  0
    5.7632    0.6446    0.3283 C   0  0  0  0  0  0  0  0  0  0  0  0
    6.6322    1.2023    1.3720 N   0  0  0  0  0  4  0  0  0  0  0  0
    7.8371    1.3286    1.1127 O   0  0  0  0  0  0  0  0  0  0  0  0
    6.1086    1.5106    2.4518 O   0  0  0  0  0  1  0  0  0  0  0  0
    4.3833    0.5488    0.5546 C   0  0  0  0  0  0  0  0  0  0  0  0
   -2.9404   -0.2095    1.0303 C   0  0  0  0  0  0  0  0  0  0  0  0
   -2.3886   -0.4331    2.3170 C   0  0  0  0  0  0  0  0  0  0  0  0
   -3.1979   -0.7960    3.3916 C   0  0  0  0  0  0  0  0  0  0  0  0
   -4.5639   -0.9421    3.1980 C   0  0  0  0  0  0  0  0  0  0  0  0
   -5.1107   -0.7224    1.9314 C   0  0  0  0  0  0  0  0  0  0  0  0
   -4.3272   -0.3586    0.8441 C   0  0  0  0  0  0  0  0  0  0  0  0
   -4.9286   -0.1682   -0.3446 N   0  0  0  0  0  0  0  0  0  0  0  0
   -4.5393   -0.2591   -3.4769 H   0  0  0  0  0  0  0  0  0  0  0  0
   -4.7771    1.4552   -3.0429 H   0  0  0  0  0  0  0  0  0  0  0  0
   -5.9883    0.2433   -2.5881 H   0  0  0  0  0  0  0  0  0  0  0  0
   -2.2505    0.6707   -2.2173 H   0  0  0  0  0  0  0  0  0  0  0  0
   -0.5566   -1.2095   -1.4463 H   0  0  0  0  0  0  0  0  0  0  0  0
    1.7753    0.2618    0.7901 H   0  0  0  0  0  0  0  0  0  0  0  0
    3.4872   -0.8362   -2.4356 H   0  0  0  0  0  0  0  0  0  0  0  0
    5.9253   -0.6576   -2.8155 H   0  0  0  0  0  0  0  0  0  0  0  0
    7.3955    0.2831   -1.0664 H   0  0  0  0  0  0  0  0  0  0  0  0
    3.9454    0.8882    1.4911 H   0  0  0  0  0  0  0  0  0  0  0  0
   -1.3207   -0.3141    2.4920 H   0  0  0  0  0  0  0  0  0  0  0  0
   -2.7619   -0.9582    4.3741 H   0  0  0  0  0  0  0  0  0  0  0  0
   -5.2090   -1.2224    4.0266 H   0  0  0  0  0  0  0  0  0  0  0  0
   -6.1832   -0.8368    1.7882 H   0  0  0  0  0  0  0  0  0  0  0  0
  1  2  1  0
  2  3  2  0
  3  4  1  0
  4  5  1  0
  5  6  2  0
  5  7  1  0
  7  8  1  0
  8  9  2  3
  9 10  1  0
 10 11  2  0
 11 12  1  0
 12 13  2  0
 13 14  1  0
 14 15  1  0
 15 16  2  0
 15 17  1  0
 14 18  2  0
  4 19  2  0
 19 20  1  0
 20 21  2  0
 21 22  1  0
 22 23  2  0
 23 24  1  0
 24 25  2  0
 25  2  1  0
 18 10  1  0
 24 19  1  0
  1 26  1  0
  1 27  1  0
  1 28  1  0
  3 29  1  0
  7 30  1  0
  9 31  1  0
 11 32  1  0
 12 33  1  0
 13 34  1  0
 18 35  1  0
 20 36  1  0
 21 37  1  0
 22 38  1  0
 23 39  1  0
M  CHG  2  15   1  17  -1
M  END
$$$$
