
     RDKit          3D

 57 59  0  0  0  0  0  0  0  0999 V2000
    0.3625    4.7269   -1.6022 C   0  0  0  0  0  0  0  0  0  0  0  0
    0.4824    3.4750   -0.9360 O   0  0  0  0  0  0  0  0  0  0  0  0
   -0.6646    2.9433   -0.3893 C   0  0  0  0  0  0  0  0  0  0  0  0
   -1.9318    3.5285   -0.4693 C   0  0  0  0  0  0  0  0  0  0  0  0
   -3.0299    2.8968    0.1158 C   0  0  0  0  0  0  0  0  0  0  0  0
   -2.8574    1.6796    0.7803 C   0  0  0  0  0  0  0  0  0  0  0  0
   -4.2695    0.9167    1.5447 S   0  0  0  0  0  6  0  0  0  0  0  0
   -3.8235   -0.1472    2.4172 O   0  0  0  0  0  0  0  0  0  0  0  0
   -5.1103    1.9862    2.0434 O   0  0  0  0  0  0  0  0  0  0  0  0
   -5.0638    0.1988    0.2115 N   0  0  0  0  0  0  0  0  0  0  0  0
   -4.3309   -0.9065   -0.4737 C   0  0  0  0  0  0  0  0  0  0  0  0
   -5.0169   -2.2515   -0.2768 C   0  0  0  0  0  0  0  0  0  0  0  0
   -6.4466   -2.2431   -0.8126 C   0  0  0  0  0  0  0  0  0  0  0  0
   -7.1052   -0.8715   -0.6852 C   0  0  0  0  0  0  0  0  0  0  0  0
   -6.5063   -0.0720    0.4647 C   0  0  0  0  0  0  0  0  0  0  0  0
   -1.5948    1.0894    0.8821 C   0  0  0  0  0  0  0  0  0  0  0  0
   -0.4960    1.7115    0.2870 C   0  0  0  0  0  0  0  0  0  0  0  0
    0.8125    1.1773    0.3081 N   0  0  0  0  0  0  0  0  0  0  0  0
    1.2453   -0.0034    0.8743 C   0  0  0  0  0  0  0  0  0  0  0  0
    0.5636   -0.7989    1.5091 O   0  0  0  0  0  0  0  0  0  0  0  0
    2.6984   -0.2932    0.6983 C   0  0  0  0  0  0  0  0  0  0  0  0
    3.3655   -0.9942    1.7092 C   0  0  0  0  0  0  0  0  0  0  0  0
    4.7259   -1.2871    1.5854 C   0  0  0  0  0  0  0  0  0  0  0  0
    5.4381   -0.8891    0.4456 C   0  0  0  0  0  0  0  0  0  0  0  0
    6.9037   -1.2095    0.3093 C   0  0  0  0  0  0  0  0  0  0  0  0
    7.1013   -2.7828   -0.5222 S   0  0  0  0  0  6  0  0  0  0  0  0
    8.8678   -2.9454   -0.5933 C   0  0  0  0  0  0  0  0  0  0  0  0
    6.6369   -2.6565   -1.8921 O   0  0  0  0  0  0  0  0  0  0  0  0
    6.6176   -3.8406    0.3451 O   0  0  0  0  0  0  0  0  0  0  0  0
    4.7591   -0.2082   -0.5763 C   0  0  0  0  0  0  0  0  0  0  0  0
    3.3978    0.0858   -0.4543 C   0  0  0  0  0  0  0  0  0  0  0  0
    1.3561    5.0102   -1.9647 H   0  0  0  0  0  0  0  0  0  0  0  0
    0.0243    5.5095   -0.9151 H   0  0  0  0  0  0  0  0  0  0  0  0
   -0.2961    4.6467   -2.4728 H   0  0  0  0  0  0  0  0  0  0  0  0
   -2.1009    4.4722   -0.9770 H   0  0  0  0  0  0  0  0  0  0  0  0
   -4.0152    3.3556    0.0556 H   0  0  0  0  0  0  0  0  0  0  0  0
   -3.2986   -0.9831   -0.1219 H   0  0  0  0  0  0  0  0  0  0  0  0
   -4.2757   -0.6592   -1.5405 H   0  0  0  0  0  0  0  0  0  0  0  0
   -4.4447   -3.0455   -0.7699 H   0  0  0  0  0  0  0  0  0  0  0  0
   -5.0330   -2.4968    0.7931 H   0  0  0  0  0  0  0  0  0  0  0  0
   -7.0330   -2.9939   -0.2691 H   0  0  0  0  0  0  0  0  0  0  0  0
   -6.4566   -2.5472   -1.8661 H   0  0  0  0  0  0  0  0  0  0  0  0
   -6.9684   -0.3174   -1.6229 H   0  0  0  0  0  0  0  0  0  0  0  0
   -8.1852   -0.9922   -0.5457 H   0  0  0  0  0  0  0  0  0  0  0  0
   -7.0358    0.8842    0.5392 H   0  0  0  0  0  0  0  0  0  0  0  0
   -6.6349   -0.6134    1.4092 H   0  0  0  0  0  0  0  0  0  0  0  0
   -1.4917    0.1536    1.4229 H   0  0  0  0  0  0  0  0  0  0  0  0
    1.4964    1.7857   -0.1292 H   0  0  0  0  0  0  0  0  0  0  0  0
    2.8235   -1.3195    2.5957 H   0  0  0  0  0  0  0  0  0  0  0  0
    5.2170   -1.8449    2.3813 H   0  0  0  0  0  0  0  0  0  0  0  0
    7.4188   -0.4449   -0.2803 H   0  0  0  0  0  0  0  0  0  0  0  0
    7.3848   -1.2804    1.2893 H   0  0  0  0  0  0  0  0  0  0  0  0
    9.2644   -2.9457    0.4232 H   0  0  0  0  0  0  0  0  0  0  0  0
    9.2764   -2.1123   -1.1678 H   0  0  0  0  0  0  0  0  0  0  0  0
    9.1038   -3.8900   -1.0870 H   0  0  0  0  0  0  0  0  0  0  0  0
    5.2800    0.0772   -1.4896 H   0  0  0  0  0  0  0  0  0  0  0  0
    2.8939    0.5766   -1.2831 H   0  0  0  0  0  0  0  0  0  0  0  0
  1  2  1  0
  2  3  1  0
  3  4  2  0
  4  5  1  0
  5  6  2  0
  6  7  1  0
  7  8  2  0
  7  9  2  0
  7 10  1  0
 10 11  1  0
 11 12  1  0
 12 13  1  0
 13 14  1  0
 14 15  1  0
  6 16  1  0
 16 17  2  0
 17 18  1  0
 18 19  1  0
 19 20  2  0
 19 21  1  0
 21 22  2  0
 22 23  1  0
 23 24  2  0
 24 25  1  0
 25 26  1  0
 26 27  1  0
 26 28  2  0
 26 29  2  0
 24 30  1  0
 30 31  2  0
 17  3  1  0
 31 21  1  0
 15 10  1  0
  1 32  1  0
  1 33  1  0
  1 34  1  0
  4 35  1  0
  5 36  1  0
 11 37  1  0
 11 38  1  0
 12 39  1  0
 12 40  1  0
 13 41  1  0
 13 42  1  0
 14 43  1  0
 14 44  1  0
 15 45  1  0
 15 46  1  0
 16 47  1  0
 18 48  1  0
 22 49  1  0
 23 50  1  0
 25 51  1  0
 25 52  1  0
 27 53  1  0
 27 54  1  0
 27 55  1  0
 30 56  1  0
 31 57  1  0
M  END
$$$$
