
     RDKit          3D

 44 46  0  0  0  0  0  0  0  0999 V2000
    0.6100    0.4783   -0.5379 O   0  0  0  0  0  0  0  0  0  0  0  0
    0.8055   -0.6377   -1.0181 C   0  0  0  0  0  0  0  0  0  0  0  0
   -0.2356   -1.7574   -1.0214 C   0  0  0  0  0  0  0  0  0  0  0  0
   -1.2911   -1.5647   -0.0809 O   0  0  0  0  0  0  0  0  0  0  0  0
   -0.9161   -1.7183    1.2191 C   0  0  0  0  0  0  0  0  0  0  0  0
    0.2023   -2.0792    1.5713 O   0  0  0  0  0  0  0  0  0  0  0  0
   -2.0574   -1.4744    2.2002 C   0  0  0  0  0  0  0  0  0  0  0  0
   -3.2950   -1.0335    1.5685 N   0  0  0  0  0  0  0  0  0  0  0  0
   -4.2003   -1.9592    1.1108 C   0  0  0  0  0  0  0  0  0  0  0  0
   -5.3073   -1.6797    0.5112 N   0  0  0  0  0  0  0  0  0  0  0  0
   -5.6065   -0.3251    0.3018 C   0  0  0  0  0  0  0  0  0  0  0  0
   -6.7967    0.0103   -0.3475 C   0  0  0  0  0  0  0  0  0  0  0  0
   -7.1294    1.3485   -0.5782 C   0  0  0  0  0  0  0  0  0  0  0  0
   -6.2710    2.3658   -0.1605 C   0  0  0  0  0  0  0  0  0  0  0  0
   -5.0796    2.0456    0.4890 C   0  0  0  0  0  0  0  0  0  0  0  0
   -4.7571    0.7027    0.7157 C   0  0  0  0  0  0  0  0  0  0  0  0
   -3.5067    0.3263    1.4017 C   0  0  0  0  0  0  0  0  0  0  0  0
   -2.7294    1.1914    1.7932 O   0  0  0  0  0  0  0  0  0  0  0  0
    1.9952   -0.9789   -1.6387 N   0  0  0  0  0  0  0  0  0  0  0  0
    3.0699   -0.0799   -1.4666 N   0  0  0  0  0  0  0  0  0  0  0  0
    4.3119   -0.6437   -1.2357 C   0  0  0  0  0  0  0  0  0  0  0  0
    4.5169   -1.8493   -1.3611 O   0  0  0  0  0  0  0  0  0  0  0  0
    5.3940    0.2769   -0.7886 C   0  0  0  0  0  0  0  0  0  0  0  0
    6.5001   -0.2735   -0.1254 C   0  0  0  0  0  0  0  0  0  0  0  0
    7.5425    0.5480    0.3117 C   0  0  0  0  0  0  0  0  0  0  0  0
    7.4830    1.9205    0.0788 C   0  0  0  0  0  0  0  0  0  0  0  0
    8.8924    3.0339    0.6671 Br  0  0  0  0  0  0  0  0  0  0  0  0
    6.3946    2.4783   -0.5912 C   0  0  0  0  0  0  0  0  0  0  0  0
    5.3500    1.6574   -1.0291 C   0  0  0  0  0  0  0  0  0  0  0  0
    0.2413   -2.7318   -0.8615 H   0  0  0  0  0  0  0  0  0  0  0  0
   -0.6904   -1.7756   -2.0177 H   0  0  0  0  0  0  0  0  0  0  0  0
   -2.2482   -2.4200    2.7193 H   0  0  0  0  0  0  0  0  0  0  0  0
   -1.7238   -0.7246    2.9247 H   0  0  0  0  0  0  0  0  0  0  0  0
   -3.9202   -3.0096    1.2908 H   0  0  0  0  0  0  0  0  0  0  0  0
   -7.4679   -0.7794   -0.6756 H   0  0  0  0  0  0  0  0  0  0  0  0
   -8.0593    1.5949   -1.0853 H   0  0  0  0  0  0  0  0  0  0  0  0
   -6.5295    3.4064   -0.3413 H   0  0  0  0  0  0  0  0  0  0  0  0
   -4.4066    2.8352    0.8153 H   0  0  0  0  0  0  0  0  0  0  0  0
    2.2806   -1.9580   -1.7018 H   0  0  0  0  0  0  0  0  0  0  0  0
    2.8113    0.8110   -1.0405 H   0  0  0  0  0  0  0  0  0  0  0  0
    6.5521   -1.3458    0.0560 H   0  0  0  0  0  0  0  0  0  0  0  0
    8.3915    0.1073    0.8283 H   0  0  0  0  0  0  0  0  0  0  0  0
    6.3528    3.5479   -0.7831 H   0  0  0  0  0  0  0  0  0  0  0  0
    4.5272    2.1129   -1.5733 H   0  0  0  0  0  0  0  0  0  0  0  0
  1  2  2  0
  2  3  1  0
  3  4  1  0
  4  5  1  0
  5  6  2  0
  5  7  1  0
  7  8  1  0
  8  9  1  0
  9 10  2  0
 10 11  1  0
 11 12  2  0
 12 13  1  0
 13 14  2  0
 14 15  1  0
 15 16  2  0
 16 17  1  0
 17 18  2  0
  2 19  1  0
 19 20  1  0
 20 21  1  0
 21 22  2  0
 21 23  1  0
 23 24  2  0
 24 25  1  0
 25 26  2  0
 26 27  1  0
 26 28  1  0
 28 29  2  0
 17  8  1  0
 29 23  1  0
 16 11  1  0
  3 30  1  0
  3 31  1  0
  7 32  1  0
  7 33  1  0
  9 34  1  0
 12 35  1  0
 13 36  1  0
 14 37  1  0
 15 38  1  0
 19 39  1  0
 20 40  1  0
 24 41  1  0
 25 42  1  0
 28 43  1  0
 29 44  1  0
M  END
$$$$
