
     RDKit          3D

 67 71  0  0  0  0  0  0  0  0999 V2000
   -6.5543   -3.5526    2.7701 C   0  0  0  0  0  0  0  0  0  0  0  0
   -5.7904   -2.6888    3.6007 O   0  0  0  0  0  0  0  0  0  0  0  0
   -5.6784   -1.3658    3.0849 C   0  0  0  0  0  0  0  0  0  0  0  0
   -4.5000   -1.2801    2.1659 C   0  0  0  0  0  0  0  0  0  0  0  0
   -3.4076   -0.5375    2.4125 C   0  0  0  0  0  0  0  0  0  0  0  0
   -2.2585   -0.4470    1.5246 C   0  0  0  0  0  0  0  0  0  0  0  0
   -1.6107   -1.5895    1.1914 C   0  0  0  0  0  0  0  0  0  0  0  0
   -0.4220   -1.5335    0.3387 C   0  0  0  0  0  0  0  0  0  0  0  0
    0.2150   -2.6658    0.0098 C   0  0  0  0  0  0  0  0  0  0  0  0
    1.4291   -2.6670   -0.8356 C   0  0  0  0  0  0  0  0  0  0  0  0
    2.0087   -3.7411   -1.0171 O   0  0  0  0  0  0  0  0  0  0  0  0
    1.8993   -1.3680   -1.4943 C   0  0  0  0  0  0  0  0  0  0  0  0
    1.4845   -1.4508   -2.9715 C   0  0  0  0  0  0  0  0  0  0  0  0
    3.3380   -1.2928   -1.4993 O   0  0  0  0  0  0  0  0  0  0  0  0
    3.9068   -1.2117   -0.2651 C   0  0  0  0  0  0  0  0  0  0  0  0
    3.2762   -1.1878    0.7806 O   0  0  0  0  0  0  0  0  0  0  0  0
    5.3921   -1.1588   -0.3678 C   0  0  0  0  0  0  0  0  0  0  0  0
    6.0524   -1.2569   -1.5801 C   0  0  0  0  0  0  0  0  0  0  0  0
    7.4049   -1.2180   -1.6802 N   0  0  0  0  0  0  0  0  0  0  0  0
    8.0876   -1.0786   -0.5267 C   0  0  0  0  0  0  0  0  0  0  0  0
    9.4761   -1.0327   -0.5498 C   0  0  0  0  0  0  0  0  0  0  0  0
   10.2180   -0.8892    0.6236 C   0  0  0  0  0  0  0  0  0  0  0  0
    9.5605   -0.7891    1.8429 C   0  0  0  0  0  0  0  0  0  0  0  0
    8.1660   -0.8341    1.8792 C   0  0  0  0  0  0  0  0  0  0  0  0
    7.4162   -0.9772    0.7183 C   0  0  0  0  0  0  0  0  0  0  0  0
    6.0733   -1.0174    0.7995 N   0  0  0  0  0  0  0  0  0  0  0  0
    1.2762   -0.0875   -0.9384 C   0  0  0  0  0  0  0  0  0  0  0  0
    1.7405    1.0250   -1.2022 O   0  0  0  0  0  0  0  0  0  0  0  0
    0.0575   -0.2316   -0.1014 C   0  0  0  0  0  0  0  0  0  0  0  0
   -0.6388    0.8555    0.2735 C   0  0  0  0  0  0  0  0  0  0  0  0
   -1.8016    0.8155    1.0659 N   0  0  0  0  0  0  0  0  0  0  0  0
   -2.4951    2.0862    1.3689 C   0  0  0  0  0  0  0  0  0  0  0  0
   -3.2272    2.6351    0.1612 C   0  0  0  0  0  0  0  0  0  0  0  0
   -2.8458    3.8581   -0.4091 C   0  0  0  0  0  0  0  0  0  0  0  0
   -3.5323    4.3814   -1.5110 C   0  0  0  0  0  0  0  0  0  0  0  0
   -4.6120    3.6898   -2.0583 C   0  0  0  0  0  0  0  0  0  0  0  0
   -5.3681    4.0905   -3.1256 O   0  0  0  0  0  0  0  0  0  0  0  0
   -5.0228    5.3325   -3.7263 C   0  0  0  0  0  0  0  0  0  0  0  0
   -4.9931    2.4696   -1.4976 C   0  0  0  0  0  0  0  0  0  0  0  0
   -4.3096    1.9448   -0.3980 C   0  0  0  0  0  0  0  0  0  0  0  0
   -7.5719   -3.1691    2.6460 H   0  0  0  0  0  0  0  0  0  0  0  0
   -6.0766   -3.6791    1.7942 H   0  0  0  0  0  0  0  0  0  0  0  0
   -6.6108   -4.5305    3.2569 H   0  0  0  0  0  0  0  0  0  0  0  0
   -5.5464   -0.6991    3.9434 H   0  0  0  0  0  0  0  0  0  0  0  0
   -6.5970   -1.0583    2.5727 H   0  0  0  0  0  0  0  0  0  0  0  0
   -4.5657   -1.8517    1.2441 H   0  0  0  0  0  0  0  0  0  0  0  0
   -3.3401    0.0418    3.3314 H   0  0  0  0  0  0  0  0  0  0  0  0
   -1.9412   -2.5535    1.5673 H   0  0  0  0  0  0  0  0  0  0  0  0
   -0.1076   -3.6420    0.3553 H   0  0  0  0  0  0  0  0  0  0  0  0
    1.9318   -2.3256   -3.4579 H   0  0  0  0  0  0  0  0  0  0  0  0
    1.8330   -0.5728   -3.5283 H   0  0  0  0  0  0  0  0  0  0  0  0
    0.3966   -1.5167   -3.0861 H   0  0  0  0  0  0  0  0  0  0  0  0
    5.5291   -1.3736   -2.5224 H   0  0  0  0  0  0  0  0  0  0  0  0
    9.9906   -1.1102   -1.5048 H   0  0  0  0  0  0  0  0  0  0  0  0
   11.3040   -0.8555    0.5800 H   0  0  0  0  0  0  0  0  0  0  0  0
   10.1253   -0.6775    2.7654 H   0  0  0  0  0  0  0  0  0  0  0  0
    7.6507   -0.7573    2.8336 H   0  0  0  0  0  0  0  0  0  0  0  0
   -0.3345    1.8565   -0.0246 H   0  0  0  0  0  0  0  0  0  0  0  0
   -1.7527    2.8154    1.7205 H   0  0  0  0  0  0  0  0  0  0  0  0
   -3.2093    1.9981    2.1942 H   0  0  0  0  0  0  0  0  0  0  0  0
   -2.0060    4.4174   -0.0010 H   0  0  0  0  0  0  0  0  0  0  0  0
   -3.1956    5.3294   -1.9164 H   0  0  0  0  0  0  0  0  0  0  0  0
   -5.7232    5.5126   -4.5474 H   0  0  0  0  0  0  0  0  0  0  0  0
   -5.1235    6.1588   -3.0152 H   0  0  0  0  0  0  0  0  0  0  0  0
   -4.0140    5.2973   -4.1506 H   0  0  0  0  0  0  0  0  0  0  0  0
   -5.8306    1.9213   -1.9220 H   0  0  0  0  0  0  0  0  0  0  0  0
   -4.6253    0.9906    0.0151 H   0  0  0  0  0  0  0  0  0  0  0  0
  1  2  1  0
  2  3  1  0
  3  4  1  0
  4  5  2  3
  5  6  1  0
  6  7  2  0
  7  8  1  0
  8  9  2  0
  9 10  1  0
 10 11  2  0
 10 12  1  0
 12 13  1  0
 12 14  1  0
 14 15  1  0
 15 16  2  0
 15 17  1  0
 17 18  2  0
 18 19  1  0
 19 20  2  0
 20 21  1  0
 21 22  2  0
 22 23  1  0
 23 24  2  0
 24 25  1  0
 25 26  2  0
 12 27  1  0
 27 28  2  0
 27 29  1  0
 29 30  2  0
 30 31  1  0
 31 32  1  0
 32 33  1  0
 33 34  2  0
 34 35  1  0
 35 36  2  0
 36 37  1  0
 37 38  1  0
 36 39  1  0
 39 40  2  0
 31  6  1  0
 40 33  1  0
 29  8  1  0
 26 17  1  0
 25 20  1  0
  1 41  1  0
  1 42  1  0
  1 43  1  0
  3 44  1  0
  3 45  1  0
  4 46  1  0
  5 47  1  0
  7 48  1  0
  9 49  1  0
 13 50  1  0
 13 51  1  0
 13 52  1  0
 18 53  1  0
 21 54  1  0
 22 55  1  0
 23 56  1  0
 24 57  1  0
 30 58  1  0
 32 59  1  0
 32 60  1  0
 34 61  1  0
 35 62  1  0
 38 63  1  0
 38 64  1  0
 38 65  1  0
 39 66  1  0
 40 67  1  0
M  END
$$$$
