
     RDKit          3D

 74 78  0  0  0  0  0  0  0  0999 V2000
    0.8314   -4.4479    2.2583 C   0  0  0  0  0  0  0  0  0  0  0  0
    0.3270   -3.3244    3.1542 C   0  0  0  0  0  0  0  0  0  0  0  0
   -0.9408   -2.6999    2.6347 C   0  0  0  0  0  0  0  0  0  0  0  0
   -2.2904   -3.2374    3.0566 C   0  0  0  0  0  0  0  0  0  0  0  0
   -2.3373   -4.4274    3.9914 C   0  0  0  0  0  0  0  0  0  0  0  0
   -3.4407   -2.7497    2.6909 N   0  0  0  0  0  0  0  0  0  0  0  0
   -3.4145   -1.6727    1.8595 C   0  0  0  0  0  0  0  0  0  0  0  0
   -4.4326   -0.9400    1.2991 C   0  0  0  0  0  0  0  0  0  0  0  0
   -3.8145    0.0662    0.5189 C   0  0  0  0  0  0  0  0  0  0  0  0
   -4.4520    1.1163   -0.2893 C   0  0  0  0  0  0  0  0  0  0  0  0
   -5.8495    1.2367   -0.3567 C   0  0  0  0  0  0  0  0  0  0  0  0
   -6.4403    2.2378   -1.1327 C   0  0  0  0  0  0  0  0  0  0  0  0
   -7.7851    2.4517   -1.2783 O   0  0  0  0  0  0  0  0  0  0  0  0
   -8.6606    1.5817   -0.5726 C   0  0  0  0  0  0  0  0  0  0  0  0
   -5.6341    3.1298   -1.8468 C   0  0  0  0  0  0  0  0  0  0  0  0
   -4.2457    3.0304   -1.7915 C   0  0  0  0  0  0  0  0  0  0  0  0
   -3.3551    3.8414   -2.4403 O   0  0  0  0  0  0  0  0  0  0  0  0
   -3.8985    4.8979   -3.2229 C   0  0  0  0  0  0  0  0  0  0  0  0
   -3.6653    2.0250   -1.0151 C   0  0  0  0  0  0  0  0  0  0  0  0
   -2.4802   -0.0387    0.5919 N   0  0  0  0  0  0  0  0  0  0  0  0
   -2.2280   -1.0961    1.4140 N   0  0  0  0  0  0  0  0  0  0  0  0
   -0.9674   -1.6190    1.8181 C   0  0  0  0  0  0  0  0  0  0  0  0
    0.2259   -1.0149    1.3517 N   0  0  0  0  0  0  0  0  0  0  0  0
    0.5831   -1.2083   -0.0771 C   0  0  0  0  0  0  0  0  0  0  0  0
    2.0740   -0.8658   -0.3080 C   0  0  0  0  0  0  0  0  0  0  0  0
    2.4226    0.5136    0.1025 N   0  0  0  0  0  0  0  0  0  0  0  0
    3.8666    0.7948   -0.0245 C   0  0  0  0  0  0  0  0  0  0  0  0
    4.3888    0.7687   -1.4833 C   0  0  0  0  0  0  0  0  0  0  0  0
    5.7682    1.2717   -1.6303 N   0  0  0  0  0  0  0  0  0  0  0  0
    6.7431    0.4773   -0.8537 C   0  0  0  0  0  0  0  0  0  0  0  0
    8.1672    0.6036   -1.4180 C   0  0  0  0  0  0  0  0  0  0  0  0
    8.2835    0.0832   -2.7494 O   0  0  0  0  0  0  0  0  0  0  0  0
    7.0636    0.1765   -3.4970 C   0  0  0  0  0  0  0  0  0  0  0  0
    6.1707    1.3459   -3.0527 C   0  0  0  0  0  0  0  0  0  0  0  0
    1.9885    0.7303    1.5047 C   0  0  0  0  0  0  0  0  0  0  0  0
    0.4985    0.3941    1.7404 C   0  0  0  0  0  0  0  0  0  0  0  0
    1.7396   -4.8876    2.6834 H   0  0  0  0  0  0  0  0  0  0  0  0
    1.0777   -4.0790    1.2573 H   0  0  0  0  0  0  0  0  0  0  0  0
    0.0900   -5.2461    2.1510 H   0  0  0  0  0  0  0  0  0  0  0  0
    0.1845   -3.7005    4.1725 H   0  0  0  0  0  0  0  0  0  0  0  0
    1.1167   -2.5686    3.2456 H   0  0  0  0  0  0  0  0  0  0  0  0
   -1.7233   -5.2448    3.6071 H   0  0  0  0  0  0  0  0  0  0  0  0
   -1.9841   -4.1299    4.9824 H   0  0  0  0  0  0  0  0  0  0  0  0
   -3.3641   -4.7940    4.0865 H   0  0  0  0  0  0  0  0  0  0  0  0
   -5.4843   -1.1289    1.4494 H   0  0  0  0  0  0  0  0  0  0  0  0
   -6.4688    0.5436    0.1996 H   0  0  0  0  0  0  0  0  0  0  0  0
   -8.5400    0.5448   -0.9034 H   0  0  0  0  0  0  0  0  0  0  0  0
   -8.5178    1.6724    0.5089 H   0  0  0  0  0  0  0  0  0  0  0  0
   -9.6871    1.8850   -0.7995 H   0  0  0  0  0  0  0  0  0  0  0  0
   -6.1252    3.8949   -2.4393 H   0  0  0  0  0  0  0  0  0  0  0  0
   -4.5036    4.5065   -4.0477 H   0  0  0  0  0  0  0  0  0  0  0  0
   -4.4760    5.5931   -2.6031 H   0  0  0  0  0  0  0  0  0  0  0  0
   -3.0634    5.4553   -3.6588 H   0  0  0  0  0  0  0  0  0  0  0  0
   -2.5791    1.9560   -0.9789 H   0  0  0  0  0  0  0  0  0  0  0  0
   -0.0474   -0.5809   -0.7193 H   0  0  0  0  0  0  0  0  0  0  0  0
    0.4143   -2.2531   -0.3646 H   0  0  0  0  0  0  0  0  0  0  0  0
    2.2758   -0.9995   -1.3759 H   0  0  0  0  0  0  0  0  0  0  0  0
    2.6920   -1.5898    0.2402 H   0  0  0  0  0  0  0  0  0  0  0  0
    4.4406    0.0913    0.5920 H   0  0  0  0  0  0  0  0  0  0  0  0
    4.0578    1.8003    0.3731 H   0  0  0  0  0  0  0  0  0  0  0  0
    4.3217   -0.2471   -1.8911 H   0  0  0  0  0  0  0  0  0  0  0  0
    3.7214    1.4038   -2.0806 H   0  0  0  0  0  0  0  0  0  0  0  0
    6.4681   -0.5856   -0.8669 H   0  0  0  0  0  0  0  0  0  0  0  0
    6.7380    0.8176    0.1876 H   0  0  0  0  0  0  0  0  0  0  0  0
    8.4950    1.6500   -1.4269 H   0  0  0  0  0  0  0  0  0  0  0  0
    8.8700    0.0489   -0.7868 H   0  0  0  0  0  0  0  0  0  0  0  0
    7.3344    0.2896   -4.5515 H   0  0  0  0  0  0  0  0  0  0  0  0
    6.5323   -0.7770   -3.3980 H   0  0  0  0  0  0  0  0  0  0  0  0
    6.7369    2.2769   -3.1756 H   0  0  0  0  0  0  0  0  0  0  0  0
    5.3025    1.4281   -3.7169 H   0  0  0  0  0  0  0  0  0  0  0  0
    2.1456    1.7813    1.7754 H   0  0  0  0  0  0  0  0  0  0  0  0
    2.5982    0.1196    2.1848 H   0  0  0  0  0  0  0  0  0  0  0  0
   -0.1285    1.0858    1.1655 H   0  0  0  0  0  0  0  0  0  0  0  0
    0.2691    0.5354    2.8033 H   0  0  0  0  0  0  0  0  0  0  0  0
  1  2  1  0
  2  3  1  0
  3  4  1  0
  4  5  1  0
  4  6  2  0
  6  7  1  0
  7  8  2  0
  8  9  1  0
  9 10  1  0
 10 11  2  0
 11 12  1  0
 12 13  1  0
 13 14  1  0
 12 15  2  0
 15 16  1  0
 16 17  1  0
 17 18  1  0
 16 19  2  0
  9 20  2  0
 20 21  1  0
 21 22  1  0
 22 23  1  0
 23 24  1  0
 24 25  1  0
 25 26  1  0
 26 27  1  0
 27 28  1  0
 28 29  1  0
 29 30  1  0
 30 31  1  0
 31 32  1  0
 32 33  1  0
 33 34  1  0
 26 35  1  0
 35 36  1  0
 22  3  2  0
 36 23  1  0
 21  7  1  0
 34 29  1  0
 19 10  1  0
  1 37  1  0
  1 38  1  0
  1 39  1  0
  2 40  1  0
  2 41  1  0
  5 42  1  0
  5 43  1  0
  5 44  1  0
  8 45  1  0
 11 46  1  0
 14 47  1  0
 14 48  1  0
 14 49  1  0
 15 50  1  0
 18 51  1  0
 18 52  1  0
 18 53  1  0
 19 54  1  0
 24 55  1  0
 24 56  1  0
 25 57  1  0
 25 58  1  0
 27 59  1  0
 27 60  1  0
 28 61  1  0
 28 62  1  0
 30 63  1  0
 30 64  1  0
 31 65  1  0
 31 66  1  0
 33 67  1  0
 33 68  1  0
 34 69  1  0
 34 70  1  0
 35 71  1  0
 35 72  1  0
 36 73  1  0
 36 74  1  0
M  END
$$$$
