
     RDKit          3D

 44 46  0  0  0  0  0  0  0  0999 V2000
    3.2138    4.0146   -3.3783 C   0  0  0  0  0  0  0  0  0  0  0  0
    2.7856    3.3205   -2.1661 N   0  0  0  0  0  0  0  0  0  0  0  0
    1.3113    3.2511   -2.0981 C   0  0  0  0  0  0  0  0  0  0  0  0
    0.8075    2.4852   -0.8551 C   0  0  0  0  0  0  0  0  0  0  0  0
    1.3768    1.1113   -0.7891 N   0  0  0  0  0  0  0  0  0  0  0  0
    0.7041    0.0796   -0.1008 C   0  0  0  0  0  0  0  0  0  0  0  0
   -0.6349   -0.0926   -0.1567 C   0  0  0  0  0  0  0  0  0  0  0  0
   -1.3393   -1.1481    0.5526 C   0  0  0  0  0  0  0  0  0  0  0  0
   -2.6478   -1.0395    0.8439 C   0  0  0  0  0  0  0  0  0  0  0  0
   -3.3448   -1.9904    1.7119 C   0  0  0  0  0  0  0  0  0  0  0  0
   -4.6953   -2.1060    1.7560 C   0  0  0  0  0  0  0  0  0  0  0  0
   -5.3366   -3.0174    2.6449 C   0  0  0  0  0  0  0  0  0  0  0  0
   -5.8471   -3.7624    3.3740 N   0  0  0  0  0  0  0  0  0  0  0  0
   -5.5490   -1.3307    0.9165 C   0  0  0  0  0  0  0  0  0  0  0  0
   -6.2350   -0.6904    0.2333 N   0  0  0  0  0  0  0  0  0  0  0  0
   -2.3949   -2.7868    2.5972 C   0  0  0  0  0  0  0  0  0  0  0  0
   -1.2510   -3.3823    1.7819 C   0  0  0  0  0  0  0  0  0  0  0  0
   -0.4863   -2.3266    0.9697 C   0  0  0  0  0  0  0  0  0  0  0  0
    0.7406   -1.7780    1.6982 C   0  0  0  0  0  0  0  0  0  0  0  0
    1.5449   -0.8750    0.7495 C   0  0  0  0  0  0  0  0  0  0  0  0
    2.8587    1.1471   -0.8949 C   0  0  0  0  0  0  0  0  0  0  0  0
    3.3229    1.9449   -2.1345 C   0  0  0  0  0  0  0  0  0  0  0  0
    2.8700    3.5135   -4.2904 H   0  0  0  0  0  0  0  0  0  0  0  0
    4.3066    4.0832   -3.4144 H   0  0  0  0  0  0  0  0  0  0  0  0
    2.8335    5.0420   -3.3855 H   0  0  0  0  0  0  0  0  0  0  0  0
    0.9095    2.7674   -2.9988 H   0  0  0  0  0  0  0  0  0  0  0  0
    0.9012    4.2677   -2.0613 H   0  0  0  0  0  0  0  0  0  0  0  0
   -0.2858    2.4709   -0.8965 H   0  0  0  0  0  0  0  0  0  0  0  0
    1.0870    3.0277    0.0573 H   0  0  0  0  0  0  0  0  0  0  0  0
   -1.2476    0.5836   -0.7441 H   0  0  0  0  0  0  0  0  0  0  0  0
   -3.2027   -0.1784    0.4729 H   0  0  0  0  0  0  0  0  0  0  0  0
   -1.9905   -2.1232    3.3731 H   0  0  0  0  0  0  0  0  0  0  0  0
   -2.8998   -3.6042    3.1218 H   0  0  0  0  0  0  0  0  0  0  0  0
   -0.5705   -3.9374    2.4383 H   0  0  0  0  0  0  0  0  0  0  0  0
   -1.6721   -4.1213    1.0858 H   0  0  0  0  0  0  0  0  0  0  0  0
   -0.1317   -2.8354    0.0609 H   0  0  0  0  0  0  0  0  0  0  0  0
    0.4387   -1.2076    2.5868 H   0  0  0  0  0  0  0  0  0  0  0  0
    1.3845   -2.5938    2.0475 H   0  0  0  0  0  0  0  0  0  0  0  0
    2.2591   -0.3057    1.3564 H   0  0  0  0  0  0  0  0  0  0  0  0
    2.1250   -1.5171    0.0744 H   0  0  0  0  0  0  0  0  0  0  0  0
    3.2623    0.1336   -0.9938 H   0  0  0  0  0  0  0  0  0  0  0  0
    3.2784    1.5901    0.0168 H   0  0  0  0  0  0  0  0  0  0  0  0
    3.0221    1.3982   -3.0388 H   0  0  0  0  0  0  0  0  0  0  0  0
    4.4189    1.9826   -2.1245 H   0  0  0  0  0  0  0  0  0  0  0  0
  1  2  1  0
  2  3  1  0
  3  4  1  0
  4  5  1  0
  5  6  1  0
  6  7  2  0
  7  8  1  0
  8  9  2  0
  9 10  1  0
 10 11  2  3
 11 12  1  0
 12 13  3  0
 11 14  1  0
 14 15  3  0
 10 16  1  0
 16 17  1  0
 17 18  1  0
 18 19  1  0
 19 20  1  0
  5 21  1  0
 21 22  1  0
 22  2  1  0
 20  6  1  0
 18  8  1  0
  1 23  1  0
  1 24  1  0
  1 25  1  0
  3 26  1  0
  3 27  1  0
  4 28  1  0
  4 29  1  0
  7 30  1  0
  9 31  1  0
 16 32  1  0
 16 33  1  0
 17 34  1  0
 17 35  1  0
 18 36  1  0
 19 37  1  0
 19 38  1  0
 20 39  1  0
 20 40  1  0
 21 41  1  0
 21 42  1  0
 22 43  1  0
 22 44  1  0
M  END
$$$$
