
     RDKit          3D

 42 44  0  0  0  0  0  0  0  0999 V2000
    3.3705    1.0601    2.3569 C   0  0  0  0  0  0  0  0  0  0  0  0
    3.8258    0.3221    1.1004 C   0  0  0  0  0  0  0  0  0  0  0  0
    5.3292    0.0552    1.1578 C   0  0  0  0  0  0  0  0  0  0  0  0
    2.9646   -1.2933    0.9513 S   0  0  0  0  0  0  0  0  0  0  0  0
    1.3275   -0.7853    0.4408 C   0  0  0  0  0  0  0  0  0  0  0  0
    0.2894   -1.6833    0.5733 C   0  0  0  0  0  0  0  0  0  0  0  0
   -0.9610   -1.2803    0.1537 C   0  0  0  0  0  0  0  0  0  0  0  0
   -2.0597   -2.0971    0.2606 N   0  0  0  0  0  0  0  0  0  0  0  0
   -3.3597   -1.6358   -0.2128 C   0  0  0  0  0  0  0  0  0  0  0  0
   -4.2713   -2.8257    0.0719 C   0  0  0  0  0  0  0  0  0  0  0  0
   -3.3555   -4.0145   -0.1739 C   0  0  0  0  0  0  0  0  0  0  0  0
   -2.0066   -3.5482    0.3751 C   0  0  0  0  0  0  0  0  0  0  0  0
   -1.1382   -0.0482   -0.3516 N   0  0  0  0  0  0  0  0  0  0  0  0
   -0.0772    0.7697   -0.4335 C   0  0  0  0  0  0  0  0  0  0  0  0
   -0.2717    2.0958   -1.0306 C   0  0  0  0  0  0  0  0  0  0  0  0
    0.6218    2.5340   -2.0336 C   0  0  0  0  0  0  0  0  0  0  0  0
    0.4805    3.7791   -2.6519 C   0  0  0  0  0  0  0  0  0  0  0  0
   -0.5582    4.6230   -2.2778 C   0  0  0  0  0  0  0  0  0  0  0  0
   -1.4472    4.2233   -1.2818 C   0  0  0  0  0  0  0  0  0  0  0  0
   -1.3065    2.9738   -0.6592 C   0  0  0  0  0  0  0  0  0  0  0  0
   -2.4302    2.6174    0.6111 Cl  0  0  0  0  0  0  0  0  0  0  0  0
    1.1725    0.4392   -0.0777 N   0  0  0  0  0  0  0  0  0  0  0  0
    3.5741    0.4807    3.2646 H   0  0  0  0  0  0  0  0  0  0  0  0
    3.9026    2.0136    2.4503 H   0  0  0  0  0  0  0  0  0  0  0  0
    2.3006    1.2903    2.3320 H   0  0  0  0  0  0  0  0  0  0  0  0
    3.6273    0.9322    0.2129 H   0  0  0  0  0  0  0  0  0  0  0  0
    5.6780   -0.4577    0.2543 H   0  0  0  0  0  0  0  0  0  0  0  0
    5.8808    0.9995    1.2279 H   0  0  0  0  0  0  0  0  0  0  0  0
    5.6053   -0.5518    2.0277 H   0  0  0  0  0  0  0  0  0  0  0  0
    0.4553   -2.6603    1.0051 H   0  0  0  0  0  0  0  0  0  0  0  0
   -3.7063   -0.7426    0.3179 H   0  0  0  0  0  0  0  0  0  0  0  0
   -3.3304   -1.4310   -1.2900 H   0  0  0  0  0  0  0  0  0  0  0  0
   -4.5945   -2.8129    1.1199 H   0  0  0  0  0  0  0  0  0  0  0  0
   -5.1609   -2.8346   -0.5637 H   0  0  0  0  0  0  0  0  0  0  0  0
   -3.2743   -4.2043   -1.2511 H   0  0  0  0  0  0  0  0  0  0  0  0
   -3.7082   -4.9312    0.3071 H   0  0  0  0  0  0  0  0  0  0  0  0
   -1.1917   -3.9957   -0.2044 H   0  0  0  0  0  0  0  0  0  0  0  0
   -1.8974   -3.8333    1.4272 H   0  0  0  0  0  0  0  0  0  0  0  0
    1.4415    1.8855   -2.3431 H   0  0  0  0  0  0  0  0  0  0  0  0
    1.1823    4.0845   -3.4241 H   0  0  0  0  0  0  0  0  0  0  0  0
   -0.6735    5.5932   -2.7542 H   0  0  0  0  0  0  0  0  0  0  0  0
   -2.2495    4.8947   -0.9844 H   0  0  0  0  0  0  0  0  0  0  0  0
  1  2  1  0
  2  3  1  0
  2  4  1  0
  4  5  1  0
  5  6  2  0
  6  7  1  0
  7  8  1  0
  8  9  1  0
  9 10  1  0
 10 11  1  0
 11 12  1  0
  7 13  2  0
 13 14  1  0
 14 15  1  0
 15 16  2  0
 16 17  1  0
 17 18  2  0
 18 19  1  0
 19 20  2  0
 20 21  1  0
 14 22  2  0
 22  5  1  0
 12  8  1  0
 20 15  1  0
  1 23  1  0
  1 24  1  0
  1 25  1  0
  2 26  1  0
  3 27  1  0
  3 28  1  0
  3 29  1  0
  6 30  1  0
  9 31  1  0
  9 32  1  0
 10 33  1  0
 10 34  1  0
 11 35  1  0
 11 36  1  0
 12 37  1  0
 12 38  1  0
 16 39  1  0
 17 40  1  0
 18 41  1  0
 19 42  1  0
M  END
$$$$
