
     RDKit          3D

 49 51  0  0  0  0  0  0  0  0999 V2000
   -4.5954   -1.2301   -3.9671 C   0  0  0  0  0  0  0  0  0  0  0  0
   -5.3150   -0.9651   -2.7703 O   0  0  0  0  0  0  0  0  0  0  0  0
   -4.5901   -0.7288   -1.6319 C   0  0  0  0  0  0  0  0  0  0  0  0
   -3.1987   -0.6621   -1.5714 C   0  0  0  0  0  0  0  0  0  0  0  0
   -2.5568   -0.4306   -0.3462 C   0  0  0  0  0  0  0  0  0  0  0  0
   -1.0715   -0.3709   -0.3397 C   0  0  0  0  0  0  0  0  0  0  0  0
   -0.4658    0.0526   -1.3203 O   0  0  0  0  0  0  0  0  0  0  0  0
   -0.4430   -0.8583    0.7986 N   0  0  0  0  0  0  0  0  0  0  0  0
    0.9095   -0.8667    1.1167 C   0  0  0  0  0  0  0  0  0  0  0  0
    1.2911   -1.5650    2.5826 S   0  0  0  0  0  0  0  0  0  0  0  0
    1.7221   -0.2968    0.1649 N   0  0  0  0  0  0  0  0  0  0  0  0
    3.1094   -0.0473    0.0823 C   0  0  0  0  0  0  0  0  0  0  0  0
    3.5577    0.4894   -1.1556 C   0  0  0  0  0  0  0  0  0  0  0  0
    4.9045    0.7930   -1.3915 C   0  0  0  0  0  0  0  0  0  0  0  0
    5.7862    0.5538   -0.3623 C   0  0  0  0  0  0  0  0  0  0  0  0
    5.3638    0.0391    0.8478 C   0  0  0  0  0  0  0  0  0  0  0  0
    4.0373   -0.2703    1.1025 C   0  0  0  0  0  0  0  0  0  0  0  0
    6.5421   -0.0848    1.7063 C   0  0  0  0  0  0  0  0  0  0  0  0
    6.5232   -0.5241    2.8397 O   0  0  0  0  0  0  0  0  0  0  0  0
    7.6041    0.3736    0.9758 N   0  0  0  0  0  0  0  0  0  0  0  0
    8.9625    0.3853    1.4583 C   0  0  0  0  0  0  0  0  0  0  0  0
    7.2316    0.7560   -0.2825 C   0  0  0  0  0  0  0  0  0  0  0  0
    7.9132    1.1781   -1.1965 O   0  0  0  0  0  0  0  0  0  0  0  0
   -3.3017   -0.2347    0.8263 C   0  0  0  0  0  0  0  0  0  0  0  0
   -4.6951   -0.2995    0.7832 C   0  0  0  0  0  0  0  0  0  0  0  0
   -5.5203   -0.1291    1.8640 O   0  0  0  0  0  0  0  0  0  0  0  0
   -4.9213   -0.0216    3.1479 C   0  0  0  0  0  0  0  0  0  0  0  0
   -5.3287   -0.5347   -0.4510 C   0  0  0  0  0  0  0  0  0  0  0  0
   -6.7014   -0.6499   -0.4872 O   0  0  0  0  0  0  0  0  0  0  0  0
   -7.2893    0.6199   -0.7654 C   0  0  0  0  0  0  0  0  0  0  0  0
   -5.3244   -1.4288   -4.7585 H   0  0  0  0  0  0  0  0  0  0  0  0
   -3.9668   -2.1206   -3.8622 H   0  0  0  0  0  0  0  0  0  0  0  0
   -4.0035   -0.3605   -4.2707 H   0  0  0  0  0  0  0  0  0  0  0  0
   -2.5872   -0.7918   -2.4596 H   0  0  0  0  0  0  0  0  0  0  0  0
   -1.0103   -1.3068    1.5059 H   0  0  0  0  0  0  0  0  0  0  0  0
    1.2019   -0.0242   -0.6724 H   0  0  0  0  0  0  0  0  0  0  0  0
    2.8446    0.6730   -1.9596 H   0  0  0  0  0  0  0  0  0  0  0  0
    5.2401    1.1985   -2.3403 H   0  0  0  0  0  0  0  0  0  0  0  0
    3.7857   -0.6573    2.0792 H   0  0  0  0  0  0  0  0  0  0  0  0
    8.9766    0.6404    2.5216 H   0  0  0  0  0  0  0  0  0  0  0  0
    9.5645    1.0991    0.8900 H   0  0  0  0  0  0  0  0  0  0  0  0
    9.3796   -0.6182    1.3322 H   0  0  0  0  0  0  0  0  0  0  0  0
   -2.7902   -0.0028    1.7535 H   0  0  0  0  0  0  0  0  0  0  0  0
   -5.7245    0.0287    3.8892 H   0  0  0  0  0  0  0  0  0  0  0  0
   -4.3343    0.8988    3.2299 H   0  0  0  0  0  0  0  0  0  0  0  0
   -4.3109   -0.9016    3.3764 H   0  0  0  0  0  0  0  0  0  0  0  0
   -7.0400    1.3541    0.0086 H   0  0  0  0  0  0  0  0  0  0  0  0
   -6.9892    0.9925   -1.7508 H   0  0  0  0  0  0  0  0  0  0  0  0
   -8.3758    0.4913   -0.7703 H   0  0  0  0  0  0  0  0  0  0  0  0
  1  2  1  0
  2  3  1  0
  3  4  2  0
  4  5  1  0
  5  6  1  0
  6  7  2  0
  6  8  1  0
  8  9  1  0
  9 10  2  0
  9 11  1  0
 11 12  1  0
 12 13  2  0
 13 14  1  0
 14 15  2  0
 15 16  1  0
 16 17  2  0
 16 18  1  0
 18 19  2  0
 18 20  1  0
 20 21  1  0
 20 22  1  0
 22 23  2  0
  5 24  2  0
 24 25  1  0
 25 26  1  0
 26 27  1  0
 25 28  2  0
 28 29  1  0
 29 30  1  0
 28  3  1  0
 17 12  1  0
 22 15  1  0
  1 31  1  0
  1 32  1  0
  1 33  1  0
  4 34  1  0
  8 35  1  0
 11 36  1  0
 13 37  1  0
 14 38  1  0
 17 39  1  0
 21 40  1  0
 21 41  1  0
 21 42  1  0
 24 43  1  0
 27 44  1  0
 27 45  1  0
 27 46  1  0
 30 47  1  0
 30 48  1  0
 30 49  1  0
M  END
$$$$
