
     RDKit          3D

 47 50  0  0  0  0  0  0  0  0999 V2000
   -0.5046    2.9522   -2.1861 C   0  0  0  0  0  0  0  0  0  0  0  0
   -0.4620    1.4433   -1.8784 C   0  0  0  0  0  0  0  0  0  0  0  0
   -0.8071    0.6840   -3.1759 C   0  0  0  0  0  0  0  0  0  0  0  0
   -1.5139    1.1295   -0.7673 C   0  0  0  0  0  0  0  0  0  0  0  0
   -1.2515   -0.1932   -0.1252 C   0  0  0  0  0  0  0  0  0  0  0  0
   -0.0626   -0.8925   -0.2428 C   0  0  0  0  0  0  0  0  0  0  0  0
   -0.3031   -2.1112    0.3993 C   0  0  0  0  0  0  0  0  0  0  0  0
   -1.5276   -2.1789    0.9147 N   0  0  0  0  0  0  0  0  0  0  0  0
   -2.1074   -0.9722    0.6440 N   0  0  0  0  0  0  0  0  0  0  0  0
   -3.4167   -0.7091    1.1587 C   0  0  0  0  0  0  0  0  0  0  0  0
   -3.9926    0.5682    1.1515 C   0  0  0  0  0  0  0  0  0  0  0  0
   -5.2779    0.7671    1.6710 C   0  0  0  0  0  0  0  0  0  0  0  0
   -5.9847   -0.3029    2.2040 C   0  0  0  0  0  0  0  0  0  0  0  0
   -7.2124   -0.1024    2.6998 F   0  0  0  0  0  0  0  0  0  0  0  0
   -5.4300   -1.5731    2.2367 C   0  0  0  0  0  0  0  0  0  0  0  0
   -4.1475   -1.7761    1.7202 C   0  0  0  0  0  0  0  0  0  0  0  0
    1.1293   -0.4163   -0.9988 C   0  0  0  0  0  0  0  0  0  0  0  0
    2.2994   -0.6048   -0.1723 N   0  0  0  0  0  0  0  0  0  0  0  0
    3.5723   -0.6507   -0.6965 C   0  0  0  0  0  0  0  0  0  0  0  0
    3.8214   -0.6487   -1.8957 O   0  0  0  0  0  0  0  0  0  0  0  0
    4.6565   -0.6920    0.3236 C   0  0  0  0  0  0  0  0  0  0  0  0
    5.9827   -0.7775   -0.0712 C   0  0  0  0  0  0  0  0  0  0  0  0
    7.0015   -0.8149    0.8261 N   0  0  0  0  0  0  0  0  0  0  0  0
    6.6301   -0.7636    2.1269 C   0  0  0  0  0  0  0  0  0  0  0  0
    5.3027   -0.6764    2.5207 C   0  0  0  0  0  0  0  0  0  0  0  0
    4.2794   -0.6360    1.6355 N   0  0  0  0  0  0  0  0  0  0  0  0
    0.9695    1.0717   -1.3908 C   0  0  0  0  0  0  0  0  0  0  0  0
   -0.2497    3.5456   -1.3009 H   0  0  0  0  0  0  0  0  0  0  0  0
   -1.5031    3.2600   -2.5167 H   0  0  0  0  0  0  0  0  0  0  0  0
    0.2063    3.2148   -2.9776 H   0  0  0  0  0  0  0  0  0  0  0  0
   -0.0607    0.8800   -3.9540 H   0  0  0  0  0  0  0  0  0  0  0  0
   -1.7819    0.9984   -3.5661 H   0  0  0  0  0  0  0  0  0  0  0  0
   -0.8526   -0.3991   -3.0266 H   0  0  0  0  0  0  0  0  0  0  0  0
   -2.5173    1.1592   -1.2065 H   0  0  0  0  0  0  0  0  0  0  0  0
   -1.4528    1.9019    0.0096 H   0  0  0  0  0  0  0  0  0  0  0  0
    0.3592   -2.9617    0.5037 H   0  0  0  0  0  0  0  0  0  0  0  0
   -3.4725    1.4440    0.7883 H   0  0  0  0  0  0  0  0  0  0  0  0
   -5.7273    1.7555    1.6713 H   0  0  0  0  0  0  0  0  0  0  0  0
   -5.9919   -2.3983    2.6622 H   0  0  0  0  0  0  0  0  0  0  0  0
   -3.7313   -2.7824    1.7543 H   0  0  0  0  0  0  0  0  0  0  0  0
    1.2449   -1.0193   -1.9079 H   0  0  0  0  0  0  0  0  0  0  0  0
    2.2298   -0.4982    0.8370 H   0  0  0  0  0  0  0  0  0  0  0  0
    6.2679   -0.8189   -1.1171 H   0  0  0  0  0  0  0  0  0  0  0  0
    7.4359   -0.7948    2.8522 H   0  0  0  0  0  0  0  0  0  0  0  0
    5.0283   -0.6367    3.5693 H   0  0  0  0  0  0  0  0  0  0  0  0
    1.2134    1.7008   -0.5217 H   0  0  0  0  0  0  0  0  0  0  0  0
    1.7123    1.3256   -2.1585 H   0  0  0  0  0  0  0  0  0  0  0  0
  1  2  1  0
  2  3  1  0
  2  4  1  0
  4  5  1  0
  5  6  2  0
  6  7  1  0
  7  8  2  0
  8  9  1  0
  9 10  1  0
 10 11  2  0
 11 12  1  0
 12 13  2  0
 13 14  1  0
 13 15  1  0
 15 16  2  0
  6 17  1  0
 17 18  1  0
 18 19  1  0
 19 20  2  0
 19 21  1  0
 21 22  2  0
 22 23  1  0
 23 24  2  0
 24 25  1  0
 25 26  2  0
 17 27  1  0
 27  2  1  0
  9  5  1  0
 16 10  1  0
 26 21  1  0
  1 28  1  0
  1 29  1  0
  1 30  1  0
  3 31  1  0
  3 32  1  0
  3 33  1  0
  4 34  1  0
  4 35  1  0
  7 36  1  0
 11 37  1  0
 12 38  1  0
 15 39  1  0
 16 40  1  0
 17 41  1  0
 18 42  1  0
 22 43  1  0
 24 44  1  0
 25 45  1  0
 27 46  1  0
 27 47  1  0
M  END
$$$$
