
     RDKit          3D

 60 63  0  0  0  0  0  0  0  0999 V2000
   -9.2182    0.6455   -1.3025 C   0  0  0  0  0  0  0  0  0  0  0  0
   -8.0844   -0.3021   -0.9168 C   0  0  0  0  0  0  0  0  0  0  0  0
   -8.3345   -1.6823   -1.5192 C   0  0  0  0  0  0  0  0  0  0  0  0
   -6.8827    0.2564   -1.4580 O   0  0  0  0  0  0  0  0  0  0  0  0
   -5.6931    0.0145   -0.8336 C   0  0  0  0  0  0  0  0  0  0  0  0
   -4.6145    0.7340   -1.3470 C   0  0  0  0  0  0  0  0  0  0  0  0
   -3.3295    0.5854   -0.8113 C   0  0  0  0  0  0  0  0  0  0  0  0
   -3.0837   -0.2954    0.2541 C   0  0  0  0  0  0  0  0  0  0  0  0
   -1.7379   -0.4692    0.8382 C   0  0  0  0  0  0  0  0  0  0  0  0
   -0.5749   -0.3695    0.0950 C   0  0  0  0  0  0  0  0  0  0  0  0
    0.6451   -0.5200    0.7524 C   0  0  0  0  0  0  0  0  0  0  0  0
    1.8561   -0.3469   -0.0717 C   0  0  0  0  0  0  0  0  0  0  0  0
    2.0899   -1.1195   -0.9917 O   0  0  0  0  0  0  0  0  0  0  0  0
    2.6281    0.7466    0.2550 N   0  0  0  0  0  0  0  0  0  0  0  0
    3.8620    1.0384   -0.4518 C   0  0  0  0  0  0  0  0  0  0  0  0
    5.0503    0.2338    0.1152 C   0  0  0  0  0  0  0  0  0  0  0  0
    6.3661    0.4457   -0.4989 N   0  0  0  0  0  0  0  0  0  0  0  0
    6.8489    1.8369   -0.4764 C   0  0  0  0  0  0  0  0  0  0  0  0
    6.8655    2.5005   -1.8636 C   0  0  0  0  0  0  0  0  0  0  0  0
    7.6613    1.7906   -2.8228 O   0  0  0  0  0  0  0  0  0  0  0  0
    7.7166    0.3767   -2.5801 C   0  0  0  0  0  0  0  0  0  0  0  0
    6.4781   -0.1535   -1.8415 C   0  0  0  0  0  0  0  0  0  0  0  0
    0.7097   -0.8119    2.1297 C   0  0  0  0  0  0  0  0  0  0  0  0
    1.9055   -1.0348    2.8596 C   0  0  0  0  0  0  0  0  0  0  0  0
    1.8711   -1.3168    4.2234 C   0  0  0  0  0  0  0  0  0  0  0  0
    0.6478   -1.3858    4.8742 C   0  0  0  0  0  0  0  0  0  0  0  0
   -0.5320   -1.1808    4.1542 C   0  0  0  0  0  0  0  0  0  0  0  0
   -0.5257   -0.9014    2.7939 C   0  0  0  0  0  0  0  0  0  0  0  0
   -1.7041   -0.7294    2.1703 N   0  0  0  0  0  0  0  0  0  0  0  0
   -4.1842   -1.0091    0.7594 C   0  0  0  0  0  0  0  0  0  0  0  0
   -5.4716   -0.8625    0.2221 C   0  0  0  0  0  0  0  0  0  0  0  0
   -9.0407    1.6416   -0.8836 H   0  0  0  0  0  0  0  0  0  0  0  0
   -9.2769    0.7684   -2.3904 H   0  0  0  0  0  0  0  0  0  0  0  0
  -10.1827    0.2816   -0.9358 H   0  0  0  0  0  0  0  0  0  0  0  0
   -8.0584   -0.3475    0.1785 H   0  0  0  0  0  0  0  0  0  0  0  0
   -8.3533   -1.6320   -2.6141 H   0  0  0  0  0  0  0  0  0  0  0  0
   -9.2850   -2.0982   -1.1695 H   0  0  0  0  0  0  0  0  0  0  0  0
   -7.5369   -2.3830   -1.2532 H   0  0  0  0  0  0  0  0  0  0  0  0
   -4.7749    1.4254   -2.1702 H   0  0  0  0  0  0  0  0  0  0  0  0
   -2.5288    1.1865   -1.2339 H   0  0  0  0  0  0  0  0  0  0  0  0
   -0.5973   -0.1843   -0.9742 H   0  0  0  0  0  0  0  0  0  0  0  0
    2.3546    1.3397    1.0299 H   0  0  0  0  0  0  0  0  0  0  0  0
    3.7112    0.8172   -1.5140 H   0  0  0  0  0  0  0  0  0  0  0  0
    4.0309    2.1155   -0.3492 H   0  0  0  0  0  0  0  0  0  0  0  0
    4.8134   -0.8386    0.0807 H   0  0  0  0  0  0  0  0  0  0  0  0
    5.1383    0.4621    1.1865 H   0  0  0  0  0  0  0  0  0  0  0  0
    7.8813    1.8061   -0.1031 H   0  0  0  0  0  0  0  0  0  0  0  0
    6.2878    2.4555    0.2337 H   0  0  0  0  0  0  0  0  0  0  0  0
    7.2726    3.5156   -1.7868 H   0  0  0  0  0  0  0  0  0  0  0  0
    5.8477    2.5891   -2.2656 H   0  0  0  0  0  0  0  0  0  0  0  0
    8.6299    0.1651   -2.0115 H   0  0  0  0  0  0  0  0  0  0  0  0
    7.8175   -0.1183   -3.5515 H   0  0  0  0  0  0  0  0  0  0  0  0
    6.5477   -1.2424   -1.7461 H   0  0  0  0  0  0  0  0  0  0  0  0
    5.5955    0.0765   -2.4497 H   0  0  0  0  0  0  0  0  0  0  0  0
    2.8741   -1.0093    2.3638 H   0  0  0  0  0  0  0  0  0  0  0  0
    2.7941   -1.4903    4.7709 H   0  0  0  0  0  0  0  0  0  0  0  0
    0.6033   -1.6084    5.9376 H   0  0  0  0  0  0  0  0  0  0  0  0
   -1.4879   -1.2465    4.6702 H   0  0  0  0  0  0  0  0  0  0  0  0
   -4.0407   -1.7020    1.5872 H   0  0  0  0  0  0  0  0  0  0  0  0
   -6.2674   -1.4587    0.6535 H   0  0  0  0  0  0  0  0  0  0  0  0
  1  2  1  0
  2  3  1  0
  2  4  1  0
  4  5  1  0
  5  6  2  0
  6  7  1  0
  7  8  2  0
  8  9  1  0
  9 10  2  0
 10 11  1  0
 11 12  1  0
 12 13  2  0
 12 14  1  0
 14 15  1  0
 15 16  1  0
 16 17  1  0
 17 18  1  0
 18 19  1  0
 19 20  1  0
 20 21  1  0
 21 22  1  0
 11 23  2  0
 23 24  1  0
 24 25  2  0
 25 26  1  0
 26 27  2  0
 27 28  1  0
 28 29  2  0
  8 30  1  0
 30 31  2  0
 31  5  1  0
 29  9  1  0
 22 17  1  0
 28 23  1  0
  1 32  1  0
  1 33  1  0
  1 34  1  0
  2 35  1  0
  3 36  1  0
  3 37  1  0
  3 38  1  0
  6 39  1  0
  7 40  1  0
 10 41  1  0
 14 42  1  0
 15 43  1  0
 15 44  1  0
 16 45  1  0
 16 46  1  0
 18 47  1  0
 18 48  1  0
 19 49  1  0
 19 50  1  0
 21 51  1  0
 21 52  1  0
 22 53  1  0
 22 54  1  0
 24 55  1  0
 25 56  1  0
 26 57  1  0
 27 58  1  0
 30 59  1  0
 31 60  1  0
M  END
$$$$
