
     RDKit          3D

 37 37  0  0  0  0  0  0  0  0999 V2000
   -4.0898   -2.1833    0.6705 C   0  0  0  0  0  0  0  0  0  0  0  0
   -3.8621   -0.7850    1.2276 C   0  0  0  0  0  0  0  0  0  0  0  0
   -2.9988    0.0041    0.3367 N   0  0  0  0  0  0  0  0  0  0  0  0
   -3.7036    0.8607   -0.6331 C   0  0  0  0  0  0  0  0  0  0  0  0
   -3.8327    2.2843   -0.1049 C   0  0  0  0  0  0  0  0  0  0  0  0
   -1.6114   -0.0734    0.3823 C   0  0  0  0  0  0  0  0  0  0  0  0
   -0.7864    0.6544   -0.4940 C   0  0  0  0  0  0  0  0  0  0  0  0
    0.6134    0.5695   -0.4673 C   0  0  0  0  0  0  0  0  0  0  0  0
    1.2373   -0.2422    0.4684 C   0  0  0  0  0  0  0  0  0  0  0  0
    2.7074   -0.3538    0.5277 C   0  0  0  0  0  0  0  0  0  0  0  0
    3.4680    0.1612   -0.3792 N   0  0  0  0  0  0  0  0  0  0  0  0
    4.9242   -0.0622   -0.1678 C   0  0  0  0  0  0  0  0  0  0  0  0
    5.2646   -1.4648   -0.4771 C   0  0  0  0  0  0  0  0  0  0  0  0
    5.5361   -2.5749   -0.6692 N   0  0  0  0  0  0  0  0  0  0  0  0
    5.6492    0.8532   -1.1183 C   0  0  0  0  0  0  0  0  0  0  0  0
    5.1021    1.5741   -2.0504 N   0  0  0  0  0  0  0  0  0  0  0  0
    7.0836    0.9848   -1.0118 C   0  0  0  0  0  0  0  0  0  0  0  0
    8.2350    1.0450   -0.8640 N   0  0  0  0  0  0  0  0  0  0  0  0
    0.4648   -0.9641    1.3670 C   0  0  0  0  0  0  0  0  0  0  0  0
   -0.9349   -0.8818    1.3112 C   0  0  0  0  0  0  0  0  0  0  0  0
   -4.7775   -2.7407    1.3119 H   0  0  0  0  0  0  0  0  0  0  0  0
   -4.5244   -2.1416   -0.3329 H   0  0  0  0  0  0  0  0  0  0  0  0
   -3.1553   -2.7456    0.6108 H   0  0  0  0  0  0  0  0  0  0  0  0
   -4.8354   -0.2888    1.3368 H   0  0  0  0  0  0  0  0  0  0  0  0
   -3.4661   -0.8344    2.2492 H   0  0  0  0  0  0  0  0  0  0  0  0
   -4.7139    0.4715   -0.8099 H   0  0  0  0  0  0  0  0  0  0  0  0
   -3.2264    0.8461   -1.6180 H   0  0  0  0  0  0  0  0  0  0  0  0
   -4.3701    2.9113   -0.8254 H   0  0  0  0  0  0  0  0  0  0  0  0
   -2.8528    2.7361    0.0812 H   0  0  0  0  0  0  0  0  0  0  0  0
   -4.3831    2.3035    0.8397 H   0  0  0  0  0  0  0  0  0  0  0  0
   -1.2115    1.3247   -1.2328 H   0  0  0  0  0  0  0  0  0  0  0  0
    1.1952    1.1512   -1.1753 H   0  0  0  0  0  0  0  0  0  0  0  0
    3.1199   -0.9123    1.3866 H   0  0  0  0  0  0  0  0  0  0  0  0
    5.2137    0.1988    0.8588 H   0  0  0  0  0  0  0  0  0  0  0  0
    4.0823    1.3961   -2.0118 H   0  0  0  0  0  0  0  0  0  0  0  0
    0.9233   -1.6006    2.1147 H   0  0  0  0  0  0  0  0  0  0  0  0
   -1.4836   -1.4813    2.0291 H   0  0  0  0  0  0  0  0  0  0  0  0
  1  2  1  0
  2  3  1  0
  3  4  1  0
  4  5  1  0
  3  6  1  0
  6  7  2  0
  7  8  1  0
  8  9  2  0
  9 10  1  0
 10 11  2  3
 11 12  1  0
 12 13  1  0
 13 14  3  0
 12 15  1  0
 15 16  2  3
 15 17  1  0
 17 18  3  0
  9 19  1  0
 19 20  2  0
 20  6  1  0
  1 21  1  0
  1 22  1  0
  1 23  1  0
  2 24  1  0
  2 25  1  0
  4 26  1  0
  4 27  1  0
  5 28  1  0
  5 29  1  0
  5 30  1  0
  7 31  1  0
  8 32  1  0
 10 33  1  0
 12 34  1  0
 16 35  1  0
 19 36  1  0
 20 37  1  0
M  END
$$$$
