
     RDKit          3D

 50 52  0  0  0  0  0  0  0  0999 V2000
   -2.9189   -3.0073   -1.7500 C   0  0  0  0  0  0  0  0  0  0  0  0
   -3.7396   -2.4123   -0.7540 O   0  0  0  0  0  0  0  0  0  0  0  0
   -3.3676   -1.1831   -0.2753 C   0  0  0  0  0  0  0  0  0  0  0  0
   -2.2790   -0.4451   -0.7362 C   0  0  0  0  0  0  0  0  0  0  0  0
   -1.9833    0.7931   -0.1524 C   0  0  0  0  0  0  0  0  0  0  0  0
   -0.8315    1.5895   -0.6309 C   0  0  0  0  0  0  0  0  0  0  0  0
   -1.0447    2.7440   -0.9914 O   0  0  0  0  0  0  0  0  0  0  0  0
    0.4276    1.0028   -0.6479 N   0  0  0  0  0  0  0  0  0  0  0  0
    1.5435    1.7702   -1.2091 C   0  0  0  0  0  0  0  0  0  0  0  0
    2.7043    0.8764   -1.6844 C   0  0  0  0  0  0  0  0  0  0  0  0
    3.1597   -0.0673   -0.6332 N   0  0  0  0  0  0  0  0  0  0  0  0
    4.5424   -0.2377   -0.4866 C   0  0  0  0  0  0  0  0  0  0  0  0
    5.1666   -0.0136    0.7565 C   0  0  0  0  0  0  0  0  0  0  0  0
    6.5476   -0.1607    0.9251 C   0  0  0  0  0  0  0  0  0  0  0  0
    7.2551    0.1427    2.4649 Cl  0  0  0  0  0  0  0  0  0  0  0  0
    7.3547   -0.5446   -0.1370 C   0  0  0  0  0  0  0  0  0  0  0  0
    6.7720   -0.7926   -1.3758 C   0  0  0  0  0  0  0  0  0  0  0  0
    5.3868   -0.6478   -1.5503 C   0  0  0  0  0  0  0  0  0  0  0  0
    4.7736   -1.0833   -3.1137 Cl  0  0  0  0  0  0  0  0  0  0  0  0
    2.2658   -0.2252    0.5279 C   0  0  0  0  0  0  0  0  0  0  0  0
    0.7912   -0.2236    0.0813 C   0  0  0  0  0  0  0  0  0  0  0  0
   -2.7888    1.3312    0.8583 C   0  0  0  0  0  0  0  0  0  0  0  0
   -3.8836    0.6084    1.3283 C   0  0  0  0  0  0  0  0  0  0  0  0
   -4.7273    1.0234    2.3255 O   0  0  0  0  0  0  0  0  0  0  0  0
   -4.4755    2.2934    2.9119 C   0  0  0  0  0  0  0  0  0  0  0  0
   -4.1677   -0.6439    0.7503 C   0  0  0  0  0  0  0  0  0  0  0  0
   -5.2153   -1.3910    1.2453 O   0  0  0  0  0  0  0  0  0  0  0  0
   -6.4113   -1.0793    0.5324 C   0  0  0  0  0  0  0  0  0  0  0  0
   -1.8985   -3.1599   -1.3831 H   0  0  0  0  0  0  0  0  0  0  0  0
   -3.3383   -3.9900   -1.9859 H   0  0  0  0  0  0  0  0  0  0  0  0
   -2.9243   -2.4136   -2.6699 H   0  0  0  0  0  0  0  0  0  0  0  0
   -1.6533   -0.7984   -1.5485 H   0  0  0  0  0  0  0  0  0  0  0  0
    1.8907    2.4510   -0.4220 H   0  0  0  0  0  0  0  0  0  0  0  0
    1.1852    2.3871   -2.0409 H   0  0  0  0  0  0  0  0  0  0  0  0
    3.5200    1.5263   -2.0245 H   0  0  0  0  0  0  0  0  0  0  0  0
    2.3521    0.2906   -2.5412 H   0  0  0  0  0  0  0  0  0  0  0  0
    4.5856    0.3071    1.6158 H   0  0  0  0  0  0  0  0  0  0  0  0
    8.4271   -0.6610   -0.0073 H   0  0  0  0  0  0  0  0  0  0  0  0
    7.3982   -1.1140   -2.2049 H   0  0  0  0  0  0  0  0  0  0  0  0
    2.4773   -1.1715    1.0397 H   0  0  0  0  0  0  0  0  0  0  0  0
    2.4175    0.5959    1.2394 H   0  0  0  0  0  0  0  0  0  0  0  0
    0.6135   -1.0637   -0.5999 H   0  0  0  0  0  0  0  0  0  0  0  0
    0.1438   -0.3430    0.9557 H   0  0  0  0  0  0  0  0  0  0  0  0
   -2.5312    2.3082    1.2547 H   0  0  0  0  0  0  0  0  0  0  0  0
   -4.5610    3.0946    2.1704 H   0  0  0  0  0  0  0  0  0  0  0  0
   -5.2388    2.4656    3.6768 H   0  0  0  0  0  0  0  0  0  0  0  0
   -3.4987    2.3131    3.4063 H   0  0  0  0  0  0  0  0  0  0  0  0
   -6.3170   -1.3208   -0.5320 H   0  0  0  0  0  0  0  0  0  0  0  0
   -6.6899   -0.0274    0.6584 H   0  0  0  0  0  0  0  0  0  0  0  0
   -7.2168   -1.6929    0.9468 H   0  0  0  0  0  0  0  0  0  0  0  0
  1  2  1  0
  2  3  1  0
  3  4  2  0
  4  5  1  0
  5  6  1  0
  6  7  2  0
  6  8  1  0
  8  9  1  0
  9 10  1  0
 10 11  1  0
 11 12  1  0
 12 13  2  0
 13 14  1  0
 14 15  1  0
 14 16  2  0
 16 17  1  0
 17 18  2  0
 18 19  1  0
 11 20  1  0
 20 21  1  0
  5 22  2  0
 22 23  1  0
 23 24  1  0
 24 25  1  0
 23 26  2  0
 26 27  1  0
 27 28  1  0
 26  3  1  0
 21  8  1  0
 18 12  1  0
  1 29  1  0
  1 30  1  0
  1 31  1  0
  4 32  1  0
  9 33  1  0
  9 34  1  0
 10 35  1  0
 10 36  1  0
 13 37  1  0
 16 38  1  0
 17 39  1  0
 20 40  1  0
 20 41  1  0
 21 42  1  0
 21 43  1  0
 22 44  1  0
 25 45  1  0
 25 46  1  0
 25 47  1  0
 28 48  1  0
 28 49  1  0
 28 50  1  0
M  END
$$$$
