
     RDKit          3D

 37 38  0  0  0  0  0  0  0  0999 V2000
    5.7540   -0.6191    1.3286 C   0  0  0  0  0  0  0  0  0  0  0  0
    4.5249    0.2883    1.2354 C   0  0  0  0  0  0  0  0  0  0  0  0
    4.9506    1.6874    0.7822 C   0  0  0  0  0  0  0  0  0  0  0  0
    3.4853   -0.3349    0.2859 C   0  0  0  0  0  0  0  0  0  0  0  0
    2.1664    0.3707    0.3342 C   0  0  0  0  0  0  0  0  0  0  0  0
    1.3790    0.4225    1.3912 N   0  0  0  0  0  0  0  0  0  0  0  0
    0.2321    1.1517    1.1501 N   0  0  0  0  0  0  0  0  0  0  0  0
    0.1815    1.5746   -0.0896 C   0  0  0  0  0  0  0  0  0  0  0  0
   -0.9497    2.3566   -0.5342 N   0  0  0  0  0  0  0  0  0  0  0  0
   -2.0946    1.4441   -1.3718 S   0  0  0  0  0  6  0  0  0  0  0  0
   -3.2576    2.3063   -1.4442 O   0  0  0  0  0  0  0  0  0  0  0  0
   -1.4619    0.9327   -2.5698 O   0  0  0  0  0  0  0  0  0  0  0  0
   -2.4581    0.0747   -0.2459 C   0  0  0  0  0  0  0  0  0  0  0  0
   -3.5882   -0.7428   -0.8170 C   0  0  0  0  0  0  0  0  0  0  0  0
   -4.9162   -0.4766   -0.4536 C   0  0  0  0  0  0  0  0  0  0  0  0
   -5.9608   -1.2335   -0.9863 C   0  0  0  0  0  0  0  0  0  0  0  0
   -5.6903   -2.2611   -1.8875 C   0  0  0  0  0  0  0  0  0  0  0  0
   -4.3754   -2.5314   -2.2599 C   0  0  0  0  0  0  0  0  0  0  0  0
   -3.3287   -1.7765   -1.7290 C   0  0  0  0  0  0  0  0  0  0  0  0
    1.5374    1.1865   -1.0445 S   0  0  0  0  0  0  0  0  0  0  0  0
    6.4932   -0.2036    2.0217 H   0  0  0  0  0  0  0  0  0  0  0  0
    6.2350   -0.7389    0.3517 H   0  0  0  0  0  0  0  0  0  0  0  0
    5.4769   -1.6133    1.6948 H   0  0  0  0  0  0  0  0  0  0  0  0
    4.0938    0.3728    2.2415 H   0  0  0  0  0  0  0  0  0  0  0  0
    4.1069    2.3844    0.7958 H   0  0  0  0  0  0  0  0  0  0  0  0
    5.7193    2.0932    1.4488 H   0  0  0  0  0  0  0  0  0  0  0  0
    5.3609    1.6684   -0.2332 H   0  0  0  0  0  0  0  0  0  0  0  0
    3.8812   -0.3621   -0.7371 H   0  0  0  0  0  0  0  0  0  0  0  0
    3.3084   -1.3790    0.5752 H   0  0  0  0  0  0  0  0  0  0  0  0
   -1.3907    2.8609    0.2335 H   0  0  0  0  0  0  0  0  0  0  0  0
   -1.5639   -0.5446   -0.1361 H   0  0  0  0  0  0  0  0  0  0  0  0
   -2.7317    0.4980    0.7255 H   0  0  0  0  0  0  0  0  0  0  0  0
   -5.1514    0.3293    0.2388 H   0  0  0  0  0  0  0  0  0  0  0  0
   -6.9877   -1.0164   -0.7034 H   0  0  0  0  0  0  0  0  0  0  0  0
   -6.5052   -2.8462   -2.3056 H   0  0  0  0  0  0  0  0  0  0  0  0
   -4.1652   -3.3267   -2.9705 H   0  0  0  0  0  0  0  0  0  0  0  0
   -2.3097   -1.9965   -2.0427 H   0  0  0  0  0  0  0  0  0  0  0  0
  1  2  1  0
  2  3  1  0
  2  4  1  0
  4  5  1  0
  5  6  2  0
  6  7  1  0
  7  8  2  0
  8  9  1  0
  9 10  1  0
 10 11  2  0
 10 12  2  0
 10 13  1  0
 13 14  1  0
 14 15  2  0
 15 16  1  0
 16 17  2  0
 17 18  1  0
 18 19  2  0
  8 20  1  0
 20  5  1  0
 19 14  1  0
  1 21  1  0
  1 22  1  0
  1 23  1  0
  2 24  1  0
  3 25  1  0
  3 26  1  0
  3 27  1  0
  4 28  1  0
  4 29  1  0
  9 30  1  0
 13 31  1  0
 13 32  1  0
 15 33  1  0
 16 34  1  0
 17 35  1  0
 18 36  1  0
 19 37  1  0
M  END
$$$$
