
     RDKit          3D

 40 41  0  0  0  0  0  0  0  0999 V2000
   -5.4796    0.2004   -0.1553 C   0  0  0  0  0  0  0  0  0  0  0  0
   -4.6641   -0.9394   -0.5682 N   0  0  0  0  0  0  0  0  0  0  0  0
   -4.2727   -1.7516    0.6035 C   0  0  0  0  0  0  0  0  0  0  0  0
   -3.0101   -2.5991    0.3698 C   0  0  0  0  0  0  0  0  0  0  0  0
   -1.8514   -1.7636    0.0350 N   0  0  0  0  0  0  0  0  0  0  0  0
   -0.5887   -2.1956    0.4177 C   0  0  0  0  0  0  0  0  0  0  0  0
   -0.4181   -3.2917    0.9588 O   0  0  0  0  0  0  0  0  0  0  0  0
    0.6110   -1.3023    0.1353 C   0  0  0  0  0  0  0  0  0  0  0  0
    0.6781    0.0771    1.3282 S   0  0  0  0  0  0  0  0  0  0  0  0
    2.2065    0.8375    0.8044 C   0  0  0  0  0  0  0  0  0  0  0  0
    2.1940    1.6056   -0.3690 C   0  0  0  0  0  0  0  0  0  0  0  0
    3.3472    2.2687   -0.8108 C   0  0  0  0  0  0  0  0  0  0  0  0
    4.5444    2.1970   -0.0817 C   0  0  0  0  0  0  0  0  0  0  0  0
    5.7913    2.9013   -0.5627 C   0  0  0  0  0  0  0  0  0  0  0  0
    5.5355    3.8971   -1.4537 F   0  0  0  0  0  0  0  0  0  0  0  0
    6.6506    2.0512   -1.1838 F   0  0  0  0  0  0  0  0  0  0  0  0
    6.4919    3.4748    0.4522 F   0  0  0  0  0  0  0  0  0  0  0  0
    4.5708    1.4331    1.0937 C   0  0  0  0  0  0  0  0  0  0  0  0
    3.4089    0.7699    1.5190 C   0  0  0  0  0  0  0  0  0  0  0  0
    3.5072   -0.0134    2.7327 N   0  0  0  0  0  4  0  0  0  0  0  0
    3.4913   -1.2452    2.6084 O   0  0  0  0  0  0  0  0  0  0  0  0
    3.6614    0.6127    3.7905 O   0  0  0  0  0  1  0  0  0  0  0  0
   -2.1571   -0.4918   -0.6303 C   0  0  0  0  0  0  0  0  0  0  0  0
   -3.5041   -0.5285   -1.3799 C   0  0  0  0  0  0  0  0  0  0  0  0
   -6.3497   -0.1361    0.4192 H   0  0  0  0  0  0  0  0  0  0  0  0
   -4.9137    0.9129    0.4568 H   0  0  0  0  0  0  0  0  0  0  0  0
   -5.8696    0.7304   -1.0314 H   0  0  0  0  0  0  0  0  0  0  0  0
   -5.1075   -2.4103    0.8686 H   0  0  0  0  0  0  0  0  0  0  0  0
   -4.0807   -1.1028    1.4691 H   0  0  0  0  0  0  0  0  0  0  0  0
   -2.7989   -3.1969    1.2631 H   0  0  0  0  0  0  0  0  0  0  0  0
   -3.1625   -3.2943   -0.4647 H   0  0  0  0  0  0  0  0  0  0  0  0
    0.5893   -0.9437   -0.8967 H   0  0  0  0  0  0  0  0  0  0  0  0
    1.5171   -1.9097    0.2438 H   0  0  0  0  0  0  0  0  0  0  0  0
    1.2801    1.7101   -0.9523 H   0  0  0  0  0  0  0  0  0  0  0  0
    3.3007    2.8561   -1.7292 H   0  0  0  0  0  0  0  0  0  0  0  0
    5.4900    1.3571    1.6762 H   0  0  0  0  0  0  0  0  0  0  0  0
   -1.3603   -0.2392   -1.3342 H   0  0  0  0  0  0  0  0  0  0  0  0
   -2.1845    0.2846    0.1431 H   0  0  0  0  0  0  0  0  0  0  0  0
   -3.4148   -1.2596   -2.1941 H   0  0  0  0  0  0  0  0  0  0  0  0
   -3.6791    0.4374   -1.8700 H   0  0  0  0  0  0  0  0  0  0  0  0
  1  2  1  0
  2  3  1  0
  3  4  1  0
  4  5  1  0
  5  6  1  0
  6  7  2  0
  6  8  1  0
  8  9  1  0
  9 10  1  0
 10 11  2  0
 11 12  1  0
 12 13  2  0
 13 14  1  0
 14 15  1  0
 14 16  1  0
 14 17  1  0
 13 18  1  0
 18 19  2  0
 19 20  1  0
 20 21  2  0
 20 22  1  0
  5 23  1  0
 23 24  1  0
 24  2  1  0
 19 10  1  0
  1 25  1  0
  1 26  1  0
  1 27  1  0
  3 28  1  0
  3 29  1  0
  4 30  1  0
  4 31  1  0
  8 32  1  0
  8 33  1  0
 11 34  1  0
 12 35  1  0
 18 36  1  0
 23 37  1  0
 23 38  1  0
 24 39  1  0
 24 40  1  0
M  CHG  2  20   1  22  -1
M  END
$$$$
