
     RDKit          3D

 41 43  0  0  0  0  0  0  0  0999 V2000
   -2.5613   -0.1288   -2.4150 O   0  0  0  0  0  0  0  0  0  0  0  0
   -2.5525    0.9804   -1.8849 C   0  0  0  0  0  0  0  0  0  0  0  0
   -3.6379    1.4569   -0.9373 C   0  0  0  0  0  0  0  0  0  0  0  0
   -3.6735    0.6644    0.3458 C   0  0  0  0  0  0  0  0  0  0  0  0
   -4.7639   -0.1677    0.6347 C   0  0  0  0  0  0  0  0  0  0  0  0
   -4.7990   -0.9039    1.8203 C   0  0  0  0  0  0  0  0  0  0  0  0
   -3.7452   -0.8182    2.7275 C   0  0  0  0  0  0  0  0  0  0  0  0
   -2.6546    0.0028    2.4499 C   0  0  0  0  0  0  0  0  0  0  0  0
   -2.6178    0.7422    1.2664 C   0  0  0  0  0  0  0  0  0  0  0  0
   -1.5425    1.9122   -2.0910 N   0  0  0  0  0  0  0  0  0  0  0  0
   -0.3483    1.3891   -2.6327 N   0  0  0  0  0  0  0  0  0  0  0  0
    0.6041    0.9029   -1.7532 C   0  0  0  0  0  0  0  0  0  0  0  0
    0.5571    1.0291   -0.5370 O   0  0  0  0  0  0  0  0  0  0  0  0
    1.7090    0.2737   -2.5333 C   0  0  0  0  0  0  0  0  0  0  0  0
    2.7798   -0.3802   -2.0607 C   0  0  0  0  0  0  0  0  0  0  0  0
    3.0759   -0.6447   -0.6503 C   0  0  0  0  0  0  0  0  0  0  0  0
    4.2194   -0.0824   -0.0716 C   0  0  0  0  0  0  0  0  0  0  0  0
    4.5306   -0.3345    1.2686 C   0  0  0  0  0  0  0  0  0  0  0  0
    3.7018   -1.1586    2.0392 C   0  0  0  0  0  0  0  0  0  0  0  0
    3.9871   -1.4507    3.4648 C   0  0  0  0  0  0  0  0  0  0  0  0
    3.3155   -2.1512    4.1992 O   0  0  0  0  0  0  0  0  0  0  0  0
    5.1070   -0.8509    3.9067 O   0  0  0  0  0  0  0  0  0  0  0  0
    2.5651   -1.7323    1.4583 C   0  0  0  0  0  0  0  0  0  0  0  0
    2.2569   -1.4806    0.1182 C   0  0  0  0  0  0  0  0  0  0  0  0
    1.4378    0.5063   -4.2322 S   0  0  0  0  0  0  0  0  0  0  0  0
   -0.1074    1.3179   -3.9874 C   0  0  0  0  0  0  0  0  0  0  0  0
   -1.0385    1.9161   -5.2347 S   0  0  0  0  0  0  0  0  0  0  0  0
   -3.5068    2.5187   -0.6965 H   0  0  0  0  0  0  0  0  0  0  0  0
   -4.5925    1.3844   -1.4725 H   0  0  0  0  0  0  0  0  0  0  0  0
   -5.5917   -0.2572   -0.0656 H   0  0  0  0  0  0  0  0  0  0  0  0
   -5.6469   -1.5499    2.0327 H   0  0  0  0  0  0  0  0  0  0  0  0
   -3.7705   -1.3960    3.6476 H   0  0  0  0  0  0  0  0  0  0  0  0
   -1.8271    0.0631    3.1525 H   0  0  0  0  0  0  0  0  0  0  0  0
   -1.7489    1.3670    1.0715 H   0  0  0  0  0  0  0  0  0  0  0  0
   -1.3841    2.5906   -1.3507 H   0  0  0  0  0  0  0  0  0  0  0  0
    3.5267   -0.7708   -2.7498 H   0  0  0  0  0  0  0  0  0  0  0  0
    4.8745    0.5622   -0.6538 H   0  0  0  0  0  0  0  0  0  0  0  0
    5.4194    0.1185    1.7010 H   0  0  0  0  0  0  0  0  0  0  0  0
    5.1650   -1.1300    4.8446 H   0  0  0  0  0  0  0  0  0  0  0  0
    1.9116   -2.3745    2.0459 H   0  0  0  0  0  0  0  0  0  0  0  0
    1.3664   -1.9352   -0.3114 H   0  0  0  0  0  0  0  0  0  0  0  0
  1  2  2  0
  2  3  1  0
  3  4  1  0
  4  5  2  0
  5  6  1  0
  6  7  2  0
  7  8  1  0
  8  9  2  0
  2 10  1  0
 10 11  1  0
 11 12  1  0
 12 13  2  0
 12 14  1  0
 14 15  2  3
 15 16  1  0
 16 17  2  0
 17 18  1  0
 18 19  2  0
 19 20  1  0
 20 21  2  0
 20 22  1  0
 19 23  1  0
 23 24  2  0
 14 25  1  0
 25 26  1  0
 26 27  2  0
  9  4  1  0
 26 11  1  0
 24 16  1  0
  3 28  1  0
  3 29  1  0
  5 30  1  0
  6 31  1  0
  7 32  1  0
  8 33  1  0
  9 34  1  0
 10 35  1  0
 15 36  1  0
 17 37  1  0
 18 38  1  0
 22 39  1  0
 23 40  1  0
 24 41  1  0
M  END
$$$$
