
     RDKit          3D

 45 47  0  0  0  0  0  0  0  0999 V2000
    6.5058    0.5519    0.4318 C   0  0  0  0  0  0  0  0  0  0  0  0
    5.0830    0.1366    0.5359 C   0  0  0  0  0  0  0  0  0  0  0  0
    4.4011    0.2066    1.7253 N   0  0  0  0  0  0  0  0  0  0  0  0
    3.1091   -0.2357    1.5705 C   0  0  0  0  0  0  0  0  0  0  0  0
    2.0786   -0.3481    2.5105 C   0  0  0  0  0  0  0  0  0  0  0  0
    0.8485   -0.8409    2.0642 C   0  0  0  0  0  0  0  0  0  0  0  0
    0.6555   -1.1979    0.7261 C   0  0  0  0  0  0  0  0  0  0  0  0
   -0.6824   -1.7110    0.3201 C   0  0  0  0  0  0  0  0  0  0  0  0
   -1.3898   -2.2929    1.1356 O   0  0  0  0  0  0  0  0  0  0  0  0
   -1.0578   -1.4574   -0.9841 N   0  0  0  0  0  0  0  0  0  0  0  0
   -2.4141   -1.7106   -1.4414 C   0  0  0  0  0  0  0  0  0  0  0  0
   -3.2195   -0.4100   -1.6664 C   0  0  0  0  0  0  0  0  0  0  0  0
   -3.1011    0.5975   -0.6001 N   0  0  0  0  0  0  0  0  0  0  0  0
   -3.6692    1.8921   -1.0275 C   0  0  0  0  0  0  0  0  0  0  0  0
   -3.9779    2.7953    0.1748 C   0  0  0  0  0  0  0  0  0  0  0  0
   -4.9972    2.2526    1.0245 O   0  0  0  0  0  0  0  0  0  0  0  0
   -5.0433    0.8194    1.0015 C   0  0  0  0  0  0  0  0  0  0  0  0
   -3.6868    0.1654    0.6884 C   0  0  0  0  0  0  0  0  0  0  0  0
    1.7093   -1.0918   -0.1968 C   0  0  0  0  0  0  0  0  0  0  0  0
    2.9587   -0.5958    0.2331 C   0  0  0  0  0  0  0  0  0  0  0  0
    4.2120   -0.3612   -0.4202 C   0  0  0  0  0  0  0  0  0  0  0  0
    4.5068   -0.6154   -1.8565 C   0  0  0  0  0  0  0  0  0  0  0  0
    6.9102    0.8585    1.4019 H   0  0  0  0  0  0  0  0  0  0  0  0
    7.1175   -0.2752    0.0576 H   0  0  0  0  0  0  0  0  0  0  0  0
    6.6054    1.3956   -0.2585 H   0  0  0  0  0  0  0  0  0  0  0  0
    4.7894    0.5303    2.6002 H   0  0  0  0  0  0  0  0  0  0  0  0
    2.2210   -0.0691    3.5494 H   0  0  0  0  0  0  0  0  0  0  0  0
    0.0284   -0.9425    2.7733 H   0  0  0  0  0  0  0  0  0  0  0  0
   -0.5370   -0.7557   -1.4919 H   0  0  0  0  0  0  0  0  0  0  0  0
   -2.3297   -2.2455   -2.3936 H   0  0  0  0  0  0  0  0  0  0  0  0
   -2.9341   -2.3705   -0.7400 H   0  0  0  0  0  0  0  0  0  0  0  0
   -4.2700   -0.6649   -1.8553 H   0  0  0  0  0  0  0  0  0  0  0  0
   -2.8329    0.0368   -2.5925 H   0  0  0  0  0  0  0  0  0  0  0  0
   -2.9561    2.3946   -1.6901 H   0  0  0  0  0  0  0  0  0  0  0  0
   -4.5997    1.7341   -1.5886 H   0  0  0  0  0  0  0  0  0  0  0  0
   -3.0793    2.9648    0.7797 H   0  0  0  0  0  0  0  0  0  0  0  0
   -4.3269    3.7741   -0.1696 H   0  0  0  0  0  0  0  0  0  0  0  0
   -5.4011    0.4891    1.9821 H   0  0  0  0  0  0  0  0  0  0  0  0
   -5.7953    0.5161    0.2636 H   0  0  0  0  0  0  0  0  0  0  0  0
   -3.7901   -0.9216    0.7577 H   0  0  0  0  0  0  0  0  0  0  0  0
   -2.9768    0.4604    1.4712 H   0  0  0  0  0  0  0  0  0  0  0  0
    1.5879   -1.4075   -1.2272 H   0  0  0  0  0  0  0  0  0  0  0  0
    4.4603   -1.6884   -2.0685 H   0  0  0  0  0  0  0  0  0  0  0  0
    3.7769   -0.1045   -2.4928 H   0  0  0  0  0  0  0  0  0  0  0  0
    5.5025   -0.2576   -2.1357 H   0  0  0  0  0  0  0  0  0  0  0  0
  1  2  1  0
  2  3  1  0
  3  4  1  0
  4  5  2  0
  5  6  1  0
  6  7  2  0
  7  8  1  0
  8  9  2  0
  8 10  1  0
 10 11  1  0
 11 12  1  0
 12 13  1  0
 13 14  1  0
 14 15  1  0
 15 16  1  0
 16 17  1  0
 17 18  1  0
  7 19  1  0
 19 20  2  0
 20 21  1  0
 21 22  1  0
 21  2  2  0
 20  4  1  0
 18 13  1  0
  1 23  1  0
  1 24  1  0
  1 25  1  0
  3 26  1  0
  5 27  1  0
  6 28  1  0
 10 29  1  0
 11 30  1  0
 11 31  1  0
 12 32  1  0
 12 33  1  0
 14 34  1  0
 14 35  1  0
 15 36  1  0
 15 37  1  0
 17 38  1  0
 17 39  1  0
 18 40  1  0
 18 41  1  0
 19 42  1  0
 22 43  1  0
 22 44  1  0
 22 45  1  0
M  END
$$$$
