
     RDKit          3D

 70 73  0  0  0  0  0  0  0  0999 V2000
   -3.3281    1.6361    2.6500 C   0  0  0  0  0  0  0  0  0  0  0  0
   -2.3769    1.0391    1.7783 O   0  0  0  0  0  0  0  0  0  0  0  0
   -1.8781    1.7915    0.7445 C   0  0  0  0  0  0  0  0  0  0  0  0
   -2.2069    3.1406    0.5338 C   0  0  0  0  0  0  0  0  0  0  0  0
   -1.6603    3.8628   -0.5349 C   0  0  0  0  0  0  0  0  0  0  0  0
   -1.9362    5.1813   -0.8012 O   0  0  0  0  0  0  0  0  0  0  0  0
   -2.8838    5.8446    0.0252 C   0  0  0  0  0  0  0  0  0  0  0  0
   -0.7632    3.2274   -1.4062 C   0  0  0  0  0  0  0  0  0  0  0  0
   -0.1540    3.9143   -2.5445 C   0  0  0  0  0  0  0  0  0  0  0  0
    0.6912    3.2728   -3.3553 C   0  0  0  0  0  0  0  0  0  0  0  0
    1.0540    1.8655   -3.1470 C   0  0  0  0  0  0  0  0  0  0  0  0
    1.8368    1.2961   -3.8986 O   0  0  0  0  0  0  0  0  0  0  0  0
    0.4715    1.2381   -2.0585 O   0  0  0  0  0  0  0  0  0  0  0  0
   -0.4384    1.8841   -1.1855 C   0  0  0  0  0  0  0  0  0  0  0  0
   -0.9795    1.1351   -0.1224 C   0  0  0  0  0  0  0  0  0  0  0  0
   -0.6234   -0.3420    0.0907 C   0  0  0  0  0  0  0  0  0  0  0  0
    0.8705   -0.5659    0.4473 C   0  0  0  0  0  0  0  0  0  0  0  0
    1.2517    0.0872    1.7880 C   0  0  0  0  0  0  0  0  0  0  0  0
    2.6754   -0.0786    2.1328 N   0  0  0  0  0  0  0  0  0  0  0  0
    3.0274    0.7286    3.3011 C   0  0  0  0  0  0  0  0  0  0  0  0
    4.5445    0.7706    3.5101 C   0  0  0  0  0  0  0  0  0  0  0  0
    5.2654   -0.4851    3.0185 C   0  0  0  0  0  0  0  0  0  0  0  0
    4.3753   -1.7277    3.0770 C   0  0  0  0  0  0  0  0  0  0  0  0
    4.1353   -2.1783    4.5215 C   0  0  0  0  0  0  0  0  0  0  0  0
    3.0515   -1.4932    2.3118 C   0  0  0  0  0  0  0  0  0  0  0  0
   -1.1539   -1.2254   -1.0407 C   0  0  0  0  0  0  0  0  0  0  0  0
   -0.3459   -1.7485   -2.0514 C   0  0  0  0  0  0  0  0  0  0  0  0
   -0.8910   -2.5389   -3.0767 C   0  0  0  0  0  0  0  0  0  0  0  0
   -2.2571   -2.8597   -3.1388 C   0  0  0  0  0  0  0  0  0  0  0  0
   -2.8019   -3.6364   -4.1701 N   0  0  0  0  0  0  0  0  0  0  0  0
   -1.9020   -4.3009   -5.1100 C   0  0  0  0  0  0  0  0  0  0  0  0
   -4.0759   -4.3116   -3.9303 C   0  0  0  0  0  0  0  0  0  0  0  0
   -3.0554   -2.3094   -2.1228 C   0  0  0  0  0  0  0  0  0  0  0  0
   -2.5223   -1.5139   -1.0970 C   0  0  0  0  0  0  0  0  0  0  0  0
   -2.8865    2.4736    3.1998 H   0  0  0  0  0  0  0  0  0  0  0  0
   -3.6293    0.8806    3.3821 H   0  0  0  0  0  0  0  0  0  0  0  0
   -4.2255    1.9460    2.1043 H   0  0  0  0  0  0  0  0  0  0  0  0
   -2.8925    3.6330    1.2105 H   0  0  0  0  0  0  0  0  0  0  0  0
   -2.5290    5.9073    1.0590 H   0  0  0  0  0  0  0  0  0  0  0  0
   -3.8644    5.3606   -0.0307 H   0  0  0  0  0  0  0  0  0  0  0  0
   -2.9960    6.8665   -0.3496 H   0  0  0  0  0  0  0  0  0  0  0  0
   -0.4037    4.9551   -2.7217 H   0  0  0  0  0  0  0  0  0  0  0  0
    1.1514    3.7610   -4.2050 H   0  0  0  0  0  0  0  0  0  0  0  0
   -1.1563   -0.7142    0.9765 H   0  0  0  0  0  0  0  0  0  0  0  0
    1.0457   -1.6474    0.5115 H   0  0  0  0  0  0  0  0  0  0  0  0
    1.5359   -0.1884   -0.3369 H   0  0  0  0  0  0  0  0  0  0  0  0
    1.0422    1.1610    1.7147 H   0  0  0  0  0  0  0  0  0  0  0  0
    0.6160   -0.3086    2.5908 H   0  0  0  0  0  0  0  0  0  0  0  0
    2.5262    0.3478    4.1996 H   0  0  0  0  0  0  0  0  0  0  0  0
    2.6841    1.7634    3.1761 H   0  0  0  0  0  0  0  0  0  0  0  0
    4.9689    1.6392    2.9913 H   0  0  0  0  0  0  0  0  0  0  0  0
    4.7476    0.9188    4.5777 H   0  0  0  0  0  0  0  0  0  0  0  0
    5.5721   -0.3264    1.9758 H   0  0  0  0  0  0  0  0  0  0  0  0
    6.1906   -0.6333    3.5877 H   0  0  0  0  0  0  0  0  0  0  0  0
    4.9106   -2.5467    2.5783 H   0  0  0  0  0  0  0  0  0  0  0  0
    3.5861   -1.4372    5.1082 H   0  0  0  0  0  0  0  0  0  0  0  0
    5.0878   -2.3671    5.0284 H   0  0  0  0  0  0  0  0  0  0  0  0
    3.5610   -3.1111    4.5411 H   0  0  0  0  0  0  0  0  0  0  0  0
    2.2463   -2.0541    2.8040 H   0  0  0  0  0  0  0  0  0  0  0  0
    3.1725   -1.9302    1.3128 H   0  0  0  0  0  0  0  0  0  0  0  0
    0.7210   -1.5395   -2.0812 H   0  0  0  0  0  0  0  0  0  0  0  0
   -0.1966   -2.8940   -3.8320 H   0  0  0  0  0  0  0  0  0  0  0  0
   -2.4653   -4.8250   -5.8905 H   0  0  0  0  0  0  0  0  0  0  0  0
   -1.2690   -3.5768   -5.6344 H   0  0  0  0  0  0  0  0  0  0  0  0
   -1.2743   -5.0400   -4.6001 H   0  0  0  0  0  0  0  0  0  0  0  0
   -4.8912   -3.5901   -3.8124 H   0  0  0  0  0  0  0  0  0  0  0  0
   -4.3568   -4.9453   -4.7793 H   0  0  0  0  0  0  0  0  0  0  0  0
   -4.0218   -4.9547   -3.0448 H   0  0  0  0  0  0  0  0  0  0  0  0
   -4.1284   -2.4712   -2.1080 H   0  0  0  0  0  0  0  0  0  0  0  0
   -3.1959   -1.1129   -0.3422 H   0  0  0  0  0  0  0  0  0  0  0  0
  1  2  1  0
  2  3  1  0
  3  4  2  0
  4  5  1  0
  5  6  1  0
  6  7  1  0
  5  8  2  0
  8  9  1  0
  9 10  2  0
 10 11  1  0
 11 12  2  0
 11 13  1  0
 13 14  1  0
 14 15  2  0
 15 16  1  0
 16 17  1  0
 17 18  1  0
 18 19  1  0
 19 20  1  0
 20 21  1  0
 21 22  1  0
 22 23  1  0
 23 24  1  0
 23 25  1  0
 16 26  1  0
 26 27  2  0
 27 28  1  0
 28 29  2  0
 29 30  1  0
 30 31  1  0
 30 32  1  0
 29 33  1  0
 33 34  2  0
 15  3  1  0
 25 19  1  0
 34 26  1  0
 14  8  1  0
  1 35  1  0
  1 36  1  0
  1 37  1  0
  4 38  1  0
  7 39  1  0
  7 40  1  0
  7 41  1  0
  9 42  1  0
 10 43  1  0
 16 44  1  0
 17 45  1  0
 17 46  1  0
 18 47  1  0
 18 48  1  0
 20 49  1  0
 20 50  1  0
 21 51  1  0
 21 52  1  0
 22 53  1  0
 22 54  1  0
 23 55  1  0
 24 56  1  0
 24 57  1  0
 24 58  1  0
 25 59  1  0
 25 60  1  0
 27 61  1  0
 28 62  1  0
 31 63  1  0
 31 64  1  0
 31 65  1  0
 32 66  1  0
 32 67  1  0
 32 68  1  0
 33 69  1  0
 34 70  1  0
M  END
$$$$
