
     RDKit          3D

 52 55  0  0  0  0  0  0  0  0999 V2000
    9.7219   -0.3038    0.4680 C   0  0  0  0  0  0  0  0  0  0  0  0
    8.2968    0.1990    0.3228 C   0  0  0  0  0  0  0  0  0  0  0  0
    7.4304   -0.9343    0.3050 O   0  0  0  0  0  0  0  0  0  0  0  0
    6.0935   -0.6905    0.1574 C   0  0  0  0  0  0  0  0  0  0  0  0
    5.4910    0.5623    0.0611 C   0  0  0  0  0  0  0  0  0  0  0  0
    4.1009    0.6705   -0.0873 C   0  0  0  0  0  0  0  0  0  0  0  0
    3.2999   -0.4704   -0.1482 C   0  0  0  0  0  0  0  0  0  0  0  0
    1.8981   -0.4360   -0.2789 N   0  0  0  0  0  0  0  0  0  0  0  0
    1.1144    0.6441   -0.6225 C   0  0  0  0  0  0  0  0  0  0  0  0
    1.5372    1.7218   -1.0306 O   0  0  0  0  0  0  0  0  0  0  0  0
   -0.2630    0.3874   -0.4995 N   0  0  0  0  0  0  0  0  0  0  0  0
   -1.1460    1.4431   -0.9917 C   0  0  0  0  0  0  0  0  0  0  0  0
   -2.5548    0.9346   -1.2711 C   0  0  0  0  0  0  0  0  0  0  0  0
   -3.1237    0.2206   -0.0418 C   0  0  0  0  0  0  0  0  0  0  0  0
   -4.4794   -0.2495   -0.2714 N   0  0  0  0  0  0  0  0  0  0  0  0
   -4.8691   -1.2428   -1.1999 C   0  0  0  0  0  0  0  0  0  0  0  0
   -4.1597   -1.9064   -1.9369 O   0  0  0  0  0  0  0  0  0  0  0  0
   -6.2661   -1.3347   -1.1267 N   0  0  0  0  0  0  0  0  0  0  0  0
   -6.7340   -0.4136   -0.1999 C   0  0  0  0  0  0  0  0  0  0  0  0
   -8.0318   -0.1519    0.1759 C   0  0  0  0  0  0  0  0  0  0  0  0
   -8.2203    0.8474    1.1341 C   0  0  0  0  0  0  0  0  0  0  0  0
   -7.1219    1.5455    1.6782 C   0  0  0  0  0  0  0  0  0  0  0  0
   -5.8105    1.2591    1.2771 C   0  0  0  0  0  0  0  0  0  0  0  0
   -5.6392    0.2688    0.3330 C   0  0  0  0  0  0  0  0  0  0  0  0
   -2.1833   -0.9141    0.3811 C   0  0  0  0  0  0  0  0  0  0  0  0
   -0.7795   -0.3808    0.6377 C   0  0  0  0  0  0  0  0  0  0  0  0
    3.9068   -1.7254   -0.0408 C   0  0  0  0  0  0  0  0  0  0  0  0
    5.2929   -1.8321    0.1083 C   0  0  0  0  0  0  0  0  0  0  0  0
    9.8339   -0.8842    1.3899 H   0  0  0  0  0  0  0  0  0  0  0  0
   10.4294    0.5299    0.4874 H   0  0  0  0  0  0  0  0  0  0  0  0
    9.9823   -0.9697   -0.3614 H   0  0  0  0  0  0  0  0  0  0  0  0
    8.2095    0.7606   -0.6146 H   0  0  0  0  0  0  0  0  0  0  0  0
    8.0579    0.8466    1.1742 H   0  0  0  0  0  0  0  0  0  0  0  0
    6.0665    1.4810    0.0990 H   0  0  0  0  0  0  0  0  0  0  0  0
    3.6712    1.6662   -0.1472 H   0  0  0  0  0  0  0  0  0  0  0  0
    1.4369   -1.3285   -0.3692 H   0  0  0  0  0  0  0  0  0  0  0  0
   -1.1648    2.2413   -0.2391 H   0  0  0  0  0  0  0  0  0  0  0  0
   -0.7306    1.8712   -1.9116 H   0  0  0  0  0  0  0  0  0  0  0  0
   -2.5275    0.2506   -2.1286 H   0  0  0  0  0  0  0  0  0  0  0  0
   -3.2005    1.7734   -1.5571 H   0  0  0  0  0  0  0  0  0  0  0  0
   -3.1516    0.9425    0.7829 H   0  0  0  0  0  0  0  0  0  0  0  0
   -6.8119   -1.9650   -1.6902 H   0  0  0  0  0  0  0  0  0  0  0  0
   -8.8712   -0.6892   -0.2482 H   0  0  0  0  0  0  0  0  0  0  0  0
   -9.2272    1.0936    1.4653 H   0  0  0  0  0  0  0  0  0  0  0  0
   -7.2989    2.3205    2.4217 H   0  0  0  0  0  0  0  0  0  0  0  0
   -4.9798    1.8061    1.7043 H   0  0  0  0  0  0  0  0  0  0  0  0
   -2.1315   -1.6832   -0.3984 H   0  0  0  0  0  0  0  0  0  0  0  0
   -2.5645   -1.4045    1.2847 H   0  0  0  0  0  0  0  0  0  0  0  0
   -0.7773    0.2898    1.5064 H   0  0  0  0  0  0  0  0  0  0  0  0
   -0.1206   -1.2158    0.8897 H   0  0  0  0  0  0  0  0  0  0  0  0
    3.3165   -2.6368   -0.0750 H   0  0  0  0  0  0  0  0  0  0  0  0
    5.7524   -2.8143    0.1857 H   0  0  0  0  0  0  0  0  0  0  0  0
  1  2  1  0
  2  3  1  0
  3  4  1  0
  4  5  2  0
  5  6  1  0
  6  7  2  0
  7  8  1  0
  8  9  1  0
  9 10  2  0
  9 11  1  0
 11 12  1  0
 12 13  1  0
 13 14  1  0
 14 15  1  0
 15 16  1  0
 16 17  2  0
 16 18  1  0
 18 19  1  0
 19 20  2  0
 20 21  1  0
 21 22  2  0
 22 23  1  0
 23 24  2  0
 14 25  1  0
 25 26  1  0
  7 27  1  0
 27 28  2  0
 28  4  1  0
 26 11  1  0
 24 15  1  0
 24 19  1  0
  1 29  1  0
  1 30  1  0
  1 31  1  0
  2 32  1  0
  2 33  1  0
  5 34  1  0
  6 35  1  0
  8 36  1  0
 12 37  1  0
 12 38  1  0
 13 39  1  0
 13 40  1  0
 14 41  1  0
 18 42  1  0
 20 43  1  0
 21 44  1  0
 22 45  1  0
 23 46  1  0
 25 47  1  0
 25 48  1  0
 26 49  1  0
 26 50  1  0
 27 51  1  0
 28 52  1  0
M  END
$$$$
