
     RDKit          3D

 53 56  0  0  0  0  0  0  0  0999 V2000
   -6.1429    1.3259    2.2644 C   0  0  0  0  0  0  0  0  0  0  0  0
   -5.8458    0.5800    1.0911 O   0  0  0  0  0  0  0  0  0  0  0  0
   -6.2142    1.2807   -0.0912 C   0  0  0  0  0  0  0  0  0  0  0  0
   -5.9052    0.4608   -1.3491 C   0  0  0  0  0  0  0  0  0  0  0  0
   -6.5859   -0.9120   -1.3640 C   0  0  0  0  0  0  0  0  0  0  0  0
   -5.5703   -1.8487   -0.7334 C   0  0  0  0  0  0  0  0  0  0  0  0
   -4.2840   -1.2764   -1.0723 N   0  0  0  0  0  0  0  0  0  0  0  0
   -3.1141   -1.9700   -0.7847 C   0  0  0  0  0  0  0  0  0  0  0  0
   -3.1636   -3.0912   -0.2716 O   0  0  0  0  0  0  0  0  0  0  0  0
   -1.8046   -1.3699   -1.0945 C   0  0  0  0  0  0  0  0  0  0  0  0
   -0.5469   -1.8621   -0.6430 C   0  0  0  0  0  0  0  0  0  0  0  0
    0.3841   -1.0064   -1.1775 C   0  0  0  0  0  0  0  0  0  0  0  0
    1.8587   -0.9125   -1.1137 C   0  0  0  0  0  0  0  0  0  0  0  0
    2.1875   -0.6651    0.2593 O   0  0  0  0  0  0  0  0  0  0  0  0
    3.5396   -0.4537    0.3865 C   0  0  0  0  0  0  0  0  0  0  0  0
    4.3529   -1.5681    0.5803 C   0  0  0  0  0  0  0  0  0  0  0  0
    5.7281   -1.4050    0.7214 C   0  0  0  0  0  0  0  0  0  0  0  0
    6.2943   -0.1259    0.6855 C   0  0  0  0  0  0  0  0  0  0  0  0
    7.6429    0.1157    0.8123 O   0  0  0  0  0  0  0  0  0  0  0  0
    8.4909   -0.9898    1.0931 C   0  0  0  0  0  0  0  0  0  0  0  0
    5.4689    1.0186    0.5130 C   0  0  0  0  0  0  0  0  0  0  0  0
    5.9914    2.3320    0.4798 C   0  0  0  0  0  0  0  0  0  0  0  0
    5.1668    3.4487    0.3258 C   0  0  0  0  0  0  0  0  0  0  0  0
    3.7942    3.2814    0.2060 C   0  0  0  0  0  0  0  0  0  0  0  0
    3.2500    1.9974    0.2329 C   0  0  0  0  0  0  0  0  0  0  0  0
    4.0675    0.8533    0.3758 C   0  0  0  0  0  0  0  0  0  0  0  0
   -0.2569   -0.0673   -1.9209 O   0  0  0  0  0  0  0  0  0  0  0  0
   -1.6180   -0.2958   -1.8829 N   0  0  0  0  0  0  0  0  0  0  0  0
   -4.4175    0.1145   -1.4833 C   0  0  0  0  0  0  0  0  0  0  0  0
   -5.6073    2.2809    2.2586 H   0  0  0  0  0  0  0  0  0  0  0  0
   -7.2215    1.4982    2.3430 H   0  0  0  0  0  0  0  0  0  0  0  0
   -5.8170    0.7465    3.1326 H   0  0  0  0  0  0  0  0  0  0  0  0
   -5.6688    2.2305   -0.1318 H   0  0  0  0  0  0  0  0  0  0  0  0
   -7.2873    1.5025   -0.0584 H   0  0  0  0  0  0  0  0  0  0  0  0
   -6.2315    1.0548   -2.2116 H   0  0  0  0  0  0  0  0  0  0  0  0
   -7.5514   -0.9327   -0.8513 H   0  0  0  0  0  0  0  0  0  0  0  0
   -6.7555   -1.2130   -2.4057 H   0  0  0  0  0  0  0  0  0  0  0  0
   -5.6606   -1.8804    0.3578 H   0  0  0  0  0  0  0  0  0  0  0  0
   -5.6521   -2.8708   -1.1152 H   0  0  0  0  0  0  0  0  0  0  0  0
   -0.3688   -2.7144   -0.0030 H   0  0  0  0  0  0  0  0  0  0  0  0
    2.3012   -1.8600   -1.4466 H   0  0  0  0  0  0  0  0  0  0  0  0
    2.2205   -0.1007   -1.7578 H   0  0  0  0  0  0  0  0  0  0  0  0
    3.9162   -2.5620    0.6237 H   0  0  0  0  0  0  0  0  0  0  0  0
    6.3309   -2.2964    0.8601 H   0  0  0  0  0  0  0  0  0  0  0  0
    9.5104   -0.6090    1.2103 H   0  0  0  0  0  0  0  0  0  0  0  0
    8.4957   -1.7016    0.2625 H   0  0  0  0  0  0  0  0  0  0  0  0
    8.2098   -1.4755    2.0322 H   0  0  0  0  0  0  0  0  0  0  0  0
    7.0641    2.4917    0.5806 H   0  0  0  0  0  0  0  0  0  0  0  0
    5.5998    4.4446    0.3059 H   0  0  0  0  0  0  0  0  0  0  0  0
    3.1459    4.1455    0.0940 H   0  0  0  0  0  0  0  0  0  0  0  0
    2.1699    1.8896    0.1484 H   0  0  0  0  0  0  0  0  0  0  0  0
   -4.1142    0.1789   -2.5339 H   0  0  0  0  0  0  0  0  0  0  0  0
   -3.7763    0.7638   -0.8791 H   0  0  0  0  0  0  0  0  0  0  0  0
  1  2  1  0
  2  3  1  0
  3  4  1  0
  4  5  1  0
  5  6  1  0
  6  7  1  0
  7  8  1  0
  8  9  2  0
  8 10  1  0
 10 11  1  0
 11 12  2  0
 12 13  1  0
 13 14  1  0
 14 15  1  0
 15 16  2  0
 16 17  1  0
 17 18  2  0
 18 19  1  0
 19 20  1  0
 18 21  1  0
 21 22  2  0
 22 23  1  0
 23 24  2  0
 24 25  1  0
 25 26  2  0
 12 27  1  0
 27 28  1  0
  7 29  1  0
 29  4  1  0
 28 10  2  0
 26 15  1  0
 26 21  1  0
  1 30  1  0
  1 31  1  0
  1 32  1  0
  3 33  1  0
  3 34  1  0
  4 35  1  0
  5 36  1  0
  5 37  1  0
  6 38  1  0
  6 39  1  0
 11 40  1  0
 13 41  1  0
 13 42  1  0
 16 43  1  0
 17 44  1  0
 20 45  1  0
 20 46  1  0
 20 47  1  0
 22 48  1  0
 23 49  1  0
 24 50  1  0
 25 51  1  0
 29 52  1  0
 29 53  1  0
M  END
$$$$
