
     RDKit          3D

 40 43  0  0  0  0  0  0  0  0999 V2000
    1.5515    0.1715   -2.3828 O   0  0  0  0  0  0  0  0  0  0  0  0
    2.1139    0.8885   -1.2599 S   0  0  0  0  0  6  0  0  0  0  0  0
    2.5839    2.2520   -1.3688 O   0  0  0  0  0  0  0  0  0  0  0  0
    3.4250   -0.0416   -0.5708 C   0  0  0  0  0  0  0  0  0  0  0  0
    3.6831   -0.0361    0.8198 C   0  0  0  0  0  0  0  0  0  0  0  0
    4.7416   -0.7747    1.4068 C   0  0  0  0  0  0  0  0  0  0  0  0
    5.6272   -1.5682    0.6550 C   0  0  0  0  0  0  0  0  0  0  0  0
    5.3906   -1.5693   -0.7335 C   0  0  0  0  0  0  0  0  0  0  0  0
    6.0591   -2.2119   -1.6971 N   0  0  0  0  0  0  0  0  0  0  0  0
    5.4312   -1.8718   -2.8815 O   0  0  0  0  0  0  0  0  0  0  0  0
    4.3640   -1.0201   -2.6700 N   0  0  0  0  0  0  0  0  0  0  0  0
    4.3028   -0.8127   -1.3485 C   0  0  0  0  0  0  0  0  0  0  0  0
    0.9160    0.8487   -0.0344 N   0  0  0  0  0  0  0  0  0  0  0  0
    0.2611   -0.4914    0.1668 C   0  0  0  0  0  0  0  0  0  0  0  0
   -1.1363   -0.5793   -0.4753 C   0  0  0  0  0  0  0  0  0  0  0  0
   -2.0323    0.4469    0.0809 N   0  0  0  0  0  0  0  0  0  0  0  0
   -3.3993    0.2371    0.2086 C   0  0  0  0  0  0  0  0  0  0  0  0
   -4.0691   -0.6919   -0.6087 C   0  0  0  0  0  0  0  0  0  0  0  0
   -5.4489   -0.9189   -0.5055 C   0  0  0  0  0  0  0  0  0  0  0  0
   -6.2069   -0.2180    0.4252 C   0  0  0  0  0  0  0  0  0  0  0  0
   -5.5821    0.7097    1.2489 C   0  0  0  0  0  0  0  0  0  0  0  0
   -4.2066    0.9288    1.1366 C   0  0  0  0  0  0  0  0  0  0  0  0
   -3.6638    1.8190    1.9844 F   0  0  0  0  0  0  0  0  0  0  0  0
   -1.3985    1.6807    0.5756 C   0  0  0  0  0  0  0  0  0  0  0  0
   -0.0849    1.9650   -0.1757 C   0  0  0  0  0  0  0  0  0  0  0  0
    3.0546    0.5690    1.4758 H   0  0  0  0  0  0  0  0  0  0  0  0
    4.8798   -0.7195    2.4877 H   0  0  0  0  0  0  0  0  0  0  0  0
    6.4374   -2.1291    1.1040 H   0  0  0  0  0  0  0  0  0  0  0  0
    0.1855   -0.6509    1.2500 H   0  0  0  0  0  0  0  0  0  0  0  0
    0.8924   -1.2999   -0.2167 H   0  0  0  0  0  0  0  0  0  0  0  0
   -1.5217   -1.5862   -0.2754 H   0  0  0  0  0  0  0  0  0  0  0  0
   -1.0679   -0.4491   -1.5613 H   0  0  0  0  0  0  0  0  0  0  0  0
   -3.5281   -1.2439   -1.3731 H   0  0  0  0  0  0  0  0  0  0  0  0
   -5.9268   -1.6411   -1.1632 H   0  0  0  0  0  0  0  0  0  0  0  0
   -7.2763   -0.3918    0.5060 H   0  0  0  0  0  0  0  0  0  0  0  0
   -6.1504    1.2676    1.9862 H   0  0  0  0  0  0  0  0  0  0  0  0
   -1.1980    1.5823    1.6492 H   0  0  0  0  0  0  0  0  0  0  0  0
   -2.0553    2.5448    0.4203 H   0  0  0  0  0  0  0  0  0  0  0  0
   -0.3129    2.1251   -1.2371 H   0  0  0  0  0  0  0  0  0  0  0  0
    0.3653    2.8806    0.2233 H   0  0  0  0  0  0  0  0  0  0  0  0
  1  2  2  0
  2  3  2  0
  2  4  1  0
  4  5  2  0
  5  6  1  0
  6  7  2  0
  7  8  1  0
  8  9  2  0
  9 10  1  0
 10 11  1  0
 11 12  2  0
  2 13  1  0
 13 14  1  0
 14 15  1  0
 15 16  1  0
 16 17  1  0
 17 18  2  0
 18 19  1  0
 19 20  2  0
 20 21  1  0
 21 22  2  0
 22 23  1  0
 16 24  1  0
 24 25  1  0
 12  4  1  0
 25 13  1  0
 12  8  1  0
 22 17  1  0
  5 26  1  0
  6 27  1  0
  7 28  1  0
 14 29  1  0
 14 30  1  0
 15 31  1  0
 15 32  1  0
 18 33  1  0
 19 34  1  0
 20 35  1  0
 21 36  1  0
 24 37  1  0
 24 38  1  0
 25 39  1  0
 25 40  1  0
M  END
$$$$
