
     RDKit          3D

 65 68  0  0  0  0  0  0  0  0999 V2000
    8.4057    0.8005    0.9082 C   0  0  0  0  0  0  0  0  0  0  0  0
    7.1257    0.3422    0.2727 C   0  0  0  0  0  0  0  0  0  0  0  0
    6.7908    0.7558   -1.0238 C   0  0  0  0  0  0  0  0  0  0  0  0
    5.6146    0.3089   -1.6278 C   0  0  0  0  0  0  0  0  0  0  0  0
    4.7692   -0.5563   -0.9288 C   0  0  0  0  0  0  0  0  0  0  0  0
    3.2893   -1.1459   -1.7097 S   0  0  0  0  0  6  0  0  0  0  0  0
    2.8587   -2.3404   -1.0061 O   0  0  0  0  0  0  0  0  0  0  0  0
    3.5735   -1.2228   -3.1336 O   0  0  0  0  0  0  0  0  0  0  0  0
    2.0744    0.1140   -1.4819 C   0  0  0  0  0  0  0  0  0  0  0  0
    1.7300    0.4248   -0.1213 N   0  0  0  0  0  0  0  0  0  0  0  0
    2.5812    1.1628    0.6156 N   0  0  0  0  0  0  0  0  0  0  0  0
    1.9515    1.4065    1.7521 N   0  0  0  0  0  0  0  0  0  0  0  0
    0.6887    0.8827    1.7316 N   0  0  0  0  0  0  0  0  0  0  0  0
    0.5497    0.2753    0.5670 C   0  0  0  0  0  0  0  0  0  0  0  0
   -0.7164   -0.3680    0.0686 C   0  0  0  0  0  0  0  0  0  0  0  0
   -0.5673   -1.9171    0.0470 C   0  0  0  0  0  0  0  0  0  0  0  0
   -0.4140   -2.6592    1.4015 C   0  0  0  0  0  0  0  0  0  0  0  0
   -1.4842   -2.2657    2.4202 C   0  0  0  0  0  0  0  0  0  0  0  0
    0.9763   -2.5724    2.0267 C   0  0  0  0  0  0  0  0  0  0  0  0
   -1.0980    0.2451   -1.2411 N   0  0  0  0  0  0  0  0  0  0  0  0
   -2.2555   -0.4018   -1.9111 C   0  0  0  0  0  0  0  0  0  0  0  0
   -3.6138   -0.2426   -1.1868 C   0  0  0  0  0  0  0  0  0  0  0  0
   -3.9176    1.1895   -0.9680 N   0  0  0  0  0  0  0  0  0  0  0  0
   -5.2263    1.4428   -0.5229 C   0  0  0  0  0  0  0  0  0  0  0  0
   -6.3223    0.9997   -1.2845 C   0  0  0  0  0  0  0  0  0  0  0  0
   -7.6435    1.2349   -0.8878 C   0  0  0  0  0  0  0  0  0  0  0  0
   -7.9027    1.9323    0.2854 C   0  0  0  0  0  0  0  0  0  0  0  0
   -6.8406    2.3994    1.0509 C   0  0  0  0  0  0  0  0  0  0  0  0
   -5.5206    2.1620    0.6460 C   0  0  0  0  0  0  0  0  0  0  0  0
   -2.8151    1.9494   -0.3460 C   0  0  0  0  0  0  0  0  0  0  0  0
   -1.4767    1.6863   -1.0819 C   0  0  0  0  0  0  0  0  0  0  0  0
    5.1077   -1.0070    0.3488 C   0  0  0  0  0  0  0  0  0  0  0  0
    6.2842   -0.5532    0.9467 C   0  0  0  0  0  0  0  0  0  0  0  0
    9.2132    0.1015    0.6693 H   0  0  0  0  0  0  0  0  0  0  0  0
    8.3005    0.8627    1.9964 H   0  0  0  0  0  0  0  0  0  0  0  0
    8.6836    1.7980    0.5516 H   0  0  0  0  0  0  0  0  0  0  0  0
    7.4500    1.4265   -1.5714 H   0  0  0  0  0  0  0  0  0  0  0  0
    5.3791    0.6305   -2.6395 H   0  0  0  0  0  0  0  0  0  0  0  0
    2.4322    1.0296   -1.9642 H   0  0  0  0  0  0  0  0  0  0  0  0
    1.1923   -0.2253   -2.0244 H   0  0  0  0  0  0  0  0  0  0  0  0
   -1.5051   -0.1421    0.7934 H   0  0  0  0  0  0  0  0  0  0  0  0
   -1.4751   -2.3499   -0.3877 H   0  0  0  0  0  0  0  0  0  0  0  0
    0.2497   -2.2109   -0.6212 H   0  0  0  0  0  0  0  0  0  0  0  0
   -0.5727   -3.7228    1.1727 H   0  0  0  0  0  0  0  0  0  0  0  0
   -1.4604   -2.9424    3.2813 H   0  0  0  0  0  0  0  0  0  0  0  0
   -2.4845   -2.3250    1.9789 H   0  0  0  0  0  0  0  0  0  0  0  0
   -1.3328   -1.2495    2.7976 H   0  0  0  0  0  0  0  0  0  0  0  0
    1.0634   -3.2905    2.8502 H   0  0  0  0  0  0  0  0  0  0  0  0
    1.7529   -2.8191    1.2994 H   0  0  0  0  0  0  0  0  0  0  0  0
    1.1881   -1.5867    2.4448 H   0  0  0  0  0  0  0  0  0  0  0  0
   -2.0546   -1.4570   -2.1190 H   0  0  0  0  0  0  0  0  0  0  0  0
   -2.3491    0.0485   -2.9099 H   0  0  0  0  0  0  0  0  0  0  0  0
   -4.3709   -0.7262   -1.8136 H   0  0  0  0  0  0  0  0  0  0  0  0
   -3.5972   -0.7713   -0.2256 H   0  0  0  0  0  0  0  0  0  0  0  0
   -6.1573    0.4867   -2.2284 H   0  0  0  0  0  0  0  0  0  0  0  0
   -8.4647    0.8807   -1.5048 H   0  0  0  0  0  0  0  0  0  0  0  0
   -8.9264    2.1194    0.5969 H   0  0  0  0  0  0  0  0  0  0  0  0
   -7.0328    2.9523    1.9667 H   0  0  0  0  0  0  0  0  0  0  0  0
   -4.7311    2.5449    1.2847 H   0  0  0  0  0  0  0  0  0  0  0  0
   -2.7109    1.6832    0.7122 H   0  0  0  0  0  0  0  0  0  0  0  0
   -3.0227    3.0250   -0.4067 H   0  0  0  0  0  0  0  0  0  0  0  0
   -0.6763    2.2516   -0.5917 H   0  0  0  0  0  0  0  0  0  0  0  0
   -1.5466    2.1184   -2.0899 H   0  0  0  0  0  0  0  0  0  0  0  0
    4.4683   -1.7012    0.8895 H   0  0  0  0  0  0  0  0  0  0  0  0
    6.5416   -0.9021    1.9450 H   0  0  0  0  0  0  0  0  0  0  0  0
  1  2  1  0
  2  3  2  0
  3  4  1  0
  4  5  2  0
  5  6  1  0
  6  7  2  0
  6  8  2  0
  6  9  1  0
  9 10  1  0
 10 11  1  0
 11 12  2  0
 12 13  1  0
 13 14  2  0
 14 15  1  0
 15 16  1  0
 16 17  1  0
 17 18  1  0
 17 19  1  0
 15 20  1  0
 20 21  1  0
 21 22  1  0
 22 23  1  0
 23 24  1  0
 24 25  2  0
 25 26  1  0
 26 27  2  0
 27 28  1  0
 28 29  2  0
 23 30  1  0
 30 31  1  0
  5 32  1  0
 32 33  2  0
 33  2  1  0
 14 10  1  0
 31 20  1  0
 29 24  1  0
  1 34  1  0
  1 35  1  0
  1 36  1  0
  3 37  1  0
  4 38  1  0
  9 39  1  0
  9 40  1  0
 15 41  1  0
 16 42  1  0
 16 43  1  0
 17 44  1  0
 18 45  1  0
 18 46  1  0
 18 47  1  0
 19 48  1  0
 19 49  1  0
 19 50  1  0
 21 51  1  0
 21 52  1  0
 22 53  1  0
 22 54  1  0
 25 55  1  0
 26 56  1  0
 27 57  1  0
 28 58  1  0
 29 59  1  0
 30 60  1  0
 30 61  1  0
 31 62  1  0
 31 63  1  0
 32 64  1  0
 33 65  1  0
M  END
$$$$
