
     RDKit          3D

 60 64  0  0  0  0  0  0  0  0999 V2000
    3.2986    1.6107   -1.9638 O   0  0  0  0  0  0  0  0  0  0  0  0
    2.9027    0.7003   -1.2479 C   0  0  0  0  0  0  0  0  0  0  0  0
    3.6620   -0.1185   -0.4349 N   0  0  0  0  0  0  0  0  0  0  0  0
    5.0419   -0.0035   -0.1628 C   0  0  0  0  0  0  0  0  0  0  0  0
    5.6237   -1.0042    0.6284 C   0  0  0  0  0  0  0  0  0  0  0  0
    6.9820   -0.9529    0.9649 C   0  0  0  0  0  0  0  0  0  0  0  0
    7.7752    0.1038    0.5111 C   0  0  0  0  0  0  0  0  0  0  0  0
    9.2148    0.1826    0.8647 C   0  0  0  0  0  0  0  0  0  0  0  0
    9.9045    1.2811    0.6794 N   0  0  0  0  0  0  0  0  0  0  0  0
   11.2711    0.9565    1.1680 C   0  0  0  0  0  0  0  0  0  0  0  0
   11.3177   -0.5635    1.3251 C   0  0  0  0  0  0  0  0  0  0  0  0
    9.9099   -0.8889    1.3814 N   0  0  0  0  0  0  0  0  0  0  0  0
    7.1986    1.1064   -0.2720 C   0  0  0  0  0  0  0  0  0  0  0  0
    5.8402    1.0513   -0.6090 C   0  0  0  0  0  0  0  0  0  0  0  0
    1.4434    0.4032   -1.2581 C   0  0  0  0  0  0  0  0  0  0  0  0
    0.7630    0.0162   -0.0928 C   0  0  0  0  0  0  0  0  0  0  0  0
   -0.6170   -0.2223   -0.1266 C   0  0  0  0  0  0  0  0  0  0  0  0
   -1.3317   -0.0531   -1.3218 C   0  0  0  0  0  0  0  0  0  0  0  0
   -2.7742   -0.3802   -1.3614 C   0  0  0  0  0  0  0  0  0  0  0  0
   -3.1441   -1.1509   -2.2360 O   0  0  0  0  0  0  0  0  0  0  0  0
   -3.5265    0.2151   -0.3678 N   0  0  0  0  0  0  0  0  0  0  0  0
   -4.9161    0.0865   -0.1622 C   0  0  0  0  0  0  0  0  0  0  0  0
   -5.7631   -0.6530   -0.9895 C   0  0  0  0  0  0  0  0  0  0  0  0
   -7.1366   -0.7274   -0.7201 C   0  0  0  0  0  0  0  0  0  0  0  0
   -7.6744   -0.0702    0.3885 C   0  0  0  0  0  0  0  0  0  0  0  0
   -9.1266   -0.1403    0.6939 C   0  0  0  0  0  0  0  0  0  0  0  0
   -9.6585    0.5813    1.6517 N   0  0  0  0  0  0  0  0  0  0  0  0
  -11.1062    0.2406    1.6213 C   0  0  0  0  0  0  0  0  0  0  0  0
  -11.2340   -1.0086    0.7507 C   0  0  0  0  0  0  0  0  0  0  0  0
   -9.9886   -0.9745    0.0170 N   0  0  0  0  0  0  0  0  0  0  0  0
   -6.8314    0.6773    1.2151 C   0  0  0  0  0  0  0  0  0  0  0  0
   -5.4629    0.7564    0.9387 C   0  0  0  0  0  0  0  0  0  0  0  0
   -0.6432    0.3410   -2.4719 C   0  0  0  0  0  0  0  0  0  0  0  0
   -1.3567    0.5960   -3.7075 N   0  0  0  0  0  4  0  0  0  0  0  0
   -0.9593   -0.0011   -4.7168 O   0  0  0  0  0  0  0  0  0  0  0  0
   -2.2468    1.4564   -3.6716 O   0  0  0  0  0  1  0  0  0  0  0  0
    0.7375    0.5757   -2.4539 C   0  0  0  0  0  0  0  0  0  0  0  0
    3.2055   -0.9248   -0.0292 H   0  0  0  0  0  0  0  0  0  0  0  0
    5.0312   -1.8361    1.0012 H   0  0  0  0  0  0  0  0  0  0  0  0
    7.3992   -1.7282    1.6006 H   0  0  0  0  0  0  0  0  0  0  0  0
   12.0267    1.3067    0.4583 H   0  0  0  0  0  0  0  0  0  0  0  0
   11.4327    1.4596    2.1284 H   0  0  0  0  0  0  0  0  0  0  0  0
   11.7780   -1.0315    0.4491 H   0  0  0  0  0  0  0  0  0  0  0  0
   11.8504   -0.8749    2.2262 H   0  0  0  0  0  0  0  0  0  0  0  0
    9.6546   -1.8041    1.0310 H   0  0  0  0  0  0  0  0  0  0  0  0
    7.8016    1.9407   -0.6244 H   0  0  0  0  0  0  0  0  0  0  0  0
    5.4392    1.8588   -1.2145 H   0  0  0  0  0  0  0  0  0  0  0  0
    1.2896   -0.0799    0.8544 H   0  0  0  0  0  0  0  0  0  0  0  0
   -1.1198   -0.5561    0.7791 H   0  0  0  0  0  0  0  0  0  0  0  0
   -3.0528    0.8504    0.2622 H   0  0  0  0  0  0  0  0  0  0  0  0
   -5.3932   -1.1707   -1.8687 H   0  0  0  0  0  0  0  0  0  0  0  0
   -7.7697   -1.2841   -1.4041 H   0  0  0  0  0  0  0  0  0  0  0  0
  -11.6580    1.0826    1.1919 H   0  0  0  0  0  0  0  0  0  0  0  0
  -11.4800    0.0604    2.6330 H   0  0  0  0  0  0  0  0  0  0  0  0
  -11.2844   -1.9122    1.3654 H   0  0  0  0  0  0  0  0  0  0  0  0
  -12.1027   -0.9684    0.0912 H   0  0  0  0  0  0  0  0  0  0  0  0
   -9.6183   -1.8708   -0.2751 H   0  0  0  0  0  0  0  0  0  0  0  0
   -7.2388    1.2051    2.0744 H   0  0  0  0  0  0  0  0  0  0  0  0
   -4.8381    1.3499    1.6010 H   0  0  0  0  0  0  0  0  0  0  0  0
    1.2581    0.9025   -3.3540 H   0  0  0  0  0  0  0  0  0  0  0  0
  1  2  2  0
  2  3  1  0
  3  4  1  0
  4  5  2  0
  5  6  1  0
  6  7  2  0
  7  8  1  0
  8  9  2  0
  9 10  1  0
 10 11  1  0
 11 12  1  0
  7 13  1  0
 13 14  2  0
  2 15  1  0
 15 16  2  0
 16 17  1  0
 17 18  2  0
 18 19  1  0
 19 20  2  0
 19 21  1  0
 21 22  1  0
 22 23  2  0
 23 24  1  0
 24 25  2  0
 25 26  1  0
 26 27  2  0
 27 28  1  0
 28 29  1  0
 29 30  1  0
 25 31  1  0
 31 32  2  0
 18 33  1  0
 33 34  1  0
 34 35  2  0
 34 36  1  0
 33 37  2  0
 14  4  1  0
 37 15  1  0
 12  8  1  0
 32 22  1  0
 30 26  1  0
  3 38  1  0
  5 39  1  0
  6 40  1  0
 10 41  1  0
 10 42  1  0
 11 43  1  0
 11 44  1  0
 12 45  1  0
 13 46  1  0
 14 47  1  0
 16 48  1  0
 17 49  1  0
 21 50  1  0
 23 51  1  0
 24 52  1  0
 28 53  1  0
 28 54  1  0
 29 55  1  0
 29 56  1  0
 30 57  1  0
 31 58  1  0
 32 59  1  0
 37 60  1  0
M  CHG  2  34   1  36  -1
M  END
$$$$
