
     RDKit          3D

 53 56  0  0  0  0  0  0  0  0999 V2000
   -6.1613   -0.2705    1.7561 C   0  0  0  0  0  0  0  0  0  0  0  0
   -5.8026    0.8083    0.7056 C   0  0  0  0  0  0  0  0  0  0  0  0
   -6.2424    2.1686    1.2949 C   0  0  0  0  0  0  0  0  0  0  0  0
   -6.6266    0.5619   -0.5780 C   0  0  0  0  0  0  0  0  0  0  0  0
   -4.3060    0.7474    0.3482 C   0  0  0  0  0  0  0  0  0  0  0  0
   -3.7048   -0.4756    0.0010 C   0  0  0  0  0  0  0  0  0  0  0  0
   -2.3524   -0.5640   -0.3604 C   0  0  0  0  0  0  0  0  0  0  0  0
   -1.5554    0.5801   -0.4007 C   0  0  0  0  0  0  0  0  0  0  0  0
   -0.1827    0.5537   -0.7923 N   0  0  0  0  0  0  0  0  0  0  0  0
    0.4355    1.7291   -1.0986 N   0  0  0  0  0  0  0  0  0  0  0  0
    1.6502    1.3955   -1.5291 C   0  0  0  0  0  0  0  0  0  0  0  0
    1.8823    0.0216   -1.4447 C   0  0  0  0  0  0  0  0  0  0  0  0
    0.7046   -0.5037   -0.9444 C   0  0  0  0  0  0  0  0  0  0  0  0
    0.5022   -1.9462   -0.6346 C   0  0  0  0  0  0  0  0  0  0  0  0
    1.8547   -2.6850   -0.5907 C   0  0  0  0  0  0  0  0  0  0  0  0
    2.7743   -2.2862   -1.7584 C   0  0  0  0  0  0  0  0  0  0  0  0
    3.1044   -0.7741   -1.7504 C   0  0  0  0  0  0  0  0  0  0  0  0
    4.0853   -0.4540   -0.7379 N   0  0  0  0  0  0  0  0  0  0  0  0
    5.4306   -0.6943   -0.9024 C   0  0  0  0  0  0  0  0  0  0  0  0
    5.9283   -1.1499   -1.9247 O   0  0  0  0  0  0  0  0  0  0  0  0
    6.2702   -0.3549    0.2804 C   0  0  0  0  0  0  0  0  0  0  0  0
    7.6441   -0.5478    0.2368 C   0  0  0  0  0  0  0  0  0  0  0  0
    8.4532   -0.2399    1.2849 N   0  0  0  0  0  0  0  0  0  0  0  0
    7.8239    0.2705    2.3698 C   0  0  0  0  0  0  0  0  0  0  0  0
    6.4485    0.4614    2.4130 C   0  0  0  0  0  0  0  0  0  0  0  0
    5.6313    0.1514    1.3770 N   0  0  0  0  0  0  0  0  0  0  0  0
   -2.1455    1.8105   -0.0757 C   0  0  0  0  0  0  0  0  0  0  0  0
   -3.4938    1.8894    0.2997 C   0  0  0  0  0  0  0  0  0  0  0  0
   -7.2087   -0.1853    2.0694 H   0  0  0  0  0  0  0  0  0  0  0  0
   -6.0319   -1.2896    1.3728 H   0  0  0  0  0  0  0  0  0  0  0  0
   -5.5352   -0.1710    2.6535 H   0  0  0  0  0  0  0  0  0  0  0  0
   -5.6715    2.4200    2.1985 H   0  0  0  0  0  0  0  0  0  0  0  0
   -6.1168    2.9855    0.5726 H   0  0  0  0  0  0  0  0  0  0  0  0
   -7.3043    2.1523    1.5715 H   0  0  0  0  0  0  0  0  0  0  0  0
   -7.7030    0.6218   -0.3764 H   0  0  0  0  0  0  0  0  0  0  0  0
   -6.4330   -0.4285   -1.0090 H   0  0  0  0  0  0  0  0  0  0  0  0
   -6.3868    1.3079   -1.3485 H   0  0  0  0  0  0  0  0  0  0  0  0
   -4.2937   -1.3914   -0.0199 H   0  0  0  0  0  0  0  0  0  0  0  0
   -1.9904   -1.5408   -0.6546 H   0  0  0  0  0  0  0  0  0  0  0  0
    2.3231    2.1754   -1.8633 H   0  0  0  0  0  0  0  0  0  0  0  0
    0.0019   -2.0797    0.3307 H   0  0  0  0  0  0  0  0  0  0  0  0
   -0.1131   -2.4017   -1.4175 H   0  0  0  0  0  0  0  0  0  0  0  0
    2.3606   -2.4642    0.3577 H   0  0  0  0  0  0  0  0  0  0  0  0
    1.6752   -3.7677   -0.6084 H   0  0  0  0  0  0  0  0  0  0  0  0
    2.2691   -2.5381   -2.6976 H   0  0  0  0  0  0  0  0  0  0  0  0
    3.6908   -2.8842   -1.7204 H   0  0  0  0  0  0  0  0  0  0  0  0
    3.5143   -0.4931   -2.7276 H   0  0  0  0  0  0  0  0  0  0  0  0
    3.7848   -0.1339    0.1789 H   0  0  0  0  0  0  0  0  0  0  0  0
    8.1384   -0.9522   -0.6401 H   0  0  0  0  0  0  0  0  0  0  0  0
    8.4626    0.5251    3.2132 H   0  0  0  0  0  0  0  0  0  0  0  0
    5.9663    0.8730    3.2930 H   0  0  0  0  0  0  0  0  0  0  0  0
   -1.5650    2.7351   -0.1096 H   0  0  0  0  0  0  0  0  0  0  0  0
   -3.8835    2.8756    0.5366 H   0  0  0  0  0  0  0  0  0  0  0  0
  1  2  1  0
  2  3  1  0
  2  4  1  0
  2  5  1  0
  5  6  2  0
  6  7  1  0
  7  8  2  0
  8  9  1  0
  9 10  1  0
 10 11  2  0
 11 12  1  0
 12 13  2  0
 13 14  1  0
 14 15  1  0
 15 16  1  0
 16 17  1  0
 17 18  1  0
 18 19  1  0
 19 20  2  0
 19 21  1  0
 21 22  2  0
 22 23  1  0
 23 24  2  0
 24 25  1  0
 25 26  2  0
  8 27  1  0
 27 28  2  0
 28  5  1  0
 13  9  1  0
 26 21  1  0
 17 12  1  0
  1 29  1  0
  1 30  1  0
  1 31  1  0
  3 32  1  0
  3 33  1  0
  3 34  1  0
  4 35  1  0
  4 36  1  0
  4 37  1  0
  6 38  1  0
  7 39  1  0
 11 40  1  0
 14 41  1  0
 14 42  1  0
 15 43  1  0
 15 44  1  0
 16 45  1  0
 16 46  1  0
 17 47  1  0
 18 48  1  0
 22 49  1  0
 24 50  1  0
 25 51  1  0
 27 52  1  0
 28 53  1  0
M  END
$$$$
