
     RDKit          3D

 63 67  0  0  0  0  0  0  0  0999 V2000
   -2.1813   -0.3290   -1.9192 O   0  0  0  0  0  0  0  0  0  0  0  0
   -2.5637    0.0087   -0.8057 C   0  0  0  0  0  0  0  0  0  0  0  0
   -3.8703   -0.0755   -0.3880 N   0  0  0  0  0  0  0  0  0  0  0  0
   -4.9299   -0.6427   -1.2065 C   0  0  0  0  0  0  0  0  0  0  0  0
   -4.8410   -2.1718   -1.2855 C   0  0  0  0  0  0  0  0  0  0  0  0
   -5.0495   -2.8123    0.0812 C   0  0  0  0  0  0  0  0  0  0  0  0
   -6.3609   -2.3893    0.7548 C   0  0  0  0  0  0  0  0  0  0  0  0
   -6.9036   -1.0398    0.3475 C   0  0  0  0  0  0  0  0  0  0  0  0
   -8.1027   -0.5942    0.9283 C   0  0  0  0  0  0  0  0  0  0  0  0
   -8.6568    0.6330    0.5655 C   0  0  0  0  0  0  0  0  0  0  0  0
   -8.0195    1.4318   -0.3816 C   0  0  0  0  0  0  0  0  0  0  0  0
   -6.8236    1.0069   -0.9602 C   0  0  0  0  0  0  0  0  0  0  0  0
   -6.2602   -0.2314   -0.6094 C   0  0  0  0  0  0  0  0  0  0  0  0
   -1.5953    0.5553    0.1892 C   0  0  0  0  0  0  0  0  0  0  0  0
   -1.8161    0.4272    1.5709 C   0  0  0  0  0  0  0  0  0  0  0  0
   -0.8804    0.9183    2.4863 C   0  0  0  0  0  0  0  0  0  0  0  0
    0.2890    1.5245    2.0343 C   0  0  0  0  0  0  0  0  0  0  0  0
    0.5182    1.6325    0.6585 C   0  0  0  0  0  0  0  0  0  0  0  0
    2.0420    2.3376    0.0767 S   0  0  0  0  0  6  0  0  0  0  0  0
    2.9312    2.4768    1.2125 O   0  0  0  0  0  0  0  0  0  0  0  0
    1.6982    3.4819   -0.7335 O   0  0  0  0  0  0  0  0  0  0  0  0
    2.6692    1.1197   -0.9249 N   0  0  0  0  0  0  0  0  0  0  0  0
    2.9966   -0.1959   -0.2763 C   0  0  0  0  0  0  0  0  0  0  0  0
    4.3720   -0.1969    0.4210 C   0  0  0  0  0  0  0  0  0  0  0  0
    5.4184    0.2067   -0.5371 N   0  0  0  0  0  0  0  0  0  0  0  0
    6.7516    0.0157   -0.1459 C   0  0  0  0  0  0  0  0  0  0  0  0
    7.7225   -0.1909   -1.1386 C   0  0  0  0  0  0  0  0  0  0  0  0
    9.0626   -0.4210   -0.8139 C   0  0  0  0  0  0  0  0  0  0  0  0
    9.4607   -0.4375    0.5185 C   0  0  0  0  0  0  0  0  0  0  0  0
    8.5177   -0.2248    1.5203 C   0  0  0  0  0  0  0  0  0  0  0  0
    7.1759   -0.0030    1.1896 C   0  0  0  0  0  0  0  0  0  0  0  0
    5.1641    1.5436   -1.1278 C   0  0  0  0  0  0  0  0  0  0  0  0
    3.7891    1.5575   -1.8273 C   0  0  0  0  0  0  0  0  0  0  0  0
   -0.4165    1.1544   -0.2693 C   0  0  0  0  0  0  0  0  0  0  0  0
   -4.1559    0.3964    0.4605 H   0  0  0  0  0  0  0  0  0  0  0  0
   -4.8316   -0.2436   -2.2226 H   0  0  0  0  0  0  0  0  0  0  0  0
   -3.8681   -2.4824   -1.6846 H   0  0  0  0  0  0  0  0  0  0  0  0
   -5.6045   -2.5495   -1.9796 H   0  0  0  0  0  0  0  0  0  0  0  0
   -4.1999   -2.5640    0.7374 H   0  0  0  0  0  0  0  0  0  0  0  0
   -5.0274   -3.9080   -0.0147 H   0  0  0  0  0  0  0  0  0  0  0  0
   -6.1945   -2.3934    1.8447 H   0  0  0  0  0  0  0  0  0  0  0  0
   -7.1377   -3.1461    0.5428 H   0  0  0  0  0  0  0  0  0  0  0  0
   -8.6146   -1.2076    1.6668 H   0  0  0  0  0  0  0  0  0  0  0  0
   -9.5858    0.9675    1.0231 H   0  0  0  0  0  0  0  0  0  0  0  0
   -8.4528    2.3881   -0.6645 H   0  0  0  0  0  0  0  0  0  0  0  0
   -6.3264    1.6432   -1.6905 H   0  0  0  0  0  0  0  0  0  0  0  0
   -2.7004   -0.0793    1.9512 H   0  0  0  0  0  0  0  0  0  0  0  0
   -1.0566    0.8158    3.5542 H   0  0  0  0  0  0  0  0  0  0  0  0
    1.0152    1.8984    2.7544 H   0  0  0  0  0  0  0  0  0  0  0  0
    2.2155   -0.4805    0.4343 H   0  0  0  0  0  0  0  0  0  0  0  0
    2.9830   -0.9571   -1.0662 H   0  0  0  0  0  0  0  0  0  0  0  0
    4.3544    0.4729    1.2884 H   0  0  0  0  0  0  0  0  0  0  0  0
    4.5747   -1.2118    0.7873 H   0  0  0  0  0  0  0  0  0  0  0  0
    7.4274   -0.2001   -2.1848 H   0  0  0  0  0  0  0  0  0  0  0  0
    9.7859   -0.5911   -1.6061 H   0  0  0  0  0  0  0  0  0  0  0  0
   10.5008   -0.6182    0.7767 H   0  0  0  0  0  0  0  0  0  0  0  0
    8.8199   -0.2281    2.5634 H   0  0  0  0  0  0  0  0  0  0  0  0
    6.4768    0.1731    2.0012 H   0  0  0  0  0  0  0  0  0  0  0  0
    5.2063    2.3085   -0.3414 H   0  0  0  0  0  0  0  0  0  0  0  0
    5.9237    1.7975   -1.8764 H   0  0  0  0  0  0  0  0  0  0  0  0
    3.5867    2.5511   -2.2394 H   0  0  0  0  0  0  0  0  0  0  0  0
    3.8041    0.8670   -2.6806 H   0  0  0  0  0  0  0  0  0  0  0  0
   -0.2260    1.2390   -1.3395 H   0  0  0  0  0  0  0  0  0  0  0  0
  1  2  2  0
  2  3  1  0
  3  4  1  0
  4  5  1  0
  5  6  1  0
  6  7  1  0
  7  8  1  0
  8  9  2  0
  9 10  1  0
 10 11  2  0
 11 12  1  0
 12 13  2  0
  2 14  1  0
 14 15  2  0
 15 16  1  0
 16 17  2  0
 17 18  1  0
 18 19  1  0
 19 20  2  0
 19 21  2  0
 19 22  1  0
 22 23  1  0
 23 24  1  0
 24 25  1  0
 25 26  1  0
 26 27  2  0
 27 28  1  0
 28 29  2  0
 29 30  1  0
 30 31  2  0
 25 32  1  0
 32 33  1  0
 18 34  2  0
 13  4  1  0
 34 14  1  0
 13  8  1  0
 33 22  1  0
 31 26  1  0
  3 35  1  0
  4 36  1  0
  5 37  1  0
  5 38  1  0
  6 39  1  0
  6 40  1  0
  7 41  1  0
  7 42  1  0
  9 43  1  0
 10 44  1  0
 11 45  1  0
 12 46  1  0
 15 47  1  0
 16 48  1  0
 17 49  1  0
 23 50  1  0
 23 51  1  0
 24 52  1  0
 24 53  1  0
 27 54  1  0
 28 55  1  0
 29 56  1  0
 30 57  1  0
 31 58  1  0
 32 59  1  0
 32 60  1  0
 33 61  1  0
 33 62  1  0
 34 63  1  0
M  END
$$$$
