
     RDKit          3D

 49 52  0  0  0  0  0  0  0  0999 V2000
   -6.1891    1.5901    2.1555 C   0  0  0  0  0  0  0  0  0  0  0  0
   -5.3442    0.7811    1.2162 C   0  0  0  0  0  0  0  0  0  0  0  0
   -5.8957   -0.2719    0.4816 C   0  0  0  0  0  0  0  0  0  0  0  0
   -5.1071   -1.0103   -0.4078 C   0  0  0  0  0  0  0  0  0  0  0  0
   -5.6959   -2.1772   -1.1466 C   0  0  0  0  0  0  0  0  0  0  0  0
   -3.7467   -0.6918   -0.5563 C   0  0  0  0  0  0  0  0  0  0  0  0
   -3.1803    0.3782    0.1452 C   0  0  0  0  0  0  0  0  0  0  0  0
   -1.8053    0.7489    0.0118 N   0  0  0  0  0  0  0  0  0  0  0  0
   -1.2703    1.6341    0.9058 N   0  0  0  0  0  0  0  0  0  0  0  0
    0.0217    1.7166    0.5991 C   0  0  0  0  0  0  0  0  0  0  0  0
    0.3565    0.9359   -0.5118 C   0  0  0  0  0  0  0  0  0  0  0  0
   -0.8397    0.3633   -0.9102 C   0  0  0  0  0  0  0  0  0  0  0  0
   -0.9941   -0.4685   -2.1373 C   0  0  0  0  0  0  0  0  0  0  0  0
    0.2195   -0.2760   -3.0689 C   0  0  0  0  0  0  0  0  0  0  0  0
    1.5499   -0.3371   -2.3012 C   0  0  0  0  0  0  0  0  0  0  0  0
    1.6521    0.7763   -1.2333 C   0  0  0  0  0  0  0  0  0  0  0  0
    2.6798    0.4729   -0.2710 N   0  0  0  0  0  0  0  0  0  0  0  0
    4.0166    0.6590   -0.5363 C   0  0  0  0  0  0  0  0  0  0  0  0
    4.4403    1.2125   -1.5461 O   0  0  0  0  0  0  0  0  0  0  0  0
    4.8943    0.1130    0.5101 C   0  0  0  0  0  0  0  0  0  0  0  0
    6.3106    0.1709    0.5550 C   0  0  0  0  0  0  0  0  0  0  0  0
    6.6704   -0.4711    1.7177 C   0  0  0  0  0  0  0  0  0  0  0  0
    7.9880   -0.7393    2.3341 C   0  0  0  0  0  0  0  0  0  0  0  0
    5.4974   -0.8702    2.2939 N   0  0  0  0  0  0  0  0  0  0  0  0
    4.4041   -0.5393    1.5856 N   0  0  0  0  0  0  0  0  0  0  0  0
   -3.9916    1.1035    1.0372 C   0  0  0  0  0  0  0  0  0  0  0  0
   -5.6539    1.7696    3.0940 H   0  0  0  0  0  0  0  0  0  0  0  0
   -7.1185    1.0674    2.4048 H   0  0  0  0  0  0  0  0  0  0  0  0
   -6.4438    2.5511    1.6978 H   0  0  0  0  0  0  0  0  0  0  0  0
   -6.9465   -0.5257    0.6086 H   0  0  0  0  0  0  0  0  0  0  0  0
   -6.7641   -2.0231   -1.3335 H   0  0  0  0  0  0  0  0  0  0  0  0
   -5.2122   -2.3066   -2.1204 H   0  0  0  0  0  0  0  0  0  0  0  0
   -5.5674   -3.0934   -0.5621 H   0  0  0  0  0  0  0  0  0  0  0  0
   -3.1582   -1.3256   -1.2061 H   0  0  0  0  0  0  0  0  0  0  0  0
    0.6632    2.3559    1.1929 H   0  0  0  0  0  0  0  0  0  0  0  0
   -1.0527   -1.5257   -1.8545 H   0  0  0  0  0  0  0  0  0  0  0  0
   -1.8990   -0.1982   -2.6911 H   0  0  0  0  0  0  0  0  0  0  0  0
    0.2034   -1.0463   -3.8484 H   0  0  0  0  0  0  0  0  0  0  0  0
    0.1440    0.6944   -3.5767 H   0  0  0  0  0  0  0  0  0  0  0  0
    1.6378   -1.3250   -1.8283 H   0  0  0  0  0  0  0  0  0  0  0  0
    2.3891   -0.2555   -3.0023 H   0  0  0  0  0  0  0  0  0  0  0  0
    1.9004    1.7231   -1.7293 H   0  0  0  0  0  0  0  0  0  0  0  0
    2.4772   -0.1065    0.5397 H   0  0  0  0  0  0  0  0  0  0  0  0
    6.9651    0.6290   -0.1746 H   0  0  0  0  0  0  0  0  0  0  0  0
    8.1177   -1.8104    2.5192 H   0  0  0  0  0  0  0  0  0  0  0  0
    8.0814   -0.2091    3.2873 H   0  0  0  0  0  0  0  0  0  0  0  0
    8.8015   -0.4083    1.6808 H   0  0  0  0  0  0  0  0  0  0  0  0
    5.3703   -1.3728    3.1667 H   0  0  0  0  0  0  0  0  0  0  0  0
   -3.5762    1.9381    1.6016 H   0  0  0  0  0  0  0  0  0  0  0  0
  1  2  1  0
  2  3  2  0
  3  4  1  0
  4  5  1  0
  4  6  2  0
  6  7  1  0
  7  8  1  0
  8  9  1  0
  9 10  2  0
 10 11  1  0
 11 12  2  0
 12 13  1  0
 13 14  1  0
 14 15  1  0
 15 16  1  0
 16 17  1  0
 17 18  1  0
 18 19  2  0
 18 20  1  0
 20 21  1  0
 21 22  2  0
 22 23  1  0
 22 24  1  0
 24 25  1  0
  7 26  2  0
 26  2  1  0
 12  8  1  0
 25 20  2  0
 16 11  1  0
  1 27  1  0
  1 28  1  0
  1 29  1  0
  3 30  1  0
  5 31  1  0
  5 32  1  0
  5 33  1  0
  6 34  1  0
 10 35  1  0
 13 36  1  0
 13 37  1  0
 14 38  1  0
 14 39  1  0
 15 40  1  0
 15 41  1  0
 16 42  1  0
 17 43  1  0
 21 44  1  0
 23 45  1  0
 23 46  1  0
 23 47  1  0
 24 48  1  0
 26 49  1  0
M  END
$$$$
