
     RDKit          3D

 74 77  0  0  0  0  0  0  0  0999 V2000
    1.9314    3.0845    1.9345 C   0  0  0  0  0  0  0  0  0  0  0  0
    0.6348    2.3653    1.5388 C   0  0  0  0  0  0  0  0  0  0  0  0
   -0.5005    3.3984    1.3756 C   0  0  0  0  0  0  0  0  0  0  0  0
   -0.3143    4.2108    0.1708 N   0  0  0  0  0  0  0  0  0  0  0  0
    0.3487    5.5303    0.3220 C   0  0  0  0  0  0  0  0  0  0  0  0
   -0.6695    6.6666    0.1624 C   0  0  0  0  0  0  0  0  0  0  0  0
    1.5546    5.7484   -0.6174 C   0  0  0  0  0  0  0  0  0  0  0  0
    2.4963    6.6304   -0.0044 O   0  0  0  0  0  0  0  0  0  0  0  0
   -0.7097    3.7908   -1.0981 C   0  0  0  0  0  0  0  0  0  0  0  0
   -0.3839    4.3856   -2.1238 O   0  0  0  0  0  0  0  0  0  0  0  0
   -1.6136    2.6290   -1.2600 C   0  0  0  0  0  0  0  0  0  0  0  0
   -2.7559    2.9475   -2.0250 C   0  0  0  0  0  0  0  0  0  0  0  0
   -3.7333    2.0006   -2.2950 C   0  0  0  0  0  0  0  0  0  0  0  0
   -3.5760    0.7057   -1.8192 C   0  0  0  0  0  0  0  0  0  0  0  0
   -2.4489    0.3590   -1.0662 C   0  0  0  0  0  0  0  0  0  0  0  0
   -2.2439   -0.9546   -0.5843 N   0  0  0  0  0  0  0  0  0  0  0  0
   -3.0172   -2.0868   -0.7737 C   0  0  0  0  0  0  0  0  0  0  0  0
   -4.1013   -2.1089   -1.3479 O   0  0  0  0  0  0  0  0  0  0  0  0
   -2.3727   -3.1946   -0.2447 N   0  0  0  0  0  0  0  0  0  0  0  0
   -2.7618   -4.5461   -0.3174 C   0  0  0  0  0  0  0  0  0  0  0  0
   -3.8983   -4.9990   -0.9917 C   0  0  0  0  0  0  0  0  0  0  0  0
   -4.2135   -6.3618   -1.0260 C   0  0  0  0  0  0  0  0  0  0  0  0
   -3.3974   -7.2830   -0.3752 C   0  0  0  0  0  0  0  0  0  0  0  0
   -2.2573   -6.8446    0.2928 C   0  0  0  0  0  0  0  0  0  0  0  0
   -1.9393   -5.4827    0.3197 C   0  0  0  0  0  0  0  0  0  0  0  0
   -1.4391    1.3217   -0.7738 C   0  0  0  0  0  0  0  0  0  0  0  0
   -0.4193    0.7987   -0.0173 O   0  0  0  0  0  0  0  0  0  0  0  0
    0.7966    1.4982    0.2646 C   0  0  0  0  0  0  0  0  0  0  0  0
    1.9438    0.4454    0.3340 C   0  0  0  0  0  0  0  0  0  0  0  0
    1.9461   -0.4069    1.5699 N   0  0  0  0  0  0  0  0  0  0  0  0
    3.2588   -0.4176    2.2641 C   0  0  0  0  0  0  0  0  0  0  0  0
    1.2136   -1.9543    1.4859 S   0  0  0  0  0  6  0  0  0  0  0  0
    1.2445   -2.5459    2.8083 O   0  0  0  0  0  0  0  0  0  0  0  0
   -0.0440   -1.8612    0.7729 O   0  0  0  0  0  0  0  0  0  0  0  0
    2.3207   -2.9049    0.4609 C   0  0  0  0  0  0  0  0  0  0  0  0
    2.0846   -2.9908   -0.9138 C   0  0  0  0  0  0  0  0  0  0  0  0
    2.9272   -3.7664   -1.7115 C   0  0  0  0  0  0  0  0  0  0  0  0
    3.9847   -4.4684   -1.1324 C   0  0  0  0  0  0  0  0  0  0  0  0
    4.2024   -4.4001    0.2449 C   0  0  0  0  0  0  0  0  0  0  0  0
    3.3636   -3.6283    1.0493 C   0  0  0  0  0  0  0  0  0  0  0  0
    2.4099    3.5580    1.0738 H   0  0  0  0  0  0  0  0  0  0  0  0
    1.7408    3.8536    2.6916 H   0  0  0  0  0  0  0  0  0  0  0  0
    2.6575    2.4006    2.3717 H   0  0  0  0  0  0  0  0  0  0  0  0
    0.3466    1.7193    2.3760 H   0  0  0  0  0  0  0  0  0  0  0  0
   -1.4755    2.9044    1.3406 H   0  0  0  0  0  0  0  0  0  0  0  0
   -0.5505    4.0610    2.2509 H   0  0  0  0  0  0  0  0  0  0  0  0
    0.7063    5.5945    1.3536 H   0  0  0  0  0  0  0  0  0  0  0  0
   -0.1973    7.6364    0.3588 H   0  0  0  0  0  0  0  0  0  0  0  0
   -1.0916    6.6896   -0.8460 H   0  0  0  0  0  0  0  0  0  0  0  0
   -1.4981    6.5411    0.8729 H   0  0  0  0  0  0  0  0  0  0  0  0
    1.2469    6.1912   -1.5712 H   0  0  0  0  0  0  0  0  0  0  0  0
    2.0777    4.8092   -0.8254 H   0  0  0  0  0  0  0  0  0  0  0  0
    3.0713    6.9486   -0.7222 H   0  0  0  0  0  0  0  0  0  0  0  0
   -2.8846    3.9565   -2.4170 H   0  0  0  0  0  0  0  0  0  0  0  0
   -4.6109    2.2683   -2.8791 H   0  0  0  0  0  0  0  0  0  0  0  0
   -4.3532   -0.0142   -2.0570 H   0  0  0  0  0  0  0  0  0  0  0  0
   -1.3838   -1.0721   -0.0470 H   0  0  0  0  0  0  0  0  0  0  0  0
   -1.5192   -2.9896    0.2613 H   0  0  0  0  0  0  0  0  0  0  0  0
   -4.5598   -4.3155   -1.5124 H   0  0  0  0  0  0  0  0  0  0  0  0
   -5.1033   -6.6953   -1.5517 H   0  0  0  0  0  0  0  0  0  0  0  0
   -3.6466   -8.3410   -0.3939 H   0  0  0  0  0  0  0  0  0  0  0  0
   -1.6181   -7.5622    0.7999 H   0  0  0  0  0  0  0  0  0  0  0  0
   -1.0445   -5.1643    0.8486 H   0  0  0  0  0  0  0  0  0  0  0  0
    1.0667    2.1174   -0.5979 H   0  0  0  0  0  0  0  0  0  0  0  0
    1.8898   -0.1914   -0.5530 H   0  0  0  0  0  0  0  0  0  0  0  0
    2.9046    0.9722    0.2609 H   0  0  0  0  0  0  0  0  0  0  0  0
    3.5728    0.5949    2.5237 H   0  0  0  0  0  0  0  0  0  0  0  0
    4.0332   -0.8493    1.6243 H   0  0  0  0  0  0  0  0  0  0  0  0
    3.2028   -0.9734    3.2022 H   0  0  0  0  0  0  0  0  0  0  0  0
    1.2494   -2.4685   -1.3747 H   0  0  0  0  0  0  0  0  0  0  0  0
    2.7414   -3.8397   -2.7808 H   0  0  0  0  0  0  0  0  0  0  0  0
    4.6330   -5.0784   -1.7556 H   0  0  0  0  0  0  0  0  0  0  0  0
    5.0167   -4.9669    0.6985 H   0  0  0  0  0  0  0  0  0  0  0  0
    3.5281   -3.6047    2.1232 H   0  0  0  0  0  0  0  0  0  0  0  0
  1  2  1  0
  2  3  1  0
  3  4  1  0
  4  5  1  0
  5  6  1  0
  5  7  1  0
  7  8  1  0
  4  9  1  0
  9 10  2  0
  9 11  1  0
 11 12  2  0
 12 13  1  0
 13 14  2  0
 14 15  1  0
 15 16  1  0
 16 17  1  0
 17 18  2  0
 17 19  1  0
 19 20  1  0
 20 21  2  0
 21 22  1  0
 22 23  2  0
 23 24  1  0
 24 25  2  0
 15 26  2  0
 26 27  1  0
 27 28  1  0
 28 29  1  0
 29 30  1  0
 30 31  1  0
 30 32  1  0
 32 33  2  0
 32 34  2  0
 32 35  1  0
 35 36  2  0
 36 37  1  0
 37 38  2  0
 38 39  1  0
 39 40  2  0
 28  2  1  0
 40 35  1  0
 26 11  1  0
 25 20  1  0
  1 41  1  0
  1 42  1  0
  1 43  1  0
  2 44  1  0
  3 45  1  0
  3 46  1  0
  5 47  1  0
  6 48  1  0
  6 49  1  0
  6 50  1  0
  7 51  1  0
  7 52  1  0
  8 53  1  0
 12 54  1  0
 13 55  1  0
 14 56  1  0
 16 57  1  0
 19 58  1  0
 21 59  1  0
 22 60  1  0
 23 61  1  0
 24 62  1  0
 25 63  1  0
 28 64  1  0
 29 65  1  0
 29 66  1  0
 31 67  1  0
 31 68  1  0
 31 69  1  0
 36 70  1  0
 37 71  1  0
 38 72  1  0
 39 73  1  0
 40 74  1  0
M  END
$$$$
