
     RDKit          3D

 68 71  0  0  0  0  0  0  0  0999 V2000
    9.1044   -1.7927   -3.9139 C   0  0  0  0  0  0  0  0  0  0  0  0
    7.8666   -1.8800   -4.6086 O   0  0  0  0  0  0  0  0  0  0  0  0
    6.7295   -1.8644   -3.8496 C   0  0  0  0  0  0  0  0  0  0  0  0
    6.6719   -1.8197   -2.4570 C   0  0  0  0  0  0  0  0  0  0  0  0
    5.4340   -1.8092   -1.8023 C   0  0  0  0  0  0  0  0  0  0  0  0
    4.2419   -1.8327   -2.5344 C   0  0  0  0  0  0  0  0  0  0  0  0
    2.9305   -1.8360   -1.8745 C   0  0  0  0  0  0  0  0  0  0  0  0
    2.4493   -0.8709   -1.0644 C   0  0  0  0  0  0  0  0  0  0  0  0
    3.1791    0.3097   -0.7561 C   0  0  0  0  0  0  0  0  0  0  0  0
    3.7418    1.2827   -0.4645 N   0  0  0  0  0  0  0  0  0  0  0  0
    1.0652   -1.0706   -0.5073 C   0  0  0  0  0  0  0  0  0  0  0  0
    0.3601   -1.9858   -0.9249 O   0  0  0  0  0  0  0  0  0  0  0  0
    0.6922   -0.1669    0.4610 N   0  0  0  0  0  0  0  0  0  0  0  0
   -0.5256   -0.0926    1.1743 C   0  0  0  0  0  0  0  0  0  0  0  0
   -1.5785   -0.9960    1.0400 C   0  0  0  0  0  0  0  0  0  0  0  0
   -2.7331   -0.8113    1.8060 C   0  0  0  0  0  0  0  0  0  0  0  0
   -4.0932   -1.9450    1.6638 S   0  0  0  0  0  6  0  0  0  0  0  0
   -3.7427   -2.9965    0.7336 O   0  0  0  0  0  0  0  0  0  0  0  0
   -4.5329   -2.2501    3.0095 O   0  0  0  0  0  0  0  0  0  0  0  0
   -5.2902   -0.9793    0.9178 N   0  0  0  0  0  0  0  0  0  0  0  0
   -4.9840   -0.5034   -0.4624 C   0  0  0  0  0  0  0  0  0  0  0  0
   -5.9091   -1.1281   -1.4984 C   0  0  0  0  0  0  0  0  0  0  0  0
   -7.3759   -0.8159   -1.2118 C   0  0  0  0  0  0  0  0  0  0  0  0
   -7.6603   -0.6886    0.2836 C   0  0  0  0  0  0  0  0  0  0  0  0
   -6.6709   -1.5020    1.1088 C   0  0  0  0  0  0  0  0  0  0  0  0
   -2.8416    0.2493    2.7109 C   0  0  0  0  0  0  0  0  0  0  0  0
   -1.7860    1.1496    2.8475 C   0  0  0  0  0  0  0  0  0  0  0  0
   -0.6195    0.9920    2.0866 C   0  0  0  0  0  0  0  0  0  0  0  0
    0.4746    1.8916    2.1746 N   0  0  0  0  0  0  0  0  0  0  0  0
    0.2246    3.1246    1.4004 C   0  0  0  0  0  0  0  0  0  0  0  0
    1.3490    4.1238    1.6515 C   0  0  0  0  0  0  0  0  0  0  0  0
    1.4168    4.5336    3.1236 C   0  0  0  0  0  0  0  0  0  0  0  0
    0.8051    3.4883    4.0572 C   0  0  0  0  0  0  0  0  0  0  0  0
    1.0199    2.0707    3.5361 C   0  0  0  0  0  0  0  0  0  0  0  0
    4.3022   -1.8931   -3.9293 C   0  0  0  0  0  0  0  0  0  0  0  0
    5.5394   -1.9053   -4.5792 C   0  0  0  0  0  0  0  0  0  0  0  0
    9.9061   -1.7988   -4.6582 H   0  0  0  0  0  0  0  0  0  0  0  0
    9.2520   -2.6581   -3.2595 H   0  0  0  0  0  0  0  0  0  0  0  0
    9.1776   -0.8549   -3.3530 H   0  0  0  0  0  0  0  0  0  0  0  0
    7.5694   -1.7965   -1.8479 H   0  0  0  0  0  0  0  0  0  0  0  0
    5.4195   -1.7882   -0.7149 H   0  0  0  0  0  0  0  0  0  0  0  0
    2.3214   -2.7092   -2.1100 H   0  0  0  0  0  0  0  0  0  0  0  0
    1.3238    0.5763    0.7612 H   0  0  0  0  0  0  0  0  0  0  0  0
   -1.5213   -1.8397    0.3598 H   0  0  0  0  0  0  0  0  0  0  0  0
   -3.9469   -0.7158   -0.7388 H   0  0  0  0  0  0  0  0  0  0  0  0
   -5.0871    0.5889   -0.4692 H   0  0  0  0  0  0  0  0  0  0  0  0
   -5.7660   -2.2165   -1.5016 H   0  0  0  0  0  0  0  0  0  0  0  0
   -5.6471   -0.7759   -2.5026 H   0  0  0  0  0  0  0  0  0  0  0  0
   -7.9972   -1.6083   -1.6450 H   0  0  0  0  0  0  0  0  0  0  0  0
   -7.6687    0.1153   -1.7114 H   0  0  0  0  0  0  0  0  0  0  0  0
   -7.5931    0.3682    0.5749 H   0  0  0  0  0  0  0  0  0  0  0  0
   -8.6872   -1.0089    0.4935 H   0  0  0  0  0  0  0  0  0  0  0  0
   -6.9387   -1.4109    2.1676 H   0  0  0  0  0  0  0  0  0  0  0  0
   -6.7237   -2.5610    0.8287 H   0  0  0  0  0  0  0  0  0  0  0  0
   -3.7435    0.3741    3.3069 H   0  0  0  0  0  0  0  0  0  0  0  0
   -1.8841    1.9757    3.5454 H   0  0  0  0  0  0  0  0  0  0  0  0
   -0.7386    3.5795    1.6674 H   0  0  0  0  0  0  0  0  0  0  0  0
    0.1921    2.8847    0.3307 H   0  0  0  0  0  0  0  0  0  0  0  0
    1.2172    5.0135    1.0258 H   0  0  0  0  0  0  0  0  0  0  0  0
    2.3065    3.6727    1.3608 H   0  0  0  0  0  0  0  0  0  0  0  0
    0.8966    5.4879    3.2706 H   0  0  0  0  0  0  0  0  0  0  0  0
    2.4647    4.7107    3.3953 H   0  0  0  0  0  0  0  0  0  0  0  0
    1.2363    3.5930    5.0592 H   0  0  0  0  0  0  0  0  0  0  0  0
   -0.2695    3.6842    4.1584 H   0  0  0  0  0  0  0  0  0  0  0  0
    0.6093    1.3434    4.2471 H   0  0  0  0  0  0  0  0  0  0  0  0
    2.0972    1.8685    3.4877 H   0  0  0  0  0  0  0  0  0  0  0  0
    3.3926   -1.9267   -4.5252 H   0  0  0  0  0  0  0  0  0  0  0  0
    5.5761   -1.9469   -5.6653 H   0  0  0  0  0  0  0  0  0  0  0  0
  1  2  1  0
  2  3  1  0
  3  4  2  0
  4  5  1  0
  5  6  2  0
  6  7  1  0
  7  8  2  3
  8  9  1  0
  9 10  3  0
  8 11  1  0
 11 12  2  0
 11 13  1  0
 13 14  1  0
 14 15  2  0
 15 16  1  0
 16 17  1  0
 17 18  2  0
 17 19  2  0
 17 20  1  0
 20 21  1  0
 21 22  1  0
 22 23  1  0
 23 24  1  0
 24 25  1  0
 16 26  2  0
 26 27  1  0
 27 28  2  0
 28 29  1  0
 29 30  1  0
 30 31  1  0
 31 32  1  0
 32 33  1  0
 33 34  1  0
  6 35  1  0
 35 36  2  0
 36  3  1  0
 28 14  1  0
 34 29  1  0
 25 20  1  0
  1 37  1  0
  1 38  1  0
  1 39  1  0
  4 40  1  0
  5 41  1  0
  7 42  1  0
 13 43  1  0
 15 44  1  0
 21 45  1  0
 21 46  1  0
 22 47  1  0
 22 48  1  0
 23 49  1  0
 23 50  1  0
 24 51  1  0
 24 52  1  0
 25 53  1  0
 25 54  1  0
 26 55  1  0
 27 56  1  0
 30 57  1  0
 30 58  1  0
 31 59  1  0
 31 60  1  0
 32 61  1  0
 32 62  1  0
 33 63  1  0
 33 64  1  0
 34 65  1  0
 34 66  1  0
 35 67  1  0
 36 68  1  0
M  END
$$$$
