
     RDKit          3D

 56 60  0  0  0  0  0  0  0  0999 V2000
   -5.7656   -2.5591   -2.2285 C   0  0  0  0  0  0  0  0  0  0  0  0
   -5.1086   -1.8359   -1.0897 C   0  0  0  0  0  0  0  0  0  0  0  0
   -5.5337   -0.5517   -0.7237 C   0  0  0  0  0  0  0  0  0  0  0  0
   -4.9449    0.1085    0.3557 C   0  0  0  0  0  0  0  0  0  0  0  0
   -3.9259   -0.5222    1.0735 C   0  0  0  0  0  0  0  0  0  0  0  0
   -3.1667    0.3106    2.4569 S   0  0  0  0  0  6  0  0  0  0  0  0
   -2.9600   -0.7039    3.4763 O   0  0  0  0  0  0  0  0  0  0  0  0
   -3.9845    1.4743    2.7533 O   0  0  0  0  0  0  0  0  0  0  0  0
   -1.6577    0.8032    1.7852 C   0  0  0  0  0  0  0  0  0  0  0  0
   -1.6041    1.9023    1.0148 C   0  0  0  0  0  0  0  0  0  0  0  0
   -0.3848    2.3179    0.3381 C   0  0  0  0  0  0  0  0  0  0  0  0
   -0.4027    3.5328   -0.5251 C   0  0  0  0  0  0  0  0  0  0  0  0
   -1.4503    4.1690   -0.6616 O   0  0  0  0  0  0  0  0  0  0  0  0
    0.7935    3.8612   -1.1369 N   0  0  0  0  0  0  0  0  0  0  0  0
    0.8625    4.9899   -1.9466 C   0  0  0  0  0  0  0  0  0  0  0  0
    1.9931    5.3412   -2.5714 C   0  0  0  0  0  0  0  0  0  0  0  0
    3.1766    4.5399   -2.4132 C   0  0  0  0  0  0  0  0  0  0  0  0
    3.1548    3.4446   -1.6443 C   0  0  0  0  0  0  0  0  0  0  0  0
    1.8974    3.0516   -0.9468 C   0  0  0  0  0  0  0  0  0  0  0  0
    1.9052    1.9870   -0.2119 N   0  0  0  0  0  0  0  0  0  0  0  0
    0.7613    1.6090    0.4533 C   0  0  0  0  0  0  0  0  0  0  0  0
    0.7611    0.4566    1.2768 N   0  0  0  0  0  0  0  0  0  0  0  0
    2.0021   -0.3338    1.4171 C   0  0  0  0  0  0  0  0  0  0  0  0
    2.0508   -1.4415    0.3609 C   0  0  0  0  0  0  0  0  0  0  0  0
    3.3016   -2.2767    0.4786 C   0  0  0  0  0  0  0  0  0  0  0  0
    4.4465   -1.9535   -0.2612 C   0  0  0  0  0  0  0  0  0  0  0  0
    5.6069   -2.7189   -0.1357 C   0  0  0  0  0  0  0  0  0  0  0  0
    5.6343   -3.8083    0.7332 C   0  0  0  0  0  0  0  0  0  0  0  0
    4.5022   -4.1324    1.4791 C   0  0  0  0  0  0  0  0  0  0  0  0
    3.3413   -3.3692    1.3549 C   0  0  0  0  0  0  0  0  0  0  0  0
   -0.3937    0.0198    1.9468 C   0  0  0  0  0  0  0  0  0  0  0  0
   -0.3350   -1.0492    2.6873 N   0  0  0  0  0  0  0  0  0  0  0  0
   -3.5099   -1.8138    0.7386 C   0  0  0  0  0  0  0  0  0  0  0  0
   -4.1035   -2.4662   -0.3431 C   0  0  0  0  0  0  0  0  0  0  0  0
   -5.0316   -3.1498   -2.7871 H   0  0  0  0  0  0  0  0  0  0  0  0
   -6.5452   -3.2256   -1.8475 H   0  0  0  0  0  0  0  0  0  0  0  0
   -6.2193   -1.8549   -2.9339 H   0  0  0  0  0  0  0  0  0  0  0  0
   -6.3317   -0.0593   -1.2764 H   0  0  0  0  0  0  0  0  0  0  0  0
   -5.2922    1.1031    0.6271 H   0  0  0  0  0  0  0  0  0  0  0  0
   -2.4899    2.5133    0.8487 H   0  0  0  0  0  0  0  0  0  0  0  0
   -0.0444    5.5795   -2.0521 H   0  0  0  0  0  0  0  0  0  0  0  0
    2.0379    6.2241   -3.2008 H   0  0  0  0  0  0  0  0  0  0  0  0
    4.0822    4.8445   -2.9281 H   0  0  0  0  0  0  0  0  0  0  0  0
    4.0241    2.8155   -1.4973 H   0  0  0  0  0  0  0  0  0  0  0  0
    2.8862    0.3113    1.3311 H   0  0  0  0  0  0  0  0  0  0  0  0
    2.0779   -0.7589    2.4262 H   0  0  0  0  0  0  0  0  0  0  0  0
    1.1721   -2.0936    0.4457 H   0  0  0  0  0  0  0  0  0  0  0  0
    1.9947   -1.0098   -0.6465 H   0  0  0  0  0  0  0  0  0  0  0  0
    4.4399   -1.1038   -0.9398 H   0  0  0  0  0  0  0  0  0  0  0  0
    6.4905   -2.4641   -0.7147 H   0  0  0  0  0  0  0  0  0  0  0  0
    6.5385   -4.4034    0.8314 H   0  0  0  0  0  0  0  0  0  0  0  0
    4.5237   -4.9791    2.1602 H   0  0  0  0  0  0  0  0  0  0  0  0
    2.4657   -3.6292    1.9472 H   0  0  0  0  0  0  0  0  0  0  0  0
   -1.2205   -1.2459    3.1839 H   0  0  0  0  0  0  0  0  0  0  0  0
   -2.7362   -2.3227    1.3100 H   0  0  0  0  0  0  0  0  0  0  0  0
   -3.7822   -3.4745   -0.5995 H   0  0  0  0  0  0  0  0  0  0  0  0
  1  2  1  0
  2  3  2  0
  3  4  1  0
  4  5  2  0
  5  6  1  0
  6  7  2  0
  6  8  2  0
  6  9  1  0
  9 10  2  0
 10 11  1  0
 11 12  1  0
 12 13  2  0
 12 14  1  0
 14 15  1  0
 15 16  2  0
 16 17  1  0
 17 18  2  0
 18 19  1  0
 19 20  2  0
 20 21  1  0
 21 22  1  0
 22 23  1  0
 23 24  1  0
 24 25  1  0
 25 26  2  0
 26 27  1  0
 27 28  2  0
 28 29  1  0
 29 30  2  0
 22 31  1  0
 31 32  2  3
  5 33  1  0
 33 34  2  0
 34  2  1  0
 31  9  1  0
 21 11  2  0
 30 25  1  0
 19 14  1  0
  1 35  1  0
  1 36  1  0
  1 37  1  0
  3 38  1  0
  4 39  1  0
 10 40  1  0
 15 41  1  0
 16 42  1  0
 17 43  1  0
 18 44  1  0
 23 45  1  0
 23 46  1  0
 24 47  1  0
 24 48  1  0
 26 49  1  0
 27 50  1  0
 28 51  1  0
 29 52  1  0
 30 53  1  0
 32 54  1  0
 33 55  1  0
 34 56  1  0
M  END
$$$$
