
     RDKit          3D

 62 64  0  0  0  0  0  0  0  0999 V2000
    7.0316    0.2733    2.0724 C   0  0  0  0  0  0  0  0  0  0  0  0
    7.1596   -0.5658    0.8292 C   0  0  0  0  0  0  0  0  0  0  0  0
    8.1761   -1.5411    0.8408 C   0  0  0  0  0  0  0  0  0  0  0  0
    8.3172   -2.4493   -0.2018 C   0  0  0  0  0  0  0  0  0  0  0  0
    7.4385   -2.4029   -1.2755 C   0  0  0  0  0  0  0  0  0  0  0  0
    6.4312   -1.4253   -1.3364 C   0  0  0  0  0  0  0  0  0  0  0  0
    5.5278   -1.4238   -2.5435 C   0  0  0  0  0  0  0  0  0  0  0  0
    6.3125   -0.4679   -0.2960 C   0  0  0  0  0  0  0  0  0  0  0  0
    5.2941    0.5076   -0.4306 N   0  0  0  0  0  0  0  0  0  0  0  0
    5.3577    1.8375   -0.0520 C   0  0  0  0  0  0  0  0  0  0  0  0
    6.3397    2.4182    0.4020 O   0  0  0  0  0  0  0  0  0  0  0  0
    4.0649    2.6126   -0.3416 C   0  0  0  0  0  0  0  0  0  0  0  0
    2.8859    2.0777    0.2635 O   0  0  0  0  0  0  0  0  0  0  0  0
    2.2810    1.0707   -0.4170 C   0  0  0  0  0  0  0  0  0  0  0  0
    2.7069    0.5831   -1.4572 O   0  0  0  0  0  0  0  0  0  0  0  0
    1.0235    0.6281    0.2783 C   0  0  0  0  0  0  0  0  0  0  0  0
   -0.1768    0.8624   -0.6295 C   0  0  0  0  0  0  0  0  0  0  0  0
   -1.4653    0.4477    0.0371 C   0  0  0  0  0  0  0  0  0  0  0  0
   -1.9705   -0.8482   -0.1428 C   0  0  0  0  0  0  0  0  0  0  0  0
   -3.1473   -1.2436    0.4953 C   0  0  0  0  0  0  0  0  0  0  0  0
   -3.8289   -0.3352    1.3094 C   0  0  0  0  0  0  0  0  0  0  0  0
   -5.3108   -0.8477    2.1558 S   0  0  0  0  0  6  0  0  0  0  0  0
   -5.4462   -0.0148    3.3326 O   0  0  0  0  0  0  0  0  0  0  0  0
   -5.2687   -2.2908    2.2664 O   0  0  0  0  0  0  0  0  0  0  0  0
   -6.5499   -0.4311    1.0614 N   0  0  0  0  0  0  0  0  0  0  0  0
   -6.6161   -1.2174   -0.1939 C   0  0  0  0  0  0  0  0  0  0  0  0
   -7.9977   -1.0505   -0.8225 C   0  0  0  0  0  0  0  0  0  0  0  0
   -8.3270    0.4214   -1.0556 C   0  0  0  0  0  0  0  0  0  0  0  0
   -8.1681    1.2207    0.2347 C   0  0  0  0  0  0  0  0  0  0  0  0
   -6.7842    1.0172    0.8468 C   0  0  0  0  0  0  0  0  0  0  0  0
   -3.3222    0.9498    1.5202 C   0  0  0  0  0  0  0  0  0  0  0  0
   -2.1458    1.3400    0.8787 C   0  0  0  0  0  0  0  0  0  0  0  0
    7.6912    1.1439    2.0188 H   0  0  0  0  0  0  0  0  0  0  0  0
    7.3173   -0.3077    2.9577 H   0  0  0  0  0  0  0  0  0  0  0  0
    5.9985    0.5861    2.2480 H   0  0  0  0  0  0  0  0  0  0  0  0
    8.8546   -1.6097    1.6893 H   0  0  0  0  0  0  0  0  0  0  0  0
    9.1010   -3.2012   -0.1679 H   0  0  0  0  0  0  0  0  0  0  0  0
    7.5506   -3.1309   -2.0760 H   0  0  0  0  0  0  0  0  0  0  0  0
    5.8243   -2.1866   -3.2715 H   0  0  0  0  0  0  0  0  0  0  0  0
    4.4972   -1.6395   -2.2450 H   0  0  0  0  0  0  0  0  0  0  0  0
    5.5720   -0.4562   -3.0537 H   0  0  0  0  0  0  0  0  0  0  0  0
    4.5749    0.3092   -1.1230 H   0  0  0  0  0  0  0  0  0  0  0  0
    3.9442    2.7246   -1.4262 H   0  0  0  0  0  0  0  0  0  0  0  0
    4.1889    3.6230    0.0642 H   0  0  0  0  0  0  0  0  0  0  0  0
    1.1360   -0.4299    0.5419 H   0  0  0  0  0  0  0  0  0  0  0  0
    0.9096    1.1768    1.2211 H   0  0  0  0  0  0  0  0  0  0  0  0
   -0.2382    1.9211   -0.9146 H   0  0  0  0  0  0  0  0  0  0  0  0
   -0.0581    0.3135   -1.5729 H   0  0  0  0  0  0  0  0  0  0  0  0
   -1.4438   -1.5620   -0.7738 H   0  0  0  0  0  0  0  0  0  0  0  0
   -3.5188   -2.2572    0.3609 H   0  0  0  0  0  0  0  0  0  0  0  0
   -5.8425   -0.8785   -0.8917 H   0  0  0  0  0  0  0  0  0  0  0  0
   -6.4566   -2.2811    0.0075 H   0  0  0  0  0  0  0  0  0  0  0  0
   -8.0416   -1.5953   -1.7721 H   0  0  0  0  0  0  0  0  0  0  0  0
   -8.7559   -1.4898   -0.1620 H   0  0  0  0  0  0  0  0  0  0  0  0
   -7.6603    0.8295   -1.8249 H   0  0  0  0  0  0  0  0  0  0  0  0
   -9.3515    0.5198   -1.4312 H   0  0  0  0  0  0  0  0  0  0  0  0
   -8.3323    2.2851    0.0338 H   0  0  0  0  0  0  0  0  0  0  0  0
   -8.9358    0.9047    0.9522 H   0  0  0  0  0  0  0  0  0  0  0  0
   -6.0163    1.4283    0.1822 H   0  0  0  0  0  0  0  0  0  0  0  0
   -6.7452    1.5599    1.7963 H   0  0  0  0  0  0  0  0  0  0  0  0
   -3.8298    1.6455    2.1852 H   0  0  0  0  0  0  0  0  0  0  0  0
   -1.7565    2.3422    1.0490 H   0  0  0  0  0  0  0  0  0  0  0  0
  1  2  1  0
  2  3  2  0
  3  4  1  0
  4  5  2  0
  5  6  1  0
  6  7  1  0
  6  8  2  0
  8  9  1  0
  9 10  1  0
 10 11  2  0
 10 12  1  0
 12 13  1  0
 13 14  1  0
 14 15  2  0
 14 16  1  0
 16 17  1  0
 17 18  1  0
 18 19  2  0
 19 20  1  0
 20 21  2  0
 21 22  1  0
 22 23  2  0
 22 24  2  0
 22 25  1  0
 25 26  1  0
 26 27  1  0
 27 28  1  0
 28 29  1  0
 29 30  1  0
 21 31  1  0
 31 32  2  0
  8  2  1  0
 32 18  1  0
 30 25  1  0
  1 33  1  0
  1 34  1  0
  1 35  1  0
  3 36  1  0
  4 37  1  0
  5 38  1  0
  7 39  1  0
  7 40  1  0
  7 41  1  0
  9 42  1  0
 12 43  1  0
 12 44  1  0
 16 45  1  0
 16 46  1  0
 17 47  1  0
 17 48  1  0
 19 49  1  0
 20 50  1  0
 26 51  1  0
 26 52  1  0
 27 53  1  0
 27 54  1  0
 28 55  1  0
 28 56  1  0
 29 57  1  0
 29 58  1  0
 30 59  1  0
 30 60  1  0
 31 61  1  0
 32 62  1  0
M  END
$$$$
