
     RDKit          3D

 40 42  0  0  0  0  0  0  0  0999 V2000
    5.8116   -1.1453    0.2628 C   0  0  0  0  0  0  0  0  0  0  0  0
    5.3356    0.2986    0.2141 C   0  0  0  0  0  0  0  0  0  0  0  0
    3.8343    0.3899    0.1074 C   0  0  0  0  0  0  0  0  0  0  0  0
    3.2096    0.3895   -1.1462 C   0  0  0  0  0  0  0  0  0  0  0  0
    1.8162    0.4542   -1.2476 C   0  0  0  0  0  0  0  0  0  0  0  0
    1.0305    0.5138   -0.0926 C   0  0  0  0  0  0  0  0  0  0  0  0
   -0.4483    0.5774   -0.1637 C   0  0  0  0  0  0  0  0  0  0  0  0
   -1.1984    0.7849    0.8775 N   0  0  0  0  0  0  0  0  0  0  0  0
   -2.6260    0.7544    0.3801 N   0  0  0  0  0  0  0  0  0  0  0  0
   -3.5291    2.1994    0.5681 S   0  0  0  0  0  6  0  0  0  0  0  0
   -3.3787    2.4730    2.3197 C   0  0  0  0  0  0  0  0  0  0  0  0
   -2.8321    3.2557   -0.1391 O   0  0  0  0  0  0  0  0  0  0  0  0
   -4.9148    1.9020    0.2681 O   0  0  0  0  0  0  0  0  0  0  0  0
   -2.6293    0.2372   -1.0177 C   0  0  0  0  0  0  0  0  0  0  0  0
   -3.0088   -1.2255   -1.0062 C   0  0  0  0  0  0  0  0  0  0  0  0
   -2.8129   -2.1844   -0.0270 C   0  0  0  0  0  0  0  0  0  0  0  0
   -3.3137   -3.4634   -0.4042 C   0  0  0  0  0  0  0  0  0  0  0  0
   -3.8776   -3.4457   -1.6596 C   0  0  0  0  0  0  0  0  0  0  0  0
   -3.7924   -1.8985   -2.3795 S   0  0  0  0  0  0  0  0  0  0  0  0
   -1.1850    0.4430   -1.4732 C   0  0  0  0  0  0  0  0  0  0  0  0
    1.6508    0.5137    1.1621 C   0  0  0  0  0  0  0  0  0  0  0  0
    3.0430    0.4487    1.2609 C   0  0  0  0  0  0  0  0  0  0  0  0
    5.3927   -1.6732    1.1263 H   0  0  0  0  0  0  0  0  0  0  0  0
    5.5167   -1.6919   -0.6397 H   0  0  0  0  0  0  0  0  0  0  0  0
    6.9027   -1.1818    0.3392 H   0  0  0  0  0  0  0  0  0  0  0  0
    5.6742    0.8293    1.1119 H   0  0  0  0  0  0  0  0  0  0  0  0
    5.7982    0.8149   -0.6356 H   0  0  0  0  0  0  0  0  0  0  0  0
    3.8070    0.3403   -2.0549 H   0  0  0  0  0  0  0  0  0  0  0  0
    1.3737    0.4618   -2.2391 H   0  0  0  0  0  0  0  0  0  0  0  0
   -3.9731    3.3537    2.5724 H   0  0  0  0  0  0  0  0  0  0  0  0
   -2.3321    2.6531    2.5699 H   0  0  0  0  0  0  0  0  0  0  0  0
   -3.7679    1.6007    2.8483 H   0  0  0  0  0  0  0  0  0  0  0  0
   -3.3151    0.7944   -1.6661 H   0  0  0  0  0  0  0  0  0  0  0  0
   -2.3365   -1.9727    0.9239 H   0  0  0  0  0  0  0  0  0  0  0  0
   -3.2688   -4.3492    0.2173 H   0  0  0  0  0  0  0  0  0  0  0  0
   -4.3375   -4.2678   -2.1911 H   0  0  0  0  0  0  0  0  0  0  0  0
   -0.7999   -0.3757   -2.0870 H   0  0  0  0  0  0  0  0  0  0  0  0
   -1.0832    1.3902   -2.0151 H   0  0  0  0  0  0  0  0  0  0  0  0
    1.0589    0.5583    2.0734 H   0  0  0  0  0  0  0  0  0  0  0  0
    3.5056    0.4429    2.2461 H   0  0  0  0  0  0  0  0  0  0  0  0
  1  2  1  0
  2  3  1  0
  3  4  2  0
  4  5  1  0
  5  6  2  0
  6  7  1  0
  7  8  2  0
  8  9  1  0
  9 10  1  0
 10 11  1  0
 10 12  2  0
 10 13  2  0
  9 14  1  0
 14 15  1  0
 15 16  2  0
 16 17  1  0
 17 18  2  0
 18 19  1  0
 14 20  1  0
  6 21  1  0
 21 22  2  0
 22  3  1  0
 20  7  1  0
 19 15  1  0
  1 23  1  0
  1 24  1  0
  1 25  1  0
  2 26  1  0
  2 27  1  0
  4 28  1  0
  5 29  1  0
 11 30  1  0
 11 31  1  0
 11 32  1  0
 14 33  1  0
 16 34  1  0
 17 35  1  0
 18 36  1  0
 20 37  1  0
 20 38  1  0
 21 39  1  0
 22 40  1  0
M  END
$$$$
