
     RDKit          3D

 44 46  0  0  0  0  0  0  0  0999 V2000
    0.8720    0.7889   -0.0882 O   0  0  0  0  0  0  0  0  0  0  0  0
    1.0549   -0.0785    0.7676 C   0  0  0  0  0  0  0  0  0  0  0  0
   -0.0447   -1.0074    1.2810 C   0  0  0  0  0  0  0  0  0  0  0  0
   -1.2281   -0.9280    0.4879 O   0  0  0  0  0  0  0  0  0  0  0  0
   -1.1213   -1.5165   -0.7354 C   0  0  0  0  0  0  0  0  0  0  0  0
   -0.1451   -2.1602   -1.1062 O   0  0  0  0  0  0  0  0  0  0  0  0
   -2.3274   -1.2488   -1.6263 C   0  0  0  0  0  0  0  0  0  0  0  0
   -3.3876   -0.4952   -0.9691 N   0  0  0  0  0  0  0  0  0  0  0  0
   -3.3969    0.8772   -1.0301 C   0  0  0  0  0  0  0  0  0  0  0  0
   -4.2757    1.6348   -0.4663 N   0  0  0  0  0  0  0  0  0  0  0  0
   -5.2920    1.0125    0.2733 C   0  0  0  0  0  0  0  0  0  0  0  0
   -6.2668    1.8064    0.8814 C   0  0  0  0  0  0  0  0  0  0  0  0
   -7.2928    1.2245    1.6321 C   0  0  0  0  0  0  0  0  0  0  0  0
   -7.3516   -0.1612    1.7823 C   0  0  0  0  0  0  0  0  0  0  0  0
   -6.3849   -0.9662    1.1812 C   0  0  0  0  0  0  0  0  0  0  0  0
   -5.3634   -0.3728    0.4306 C   0  0  0  0  0  0  0  0  0  0  0  0
   -4.3237   -1.1912   -0.2205 C   0  0  0  0  0  0  0  0  0  0  0  0
   -4.3102   -2.4107   -0.0769 O   0  0  0  0  0  0  0  0  0  0  0  0
    2.2823   -0.2793    1.3744 N   0  0  0  0  0  0  0  0  0  0  0  0
    3.3877    0.3781    0.7948 N   0  0  0  0  0  0  0  0  0  0  0  0
    4.5569   -0.3548    0.6961 C   0  0  0  0  0  0  0  0  0  0  0  0
    4.6926   -1.4479    1.2414 O   0  0  0  0  0  0  0  0  0  0  0  0
    5.6435    0.2268   -0.1396 C   0  0  0  0  0  0  0  0  0  0  0  0
    5.7269    1.6002   -0.4084 C   0  0  0  0  0  0  0  0  0  0  0  0
    6.7698    2.0971   -1.1970 C   0  0  0  0  0  0  0  0  0  0  0  0
    7.7300    1.2252   -1.7097 C   0  0  0  0  0  0  0  0  0  0  0  0
    9.1376    1.9020   -2.7740 Br  0  0  0  0  0  0  0  0  0  0  0  0
    7.6633   -0.1398   -1.4376 C   0  0  0  0  0  0  0  0  0  0  0  0
    6.6226   -0.6378   -0.6493 C   0  0  0  0  0  0  0  0  0  0  0  0
   -0.3085   -0.6846    2.2936 H   0  0  0  0  0  0  0  0  0  0  0  0
    0.3150   -2.0411    1.3414 H   0  0  0  0  0  0  0  0  0  0  0  0
   -2.7205   -2.2144   -1.9608 H   0  0  0  0  0  0  0  0  0  0  0  0
   -1.9749   -0.6795   -2.4931 H   0  0  0  0  0  0  0  0  0  0  0  0
   -2.5767    1.3218   -1.6168 H   0  0  0  0  0  0  0  0  0  0  0  0
   -6.2230    2.8868    0.7684 H   0  0  0  0  0  0  0  0  0  0  0  0
   -8.0448    1.8555    2.0999 H   0  0  0  0  0  0  0  0  0  0  0  0
   -8.1496   -0.6128    2.3669 H   0  0  0  0  0  0  0  0  0  0  0  0
   -6.4269   -2.0468    1.2959 H   0  0  0  0  0  0  0  0  0  0  0  0
    2.5085   -1.1834    1.7940 H   0  0  0  0  0  0  0  0  0  0  0  0
    3.1474    1.0808    0.0954 H   0  0  0  0  0  0  0  0  0  0  0  0
    5.0085    2.3036    0.0036 H   0  0  0  0  0  0  0  0  0  0  0  0
    6.8287    3.1641   -1.3989 H   0  0  0  0  0  0  0  0  0  0  0  0
    8.4129   -0.8228   -1.8292 H   0  0  0  0  0  0  0  0  0  0  0  0
    6.5762   -1.7046   -0.4359 H   0  0  0  0  0  0  0  0  0  0  0  0
  1  2  2  0
  2  3  1  0
  3  4  1  0
  4  5  1  0
  5  6  2  0
  5  7  1  0
  7  8  1  0
  8  9  1  0
  9 10  2  0
 10 11  1  0
 11 12  2  0
 12 13  1  0
 13 14  2  0
 14 15  1  0
 15 16  2  0
 16 17  1  0
 17 18  2  0
  2 19  1  0
 19 20  1  0
 20 21  1  0
 21 22  2  0
 21 23  1  0
 23 24  2  0
 24 25  1  0
 25 26  2  0
 26 27  1  0
 26 28  1  0
 28 29  2  0
 17  8  1  0
 29 23  1  0
 16 11  1  0
  3 30  1  0
  3 31  1  0
  7 32  1  0
  7 33  1  0
  9 34  1  0
 12 35  1  0
 13 36  1  0
 14 37  1  0
 15 38  1  0
 19 39  1  0
 20 40  1  0
 24 41  1  0
 25 42  1  0
 28 43  1  0
 29 44  1  0
M  END
$$$$
