
     RDKit          3D

 62 65  0  0  0  0  0  0  0  0999 V2000
   -5.4798   -3.1158   -3.1861 C   0  0  0  0  0  0  0  0  0  0  0  0
   -5.2523   -1.9624   -2.2276 C   0  0  0  0  0  0  0  0  0  0  0  0
   -4.2074   -2.3014   -1.3053 O   0  0  0  0  0  0  0  0  0  0  0  0
   -2.9656   -1.8507   -1.6289 C   0  0  0  0  0  0  0  0  0  0  0  0
   -2.6655   -1.1898   -2.6109 O   0  0  0  0  0  0  0  0  0  0  0  0
   -1.9993   -2.2598   -0.5837 C   0  0  0  0  0  0  0  0  0  0  0  0
   -1.7012   -3.5824   -0.4435 C   0  0  0  0  0  0  0  0  0  0  0  0
   -2.3667   -4.6900   -1.2265 C   0  0  0  0  0  0  0  0  0  0  0  0
   -0.6586   -4.0612    0.3530 N   0  0  0  0  0  0  0  0  0  0  0  0
    0.2306   -3.1872    0.6911 C   0  0  0  0  0  0  0  0  0  0  0  0
    1.7598   -3.6050    1.3986 S   0  0  0  0  0  0  0  0  0  0  0  0
    2.4567   -2.0672    0.8820 C   0  0  0  0  0  0  0  0  0  0  0  0
    3.7955   -1.8939    0.9485 C   0  0  0  0  0  0  0  0  0  0  0  0
    4.6396   -2.8753    1.4530 O   0  0  0  0  0  0  0  0  0  0  0  0
    4.5389   -0.6971    0.5306 C   0  0  0  0  0  0  0  0  0  0  0  0
    5.1948    0.0865    1.4865 C   0  0  0  0  0  0  0  0  0  0  0  0
    5.9052    1.2319    1.1075 C   0  0  0  0  0  0  0  0  0  0  0  0
    5.9721    1.6017   -0.2351 C   0  0  0  0  0  0  0  0  0  0  0  0
    6.6219    2.6945   -0.7392 O   0  0  0  0  0  0  0  0  0  0  0  0
    7.3604    3.4856    0.1827 C   0  0  0  0  0  0  0  0  0  0  0  0
    5.3308    0.8136   -1.1916 C   0  0  0  0  0  0  0  0  0  0  0  0
    4.6256   -0.3326   -0.8164 C   0  0  0  0  0  0  0  0  0  0  0  0
    1.3799   -1.1616    0.4308 C   0  0  0  0  0  0  0  0  0  0  0  0
    1.6399    0.1336    0.0391 N   0  0  0  0  0  0  0  0  0  0  0  0
    0.1558   -1.7315    0.4490 C   0  0  0  0  0  0  0  0  0  0  0  0
   -1.2079   -1.2584    0.1804 C   0  0  0  0  0  0  0  0  0  0  0  0
   -1.7221   -0.1161    0.7345 C   0  0  0  0  0  0  0  0  0  0  0  0
   -3.1122    0.3438    0.5182 C   0  0  0  0  0  0  0  0  0  0  0  0
   -3.4930    1.5904    0.8553 C   0  0  0  0  0  0  0  0  0  0  0  0
   -2.5551    2.4989    1.5181 C   0  0  0  0  0  0  0  0  0  0  0  0
   -2.8531    3.8031    1.7057 C   0  0  0  0  0  0  0  0  0  0  0  0
   -2.0196    4.6319    2.4297 O   0  0  0  0  0  0  0  0  0  0  0  0
   -4.0351    4.3518    1.2475 O   0  0  0  0  0  0  0  0  0  0  0  0
   -3.7701    5.2628    0.1762 C   0  0  0  0  0  0  0  0  0  0  0  0
   -1.3290    1.9222    2.0699 C   0  0  0  0  0  0  0  0  0  0  0  0
   -0.9481    0.6815    1.7193 C   0  0  0  0  0  0  0  0  0  0  0  0
   -4.5783   -3.3240   -3.7705 H   0  0  0  0  0  0  0  0  0  0  0  0
   -6.2985   -2.8935   -3.8749 H   0  0  0  0  0  0  0  0  0  0  0  0
   -5.7218   -4.0315   -2.6331 H   0  0  0  0  0  0  0  0  0  0  0  0
   -6.1567   -1.7901   -1.6358 H   0  0  0  0  0  0  0  0  0  0  0  0
   -5.0376   -1.0338   -2.7692 H   0  0  0  0  0  0  0  0  0  0  0  0
   -3.1076   -5.1979   -0.6019 H   0  0  0  0  0  0  0  0  0  0  0  0
   -2.8549   -4.3473   -2.1414 H   0  0  0  0  0  0  0  0  0  0  0  0
   -1.6219   -5.4302   -1.5406 H   0  0  0  0  0  0  0  0  0  0  0  0
    4.0820   -3.6452    1.6726 H   0  0  0  0  0  0  0  0  0  0  0  0
    5.1610   -0.1980    2.5353 H   0  0  0  0  0  0  0  0  0  0  0  0
    6.3964    1.8061    1.8842 H   0  0  0  0  0  0  0  0  0  0  0  0
    8.1502    2.8992    0.6629 H   0  0  0  0  0  0  0  0  0  0  0  0
    7.8406    4.2932   -0.3783 H   0  0  0  0  0  0  0  0  0  0  0  0
    6.7004    3.9442    0.9266 H   0  0  0  0  0  0  0  0  0  0  0  0
    5.3831    1.0908   -2.2413 H   0  0  0  0  0  0  0  0  0  0  0  0
    4.1372   -0.9304   -1.5831 H   0  0  0  0  0  0  0  0  0  0  0  0
    0.8275    0.7300   -0.1016 H   0  0  0  0  0  0  0  0  0  0  0  0
    2.3937    0.6000    0.5362 H   0  0  0  0  0  0  0  0  0  0  0  0
   -3.8638   -0.3133    0.1126 H   0  0  0  0  0  0  0  0  0  0  0  0
   -4.5151    1.9192    0.6902 H   0  0  0  0  0  0  0  0  0  0  0  0
   -2.5778    5.3936    2.6622 H   0  0  0  0  0  0  0  0  0  0  0  0
   -4.7287    5.6412   -0.1891 H   0  0  0  0  0  0  0  0  0  0  0  0
   -3.1763    6.1163    0.5211 H   0  0  0  0  0  0  0  0  0  0  0  0
   -3.2660    4.7567   -0.6524 H   0  0  0  0  0  0  0  0  0  0  0  0
   -0.7576    2.4930    2.7941 H   0  0  0  0  0  0  0  0  0  0  0  0
   -0.0752    0.2573    2.2030 H   0  0  0  0  0  0  0  0  0  0  0  0
  1  2  1  0
  2  3  1  0
  3  4  1  0
  4  5  2  0
  4  6  1  0
  6  7  2  0
  7  8  1  0
  7  9  1  0
  9 10  2  0
 10 11  1  0
 11 12  1  0
 12 13  2  3
 13 14  1  0
 13 15  1  0
 15 16  2  0
 16 17  1  0
 17 18  2  0
 18 19  1  0
 19 20  1  0
 18 21  1  0
 21 22  2  0
 12 23  1  0
 23 24  1  0
 23 25  2  0
 25 26  1  0
 26 27  2  3
 27 28  1  0
 28 29  2  0
 29 30  1  0
 30 31  2  3
 31 32  1  0
 31 33  1  0
 33 34  1  0
 30 35  1  0
 35 36  2  0
 26  6  1  0
 36 27  1  0
 25 10  1  0
 22 15  1  0
  1 37  1  0
  1 38  1  0
  1 39  1  0
  2 40  1  0
  2 41  1  0
  8 42  1  0
  8 43  1  0
  8 44  1  0
 14 45  1  0
 16 46  1  0
 17 47  1  0
 20 48  1  0
 20 49  1  0
 20 50  1  0
 21 51  1  0
 22 52  1  0
 24 53  1  0
 24 54  1  0
 28 55  1  0
 29 56  1  0
 32 57  1  0
 34 58  1  0
 34 59  1  0
 34 60  1  0
 35 61  1  0
 36 62  1  0
M  END
$$$$
