
     RDKit          3D

 52 55  0  0  0  0  0  0  0  0999 V2000
    0.6175   -1.6391   -1.3404 O   0  0  0  0  0  0  0  0  0  0  0  0
   -0.3305   -1.1801   -0.7012 C   0  0  0  0  0  0  0  0  0  0  0  0
   -1.4406   -1.9537   -0.3989 N   0  0  0  0  0  0  0  0  0  0  0  0
   -1.4392   -3.3906   -0.6344 C   0  0  0  0  0  0  0  0  0  0  0  0
   -0.6640   -4.1395    0.4574 C   0  0  0  0  0  0  0  0  0  0  0  0
   -1.7074   -4.6618    1.4492 C   0  0  0  0  0  0  0  0  0  0  0  0
   -3.0604   -4.1744    0.9465 C   0  0  0  0  0  0  0  0  0  0  0  0
   -2.8494   -3.9662   -0.5468 C   0  0  0  0  0  0  0  0  0  0  0  0
   -0.4374    0.3264   -0.3312 C   0  0  0  0  0  0  0  0  0  0  0  0
   -1.1608    0.6776    0.9700 C   0  0  0  0  0  0  0  0  0  0  0  0
   -1.0265   -0.0697    2.1475 C   0  0  0  0  0  0  0  0  0  0  0  0
   -1.7292    0.3208    3.2782 C   0  0  0  0  0  0  0  0  0  0  0  0
   -2.5538    1.3891    3.3186 N   0  0  0  0  0  0  0  0  0  0  0  0
   -2.6538    2.1187    2.1886 C   0  0  0  0  0  0  0  0  0  0  0  0
   -1.9872    1.8108    1.0117 C   0  0  0  0  0  0  0  0  0  0  0  0
    0.8643    1.0138   -0.4876 N   0  0  0  0  0  0  0  0  0  0  0  0
    1.9426    0.5634    0.3067 C   0  0  0  0  0  0  0  0  0  0  0  0
    1.7633   -0.2059    1.2525 O   0  0  0  0  0  0  0  0  0  0  0  0
    3.2881    0.9653   -0.0857 C   0  0  0  0  0  0  0  0  0  0  0  0
    3.8698    1.2660   -1.3074 C   0  0  0  0  0  0  0  0  0  0  0  0
    5.2332    1.5532   -1.0549 C   0  0  0  0  0  0  0  0  0  0  0  0
    5.4088    1.4136    0.2986 C   0  0  0  0  0  0  0  0  0  0  0  0
    4.2450    1.0505    0.8936 O   0  0  0  0  0  0  0  0  0  0  0  0
    0.8478    2.2952   -1.1226 C   0  0  0  0  0  0  0  0  0  0  0  0
    1.4286    3.4130   -0.5083 C   0  0  0  0  0  0  0  0  0  0  0  0
    1.3850    4.6654   -1.1249 C   0  0  0  0  0  0  0  0  0  0  0  0
    0.7616    4.8149   -2.3602 C   0  0  0  0  0  0  0  0  0  0  0  0
    0.1795    3.7131   -2.9805 C   0  0  0  0  0  0  0  0  0  0  0  0
    0.2203    2.4604   -2.3650 C   0  0  0  0  0  0  0  0  0  0  0  0
   -2.1239   -1.5818    0.2499 H   0  0  0  0  0  0  0  0  0  0  0  0
   -0.9993   -3.5696   -1.6207 H   0  0  0  0  0  0  0  0  0  0  0  0
   -0.1315   -4.9905    0.0170 H   0  0  0  0  0  0  0  0  0  0  0  0
    0.0833   -3.5142    0.9567 H   0  0  0  0  0  0  0  0  0  0  0  0
   -1.5138   -4.3164    2.4696 H   0  0  0  0  0  0  0  0  0  0  0  0
   -1.6805   -5.7568    1.4666 H   0  0  0  0  0  0  0  0  0  0  0  0
   -3.8613   -4.8885    1.1554 H   0  0  0  0  0  0  0  0  0  0  0  0
   -3.3224   -3.2271    1.4333 H   0  0  0  0  0  0  0  0  0  0  0  0
   -3.6118   -3.3154   -0.9846 H   0  0  0  0  0  0  0  0  0  0  0  0
   -2.8880   -4.9324   -1.0606 H   0  0  0  0  0  0  0  0  0  0  0  0
   -1.1071    0.6813   -1.1277 H   0  0  0  0  0  0  0  0  0  0  0  0
   -0.3762   -0.9401    2.2036 H   0  0  0  0  0  0  0  0  0  0  0  0
   -1.6438   -0.2367    4.2066 H   0  0  0  0  0  0  0  0  0  0  0  0
   -3.3066    2.9863    2.2533 H   0  0  0  0  0  0  0  0  0  0  0  0
   -2.1138    2.4545    0.1454 H   0  0  0  0  0  0  0  0  0  0  0  0
    3.3694    1.2604   -2.2669 H   0  0  0  0  0  0  0  0  0  0  0  0
    5.9923    1.8234   -1.7748 H   0  0  0  0  0  0  0  0  0  0  0  0
    6.2561    1.5250    0.9598 H   0  0  0  0  0  0  0  0  0  0  0  0
    1.8962    3.3375    0.4704 H   0  0  0  0  0  0  0  0  0  0  0  0
    1.8360    5.5254   -0.6349 H   0  0  0  0  0  0  0  0  0  0  0  0
    0.7316    5.7901   -2.8400 H   0  0  0  0  0  0  0  0  0  0  0  0
   -0.2956    3.8252   -3.9521 H   0  0  0  0  0  0  0  0  0  0  0  0
   -0.2045    1.6106   -2.8948 H   0  0  0  0  0  0  0  0  0  0  0  0
  1  2  2  0
  2  3  1  0
  3  4  1  0
  4  5  1  0
  5  6  1  0
  6  7  1  0
  7  8  1  0
  2  9  1  0
  9 10  1  0
 10 11  2  0
 11 12  1  0
 12 13  2  0
 13 14  1  0
 14 15  2  0
  9 16  1  0
 16 17  1  0
 17 18  2  0
 17 19  1  0
 19 20  2  0
 20 21  1  0
 21 22  2  0
 22 23  1  0
 16 24  1  0
 24 25  2  0
 25 26  1  0
 26 27  2  0
 27 28  1  0
 28 29  2  0
  8  4  1  0
 15 10  1  0
 23 19  1  0
 29 24  1  0
  3 30  1  0
  4 31  1  0
  5 32  1  0
  5 33  1  0
  6 34  1  0
  6 35  1  0
  7 36  1  0
  7 37  1  0
  8 38  1  0
  8 39  1  0
  9 40  1  0
 11 41  1  0
 12 42  1  0
 14 43  1  0
 15 44  1  0
 20 45  1  0
 21 46  1  0
 22 47  1  0
 25 48  1  0
 26 49  1  0
 27 50  1  0
 28 51  1  0
 29 52  1  0
M  END
$$$$
