
     RDKit          3D

 45 47  0  0  0  0  0  0  0  0999 V2000
    6.8894    2.0768    0.9022 C   0  0  0  0  0  0  0  0  0  0  0  0
    5.6134    1.3125    0.7065 C   0  0  0  0  0  0  0  0  0  0  0  0
    5.5818   -0.0650    0.9280 C   0  0  0  0  0  0  0  0  0  0  0  0
    4.3880   -0.7754    0.7828 C   0  0  0  0  0  0  0  0  0  0  0  0
    3.1994   -0.1238    0.4116 C   0  0  0  0  0  0  0  0  0  0  0  0
    1.9726   -0.9042    0.2913 C   0  0  0  0  0  0  0  0  0  0  0  0
    1.8921   -2.0959   -0.4013 C   0  0  0  0  0  0  0  0  0  0  0  0
    0.2993   -2.7193   -0.3133 S   0  0  0  0  0  0  0  0  0  0  0  0
   -0.1702   -1.3644    0.6435 C   0  0  0  0  0  0  0  0  0  0  0  0
   -1.5823   -1.2411    1.1282 C   0  0  0  0  0  0  0  0  0  0  0  0
   -1.6653   -1.6554    2.5337 C   0  0  0  0  0  0  0  0  0  0  0  0
   -1.7567   -1.9972    3.6402 N   0  0  0  0  0  0  0  0  0  0  0  0
   -1.9832    0.2129    1.0111 C   0  0  0  0  0  0  0  0  0  0  0  0
   -2.7976    0.7520    0.1470 N   0  0  0  0  0  0  0  0  0  0  0  0
   -3.4067   -0.0503   -0.8306 C   0  0  0  0  0  0  0  0  0  0  0  0
   -2.7570   -0.2128   -2.0599 C   0  0  0  0  0  0  0  0  0  0  0  0
   -3.3124   -1.0154   -3.0566 C   0  0  0  0  0  0  0  0  0  0  0  0
   -4.5308   -1.6530   -2.8370 C   0  0  0  0  0  0  0  0  0  0  0  0
   -5.2008   -1.4818   -1.6246 C   0  0  0  0  0  0  0  0  0  0  0  0
   -4.6541   -0.6714   -0.6210 C   0  0  0  0  0  0  0  0  0  0  0  0
   -5.5445   -0.5018    0.9199 S   0  0  0  0  0  0  0  0  0  0  0  0
   -6.3394    1.0743    0.5930 C   0  0  0  0  0  0  0  0  0  0  0  0
   -7.1392    1.0058   -0.4994 F   0  0  0  0  0  0  0  0  0  0  0  0
   -7.1302    1.4320    1.6349 F   0  0  0  0  0  0  0  0  0  0  0  0
   -5.4623    2.0833    0.3950 F   0  0  0  0  0  0  0  0  0  0  0  0
    0.7891   -0.4928    0.8812 N   0  0  0  0  0  0  0  0  0  0  0  0
    3.2204    1.2682    0.1864 C   0  0  0  0  0  0  0  0  0  0  0  0
    1.9861    2.0413   -0.1957 C   0  0  0  0  0  0  0  0  0  0  0  0
    4.4297    1.9709    0.3501 C   0  0  0  0  0  0  0  0  0  0  0  0
    6.8329    3.0707    0.4465 H   0  0  0  0  0  0  0  0  0  0  0  0
    7.7271    1.5496    0.4341 H   0  0  0  0  0  0  0  0  0  0  0  0
    7.0934    2.1964    1.9706 H   0  0  0  0  0  0  0  0  0  0  0  0
    6.4833   -0.5935    1.2295 H   0  0  0  0  0  0  0  0  0  0  0  0
    4.3921   -1.8433    0.9900 H   0  0  0  0  0  0  0  0  0  0  0  0
    2.6672   -2.6160   -0.9467 H   0  0  0  0  0  0  0  0  0  0  0  0
   -2.2473   -1.8730    0.5343 H   0  0  0  0  0  0  0  0  0  0  0  0
   -1.5110    0.9093    1.7296 H   0  0  0  0  0  0  0  0  0  0  0  0
   -1.8104    0.2926   -2.2407 H   0  0  0  0  0  0  0  0  0  0  0  0
   -2.7966   -1.1382   -4.0062 H   0  0  0  0  0  0  0  0  0  0  0  0
   -4.9659   -2.2762   -3.6153 H   0  0  0  0  0  0  0  0  0  0  0  0
   -6.1557   -1.9823   -1.4757 H   0  0  0  0  0  0  0  0  0  0  0  0
    1.4468    1.5447   -1.0088 H   0  0  0  0  0  0  0  0  0  0  0  0
    1.3272    2.1565    0.6696 H   0  0  0  0  0  0  0  0  0  0  0  0
    2.2424    3.0437   -0.5565 H   0  0  0  0  0  0  0  0  0  0  0  0
    4.4461    3.0492    0.1985 H   0  0  0  0  0  0  0  0  0  0  0  0
  1  2  1  0
  2  3  2  0
  3  4  1  0
  4  5  2  0
  5  6  1  0
  6  7  2  0
  7  8  1  0
  8  9  1  0
  9 10  1  0
 10 11  1  0
 11 12  3  0
 10 13  1  0
 13 14  2  3
 14 15  1  0
 15 16  2  0
 16 17  1  0
 17 18  2  0
 18 19  1  0
 19 20  2  0
 20 21  1  0
 21 22  1  0
 22 23  1  0
 22 24  1  0
 22 25  1  0
  9 26  2  0
  5 27  1  0
 27 28  1  0
 27 29  2  0
 29  2  1  0
 26  6  1  0
 20 15  1  0
  1 30  1  0
  1 31  1  0
  1 32  1  0
  3 33  1  0
  4 34  1  0
  7 35  1  0
 10 36  1  0
 13 37  1  0
 16 38  1  0
 17 39  1  0
 18 40  1  0
 19 41  1  0
 28 42  1  0
 28 43  1  0
 28 44  1  0
 29 45  1  0
M  END
$$$$
