
     RDKit          3D

 31 33  0  0  0  0  0  0  0  0999 V2000
   -3.5671    0.9198   -0.9169 O   0  0  0  0  0  0  0  0  0  0  0  0
   -2.3733    1.1732   -0.8730 C   0  0  0  0  0  0  0  0  0  0  0  0
   -1.9571    2.4589   -0.7981 O   0  0  0  0  0  0  0  0  0  0  0  0
   -1.2162    0.1896   -0.8843 C   0  0  0  0  0  0  0  0  0  0  0  0
   -1.3219   -0.8431   -1.9826 C   0  0  0  0  0  0  0  0  0  0  0  0
   -2.3313   -1.9685   -1.9592 C   0  0  0  0  0  0  0  0  0  0  0  0
   -0.9432   -2.1650   -1.4058 C   0  0  0  0  0  0  0  0  0  0  0  0
   -0.6519   -1.9835    0.0546 C   0  0  0  0  0  0  0  0  0  0  0  0
   -1.1224   -0.6190    0.3584 N   0  0  0  0  0  0  0  0  0  0  0  0
   -0.6825    0.1078    1.7972 S   0  0  0  0  0  6  0  0  0  0  0  0
   -0.7039   -0.9041    2.8323 O   0  0  0  0  0  0  0  0  0  0  0  0
   -1.4311    1.3371    1.9410 O   0  0  0  0  0  0  0  0  0  0  0  0
    1.0239    0.5573    1.5394 C   0  0  0  0  0  0  0  0  0  0  0  0
    2.0389   -0.3330    1.9062 C   0  0  0  0  0  0  0  0  0  0  0  0
    3.3746    0.0341    1.7304 C   0  0  0  0  0  0  0  0  0  0  0  0
    3.6851    1.2904    1.2077 C   0  0  0  0  0  0  0  0  0  0  0  0
    5.4945    1.7838    0.9706 Br  0  0  0  0  0  0  0  0  0  0  0  0
    2.6737    2.1896    0.8670 C   0  0  0  0  0  0  0  0  0  0  0  0
    1.3367    1.8274    1.0414 C   0  0  0  0  0  0  0  0  0  0  0  0
   -2.7926    2.9557   -0.6620 H   0  0  0  0  0  0  0  0  0  0  0  0
   -0.2791    0.7325   -1.0482 H   0  0  0  0  0  0  0  0  0  0  0  0
   -0.9150   -0.5263   -2.9319 H   0  0  0  0  0  0  0  0  0  0  0  0
   -2.5782   -2.4471   -2.9000 H   0  0  0  0  0  0  0  0  0  0  0  0
   -3.1655   -1.9021   -1.2679 H   0  0  0  0  0  0  0  0  0  0  0  0
   -0.2547   -2.8139   -1.9257 H   0  0  0  0  0  0  0  0  0  0  0  0
   -1.1943   -2.7210    0.6525 H   0  0  0  0  0  0  0  0  0  0  0  0
    0.4229   -2.0810    0.2270 H   0  0  0  0  0  0  0  0  0  0  0  0
    1.8003   -1.3041    2.3351 H   0  0  0  0  0  0  0  0  0  0  0  0
    4.1637   -0.6589    2.0127 H   0  0  0  0  0  0  0  0  0  0  0  0
    2.9163    3.1749    0.4759 H   0  0  0  0  0  0  0  0  0  0  0  0
    0.5506    2.5385    0.7934 H   0  0  0  0  0  0  0  0  0  0  0  0
  1  2  2  0
  2  3  1  0
  2  4  1  0
  4  5  1  0
  5  6  1  0
  6  7  1  0
  7  8  1  0
  8  9  1  0
  9 10  1  0
 10 11  2  0
 10 12  2  0
 10 13  1  0
 13 14  2  0
 14 15  1  0
 15 16  2  0
 16 17  1  0
 16 18  1  0
 18 19  2  0
  9  4  1  0
 19 13  1  0
  7  5  1  0
  3 20  1  0
  4 21  1  0
  5 22  1  0
  6 23  1  0
  6 24  1  0
  7 25  1  0
  8 26  1  0
  8 27  1  0
 14 28  1  0
 15 29  1  0
 18 30  1  0
 19 31  1  0
M  END
$$$$
