
     RDKit          3D

 44 47  0  0  0  0  0  0  0  0999 V2000
   -5.2554    2.1985   -1.6509 C   0  0  0  0  0  0  0  0  0  0  0  0
   -4.9348    0.8821   -2.0830 O   0  0  0  0  0  0  0  0  0  0  0  0
   -3.9375    0.2370   -1.4058 C   0  0  0  0  0  0  0  0  0  0  0  0
   -3.2243    0.7383   -0.3192 C   0  0  0  0  0  0  0  0  0  0  0  0
   -2.2207   -0.0308    0.2840 C   0  0  0  0  0  0  0  0  0  0  0  0
   -1.9137   -1.3168   -0.1862 C   0  0  0  0  0  0  0  0  0  0  0  0
   -0.8068   -2.1662    0.4252 C   0  0  0  0  0  0  0  0  0  0  0  0
    0.5488   -1.6337    0.0290 C   0  0  0  0  0  0  0  0  0  0  0  0
    1.4231   -1.0947    0.8964 C   0  0  0  0  0  0  0  0  0  0  0  0
    2.7122   -0.5753    0.3989 C   0  0  0  0  0  0  0  0  0  0  0  0
    3.8442   -1.3721    0.5736 C   0  0  0  0  0  0  0  0  0  0  0  0
    5.0522   -0.9002    0.1047 C   0  0  0  0  0  0  0  0  0  0  0  0
    5.2042    0.2881   -0.5137 N   0  0  0  0  0  0  0  0  0  0  0  0
    4.1200    1.0596   -0.6870 C   0  0  0  0  0  0  0  0  0  0  0  0
    4.2809    2.2832   -1.3249 C   0  0  0  0  0  0  0  0  0  0  0  0
    3.2071    3.1500   -1.5445 C   0  0  0  0  0  0  0  0  0  0  0  0
    1.9400    2.7858   -1.1152 C   0  0  0  0  0  0  0  0  0  0  0  0
    0.6068    3.8400   -1.3742 Cl  0  0  0  0  0  0  0  0  0  0  0  0
    1.7464    1.5663   -0.4726 C   0  0  0  0  0  0  0  0  0  0  0  0
    2.8307    0.6812   -0.2490 C   0  0  0  0  0  0  0  0  0  0  0  0
    1.1681   -0.9539    2.3706 C   0  0  0  0  0  0  0  0  0  0  0  0
   -0.2766   -1.2644    2.7171 C   0  0  0  0  0  0  0  0  0  0  0  0
   -0.8391   -0.7121    3.6642 O   0  0  0  0  0  0  0  0  0  0  0  0
   -0.9544   -2.3671    1.9390 C   0  0  0  0  0  0  0  0  0  0  0  0
   -2.6357   -1.8084   -1.2840 C   0  0  0  0  0  0  0  0  0  0  0  0
   -3.6376   -1.0392   -1.8821 C   0  0  0  0  0  0  0  0  0  0  0  0
   -5.6304    2.1957   -0.6221 H   0  0  0  0  0  0  0  0  0  0  0  0
   -6.0552    2.5761   -2.2953 H   0  0  0  0  0  0  0  0  0  0  0  0
   -4.3969    2.8698   -1.7580 H   0  0  0  0  0  0  0  0  0  0  0  0
   -3.4195    1.7254    0.0868 H   0  0  0  0  0  0  0  0  0  0  0  0
   -1.6848    0.4037    1.1242 H   0  0  0  0  0  0  0  0  0  0  0  0
   -0.8873   -3.1716   -0.0123 H   0  0  0  0  0  0  0  0  0  0  0  0
    0.7928   -1.6909   -1.0320 H   0  0  0  0  0  0  0  0  0  0  0  0
    3.7912   -2.3417    1.0567 H   0  0  0  0  0  0  0  0  0  0  0  0
    5.9625   -1.4831    0.2145 H   0  0  0  0  0  0  0  0  0  0  0  0
    5.2748    2.5711   -1.6615 H   0  0  0  0  0  0  0  0  0  0  0  0
    3.3734    4.0986   -2.0473 H   0  0  0  0  0  0  0  0  0  0  0  0
    0.7437    1.3028   -0.1460 H   0  0  0  0  0  0  0  0  0  0  0  0
    1.8073   -1.6374    2.9394 H   0  0  0  0  0  0  0  0  0  0  0  0
    1.3726    0.0744    2.6905 H   0  0  0  0  0  0  0  0  0  0  0  0
   -2.0077   -2.4304    2.2353 H   0  0  0  0  0  0  0  0  0  0  0  0
   -0.4720   -3.3047    2.2435 H   0  0  0  0  0  0  0  0  0  0  0  0
   -2.4256   -2.7954   -1.6904 H   0  0  0  0  0  0  0  0  0  0  0  0
   -4.1874   -1.4377   -2.7315 H   0  0  0  0  0  0  0  0  0  0  0  0
  1  2  1  0
  2  3  1  0
  3  4  2  0
  4  5  1  0
  5  6  2  0
  6  7  1  0
  7  8  1  0
  8  9  2  0
  9 10  1  0
 10 11  2  0
 11 12  1  0
 12 13  2  0
 13 14  1  0
 14 15  2  0
 15 16  1  0
 16 17  2  0
 17 18  1  0
 17 19  1  0
 19 20  2  0
  9 21  1  0
 21 22  1  0
 22 23  2  0
 22 24  1  0
  6 25  1  0
 25 26  2  0
 26  3  1  0
 24  7  1  0
 20 10  1  0
 20 14  1  0
  1 27  1  0
  1 28  1  0
  1 29  1  0
  4 30  1  0
  5 31  1  0
  7 32  1  0
  8 33  1  0
 11 34  1  0
 12 35  1  0
 15 36  1  0
 16 37  1  0
 19 38  1  0
 21 39  1  0
 21 40  1  0
 24 41  1  0
 24 42  1  0
 25 43  1  0
 26 44  1  0
M  END
$$$$
