
     RDKit          3D

 38 39  0  0  0  0  0  0  0  0999 V2000
   -6.0663   -0.1988    1.1758 C   0  0  0  0  0  0  0  0  0  0  0  0
   -4.9301    0.5569    1.5768 O   0  0  0  0  0  0  0  0  0  0  0  0
   -3.8203    0.4898    0.7777 C   0  0  0  0  0  0  0  0  0  0  0  0
   -3.5906   -0.5368   -0.1476 C   0  0  0  0  0  0  0  0  0  0  0  0
   -2.4455   -0.5235   -0.9521 C   0  0  0  0  0  0  0  0  0  0  0  0
   -1.5228    0.5205   -0.8424 C   0  0  0  0  0  0  0  0  0  0  0  0
   -0.2974    0.5296   -1.6955 C   0  0  0  0  0  0  0  0  0  0  0  0
   -0.3627    0.1660   -2.9408 N   0  0  0  0  0  0  0  0  0  0  0  0
    0.8838    0.9438   -1.1154 N   0  0  0  0  0  0  0  0  0  0  0  0
    2.0151    0.4067   -1.7650 O   0  0  0  0  0  0  0  0  0  0  0  0
    2.7856   -0.3359   -0.9087 C   0  0  0  0  0  0  0  0  0  0  0  0
    2.5145   -0.4819    0.2781 O   0  0  0  0  0  0  0  0  0  0  0  0
    3.9580   -0.9178   -1.6643 C   0  0  0  0  0  0  0  0  0  0  0  0
    5.0522   -1.3220   -0.7222 C   0  0  0  0  0  0  0  0  0  0  0  0
    6.0209   -0.5211   -0.1508 C   0  0  0  0  0  0  0  0  0  0  0  0
    6.9024   -1.2531    0.6937 C   0  0  0  0  0  0  0  0  0  0  0  0
    6.5653   -2.5866    0.7596 C   0  0  0  0  0  0  0  0  0  0  0  0
    5.2139   -2.9543   -0.2216 S   0  0  0  0  0  0  0  0  0  0  0  0
   -1.7348    1.5438    0.0838 C   0  0  0  0  0  0  0  0  0  0  0  0
   -2.8640    1.5157    0.9078 C   0  0  0  0  0  0  0  0  0  0  0  0
   -2.9773    2.5852    1.7609 O   0  0  0  0  0  0  0  0  0  0  0  0
   -3.2130    2.2115    3.1183 C   0  0  0  0  0  0  0  0  0  0  0  0
   -6.9033    0.0970    1.8154 H   0  0  0  0  0  0  0  0  0  0  0  0
   -6.3420    0.0221    0.1375 H   0  0  0  0  0  0  0  0  0  0  0  0
   -5.8982   -1.2704    1.3222 H   0  0  0  0  0  0  0  0  0  0  0  0
   -4.2846   -1.3650   -0.2652 H   0  0  0  0  0  0  0  0  0  0  0  0
   -2.2775   -1.3435   -1.6480 H   0  0  0  0  0  0  0  0  0  0  0  0
   -1.3239   -0.0478   -3.2178 H   0  0  0  0  0  0  0  0  0  0  0  0
    0.9410    0.8286   -0.1009 H   0  0  0  0  0  0  0  0  0  0  0  0
    4.3519   -0.1548   -2.3461 H   0  0  0  0  0  0  0  0  0  0  0  0
    3.6032   -1.7646   -2.2623 H   0  0  0  0  0  0  0  0  0  0  0  0
    6.1002    0.5439   -0.3316 H   0  0  0  0  0  0  0  0  0  0  0  0
    7.7339   -0.8230    1.2374 H   0  0  0  0  0  0  0  0  0  0  0  0
    7.0560   -3.3654    1.3293 H   0  0  0  0  0  0  0  0  0  0  0  0
   -1.0379    2.3734    0.1655 H   0  0  0  0  0  0  0  0  0  0  0  0
   -2.8014    2.9997    3.7550 H   0  0  0  0  0  0  0  0  0  0  0  0
   -2.7167    1.2705    3.3898 H   0  0  0  0  0  0  0  0  0  0  0  0
   -4.2876    2.1614    3.3218 H   0  0  0  0  0  0  0  0  0  0  0  0
  1  2  1  0
  2  3  1  0
  3  4  2  0
  4  5  1  0
  5  6  2  0
  6  7  1  0
  7  8  2  3
  7  9  1  0
  9 10  1  0
 10 11  1  0
 11 12  2  0
 11 13  1  0
 13 14  1  0
 14 15  2  0
 15 16  1  0
 16 17  2  0
 17 18  1  0
  6 19  1  0
 19 20  2  0
 20 21  1  0
 21 22  1  0
 20  3  1  0
 18 14  1  0
  1 23  1  0
  1 24  1  0
  1 25  1  0
  4 26  1  0
  5 27  1  0
  8 28  1  0
  9 29  1  0
 13 30  1  0
 13 31  1  0
 15 32  1  0
 16 33  1  0
 17 34  1  0
 19 35  1  0
 22 36  1  0
 22 37  1  0
 22 38  1  0
M  END
$$$$
