
     RDKit          3D

 55 59  0  0  0  0  0  0  0  0999 V2000
   -6.9627   -1.6800    1.4835 C   0  0  0  0  0  0  0  0  0  0  0  0
   -5.9917   -0.8568    0.6895 C   0  0  0  0  0  0  0  0  0  0  0  0
   -6.2073    0.5174    0.5338 C   0  0  0  0  0  0  0  0  0  0  0  0
   -5.2965    1.3008   -0.1783 C   0  0  0  0  0  0  0  0  0  0  0  0
   -4.1490    0.7250   -0.7442 C   0  0  0  0  0  0  0  0  0  0  0  0
   -3.1516    1.5757   -1.4902 C   0  0  0  0  0  0  0  0  0  0  0  0
   -2.1814    2.6731   -0.4160 S   0  0  0  0  0  0  0  0  0  0  0  0
   -1.4390    1.4646    0.6183 C   0  0  0  0  0  0  0  0  0  0  0  0
   -1.9346    1.3627    1.8209 N   0  0  0  0  0  0  0  0  0  0  0  0
   -1.4192    0.4009    2.7156 C   0  0  0  0  0  0  0  0  0  0  0  0
   -1.9859    0.2870    3.9852 C   0  0  0  0  0  0  0  0  0  0  0  0
   -1.4997   -0.6558    4.8955 C   0  0  0  0  0  0  0  0  0  0  0  0
   -0.4420   -1.4944    4.5393 C   0  0  0  0  0  0  0  0  0  0  0  0
    0.1313   -1.3943    3.2716 C   0  0  0  0  0  0  0  0  0  0  0  0
   -0.3576   -0.4501    2.3648 C   0  0  0  0  0  0  0  0  0  0  0  0
    0.1870   -0.2915    1.0306 C   0  0  0  0  0  0  0  0  0  0  0  0
    1.1783   -0.9442    0.4604 N   0  0  0  0  0  0  0  0  0  0  0  0
    1.2997   -0.4010   -0.7960 C   0  0  0  0  0  0  0  0  0  0  0  0
    2.3342   -0.9369   -1.7238 C   0  0  0  0  0  0  0  0  0  0  0  0
    3.0335    0.1746   -2.4797 C   0  0  0  0  0  0  0  0  0  0  0  0
    2.4377    0.8745   -3.3014 O   0  0  0  0  0  0  0  0  0  0  0  0
    4.3598    0.3531   -2.1595 N   0  0  0  0  0  0  0  0  0  0  0  0
    5.0825    1.4758   -2.7150 C   0  0  0  0  0  0  0  0  0  0  0  0
    6.4917    1.3950   -2.2671 C   0  0  0  0  0  0  0  0  0  0  0  0
    7.6659    1.0058   -2.8773 C   0  0  0  0  0  0  0  0  0  0  0  0
    8.6871    1.1461   -1.9052 C   0  0  0  0  0  0  0  0  0  0  0  0
    8.0711    1.6115   -0.7665 C   0  0  0  0  0  0  0  0  0  0  0  0
    6.7370    1.7588   -0.9724 O   0  0  0  0  0  0  0  0  0  0  0  0
    0.3539    0.5949   -0.9901 C   0  0  0  0  0  0  0  0  0  0  0  0
    0.1071    1.3883   -2.0288 O   0  0  0  0  0  0  0  0  0  0  0  0
   -0.3660    0.6580    0.1932 N   0  0  0  0  0  0  0  0  0  0  0  0
   -3.9366   -0.6525   -0.5882 C   0  0  0  0  0  0  0  0  0  0  0  0
   -4.8472   -1.4348    0.1275 C   0  0  0  0  0  0  0  0  0  0  0  0
   -7.9844   -1.5051    1.1303 H   0  0  0  0  0  0  0  0  0  0  0  0
   -6.8977   -1.4144    2.5445 H   0  0  0  0  0  0  0  0  0  0  0  0
   -6.7566   -2.7518    1.3851 H   0  0  0  0  0  0  0  0  0  0  0  0
   -7.0831    0.9888    0.9749 H   0  0  0  0  0  0  0  0  0  0  0  0
   -5.4807    2.3689   -0.2738 H   0  0  0  0  0  0  0  0  0  0  0  0
   -2.4824    0.9452   -2.0841 H   0  0  0  0  0  0  0  0  0  0  0  0
   -3.6922    2.1994   -2.2101 H   0  0  0  0  0  0  0  0  0  0  0  0
   -2.8120    0.9371    4.2621 H   0  0  0  0  0  0  0  0  0  0  0  0
   -1.9472   -0.7343    5.8836 H   0  0  0  0  0  0  0  0  0  0  0  0
   -0.0650   -2.2256    5.2497 H   0  0  0  0  0  0  0  0  0  0  0  0
    0.9545   -2.0483    2.9918 H   0  0  0  0  0  0  0  0  0  0  0  0
    1.8672   -1.6036   -2.4587 H   0  0  0  0  0  0  0  0  0  0  0  0
    3.0681   -1.5347   -1.1707 H   0  0  0  0  0  0  0  0  0  0  0  0
    4.6551    0.0593   -1.2359 H   0  0  0  0  0  0  0  0  0  0  0  0
    4.6113    2.4003   -2.3627 H   0  0  0  0  0  0  0  0  0  0  0  0
    5.0011    1.4498   -3.8061 H   0  0  0  0  0  0  0  0  0  0  0  0
    7.7702    0.6623   -3.8985 H   0  0  0  0  0  0  0  0  0  0  0  0
    9.7435    0.9376   -2.0166 H   0  0  0  0  0  0  0  0  0  0  0  0
    8.4223    1.8699    0.2239 H   0  0  0  0  0  0  0  0  0  0  0  0
    0.8275    1.2860   -2.6926 H   0  0  0  0  0  0  0  0  0  0  0  0
   -3.0540   -1.1303   -1.0113 H   0  0  0  0  0  0  0  0  0  0  0  0
   -4.6552   -2.4993    0.2448 H   0  0  0  0  0  0  0  0  0  0  0  0
  1  2  1  0
  2  3  2  0
  3  4  1  0
  4  5  2  0
  5  6  1  0
  6  7  1  0
  7  8  1  0
  8  9  2  0
  9 10  1  0
 10 11  2  0
 11 12  1  0
 12 13  2  0
 13 14  1  0
 14 15  2  0
 15 16  1  0
 16 17  2  0
 17 18  1  0
 18 19  1  0
 19 20  1  0
 20 21  2  0
 20 22  1  0
 22 23  1  0
 23 24  1  0
 24 25  2  0
 25 26  1  0
 26 27  2  0
 27 28  1  0
 18 29  2  0
 29 30  1  0
 29 31  1  0
  5 32  1  0
 32 33  2  0
 33  2  1  0
 31  8  1  0
 15 10  1  0
 31 16  1  0
 28 24  1  0
  1 34  1  0
  1 35  1  0
  1 36  1  0
  3 37  1  0
  4 38  1  0
  6 39  1  0
  6 40  1  0
 11 41  1  0
 12 42  1  0
 13 43  1  0
 14 44  1  0
 19 45  1  0
 19 46  1  0
 22 47  1  0
 23 48  1  0
 23 49  1  0
 25 50  1  0
 26 51  1  0
 27 52  1  0
 30 53  1  0
 32 54  1  0
 33 55  1  0
M  END
$$$$
