
     RDKit          3D

 73 76  0  0  0  0  0  0  0  0999 V2000
    7.8768    1.2460   -0.6374 C   0  0  0  0  0  0  0  0  0  0  0  0
    7.0035    0.1868    0.0334 C   0  0  0  0  0  0  0  0  0  0  0  0
    6.6431    0.5848    1.4652 C   0  0  0  0  0  0  0  0  0  0  0  0
    5.7868   -0.5028    2.1429 C   0  0  0  0  0  0  0  0  0  0  0  0
    6.6125   -1.3110    3.1466 C   0  0  0  0  0  0  0  0  0  0  0  0
    5.1220   -1.4515    1.1238 C   0  0  0  0  0  0  0  0  0  0  0  0
    4.6225   -0.6882   -0.0237 N   0  0  0  0  0  0  0  0  0  0  0  0
    3.7473   -1.5136   -0.8715 C   0  0  0  0  0  0  0  0  0  0  0  0
    3.0165   -0.7300   -1.9718 C   0  0  0  0  0  0  0  0  0  0  0  0
    2.1723    0.4370   -1.4571 C   0  0  0  0  0  0  0  0  0  0  0  0
    1.1603    0.0347   -0.5011 N   0  0  0  0  0  0  0  0  0  0  0  0
    0.0098   -0.6169   -0.8998 C   0  0  0  0  0  0  0  0  0  0  0  0
   -0.2834   -0.7906   -2.0804 O   0  0  0  0  0  0  0  0  0  0  0  0
   -0.8939   -1.0431    0.2631 C   0  0  0  0  0  0  0  0  0  0  0  0
   -1.7819   -2.1380   -0.1305 N   0  0  0  0  0  0  0  0  0  0  0  0
   -1.2390   -3.4212   -0.0340 C   0  0  0  0  0  0  0  0  0  0  0  0
   -0.1268   -3.6271    0.4676 O   0  0  0  0  0  0  0  0  0  0  0  0
   -1.9955   -4.5636   -0.6714 C   0  0  0  0  0  0  0  0  0  0  0  0
   -3.7272   -4.5617   -0.1941 S   0  0  0  0  0  0  0  0  0  0  0  0
   -4.0748   -2.8897   -0.6983 C   0  0  0  0  0  0  0  0  0  0  0  0
   -5.3816   -2.6123   -1.1329 C   0  0  0  0  0  0  0  0  0  0  0  0
   -5.7430   -1.3233   -1.5140 C   0  0  0  0  0  0  0  0  0  0  0  0
   -4.7901   -0.3113   -1.4479 C   0  0  0  0  0  0  0  0  0  0  0  0
   -5.2169    1.3478   -1.9192 S   0  0  0  0  0  6  0  0  0  0  0  0
   -4.1357    1.8510   -2.7382 O   0  0  0  0  0  0  0  0  0  0  0  0
   -6.5852    1.3530   -2.3933 O   0  0  0  0  0  0  0  0  0  0  0  0
   -5.1880    2.1750   -0.4201 N   0  0  0  0  0  0  0  0  0  0  0  0
   -6.1570    1.6789    0.6006 C   0  0  0  0  0  0  0  0  0  0  0  0
   -6.2297    2.6399    1.7813 C   0  0  0  0  0  0  0  0  0  0  0  0
   -6.7525    4.0087    1.3514 C   0  0  0  0  0  0  0  0  0  0  0  0
   -6.4280    4.3196   -0.1086 C   0  0  0  0  0  0  0  0  0  0  0  0
   -5.1263    3.6630   -0.5466 C   0  0  0  0  0  0  0  0  0  0  0  0
   -3.4817   -0.5754   -1.0188 C   0  0  0  0  0  0  0  0  0  0  0  0
   -3.1023   -1.8694   -0.6272 C   0  0  0  0  0  0  0  0  0  0  0  0
    5.7261   -0.0778   -0.7921 C   0  0  0  0  0  0  0  0  0  0  0  0
    8.1375    0.9468   -1.6578 H   0  0  0  0  0  0  0  0  0  0  0  0
    8.8085    1.3878   -0.0806 H   0  0  0  0  0  0  0  0  0  0  0  0
    7.3641    2.2120   -0.6868 H   0  0  0  0  0  0  0  0  0  0  0  0
    7.5898   -0.7420    0.0749 H   0  0  0  0  0  0  0  0  0  0  0  0
    6.0687    1.5208    1.4411 H   0  0  0  0  0  0  0  0  0  0  0  0
    7.5476    0.7967    2.0482 H   0  0  0  0  0  0  0  0  0  0  0  0
    4.9978    0.0082    2.7113 H   0  0  0  0  0  0  0  0  0  0  0  0
    7.0482   -0.6558    3.9094 H   0  0  0  0  0  0  0  0  0  0  0  0
    7.4305   -1.8407    2.6482 H   0  0  0  0  0  0  0  0  0  0  0  0
    5.9881   -2.0517    3.6586 H   0  0  0  0  0  0  0  0  0  0  0  0
    5.8152   -2.2375    0.7951 H   0  0  0  0  0  0  0  0  0  0  0  0
    4.2937   -1.9592    1.6354 H   0  0  0  0  0  0  0  0  0  0  0  0
    4.3210   -2.3278   -1.3335 H   0  0  0  0  0  0  0  0  0  0  0  0
    2.9865   -1.9957   -0.2442 H   0  0  0  0  0  0  0  0  0  0  0  0
    2.3737   -1.4328   -2.5169 H   0  0  0  0  0  0  0  0  0  0  0  0
    3.7379   -0.3480   -2.7039 H   0  0  0  0  0  0  0  0  0  0  0  0
    1.6716    0.9208   -2.3037 H   0  0  0  0  0  0  0  0  0  0  0  0
    2.7961    1.1920   -0.9683 H   0  0  0  0  0  0  0  0  0  0  0  0
    1.4617   -0.0473    0.4633 H   0  0  0  0  0  0  0  0  0  0  0  0
   -1.4607   -0.1811    0.6285 H   0  0  0  0  0  0  0  0  0  0  0  0
   -0.2628   -1.3692    1.0985 H   0  0  0  0  0  0  0  0  0  0  0  0
   -1.5506   -5.5086   -0.3446 H   0  0  0  0  0  0  0  0  0  0  0  0
   -1.8915   -4.4965   -1.7594 H   0  0  0  0  0  0  0  0  0  0  0  0
   -6.1263   -3.4047   -1.1782 H   0  0  0  0  0  0  0  0  0  0  0  0
   -6.7556   -1.1233   -1.8565 H   0  0  0  0  0  0  0  0  0  0  0  0
   -7.1540    1.5527    0.1626 H   0  0  0  0  0  0  0  0  0  0  0  0
   -5.8165    0.7054    0.9681 H   0  0  0  0  0  0  0  0  0  0  0  0
   -6.8739    2.2307    2.5681 H   0  0  0  0  0  0  0  0  0  0  0  0
   -5.2298    2.7550    2.2189 H   0  0  0  0  0  0  0  0  0  0  0  0
   -6.3217    4.7761    2.0060 H   0  0  0  0  0  0  0  0  0  0  0  0
   -7.8403    4.0566    1.4890 H   0  0  0  0  0  0  0  0  0  0  0  0
   -6.3730    5.4047   -0.2497 H   0  0  0  0  0  0  0  0  0  0  0  0
   -7.2475    3.9608   -0.7442 H   0  0  0  0  0  0  0  0  0  0  0  0
   -4.8983    3.9674   -1.5741 H   0  0  0  0  0  0  0  0  0  0  0  0
   -4.2919    4.0176    0.0724 H   0  0  0  0  0  0  0  0  0  0  0  0
   -2.7734    0.2503   -1.0279 H   0  0  0  0  0  0  0  0  0  0  0  0
    6.0134   -0.7138   -1.6403 H   0  0  0  0  0  0  0  0  0  0  0  0
    5.3575    0.8655   -1.2137 H   0  0  0  0  0  0  0  0  0  0  0  0
  1  2  1  0
  2  3  1  0
  3  4  1  0
  4  5  1  0
  4  6  1  0
  6  7  1  0
  7  8  1  0
  8  9  1  0
  9 10  1  0
 10 11  1  0
 11 12  1  0
 12 13  2  0
 12 14  1  0
 14 15  1  0
 15 16  1  0
 16 17  2  0
 16 18  1  0
 18 19  1  0
 19 20  1  0
 20 21  2  0
 21 22  1  0
 22 23  2  0
 23 24  1  0
 24 25  2  0
 24 26  2  0
 24 27  1  0
 27 28  1  0
 28 29  1  0
 29 30  1  0
 30 31  1  0
 31 32  1  0
 23 33  1  0
 33 34  2  0
  7 35  1  0
 35  2  1  0
 34 15  1  0
 34 20  1  0
 32 27  1  0
  1 36  1  0
  1 37  1  0
  1 38  1  0
  2 39  1  0
  3 40  1  0
  3 41  1  0
  4 42  1  0
  5 43  1  0
  5 44  1  0
  5 45  1  0
  6 46  1  0
  6 47  1  0
  8 48  1  0
  8 49  1  0
  9 50  1  0
  9 51  1  0
 10 52  1  0
 10 53  1  0
 11 54  1  0
 14 55  1  0
 14 56  1  0
 18 57  1  0
 18 58  1  0
 21 59  1  0
 22 60  1  0
 28 61  1  0
 28 62  1  0
 29 63  1  0
 29 64  1  0
 30 65  1  0
 30 66  1  0
 31 67  1  0
 31 68  1  0
 32 69  1  0
 32 70  1  0
 33 71  1  0
 35 72  1  0
 35 73  1  0
M  END
$$$$
