
     RDKit          3D

 45 47  0  0  0  0  0  0  0  0999 V2000
    8.6232    0.4383   -2.7454 N   0  0  0  0  0  0  0  0  0  0  0  0
    7.6800    0.3556   -2.0738 C   0  0  0  0  0  0  0  0  0  0  0  0
    6.5142    0.2511   -1.2462 C   0  0  0  0  0  0  0  0  0  0  0  0
    5.7270   -0.9019   -1.2838 C   0  0  0  0  0  0  0  0  0  0  0  0
    4.5915   -0.9963   -0.4745 C   0  0  0  0  0  0  0  0  0  0  0  0
    4.2312    0.0530    0.3773 C   0  0  0  0  0  0  0  0  0  0  0  0
    3.0984   -0.1726    1.1073 O   0  0  0  0  0  0  0  0  0  0  0  0
    2.6647    0.8700    1.9735 C   0  0  0  0  0  0  0  0  0  0  0  0
    1.3895    0.4381    2.6971 C   0  0  0  0  0  0  0  0  0  0  0  0
    1.4165    0.2010    3.9081 O   0  0  0  0  0  0  0  0  0  0  0  0
    0.2142    0.3548    1.9645 N   0  0  0  0  0  0  0  0  0  0  0  0
   -1.0130   -0.0441    2.6644 C   0  0  0  0  0  0  0  0  0  0  0  0
   -2.2904    0.2286    1.8521 C   0  0  0  0  0  0  0  0  0  0  0  0
   -2.2085   -0.4258    0.5351 N   0  0  0  0  0  0  0  0  0  0  0  0
   -3.3642   -0.3792   -0.2394 C   0  0  0  0  0  0  0  0  0  0  0  0
   -3.4726   -1.1381   -1.4061 C   0  0  0  0  0  0  0  0  0  0  0  0
   -4.6431   -1.0983   -2.1649 C   0  0  0  0  0  0  0  0  0  0  0  0
   -5.7062   -0.3028   -1.7450 C   0  0  0  0  0  0  0  0  0  0  0  0
   -6.9861   -0.1923   -2.5102 C   0  0  0  0  0  0  0  0  0  0  0  0
   -7.0217    0.9097   -3.3087 F   0  0  0  0  0  0  0  0  0  0  0  0
   -8.0819   -0.1055   -1.7055 F   0  0  0  0  0  0  0  0  0  0  0  0
   -7.2131   -1.2554   -3.3321 F   0  0  0  0  0  0  0  0  0  0  0  0
   -5.5268    0.4189   -0.5775 C   0  0  0  0  0  0  0  0  0  0  0  0
   -4.3975    0.3878    0.1707 N   0  0  0  0  0  0  0  0  0  0  0  0
   -0.9098   -0.3611   -0.1596 C   0  0  0  0  0  0  0  0  0  0  0  0
    0.0797    0.6048    0.5248 C   0  0  0  0  0  0  0  0  0  0  0  0
    5.0194    1.2040    0.4160 C   0  0  0  0  0  0  0  0  0  0  0  0
    6.1575    1.3031   -0.3942 C   0  0  0  0  0  0  0  0  0  0  0  0
    5.9899   -1.7338   -1.9353 H   0  0  0  0  0  0  0  0  0  0  0  0
    3.9863   -1.9006   -0.5027 H   0  0  0  0  0  0  0  0  0  0  0  0
    3.4255    1.0709    2.7375 H   0  0  0  0  0  0  0  0  0  0  0  0
    2.4519    1.7918    1.4194 H   0  0  0  0  0  0  0  0  0  0  0  0
   -1.0633    0.4711    3.6305 H   0  0  0  0  0  0  0  0  0  0  0  0
   -0.9230   -1.1193    2.8672 H   0  0  0  0  0  0  0  0  0  0  0  0
   -3.1462   -0.1561    2.4205 H   0  0  0  0  0  0  0  0  0  0  0  0
   -2.4185    1.3126    1.7271 H   0  0  0  0  0  0  0  0  0  0  0  0
   -2.6617   -1.7889   -1.7182 H   0  0  0  0  0  0  0  0  0  0  0  0
   -4.7186   -1.6981   -3.0701 H   0  0  0  0  0  0  0  0  0  0  0  0
   -6.3091    1.0664   -0.1845 H   0  0  0  0  0  0  0  0  0  0  0  0
   -0.4797   -1.3700   -0.1658 H   0  0  0  0  0  0  0  0  0  0  0  0
   -1.0163   -0.0397   -1.2032 H   0  0  0  0  0  0  0  0  0  0  0  0
    1.0431    0.5532    0.0156 H   0  0  0  0  0  0  0  0  0  0  0  0
   -0.2809    1.6358    0.4236 H   0  0  0  0  0  0  0  0  0  0  0  0
    4.7846    2.0415    1.0662 H   0  0  0  0  0  0  0  0  0  0  0  0
    6.7640    2.2072   -0.3518 H   0  0  0  0  0  0  0  0  0  0  0  0
  1  2  3  0
  2  3  1  0
  3  4  2  0
  4  5  1  0
  5  6  2  0
  6  7  1  0
  7  8  1  0
  8  9  1  0
  9 10  2  0
  9 11  1  0
 11 12  1  0
 12 13  1  0
 13 14  1  0
 14 15  1  0
 15 16  2  0
 16 17  1  0
 17 18  2  0
 18 19  1  0
 19 20  1  0
 19 21  1  0
 19 22  1  0
 18 23  1  0
 23 24  2  0
 14 25  1  0
 25 26  1  0
  6 27  1  0
 27 28  2  0
 28  3  1  0
 26 11  1  0
 24 15  1  0
  4 29  1  0
  5 30  1  0
  8 31  1  0
  8 32  1  0
 12 33  1  0
 12 34  1  0
 13 35  1  0
 13 36  1  0
 16 37  1  0
 17 38  1  0
 23 39  1  0
 25 40  1  0
 25 41  1  0
 26 42  1  0
 26 43  1  0
 27 44  1  0
 28 45  1  0
M  END
$$$$
