
     RDKit          3D

 52 53  0  0  0  0  0  0  0  0999 V2000
   -7.9223    0.1441   -0.2020 C   0  0  0  0  0  0  0  0  0  0  0  0
   -6.4388    0.3114   -0.5022 C   0  0  0  0  0  0  0  0  0  0  0  0
   -5.5632   -0.8040    0.1038 C   0  0  0  0  0  0  0  0  0  0  0  0
   -5.8618   -2.1814   -0.4989 C   0  0  0  0  0  0  0  0  0  0  0  0
   -4.0863   -0.4639   -0.0353 C   0  0  0  0  0  0  0  0  0  0  0  0
   -3.3040   -0.2708    1.1106 C   0  0  0  0  0  0  0  0  0  0  0  0
   -1.9454    0.0415    1.0053 C   0  0  0  0  0  0  0  0  0  0  0  0
   -1.3337    0.1788   -0.2489 C   0  0  0  0  0  0  0  0  0  0  0  0
    0.1486    0.4984   -0.3328 C   0  0  0  0  0  0  0  0  0  0  0  0
    0.4452    1.6482   -1.3012 C   0  0  0  0  0  0  0  0  0  0  0  0
    0.8890   -0.7038   -0.7017 N   0  0  0  0  0  0  0  0  0  0  0  0
    2.1898   -1.0389   -0.4963 C   0  0  0  0  0  0  0  0  0  0  0  0
    2.6918   -2.5267   -1.0625 S   0  0  0  0  0  0  0  0  0  0  0  0
    2.9521   -0.1344    0.1835 N   0  0  0  0  0  0  0  0  0  0  0  0
    4.3925   -0.2167    0.4484 C   0  0  0  0  0  0  0  0  0  0  0  0
    4.7429    0.5909    1.7006 C   0  0  0  0  0  0  0  0  0  0  0  0
    6.2225    0.4606    2.0681 C   0  0  0  0  0  0  0  0  0  0  0  0
    7.1345    0.2395    0.8604 C   0  0  0  0  0  0  0  0  0  0  0  0
    6.5621    0.8671   -0.4024 C   0  0  0  0  0  0  0  0  0  0  0  0
    5.1997    0.2724   -0.7684 C   0  0  0  0  0  0  0  0  0  0  0  0
   -2.1148   -0.0288   -1.3952 C   0  0  0  0  0  0  0  0  0  0  0  0
   -3.4736   -0.3409   -1.2895 C   0  0  0  0  0  0  0  0  0  0  0  0
   -8.3324   -0.7460   -0.6877 H   0  0  0  0  0  0  0  0  0  0  0  0
   -8.0995    0.0658    0.8752 H   0  0  0  0  0  0  0  0  0  0  0  0
   -8.4797    1.0098   -0.5742 H   0  0  0  0  0  0  0  0  0  0  0  0
   -6.3026    0.3631   -1.5895 H   0  0  0  0  0  0  0  0  0  0  0  0
   -6.1176    1.2821   -0.1023 H   0  0  0  0  0  0  0  0  0  0  0  0
   -5.7991   -0.8661    1.1750 H   0  0  0  0  0  0  0  0  0  0  0  0
   -6.8800   -2.5040   -0.2599 H   0  0  0  0  0  0  0  0  0  0  0  0
   -5.1779   -2.9396   -0.1007 H   0  0  0  0  0  0  0  0  0  0  0  0
   -5.7591   -2.1797   -1.5895 H   0  0  0  0  0  0  0  0  0  0  0  0
   -3.7447   -0.3676    2.1007 H   0  0  0  0  0  0  0  0  0  0  0  0
   -1.3660    0.1708    1.9173 H   0  0  0  0  0  0  0  0  0  0  0  0
    0.4940    0.8103    0.6604 H   0  0  0  0  0  0  0  0  0  0  0  0
   -0.1476    2.5348   -1.0507 H   0  0  0  0  0  0  0  0  0  0  0  0
    1.5020    1.9323   -1.2666 H   0  0  0  0  0  0  0  0  0  0  0  0
    0.2269    1.3764   -2.3398 H   0  0  0  0  0  0  0  0  0  0  0  0
    0.3629   -1.4206   -1.1896 H   0  0  0  0  0  0  0  0  0  0  0  0
    2.5572    0.7841    0.3020 H   0  0  0  0  0  0  0  0  0  0  0  0
    4.6465   -1.2654    0.6441 H   0  0  0  0  0  0  0  0  0  0  0  0
    4.1264    0.2749    2.5511 H   0  0  0  0  0  0  0  0  0  0  0  0
    4.5033    1.6496    1.5321 H   0  0  0  0  0  0  0  0  0  0  0  0
    6.5311    1.3652    2.6060 H   0  0  0  0  0  0  0  0  0  0  0  0
    6.3593   -0.3722    2.7685 H   0  0  0  0  0  0  0  0  0  0  0  0
    8.1294    0.6476    1.0714 H   0  0  0  0  0  0  0  0  0  0  0  0
    7.2676   -0.8376    0.6976 H   0  0  0  0  0  0  0  0  0  0  0  0
    7.2565    0.7365   -1.2401 H   0  0  0  0  0  0  0  0  0  0  0  0
    6.4569    1.9488   -0.2505 H   0  0  0  0  0  0  0  0  0  0  0  0
    4.6352    1.0234   -1.3362 H   0  0  0  0  0  0  0  0  0  0  0  0
    5.3470   -0.5698   -1.4560 H   0  0  0  0  0  0  0  0  0  0  0  0
   -1.6742    0.0425   -2.3870 H   0  0  0  0  0  0  0  0  0  0  0  0
   -4.0484   -0.4920   -2.2005 H   0  0  0  0  0  0  0  0  0  0  0  0
  1  2  1  0
  2  3  1  0
  3  4  1  0
  3  5  1  0
  5  6  2  0
  6  7  1  0
  7  8  2  0
  8  9  1  0
  9 10  1  0
  9 11  1  0
 11 12  1  0
 12 13  2  0
 12 14  1  0
 14 15  1  0
 15 16  1  0
 16 17  1  0
 17 18  1  0
 18 19  1  0
 19 20  1  0
  8 21  1  0
 21 22  2  0
 22  5  1  0
 20 15  1  0
  1 23  1  0
  1 24  1  0
  1 25  1  0
  2 26  1  0
  2 27  1  0
  3 28  1  0
  4 29  1  0
  4 30  1  0
  4 31  1  0
  6 32  1  0
  7 33  1  0
  9 34  1  0
 10 35  1  0
 10 36  1  0
 10 37  1  0
 11 38  1  0
 14 39  1  0
 15 40  1  0
 16 41  1  0
 16 42  1  0
 17 43  1  0
 17 44  1  0
 18 45  1  0
 18 46  1  0
 19 47  1  0
 19 48  1  0
 20 49  1  0
 20 50  1  0
 21 51  1  0
 22 52  1  0
M  END
$$$$
