
     RDKit          3D

 48 48  0  0  0  0  0  0  0  0999 V2000
    3.0815   -0.2140   -2.4185 C   0  0  0  0  0  0  0  0  0  0  0  0
    3.7090    0.2857   -1.1124 C   0  0  0  0  0  0  0  0  0  0  0  0
    2.9260    1.4732   -0.5140 C   0  0  0  0  0  0  0  0  0  0  0  0
    1.4841    1.2865   -0.4898 N   0  0  0  0  0  0  0  0  0  0  0  0
    0.8001    0.8690    0.6320 C   0  0  0  0  0  0  0  0  0  0  0  0
    1.3275    0.6188    1.7084 O   0  0  0  0  0  0  0  0  0  0  0  0
   -0.6688    0.6867    0.4706 C   0  0  0  0  0  0  0  0  0  0  0  0
   -1.3098   -0.2763    1.2510 C   0  0  0  0  0  0  0  0  0  0  0  0
   -2.6878   -0.4809    1.1267 C   0  0  0  0  0  0  0  0  0  0  0  0
   -3.4669    0.2754    0.2288 C   0  0  0  0  0  0  0  0  0  0  0  0
   -4.9819    0.0231    0.1221 C   0  0  0  0  0  0  0  0  0  0  0  0
   -5.6487    0.2848    1.4897 C   0  0  0  0  0  0  0  0  0  0  0  0
   -5.6937    0.9225   -0.9137 C   0  0  0  0  0  0  0  0  0  0  0  0
   -5.2366   -1.4415   -0.2955 C   0  0  0  0  0  0  0  0  0  0  0  0
   -2.8046    1.2535   -0.5328 C   0  0  0  0  0  0  0  0  0  0  0  0
   -1.4236    1.4615   -0.4133 C   0  0  0  0  0  0  0  0  0  0  0  0
    3.8729   -0.8842   -0.1189 C   0  0  0  0  0  0  0  0  0  0  0  0
    4.7306   -0.5342    1.0272 N   0  0  0  0  0  0  0  0  0  0  0  0
    4.4248   -1.3947    2.1722 C   0  0  0  0  0  0  0  0  0  0  0  0
    6.1528   -0.6312    0.6972 C   0  0  0  0  0  0  0  0  0  0  0  0
    3.7338   -0.9511   -2.8994 H   0  0  0  0  0  0  0  0  0  0  0  0
    2.1119   -0.6929   -2.2465 H   0  0  0  0  0  0  0  0  0  0  0  0
    2.9382    0.6120   -3.1231 H   0  0  0  0  0  0  0  0  0  0  0  0
    4.7062    0.6624   -1.3725 H   0  0  0  0  0  0  0  0  0  0  0  0
    3.2828    1.7201    0.4913 H   0  0  0  0  0  0  0  0  0  0  0  0
    3.0947    2.3567   -1.1410 H   0  0  0  0  0  0  0  0  0  0  0  0
    0.9938    1.3471   -1.3704 H   0  0  0  0  0  0  0  0  0  0  0  0
   -0.7383   -0.8732    1.9592 H   0  0  0  0  0  0  0  0  0  0  0  0
   -3.1466   -1.2440    1.7523 H   0  0  0  0  0  0  0  0  0  0  0  0
   -6.7346    0.1451    1.4331 H   0  0  0  0  0  0  0  0  0  0  0  0
   -5.2789   -0.3923    2.2675 H   0  0  0  0  0  0  0  0  0  0  0  0
   -5.4615    1.3102    1.8300 H   0  0  0  0  0  0  0  0  0  0  0  0
   -5.5949    1.9848   -0.6617 H   0  0  0  0  0  0  0  0  0  0  0  0
   -6.7669    0.7013   -0.9576 H   0  0  0  0  0  0  0  0  0  0  0  0
   -5.2921    0.7716   -1.9225 H   0  0  0  0  0  0  0  0  0  0  0  0
   -6.3086   -1.6380   -0.4141 H   0  0  0  0  0  0  0  0  0  0  0  0
   -4.8610   -2.1556    0.4454 H   0  0  0  0  0  0  0  0  0  0  0  0
   -4.7480   -1.6701   -1.2501 H   0  0  0  0  0  0  0  0  0  0  0  0
   -3.3448    1.8873   -1.2311 H   0  0  0  0  0  0  0  0  0  0  0  0
   -0.9638    2.2541   -0.9965 H   0  0  0  0  0  0  0  0  0  0  0  0
    2.8721   -1.1710    0.2286 H   0  0  0  0  0  0  0  0  0  0  0  0
    4.2740   -1.7689   -0.6316 H   0  0  0  0  0  0  0  0  0  0  0  0
    4.6004   -2.4535    1.9500 H   0  0  0  0  0  0  0  0  0  0  0  0
    5.0365   -1.1169    3.0380 H   0  0  0  0  0  0  0  0  0  0  0  0
    3.3804   -1.2741    2.4801 H   0  0  0  0  0  0  0  0  0  0  0  0
    6.4407   -1.6469    0.4025 H   0  0  0  0  0  0  0  0  0  0  0  0
    6.4219    0.0513   -0.1147 H   0  0  0  0  0  0  0  0  0  0  0  0
    6.7657   -0.3389    1.5576 H   0  0  0  0  0  0  0  0  0  0  0  0
  1  2  1  0
  2  3  1  0
  3  4  1  0
  4  5  1  0
  5  6  2  0
  5  7  1  0
  7  8  2  0
  8  9  1  0
  9 10  2  0
 10 11  1  0
 11 12  1  0
 11 13  1  0
 11 14  1  0
 10 15  1  0
 15 16  2  0
  2 17  1  0
 17 18  1  0
 18 19  1  0
 18 20  1  0
 16  7  1  0
  1 21  1  0
  1 22  1  0
  1 23  1  0
  2 24  1  0
  3 25  1  0
  3 26  1  0
  4 27  1  0
  8 28  1  0
  9 29  1  0
 12 30  1  0
 12 31  1  0
 12 32  1  0
 13 33  1  0
 13 34  1  0
 13 35  1  0
 14 36  1  0
 14 37  1  0
 14 38  1  0
 15 39  1  0
 16 40  1  0
 17 41  1  0
 17 42  1  0
 19 43  1  0
 19 44  1  0
 19 45  1  0
 20 46  1  0
 20 47  1  0
 20 48  1  0
M  END
$$$$
