
     RDKit          3D

 72 75  0  0  0  0  0  0  0  0999 V2000
   -3.7607    2.6651    2.1973 C   0  0  0  0  0  0  0  0  0  0  0  0
   -4.5876    1.8417    1.2547 C   0  0  0  0  0  0  0  0  0  0  0  0
   -5.7091    2.4396    0.6602 C   0  0  0  0  0  0  0  0  0  0  0  0
   -6.5415    1.7309   -0.2164 C   0  0  0  0  0  0  0  0  0  0  0  0
   -6.2955    0.3887   -0.5341 C   0  0  0  0  0  0  0  0  0  0  0  0
   -7.2016   -0.4294   -1.4699 C   0  0  0  0  0  0  0  0  0  0  0  0
   -8.4314    0.3505   -1.9857 C   0  0  0  0  0  0  0  0  0  0  0  0
   -6.3948   -0.8837   -2.7045 C   0  0  0  0  0  0  0  0  0  0  0  0
   -7.7336   -1.6736   -0.7257 C   0  0  0  0  0  0  0  0  0  0  0  0
   -5.1615   -0.2037    0.0501 C   0  0  0  0  0  0  0  0  0  0  0  0
   -4.3130    0.5066    0.9240 C   0  0  0  0  0  0  0  0  0  0  0  0
   -2.9078   -0.4061    1.5455 S   0  0  0  0  0  6  0  0  0  0  0  0
   -2.0820    0.4328    2.3864 O   0  0  0  0  0  0  0  0  0  0  0  0
   -3.4042   -1.6774    2.0301 O   0  0  0  0  0  0  0  0  0  0  0  0
   -2.0073   -0.6944    0.1136 N   0  0  0  0  0  0  0  0  0  0  0  0
   -0.9588   -1.7418    0.2405 C   0  0  0  0  0  0  0  0  0  0  0  0
    0.3895   -1.1280    0.5941 C   0  0  0  0  0  0  0  0  0  0  0  0
    0.8504   -0.0907   -0.4445 C   0  0  0  0  0  0  0  0  0  0  0  0
    2.0537   -0.6186   -1.2273 C   0  0  0  0  0  0  0  0  0  0  0  0
    1.9083   -1.1089   -2.3479 O   0  0  0  0  0  0  0  0  0  0  0  0
    3.2974   -0.5609   -0.6153 N   0  0  0  0  0  0  0  0  0  0  0  0
    4.4757   -1.0100   -1.3664 C   0  0  0  0  0  0  0  0  0  0  0  0
    5.7228   -0.1463   -1.1002 C   0  0  0  0  0  0  0  0  0  0  0  0
    6.0278   -0.0477    0.3408 N   0  0  0  0  0  0  0  0  0  0  0  0
    7.3444    0.0733    0.7625 C   0  0  0  0  0  0  0  0  0  0  0  0
    8.3070    0.7261   -0.0285 C   0  0  0  0  0  0  0  0  0  0  0  0
    9.6382    0.8578    0.3820 C   0  0  0  0  0  0  0  0  0  0  0  0
   10.0343    0.3314    1.6005 C   0  0  0  0  0  0  0  0  0  0  0  0
   11.3400    0.4687    1.9620 O   0  0  0  0  0  0  0  0  0  0  0  0
    9.1163   -0.3128    2.4175 C   0  0  0  0  0  0  0  0  0  0  0  0
    7.7844   -0.4311    1.9986 C   0  0  0  0  0  0  0  0  0  0  0  0
    4.9437   -0.3682    1.2795 C   0  0  0  0  0  0  0  0  0  0  0  0
    3.5715    0.0324    0.7016 C   0  0  0  0  0  0  0  0  0  0  0  0
   -0.2913    0.2996   -1.3974 C   0  0  0  0  0  0  0  0  0  0  0  0
   -1.5795    0.5293   -0.6224 C   0  0  0  0  0  0  0  0  0  0  0  0
   -3.7070    2.1886    3.1809 H   0  0  0  0  0  0  0  0  0  0  0  0
   -2.7577    2.8235    1.7897 H   0  0  0  0  0  0  0  0  0  0  0  0
   -4.2014    3.6563    2.3550 H   0  0  0  0  0  0  0  0  0  0  0  0
   -5.9581    3.4777    0.8794 H   0  0  0  0  0  0  0  0  0  0  0  0
   -7.3923    2.2641   -0.6331 H   0  0  0  0  0  0  0  0  0  0  0  0
   -9.0597   -0.2819   -2.6268 H   0  0  0  0  0  0  0  0  0  0  0  0
   -9.0637    0.7025   -1.1614 H   0  0  0  0  0  0  0  0  0  0  0  0
   -8.1341    1.2203   -2.5848 H   0  0  0  0  0  0  0  0  0  0  0  0
   -7.0256   -1.4473   -3.4023 H   0  0  0  0  0  0  0  0  0  0  0  0
   -5.9837   -0.0238   -3.2470 H   0  0  0  0  0  0  0  0  0  0  0  0
   -5.5546   -1.5324   -2.4342 H   0  0  0  0  0  0  0  0  0  0  0  0
   -6.9288   -2.3520   -0.4217 H   0  0  0  0  0  0  0  0  0  0  0  0
   -8.4162   -2.2527   -1.3596 H   0  0  0  0  0  0  0  0  0  0  0  0
   -8.2817   -1.3871    0.1801 H   0  0  0  0  0  0  0  0  0  0  0  0
   -4.9191   -1.2436   -0.1728 H   0  0  0  0  0  0  0  0  0  0  0  0
   -0.9000   -2.2921   -0.7060 H   0  0  0  0  0  0  0  0  0  0  0  0
   -1.2362   -2.4858    0.9952 H   0  0  0  0  0  0  0  0  0  0  0  0
    0.3123   -0.6346    1.5708 H   0  0  0  0  0  0  0  0  0  0  0  0
    1.1251   -1.9310    0.7146 H   0  0  0  0  0  0  0  0  0  0  0  0
    1.1599    0.8228    0.0793 H   0  0  0  0  0  0  0  0  0  0  0  0
    4.2681   -1.0237   -2.4416 H   0  0  0  0  0  0  0  0  0  0  0  0
    4.6670   -2.0445   -1.0545 H   0  0  0  0  0  0  0  0  0  0  0  0
    5.5558    0.8643   -1.4911 H   0  0  0  0  0  0  0  0  0  0  0  0
    6.5581   -0.5938   -1.6525 H   0  0  0  0  0  0  0  0  0  0  0  0
    8.0276    1.1718   -0.9796 H   0  0  0  0  0  0  0  0  0  0  0  0
   10.3562    1.3742   -0.2500 H   0  0  0  0  0  0  0  0  0  0  0  0
   11.4828   -0.0088    2.7961 H   0  0  0  0  0  0  0  0  0  0  0  0
    9.4080   -0.7294    3.3769 H   0  0  0  0  0  0  0  0  0  0  0  0
    7.0984   -0.9561    2.6570 H   0  0  0  0  0  0  0  0  0  0  0  0
    4.9520   -1.4441    1.4932 H   0  0  0  0  0  0  0  0  0  0  0  0
    5.0748    0.1727    2.2241 H   0  0  0  0  0  0  0  0  0  0  0  0
    2.7865   -0.2494    1.4076 H   0  0  0  0  0  0  0  0  0  0  0  0
    3.5274    1.1209    0.5707 H   0  0  0  0  0  0  0  0  0  0  0  0
   -0.4594   -0.4713   -2.1602 H   0  0  0  0  0  0  0  0  0  0  0  0
   -0.0174    1.2116   -1.9424 H   0  0  0  0  0  0  0  0  0  0  0  0
   -2.3759    0.8052   -1.3223 H   0  0  0  0  0  0  0  0  0  0  0  0
   -1.4315    1.3678    0.0663 H   0  0  0  0  0  0  0  0  0  0  0  0
  1  2  1  0
  2  3  2  0
  3  4  1  0
  4  5  2  0
  5  6  1  0
  6  7  1  0
  6  8  1  0
  6  9  1  0
  5 10  1  0
 10 11  2  0
 11 12  1  0
 12 13  2  0
 12 14  2  0
 12 15  1  0
 15 16  1  0
 16 17  1  0
 17 18  1  0
 18 19  1  0
 19 20  2  0
 19 21  1  0
 21 22  1  0
 22 23  1  0
 23 24  1  0
 24 25  1  0
 25 26  2  0
 26 27  1  0
 27 28  2  0
 28 29  1  0
 28 30  1  0
 30 31  2  0
 24 32  1  0
 32 33  1  0
 18 34  1  0
 34 35  1  0
 11  2  1  0
 35 15  1  0
 33 21  1  0
 31 25  1  0
  1 36  1  0
  1 37  1  0
  1 38  1  0
  3 39  1  0
  4 40  1  0
  7 41  1  0
  7 42  1  0
  7 43  1  0
  8 44  1  0
  8 45  1  0
  8 46  1  0
  9 47  1  0
  9 48  1  0
  9 49  1  0
 10 50  1  0
 16 51  1  0
 16 52  1  0
 17 53  1  0
 17 54  1  0
 18 55  1  0
 22 56  1  0
 22 57  1  0
 23 58  1  0
 23 59  1  0
 26 60  1  0
 27 61  1  0
 29 62  1  0
 30 63  1  0
 31 64  1  0
 32 65  1  0
 32 66  1  0
 33 67  1  0
 33 68  1  0
 34 69  1  0
 34 70  1  0
 35 71  1  0
 35 72  1  0
M  END
$$$$
