
     RDKit          3D

 36 37  0  0  0  0  0  0  0  0999 V2000
    5.7685   -0.2825   -0.9861 C   0  0  0  0  0  0  0  0  0  0  0  0
    4.3874   -0.1413   -0.5613 N   0  0  0  0  0  0  0  0  0  0  0  0
    3.3375   -0.9544   -0.9504 C   0  0  0  0  0  0  0  0  0  0  0  0
    3.5390   -2.2678   -1.9832 S   0  0  0  0  0  0  0  0  0  0  0  0
    2.1055   -0.5835   -0.3835 N   0  0  0  0  0  0  0  0  0  0  0  0
    2.0046    0.3346    0.7641 C   0  0  0  0  0  0  0  0  0  0  0  0
    0.8064    0.0605    1.6720 C   0  0  0  0  0  0  0  0  0  0  0  0
   -0.4571    0.0861    0.8613 C   0  0  0  0  0  0  0  0  0  0  0  0
   -1.6509    0.6078    1.3749 C   0  0  0  0  0  0  0  0  0  0  0  0
   -2.8152    0.6081    0.5990 C   0  0  0  0  0  0  0  0  0  0  0  0
   -4.0252    1.1068    1.0157 O   0  0  0  0  0  0  0  0  0  0  0  0
   -4.1048    1.6337    2.3316 C   0  0  0  0  0  0  0  0  0  0  0  0
   -2.7846    0.0674   -0.7023 C   0  0  0  0  0  0  0  0  0  0  0  0
   -3.9693    0.1015   -1.3966 O   0  0  0  0  0  0  0  0  0  0  0  0
   -3.9737   -0.4089   -2.7216 C   0  0  0  0  0  0  0  0  0  0  0  0
   -1.5915   -0.4698   -1.2008 C   0  0  0  0  0  0  0  0  0  0  0  0
   -0.4212   -0.4581   -0.4275 C   0  0  0  0  0  0  0  0  0  0  0  0
    0.8429   -1.1055   -0.9446 C   0  0  0  0  0  0  0  0  0  0  0  0
    6.3746    0.4231   -0.4124 H   0  0  0  0  0  0  0  0  0  0  0  0
    5.8433   -0.0476   -2.0512 H   0  0  0  0  0  0  0  0  0  0  0  0
    6.1206   -1.3000   -0.7985 H   0  0  0  0  0  0  0  0  0  0  0  0
    4.1208    0.8034   -0.3277 H   0  0  0  0  0  0  0  0  0  0  0  0
    2.9156    0.2762    1.3696 H   0  0  0  0  0  0  0  0  0  0  0  0
    1.9432    1.3488    0.3492 H   0  0  0  0  0  0  0  0  0  0  0  0
    0.7751    0.8182    2.4631 H   0  0  0  0  0  0  0  0  0  0  0  0
    0.9017   -0.9227    2.1481 H   0  0  0  0  0  0  0  0  0  0  0  0
   -1.6466    1.0106    2.3821 H   0  0  0  0  0  0  0  0  0  0  0  0
   -5.1329    1.9712    2.4952 H   0  0  0  0  0  0  0  0  0  0  0  0
   -3.4482    2.5019    2.4498 H   0  0  0  0  0  0  0  0  0  0  0  0
   -3.8850    0.8650    3.0797 H   0  0  0  0  0  0  0  0  0  0  0  0
   -3.7429   -1.4792   -2.7328 H   0  0  0  0  0  0  0  0  0  0  0  0
   -3.2873    0.1519   -3.3645 H   0  0  0  0  0  0  0  0  0  0  0  0
   -4.9831   -0.2833   -3.1250 H   0  0  0  0  0  0  0  0  0  0  0  0
   -1.5475   -0.9127   -2.1907 H   0  0  0  0  0  0  0  0  0  0  0  0
    0.7931   -2.1769   -0.7149 H   0  0  0  0  0  0  0  0  0  0  0  0
    0.8873   -0.9830   -2.0335 H   0  0  0  0  0  0  0  0  0  0  0  0
  1  2  1  0
  2  3  1  0
  3  4  2  0
  3  5  1  0
  5  6  1  0
  6  7  1  0
  7  8  1  0
  8  9  2  0
  9 10  1  0
 10 11  1  0
 11 12  1  0
 10 13  2  0
 13 14  1  0
 14 15  1  0
 13 16  1  0
 16 17  2  0
 17 18  1  0
 18  5  1  0
 17  8  1  0
  1 19  1  0
  1 20  1  0
  1 21  1  0
  2 22  1  0
  6 23  1  0
  6 24  1  0
  7 25  1  0
  7 26  1  0
  9 27  1  0
 12 28  1  0
 12 29  1  0
 12 30  1  0
 15 31  1  0
 15 32  1  0
 15 33  1  0
 16 34  1  0
 18 35  1  0
 18 36  1  0
M  END
$$$$
