
     RDKit          3D

 68 70  0  0  0  0  0  0  0  0999 V2000
    4.2065    2.0395   -2.4383 C   0  0  0  0  0  0  0  0  0  0  0  0
    5.0571    1.3794   -1.3648 C   0  0  0  0  0  0  0  0  0  0  0  0
    4.6790    1.9005   -0.0235 N   0  0  0  0  0  0  0  0  0  0  0  0
    5.2357    3.2518    0.2653 C   0  0  0  0  0  0  0  0  0  0  0  0
    4.0901    4.2122    0.5371 C   0  0  0  0  0  0  0  0  0  0  0  0
    4.8535    0.7912    1.2669 S   0  0  0  0  0  6  0  0  0  0  0  0
    4.4466    1.4331    2.4978 O   0  0  0  0  0  0  0  0  0  0  0  0
    6.1646    0.1889    1.1319 O   0  0  0  0  0  0  0  0  0  0  0  0
    3.6333   -0.4446    0.8983 C   0  0  0  0  0  0  0  0  0  0  0  0
    4.0123   -1.7844    0.7863 C   0  0  0  0  0  0  0  0  0  0  0  0
    3.0473   -2.7487    0.4937 C   0  0  0  0  0  0  0  0  0  0  0  0
    1.7052   -2.3805    0.3143 C   0  0  0  0  0  0  0  0  0  0  0  0
    0.6881   -3.3244    0.0199 N   0  0  0  0  0  0  0  0  0  0  0  0
    0.4397   -4.2628    1.1425 C   0  0  0  0  0  0  0  0  0  0  0  0
   -0.4466   -5.4184    0.6532 C   0  0  0  0  0  0  0  0  0  0  0  0
    0.1561   -6.2038   -0.3897 O   0  0  0  0  0  0  0  0  0  0  0  0
    1.1640   -5.4963   -1.1285 C   0  0  0  0  0  0  0  0  0  0  0  0
    0.8591   -3.9995   -1.2924 C   0  0  0  0  0  0  0  0  0  0  0  0
    1.3420   -1.0126    0.4256 C   0  0  0  0  0  0  0  0  0  0  0  0
   -0.0240   -0.7301    0.2230 N   0  0  0  0  0  0  0  0  0  0  0  0
   -0.6633    0.4916    0.2332 C   0  0  0  0  0  0  0  0  0  0  0  0
   -0.1337    1.5841    0.3969 O   0  0  0  0  0  0  0  0  0  0  0  0
   -2.1602    0.3322    0.0076 C   0  0  0  0  0  0  0  0  0  0  0  0
   -2.8999    1.6706    0.0271 C   0  0  0  0  0  0  0  0  0  0  0  0
   -4.3945    1.5563   -0.3318 C   0  0  0  0  0  0  0  0  0  0  0  0
   -5.1745    0.6894    0.6710 C   0  0  0  0  0  0  0  0  0  0  0  0
   -6.6695    0.6555    0.3583 C   0  0  0  0  0  0  0  0  0  0  0  0
   -7.2617    2.0572    0.2700 C   0  0  0  0  0  0  0  0  0  0  0  0
   -6.5050    2.9153   -0.7372 C   0  0  0  0  0  0  0  0  0  0  0  0
   -5.0125    2.9633   -0.4207 C   0  0  0  0  0  0  0  0  0  0  0  0
    2.3039   -0.0491    0.7211 C   0  0  0  0  0  0  0  0  0  0  0  0
    4.4424    1.6177   -3.4206 H   0  0  0  0  0  0  0  0  0  0  0  0
    4.3779    3.1202   -2.4858 H   0  0  0  0  0  0  0  0  0  0  0  0
    3.1398    1.8800   -2.2456 H   0  0  0  0  0  0  0  0  0  0  0  0
    4.8850    0.3004   -1.4244 H   0  0  0  0  0  0  0  0  0  0  0  0
    6.1225    1.5481   -1.5548 H   0  0  0  0  0  0  0  0  0  0  0  0
    5.8294    3.6218   -0.5782 H   0  0  0  0  0  0  0  0  0  0  0  0
    5.9157    3.2260    1.1242 H   0  0  0  0  0  0  0  0  0  0  0  0
    4.4761    5.2146    0.7457 H   0  0  0  0  0  0  0  0  0  0  0  0
    3.4186    4.2776   -0.3263 H   0  0  0  0  0  0  0  0  0  0  0  0
    3.4948    3.8886    1.3978 H   0  0  0  0  0  0  0  0  0  0  0  0
    5.0487   -2.0823    0.9299 H   0  0  0  0  0  0  0  0  0  0  0  0
    3.3529   -3.7876    0.4131 H   0  0  0  0  0  0  0  0  0  0  0  0
    1.3780   -4.6770    1.5317 H   0  0  0  0  0  0  0  0  0  0  0  0
   -0.0658   -3.7299    1.9559 H   0  0  0  0  0  0  0  0  0  0  0  0
   -0.6791   -6.0953    1.4814 H   0  0  0  0  0  0  0  0  0  0  0  0
   -1.3973   -5.0313    0.2673 H   0  0  0  0  0  0  0  0  0  0  0  0
    2.1222   -5.6482   -0.6191 H   0  0  0  0  0  0  0  0  0  0  0  0
    1.2421   -5.9721   -2.1115 H   0  0  0  0  0  0  0  0  0  0  0  0
    1.6263   -3.5187   -1.9110 H   0  0  0  0  0  0  0  0  0  0  0  0
   -0.0939   -3.8941   -1.8252 H   0  0  0  0  0  0  0  0  0  0  0  0
   -0.5657   -1.5706    0.0348 H   0  0  0  0  0  0  0  0  0  0  0  0
   -2.3095   -0.1606   -0.9602 H   0  0  0  0  0  0  0  0  0  0  0  0
   -2.5449   -0.3250    0.7948 H   0  0  0  0  0  0  0  0  0  0  0  0
   -2.4177    2.3526   -0.6859 H   0  0  0  0  0  0  0  0  0  0  0  0
   -2.7894    2.1328    1.0169 H   0  0  0  0  0  0  0  0  0  0  0  0
   -4.4732    1.0893   -1.3234 H   0  0  0  0  0  0  0  0  0  0  0  0
   -4.7979   -0.3392    0.6619 H   0  0  0  0  0  0  0  0  0  0  0  0
   -5.0271    1.0745    1.6879 H   0  0  0  0  0  0  0  0  0  0  0  0
   -7.1943    0.0824    1.1313 H   0  0  0  0  0  0  0  0  0  0  0  0
   -6.8301    0.1317   -0.5922 H   0  0  0  0  0  0  0  0  0  0  0  0
   -8.3180    1.9957   -0.0161 H   0  0  0  0  0  0  0  0  0  0  0  0
   -7.2253    2.5325    1.2582 H   0  0  0  0  0  0  0  0  0  0  0  0
   -6.6519    2.5123   -1.7470 H   0  0  0  0  0  0  0  0  0  0  0  0
   -6.9148    3.9317   -0.7365 H   0  0  0  0  0  0  0  0  0  0  0  0
   -4.5012    3.5468   -1.1955 H   0  0  0  0  0  0  0  0  0  0  0  0
   -4.8626    3.4958    0.5275 H   0  0  0  0  0  0  0  0  0  0  0  0
    2.0487    1.0018    0.8226 H   0  0  0  0  0  0  0  0  0  0  0  0
  1  2  1  0
  2  3  1  0
  3  4  1  0
  4  5  1  0
  3  6  1  0
  6  7  2  0
  6  8  2  0
  6  9  1  0
  9 10  2  0
 10 11  1  0
 11 12  2  0
 12 13  1  0
 13 14  1  0
 14 15  1  0
 15 16  1  0
 16 17  1  0
 17 18  1  0
 12 19  1  0
 19 20  1  0
 20 21  1  0
 21 22  2  0
 21 23  1  0
 23 24  1  0
 24 25  1  0
 25 26  1  0
 26 27  1  0
 27 28  1  0
 28 29  1  0
 29 30  1  0
 19 31  2  0
 31  9  1  0
 18 13  1  0
 30 25  1  0
  1 32  1  0
  1 33  1  0
  1 34  1  0
  2 35  1  0
  2 36  1  0
  4 37  1  0
  4 38  1  0
  5 39  1  0
  5 40  1  0
  5 41  1  0
 10 42  1  0
 11 43  1  0
 14 44  1  0
 14 45  1  0
 15 46  1  0
 15 47  1  0
 17 48  1  0
 17 49  1  0
 18 50  1  0
 18 51  1  0
 20 52  1  0
 23 53  1  0
 23 54  1  0
 24 55  1  0
 24 56  1  0
 25 57  1  0
 26 58  1  0
 26 59  1  0
 27 60  1  0
 27 61  1  0
 28 62  1  0
 28 63  1  0
 29 64  1  0
 29 65  1  0
 30 66  1  0
 30 67  1  0
 31 68  1  0
M  END
$$$$
