
     RDKit          3D

 49 51  0  0  0  0  0  0  0  0999 V2000
   -0.9348   -0.5070    3.5049 O   0  0  0  0  0  0  0  0  0  0  0  0
   -0.8512   -0.0923    2.3520 C   0  0  0  0  0  0  0  0  0  0  0  0
   -2.0599   -0.0957    1.4373 C   0  0  0  0  0  0  0  0  0  0  0  0
   -2.0413   -1.3540    0.5663 C   0  0  0  0  0  0  0  0  0  0  0  0
   -3.1379   -1.4927   -0.3985 N   0  0  0  0  0  0  0  0  0  0  0  0
   -4.4271   -1.8189    0.2229 C   0  0  0  0  0  0  0  0  0  0  0  0
   -5.6402   -1.4577   -0.6461 C   0  0  0  0  0  0  0  0  0  0  0  0
   -5.3389   -1.6446   -2.1266 C   0  0  0  0  0  0  0  0  0  0  0  0
   -4.1101   -0.8348   -2.5500 C   0  0  0  0  0  0  0  0  0  0  0  0
   -3.2256   -0.4104   -1.3724 C   0  0  0  0  0  0  0  0  0  0  0  0
    0.2860    0.3784    1.7267 N   0  0  0  0  0  0  0  0  0  0  0  0
    1.5828    0.5621    2.2647 C   0  0  0  0  0  0  0  0  0  0  0  0
    1.8792    0.3015    3.6079 C   0  0  0  0  0  0  0  0  0  0  0  0
    3.1611    0.5309    4.1173 C   0  0  0  0  0  0  0  0  0  0  0  0
    4.1586    1.0301    3.2878 C   0  0  0  0  0  0  0  0  0  0  0  0
    5.8823    1.3620    3.9887 Br  0  0  0  0  0  0  0  0  0  0  0  0
    3.8959    1.2905    1.9453 C   0  0  0  0  0  0  0  0  0  0  0  0
    2.6165    1.0391    1.4218 C   0  0  0  0  0  0  0  0  0  0  0  0
    2.3478    1.3083   -0.0225 C   0  0  0  0  0  0  0  0  0  0  0  0
    1.2117    1.6078   -0.3872 O   0  0  0  0  0  0  0  0  0  0  0  0
    3.4132    1.2058   -1.0463 C   0  0  0  0  0  0  0  0  0  0  0  0
    3.4951    2.2005   -2.0269 C   0  0  0  0  0  0  0  0  0  0  0  0
    4.4904    2.1327   -3.0023 C   0  0  0  0  0  0  0  0  0  0  0  0
    5.3901    1.0659   -3.0084 C   0  0  0  0  0  0  0  0  0  0  0  0
    5.2945    0.0611   -2.0431 C   0  0  0  0  0  0  0  0  0  0  0  0
    4.3030    0.1255   -1.0627 C   0  0  0  0  0  0  0  0  0  0  0  0
   -2.9562   -0.0483    2.0646 H   0  0  0  0  0  0  0  0  0  0  0  0
   -2.0469    0.8168    0.8302 H   0  0  0  0  0  0  0  0  0  0  0  0
   -1.0963   -1.3935    0.0090 H   0  0  0  0  0  0  0  0  0  0  0  0
   -2.0169   -2.2435    1.2096 H   0  0  0  0  0  0  0  0  0  0  0  0
   -4.5581   -1.3214    1.1903 H   0  0  0  0  0  0  0  0  0  0  0  0
   -4.4418   -2.8974    0.4194 H   0  0  0  0  0  0  0  0  0  0  0  0
   -5.9214   -0.4122   -0.4661 H   0  0  0  0  0  0  0  0  0  0  0  0
   -6.4997   -2.0713   -0.3557 H   0  0  0  0  0  0  0  0  0  0  0  0
   -6.2039   -1.3582   -2.7343 H   0  0  0  0  0  0  0  0  0  0  0  0
   -5.1557   -2.7085   -2.3243 H   0  0  0  0  0  0  0  0  0  0  0  0
   -3.5267   -1.4299   -3.2633 H   0  0  0  0  0  0  0  0  0  0  0  0
   -4.4293    0.0647   -3.0897 H   0  0  0  0  0  0  0  0  0  0  0  0
   -2.2333   -0.1569   -1.7671 H   0  0  0  0  0  0  0  0  0  0  0  0
   -3.6282    0.5006   -0.9125 H   0  0  0  0  0  0  0  0  0  0  0  0
    0.1795    0.7080    0.7626 H   0  0  0  0  0  0  0  0  0  0  0  0
    1.1255   -0.0695    4.2970 H   0  0  0  0  0  0  0  0  0  0  0  0
    3.3564    0.3284    5.1680 H   0  0  0  0  0  0  0  0  0  0  0  0
    4.6858    1.7015    1.3212 H   0  0  0  0  0  0  0  0  0  0  0  0
    2.7882    3.0288   -2.0321 H   0  0  0  0  0  0  0  0  0  0  0  0
    4.5588    2.9071   -3.7635 H   0  0  0  0  0  0  0  0  0  0  0  0
    6.1619    1.0119   -3.7733 H   0  0  0  0  0  0  0  0  0  0  0  0
    5.9887   -0.7757   -2.0627 H   0  0  0  0  0  0  0  0  0  0  0  0
    4.2283   -0.6756   -0.3323 H   0  0  0  0  0  0  0  0  0  0  0  0
  1  2  2  0
  2  3  1  0
  3  4  1  0
  4  5  1  0
  5  6  1  0
  6  7  1  0
  7  8  1  0
  8  9  1  0
  9 10  1  0
  2 11  1  0
 11 12  1  0
 12 13  2  0
 13 14  1  0
 14 15  2  0
 15 16  1  0
 15 17  1  0
 17 18  2  0
 18 19  1  0
 19 20  2  0
 19 21  1  0
 21 22  2  0
 22 23  1  0
 23 24  2  0
 24 25  1  0
 25 26  2  0
 10  5  1  0
 18 12  1  0
 26 21  1  0
  3 27  1  0
  3 28  1  0
  4 29  1  0
  4 30  1  0
  6 31  1  0
  6 32  1  0
  7 33  1  0
  7 34  1  0
  8 35  1  0
  8 36  1  0
  9 37  1  0
  9 38  1  0
 10 39  1  0
 10 40  1  0
 11 41  1  0
 13 42  1  0
 14 43  1  0
 17 44  1  0
 22 45  1  0
 23 46  1  0
 24 47  1  0
 25 48  1  0
 26 49  1  0
M  END
$$$$
