
     RDKit          3D

 68 71  0  0  0  0  0  0  0  0999 V2000
    4.3857    3.9598    2.2368 C   0  0  0  0  0  0  0  0  0  0  0  0
    3.1117    3.0510    3.1445 S   0  0  0  0  0  0  0  0  0  0  0  0
    3.2993    1.4138    2.3579 C   0  0  0  0  0  0  0  0  0  0  0  0
    2.5955    1.3716    1.0030 C   0  0  0  0  0  0  0  0  0  0  0  0
    2.6098   -0.0384    0.3978 C   0  0  0  0  0  0  0  0  0  0  0  0
    3.9173   -0.3462   -0.1840 N   0  0  0  0  0  0  0  0  0  0  0  0
    4.8435   -1.1216    0.4745 C   0  0  0  0  0  0  0  0  0  0  0  0
    4.7267   -1.4684    1.6425 O   0  0  0  0  0  0  0  0  0  0  0  0
    6.0297   -1.5004   -0.3272 C   0  0  0  0  0  0  0  0  0  0  0  0
    6.7242   -0.4880   -1.0103 C   0  0  0  0  0  0  0  0  0  0  0  0
    7.8616   -0.7982   -1.7575 C   0  0  0  0  0  0  0  0  0  0  0  0
    8.3116   -2.1150   -1.8242 C   0  0  0  0  0  0  0  0  0  0  0  0
    7.6221   -3.1250   -1.1491 C   0  0  0  0  0  0  0  0  0  0  0  0
    6.4805   -2.8232   -0.3974 C   0  0  0  0  0  0  0  0  0  0  0  0
    5.6560   -4.1406    0.3555 Cl  0  0  0  0  0  0  0  0  0  0  0  0
    1.5740   -0.1371   -0.7462 C   0  0  0  0  0  0  0  0  0  0  0  0
    1.9598   -0.1105   -1.9216 O   0  0  0  0  0  0  0  0  0  0  0  0
    0.2235   -0.1977   -0.4146 N   0  0  0  0  0  0  0  0  0  0  0  0
   -0.2594   -0.6280    0.9043 C   0  0  0  0  0  0  0  0  0  0  0  0
   -1.7134   -0.1979    1.1830 C   0  0  0  0  0  0  0  0  0  0  0  0
   -2.6148   -0.6010    0.0918 N   0  0  0  0  0  0  0  0  0  0  0  0
   -4.0509   -0.3855    0.4092 C   0  0  0  0  0  0  0  0  0  0  0  0
   -4.9955   -1.3498   -0.3412 C   0  0  0  0  0  0  0  0  0  0  0  0
   -6.3925   -1.1868   -0.2535 C   0  0  0  0  0  0  0  0  0  0  0  0
   -7.2671   -2.0715   -0.8894 C   0  0  0  0  0  0  0  0  0  0  0  0
   -6.7656   -3.1530   -1.6067 C   0  0  0  0  0  0  0  0  0  0  0  0
   -5.3909   -3.3563   -1.6785 C   0  0  0  0  0  0  0  0  0  0  0  0
   -4.5162   -2.4705   -1.0433 C   0  0  0  0  0  0  0  0  0  0  0  0
   -4.4866    1.0873    0.3792 C   0  0  0  0  0  0  0  0  0  0  0  0
   -4.8784    1.7233   -0.8134 C   0  0  0  0  0  0  0  0  0  0  0  0
   -5.2638    3.0654   -0.8174 C   0  0  0  0  0  0  0  0  0  0  0  0
   -5.2647    3.7941    0.3696 C   0  0  0  0  0  0  0  0  0  0  0  0
   -4.8813    3.1825    1.5611 C   0  0  0  0  0  0  0  0  0  0  0  0
   -4.4954    1.8400    1.5668 C   0  0  0  0  0  0  0  0  0  0  0  0
   -2.1562    0.0058   -1.1709 C   0  0  0  0  0  0  0  0  0  0  0  0
   -0.7198   -0.4281   -1.5134 C   0  0  0  0  0  0  0  0  0  0  0  0
    5.3633    3.4968    2.3891 H   0  0  0  0  0  0  0  0  0  0  0  0
    4.1542    3.9938    1.1703 H   0  0  0  0  0  0  0  0  0  0  0  0
    4.4270    4.9858    2.6114 H   0  0  0  0  0  0  0  0  0  0  0  0
    2.8493    0.6789    3.0336 H   0  0  0  0  0  0  0  0  0  0  0  0
    4.3641    1.1782    2.2728 H   0  0  0  0  0  0  0  0  0  0  0  0
    3.0699    2.0722    0.3040 H   0  0  0  0  0  0  0  0  0  0  0  0
    1.5601    1.7136    1.1244 H   0  0  0  0  0  0  0  0  0  0  0  0
    2.3826   -0.8050    1.1450 H   0  0  0  0  0  0  0  0  0  0  0  0
    3.9751   -0.2482   -1.1963 H   0  0  0  0  0  0  0  0  0  0  0  0
    6.3937    0.5461   -0.9495 H   0  0  0  0  0  0  0  0  0  0  0  0
    8.4016   -0.0115   -2.2804 H   0  0  0  0  0  0  0  0  0  0  0  0
    9.2004   -2.3575   -2.4034 H   0  0  0  0  0  0  0  0  0  0  0  0
    7.9805   -4.1496   -1.2126 H   0  0  0  0  0  0  0  0  0  0  0  0
    0.3787   -0.2310    1.6971 H   0  0  0  0  0  0  0  0  0  0  0  0
   -0.1758   -1.7217    0.9344 H   0  0  0  0  0  0  0  0  0  0  0  0
   -1.7364    0.8899    1.3258 H   0  0  0  0  0  0  0  0  0  0  0  0
   -2.0239   -0.6624    2.1265 H   0  0  0  0  0  0  0  0  0  0  0  0
   -4.1864   -0.7256    1.4486 H   0  0  0  0  0  0  0  0  0  0  0  0
   -6.8162   -0.3619    0.3166 H   0  0  0  0  0  0  0  0  0  0  0  0
   -8.3403   -1.9172   -0.8177 H   0  0  0  0  0  0  0  0  0  0  0  0
   -7.4449   -3.8430   -2.0993 H   0  0  0  0  0  0  0  0  0  0  0  0
   -4.9951   -4.2101   -2.2226 H   0  0  0  0  0  0  0  0  0  0  0  0
   -3.4492   -2.6746   -1.0981 H   0  0  0  0  0  0  0  0  0  0  0  0
   -4.8902    1.1707   -1.7513 H   0  0  0  0  0  0  0  0  0  0  0  0
   -5.5643    3.5397   -1.7481 H   0  0  0  0  0  0  0  0  0  0  0  0
   -5.5640    4.8395    0.3660 H   0  0  0  0  0  0  0  0  0  0  0  0
   -4.8812    3.7520    2.4877 H   0  0  0  0  0  0  0  0  0  0  0  0
   -4.1997    1.3833    2.5088 H   0  0  0  0  0  0  0  0  0  0  0  0
   -2.8041   -0.2860   -2.0049 H   0  0  0  0  0  0  0  0  0  0  0  0
   -2.1692    1.1011   -1.1049 H   0  0  0  0  0  0  0  0  0  0  0  0
   -0.6933   -1.5008   -1.7448 H   0  0  0  0  0  0  0  0  0  0  0  0
   -0.3864    0.1086   -2.4088 H   0  0  0  0  0  0  0  0  0  0  0  0
  1  2  1  0
  2  3  1  0
  3  4  1  0
  4  5  1  0
  5  6  1  0
  6  7  1  0
  7  8  2  0
  7  9  1  0
  9 10  2  0
 10 11  1  0
 11 12  2  0
 12 13  1  0
 13 14  2  0
 14 15  1  0
  5 16  1  0
 16 17  2  0
 16 18  1  0
 18 19  1  0
 19 20  1  0
 20 21  1  0
 21 22  1  0
 22 23  1  0
 23 24  2  0
 24 25  1  0
 25 26  2  0
 26 27  1  0
 27 28  2  0
 22 29  1  0
 29 30  2  0
 30 31  1  0
 31 32  2  0
 32 33  1  0
 33 34  2  0
 21 35  1  0
 35 36  1  0
 14  9  1  0
 36 18  1  0
 28 23  1  0
 34 29  1  0
  1 37  1  0
  1 38  1  0
  1 39  1  0
  3 40  1  0
  3 41  1  0
  4 42  1  0
  4 43  1  0
  5 44  1  0
  6 45  1  0
 10 46  1  0
 11 47  1  0
 12 48  1  0
 13 49  1  0
 19 50  1  0
 19 51  1  0
 20 52  1  0
 20 53  1  0
 22 54  1  0
 24 55  1  0
 25 56  1  0
 26 57  1  0
 27 58  1  0
 28 59  1  0
 30 60  1  0
 31 61  1  0
 32 62  1  0
 33 63  1  0
 34 64  1  0
 35 65  1  0
 35 66  1  0
 36 67  1  0
 36 68  1  0
M  END
$$$$
