
     RDKit          3D

 47 50  0  0  0  0  0  0  0  0999 V2000
    0.6468   -2.0061    0.5149 C   0  0  0  0  0  0  0  0  0  0  0  0
   -0.2061   -1.8891   -0.7645 C   0  0  0  0  0  0  0  0  0  0  0  0
   -0.5590   -3.3202   -1.2195 C   0  0  0  0  0  0  0  0  0  0  0  0
   -1.5307   -1.1239   -0.4550 C   0  0  0  0  0  0  0  0  0  0  0  0
   -1.3294    0.3557   -0.4649 C   0  0  0  0  0  0  0  0  0  0  0  0
   -0.2258    0.9901   -1.0088 C   0  0  0  0  0  0  0  0  0  0  0  0
   -0.4306    2.3485   -0.7510 C   0  0  0  0  0  0  0  0  0  0  0  0
   -1.5599    2.5710   -0.0848 N   0  0  0  0  0  0  0  0  0  0  0  0
   -2.1581    1.3495    0.0441 N   0  0  0  0  0  0  0  0  0  0  0  0
   -3.4589    1.2843    0.6386 C   0  0  0  0  0  0  0  0  0  0  0  0
   -3.9673    2.4359    1.2744 C   0  0  0  0  0  0  0  0  0  0  0  0
   -5.2304    2.4271    1.8722 C   0  0  0  0  0  0  0  0  0  0  0  0
   -5.9962    1.2723    1.8298 C   0  0  0  0  0  0  0  0  0  0  0  0
   -7.2081    1.2588    2.3993 F   0  0  0  0  0  0  0  0  0  0  0  0
   -5.5245    0.1308    1.1951 C   0  0  0  0  0  0  0  0  0  0  0  0
   -4.2589    0.1349    0.5953 C   0  0  0  0  0  0  0  0  0  0  0  0
    0.9134    0.3032   -1.6754 C   0  0  0  0  0  0  0  0  0  0  0  0
    2.0851    0.4822   -0.8488 N   0  0  0  0  0  0  0  0  0  0  0  0
    3.3651    0.2982   -1.3206 C   0  0  0  0  0  0  0  0  0  0  0  0
    3.6365    0.0385   -2.4864 O   0  0  0  0  0  0  0  0  0  0  0  0
    4.4264    0.4322   -0.2847 C   0  0  0  0  0  0  0  0  0  0  0  0
    5.7614    0.2945   -0.6320 C   0  0  0  0  0  0  0  0  0  0  0  0
    6.7597    0.4061    0.2821 N   0  0  0  0  0  0  0  0  0  0  0  0
    6.3588    0.6607    1.5497 C   0  0  0  0  0  0  0  0  0  0  0  0
    5.0224    0.7970    1.8962 C   0  0  0  0  0  0  0  0  0  0  0  0
    4.0192    0.6859    0.9944 N   0  0  0  0  0  0  0  0  0  0  0  0
    0.5847   -1.1900   -1.9158 C   0  0  0  0  0  0  0  0  0  0  0  0
    0.8109   -1.0389    0.9976 H   0  0  0  0  0  0  0  0  0  0  0  0
    1.6255   -2.4480    0.2973 H   0  0  0  0  0  0  0  0  0  0  0  0
    0.1539   -2.6462    1.2561 H   0  0  0  0  0  0  0  0  0  0  0  0
   -1.1556   -3.3095   -2.1386 H   0  0  0  0  0  0  0  0  0  0  0  0
    0.3457   -3.9061   -1.4172 H   0  0  0  0  0  0  0  0  0  0  0  0
   -1.1393   -3.8474   -0.4538 H   0  0  0  0  0  0  0  0  0  0  0  0
   -2.2721   -1.3679   -1.2263 H   0  0  0  0  0  0  0  0  0  0  0  0
   -1.9175   -1.4593    0.5137 H   0  0  0  0  0  0  0  0  0  0  0  0
    0.2069    3.1875   -1.0010 H   0  0  0  0  0  0  0  0  0  0  0  0
   -3.3822    3.3538    1.3205 H   0  0  0  0  0  0  0  0  0  0  0  0
   -5.6152    3.3138    2.3654 H   0  0  0  0  0  0  0  0  0  0  0  0
   -6.1498   -0.7563    1.1605 H   0  0  0  0  0  0  0  0  0  0  0  0
   -3.9626   -0.7676    0.0789 H   0  0  0  0  0  0  0  0  0  0  0  0
    1.1174    0.7737   -2.6453 H   0  0  0  0  0  0  0  0  0  0  0  0
    1.9876    0.6435    0.1507 H   0  0  0  0  0  0  0  0  0  0  0  0
    6.0704    0.0910   -1.6518 H   0  0  0  0  0  0  0  0  0  0  0  0
    7.1482    0.7534    2.2877 H   0  0  0  0  0  0  0  0  0  0  0  0
    4.7240    1.0012    2.9189 H   0  0  0  0  0  0  0  0  0  0  0  0
    1.5008   -1.7521   -2.1373 H   0  0  0  0  0  0  0  0  0  0  0  0
   -0.0328   -1.2467   -2.8242 H   0  0  0  0  0  0  0  0  0  0  0  0
  1  2  1  0
  2  3  1  0
  2  4  1  0
  4  5  1  0
  5  6  2  0
  6  7  1  0
  7  8  2  0
  8  9  1  0
  9 10  1  0
 10 11  2  0
 11 12  1  0
 12 13  2  0
 13 14  1  0
 13 15  1  0
 15 16  2  0
  6 17  1  0
 17 18  1  0
 18 19  1  0
 19 20  2  0
 19 21  1  0
 21 22  2  0
 22 23  1  0
 23 24  2  0
 24 25  1  0
 25 26  2  0
 17 27  1  0
 27  2  1  0
  9  5  1  0
 16 10  1  0
 26 21  1  0
  1 28  1  0
  1 29  1  0
  1 30  1  0
  3 31  1  0
  3 32  1  0
  3 33  1  0
  4 34  1  0
  4 35  1  0
  7 36  1  0
 11 37  1  0
 12 38  1  0
 15 39  1  0
 16 40  1  0
 17 41  1  0
 18 42  1  0
 22 43  1  0
 24 44  1  0
 25 45  1  0
 27 46  1  0
 27 47  1  0
M  END
$$$$
