
     RDKit          3D

 48 49  0  0  0  0  0  0  0  0999 V2000
    2.3377   -2.8023   -1.1403 C   0  0  0  0  0  0  0  0  0  0  0  0
    2.7876   -1.7284   -0.3261 O   0  0  0  0  0  0  0  0  0  0  0  0
    1.8519   -0.8167    0.0984 C   0  0  0  0  0  0  0  0  0  0  0  0
    0.4863   -0.8733   -0.2122 C   0  0  0  0  0  0  0  0  0  0  0  0
   -0.3929    0.1092    0.2524 C   0  0  0  0  0  0  0  0  0  0  0  0
   -1.7635    0.1388   -0.0512 N   0  0  0  0  0  0  0  0  0  0  0  0
   -2.5087   -0.7575   -0.8010 C   0  0  0  0  0  0  0  0  0  0  0  0
   -2.1011   -1.7875   -1.3281 O   0  0  0  0  0  0  0  0  0  0  0  0
   -3.9637   -0.2575   -0.9807 C   0  0  0  0  0  0  0  0  0  0  0  0
   -4.9243   -1.4157   -1.2831 C   0  0  0  0  0  0  0  0  0  0  0  0
   -6.3904   -1.0529   -1.0300 C   0  0  0  0  0  0  0  0  0  0  0  0
   -6.5915    0.4568   -1.0251 C   0  0  0  0  0  0  0  0  0  0  0  0
   -5.6972    1.1340    0.0193 C   0  0  0  0  0  0  0  0  0  0  0  0
   -4.3936    0.4869    0.2338 N   0  0  0  0  0  0  0  0  0  0  0  0
    0.0999    1.1395    1.0577 C   0  0  0  0  0  0  0  0  0  0  0  0
    1.4565    1.2038    1.3794 C   0  0  0  0  0  0  0  0  0  0  0  0
    2.3387    0.2442    0.8819 C   0  0  0  0  0  0  0  0  0  0  0  0
    3.6838    0.2560    1.1572 O   0  0  0  0  0  0  0  0  0  0  0  0
    4.2829    1.5515    1.2109 C   0  0  0  0  0  0  0  0  0  0  0  0
    5.7961    1.4378    0.9658 C   0  0  0  0  0  0  0  0  0  0  0  0
    6.4749    0.5801    2.0343 C   0  0  0  0  0  0  0  0  0  0  0  0
    6.0934    0.8688   -0.4237 C   0  0  0  0  0  0  0  0  0  0  0  0
    3.2085   -3.4159   -1.3923 H   0  0  0  0  0  0  0  0  0  0  0  0
    1.9086   -2.4374   -2.0794 H   0  0  0  0  0  0  0  0  0  0  0  0
    1.6302   -3.4421   -0.6001 H   0  0  0  0  0  0  0  0  0  0  0  0
    0.1068   -1.6825   -0.8228 H   0  0  0  0  0  0  0  0  0  0  0  0
   -2.3255    0.8898    0.3434 H   0  0  0  0  0  0  0  0  0  0  0  0
   -3.9310    0.4370   -1.8317 H   0  0  0  0  0  0  0  0  0  0  0  0
   -4.6741   -2.3055   -0.6934 H   0  0  0  0  0  0  0  0  0  0  0  0
   -4.8014   -1.7040   -2.3338 H   0  0  0  0  0  0  0  0  0  0  0  0
   -7.0288   -1.5228   -1.7860 H   0  0  0  0  0  0  0  0  0  0  0  0
   -6.7009   -1.4605   -0.0600 H   0  0  0  0  0  0  0  0  0  0  0  0
   -7.6420    0.6978   -0.8255 H   0  0  0  0  0  0  0  0  0  0  0  0
   -6.3595    0.8539   -2.0223 H   0  0  0  0  0  0  0  0  0  0  0  0
   -5.5334    2.1766   -0.2767 H   0  0  0  0  0  0  0  0  0  0  0  0
   -6.2222    1.1690    0.9819 H   0  0  0  0  0  0  0  0  0  0  0  0
   -4.5028   -0.2013    0.9847 H   0  0  0  0  0  0  0  0  0  0  0  0
   -0.5645    1.9070    1.4445 H   0  0  0  0  0  0  0  0  0  0  0  0
    1.8024    2.0034    2.0263 H   0  0  0  0  0  0  0  0  0  0  0  0
    4.1091    1.9865    2.2016 H   0  0  0  0  0  0  0  0  0  0  0  0
    3.8526    2.2155    0.4492 H   0  0  0  0  0  0  0  0  0  0  0  0
    6.2196    2.4484    1.0193 H   0  0  0  0  0  0  0  0  0  0  0  0
    6.1394   -0.4596    1.9932 H   0  0  0  0  0  0  0  0  0  0  0  0
    7.5631    0.5866    1.8981 H   0  0  0  0  0  0  0  0  0  0  0  0
    6.2641    0.9652    3.0376 H   0  0  0  0  0  0  0  0  0  0  0  0
    5.6152    1.4724   -1.2029 H   0  0  0  0  0  0  0  0  0  0  0  0
    5.7340   -0.1606   -0.5233 H   0  0  0  0  0  0  0  0  0  0  0  0
    7.1700    0.8671   -0.6191 H   0  0  0  0  0  0  0  0  0  0  0  0
  1  2  1  0
  2  3  1  0
  3  4  2  0
  4  5  1  0
  5  6  1  0
  6  7  1  0
  7  8  2  0
  7  9  1  0
  9 10  1  0
 10 11  1  0
 11 12  1  0
 12 13  1  0
 13 14  1  0
  5 15  2  0
 15 16  1  0
 16 17  2  0
 17 18  1  0
 18 19  1  0
 19 20  1  0
 20 21  1  0
 20 22  1  0
 17  3  1  0
 14  9  1  0
  1 23  1  0
  1 24  1  0
  1 25  1  0
  4 26  1  0
  6 27  1  0
  9 28  1  0
 10 29  1  0
 10 30  1  0
 11 31  1  0
 11 32  1  0
 12 33  1  0
 12 34  1  0
 13 35  1  0
 13 36  1  0
 14 37  1  0
 15 38  1  0
 16 39  1  0
 19 40  1  0
 19 41  1  0
 20 42  1  0
 21 43  1  0
 21 44  1  0
 21 45  1  0
 22 46  1  0
 22 47  1  0
 22 48  1  0
M  END
$$$$
