
     RDKit          3D

 52 54  0  0  0  0  0  0  0  0999 V2000
    3.0017    2.0079    0.1368 O   0  0  0  0  0  0  0  0  0  0  0  0
    3.5883    1.8069   -0.9246 C   0  0  0  0  0  0  0  0  0  0  0  0
    5.0778    2.0235   -1.1145 C   0  0  0  0  0  0  0  0  0  0  0  0
    5.8711    1.8030    0.1718 C   0  0  0  0  0  0  0  0  0  0  0  0
    6.0197    0.3361    0.4998 C   0  0  0  0  0  0  0  0  0  0  0  0
    7.0361   -0.4253   -0.0936 C   0  0  0  0  0  0  0  0  0  0  0  0
    7.1575   -1.7865    0.1904 C   0  0  0  0  0  0  0  0  0  0  0  0
    6.2639   -2.3994    1.0666 C   0  0  0  0  0  0  0  0  0  0  0  0
    5.2490   -1.6518    1.6605 C   0  0  0  0  0  0  0  0  0  0  0  0
    5.1266   -0.2906    1.3787 C   0  0  0  0  0  0  0  0  0  0  0  0
    2.9373    1.4294   -2.0928 N   0  0  0  0  0  0  0  0  0  0  0  0
    1.5924    1.1462   -2.3006 C   0  0  0  0  0  0  0  0  0  0  0  0
    1.1980    0.6629   -3.8486 S   0  0  0  0  0  0  0  0  0  0  0  0
    0.7991    1.3078   -1.1892 N   0  0  0  0  0  0  0  0  0  0  0  0
   -0.5822    1.1607   -0.9374 C   0  0  0  0  0  0  0  0  0  0  0  0
   -0.9882    1.3893    0.3899 C   0  0  0  0  0  0  0  0  0  0  0  0
   -2.3280    1.2745    0.7719 C   0  0  0  0  0  0  0  0  0  0  0  0
   -3.2788    0.9264   -0.1839 C   0  0  0  0  0  0  0  0  0  0  0  0
   -4.9873    0.7630    0.2662 S   0  0  0  0  0  6  0  0  0  0  0  0
   -5.7476    1.5956   -0.6403 O   0  0  0  0  0  0  0  0  0  0  0  0
   -5.0984    0.9226    1.7002 O   0  0  0  0  0  0  0  0  0  0  0  0
   -5.3144   -0.8661   -0.1019 N   0  0  0  0  0  0  0  0  0  0  0  0
   -4.6024   -1.9042    0.7086 C   0  0  0  0  0  0  0  0  0  0  0  0
   -5.3269   -2.2039    2.0277 C   0  0  0  0  0  0  0  0  0  0  0  0
   -6.6997   -2.5561    1.8062 O   0  0  0  0  0  0  0  0  0  0  0  0
   -7.3909   -1.4874    1.1425 C   0  0  0  0  0  0  0  0  0  0  0  0
   -6.7657   -1.2089   -0.2264 C   0  0  0  0  0  0  0  0  0  0  0  0
   -2.9010    0.7066   -1.5086 C   0  0  0  0  0  0  0  0  0  0  0  0
   -1.5550    0.8230   -1.8793 C   0  0  0  0  0  0  0  0  0  0  0  0
    5.4539    1.3793   -1.9176 H   0  0  0  0  0  0  0  0  0  0  0  0
    5.2014    3.0636   -1.4394 H   0  0  0  0  0  0  0  0  0  0  0  0
    5.4148    2.3311    1.0181 H   0  0  0  0  0  0  0  0  0  0  0  0
    6.8729    2.2362    0.0558 H   0  0  0  0  0  0  0  0  0  0  0  0
    7.7431    0.0371   -0.7787 H   0  0  0  0  0  0  0  0  0  0  0  0
    7.9506   -2.3695   -0.2707 H   0  0  0  0  0  0  0  0  0  0  0  0
    6.3593   -3.4591    1.2884 H   0  0  0  0  0  0  0  0  0  0  0  0
    4.5517   -2.1283    2.3448 H   0  0  0  0  0  0  0  0  0  0  0  0
    4.3267    0.2786    1.8495 H   0  0  0  0  0  0  0  0  0  0  0  0
    3.5008    1.2886   -2.9214 H   0  0  0  0  0  0  0  0  0  0  0  0
    1.3369    1.5931   -0.3681 H   0  0  0  0  0  0  0  0  0  0  0  0
   -0.2580    1.6636    1.1500 H   0  0  0  0  0  0  0  0  0  0  0  0
   -2.6122    1.4613    1.8048 H   0  0  0  0  0  0  0  0  0  0  0  0
   -3.5644   -1.6161    0.8968 H   0  0  0  0  0  0  0  0  0  0  0  0
   -4.5694   -2.8149    0.0972 H   0  0  0  0  0  0  0  0  0  0  0  0
   -4.8467   -3.0557    2.5204 H   0  0  0  0  0  0  0  0  0  0  0  0
   -5.2828   -1.3623    2.7257 H   0  0  0  0  0  0  0  0  0  0  0  0
   -7.3878   -0.5994    1.7839 H   0  0  0  0  0  0  0  0  0  0  0  0
   -8.4320   -1.8002    1.0150 H   0  0  0  0  0  0  0  0  0  0  0  0
   -7.3122   -0.4205   -0.7524 H   0  0  0  0  0  0  0  0  0  0  0  0
   -6.8307   -2.1082   -0.8517 H   0  0  0  0  0  0  0  0  0  0  0  0
   -3.6462    0.4476   -2.2583 H   0  0  0  0  0  0  0  0  0  0  0  0
   -1.3219    0.6487   -2.9211 H   0  0  0  0  0  0  0  0  0  0  0  0
  1  2  2  0
  2  3  1  0
  3  4  1  0
  4  5  1  0
  5  6  2  0
  6  7  1  0
  7  8  2  0
  8  9  1  0
  9 10  2  0
  2 11  1  0
 11 12  1  0
 12 13  2  0
 12 14  1  0
 14 15  1  0
 15 16  2  0
 16 17  1  0
 17 18  2  0
 18 19  1  0
 19 20  2  0
 19 21  2  0
 19 22  1  0
 22 23  1  0
 23 24  1  0
 24 25  1  0
 25 26  1  0
 26 27  1  0
 18 28  1  0
 28 29  2  0
 10  5  1  0
 29 15  1  0
 27 22  1  0
  3 30  1  0
  3 31  1  0
  4 32  1  0
  4 33  1  0
  6 34  1  0
  7 35  1  0
  8 36  1  0
  9 37  1  0
 10 38  1  0
 11 39  1  0
 14 40  1  0
 16 41  1  0
 17 42  1  0
 23 43  1  0
 23 44  1  0
 24 45  1  0
 24 46  1  0
 26 47  1  0
 26 48  1  0
 27 49  1  0
 27 50  1  0
 28 51  1  0
 29 52  1  0
M  END
$$$$
