
     RDKit          3D

 43 45  0  0  0  0  0  0  0  0999 V2000
    3.8337   -0.6672    0.7360 C   0  0  0  0  0  0  0  0  0  0  0  0
    3.6289   -0.1230    2.1469 C   0  0  0  0  0  0  0  0  0  0  0  0
    3.7556    1.3955    2.2037 C   0  0  0  0  0  0  0  0  0  0  0  0
    2.0807   -0.7293    2.9346 S   0  0  0  0  0  0  0  0  0  0  0  0
    0.8502   -0.4056    1.6847 C   0  0  0  0  0  0  0  0  0  0  0  0
    0.0023   -1.4252    1.3094 C   0  0  0  0  0  0  0  0  0  0  0  0
   -0.9491   -1.1425    0.3513 C   0  0  0  0  0  0  0  0  0  0  0  0
   -1.8477   -2.1126   -0.0776 N   0  0  0  0  0  0  0  0  0  0  0  0
   -1.3862   -3.4967   -0.2849 C   0  0  0  0  0  0  0  0  0  0  0  0
   -1.8056   -4.0109   -1.6732 C   0  0  0  0  0  0  0  0  0  0  0  0
   -3.2199   -3.9635   -1.9037 O   0  0  0  0  0  0  0  0  0  0  0  0
   -3.8613   -2.8395   -1.2795 C   0  0  0  0  0  0  0  0  0  0  0  0
   -2.9155   -1.6643   -0.9874 C   0  0  0  0  0  0  0  0  0  0  0  0
   -1.0527    0.0987   -0.1510 N   0  0  0  0  0  0  0  0  0  0  0  0
   -0.1997    1.0454    0.2849 C   0  0  0  0  0  0  0  0  0  0  0  0
   -0.3357    2.4043   -0.2796 C   0  0  0  0  0  0  0  0  0  0  0  0
    0.3972    3.4925    0.2329 C   0  0  0  0  0  0  0  0  0  0  0  0
    0.2702    4.7789   -0.3018 C   0  0  0  0  0  0  0  0  0  0  0  0
   -0.5968    5.0088   -1.3653 C   0  0  0  0  0  0  0  0  0  0  0  0
   -1.3368    3.9551   -1.8925 C   0  0  0  0  0  0  0  0  0  0  0  0
   -1.2069    2.6703   -1.3545 C   0  0  0  0  0  0  0  0  0  0  0  0
    0.7660    0.8348    1.1911 N   0  0  0  0  0  0  0  0  0  0  0  0
    4.8356   -0.4083    0.3751 H   0  0  0  0  0  0  0  0  0  0  0  0
    3.7520   -1.7593    0.7133 H   0  0  0  0  0  0  0  0  0  0  0  0
    3.1184   -0.2501    0.0203 H   0  0  0  0  0  0  0  0  0  0  0  0
    4.4310   -0.5336    2.7722 H   0  0  0  0  0  0  0  0  0  0  0  0
    3.0596    1.8995    1.5291 H   0  0  0  0  0  0  0  0  0  0  0  0
    4.7648    1.6984    1.9016 H   0  0  0  0  0  0  0  0  0  0  0  0
    3.5935    1.7745    3.2185 H   0  0  0  0  0  0  0  0  0  0  0  0
    0.0717   -2.4017    1.7689 H   0  0  0  0  0  0  0  0  0  0  0  0
   -0.2977   -3.5936   -0.2025 H   0  0  0  0  0  0  0  0  0  0  0  0
   -1.8439   -4.1226    0.4898 H   0  0  0  0  0  0  0  0  0  0  0  0
   -1.3168   -3.4258   -2.4613 H   0  0  0  0  0  0  0  0  0  0  0  0
   -1.4879   -5.0510   -1.7983 H   0  0  0  0  0  0  0  0  0  0  0  0
   -4.3174   -3.1992   -0.3497 H   0  0  0  0  0  0  0  0  0  0  0  0
   -4.6731   -2.5170   -1.9392 H   0  0  0  0  0  0  0  0  0  0  0  0
   -2.4817   -1.3036   -1.9288 H   0  0  0  0  0  0  0  0  0  0  0  0
   -3.4934   -0.8522   -0.5303 H   0  0  0  0  0  0  0  0  0  0  0  0
    1.0779    3.3434    1.0695 H   0  0  0  0  0  0  0  0  0  0  0  0
    0.8487    5.5982    0.1171 H   0  0  0  0  0  0  0  0  0  0  0  0
   -0.6972    6.0078   -1.7811 H   0  0  0  0  0  0  0  0  0  0  0  0
   -2.0171    4.1284   -2.7222 H   0  0  0  0  0  0  0  0  0  0  0  0
   -1.7978    1.8640   -1.7865 H   0  0  0  0  0  0  0  0  0  0  0  0
  1  2  1  0
  2  3  1  0
  2  4  1  0
  4  5  1  0
  5  6  2  0
  6  7  1  0
  7  8  1  0
  8  9  1  0
  9 10  1  0
 10 11  1  0
 11 12  1  0
 12 13  1  0
  7 14  2  0
 14 15  1  0
 15 16  1  0
 16 17  2  0
 17 18  1  0
 18 19  2  0
 19 20  1  0
 20 21  2  0
 15 22  2  0
 22  5  1  0
 13  8  1  0
 21 16  1  0
  1 23  1  0
  1 24  1  0
  1 25  1  0
  2 26  1  0
  3 27  1  0
  3 28  1  0
  3 29  1  0
  6 30  1  0
  9 31  1  0
  9 32  1  0
 10 33  1  0
 10 34  1  0
 12 35  1  0
 12 36  1  0
 13 37  1  0
 13 38  1  0
 17 39  1  0
 18 40  1  0
 19 41  1  0
 20 42  1  0
 21 43  1  0
M  END
$$$$
