
     RDKit          3D

 32 34  0  0  0  0  0  0  0  0999 V2000
   -0.7039   -2.2027    4.0037 N   0  0  0  0  0  0  0  0  0  0  0  0
   -0.2040   -1.6026    3.1447 C   0  0  0  0  0  0  0  0  0  0  0  0
    0.3064   -0.8480    2.0536 C   0  0  0  0  0  0  0  0  0  0  0  0
   -0.5292   -0.2442    1.1941 C   0  0  0  0  0  0  0  0  0  0  0  0
   -0.0257    0.5108    0.0739 C   0  0  0  0  0  0  0  0  0  0  0  0
   -0.9064    1.1971   -0.9222 C   0  0  0  0  0  0  0  0  0  0  0  0
   -0.5658    2.2536   -1.4494 O   0  0  0  0  0  0  0  0  0  0  0  0
   -2.2349    0.6278   -1.2470 C   0  0  0  0  0  0  0  0  0  0  0  0
   -3.3104    1.5187   -1.3412 C   0  0  0  0  0  0  0  0  0  0  0  0
   -4.5728    1.0341   -1.6582 C   0  0  0  0  0  0  0  0  0  0  0  0
   -5.6047    1.8834   -1.7359 F   0  0  0  0  0  0  0  0  0  0  0  0
   -4.7841   -0.3201   -1.8956 C   0  0  0  0  0  0  0  0  0  0  0  0
   -3.7121   -1.2111   -1.8276 C   0  0  0  0  0  0  0  0  0  0  0  0
   -2.4375   -0.7347   -1.5118 C   0  0  0  0  0  0  0  0  0  0  0  0
   -1.3851   -1.6056   -1.4833 O   0  0  0  0  0  0  0  0  0  0  0  0
    1.3002    0.6588   -0.0791 C   0  0  0  0  0  0  0  0  0  0  0  0
    2.2102    0.0618    0.7879 N   0  0  0  0  0  0  0  0  0  0  0  0
    3.5962    0.2263    0.5990 C   0  0  0  0  0  0  0  0  0  0  0  0
    4.5413   -0.2910    1.3562 N   0  0  0  0  0  0  0  0  0  0  0  0
    5.7977    0.0580    0.9107 C   0  0  0  0  0  0  0  0  0  0  0  0
    5.8216    0.8556   -0.2071 C   0  0  0  0  0  0  0  0  0  0  0  0
    4.2203    1.1736   -0.7089 S   0  0  0  0  0  0  0  0  0  0  0  0
    1.7925   -0.7326    1.8744 C   0  0  0  0  0  0  0  0  0  0  0  0
    2.5058   -1.3289    2.6780 O   0  0  0  0  0  0  0  0  0  0  0  0
   -1.6048   -0.3135    1.3332 H   0  0  0  0  0  0  0  0  0  0  0  0
   -3.1738    2.5836   -1.1727 H   0  0  0  0  0  0  0  0  0  0  0  0
   -5.7828   -0.6697   -2.1419 H   0  0  0  0  0  0  0  0  0  0  0  0
   -3.8896   -2.2641   -2.0285 H   0  0  0  0  0  0  0  0  0  0  0  0
   -1.6753   -2.4778   -1.8056 H   0  0  0  0  0  0  0  0  0  0  0  0
    1.6658    1.2521   -0.9113 H   0  0  0  0  0  0  0  0  0  0  0  0
    6.6678   -0.3018    1.4464 H   0  0  0  0  0  0  0  0  0  0  0  0
    6.6769    1.2531   -0.7338 H   0  0  0  0  0  0  0  0  0  0  0  0
  1  2  3  0
  2  3  1  0
  3  4  2  0
  4  5  1  0
  5  6  1  0
  6  7  2  0
  6  8  1  0
  8  9  2  0
  9 10  1  0
 10 11  1  0
 10 12  2  0
 12 13  1  0
 13 14  2  0
 14 15  1  0
  5 16  2  0
 16 17  1  0
 17 18  1  0
 18 19  2  0
 19 20  1  0
 20 21  2  0
 21 22  1  0
 17 23  1  0
 23 24  2  0
 23  3  1  0
 14  8  1  0
 22 18  1  0
  4 25  1  0
  9 26  1  0
 12 27  1  0
 13 28  1  0
 15 29  1  0
 16 30  1  0
 20 31  1  0
 21 32  1  0
M  END
$$$$
