
     RDKit          3D

 49 51  0  0  0  0  0  0  0  0999 V2000
    6.1277    1.4994   -2.2626 C   0  0  0  0  0  0  0  0  0  0  0  0
    6.0175    0.3845   -1.2634 C   0  0  0  0  0  0  0  0  0  0  0  0
    7.1706   -0.2405   -0.7726 C   0  0  0  0  0  0  0  0  0  0  0  0
    7.0733   -1.2718    0.1623 C   0  0  0  0  0  0  0  0  0  0  0  0
    5.8243   -1.6705    0.6277 C   0  0  0  0  0  0  0  0  0  0  0  0
    5.8078   -2.7086    1.5205 O   0  0  0  0  0  0  0  0  0  0  0  0
    4.6611   -1.0232    0.1904 C   0  0  0  0  0  0  0  0  0  0  0  0
    3.3457   -1.4488    0.7316 C   0  0  0  0  0  0  0  0  0  0  0  0
    3.2128   -2.6120    1.1120 O   0  0  0  0  0  0  0  0  0  0  0  0
    2.1976   -0.5291    0.8530 C   0  0  0  0  0  0  0  0  0  0  0  0
    2.3485    0.8043    1.2080 C   0  0  0  0  0  0  0  0  0  0  0  0
    1.3145    1.6718    1.3259 N   0  0  0  0  0  0  0  0  0  0  0  0
    0.0767    1.1753    1.1237 C   0  0  0  0  0  0  0  0  0  0  0  0
   -0.1816   -0.1431    0.7944 C   0  0  0  0  0  0  0  0  0  0  0  0
    0.9035   -1.0130    0.6553 C   0  0  0  0  0  0  0  0  0  0  0  0
   -1.5857   -0.5614    0.5195 C   0  0  0  0  0  0  0  0  0  0  0  0
   -2.5817    0.3646    1.0336 N   0  0  0  0  0  0  0  0  0  0  0  0
   -3.9823   -0.0502    0.9834 C   0  0  0  0  0  0  0  0  0  0  0  0
   -4.6089    0.1703   -0.3977 C   0  0  0  0  0  0  0  0  0  0  0  0
   -6.0530   -0.3526   -0.5037 C   0  0  0  0  0  0  0  0  0  0  0  0
   -7.0129    0.3907    0.4264 C   0  0  0  0  0  0  0  0  0  0  0  0
   -6.5422   -0.2360   -1.9495 C   0  0  0  0  0  0  0  0  0  0  0  0
   -2.2954    1.6993    1.2436 C   0  0  0  0  0  0  0  0  0  0  0  0
   -3.1568    2.5541    1.4411 O   0  0  0  0  0  0  0  0  0  0  0  0
   -0.9825    2.0490    1.2598 N   0  0  0  0  0  0  0  0  0  0  0  0
    4.7627   -0.0081   -0.7729 C   0  0  0  0  0  0  0  0  0  0  0  0
    5.2571    1.5151   -2.9267 H   0  0  0  0  0  0  0  0  0  0  0  0
    7.0143    1.3739   -2.8930 H   0  0  0  0  0  0  0  0  0  0  0  0
    6.1956    2.4605   -1.7438 H   0  0  0  0  0  0  0  0  0  0  0  0
    8.1547    0.0617   -1.1260 H   0  0  0  0  0  0  0  0  0  0  0  0
    7.9699   -1.7696    0.5225 H   0  0  0  0  0  0  0  0  0  0  0  0
    4.8787   -3.0216    1.5988 H   0  0  0  0  0  0  0  0  0  0  0  0
    3.3210    1.2373    1.4267 H   0  0  0  0  0  0  0  0  0  0  0  0
    0.7459   -2.0568    0.3914 H   0  0  0  0  0  0  0  0  0  0  0  0
   -1.7279   -0.6455   -0.5637 H   0  0  0  0  0  0  0  0  0  0  0  0
   -1.7716   -1.5388    0.9794 H   0  0  0  0  0  0  0  0  0  0  0  0
   -4.5317    0.5207    1.7396 H   0  0  0  0  0  0  0  0  0  0  0  0
   -4.0388   -1.1059    1.2723 H   0  0  0  0  0  0  0  0  0  0  0  0
   -4.5797    1.2380   -0.6505 H   0  0  0  0  0  0  0  0  0  0  0  0
   -3.9952   -0.3373   -1.1525 H   0  0  0  0  0  0  0  0  0  0  0  0
   -6.0635   -1.4154   -0.2306 H   0  0  0  0  0  0  0  0  0  0  0  0
   -8.0423    0.0469    0.2771 H   0  0  0  0  0  0  0  0  0  0  0  0
   -6.7645    0.2172    1.4776 H   0  0  0  0  0  0  0  0  0  0  0  0
   -6.9876    1.4701    0.2426 H   0  0  0  0  0  0  0  0  0  0  0  0
   -7.5555   -0.6389   -2.0516 H   0  0  0  0  0  0  0  0  0  0  0  0
   -6.5572    0.8079   -2.2812 H   0  0  0  0  0  0  0  0  0  0  0  0
   -5.8914   -0.7983   -2.6275 H   0  0  0  0  0  0  0  0  0  0  0  0
   -0.7645    3.0069    1.4892 H   0  0  0  0  0  0  0  0  0  0  0  0
    3.8731    0.4776   -1.1675 H   0  0  0  0  0  0  0  0  0  0  0  0
  1  2  1  0
  2  3  2  0
  3  4  1  0
  4  5  2  0
  5  6  1  0
  5  7  1  0
  7  8  1  0
  8  9  2  0
  8 10  1  0
 10 11  2  0
 11 12  1  0
 12 13  2  0
 13 14  1  0
 14 15  2  0
 14 16  1  0
 16 17  1  0
 17 18  1  0
 18 19  1  0
 19 20  1  0
 20 21  1  0
 20 22  1  0
 17 23  1  0
 23 24  2  0
 23 25  1  0
  7 26  2  0
 26  2  1  0
 15 10  1  0
 25 13  1  0
  1 27  1  0
  1 28  1  0
  1 29  1  0
  3 30  1  0
  4 31  1  0
  6 32  1  0
 11 33  1  0
 15 34  1  0
 16 35  1  0
 16 36  1  0
 18 37  1  0
 18 38  1  0
 19 39  1  0
 19 40  1  0
 20 41  1  0
 21 42  1  0
 21 43  1  0
 21 44  1  0
 22 45  1  0
 22 46  1  0
 22 47  1  0
 25 48  1  0
 26 49  1  0
M  END
$$$$
