
     RDKit          3D

 49 51  0  0  0  0  0  0  0  0999 V2000
   -1.2474    2.5022    2.6366 N   0  0  0  0  0  0  0  0  0  0  0  0
   -0.0348    1.9540    2.4335 C   0  0  0  0  0  0  0  0  0  0  0  0
    0.9543    2.1206    3.2592 N   0  0  0  0  0  0  0  0  0  0  0  0
    2.0795    1.3770    2.6287 C   0  0  0  0  0  0  0  0  0  0  0  0
    1.4807    0.5716    1.4563 C   0  0  0  0  0  0  0  0  0  0  0  0
    2.2886    0.6941    0.1600 C   0  0  0  0  0  0  0  0  0  0  0  0
    3.6081   -0.0374    0.2207 C   0  0  0  0  0  0  0  0  0  0  0  0
    4.8047    0.6637    0.4294 C   0  0  0  0  0  0  0  0  0  0  0  0
    6.0226   -0.0165    0.5027 C   0  0  0  0  0  0  0  0  0  0  0  0
    6.0428   -1.4001    0.3658 C   0  0  0  0  0  0  0  0  0  0  0  0
    7.2084   -2.1042    0.4319 O   0  0  0  0  0  0  0  0  0  0  0  0
    4.8680   -2.1115    0.1564 C   0  0  0  0  0  0  0  0  0  0  0  0
    3.6511   -1.4326    0.0843 C   0  0  0  0  0  0  0  0  0  0  0  0
    0.1583    1.1951    1.3190 N   0  0  0  0  0  0  0  0  0  0  0  0
   -0.8991    0.3967    0.7001 C   0  0  0  0  0  0  0  0  0  0  0  0
   -1.5082    1.1466   -0.4886 C   0  0  0  0  0  0  0  0  0  0  0  0
   -2.5784    0.3344   -1.1795 C   0  0  0  0  0  0  0  0  0  0  0  0
   -3.8783    0.2861   -0.6567 C   0  0  0  0  0  0  0  0  0  0  0  0
   -4.8812   -0.4704   -1.2824 C   0  0  0  0  0  0  0  0  0  0  0  0
   -6.2759   -0.5304   -0.7037 C   0  0  0  0  0  0  0  0  0  0  0  0
   -6.4534   -1.6154    0.0985 F   0  0  0  0  0  0  0  0  0  0  0  0
   -6.5902    0.5558    0.0555 F   0  0  0  0  0  0  0  0  0  0  0  0
   -7.2416   -0.6081   -1.6609 F   0  0  0  0  0  0  0  0  0  0  0  0
   -4.5589   -1.2017   -2.4374 C   0  0  0  0  0  0  0  0  0  0  0  0
   -3.2600   -1.1772   -2.9710 C   0  0  0  0  0  0  0  0  0  0  0  0
   -2.9301   -1.9469   -4.2290 C   0  0  0  0  0  0  0  0  0  0  0  0
   -3.1288   -1.2075   -5.3535 F   0  0  0  0  0  0  0  0  0  0  0  0
   -3.6847   -3.0708   -4.3786 F   0  0  0  0  0  0  0  0  0  0  0  0
   -1.6331   -2.3606   -4.2745 F   0  0  0  0  0  0  0  0  0  0  0  0
   -2.2797   -0.3983   -2.3361 C   0  0  0  0  0  0  0  0  0  0  0  0
   -1.5810    3.0042    1.8250 H   0  0  0  0  0  0  0  0  0  0  0  0
   -1.2029    3.1277    3.4359 H   0  0  0  0  0  0  0  0  0  0  0  0
    2.8312    2.1031    2.3013 H   0  0  0  0  0  0  0  0  0  0  0  0
    2.5435    0.7102    3.3630 H   0  0  0  0  0  0  0  0  0  0  0  0
    1.3696   -0.4769    1.7635 H   0  0  0  0  0  0  0  0  0  0  0  0
    2.4532    1.7504   -0.0918 H   0  0  0  0  0  0  0  0  0  0  0  0
    1.7124    0.2879   -0.6822 H   0  0  0  0  0  0  0  0  0  0  0  0
    4.7975    1.7466    0.5371 H   0  0  0  0  0  0  0  0  0  0  0  0
    6.9362    0.5467    0.6658 H   0  0  0  0  0  0  0  0  0  0  0  0
    7.9371   -1.4823    0.5917 H   0  0  0  0  0  0  0  0  0  0  0  0
    4.9001   -3.1921    0.0496 H   0  0  0  0  0  0  0  0  0  0  0  0
    2.7390   -2.0019   -0.0818 H   0  0  0  0  0  0  0  0  0  0  0  0
   -0.4934   -0.5600    0.3457 H   0  0  0  0  0  0  0  0  0  0  0  0
   -1.6690    0.1371    1.4380 H   0  0  0  0  0  0  0  0  0  0  0  0
   -1.9383    2.1036   -0.1712 H   0  0  0  0  0  0  0  0  0  0  0  0
   -0.7203    1.4066   -1.2073 H   0  0  0  0  0  0  0  0  0  0  0  0
   -4.1164    0.8470    0.2481 H   0  0  0  0  0  0  0  0  0  0  0  0
   -5.3306   -1.7986   -2.9273 H   0  0  0  0  0  0  0  0  0  0  0  0
   -1.2711   -0.3676   -2.7510 H   0  0  0  0  0  0  0  0  0  0  0  0
  1  2  1  0
  2  3  2  0
  3  4  1  0
  4  5  1  0
  5  6  1  0
  6  7  1  0
  7  8  2  0
  8  9  1  0
  9 10  2  0
 10 11  1  0
 10 12  1  0
 12 13  2  0
  5 14  1  0
 14 15  1  0
 15 16  1  0
 16 17  1  0
 17 18  2  0
 18 19  1  0
 19 20  1  0
 20 21  1  0
 20 22  1  0
 20 23  1  0
 19 24  2  0
 24 25  1  0
 25 26  1  0
 26 27  1  0
 26 28  1  0
 26 29  1  0
 25 30  2  0
 14  2  1  0
 30 17  1  0
 13  7  1  0
  1 31  1  0
  1 32  1  0
  4 33  1  0
  4 34  1  0
  5 35  1  0
  6 36  1  0
  6 37  1  0
  8 38  1  0
  9 39  1  0
 11 40  1  0
 12 41  1  0
 13 42  1  0
 15 43  1  0
 15 44  1  0
 16 45  1  0
 16 46  1  0
 18 47  1  0
 24 48  1  0
 30 49  1  0
M  END
$$$$
