
     RDKit          3D

 33 35  0  0  0  0  0  0  0  0999 V2000
    0.7383   -1.4101    0.8939 O   0  0  0  0  0  0  0  0  0  0  0  0
    0.2338   -1.4796   -0.2178 C   0  0  0  0  0  0  0  0  0  0  0  0
    0.8760   -1.1144   -1.5142 C   0  0  0  0  0  0  0  0  0  0  0  0
    2.0750   -0.5640   -1.7536 C   0  0  0  0  0  0  0  0  0  0  0  0
    3.0117   -0.1499   -0.7665 C   0  0  0  0  0  0  0  0  0  0  0  0
    2.8484    0.5824    0.3965 C   0  0  0  0  0  0  0  0  0  0  0  0
    4.0697    0.8016    1.0981 C   0  0  0  0  0  0  0  0  0  0  0  0
    5.1442    0.2501    0.4417 C   0  0  0  0  0  0  0  0  0  0  0  0
    4.6806   -0.5165   -1.0111 S   0  0  0  0  0  0  0  0  0  0  0  0
   -0.1821   -1.5595   -2.8242 S   0  0  0  0  0  0  0  0  0  0  0  0
   -1.4406   -2.1732   -1.7590 C   0  0  0  0  0  0  0  0  0  0  0  0
   -2.8415   -2.8737   -2.3175 S   0  0  0  0  0  0  0  0  0  0  0  0
   -1.0413   -1.9692   -0.4575 N   0  0  0  0  0  0  0  0  0  0  0  0
   -1.8618   -2.4005    0.7347 N   0  0  0  0  0  0  0  0  0  0  0  0
   -2.9717   -1.2763    1.3776 S   0  0  0  0  0  6  0  0  0  0  0  0
   -2.8408   -1.3636    2.8162 O   0  0  0  0  0  0  0  0  0  0  0  0
   -4.2460   -1.4680    0.7230 O   0  0  0  0  0  0  0  0  0  0  0  0
   -2.3411    0.3078    0.8738 C   0  0  0  0  0  0  0  0  0  0  0  0
   -1.3967    0.9621    1.6700 C   0  0  0  0  0  0  0  0  0  0  0  0
   -0.9027    2.2023    1.2666 C   0  0  0  0  0  0  0  0  0  0  0  0
   -1.3573    2.7852    0.0824 C   0  0  0  0  0  0  0  0  0  0  0  0
   -2.3181    2.1387   -0.6969 C   0  0  0  0  0  0  0  0  0  0  0  0
   -2.8213    0.9009   -0.2989 C   0  0  0  0  0  0  0  0  0  0  0  0
    2.3893   -0.4293   -2.7884 H   0  0  0  0  0  0  0  0  0  0  0  0
    1.8896    0.9463    0.7441 H   0  0  0  0  0  0  0  0  0  0  0  0
    4.1530    1.3379    2.0354 H   0  0  0  0  0  0  0  0  0  0  0  0
    6.1829    0.2650    0.7423 H   0  0  0  0  0  0  0  0  0  0  0  0
   -1.2792   -2.7429    1.5091 H   0  0  0  0  0  0  0  0  0  0  0  0
   -1.0375    0.5139    2.5945 H   0  0  0  0  0  0  0  0  0  0  0  0
   -0.1668    2.7192    1.8788 H   0  0  0  0  0  0  0  0  0  0  0  0
   -0.9740    3.7558   -0.2253 H   0  0  0  0  0  0  0  0  0  0  0  0
   -2.6852    2.6086   -1.6069 H   0  0  0  0  0  0  0  0  0  0  0  0
   -3.5867    0.4130   -0.9001 H   0  0  0  0  0  0  0  0  0  0  0  0
  1  2  2  0
  2  3  1  0
  3  4  2  3
  4  5  1  0
  5  6  2  0
  6  7  1  0
  7  8  2  0
  8  9  1  0
  3 10  1  0
 10 11  1  0
 11 12  2  0
 11 13  1  0
 13 14  1  0
 14 15  1  0
 15 16  2  0
 15 17  2  0
 15 18  1  0
 18 19  2  0
 19 20  1  0
 20 21  2  0
 21 22  1  0
 22 23  2  0
 13  2  1  0
 23 18  1  0
  9  5  1  0
  4 24  1  0
  6 25  1  0
  7 26  1  0
  8 27  1  0
 14 28  1  0
 19 29  1  0
 20 30  1  0
 21 31  1  0
 22 32  1  0
 23 33  1  0
M  END
$$$$
