
     RDKit          3D

 33 35  0  0  0  0  0  0  0  0999 V2000
    1.4448    4.7114   -0.0532 N   0  0  0  0  0  0  0  0  0  0  0  0
    1.5629    3.5568   -0.0711 C   0  0  0  0  0  0  0  0  0  0  0  0
    1.7476    2.1456   -0.1628 C   0  0  0  0  0  0  0  0  0  0  0  0
    2.8595    1.6796   -0.7626 C   0  0  0  0  0  0  0  0  0  0  0  0
    3.2412    0.3148   -0.8788 C   0  0  0  0  0  0  0  0  0  0  0  0
    4.3997   -0.2025   -1.4509 C   0  0  0  0  0  0  0  0  0  0  0  0
    4.3595   -1.6117   -1.3289 C   0  0  0  0  0  0  0  0  0  0  0  0
    3.1811   -1.8955   -0.6907 C   0  0  0  0  0  0  0  0  0  0  0  0
    2.5023   -0.7535   -0.4301 O   0  0  0  0  0  0  0  0  0  0  0  0
    0.6727    1.3356    0.4828 C   0  0  0  0  0  0  0  0  0  0  0  0
    0.4242    1.5106    1.6699 O   0  0  0  0  0  0  0  0  0  0  0  0
    0.0304    0.4681   -0.3799 N   0  0  0  0  0  0  0  0  0  0  0  0
   -1.0483   -0.3900   -0.0404 C   0  0  0  0  0  0  0  0  0  0  0  0
   -0.9860   -1.6692   -0.6122 C   0  0  0  0  0  0  0  0  0  0  0  0
   -1.9528   -2.6206   -0.3179 C   0  0  0  0  0  0  0  0  0  0  0  0
   -3.0026   -2.2893    0.5337 C   0  0  0  0  0  0  0  0  0  0  0  0
   -3.1361   -1.0206    1.0742 C   0  0  0  0  0  0  0  0  0  0  0  0
   -4.2184   -0.7958    1.8397 N   0  0  0  0  0  0  0  0  0  0  0  0
   -4.4077    0.4458    2.3286 C   0  0  0  0  0  0  0  0  0  0  0  0
   -3.5649    1.5020    2.0680 C   0  0  0  0  0  0  0  0  0  0  0  0
   -2.4466    1.2596    1.2770 C   0  0  0  0  0  0  0  0  0  0  0  0
   -2.1655   -0.0325    0.7750 C   0  0  0  0  0  0  0  0  0  0  0  0
    3.5649    2.4017   -1.1734 H   0  0  0  0  0  0  0  0  0  0  0  0
    5.1939    0.3804   -1.8990 H   0  0  0  0  0  0  0  0  0  0  0  0
    5.1011   -2.3272   -1.6562 H   0  0  0  0  0  0  0  0  0  0  0  0
    2.7053   -2.8103   -0.3638 H   0  0  0  0  0  0  0  0  0  0  0  0
    0.6013    0.1551   -1.1577 H   0  0  0  0  0  0  0  0  0  0  0  0
   -0.1599   -1.9526   -1.2597 H   0  0  0  0  0  0  0  0  0  0  0  0
   -1.8895   -3.6203   -0.7387 H   0  0  0  0  0  0  0  0  0  0  0  0
   -3.7563   -3.0385    0.7674 H   0  0  0  0  0  0  0  0  0  0  0  0
   -5.2920    0.5718    2.9459 H   0  0  0  0  0  0  0  0  0  0  0  0
   -3.7648    2.4898    2.4661 H   0  0  0  0  0  0  0  0  0  0  0  0
   -1.8010    2.1015    1.0497 H   0  0  0  0  0  0  0  0  0  0  0  0
  1  2  3  0
  2  3  1  0
  3  4  2  3
  4  5  1  0
  5  6  2  0
  6  7  1  0
  7  8  2  0
  8  9  1  0
  3 10  1  0
 10 11  2  0
 10 12  1  0
 12 13  1  0
 13 14  2  0
 14 15  1  0
 15 16  2  0
 16 17  1  0
 17 18  2  0
 18 19  1  0
 19 20  2  0
 20 21  1  0
 21 22  2  0
  9  5  1  0
 22 13  1  0
 22 17  1  0
  4 23  1  0
  6 24  1  0
  7 25  1  0
  8 26  1  0
 12 27  1  0
 14 28  1  0
 15 29  1  0
 16 30  1  0
 19 31  1  0
 20 32  1  0
 21 33  1  0
M  END
$$$$
