
     RDKit          3D

 40 42  0  0  0  0  0  0  0  0999 V2000
   -5.3165    2.0859    0.2791 C   0  0  0  0  0  0  0  0  0  0  0  0
   -4.1531    1.1667   -0.0863 C   0  0  0  0  0  0  0  0  0  0  0  0
   -3.0044    1.3026    0.9342 C   0  0  0  0  0  0  0  0  0  0  0  0
   -1.7800    0.4752    0.5125 C   0  0  0  0  0  0  0  0  0  0  0  0
   -2.1560   -0.9204    0.0970 C   0  0  0  0  0  0  0  0  0  0  0  0
   -1.2881   -2.0752    0.0001 C   0  0  0  0  0  0  0  0  0  0  0  0
    0.1592   -2.1619    0.2422 C   0  0  0  0  0  0  0  0  0  0  0  0
    0.6457   -3.1472    0.7836 O   0  0  0  0  0  0  0  0  0  0  0  0
    0.8591   -1.0778   -0.2509 N   0  0  0  0  0  0  0  0  0  0  0  0
    2.2401   -0.8231   -0.1467 C   0  0  0  0  0  0  0  0  0  0  0  0
    3.1267   -1.6072    0.5881 C   0  0  0  0  0  0  0  0  0  0  0  0
    4.4854   -1.2743    0.6435 C   0  0  0  0  0  0  0  0  0  0  0  0
    4.9812   -0.1549   -0.0285 C   0  0  0  0  0  0  0  0  0  0  0  0
    6.3233    0.0445    0.1161 O   0  0  0  0  0  0  0  0  0  0  0  0
    6.9000    1.1617   -0.5366 C   0  0  0  0  0  0  0  0  0  0  0  0
    6.7408    1.0806   -1.8752 F   0  0  0  0  0  0  0  0  0  0  0  0
    6.3638    2.3179   -0.0896 F   0  0  0  0  0  0  0  0  0  0  0  0
    8.2250    1.1840   -0.2720 F   0  0  0  0  0  0  0  0  0  0  0  0
    4.0967    0.6342   -0.7607 C   0  0  0  0  0  0  0  0  0  0  0  0
    2.7363    0.3014   -0.8166 C   0  0  0  0  0  0  0  0  0  0  0  0
   -2.0188   -3.2047   -0.3319 C   0  0  0  0  0  0  0  0  0  0  0  0
   -3.6716   -2.8824   -0.6034 S   0  0  0  0  0  0  0  0  0  0  0  0
   -3.4647   -1.2399   -0.2220 C   0  0  0  0  0  0  0  0  0  0  0  0
   -4.6314   -0.2978   -0.1843 C   0  0  0  0  0  0  0  0  0  0  0  0
   -5.7259    1.8385    1.2643 H   0  0  0  0  0  0  0  0  0  0  0  0
   -4.9924    3.1317    0.3009 H   0  0  0  0  0  0  0  0  0  0  0  0
   -6.1240    2.0002   -0.4557 H   0  0  0  0  0  0  0  0  0  0  0  0
   -3.7732    1.4760   -1.0699 H   0  0  0  0  0  0  0  0  0  0  0  0
   -2.7075    2.3529    1.0384 H   0  0  0  0  0  0  0  0  0  0  0  0
   -3.3497    0.9688    1.9217 H   0  0  0  0  0  0  0  0  0  0  0  0
   -1.2926    0.9747   -0.3334 H   0  0  0  0  0  0  0  0  0  0  0  0
   -1.0634    0.4466    1.3410 H   0  0  0  0  0  0  0  0  0  0  0  0
    0.3278   -0.4329   -0.8185 H   0  0  0  0  0  0  0  0  0  0  0  0
    2.7989   -2.4851    1.1363 H   0  0  0  0  0  0  0  0  0  0  0  0
    5.1593   -1.9029    1.2225 H   0  0  0  0  0  0  0  0  0  0  0  0
    4.4206    1.5170   -1.3044 H   0  0  0  0  0  0  0  0  0  0  0  0
    2.0740    0.9385   -1.3980 H   0  0  0  0  0  0  0  0  0  0  0  0
   -1.6432   -4.2139   -0.4438 H   0  0  0  0  0  0  0  0  0  0  0  0
   -5.2524   -0.5475    0.6858 H   0  0  0  0  0  0  0  0  0  0  0  0
   -5.2547   -0.4187   -1.0786 H   0  0  0  0  0  0  0  0  0  0  0  0
  1  2  1  0
  2  3  1  0
  3  4  1  0
  4  5  1  0
  5  6  1  0
  6  7  1  0
  7  8  2  0
  7  9  1  0
  9 10  1  0
 10 11  2  0
 11 12  1  0
 12 13  2  0
 13 14  1  0
 14 15  1  0
 15 16  1  0
 15 17  1  0
 15 18  1  0
 13 19  1  0
 19 20  2  0
  6 21  2  0
 21 22  1  0
 22 23  1  0
 23 24  1  0
 24  2  1  0
 23  5  2  0
 20 10  1  0
  1 25  1  0
  1 26  1  0
  1 27  1  0
  2 28  1  0
  3 29  1  0
  3 30  1  0
  4 31  1  0
  4 32  1  0
  9 33  1  0
 11 34  1  0
 12 35  1  0
 19 36  1  0
 20 37  1  0
 21 38  1  0
 24 39  1  0
 24 40  1  0
M  END
$$$$
