
     RDKit          3D

 52 55  0  0  0  0  0  0  0  0999 V2000
   -1.8811   -2.0155   -3.8773 C   0  0  0  0  0  0  0  0  0  0  0  0
   -0.5393   -2.1768   -3.2052 C   0  0  0  0  0  0  0  0  0  0  0  0
    0.3023   -2.9309   -3.6785 O   0  0  0  0  0  0  0  0  0  0  0  0
   -0.4548   -1.4112   -2.0595 N   0  0  0  0  0  0  0  0  0  0  0  0
    0.5962   -1.3282   -1.1619 C   0  0  0  0  0  0  0  0  0  0  0  0
    2.0111   -2.2334   -1.3703 S   0  0  0  0  0  0  0  0  0  0  0  0
    2.6734   -1.6603    0.0779 C   0  0  0  0  0  0  0  0  0  0  0  0
    1.8487   -0.7565    0.7201 C   0  0  0  0  0  0  0  0  0  0  0  0
    0.6141   -0.5349   -0.0151 C   0  0  0  0  0  0  0  0  0  0  0  0
   -0.4923    0.4167    0.4506 C   0  0  0  0  0  0  0  0  0  0  0  0
   -0.0788    1.7888   -0.0956 C   0  0  0  0  0  0  0  0  0  0  0  0
    0.0130    2.0689   -1.4719 C   0  0  0  0  0  0  0  0  0  0  0  0
    0.3763    3.3403   -1.9262 C   0  0  0  0  0  0  0  0  0  0  0  0
    0.6434    4.3532   -1.0107 C   0  0  0  0  0  0  0  0  0  0  0  0
    1.0864    5.9185   -1.5692 Cl  0  0  0  0  0  0  0  0  0  0  0  0
    0.5479    4.1074    0.3555 C   0  0  0  0  0  0  0  0  0  0  0  0
    0.1863    2.8357    0.8091 C   0  0  0  0  0  0  0  0  0  0  0  0
   -1.8406   -0.0392    0.0108 N   0  0  0  0  0  0  0  0  0  0  0  0
   -2.2521   -1.2820    0.7281 C   0  0  0  0  0  0  0  0  0  0  0  0
   -3.1971   -1.0385    1.9149 C   0  0  0  0  0  0  0  0  0  0  0  0
   -4.4180   -0.3945    1.5335 O   0  0  0  0  0  0  0  0  0  0  0  0
   -4.2793    0.4354    0.3741 C   0  0  0  0  0  0  0  0  0  0  0  0
   -2.8645    1.0165    0.2373 C   0  0  0  0  0  0  0  0  0  0  0  0
    2.2447   -0.1440    2.0354 C   0  0  0  0  0  0  0  0  0  0  0  0
    3.7431   -0.3135    2.3297 C   0  0  0  0  0  0  0  0  0  0  0  0
    4.2228   -1.7382    2.0272 C   0  0  0  0  0  0  0  0  0  0  0  0
    4.0276   -2.0942    0.5470 C   0  0  0  0  0  0  0  0  0  0  0  0
   -2.6139   -2.6583   -3.3823 H   0  0  0  0  0  0  0  0  0  0  0  0
   -1.7985   -2.3026   -4.9295 H   0  0  0  0  0  0  0  0  0  0  0  0
   -2.2157   -0.9747   -3.8351 H   0  0  0  0  0  0  0  0  0  0  0  0
   -1.2707   -0.8703   -1.7779 H   0  0  0  0  0  0  0  0  0  0  0  0
   -0.4806    0.4541    1.5488 H   0  0  0  0  0  0  0  0  0  0  0  0
   -0.1937    1.2989   -2.2098 H   0  0  0  0  0  0  0  0  0  0  0  0
    0.4497    3.5289   -2.9940 H   0  0  0  0  0  0  0  0  0  0  0  0
    0.7526    4.8986    1.0717 H   0  0  0  0  0  0  0  0  0  0  0  0
    0.1127    2.6685    1.8820 H   0  0  0  0  0  0  0  0  0  0  0  0
   -1.3942   -1.8749    1.0633 H   0  0  0  0  0  0  0  0  0  0  0  0
   -2.7818   -1.9025   -0.0063 H   0  0  0  0  0  0  0  0  0  0  0  0
   -2.7092   -0.4246    2.6808 H   0  0  0  0  0  0  0  0  0  0  0  0
   -3.4635   -1.9911    2.3841 H   0  0  0  0  0  0  0  0  0  0  0  0
   -4.5492   -0.1548   -0.5096 H   0  0  0  0  0  0  0  0  0  0  0  0
   -5.0120    1.2441    0.4611 H   0  0  0  0  0  0  0  0  0  0  0  0
   -2.6447    1.5749    1.1569 H   0  0  0  0  0  0  0  0  0  0  0  0
   -2.8517    1.7181   -0.6036 H   0  0  0  0  0  0  0  0  0  0  0  0
    1.6626   -0.6282    2.8294 H   0  0  0  0  0  0  0  0  0  0  0  0
    2.0020    0.9222    2.0556 H   0  0  0  0  0  0  0  0  0  0  0  0
    4.3188    0.3959    1.7213 H   0  0  0  0  0  0  0  0  0  0  0  0
    3.9388   -0.0669    3.3793 H   0  0  0  0  0  0  0  0  0  0  0  0
    5.2810   -1.8425    2.2920 H   0  0  0  0  0  0  0  0  0  0  0  0
    3.6642   -2.4458    2.6534 H   0  0  0  0  0  0  0  0  0  0  0  0
    4.7912   -1.5835   -0.0528 H   0  0  0  0  0  0  0  0  0  0  0  0
    4.1665   -3.1729    0.4116 H   0  0  0  0  0  0  0  0  0  0  0  0
  1  2  1  0
  2  3  2  0
  2  4  1  0
  4  5  1  0
  5  6  1  0
  6  7  1  0
  7  8  2  0
  8  9  1  0
  9 10  1  0
 10 11  1  0
 11 12  2  0
 12 13  1  0
 13 14  2  0
 14 15  1  0
 14 16  1  0
 16 17  2  0
 10 18  1  0
 18 19  1  0
 19 20  1  0
 20 21  1  0
 21 22  1  0
 22 23  1  0
  8 24  1  0
 24 25  1  0
 25 26  1  0
 26 27  1  0
  9  5  2  0
 17 11  1  0
 23 18  1  0
 27  7  1  0
  1 28  1  0
  1 29  1  0
  1 30  1  0
  4 31  1  0
 10 32  1  0
 12 33  1  0
 13 34  1  0
 16 35  1  0
 17 36  1  0
 19 37  1  0
 19 38  1  0
 20 39  1  0
 20 40  1  0
 22 41  1  0
 22 42  1  0
 23 43  1  0
 23 44  1  0
 24 45  1  0
 24 46  1  0
 25 47  1  0
 25 48  1  0
 26 49  1  0
 26 50  1  0
 27 51  1  0
 27 52  1  0
M  END
$$$$
