
     RDKit          3D

 57 58  0  0  0  0  0  0  0  0999 V2000
    7.7892   -3.2109    2.2707 C   0  0  0  0  0  0  0  0  0  0  0  0
    6.9143   -2.2401    1.4931 C   0  0  0  0  0  0  0  0  0  0  0  0
    5.6492   -2.9240    0.9689 C   0  0  0  0  0  0  0  0  0  0  0  0
    4.7710   -1.9720    0.1568 C   0  0  0  0  0  0  0  0  0  0  0  0
    4.3142   -0.9240    1.0106 O   0  0  0  0  0  0  0  0  0  0  0  0
    3.5494    0.0553    0.4411 C   0  0  0  0  0  0  0  0  0  0  0  0
    3.1974    1.0952    1.3026 C   0  0  0  0  0  0  0  0  0  0  0  0
    2.4156    2.1644    0.8548 C   0  0  0  0  0  0  0  0  0  0  0  0
    1.9758    2.2168   -0.4746 C   0  0  0  0  0  0  0  0  0  0  0  0
    1.0977    3.3398   -1.0010 C   0  0  0  0  0  0  0  0  0  0  0  0
    1.5096    4.7280   -0.5085 C   0  0  0  0  0  0  0  0  0  0  0  0
   -0.2873    3.0730   -0.6432 N   0  0  0  0  0  0  0  0  0  0  0  0
   -1.1353    2.3995   -1.4932 C   0  0  0  0  0  0  0  0  0  0  0  0
   -0.8540    2.0945   -2.6462 O   0  0  0  0  0  0  0  0  0  0  0  0
   -2.4519    2.0388   -0.8479 C   0  0  0  0  0  0  0  0  0  0  0  0
   -3.4550    1.5590   -1.8827 C   0  0  0  0  0  0  0  0  0  0  0  0
   -4.9317    0.9014   -1.1370 S   0  0  0  0  0  6  0  0  0  0  0  0
   -5.1959    1.6762    0.0618 O   0  0  0  0  0  0  0  0  0  0  0  0
   -5.9239    0.8020   -2.1919 O   0  0  0  0  0  0  0  0  0  0  0  0
   -4.4357   -0.7569   -0.6676 C   0  0  0  0  0  0  0  0  0  0  0  0
   -5.5824   -1.4508    0.0189 C   0  0  0  0  0  0  0  0  0  0  0  0
   -6.5525   -2.1363   -0.7274 C   0  0  0  0  0  0  0  0  0  0  0  0
   -7.6168   -2.7779   -0.0907 C   0  0  0  0  0  0  0  0  0  0  0  0
   -7.7259   -2.7402    1.2987 C   0  0  0  0  0  0  0  0  0  0  0  0
   -6.7712   -2.0564    2.0465 C   0  0  0  0  0  0  0  0  0  0  0  0
   -6.9047   -2.0060    3.7616 Cl  0  0  0  0  0  0  0  0  0  0  0  0
   -5.7052   -1.4126    1.4164 C   0  0  0  0  0  0  0  0  0  0  0  0
    2.3199    1.1563   -1.3288 C   0  0  0  0  0  0  0  0  0  0  0  0
    3.1026    0.0870   -0.8777 C   0  0  0  0  0  0  0  0  0  0  0  0
    8.1033   -4.0481    1.6397 H   0  0  0  0  0  0  0  0  0  0  0  0
    7.2541   -3.6138    3.1364 H   0  0  0  0  0  0  0  0  0  0  0  0
    8.6886   -2.7034    2.6334 H   0  0  0  0  0  0  0  0  0  0  0  0
    6.6490   -1.3999    2.1449 H   0  0  0  0  0  0  0  0  0  0  0  0
    7.4894   -1.8315    0.6545 H   0  0  0  0  0  0  0  0  0  0  0  0
    5.9254   -3.7791    0.3407 H   0  0  0  0  0  0  0  0  0  0  0  0
    5.0744   -3.3084    1.8205 H   0  0  0  0  0  0  0  0  0  0  0  0
    3.9136   -2.5341   -0.2313 H   0  0  0  0  0  0  0  0  0  0  0  0
    5.3523   -1.5613   -0.6775 H   0  0  0  0  0  0  0  0  0  0  0  0
    3.5367    1.0726    2.3357 H   0  0  0  0  0  0  0  0  0  0  0  0
    2.1589    2.9471    1.5632 H   0  0  0  0  0  0  0  0  0  0  0  0
    1.1796    3.3598   -2.0954 H   0  0  0  0  0  0  0  0  0  0  0  0
    0.9051    5.4993   -0.9997 H   0  0  0  0  0  0  0  0  0  0  0  0
    2.5630    4.9299   -0.7315 H   0  0  0  0  0  0  0  0  0  0  0  0
    1.3592    4.8472    0.5701 H   0  0  0  0  0  0  0  0  0  0  0  0
   -0.5144    3.0931    0.3424 H   0  0  0  0  0  0  0  0  0  0  0  0
   -2.8440    2.9170   -0.3219 H   0  0  0  0  0  0  0  0  0  0  0  0
   -2.2543    1.2605   -0.1028 H   0  0  0  0  0  0  0  0  0  0  0  0
   -3.0492    0.7801   -2.5364 H   0  0  0  0  0  0  0  0  0  0  0  0
   -3.7654    2.3944   -2.5203 H   0  0  0  0  0  0  0  0  0  0  0  0
   -3.5703   -0.6848   -0.0033 H   0  0  0  0  0  0  0  0  0  0  0  0
   -4.1384   -1.2931   -1.5739 H   0  0  0  0  0  0  0  0  0  0  0  0
   -6.4967   -2.1631   -1.8148 H   0  0  0  0  0  0  0  0  0  0  0  0
   -8.3667   -3.2996   -0.6802 H   0  0  0  0  0  0  0  0  0  0  0  0
   -8.5583   -3.2375    1.7893 H   0  0  0  0  0  0  0  0  0  0  0  0
   -4.9779   -0.8722    2.0180 H   0  0  0  0  0  0  0  0  0  0  0  0
    1.9687    1.1532   -2.3604 H   0  0  0  0  0  0  0  0  0  0  0  0
    3.3376   -0.7035   -1.5824 H   0  0  0  0  0  0  0  0  0  0  0  0
  1  2  1  0
  2  3  1  0
  3  4  1  0
  4  5  1  0
  5  6  1  0
  6  7  2  0
  7  8  1  0
  8  9  2  0
  9 10  1  0
 10 11  1  0
 10 12  1  0
 12 13  1  0
 13 14  2  0
 13 15  1  0
 15 16  1  0
 16 17  1  0
 17 18  2  0
 17 19  2  0
 17 20  1  0
 20 21  1  0
 21 22  2  0
 22 23  1  0
 23 24  2  0
 24 25  1  0
 25 26  1  0
 25 27  2  0
  9 28  1  0
 28 29  2  0
 29  6  1  0
 27 21  1  0
  1 30  1  0
  1 31  1  0
  1 32  1  0
  2 33  1  0
  2 34  1  0
  3 35  1  0
  3 36  1  0
  4 37  1  0
  4 38  1  0
  7 39  1  0
  8 40  1  0
 10 41  1  0
 11 42  1  0
 11 43  1  0
 11 44  1  0
 12 45  1  0
 15 46  1  0
 15 47  1  0
 16 48  1  0
 16 49  1  0
 20 50  1  0
 20 51  1  0
 22 52  1  0
 23 53  1  0
 24 54  1  0
 27 55  1  0
 28 56  1  0
 29 57  1  0
M  END
$$$$
