
     RDKit          3D

 43 45  0  0  0  0  0  0  0  0999 V2000
    4.2209    3.0256    1.2073 C   0  0  0  0  0  0  0  0  0  0  0  0
    3.4741    2.6345    0.0541 O   0  0  0  0  0  0  0  0  0  0  0  0
    3.0754    1.3246    0.1521 C   0  0  0  0  0  0  0  0  0  0  0  0
    1.7159    1.1057    0.4063 C   0  0  0  0  0  0  0  0  0  0  0  0
    1.2041   -0.1970    0.4835 C   0  0  0  0  0  0  0  0  0  0  0  0
   -0.2428   -0.3628    0.7336 C   0  0  0  0  0  0  0  0  0  0  0  0
   -0.7499   -0.0616    2.0384 C   0  0  0  0  0  0  0  0  0  0  0  0
   -1.1247    0.2071    3.1034 N   0  0  0  0  0  0  0  0  0  0  0  0
   -1.0286   -0.7574   -0.2873 C   0  0  0  0  0  0  0  0  0  0  0  0
   -2.4834   -0.9672   -0.1892 C   0  0  0  0  0  0  0  0  0  0  0  0
   -2.9313   -2.1333    0.4503 C   0  0  0  0  0  0  0  0  0  0  0  0
   -4.2927   -2.3896    0.5718 C   0  0  0  0  0  0  0  0  0  0  0  0
   -5.2177   -1.4865    0.0529 C   0  0  0  0  0  0  0  0  0  0  0  0
   -4.7980   -0.3147   -0.5957 C   0  0  0  0  0  0  0  0  0  0  0  0
   -5.7448    0.5846   -1.1136 C   0  0  0  0  0  0  0  0  0  0  0  0
   -5.3463    1.7544   -1.7588 C   0  0  0  0  0  0  0  0  0  0  0  0
   -3.9945    2.0414   -1.8953 C   0  0  0  0  0  0  0  0  0  0  0  0
   -3.0403    1.1578   -1.3860 C   0  0  0  0  0  0  0  0  0  0  0  0
   -3.4141   -0.0375   -0.7266 C   0  0  0  0  0  0  0  0  0  0  0  0
    2.1049   -1.2592    0.2876 C   0  0  0  0  0  0  0  0  0  0  0  0
    1.6543   -2.6420    0.3686 N   0  0  0  0  0  4  0  0  0  0  0  0
    0.9912   -2.9716    1.3592 O   0  0  0  0  0  0  0  0  0  0  0  0
    1.9826   -3.3934   -0.5592 O   0  0  0  0  0  1  0  0  0  0  0  0
    3.4661   -1.0452    0.0016 C   0  0  0  0  0  0  0  0  0  0  0  0
    3.9575    0.2573   -0.0808 C   0  0  0  0  0  0  0  0  0  0  0  0
    5.2522    0.5862   -0.3760 O   0  0  0  0  0  0  0  0  0  0  0  0
    6.1156   -0.4563   -0.8130 C   0  0  0  0  0  0  0  0  0  0  0  0
    3.6897    2.7764    2.1332 H   0  0  0  0  0  0  0  0  0  0  0  0
    5.2189    2.5773    1.2090 H   0  0  0  0  0  0  0  0  0  0  0  0
    4.3427    4.1124    1.1716 H   0  0  0  0  0  0  0  0  0  0  0  0
    1.0656    1.9697    0.5379 H   0  0  0  0  0  0  0  0  0  0  0  0
   -0.6236   -0.9453   -1.2802 H   0  0  0  0  0  0  0  0  0  0  0  0
   -2.2219   -2.8502    0.8609 H   0  0  0  0  0  0  0  0  0  0  0  0
   -4.6343   -3.2916    1.0727 H   0  0  0  0  0  0  0  0  0  0  0  0
   -6.2782   -1.7057    0.1613 H   0  0  0  0  0  0  0  0  0  0  0  0
   -6.8088    0.3794   -1.0155 H   0  0  0  0  0  0  0  0  0  0  0  0
   -6.0928    2.4397   -2.1518 H   0  0  0  0  0  0  0  0  0  0  0  0
   -3.6791    2.9532   -2.3958 H   0  0  0  0  0  0  0  0  0  0  0  0
   -1.9918    1.4179   -1.5092 H   0  0  0  0  0  0  0  0  0  0  0  0
    4.1145   -1.9036   -0.1510 H   0  0  0  0  0  0  0  0  0  0  0  0
    5.7131   -0.9616   -1.6974 H   0  0  0  0  0  0  0  0  0  0  0  0
    7.0710   -0.0033   -1.0940 H   0  0  0  0  0  0  0  0  0  0  0  0
    6.3095   -1.1685   -0.0043 H   0  0  0  0  0  0  0  0  0  0  0  0
  1  2  1  0
  2  3  1  0
  3  4  2  0
  4  5  1  0
  5  6  1  0
  6  7  1  0
  7  8  3  0
  6  9  2  3
  9 10  1  0
 10 11  2  0
 11 12  1  0
 12 13  2  0
 13 14  1  0
 14 15  2  0
 15 16  1  0
 16 17  2  0
 17 18  1  0
 18 19  2  0
  5 20  2  0
 20 21  1  0
 21 22  2  0
 21 23  1  0
 20 24  1  0
 24 25  2  0
 25 26  1  0
 26 27  1  0
 25  3  1  0
 19 10  1  0
 19 14  1  0
  1 28  1  0
  1 29  1  0
  1 30  1  0
  4 31  1  0
  9 32  1  0
 11 33  1  0
 12 34  1  0
 13 35  1  0
 15 36  1  0
 16 37  1  0
 17 38  1  0
 18 39  1  0
 24 40  1  0
 27 41  1  0
 27 42  1  0
 27 43  1  0
M  CHG  2  21   1  23  -1
M  END
$$$$
