
     RDKit          3D

 45 47  0  0  0  0  0  0  0  0999 V2000
    0.5477    0.6142   -2.0627 O   0  0  0  0  0  0  0  0  0  0  0  0
    0.8131    0.8095   -0.8843 C   0  0  0  0  0  0  0  0  0  0  0  0
    2.1660    0.5843   -0.3160 C   0  0  0  0  0  0  0  0  0  0  0  0
    3.1473    0.1183   -1.1041 C   0  0  0  0  0  0  0  0  0  0  0  0
    4.5149   -0.1536   -0.6409 C   0  0  0  0  0  0  0  0  0  0  0  0
    5.2084   -1.2519   -1.1982 C   0  0  0  0  0  0  0  0  0  0  0  0
    6.5218   -1.5492   -0.8163 C   0  0  0  0  0  0  0  0  0  0  0  0
    7.1185   -0.7274    0.1129 C   0  0  0  0  0  0  0  0  0  0  0  0
    6.4590    0.3518    0.6504 C   0  0  0  0  0  0  0  0  0  0  0  0
    5.1642    0.6689    0.2925 C   0  0  0  0  0  0  0  0  0  0  0  0
    7.2261    1.0377    1.5402 O   0  0  0  0  0  0  0  0  0  0  0  0
    8.4451    0.2662    1.4981 C   0  0  0  0  0  0  0  0  0  0  0  0
    8.3816   -0.8589    0.5976 O   0  0  0  0  0  0  0  0  0  0  0  0
   -0.0917    1.2508    0.0512 N   0  0  0  0  0  0  0  0  0  0  0  0
   -1.4863    1.4560   -0.2851 C   0  0  0  0  0  0  0  0  0  0  0  0
   -2.2991    0.1725   -0.1214 C   0  0  0  0  0  0  0  0  0  0  0  0
   -3.7690    0.4102   -0.4892 C   0  0  0  0  0  0  0  0  0  0  0  0
   -4.5743   -0.8183   -0.4061 N   0  0  0  0  0  0  0  0  0  0  0  0
   -4.8500   -1.2553    0.9808 C   0  0  0  0  0  0  0  0  0  0  0  0
   -5.8867   -0.3907    1.7200 C   0  0  0  0  0  0  0  0  0  0  0  0
   -7.1157   -0.3023    0.9894 O   0  0  0  0  0  0  0  0  0  0  0  0
   -6.8877    0.2063   -0.3306 C   0  0  0  0  0  0  0  0  0  0  0  0
   -5.8751   -0.6605   -1.0978 C   0  0  0  0  0  0  0  0  0  0  0  0
    2.3217    0.7927    0.7338 H   0  0  0  0  0  0  0  0  0  0  0  0
    2.9459   -0.1053   -2.1511 H   0  0  0  0  0  0  0  0  0  0  0  0
    4.7200   -1.8894   -1.9336 H   0  0  0  0  0  0  0  0  0  0  0  0
    7.0523   -2.3948   -1.2389 H   0  0  0  0  0  0  0  0  0  0  0  0
    4.6862    1.5419    0.7217 H   0  0  0  0  0  0  0  0  0  0  0  0
    8.6601   -0.1041    2.5072 H   0  0  0  0  0  0  0  0  0  0  0  0
    9.2644    0.9224    1.1825 H   0  0  0  0  0  0  0  0  0  0  0  0
    0.1807    1.3218    1.0215 H   0  0  0  0  0  0  0  0  0  0  0  0
   -1.5569    1.8272   -1.3136 H   0  0  0  0  0  0  0  0  0  0  0  0
   -1.8644    2.2358    0.3845 H   0  0  0  0  0  0  0  0  0  0  0  0
   -2.2034   -0.1732    0.9139 H   0  0  0  0  0  0  0  0  0  0  0  0
   -1.8799   -0.6167   -0.7583 H   0  0  0  0  0  0  0  0  0  0  0  0
   -4.1843    1.2139    0.1295 H   0  0  0  0  0  0  0  0  0  0  0  0
   -3.7854    0.7743   -1.5249 H   0  0  0  0  0  0  0  0  0  0  0  0
   -3.9306   -1.3231    1.5704 H   0  0  0  0  0  0  0  0  0  0  0  0
   -5.2400   -2.2802    0.9231 H   0  0  0  0  0  0  0  0  0  0  0  0
   -6.1155   -0.8435    2.6902 H   0  0  0  0  0  0  0  0  0  0  0  0
   -5.5095    0.6198    1.9125 H   0  0  0  0  0  0  0  0  0  0  0  0
   -7.8487    0.1990   -0.8549 H   0  0  0  0  0  0  0  0  0  0  0  0
   -6.5585    1.2494   -0.2629 H   0  0  0  0  0  0  0  0  0  0  0  0
   -6.3023   -1.6641   -1.2226 H   0  0  0  0  0  0  0  0  0  0  0  0
   -5.7296   -0.2661   -2.1103 H   0  0  0  0  0  0  0  0  0  0  0  0
  1  2  2  0
  2  3  1  0
  3  4  2  3
  4  5  1  0
  5  6  2  0
  6  7  1  0
  7  8  2  0
  8  9  1  0
  9 10  2  0
  9 11  1  0
 11 12  1  0
 12 13  1  0
  2 14  1  0
 14 15  1  0
 15 16  1  0
 16 17  1  0
 17 18  1  0
 18 19  1  0
 19 20  1  0
 20 21  1  0
 21 22  1  0
 22 23  1  0
 10  5  1  0
 23 18  1  0
 13  8  1  0
  3 24  1  0
  4 25  1  0
  6 26  1  0
  7 27  1  0
 10 28  1  0
 12 29  1  0
 12 30  1  0
 14 31  1  0
 15 32  1  0
 15 33  1  0
 16 34  1  0
 16 35  1  0
 17 36  1  0
 17 37  1  0
 19 38  1  0
 19 39  1  0
 20 40  1  0
 20 41  1  0
 22 42  1  0
 22 43  1  0
 23 44  1  0
 23 45  1  0
M  END
$$$$
