
     RDKit          3D

 42 45  0  0  0  0  0  0  0  0999 V2000
   -1.1977    0.9715   -0.3488 O   0  0  0  0  0  0  0  0  0  0  0  0
   -1.5580    0.6836    0.7824 C   0  0  0  0  0  0  0  0  0  0  0  0
   -0.6499    0.5458    1.9579 C   0  0  0  0  0  0  0  0  0  0  0  0
    0.6769    0.7094    2.0530 C   0  0  0  0  0  0  0  0  0  0  0  0
    1.5651    1.1146    1.0220 C   0  0  0  0  0  0  0  0  0  0  0  0
    1.4575    2.0719    0.0223 C   0  0  0  0  0  0  0  0  0  0  0  0
    2.6714    2.0873   -0.7066 C   0  0  0  0  0  0  0  0  0  0  0  0
    3.4947    1.1609   -0.1101 C   0  0  0  0  0  0  0  0  0  0  0  0
    4.8529    0.6757   -0.3414 C   0  0  0  0  0  0  0  0  0  0  0  0
    5.1105   -0.6995   -0.1788 C   0  0  0  0  0  0  0  0  0  0  0  0
    6.3824   -1.2338   -0.4014 C   0  0  0  0  0  0  0  0  0  0  0  0
    7.4259   -0.4014   -0.7899 C   0  0  0  0  0  0  0  0  0  0  0  0
    7.1969    0.9642   -0.9504 C   0  0  0  0  0  0  0  0  0  0  0  0
    5.9218    1.5037   -0.7274 C   0  0  0  0  0  0  0  0  0  0  0  0
    5.7680    3.2186   -0.9117 Cl  0  0  0  0  0  0  0  0  0  0  0  0
    2.8328    0.5806    0.9323 O   0  0  0  0  0  0  0  0  0  0  0  0
   -1.5815    0.0582    3.3356 S   0  0  0  0  0  0  0  0  0  0  0  0
   -3.1016    0.0851    2.4584 C   0  0  0  0  0  0  0  0  0  0  0  0
   -4.5509   -0.2628    3.2069 S   0  0  0  0  0  0  0  0  0  0  0  0
   -2.8720    0.4190    1.1420 N   0  0  0  0  0  0  0  0  0  0  0  0
   -3.9098    0.5334    0.1123 C   0  0  0  0  0  0  0  0  0  0  0  0
   -3.8733   -0.5792   -0.9543 C   0  0  0  0  0  0  0  0  0  0  0  0
   -4.0873   -1.9883   -0.4163 C   0  0  0  0  0  0  0  0  0  0  0  0
   -5.5808   -2.1654   -0.5215 C   0  0  0  0  0  0  0  0  0  0  0  0
   -5.8879   -1.4265   -1.8033 C   0  0  0  0  0  0  0  0  0  0  0  0
   -4.9570   -0.3383   -1.8802 O   0  0  0  0  0  0  0  0  0  0  0  0
    1.1667    0.4874    2.9991 H   0  0  0  0  0  0  0  0  0  0  0  0
    0.5954    2.6965   -0.1683 H   0  0  0  0  0  0  0  0  0  0  0  0
    2.9069    2.7036   -1.5627 H   0  0  0  0  0  0  0  0  0  0  0  0
    4.3063   -1.3710    0.1194 H   0  0  0  0  0  0  0  0  0  0  0  0
    6.5530   -2.2998   -0.2712 H   0  0  0  0  0  0  0  0  0  0  0  0
    8.4174   -0.8123   -0.9631 H   0  0  0  0  0  0  0  0  0  0  0  0
    8.0210    1.6101   -1.2447 H   0  0  0  0  0  0  0  0  0  0  0  0
   -4.9064    0.5906    0.5605 H   0  0  0  0  0  0  0  0  0  0  0  0
   -3.7689    1.4977   -0.3944 H   0  0  0  0  0  0  0  0  0  0  0  0
   -2.9346   -0.5302   -1.5155 H   0  0  0  0  0  0  0  0  0  0  0  0
   -3.5966   -2.7070   -1.0852 H   0  0  0  0  0  0  0  0  0  0  0  0
   -3.6937   -2.1609    0.5873 H   0  0  0  0  0  0  0  0  0  0  0  0
   -6.0781   -1.6760    0.3233 H   0  0  0  0  0  0  0  0  0  0  0  0
   -5.8977   -3.2112   -0.5467 H   0  0  0  0  0  0  0  0  0  0  0  0
   -5.7291   -2.0657   -2.6784 H   0  0  0  0  0  0  0  0  0  0  0  0
   -6.9103   -1.0402   -1.8330 H   0  0  0  0  0  0  0  0  0  0  0  0
  1  2  2  0
  2  3  1  0
  3  4  2  3
  4  5  1  0
  5  6  2  0
  6  7  1  0
  7  8  2  0
  8  9  1  0
  9 10  2  0
 10 11  1  0
 11 12  2  0
 12 13  1  0
 13 14  2  0
 14 15  1  0
  8 16  1  0
  3 17  1  0
 17 18  1  0
 18 19  2  0
 18 20  1  0
 20 21  1  0
 21 22  1  0
 22 23  1  0
 23 24  1  0
 24 25  1  0
 25 26  1  0
 20  2  1  0
 26 22  1  0
 16  5  1  0
 14  9  1  0
  4 27  1  0
  6 28  1  0
  7 29  1  0
 10 30  1  0
 11 31  1  0
 12 32  1  0
 13 33  1  0
 21 34  1  0
 21 35  1  0
 22 36  1  0
 23 37  1  0
 23 38  1  0
 24 39  1  0
 24 40  1  0
 25 41  1  0
 25 42  1  0
M  END
$$$$
