
     RDKit          3D

 45 47  0  0  0  0  0  0  0  0999 V2000
   -6.3973    0.4650   -1.2835 C   0  0  0  0  0  0  0  0  0  0  0  0
   -4.9610    0.8544   -1.4793 C   0  0  0  0  0  0  0  0  0  0  0  0
   -4.6347    2.1404   -1.9215 C   0  0  0  0  0  0  0  0  0  0  0  0
   -3.3058    2.4873   -2.1558 C   0  0  0  0  0  0  0  0  0  0  0  0
   -2.2916    1.5537   -1.9455 C   0  0  0  0  0  0  0  0  0  0  0  0
   -2.5909    0.2637   -1.4835 C   0  0  0  0  0  0  0  0  0  0  0  0
   -1.4833   -0.7360   -1.2695 C   0  0  0  0  0  0  0  0  0  0  0  0
   -1.3446   -1.2382    0.4482 S   0  0  0  0  0  6  0  0  0  0  0  0
   -0.0829   -1.9522    0.5823 O   0  0  0  0  0  0  0  0  0  0  0  0
   -2.5675   -1.9331    0.8228 O   0  0  0  0  0  0  0  0  0  0  0  0
   -1.2721    0.2658    1.4262 C   0  0  0  0  0  0  0  0  0  0  0  0
   -0.1926    1.1645    0.9589 C   0  0  0  0  0  0  0  0  0  0  0  0
   -0.1570    2.4962    0.6026 C   0  0  0  0  0  0  0  0  0  0  0  0
    1.1835    2.7794    0.2402 C   0  0  0  0  0  0  0  0  0  0  0  0
    1.8989    1.6129    0.4206 C   0  0  0  0  0  0  0  0  0  0  0  0
    3.2941    1.2921    0.2043 C   0  0  0  0  0  0  0  0  0  0  0  0
    4.1128    2.0861   -0.2505 O   0  0  0  0  0  0  0  0  0  0  0  0
    3.6197    0.0005    0.5405 N   0  0  0  0  0  0  0  0  0  0  0  0
    4.9421   -0.5293    0.3286 C   0  0  0  0  0  0  0  0  0  0  0  0
    5.0173   -1.8936    0.9014 C   0  0  0  0  0  0  0  0  0  0  0  0
    4.3578   -3.0768    0.6310 C   0  0  0  0  0  0  0  0  0  0  0  0
    4.8689   -4.0373    1.5368 C   0  0  0  0  0  0  0  0  0  0  0  0
    5.8077   -3.3830    2.2993 C   0  0  0  0  0  0  0  0  0  0  0  0
    5.9060   -2.0832    1.9208 O   0  0  0  0  0  0  0  0  0  0  0  0
    1.0574    0.6366    0.8772 O   0  0  0  0  0  0  0  0  0  0  0  0
   -3.9366   -0.0816   -1.2822 C   0  0  0  0  0  0  0  0  0  0  0  0
   -6.9678    1.2949   -0.8528 H   0  0  0  0  0  0  0  0  0  0  0  0
   -6.8423    0.1864   -2.2437 H   0  0  0  0  0  0  0  0  0  0  0  0
   -6.4867   -0.3828   -0.5961 H   0  0  0  0  0  0  0  0  0  0  0  0
   -5.4176    2.8742   -2.1017 H   0  0  0  0  0  0  0  0  0  0  0  0
   -3.0621    3.4842   -2.5178 H   0  0  0  0  0  0  0  0  0  0  0  0
   -1.2639    1.8439   -2.1579 H   0  0  0  0  0  0  0  0  0  0  0  0
   -0.5103   -0.3330   -1.5698 H   0  0  0  0  0  0  0  0  0  0  0  0
   -1.6679   -1.6386   -1.8621 H   0  0  0  0  0  0  0  0  0  0  0  0
   -2.2514    0.7493    1.3724 H   0  0  0  0  0  0  0  0  0  0  0  0
   -1.0954   -0.0400    2.4621 H   0  0  0  0  0  0  0  0  0  0  0  0
   -0.9963    3.1790    0.5924 H   0  0  0  0  0  0  0  0  0  0  0  0
    1.5942    3.7171   -0.1080 H   0  0  0  0  0  0  0  0  0  0  0  0
    2.8745   -0.6074    0.8681 H   0  0  0  0  0  0  0  0  0  0  0  0
    5.6719    0.1453    0.7895 H   0  0  0  0  0  0  0  0  0  0  0  0
    5.1352   -0.5502   -0.7500 H   0  0  0  0  0  0  0  0  0  0  0  0
    3.5961   -3.2216   -0.1224 H   0  0  0  0  0  0  0  0  0  0  0  0
    4.5855   -5.0777    1.6268 H   0  0  0  0  0  0  0  0  0  0  0  0
    6.4563   -3.6840    3.1096 H   0  0  0  0  0  0  0  0  0  0  0  0
   -4.2002   -1.0933   -0.9707 H   0  0  0  0  0  0  0  0  0  0  0  0
  1  2  1  0
  2  3  2  0
  3  4  1  0
  4  5  2  0
  5  6  1  0
  6  7  1  0
  7  8  1  0
  8  9  2  0
  8 10  2  0
  8 11  1  0
 11 12  1  0
 12 13  2  0
 13 14  1  0
 14 15  2  0
 15 16  1  0
 16 17  2  0
 16 18  1  0
 18 19  1  0
 19 20  1  0
 20 21  2  0
 21 22  1  0
 22 23  2  0
 23 24  1  0
 15 25  1  0
  6 26  2  0
 26  2  1  0
 25 12  1  0
 24 20  1  0
  1 27  1  0
  1 28  1  0
  1 29  1  0
  3 30  1  0
  4 31  1  0
  5 32  1  0
  7 33  1  0
  7 34  1  0
 11 35  1  0
 11 36  1  0
 13 37  1  0
 14 38  1  0
 18 39  1  0
 19 40  1  0
 19 41  1  0
 21 42  1  0
 22 43  1  0
 23 44  1  0
 26 45  1  0
M  END
$$$$
