
     RDKit          3D

 29 31  0  0  0  0  0  0  0  0999 V2000
    5.8178   -1.5769   -0.2153 C   0  0  0  0  0  0  0  0  0  0  0  0
    5.4549   -0.2054   -0.3193 O   0  0  0  0  0  0  0  0  0  0  0  0
    4.1205    0.0924   -0.2412 C   0  0  0  0  0  0  0  0  0  0  0  0
    3.8287    1.4524   -0.3449 C   0  0  0  0  0  0  0  0  0  0  0  0
    2.5099    1.9175   -0.2836 C   0  0  0  0  0  0  0  0  0  0  0  0
    1.4583    0.9980   -0.1143 C   0  0  0  0  0  0  0  0  0  0  0  0
    0.1099    1.3061   -0.0366 N   0  0  0  0  0  0  0  0  0  0  0  0
   -0.5858    0.2066    0.1269 C   0  0  0  0  0  0  0  0  0  0  0  0
   -1.9521    0.2642    0.2238 N   0  0  0  0  0  0  0  0  0  0  0  0
   -2.8265   -0.7790    0.4481 C   0  0  0  0  0  0  0  0  0  0  0  0
   -2.4847   -1.9426    0.6351 O   0  0  0  0  0  0  0  0  0  0  0  0
   -4.2338   -0.3650    0.4611 C   0  0  0  0  0  0  0  0  0  0  0  0
   -4.8392    0.7914   -0.0060 C   0  0  0  0  0  0  0  0  0  0  0  0
   -6.2504    0.8006    0.2077 C   0  0  0  0  0  0  0  0  0  0  0  0
   -6.6855   -0.3491    0.8236 C   0  0  0  0  0  0  0  0  0  0  0  0
   -5.4035   -1.4327    1.1345 S   0  0  0  0  0  0  0  0  0  0  0  0
    0.3015   -1.2409    0.1837 S   0  0  0  0  0  0  0  0  0  0  0  0
    1.7662   -0.3588   -0.0128 C   0  0  0  0  0  0  0  0  0  0  0  0
    3.0891   -0.8370   -0.0732 C   0  0  0  0  0  0  0  0  0  0  0  0
    5.3896   -2.1616   -1.0361 H   0  0  0  0  0  0  0  0  0  0  0  0
    5.5293   -1.9887    0.7575 H   0  0  0  0  0  0  0  0  0  0  0  0
    6.9074   -1.6411   -0.2940 H   0  0  0  0  0  0  0  0  0  0  0  0
    4.6391    2.1668   -0.4756 H   0  0  0  0  0  0  0  0  0  0  0  0
    2.2936    2.9777   -0.3651 H   0  0  0  0  0  0  0  0  0  0  0  0
   -2.2992    1.2083    0.1696 H   0  0  0  0  0  0  0  0  0  0  0  0
   -4.3160    1.6023   -0.4973 H   0  0  0  0  0  0  0  0  0  0  0  0
   -6.9128    1.6074   -0.0826 H   0  0  0  0  0  0  0  0  0  0  0  0
   -7.6975   -0.6113    1.1015 H   0  0  0  0  0  0  0  0  0  0  0  0
    3.2713   -1.9016    0.0112 H   0  0  0  0  0  0  0  0  0  0  0  0
  1  2  1  0
  2  3  1  0
  3  4  2  0
  4  5  1  0
  5  6  2  0
  6  7  1  0
  7  8  2  0
  8  9  1  0
  9 10  1  0
 10 11  2  0
 10 12  1  0
 12 13  2  0
 13 14  1  0
 14 15  2  0
 15 16  1  0
  8 17  1  0
 17 18  1  0
 18 19  2  0
 19  3  1  0
 18  6  1  0
 16 12  1  0
  1 20  1  0
  1 21  1  0
  1 22  1  0
  4 23  1  0
  5 24  1  0
  9 25  1  0
 13 26  1  0
 14 27  1  0
 15 28  1  0
 19 29  1  0
M  END
$$$$
