
     RDKit          3D

 64 67  0  0  0  0  0  0  0  0999 V2000
   10.9114   -1.2145    0.2236 C   0  0  0  0  0  0  0  0  0  0  0  0
   10.1990   -0.3876   -0.8365 C   0  0  0  0  0  0  0  0  0  0  0  0
    8.7114   -0.3335   -0.6003 C   0  0  0  0  0  0  0  0  0  0  0  0
    8.1383    0.7435    0.0838 C   0  0  0  0  0  0  0  0  0  0  0  0
    6.7584    0.7872    0.3100 C   0  0  0  0  0  0  0  0  0  0  0  0
    5.9198   -0.2448   -0.1367 C   0  0  0  0  0  0  0  0  0  0  0  0
    4.4720   -0.1865    0.1049 C   0  0  0  0  0  0  0  0  0  0  0  0
    3.4647   -1.0765   -0.3676 C   0  0  0  0  0  0  0  0  0  0  0  0
    2.2816   -0.5888    0.1321 C   0  0  0  0  0  0  0  0  0  0  0  0
    0.9173   -1.0054    0.0338 C   0  0  0  0  0  0  0  0  0  0  0  0
    0.5701   -2.0019   -0.5945 O   0  0  0  0  0  0  0  0  0  0  0  0
    0.0168   -0.1823    0.7349 N   0  0  0  0  0  0  0  0  0  0  0  0
   -1.4051   -0.4730    0.6336 C   0  0  0  0  0  0  0  0  0  0  0  0
   -1.9850    0.0683   -0.6758 C   0  0  0  0  0  0  0  0  0  0  0  0
   -1.4115    0.8786   -1.3991 O   0  0  0  0  0  0  0  0  0  0  0  0
   -3.2414   -0.4291   -0.9587 N   0  0  0  0  0  0  0  0  0  0  0  0
   -4.0537    0.0751   -2.0518 C   0  0  0  0  0  0  0  0  0  0  0  0
   -5.2555    0.8744   -1.5069 C   0  0  0  0  0  0  0  0  0  0  0  0
   -6.0298    0.1481   -0.4613 N   0  0  0  0  0  0  0  0  0  0  0  0
   -6.7216   -1.0137   -1.0620 C   0  0  0  0  0  0  0  0  0  0  0  0
   -7.4884   -1.8311   -0.0246 C   0  0  0  0  0  0  0  0  0  0  0  0
   -8.4935   -0.9661    0.7153 C   0  0  0  0  0  0  0  0  0  0  0  0
   -7.7954    0.2549    1.2962 C   0  0  0  0  0  0  0  0  0  0  0  0
   -7.0077    1.0368    0.2233 C   0  0  0  0  0  0  0  0  0  0  0  0
   -6.3468    2.2366    0.9211 C   0  0  0  0  0  0  0  0  0  0  0  0
    0.3790    0.9479    1.4782 N   0  0  0  0  0  0  0  0  0  0  0  0
    1.6394    1.2747    1.5093 C   0  0  0  0  0  0  0  0  0  0  0  0
    2.1532    2.4654    2.2537 C   0  0  0  0  0  0  0  0  0  0  0  0
    2.5996    0.5202    0.8446 N   0  0  0  0  0  0  0  0  0  0  0  0
    3.9213    0.7886    0.8549 N   0  0  0  0  0  0  0  0  0  0  0  0
    6.5019   -1.3256   -0.8138 C   0  0  0  0  0  0  0  0  0  0  0  0
    7.8823   -1.3706   -1.0417 C   0  0  0  0  0  0  0  0  0  0  0  0
   11.9880   -1.2298    0.0302 H   0  0  0  0  0  0  0  0  0  0  0  0
   10.5545   -2.2501    0.2295 H   0  0  0  0  0  0  0  0  0  0  0  0
   10.7508   -0.7993    1.2245 H   0  0  0  0  0  0  0  0  0  0  0  0
   10.6108    0.6296   -0.8484 H   0  0  0  0  0  0  0  0  0  0  0  0
   10.3964   -0.8064   -1.8314 H   0  0  0  0  0  0  0  0  0  0  0  0
    8.7598    1.5594    0.4461 H   0  0  0  0  0  0  0  0  0  0  0  0
    6.3415    1.6413    0.8401 H   0  0  0  0  0  0  0  0  0  0  0  0
    3.5751   -1.9530   -0.9908 H   0  0  0  0  0  0  0  0  0  0  0  0
   -1.9316   -0.0078    1.4740 H   0  0  0  0  0  0  0  0  0  0  0  0
   -1.5575   -1.5574    0.6757 H   0  0  0  0  0  0  0  0  0  0  0  0
   -3.7539   -0.9244   -0.2363 H   0  0  0  0  0  0  0  0  0  0  0  0
   -4.3811   -0.7883   -2.6374 H   0  0  0  0  0  0  0  0  0  0  0  0
   -3.4560    0.7126   -2.7115 H   0  0  0  0  0  0  0  0  0  0  0  0
   -4.8240    1.7856   -1.0803 H   0  0  0  0  0  0  0  0  0  0  0  0
   -5.9059    1.1827   -2.3345 H   0  0  0  0  0  0  0  0  0  0  0  0
   -7.4102   -0.6848   -1.8516 H   0  0  0  0  0  0  0  0  0  0  0  0
   -5.9997   -1.6945   -1.5248 H   0  0  0  0  0  0  0  0  0  0  0  0
   -8.0079   -2.6607   -0.5183 H   0  0  0  0  0  0  0  0  0  0  0  0
   -6.7834   -2.2741    0.6911 H   0  0  0  0  0  0  0  0  0  0  0  0
   -8.9710   -1.5450    1.5137 H   0  0  0  0  0  0  0  0  0  0  0  0
   -9.2872   -0.6475    0.0278 H   0  0  0  0  0  0  0  0  0  0  0  0
   -7.1171   -0.0645    2.0991 H   0  0  0  0  0  0  0  0  0  0  0  0
   -8.5472    0.9072    1.7581 H   0  0  0  0  0  0  0  0  0  0  0  0
   -7.7251    1.4260   -0.5129 H   0  0  0  0  0  0  0  0  0  0  0  0
   -7.0644    2.7557    1.5671 H   0  0  0  0  0  0  0  0  0  0  0  0
   -5.5041    1.9206    1.5448 H   0  0  0  0  0  0  0  0  0  0  0  0
   -5.9872    2.9780    0.2023 H   0  0  0  0  0  0  0  0  0  0  0  0
    2.6543    3.1534    1.5663 H   0  0  0  0  0  0  0  0  0  0  0  0
    2.8559    2.1519    3.0308 H   0  0  0  0  0  0  0  0  0  0  0  0
    1.3221    2.9932    2.7298 H   0  0  0  0  0  0  0  0  0  0  0  0
    5.8987   -2.1546   -1.1739 H   0  0  0  0  0  0  0  0  0  0  0  0
    8.3048   -2.2240   -1.5680 H   0  0  0  0  0  0  0  0  0  0  0  0
  1  2  1  0
  2  3  1  0
  3  4  2  0
  4  5  1  0
  5  6  2  0
  6  7  1  0
  7  8  1  0
  8  9  2  0
  9 10  1  0
 10 11  2  0
 10 12  1  0
 12 13  1  0
 13 14  1  0
 14 15  2  0
 14 16  1  0
 16 17  1  0
 17 18  1  0
 18 19  1  0
 19 20  1  0
 20 21  1  0
 21 22  1  0
 22 23  1  0
 23 24  1  0
 24 25  1  0
 12 26  1  0
 26 27  2  0
 27 28  1  0
 27 29  1  0
 29 30  1  0
  6 31  1  0
 31 32  2  0
 32  3  1  0
 30  7  2  0
 29  9  1  0
 24 19  1  0
  1 33  1  0
  1 34  1  0
  1 35  1  0
  2 36  1  0
  2 37  1  0
  4 38  1  0
  5 39  1  0
  8 40  1  0
 13 41  1  0
 13 42  1  0
 16 43  1  0
 17 44  1  0
 17 45  1  0
 18 46  1  0
 18 47  1  0
 20 48  1  0
 20 49  1  0
 21 50  1  0
 21 51  1  0
 22 52  1  0
 22 53  1  0
 23 54  1  0
 23 55  1  0
 24 56  1  0
 25 57  1  0
 25 58  1  0
 25 59  1  0
 28 60  1  0
 28 61  1  0
 28 62  1  0
 31 63  1  0
 32 64  1  0
M  END
$$$$
