
     RDKit          3D

 37 37  0  0  0  0  0  0  0  0999 V2000
    4.6500    1.7537   -0.7246 C   0  0  0  0  0  0  0  0  0  0  0  0
    4.1124    0.3473   -0.9426 C   0  0  0  0  0  0  0  0  0  0  0  0
    3.6689   -0.2896    0.3750 C   0  0  0  0  0  0  0  0  0  0  0  0
    3.2398   -1.7555    0.2346 C   0  0  0  0  0  0  0  0  0  0  0  0
    2.0291   -1.9886   -0.6690 C   0  0  0  0  0  0  0  0  0  0  0  0
    0.7373   -1.4092   -0.1162 C   0  0  0  0  0  0  0  0  0  0  0  0
    0.5994   -1.0763    1.0568 O   0  0  0  0  0  0  0  0  0  0  0  0
   -0.2510   -1.3315   -1.1030 N   0  0  0  0  0  0  0  0  0  0  0  0
   -1.5543   -1.0803   -0.7645 N   0  0  0  0  0  0  0  0  0  0  0  0
   -1.8603    0.0821   -0.2564 C   0  0  0  0  0  0  0  0  0  0  0  0
   -0.9044    1.2568   -0.1545 C   0  0  0  0  0  0  0  0  0  0  0  0
   -3.2626    0.2933    0.2275 C   0  0  0  0  0  0  0  0  0  0  0  0
   -3.5606    1.2591    1.1976 C   0  0  0  0  0  0  0  0  0  0  0  0
   -4.8778    1.4328    1.6353 C   0  0  0  0  0  0  0  0  0  0  0  0
   -5.8958    0.6392    1.1092 C   0  0  0  0  0  0  0  0  0  0  0  0
   -7.5144    0.8566    1.6493 Cl  0  0  0  0  0  0  0  0  0  0  0  0
   -5.6094   -0.3317    0.1523 C   0  0  0  0  0  0  0  0  0  0  0  0
   -4.2936   -0.5071   -0.2856 C   0  0  0  0  0  0  0  0  0  0  0  0
    5.5196    1.7431   -0.0597 H   0  0  0  0  0  0  0  0  0  0  0  0
    4.9576    2.1937   -1.6784 H   0  0  0  0  0  0  0  0  0  0  0  0
    3.8861    2.4010   -0.2821 H   0  0  0  0  0  0  0  0  0  0  0  0
    3.2713    0.4015   -1.6418 H   0  0  0  0  0  0  0  0  0  0  0  0
    4.8902   -0.2663   -1.4112 H   0  0  0  0  0  0  0  0  0  0  0  0
    4.5013   -0.2492    1.0889 H   0  0  0  0  0  0  0  0  0  0  0  0
    2.8572    0.3022    0.8133 H   0  0  0  0  0  0  0  0  0  0  0  0
    4.0848   -2.3347   -0.1579 H   0  0  0  0  0  0  0  0  0  0  0  0
    3.0300   -2.1525    1.2356 H   0  0  0  0  0  0  0  0  0  0  0  0
    1.8728   -3.0695   -0.7722 H   0  0  0  0  0  0  0  0  0  0  0  0
    2.2117   -1.5910   -1.6726 H   0  0  0  0  0  0  0  0  0  0  0  0
   -0.1711   -2.0334   -1.8336 H   0  0  0  0  0  0  0  0  0  0  0  0
   -1.4370    2.1988   -0.3168 H   0  0  0  0  0  0  0  0  0  0  0  0
   -0.4422    1.2768    0.8356 H   0  0  0  0  0  0  0  0  0  0  0  0
   -0.1257    1.2018   -0.9196 H   0  0  0  0  0  0  0  0  0  0  0  0
   -2.7804    1.8721    1.6408 H   0  0  0  0  0  0  0  0  0  0  0  0
   -5.0999    2.1822    2.3908 H   0  0  0  0  0  0  0  0  0  0  0  0
   -6.3999   -0.9567   -0.2543 H   0  0  0  0  0  0  0  0  0  0  0  0
   -4.0790   -1.2710   -1.0299 H   0  0  0  0  0  0  0  0  0  0  0  0
  1  2  1  0
  2  3  1  0
  3  4  1  0
  4  5  1  0
  5  6  1  0
  6  7  2  0
  6  8  1  0
  8  9  1  0
  9 10  2  3
 10 11  1  0
 10 12  1  0
 12 13  2  0
 13 14  1  0
 14 15  2  0
 15 16  1  0
 15 17  1  0
 17 18  2  0
 18 12  1  0
  1 19  1  0
  1 20  1  0
  1 21  1  0
  2 22  1  0
  2 23  1  0
  3 24  1  0
  3 25  1  0
  4 26  1  0
  4 27  1  0
  5 28  1  0
  5 29  1  0
  8 30  1  0
 11 31  1  0
 11 32  1  0
 11 33  1  0
 13 34  1  0
 14 35  1  0
 17 36  1  0
 18 37  1  0
M  END
$$$$
