
     RDKit          3D

 46 50  0  0  0  0  0  0  0  0999 V2000
   -8.1830    1.7159    0.0724 C   0  0  0  0  0  0  0  0  0  0  0  0
   -6.7415    1.2969    0.1960 C   0  0  0  0  0  0  0  0  0  0  0  0
   -5.8251    1.7329   -0.7828 C   0  0  0  0  0  0  0  0  0  0  0  0
   -4.4782    1.3557   -0.6891 C   0  0  0  0  0  0  0  0  0  0  0  0
   -3.4220    1.6644   -1.5253 N   0  0  0  0  0  0  0  0  0  0  0  0
   -2.4119    1.0581   -0.9677 C   0  0  0  0  0  0  0  0  0  0  0  0
   -0.7452    0.9413   -1.3741 S   0  0  0  0  0  0  0  0  0  0  0  0
   -0.4686   -0.0640    0.0256 C   0  0  0  0  0  0  0  0  0  0  0  0
    0.6734   -0.6001    0.4757 C   0  0  0  0  0  0  0  0  0  0  0  0
    1.9619   -0.4897   -0.1167 C   0  0  0  0  0  0  0  0  0  0  0  0
    2.3851   -0.3300   -1.4305 C   0  0  0  0  0  0  0  0  0  0  0  0
    3.8017   -0.3065   -1.4389 C   0  0  0  0  0  0  0  0  0  0  0  0
    4.2014   -0.4802   -0.1348 C   0  0  0  0  0  0  0  0  0  0  0  0
    5.4860   -0.5494    0.5577 C   0  0  0  0  0  0  0  0  0  0  0  0
    5.5936    0.0702    1.8198 C   0  0  0  0  0  0  0  0  0  0  0  0
    6.8013    0.0970    2.5220 C   0  0  0  0  0  0  0  0  0  0  0  0
    7.9334   -0.4961    1.9771 C   0  0  0  0  0  0  0  0  0  0  0  0
    7.8530   -1.1233    0.7350 C   0  0  0  0  0  0  0  0  0  0  0  0
    6.6377   -1.1568    0.0229 C   0  0  0  0  0  0  0  0  0  0  0  0
    6.6148   -1.9081   -1.2544 C   0  0  0  0  0  0  0  0  0  0  0  0
    5.7320   -2.6279   -1.6765 O   0  0  0  0  0  0  0  0  0  0  0  0
    7.7414   -1.7019   -1.9637 O   0  0  0  0  0  0  0  0  0  0  0  0
    3.0979   -0.5861    0.6592 O   0  0  0  0  0  0  0  0  0  0  0  0
   -1.7202   -0.2873    0.8110 C   0  0  0  0  0  0  0  0  0  0  0  0
   -1.8980   -0.9223    1.8340 O   0  0  0  0  0  0  0  0  0  0  0  0
   -2.7325    0.3819    0.1611 N   0  0  0  0  0  0  0  0  0  0  0  0
   -4.0749    0.5509    0.3801 C   0  0  0  0  0  0  0  0  0  0  0  0
   -4.9534    0.0993    1.3691 C   0  0  0  0  0  0  0  0  0  0  0  0
   -6.3043    0.4839    1.2661 C   0  0  0  0  0  0  0  0  0  0  0  0
   -7.2694    0.0074    2.3220 C   0  0  0  0  0  0  0  0  0  0  0  0
   -8.3459    2.3405   -0.8125 H   0  0  0  0  0  0  0  0  0  0  0  0
   -8.8277    0.8365   -0.0227 H   0  0  0  0  0  0  0  0  0  0  0  0
   -8.4855    2.2999    0.9472 H   0  0  0  0  0  0  0  0  0  0  0  0
   -6.1398    2.3578   -1.6127 H   0  0  0  0  0  0  0  0  0  0  0  0
    0.6543   -1.1572    1.4121 H   0  0  0  0  0  0  0  0  0  0  0  0
    1.7528   -0.2549   -2.3037 H   0  0  0  0  0  0  0  0  0  0  0  0
    4.4444   -0.1928   -2.3002 H   0  0  0  0  0  0  0  0  0  0  0  0
    4.7238    0.5537    2.2636 H   0  0  0  0  0  0  0  0  0  0  0  0
    6.8533    0.5854    3.4922 H   0  0  0  0  0  0  0  0  0  0  0  0
    8.8752   -0.4781    2.5198 H   0  0  0  0  0  0  0  0  0  0  0  0
    8.7419   -1.6005    0.3269 H   0  0  0  0  0  0  0  0  0  0  0  0
    7.6114   -2.2403   -2.7726 H   0  0  0  0  0  0  0  0  0  0  0  0
   -4.6015   -0.5261    2.1859 H   0  0  0  0  0  0  0  0  0  0  0  0
   -6.7679   -0.6069    3.0775 H   0  0  0  0  0  0  0  0  0  0  0  0
   -8.0559   -0.6044    1.8694 H   0  0  0  0  0  0  0  0  0  0  0  0
   -7.7194    0.8611    2.8385 H   0  0  0  0  0  0  0  0  0  0  0  0
  1  2  1  0
  2  3  2  0
  3  4  1  0
  4  5  1  0
  5  6  2  0
  6  7  1  0
  7  8  1  0
  8  9  2  3
  9 10  1  0
 10 11  2  0
 11 12  1  0
 12 13  2  0
 13 14  1  0
 14 15  2  0
 15 16  1  0
 16 17  2  0
 17 18  1  0
 18 19  2  0
 19 20  1  0
 20 21  2  0
 20 22  1  0
 13 23  1  0
  8 24  1  0
 24 25  2  0
 24 26  1  0
 26 27  1  0
 27 28  1  0
 28 29  2  0
 29 30  1  0
 29  2  1  0
 27  4  2  0
 26  6  1  0
 23 10  1  0
 19 14  1  0
  1 31  1  0
  1 32  1  0
  1 33  1  0
  3 34  1  0
  9 35  1  0
 11 36  1  0
 12 37  1  0
 15 38  1  0
 16 39  1  0
 17 40  1  0
 18 41  1  0
 22 42  1  0
 28 43  1  0
 30 44  1  0
 30 45  1  0
 30 46  1  0
M  END
$$$$
