
     RDKit          3D

 38 40  0  0  0  0  0  0  0  0999 V2000
   -3.0715    0.4081    2.5145 C   0  0  0  0  0  0  0  0  0  0  0  0
   -3.6036    0.3083    1.1246 C   0  0  0  0  0  0  0  0  0  0  0  0
   -4.9327    0.2275    0.7555 C   0  0  0  0  0  0  0  0  0  0  0  0
   -4.9838    0.0363   -0.6341 C   0  0  0  0  0  0  0  0  0  0  0  0
   -3.6864    0.0257   -1.1094 C   0  0  0  0  0  0  0  0  0  0  0  0
   -3.2650   -0.0399   -2.5395 C   0  0  0  0  0  0  0  0  0  0  0  0
   -2.8215    0.1848   -0.0251 N   0  0  0  0  0  0  0  0  0  0  0  0
   -1.4019    0.2167   -0.0803 C   0  0  0  0  0  0  0  0  0  0  0  0
   -0.6652    1.1340    0.6592 C   0  0  0  0  0  0  0  0  0  0  0  0
    0.7288    1.1240    0.5639 C   0  0  0  0  0  0  0  0  0  0  0  0
    1.3759    0.1959   -0.2537 C   0  0  0  0  0  0  0  0  0  0  0  0
    2.7616    0.1944   -0.3727 N   0  0  0  0  0  0  0  0  0  0  0  0
    3.5778    0.3509    0.8443 C   0  0  0  0  0  0  0  0  0  0  0  0
    4.6111   -0.7828    0.9632 C   0  0  0  0  0  0  0  0  0  0  0  0
    5.4904   -0.8808   -0.1655 O   0  0  0  0  0  0  0  0  0  0  0  0
    4.8468   -0.5738   -1.4137 C   0  0  0  0  0  0  0  0  0  0  0  0
    3.3177   -0.7225   -1.3821 C   0  0  0  0  0  0  0  0  0  0  0  0
    0.6554   -0.6842   -0.9826 N   0  0  0  0  0  0  0  0  0  0  0  0
   -0.6973   -0.6658   -0.8808 C   0  0  0  0  0  0  0  0  0  0  0  0
   -2.1962   -0.2313    2.6624 H   0  0  0  0  0  0  0  0  0  0  0  0
   -3.8290    0.0830    3.2366 H   0  0  0  0  0  0  0  0  0  0  0  0
   -2.8131    1.4428    2.7577 H   0  0  0  0  0  0  0  0  0  0  0  0
   -5.7774    0.2797    1.4313 H   0  0  0  0  0  0  0  0  0  0  0  0
   -5.8762   -0.0586   -1.2403 H   0  0  0  0  0  0  0  0  0  0  0  0
   -4.0914    0.2597   -3.1939 H   0  0  0  0  0  0  0  0  0  0  0  0
   -2.4313    0.6366   -2.7499 H   0  0  0  0  0  0  0  0  0  0  0  0
   -2.9851   -1.0609   -2.8148 H   0  0  0  0  0  0  0  0  0  0  0  0
   -1.1430    1.8963    1.2657 H   0  0  0  0  0  0  0  0  0  0  0  0
    1.2987    1.8719    1.1052 H   0  0  0  0  0  0  0  0  0  0  0  0
    2.9752    0.3587    1.7597 H   0  0  0  0  0  0  0  0  0  0  0  0
    4.1001    1.3121    0.7740 H   0  0  0  0  0  0  0  0  0  0  0  0
    5.2337   -0.6290    1.8504 H   0  0  0  0  0  0  0  0  0  0  0  0
    4.1082   -1.7496    1.0842 H   0  0  0  0  0  0  0  0  0  0  0  0
    5.2756   -1.2337   -2.1746 H   0  0  0  0  0  0  0  0  0  0  0  0
    5.1223    0.4539   -1.6777 H   0  0  0  0  0  0  0  0  0  0  0  0
    2.9189   -0.4851   -2.3755 H   0  0  0  0  0  0  0  0  0  0  0  0
    3.0611   -1.7610   -1.1361 H   0  0  0  0  0  0  0  0  0  0  0  0
   -1.1874   -1.4423   -1.4589 H   0  0  0  0  0  0  0  0  0  0  0  0
  1  2  1  0
  2  3  2  0
  3  4  1  0
  4  5  2  0
  5  6  1  0
  5  7  1  0
  7  8  1  0
  8  9  2  0
  9 10  1  0
 10 11  2  0
 11 12  1  0
 12 13  1  0
 13 14  1  0
 14 15  1  0
 15 16  1  0
 16 17  1  0
 11 18  1  0
 18 19  2  0
  7  2  1  0
 19  8  1  0
 17 12  1  0
  1 20  1  0
  1 21  1  0
  1 22  1  0
  3 23  1  0
  4 24  1  0
  6 25  1  0
  6 26  1  0
  6 27  1  0
  9 28  1  0
 10 29  1  0
 13 30  1  0
 13 31  1  0
 14 32  1  0
 14 33  1  0
 16 34  1  0
 16 35  1  0
 17 36  1  0
 17 37  1  0
 19 38  1  0
M  END
$$$$
