
     RDKit          3D

 37 37  0  0  0  0  0  0  0  0999 V2000
   -4.1528   -1.6634    1.7518 C   0  0  0  0  0  0  0  0  0  0  0  0
   -3.9217   -1.1228    0.3476 C   0  0  0  0  0  0  0  0  0  0  0  0
   -2.9805    0.0059    0.3643 N   0  0  0  0  0  0  0  0  0  0  0  0
   -3.5892    1.3388    0.4808 C   0  0  0  0  0  0  0  0  0  0  0  0
   -3.8730    1.9330   -0.8921 C   0  0  0  0  0  0  0  0  0  0  0  0
   -1.6056   -0.1725    0.2573 C   0  0  0  0  0  0  0  0  0  0  0  0
   -0.7151    0.9089    0.1175 C   0  0  0  0  0  0  0  0  0  0  0  0
    0.6730    0.7377    0.0066 C   0  0  0  0  0  0  0  0  0  0  0  0
    1.2165   -0.5412    0.0348 C   0  0  0  0  0  0  0  0  0  0  0  0
    2.6712   -0.7594   -0.0809 C   0  0  0  0  0  0  0  0  0  0  0  0
    3.4993    0.2188   -0.2437 N   0  0  0  0  0  0  0  0  0  0  0  0
    4.9245   -0.1925   -0.3368 C   0  0  0  0  0  0  0  0  0  0  0  0
    5.4713   -0.3657    1.0192 C   0  0  0  0  0  0  0  0  0  0  0  0
    5.9046   -0.5354    2.0827 N   0  0  0  0  0  0  0  0  0  0  0  0
    5.6597    0.9138   -1.0483 C   0  0  0  0  0  0  0  0  0  0  0  0
    5.1481    2.0462   -1.4299 N   0  0  0  0  0  0  0  0  0  0  0  0
    7.0485    0.7288   -1.3946 C   0  0  0  0  0  0  0  0  0  0  0  0
    8.1588    0.5141   -1.6607 N   0  0  0  0  0  0  0  0  0  0  0  0
    0.3765   -1.6393    0.1766 C   0  0  0  0  0  0  0  0  0  0  0  0
   -1.0097   -1.4476    0.2837 C   0  0  0  0  0  0  0  0  0  0  0  0
   -3.2267   -2.0321    2.2037 H   0  0  0  0  0  0  0  0  0  0  0  0
   -4.8696   -2.4906    1.7243 H   0  0  0  0  0  0  0  0  0  0  0  0
   -4.5556   -0.8858    2.4103 H   0  0  0  0  0  0  0  0  0  0  0  0
   -3.5919   -1.9187   -0.3294 H   0  0  0  0  0  0  0  0  0  0  0  0
   -4.8868   -0.7932   -0.0593 H   0  0  0  0  0  0  0  0  0  0  0  0
   -2.9736    2.0171    1.0825 H   0  0  0  0  0  0  0  0  0  0  0  0
   -4.5377    1.2635    1.0275 H   0  0  0  0  0  0  0  0  0  0  0  0
   -2.9591    2.0469   -1.4826 H   0  0  0  0  0  0  0  0  0  0  0  0
   -4.5580    1.2965   -1.4628 H   0  0  0  0  0  0  0  0  0  0  0  0
   -4.3350    2.9202   -0.7887 H   0  0  0  0  0  0  0  0  0  0  0  0
   -1.0788    1.9315    0.0801 H   0  0  0  0  0  0  0  0  0  0  0  0
    1.3088    1.6130   -0.0984 H   0  0  0  0  0  0  0  0  0  0  0  0
    3.0135   -1.8097   -0.0210 H   0  0  0  0  0  0  0  0  0  0  0  0
    5.0339   -1.1096   -0.9281 H   0  0  0  0  0  0  0  0  0  0  0  0
    4.1549    2.0374   -1.1396 H   0  0  0  0  0  0  0  0  0  0  0  0
    0.7710   -2.6509    0.2091 H   0  0  0  0  0  0  0  0  0  0  0  0
   -1.6139   -2.3417    0.4034 H   0  0  0  0  0  0  0  0  0  0  0  0
  1  2  1  0
  2  3  1  0
  3  4  1  0
  4  5  1  0
  3  6  1  0
  6  7  2  0
  7  8  1  0
  8  9  2  0
  9 10  1  0
 10 11  2  3
 11 12  1  0
 12 13  1  0
 13 14  3  0
 12 15  1  0
 15 16  2  3
 15 17  1  0
 17 18  3  0
  9 19  1  0
 19 20  2  0
 20  6  1  0
  1 21  1  0
  1 22  1  0
  1 23  1  0
  2 24  1  0
  2 25  1  0
  4 26  1  0
  4 27  1  0
  5 28  1  0
  5 29  1  0
  5 30  1  0
  7 31  1  0
  8 32  1  0
 10 33  1  0
 12 34  1  0
 16 35  1  0
 19 36  1  0
 20 37  1  0
M  END
$$$$
