
     RDKit          3D

 43 45  0  0  0  0  0  0  0  0999 V2000
   -3.4956    0.5025    2.8898 C   0  0  0  0  0  0  0  0  0  0  0  0
   -4.3169    0.0302    1.7246 C   0  0  0  0  0  0  0  0  0  0  0  0
   -5.7146    0.0917    1.7967 C   0  0  0  0  0  0  0  0  0  0  0  0
   -6.4996   -0.3471    0.7310 C   0  0  0  0  0  0  0  0  0  0  0  0
   -5.8982   -0.8624   -0.4168 C   0  0  0  0  0  0  0  0  0  0  0  0
   -4.5029   -0.9358   -0.5177 C   0  0  0  0  0  0  0  0  0  0  0  0
   -3.8791   -1.5009   -1.7616 C   0  0  0  0  0  0  0  0  0  0  0  0
   -3.7240   -0.4404    0.5414 C   0  0  0  0  0  0  0  0  0  0  0  0
   -2.3548   -0.4852    0.4449 O   0  0  0  0  0  0  0  0  0  0  0  0
   -1.8589    0.7374   -0.1157 C   0  0  0  0  0  0  0  0  0  0  0  0
   -0.3959    0.5722   -0.2729 C   0  0  0  0  0  0  0  0  0  0  0  0
    0.4255   -0.4721   -0.6182 C   0  0  0  0  0  0  0  0  0  0  0  0
    1.7391    0.0670   -0.5833 C   0  0  0  0  0  0  0  0  0  0  0  0
    2.9763   -0.6483   -0.9267 C   0  0  0  0  0  0  0  0  0  0  0  0
    2.9253   -1.6383   -1.6589 O   0  0  0  0  0  0  0  0  0  0  0  0
    4.2015   -0.1822   -0.4405 N   0  0  0  0  0  0  0  0  0  0  0  0
    4.3761    0.5128    0.8362 C   0  0  0  0  0  0  0  0  0  0  0  0
    5.4897    1.5471    0.7032 C   0  0  0  0  0  0  0  0  0  0  0  0
    6.7155    0.9516    0.2101 N   0  0  0  0  0  0  0  0  0  0  0  0
    6.7180   -0.0428   -0.7380 C   0  0  0  0  0  0  0  0  0  0  0  0
    7.7706   -0.3460   -1.2969 O   0  0  0  0  0  0  0  0  0  0  0  0
    5.4117   -0.8244   -0.9587 C   0  0  0  0  0  0  0  0  0  0  0  0
    1.6945    1.3764   -0.2780 N   0  0  0  0  0  0  0  0  0  0  0  0
    0.3637    1.6800   -0.0671 O   0  0  0  0  0  0  0  0  0  0  0  0
   -3.2101    1.5493    2.7498 H   0  0  0  0  0  0  0  0  0  0  0  0
   -4.0587    0.4188    3.8256 H   0  0  0  0  0  0  0  0  0  0  0  0
   -2.5921   -0.1043    3.0082 H   0  0  0  0  0  0  0  0  0  0  0  0
   -6.2025    0.4753    2.6901 H   0  0  0  0  0  0  0  0  0  0  0  0
   -7.5836   -0.2990    0.8000 H   0  0  0  0  0  0  0  0  0  0  0  0
   -6.5276   -1.2149   -1.2310 H   0  0  0  0  0  0  0  0  0  0  0  0
   -2.9837   -2.0838   -1.5229 H   0  0  0  0  0  0  0  0  0  0  0  0
   -4.5708   -2.1772   -2.2758 H   0  0  0  0  0  0  0  0  0  0  0  0
   -3.6105   -0.6932   -2.4490 H   0  0  0  0  0  0  0  0  0  0  0  0
   -2.0738    1.5793    0.5525 H   0  0  0  0  0  0  0  0  0  0  0  0
   -2.3063    0.9328   -1.0972 H   0  0  0  0  0  0  0  0  0  0  0  0
    0.1323   -1.4832   -0.8615 H   0  0  0  0  0  0  0  0  0  0  0  0
    3.4639    0.9764    1.2073 H   0  0  0  0  0  0  0  0  0  0  0  0
    4.6542   -0.2514    1.5733 H   0  0  0  0  0  0  0  0  0  0  0  0
    5.7083    2.0137    1.6681 H   0  0  0  0  0  0  0  0  0  0  0  0
    5.2032    2.3299   -0.0078 H   0  0  0  0  0  0  0  0  0  0  0  0
    7.5825    1.4731    0.2632 H   0  0  0  0  0  0  0  0  0  0  0  0
    5.2961   -0.9886   -2.0357 H   0  0  0  0  0  0  0  0  0  0  0  0
    5.5121   -1.7959   -0.4617 H   0  0  0  0  0  0  0  0  0  0  0  0
  1  2  1  0
  2  3  2  0
  3  4  1  0
  4  5  2  0
  5  6  1  0
  6  7  1  0
  6  8  2  0
  8  9  1  0
  9 10  1  0
 10 11  1  0
 11 12  2  0
 12 13  1  0
 13 14  1  0
 14 15  2  0
 14 16  1  0
 16 17  1  0
 17 18  1  0
 18 19  1  0
 19 20  1  0
 20 21  2  0
 20 22  1  0
 13 23  2  0
 23 24  1  0
  8  2  1  0
 24 11  1  0
 22 16  1  0
  1 25  1  0
  1 26  1  0
  1 27  1  0
  3 28  1  0
  4 29  1  0
  5 30  1  0
  7 31  1  0
  7 32  1  0
  7 33  1  0
 10 34  1  0
 10 35  1  0
 12 36  1  0
 17 37  1  0
 17 38  1  0
 18 39  1  0
 18 40  1  0
 19 41  1  0
 22 42  1  0
 22 43  1  0
M  END
$$$$
