
     RDKit          3D

 40 41  0  0  0  0  0  0  0  0999 V2000
   -2.9513   -0.4658    2.8524 C   0  0  0  0  0  0  0  0  0  0  0  0
   -3.7584    0.2761    1.8486 C   0  0  0  0  0  0  0  0  0  0  0  0
   -5.0512    0.5244    2.0885 N   0  0  0  0  0  0  0  0  0  0  0  0
   -5.4705    1.1898    1.0038 N   0  0  0  0  0  0  0  0  0  0  0  0
   -6.8514    1.6099    0.9311 C   0  0  0  0  0  0  0  0  0  0  0  0
   -4.4867    1.3954    0.0690 C   0  0  0  0  0  0  0  0  0  0  0  0
   -4.7358    2.1223   -1.2024 C   0  0  0  0  0  0  0  0  0  0  0  0
   -3.3467    0.7960    0.5888 C   0  0  0  0  0  0  0  0  0  0  0  0
   -2.0497    0.7386   -0.0468 C   0  0  0  0  0  0  0  0  0  0  0  0
   -1.0696    0.1462    0.5529 N   0  0  0  0  0  0  0  0  0  0  0  0
    0.1223    0.1321   -0.1092 N   0  0  0  0  0  0  0  0  0  0  0  0
    1.2246   -0.4704    0.4816 C   0  0  0  0  0  0  0  0  0  0  0  0
    1.2344   -1.0208    1.5781 O   0  0  0  0  0  0  0  0  0  0  0  0
    2.4469   -0.4014   -0.4011 C   0  0  0  0  0  0  0  0  0  0  0  0
    3.6682   -0.9387    0.3312 C   0  0  0  0  0  0  0  0  0  0  0  0
    4.8433   -0.9694   -0.5219 N   0  0  0  0  0  0  0  0  0  0  0  0
    5.5834   -2.0668   -0.8571 C   0  0  0  0  0  0  0  0  0  0  0  0
    6.5957   -1.6003   -1.6710 C   0  0  0  0  0  0  0  0  0  0  0  0
    7.6382   -2.3638   -2.2796 N   0  0  0  0  0  4  0  0  0  0  0  0
    8.4470   -1.7426   -2.9799 O   0  0  0  0  0  0  0  0  0  0  0  0
    7.6472   -3.5819   -2.0624 O   0  0  0  0  0  1  0  0  0  0  0  0
    6.3765   -0.2155   -1.7678 C   0  0  0  0  0  0  0  0  0  0  0  0
    5.3008    0.1742   -1.0739 N   0  0  0  0  0  0  0  0  0  0  0  0
   -3.5461   -0.7183    3.7368 H   0  0  0  0  0  0  0  0  0  0  0  0
   -2.1010    0.1373    3.1854 H   0  0  0  0  0  0  0  0  0  0  0  0
   -2.5746   -1.4010    2.4262 H   0  0  0  0  0  0  0  0  0  0  0  0
   -7.2637    1.2912   -0.0295 H   0  0  0  0  0  0  0  0  0  0  0  0
   -6.8824    2.6980    1.0243 H   0  0  0  0  0  0  0  0  0  0  0  0
   -7.4179    1.1482    1.7441 H   0  0  0  0  0  0  0  0  0  0  0  0
   -5.3423    1.5107   -1.8780 H   0  0  0  0  0  0  0  0  0  0  0  0
   -3.8027    2.3682   -1.7168 H   0  0  0  0  0  0  0  0  0  0  0  0
   -5.2638    3.0638   -1.0184 H   0  0  0  0  0  0  0  0  0  0  0  0
   -1.9362    1.2071   -1.0388 H   0  0  0  0  0  0  0  0  0  0  0  0
    0.2013    0.5850   -1.0135 H   0  0  0  0  0  0  0  0  0  0  0  0
    2.2543   -0.9899   -1.3060 H   0  0  0  0  0  0  0  0  0  0  0  0
    2.6061    0.6412   -0.7012 H   0  0  0  0  0  0  0  0  0  0  0  0
    3.4961   -1.9592    0.6926 H   0  0  0  0  0  0  0  0  0  0  0  0
    3.9201   -0.3155    1.1972 H   0  0  0  0  0  0  0  0  0  0  0  0
    5.3452   -3.0588   -0.4967 H   0  0  0  0  0  0  0  0  0  0  0  0
    6.9504    0.5247   -2.3125 H   0  0  0  0  0  0  0  0  0  0  0  0
  1  2  1  0
  2  3  2  0
  3  4  1  0
  4  5  1  0
  4  6  1  0
  6  7  1  0
  6  8  2  0
  8  9  1  0
  9 10  2  3
 10 11  1  0
 11 12  1  0
 12 13  2  0
 12 14  1  0
 14 15  1  0
 15 16  1  0
 16 17  1  0
 17 18  2  0
 18 19  1  0
 19 20  2  0
 19 21  1  0
 18 22  1  0
 22 23  2  0
  8  2  1  0
 23 16  1  0
  1 24  1  0
  1 25  1  0
  1 26  1  0
  5 27  1  0
  5 28  1  0
  5 29  1  0
  7 30  1  0
  7 31  1  0
  7 32  1  0
  9 33  1  0
 11 34  1  0
 14 35  1  0
 14 36  1  0
 15 37  1  0
 15 38  1  0
 17 39  1  0
 22 40  1  0
M  CHG  2  19   1  21  -1
M  END
$$$$
