
     RDKit          3D

 48 51  0  0  0  0  0  0  0  0999 V2000
    5.3738    0.1961    0.0953 C   0  0  0  0  0  0  0  0  0  0  0  0
    4.2218    1.1435    0.4347 C   0  0  0  0  0  0  0  0  0  0  0  0
    4.7349    2.5743    0.5816 C   0  0  0  0  0  0  0  0  0  0  0  0
    3.1164    1.0796   -0.6283 C   0  0  0  0  0  0  0  0  0  0  0  0
    2.5544   -0.2385   -0.7080 O   0  0  0  0  0  0  0  0  0  0  0  0
    1.5480   -0.4910    0.1684 C   0  0  0  0  0  0  0  0  0  0  0  0
    1.1190    0.2661    1.0234 O   0  0  0  0  0  0  0  0  0  0  0  0
    1.0614   -1.8753   -0.0385 C   0  0  0  0  0  0  0  0  0  0  0  0
    2.0228   -2.9024   -0.0482 C   0  0  0  0  0  0  0  0  0  0  0  0
    1.6305   -4.2414   -0.0485 C   0  0  0  0  0  0  0  0  0  0  0  0
    0.2770   -4.5665   -0.0184 C   0  0  0  0  0  0  0  0  0  0  0  0
   -0.6874   -3.5560   -0.0070 C   0  0  0  0  0  0  0  0  0  0  0  0
   -0.3048   -2.2037   -0.0368 C   0  0  0  0  0  0  0  0  0  0  0  0
   -1.3247   -1.2099   -0.1181 N   0  0  0  0  0  0  0  0  0  0  0  0
   -2.5491   -1.2246    0.5847 C   0  0  0  0  0  0  0  0  0  0  0  0
   -2.8630   -2.1653    1.4714 O   0  0  0  0  0  0  0  0  0  0  0  0
   -3.2287   -0.1022    0.2120 C   0  0  0  0  0  0  0  0  0  0  0  0
   -2.4713    0.5937   -0.7467 C   0  0  0  0  0  0  0  0  0  0  0  0
   -1.3188   -0.0950   -0.9825 C   0  0  0  0  0  0  0  0  0  0  0  0
   -0.3510    0.1252   -1.8670 O   0  0  0  0  0  0  0  0  0  0  0  0
   -3.2620    1.7984   -1.1485 C   0  0  0  0  0  0  0  0  0  0  0  0
   -3.2887    2.7713    0.0583 C   0  0  0  0  0  0  0  0  0  0  0  0
   -4.1264    2.0013    1.1315 C   0  0  0  0  0  0  0  0  0  0  0  0
   -4.4919    0.6705    0.4243 C   0  0  0  0  0  0  0  0  0  0  0  0
   -4.7073    1.2130   -1.0267 C   0  0  0  0  0  0  0  0  0  0  0  0
    6.1536    0.2448    0.8611 H   0  0  0  0  0  0  0  0  0  0  0  0
    5.8287    0.4547   -0.8667 H   0  0  0  0  0  0  0  0  0  0  0  0
    5.0295   -0.8415    0.0412 H   0  0  0  0  0  0  0  0  0  0  0  0
    3.8091    0.8221    1.3997 H   0  0  0  0  0  0  0  0  0  0  0  0
    5.5126    2.6317    1.3508 H   0  0  0  0  0  0  0  0  0  0  0  0
    3.9239    3.2487    0.8769 H   0  0  0  0  0  0  0  0  0  0  0  0
    5.1584    2.9453   -0.3580 H   0  0  0  0  0  0  0  0  0  0  0  0
    3.5258    1.3117   -1.6183 H   0  0  0  0  0  0  0  0  0  0  0  0
    2.3308    1.8206   -0.4359 H   0  0  0  0  0  0  0  0  0  0  0  0
    3.0834   -2.6614   -0.0236 H   0  0  0  0  0  0  0  0  0  0  0  0
    2.3799   -5.0288   -0.0520 H   0  0  0  0  0  0  0  0  0  0  0  0
   -0.0329   -5.6086   -0.0094 H   0  0  0  0  0  0  0  0  0  0  0  0
   -1.7375   -3.8407   -0.0153 H   0  0  0  0  0  0  0  0  0  0  0  0
   -3.6941   -1.8858    1.8926 H   0  0  0  0  0  0  0  0  0  0  0  0
   -0.5710    0.9555   -2.3231 H   0  0  0  0  0  0  0  0  0  0  0  0
   -3.0092    2.2377   -2.1135 H   0  0  0  0  0  0  0  0  0  0  0  0
   -3.7924    3.7083   -0.2047 H   0  0  0  0  0  0  0  0  0  0  0  0
   -2.2858    3.0069    0.4305 H   0  0  0  0  0  0  0  0  0  0  0  0
   -5.0277    2.5731    1.3780 H   0  0  0  0  0  0  0  0  0  0  0  0
   -3.5506    1.8448    2.0497 H   0  0  0  0  0  0  0  0  0  0  0  0
   -5.3263    0.1152    0.8519 H   0  0  0  0  0  0  0  0  0  0  0  0
   -4.9002    0.4115   -1.7511 H   0  0  0  0  0  0  0  0  0  0  0  0
   -5.4928    1.9733   -1.0964 H   0  0  0  0  0  0  0  0  0  0  0  0
  1  2  1  0
  2  3  1  0
  2  4  1  0
  4  5  1  0
  5  6  1  0
  6  7  2  0
  6  8  1  0
  8  9  2  0
  9 10  1  0
 10 11  2  0
 11 12  1  0
 12 13  2  0
 13 14  1  0
 14 15  1  0
 15 16  1  0
 15 17  2  0
 17 18  1  0
 18 19  2  0
 19 20  1  0
 18 21  1  0
 21 22  1  0
 22 23  1  0
 23 24  1  0
 24 25  1  0
 13  8  1  0
 19 14  1  0
 25 21  1  0
 24 17  1  0
  1 26  1  0
  1 27  1  0
  1 28  1  0
  2 29  1  0
  3 30  1  0
  3 31  1  0
  3 32  1  0
  4 33  1  0
  4 34  1  0
  9 35  1  0
 10 36  1  0
 11 37  1  0
 12 38  1  0
 16 39  1  0
 20 40  1  0
 21 41  1  0
 22 42  1  0
 22 43  1  0
 23 44  1  0
 23 45  1  0
 24 46  1  0
 25 47  1  0
 25 48  1  0
M  END
$$$$
