
     RDKit          3D

 55 57  0  0  0  0  0  0  0  0999 V2000
   -2.3209    0.3161    3.3385 C   0  0  0  0  0  0  0  0  0  0  0  0
   -2.3714    0.5029    1.8177 C   0  0  0  0  0  0  0  0  0  0  0  0
   -3.4171   -0.4391    1.2132 C   0  0  0  0  0  0  0  0  0  0  0  0
   -0.9934    0.3602    1.1290 C   0  0  0  0  0  0  0  0  0  0  0  0
   -0.1471    1.5119    1.5528 N   0  0  0  0  0  0  0  0  0  0  0  0
    0.9146    2.1530    0.4172 S   0  0  0  0  0  6  0  0  0  0  0  0
    1.2783    1.1071   -0.5100 O   0  0  0  0  0  0  0  0  0  0  0  0
    1.9030    2.9060    1.1579 O   0  0  0  0  0  0  0  0  0  0  0  0
   -0.1367    3.3183   -0.4122 C   0  0  0  0  0  0  0  0  0  0  0  0
   -0.3597    4.5753    0.1623 C   0  0  0  0  0  0  0  0  0  0  0  0
   -1.1994    5.4857   -0.4818 C   0  0  0  0  0  0  0  0  0  0  0  0
   -1.8061    5.1379   -1.6888 C   0  0  0  0  0  0  0  0  0  0  0  0
   -1.5442    3.8941   -2.2758 C   0  0  0  0  0  0  0  0  0  0  0  0
   -0.7145    2.9762   -1.6377 C   0  0  0  0  0  0  0  0  0  0  0  0
   -2.0810    3.5048   -3.4753 O   0  0  0  0  0  0  0  0  0  0  0  0
   -2.6131    4.6227   -4.1957 C   0  0  0  0  0  0  0  0  0  0  0  0
   -3.4523    5.4983   -3.2805 C   0  0  0  0  0  0  0  0  0  0  0  0
   -2.6440    6.0695   -2.2462 O   0  0  0  0  0  0  0  0  0  0  0  0
   -0.2671   -0.9386    1.4895 C   0  0  0  0  0  0  0  0  0  0  0  0
    0.5966   -1.0248    2.3567 O   0  0  0  0  0  0  0  0  0  0  0  0
   -0.7563   -1.9881    0.7723 O   0  0  0  0  0  0  0  0  0  0  0  0
   -0.1172   -3.2332    1.0473 C   0  0  0  0  0  0  0  0  0  0  0  0
    1.2731   -3.3693    0.4134 C   0  0  0  0  0  0  0  0  0  0  0  0
    1.6437   -2.6243   -0.4868 O   0  0  0  0  0  0  0  0  0  0  0  0
    1.9923   -4.4286    0.9407 N   0  0  0  0  0  0  0  0  0  0  0  0
    3.3167   -4.8231    0.6244 C   0  0  0  0  0  0  0  0  0  0  0  0
    4.1657   -4.0500   -0.1771 C   0  0  0  0  0  0  0  0  0  0  0  0
    5.4666   -4.4813   -0.4565 C   0  0  0  0  0  0  0  0  0  0  0  0
    5.9342   -5.6903    0.0590 C   0  0  0  0  0  0  0  0  0  0  0  0
    5.1042   -6.4718    0.8624 C   0  0  0  0  0  0  0  0  0  0  0  0
    5.7436   -7.9661    1.4510 Cl  0  0  0  0  0  0  0  0  0  0  0  0
    3.7999   -6.0417    1.1529 C   0  0  0  0  0  0  0  0  0  0  0  0
    2.7430   -7.0085    2.1463 Cl  0  0  0  0  0  0  0  0  0  0  0  0
   -2.0213   -0.7005    3.6142 H   0  0  0  0  0  0  0  0  0  0  0  0
   -3.3080    0.4999    3.7776 H   0  0  0  0  0  0  0  0  0  0  0  0
   -1.6203    1.0173    3.8019 H   0  0  0  0  0  0  0  0  0  0  0  0
   -2.7252    1.5277    1.6306 H   0  0  0  0  0  0  0  0  0  0  0  0
   -3.2140   -1.4852    1.4636 H   0  0  0  0  0  0  0  0  0  0  0  0
   -3.4498   -0.3434    0.1214 H   0  0  0  0  0  0  0  0  0  0  0  0
   -4.4169   -0.1984    1.5947 H   0  0  0  0  0  0  0  0  0  0  0  0
   -1.1360    0.3943    0.0431 H   0  0  0  0  0  0  0  0  0  0  0  0
    0.3217    1.3971    2.4571 H   0  0  0  0  0  0  0  0  0  0  0  0
    0.1075    4.8443    1.1085 H   0  0  0  0  0  0  0  0  0  0  0  0
   -1.3898    6.4599   -0.0396 H   0  0  0  0  0  0  0  0  0  0  0  0
   -0.5203    2.0113   -2.0986 H   0  0  0  0  0  0  0  0  0  0  0  0
   -3.2284    4.2308   -5.0124 H   0  0  0  0  0  0  0  0  0  0  0  0
   -1.7792    5.1830   -4.6362 H   0  0  0  0  0  0  0  0  0  0  0  0
   -4.2644    4.9276   -2.8132 H   0  0  0  0  0  0  0  0  0  0  0  0
   -3.8977    6.3220   -3.8470 H   0  0  0  0  0  0  0  0  0  0  0  0
   -0.0686   -3.4103    2.1287 H   0  0  0  0  0  0  0  0  0  0  0  0
   -0.7478   -4.0190    0.6180 H   0  0  0  0  0  0  0  0  0  0  0  0
    1.5144   -5.0410    1.5956 H   0  0  0  0  0  0  0  0  0  0  0  0
    3.8514   -3.0959   -0.5898 H   0  0  0  0  0  0  0  0  0  0  0  0
    6.1118   -3.8670   -1.0783 H   0  0  0  0  0  0  0  0  0  0  0  0
    6.9472   -6.0158   -0.1706 H   0  0  0  0  0  0  0  0  0  0  0  0
  1  2  1  0
  2  3  1  0
  2  4  1  0
  4  5  1  0
  5  6  1  0
  6  7  2  0
  6  8  2  0
  6  9  1  0
  9 10  2  0
 10 11  1  0
 11 12  2  0
 12 13  1  0
 13 14  2  0
 13 15  1  0
 15 16  1  0
 16 17  1  0
 17 18  1  0
  4 19  1  0
 19 20  2  0
 19 21  1  0
 21 22  1  0
 22 23  1  0
 23 24  2  0
 23 25  1  0
 25 26  1  0
 26 27  2  0
 27 28  1  0
 28 29  2  0
 29 30  1  0
 30 31  1  0
 30 32  2  0
 32 33  1  0
 14  9  1  0
 32 26  1  0
 18 12  1  0
  1 34  1  0
  1 35  1  0
  1 36  1  0
  2 37  1  0
  3 38  1  0
  3 39  1  0
  3 40  1  0
  4 41  1  0
  5 42  1  0
 10 43  1  0
 11 44  1  0
 14 45  1  0
 16 46  1  0
 16 47  1  0
 17 48  1  0
 17 49  1  0
 22 50  1  0
 22 51  1  0
 25 52  1  0
 27 53  1  0
 28 54  1  0
 29 55  1  0
M  END
$$$$
