
     RDKit          3D

 43 45  0  0  0  0  0  0  0  0999 V2000
    2.6141   -0.4020    2.9477 C   0  0  0  0  0  0  0  0  0  0  0  0
    3.7388   -0.1515    1.9473 C   0  0  0  0  0  0  0  0  0  0  0  0
    4.0102    1.3353    1.7445 C   0  0  0  0  0  0  0  0  0  0  0  0
    3.5003   -1.0459    0.3572 S   0  0  0  0  0  0  0  0  0  0  0  0
    1.8251   -0.6224   -0.0852 C   0  0  0  0  0  0  0  0  0  0  0  0
    0.9497   -1.6352   -0.4125 C   0  0  0  0  0  0  0  0  0  0  0  0
   -0.3353   -1.2776   -0.7648 C   0  0  0  0  0  0  0  0  0  0  0  0
   -1.2779   -2.2371   -1.1159 N   0  0  0  0  0  0  0  0  0  0  0  0
   -2.5682   -1.7383   -1.6210 C   0  0  0  0  0  0  0  0  0  0  0  0
   -3.4429   -2.9285   -2.0444 C   0  0  0  0  0  0  0  0  0  0  0  0
   -3.7341   -3.8470   -0.9785 O   0  0  0  0  0  0  0  0  0  0  0  0
   -2.7835   -3.7933    0.0934 C   0  0  0  0  0  0  0  0  0  0  0  0
   -1.3442   -3.5053   -0.3680 C   0  0  0  0  0  0  0  0  0  0  0  0
   -0.6837    0.0183   -0.8203 N   0  0  0  0  0  0  0  0  0  0  0  0
    0.2377    0.9492   -0.5067 C   0  0  0  0  0  0  0  0  0  0  0  0
   -0.1682    2.3682   -0.5788 C   0  0  0  0  0  0  0  0  0  0  0  0
    0.7671    3.4111   -0.4313 C   0  0  0  0  0  0  0  0  0  0  0  0
    0.3836    4.7548   -0.4979 C   0  0  0  0  0  0  0  0  0  0  0  0
   -0.9493    5.0888   -0.7156 C   0  0  0  0  0  0  0  0  0  0  0  0
   -1.8971    4.0817   -0.8678 C   0  0  0  0  0  0  0  0  0  0  0  0
   -1.5092    2.7393   -0.8007 C   0  0  0  0  0  0  0  0  0  0  0  0
    1.4943    0.6730   -0.1289 N   0  0  0  0  0  0  0  0  0  0  0  0
    1.6728    0.0659    2.6428 H   0  0  0  0  0  0  0  0  0  0  0  0
    2.4391   -1.4737    3.0920 H   0  0  0  0  0  0  0  0  0  0  0  0
    2.8791    0.0188    3.9243 H   0  0  0  0  0  0  0  0  0  0  0  0
    4.6518   -0.5877    2.3703 H   0  0  0  0  0  0  0  0  0  0  0  0
    4.3329    1.7889    2.6887 H   0  0  0  0  0  0  0  0  0  0  0  0
    3.1226    1.8825    1.4185 H   0  0  0  0  0  0  0  0  0  0  0  0
    4.8098    1.5018    1.0148 H   0  0  0  0  0  0  0  0  0  0  0  0
    1.2710   -2.6678   -0.4122 H   0  0  0  0  0  0  0  0  0  0  0  0
   -3.0841   -1.1677   -0.8381 H   0  0  0  0  0  0  0  0  0  0  0  0
   -2.4145   -1.0873   -2.4898 H   0  0  0  0  0  0  0  0  0  0  0  0
   -2.9486   -3.4981   -2.8400 H   0  0  0  0  0  0  0  0  0  0  0  0
   -4.3990   -2.5730   -2.4415 H   0  0  0  0  0  0  0  0  0  0  0  0
   -3.1186   -3.0262    0.8017 H   0  0  0  0  0  0  0  0  0  0  0  0
   -2.8234   -4.7549    0.6152 H   0  0  0  0  0  0  0  0  0  0  0  0
   -1.0077   -4.3066   -1.0359 H   0  0  0  0  0  0  0  0  0  0  0  0
   -0.6982   -3.5054    0.5171 H   0  0  0  0  0  0  0  0  0  0  0  0
    1.8182    3.1792   -0.2671 H   0  0  0  0  0  0  0  0  0  0  0  0
    1.1297    5.5365   -0.3817 H   0  0  0  0  0  0  0  0  0  0  0  0
   -1.2485    6.1321   -0.7685 H   0  0  0  0  0  0  0  0  0  0  0  0
   -2.9397    4.3359   -1.0397 H   0  0  0  0  0  0  0  0  0  0  0  0
   -2.2716    1.9714   -0.9230 H   0  0  0  0  0  0  0  0  0  0  0  0
  1  2  1  0
  2  3  1  0
  2  4  1  0
  4  5  1  0
  5  6  2  0
  6  7  1  0
  7  8  1  0
  8  9  1  0
  9 10  1  0
 10 11  1  0
 11 12  1  0
 12 13  1  0
  7 14  2  0
 14 15  1  0
 15 16  1  0
 16 17  2  0
 17 18  1  0
 18 19  2  0
 19 20  1  0
 20 21  2  0
 15 22  2  0
 22  5  1  0
 13  8  1  0
 21 16  1  0
  1 23  1  0
  1 24  1  0
  1 25  1  0
  2 26  1  0
  3 27  1  0
  3 28  1  0
  3 29  1  0
  6 30  1  0
  9 31  1  0
  9 32  1  0
 10 33  1  0
 10 34  1  0
 12 35  1  0
 12 36  1  0
 13 37  1  0
 13 38  1  0
 17 39  1  0
 18 40  1  0
 19 41  1  0
 20 42  1  0
 21 43  1  0
M  END
$$$$
