
     RDKit          3D

 34 36  0  0  0  0  0  0  0  0999 V2000
   -0.3745   -1.6718   -1.4184 O   0  0  0  0  0  0  0  0  0  0  0  0
    0.1800   -1.3992   -0.3597 C   0  0  0  0  0  0  0  0  0  0  0  0
    1.5784   -0.8995   -0.2318 C   0  0  0  0  0  0  0  0  0  0  0  0
    2.3029   -0.6470   -1.3325 C   0  0  0  0  0  0  0  0  0  0  0  0
    3.6864   -0.1657   -1.4630 C   0  0  0  0  0  0  0  0  0  0  0  0
    4.1859    0.1667   -2.7211 C   0  0  0  0  0  0  0  0  0  0  0  0
    5.5021    0.6113   -2.8330 C   0  0  0  0  0  0  0  0  0  0  0  0
    6.2850    0.7101   -1.6912 C   0  0  0  0  0  0  0  0  0  0  0  0
    5.7145    0.3568   -0.4820 C   0  0  0  0  0  0  0  0  0  0  0  0
    4.4418   -0.0776   -0.3496 N   0  0  0  0  0  0  0  0  0  0  0  0
    1.9963   -0.7368    1.4343 S   0  0  0  0  0  0  0  0  0  0  0  0
    0.4231   -1.2888    2.0061 C   0  0  0  0  0  0  0  0  0  0  0  0
    0.0484   -1.4720    3.6221 S   0  0  0  0  0  0  0  0  0  0  0  0
   -0.3643   -1.5440    0.9033 N   0  0  0  0  0  0  0  0  0  0  0  0
   -1.7085   -1.9791    1.0135 N   0  0  0  0  0  0  0  0  0  0  0  0
   -2.6307   -0.8899    0.9702 C   0  0  0  0  0  0  0  0  0  0  0  0
   -2.1704    0.3817    1.1028 N   0  0  0  0  0  0  0  0  0  0  0  0
   -3.0700    1.3940    1.1124 C   0  0  0  0  0  0  0  0  0  0  0  0
   -4.4387    1.2169    0.9874 C   0  0  0  0  0  0  0  0  0  0  0  0
   -5.3583    2.3974    1.0308 C   0  0  0  0  0  0  0  0  0  0  0  0
   -5.6900    2.7481    2.3019 F   0  0  0  0  0  0  0  0  0  0  0  0
   -6.5347    2.1787    0.3817 F   0  0  0  0  0  0  0  0  0  0  0  0
   -4.8205    3.5103    0.4609 F   0  0  0  0  0  0  0  0  0  0  0  0
   -4.9091   -0.0929    0.8610 C   0  0  0  0  0  0  0  0  0  0  0  0
   -4.0037   -1.1542    0.8534 C   0  0  0  0  0  0  0  0  0  0  0  0
   -4.6117   -2.7604    0.6800 Cl  0  0  0  0  0  0  0  0  0  0  0  0
    1.8173   -0.8146   -2.2934 H   0  0  0  0  0  0  0  0  0  0  0  0
    3.5697    0.0880   -3.6111 H   0  0  0  0  0  0  0  0  0  0  0  0
    5.9105    0.8775   -3.8038 H   0  0  0  0  0  0  0  0  0  0  0  0
    7.3123    1.0524   -1.7409 H   0  0  0  0  0  0  0  0  0  0  0  0
    6.2805    0.4136    0.4436 H   0  0  0  0  0  0  0  0  0  0  0  0
   -1.9399   -2.6100    0.2413 H   0  0  0  0  0  0  0  0  0  0  0  0
   -2.6337    2.3850    1.2295 H   0  0  0  0  0  0  0  0  0  0  0  0
   -5.9767   -0.2851    0.7711 H   0  0  0  0  0  0  0  0  0  0  0  0
  1  2  2  0
  2  3  1  0
  3  4  2  3
  4  5  1  0
  5  6  2  0
  6  7  1  0
  7  8  2  0
  8  9  1  0
  9 10  2  0
  3 11  1  0
 11 12  1  0
 12 13  2  0
 12 14  1  0
 14 15  1  0
 15 16  1  0
 16 17  2  0
 17 18  1  0
 18 19  2  0
 19 20  1  0
 20 21  1  0
 20 22  1  0
 20 23  1  0
 19 24  1  0
 24 25  2  0
 25 26  1  0
 14  2  1  0
 25 16  1  0
 10  5  1  0
  4 27  1  0
  6 28  1  0
  7 29  1  0
  8 30  1  0
  9 31  1  0
 15 32  1  0
 18 33  1  0
 24 34  1  0
M  END
$$$$
