
     RDKit          3D

 36 38  0  0  0  0  0  0  0  0999 V2000
    6.2332    0.2479    1.0936 C   0  0  0  0  0  0  0  0  0  0  0  0
    5.0246    0.3009    1.9438 C   0  0  0  0  0  0  0  0  0  0  0  0
    4.7873    0.6803    3.2462 C   0  0  0  0  0  0  0  0  0  0  0  0
    3.4069    0.4640    3.4676 C   0  0  0  0  0  0  0  0  0  0  0  0
    2.8566   -0.0378    2.2898 C   0  0  0  0  0  0  0  0  0  0  0  0
    1.5053   -0.4010    2.0363 C   0  0  0  0  0  0  0  0  0  0  0  0
    1.0634   -0.9024    0.8644 C   0  0  0  0  0  0  0  0  0  0  0  0
    1.8422   -1.1708   -0.2996 C   0  0  0  0  0  0  0  0  0  0  0  0
    2.4189   -1.3844   -1.2893 N   0  0  0  0  0  0  0  0  0  0  0  0
   -0.3970   -1.1875    0.8072 C   0  0  0  0  0  0  0  0  0  0  0  0
   -0.9152   -1.8836    1.6789 O   0  0  0  0  0  0  0  0  0  0  0  0
   -1.0352   -0.5361   -0.2397 N   0  0  0  0  0  0  0  0  0  0  0  0
   -2.4067   -0.6249   -0.6024 C   0  0  0  0  0  0  0  0  0  0  0  0
   -3.2366   -1.6062   -0.0524 C   0  0  0  0  0  0  0  0  0  0  0  0
   -4.5667   -1.6969   -0.4332 C   0  0  0  0  0  0  0  0  0  0  0  0
   -5.0810   -0.8037   -1.3661 C   0  0  0  0  0  0  0  0  0  0  0  0
   -4.3013    0.1847   -1.9399 C   0  0  0  0  0  0  0  0  0  0  0  0
   -4.8938    1.0029   -2.8284 N   0  0  0  0  0  0  0  0  0  0  0  0
   -4.1624    1.9804   -3.3951 C   0  0  0  0  0  0  0  0  0  0  0  0
   -2.8359    2.1892   -3.1109 C   0  0  0  0  0  0  0  0  0  0  0  0
   -2.2245    1.3395   -2.1914 C   0  0  0  0  0  0  0  0  0  0  0  0
   -2.9423    0.2905   -1.5673 C   0  0  0  0  0  0  0  0  0  0  0  0
    3.8713   -0.1198    1.3640 O   0  0  0  0  0  0  0  0  0  0  0  0
    7.1307    0.4451    1.6848 H   0  0  0  0  0  0  0  0  0  0  0  0
    6.1763    0.9895    0.2871 H   0  0  0  0  0  0  0  0  0  0  0  0
    6.3407   -0.7464    0.6449 H   0  0  0  0  0  0  0  0  0  0  0  0
    5.5173    1.0523    3.9546 H   0  0  0  0  0  0  0  0  0  0  0  0
    2.8665    0.6470    4.3882 H   0  0  0  0  0  0  0  0  0  0  0  0
    0.7991   -0.2532    2.8569 H   0  0  0  0  0  0  0  0  0  0  0  0
   -0.4744    0.0959   -0.7950 H   0  0  0  0  0  0  0  0  0  0  0  0
   -2.8724   -2.3361    0.6631 H   0  0  0  0  0  0  0  0  0  0  0  0
   -5.2018   -2.4664   -0.0024 H   0  0  0  0  0  0  0  0  0  0  0  0
   -6.1236   -0.8797   -1.6595 H   0  0  0  0  0  0  0  0  0  0  0  0
   -4.6954    2.6092   -4.1052 H   0  0  0  0  0  0  0  0  0  0  0  0
   -2.2904    2.9931   -3.5883 H   0  0  0  0  0  0  0  0  0  0  0  0
   -1.1838    1.5244   -1.9675 H   0  0  0  0  0  0  0  0  0  0  0  0
  1  2  1  0
  2  3  2  0
  3  4  1  0
  4  5  2  0
  5  6  1  0
  6  7  2  3
  7  8  1  0
  8  9  3  0
  7 10  1  0
 10 11  2  0
 10 12  1  0
 12 13  1  0
 13 14  2  0
 14 15  1  0
 15 16  2  0
 16 17  1  0
 17 18  2  0
 18 19  1  0
 19 20  2  0
 20 21  1  0
 21 22  2  0
  5 23  1  0
 23  2  1  0
 22 13  1  0
 22 17  1  0
  1 24  1  0
  1 25  1  0
  1 26  1  0
  3 27  1  0
  4 28  1  0
  6 29  1  0
 12 30  1  0
 14 31  1  0
 15 32  1  0
 16 33  1  0
 19 34  1  0
 20 35  1  0
 21 36  1  0
M  END
$$$$
