
     RDKit          3D

 50 52  0  0  0  0  0  0  0  0999 V2000
    7.8171   -0.1217   -0.7640 C   0  0  0  0  0  0  0  0  0  0  0  0
    6.3223   -0.2527   -0.6892 C   0  0  0  0  0  0  0  0  0  0  0  0
    5.7206   -1.5139   -0.8074 C   0  0  0  0  0  0  0  0  0  0  0  0
    4.3337   -1.6662   -0.7105 C   0  0  0  0  0  0  0  0  0  0  0  0
    3.6081   -3.2132   -0.8669 Cl  0  0  0  0  0  0  0  0  0  0  0  0
    3.5784   -0.5170   -0.4810 C   0  0  0  0  0  0  0  0  0  0  0  0
    2.2242   -0.4545   -0.3558 O   0  0  0  0  0  0  0  0  0  0  0  0
    1.8886    0.8547   -0.1327 C   0  0  0  0  0  0  0  0  0  0  0  0
    0.4863    1.1897    0.0340 C   0  0  0  0  0  0  0  0  0  0  0  0
    0.0710    2.3341    0.1925 O   0  0  0  0  0  0  0  0  0  0  0  0
   -0.3536    0.0953   -0.0152 N   0  0  0  0  0  0  0  0  0  0  0  0
   -1.7967    0.2399   -0.0622 C   0  0  0  0  0  0  0  0  0  0  0  0
   -2.5936   -1.0377    0.3587 C   0  0  0  0  0  0  0  0  0  0  0  0
   -2.1471   -1.4714    1.7783 C   0  0  0  0  0  0  0  0  0  0  0  0
   -2.2482   -2.2185   -0.5844 C   0  0  0  0  0  0  0  0  0  0  0  0
   -4.0714   -0.8413    0.3223 N   0  0  0  0  0  0  0  0  0  0  0  0
   -4.6408   -0.0536    1.4358 C   0  0  0  0  0  0  0  0  0  0  0  0
   -6.1030    0.3393    1.1663 C   0  0  0  0  0  0  0  0  0  0  0  0
   -6.2523    1.1972    0.0290 O   0  0  0  0  0  0  0  0  0  0  0  0
   -5.2236    1.0145   -0.9495 C   0  0  0  0  0  0  0  0  0  0  0  0
   -4.6476   -0.4123   -0.9709 C   0  0  0  0  0  0  0  0  0  0  0  0
    3.0332    1.6413   -0.1172 C   0  0  0  0  0  0  0  0  0  0  0  0
    3.0881    3.1109    0.0935 C   0  0  0  0  0  0  0  0  0  0  0  0
    4.1294    0.7515   -0.3433 C   0  0  0  0  0  0  0  0  0  0  0  0
    5.5294    0.8852   -0.4435 C   0  0  0  0  0  0  0  0  0  0  0  0
    8.2422   -0.8775   -1.4328 H   0  0  0  0  0  0  0  0  0  0  0  0
    8.2529   -0.2441    0.2323 H   0  0  0  0  0  0  0  0  0  0  0  0
    8.1039    0.8586   -1.1587 H   0  0  0  0  0  0  0  0  0  0  0  0
    6.3392   -2.3932   -0.9787 H   0  0  0  0  0  0  0  0  0  0  0  0
    0.0789   -0.7709   -0.3185 H   0  0  0  0  0  0  0  0  0  0  0  0
   -2.0358    0.5302   -1.0914 H   0  0  0  0  0  0  0  0  0  0  0  0
   -2.0706    1.0861    0.5779 H   0  0  0  0  0  0  0  0  0  0  0  0
   -2.7415   -2.3194    2.1393 H   0  0  0  0  0  0  0  0  0  0  0  0
   -1.0983   -1.7907    1.7904 H   0  0  0  0  0  0  0  0  0  0  0  0
   -2.2395   -0.6554    2.5035 H   0  0  0  0  0  0  0  0  0  0  0  0
   -1.2109   -2.5481   -0.4567 H   0  0  0  0  0  0  0  0  0  0  0  0
   -2.8830   -3.0882   -0.3749 H   0  0  0  0  0  0  0  0  0  0  0  0
   -2.3711   -1.9602   -1.6409 H   0  0  0  0  0  0  0  0  0  0  0  0
   -4.6125   -0.6419    2.3590 H   0  0  0  0  0  0  0  0  0  0  0  0
   -4.0637    0.8646    1.5938 H   0  0  0  0  0  0  0  0  0  0  0  0
   -6.7222   -0.5515    1.0070 H   0  0  0  0  0  0  0  0  0  0  0  0
   -6.5149    0.8688    2.0316 H   0  0  0  0  0  0  0  0  0  0  0  0
   -5.6556    1.2574   -1.9258 H   0  0  0  0  0  0  0  0  0  0  0  0
   -4.4333    1.7486   -0.7546 H   0  0  0  0  0  0  0  0  0  0  0  0
   -5.4667   -1.1077   -1.1941 H   0  0  0  0  0  0  0  0  0  0  0  0
   -3.9434   -0.4976   -1.8031 H   0  0  0  0  0  0  0  0  0  0  0  0
    4.1172    3.4822    0.0782 H   0  0  0  0  0  0  0  0  0  0  0  0
    2.5326    3.6314   -0.6934 H   0  0  0  0  0  0  0  0  0  0  0  0
    2.6516    3.3760    1.0619 H   0  0  0  0  0  0  0  0  0  0  0  0
    5.9916    1.8630   -0.3326 H   0  0  0  0  0  0  0  0  0  0  0  0
  1  2  1  0
  2  3  2  0
  3  4  1  0
  4  5  1  0
  4  6  2  0
  6  7  1  0
  7  8  1  0
  8  9  1  0
  9 10  2  0
  9 11  1  0
 11 12  1  0
 12 13  1  0
 13 14  1  0
 13 15  1  0
 13 16  1  0
 16 17  1  0
 17 18  1  0
 18 19  1  0
 19 20  1  0
 20 21  1  0
  8 22  2  0
 22 23  1  0
 22 24  1  0
 24 25  2  0
 25  2  1  0
 24  6  1  0
 21 16  1  0
  1 26  1  0
  1 27  1  0
  1 28  1  0
  3 29  1  0
 11 30  1  0
 12 31  1  0
 12 32  1  0
 14 33  1  0
 14 34  1  0
 14 35  1  0
 15 36  1  0
 15 37  1  0
 15 38  1  0
 17 39  1  0
 17 40  1  0
 18 41  1  0
 18 42  1  0
 20 43  1  0
 20 44  1  0
 21 45  1  0
 21 46  1  0
 23 47  1  0
 23 48  1  0
 23 49  1  0
 25 50  1  0
M  END
$$$$
