
     RDKit          3D

 47 49  0  0  0  0  0  0  0  0999 V2000
   -2.7398    5.6331   -1.0718 C   0  0  0  0  0  0  0  0  0  0  0  0
   -2.3193    4.4056   -1.6703 O   0  0  0  0  0  0  0  0  0  0  0  0
   -1.8819    3.4691   -0.7797 C   0  0  0  0  0  0  0  0  0  0  0  0
   -1.7816    3.6470    0.4271 O   0  0  0  0  0  0  0  0  0  0  0  0
   -1.4616    2.2100   -1.5271 C   0  0  0  0  0  0  0  0  0  0  0  0
   -1.4450    1.0279   -0.6631 N   0  0  0  0  0  0  0  0  0  0  0  0
   -0.4274    0.6887    0.2265 C   0  0  0  0  0  0  0  0  0  0  0  0
    0.8235    1.4978    0.3735 C   0  0  0  0  0  0  0  0  0  0  0  0
    2.0445    0.6075    0.5660 C   0  0  0  0  0  0  0  0  0  0  0  0
    2.2410    0.0671    1.6540 O   0  0  0  0  0  0  0  0  0  0  0  0
    2.7996    0.4466   -0.5812 N   0  0  0  0  0  0  0  0  0  0  0  0
    4.0071   -0.2701   -0.7130 C   0  0  0  0  0  0  0  0  0  0  0  0
    4.5107   -0.4449   -2.0089 C   0  0  0  0  0  0  0  0  0  0  0  0
    5.7086   -1.1348   -2.2224 C   0  0  0  0  0  0  0  0  0  0  0  0
    6.4121   -1.6482   -1.1377 C   0  0  0  0  0  0  0  0  0  0  0  0
    7.8865   -2.4946   -1.3983 Cl  0  0  0  0  0  0  0  0  0  0  0  0
    5.9266   -1.4768    0.1540 C   0  0  0  0  0  0  0  0  0  0  0  0
    4.7266   -0.7875    0.3665 C   0  0  0  0  0  0  0  0  0  0  0  0
   -0.8147   -0.4113    0.9027 C   0  0  0  0  0  0  0  0  0  0  0  0
   -0.1678   -1.0564    1.9158 O   0  0  0  0  0  0  0  0  0  0  0  0
   -2.0877   -0.8140    0.5128 N   0  0  0  0  0  0  0  0  0  0  0  0
   -2.8073   -1.9384    1.0211 C   0  0  0  0  0  0  0  0  0  0  0  0
   -4.1951   -1.9053    1.2175 C   0  0  0  0  0  0  0  0  0  0  0  0
   -4.8858   -3.0179    1.7130 C   0  0  0  0  0  0  0  0  0  0  0  0
   -4.1916   -4.1800    2.0286 C   0  0  0  0  0  0  0  0  0  0  0  0
   -5.0385   -5.5481    2.6321 Cl  0  0  0  0  0  0  0  0  0  0  0  0
   -2.8130   -4.2347    1.8622 C   0  0  0  0  0  0  0  0  0  0  0  0
   -2.1288   -3.1194    1.3665 C   0  0  0  0  0  0  0  0  0  0  0  0
   -2.5330    0.1029   -0.5089 C   0  0  0  0  0  0  0  0  0  0  0  0
   -3.9325    0.1073   -1.4215 S   0  0  0  0  0  0  0  0  0  0  0  0
   -3.6662    5.4789   -0.5107 H   0  0  0  0  0  0  0  0  0  0  0  0
   -2.9347    6.3501   -1.8744 H   0  0  0  0  0  0  0  0  0  0  0  0
   -1.9564    6.0458   -0.4280 H   0  0  0  0  0  0  0  0  0  0  0  0
   -0.4728    2.3627   -1.9686 H   0  0  0  0  0  0  0  0  0  0  0  0
   -2.1608    2.0493   -2.3518 H   0  0  0  0  0  0  0  0  0  0  0  0
    0.7404    2.1586    1.2441 H   0  0  0  0  0  0  0  0  0  0  0  0
    1.0050    2.1492   -0.4845 H   0  0  0  0  0  0  0  0  0  0  0  0
    2.4101    0.8073   -1.4435 H   0  0  0  0  0  0  0  0  0  0  0  0
    3.9782   -0.0581   -2.8738 H   0  0  0  0  0  0  0  0  0  0  0  0
    6.0840   -1.2675   -3.2344 H   0  0  0  0  0  0  0  0  0  0  0  0
    6.4733   -1.8760    1.0054 H   0  0  0  0  0  0  0  0  0  0  0  0
    4.3905   -0.6639    1.3913 H   0  0  0  0  0  0  0  0  0  0  0  0
    0.7182   -0.6649    2.0617 H   0  0  0  0  0  0  0  0  0  0  0  0
   -4.7668   -1.0003    1.0393 H   0  0  0  0  0  0  0  0  0  0  0  0
   -5.9615   -2.9609    1.8563 H   0  0  0  0  0  0  0  0  0  0  0  0
   -2.2607   -5.1366    2.1098 H   0  0  0  0  0  0  0  0  0  0  0  0
   -1.0543   -3.2020    1.2256 H   0  0  0  0  0  0  0  0  0  0  0  0
  1  2  1  0
  2  3  1  0
  3  4  2  0
  3  5  1  0
  5  6  1  0
  6  7  1  0
  7  8  1  0
  8  9  1  0
  9 10  2  0
  9 11  1  0
 11 12  1  0
 12 13  2  0
 13 14  1  0
 14 15  2  0
 15 16  1  0
 15 17  1  0
 17 18  2  0
  7 19  2  0
 19 20  1  0
 19 21  1  0
 21 22  1  0
 22 23  2  0
 23 24  1  0
 24 25  2  0
 25 26  1  0
 25 27  1  0
 27 28  2  0
 21 29  1  0
 29 30  2  0
 29  6  1  0
 18 12  1  0
 28 22  1  0
  1 31  1  0
  1 32  1  0
  1 33  1  0
  5 34  1  0
  5 35  1  0
  8 36  1  0
  8 37  1  0
 11 38  1  0
 13 39  1  0
 14 40  1  0
 17 41  1  0
 18 42  1  0
 20 43  1  0
 23 44  1  0
 24 45  1  0
 27 46  1  0
 28 47  1  0
M  END
$$$$
