
     RDKit          3D

 40 43  0  0  0  0  0  0  0  0999 V2000
   -3.7945    2.1476    2.8326 C   0  0  0  0  0  0  0  0  0  0  0  0
   -4.1655    1.0694    1.8830 C   0  0  0  0  0  0  0  0  0  0  0  0
   -5.5104    0.7386    1.7515 N   0  0  0  0  0  0  0  0  0  0  0  0
   -5.6986   -0.2198    0.8606 N   0  0  0  0  0  0  0  0  0  0  0  0
   -4.2754   -0.7333    0.1513 S   0  0  0  0  0  0  0  0  0  0  0  0
   -3.3087    0.3170    1.0937 C   0  0  0  0  0  0  0  0  0  0  0  0
   -1.8950    0.3965    0.9852 C   0  0  0  0  0  0  0  0  0  0  0  0
   -1.2583    1.3951    0.4020 N   0  0  0  0  0  0  0  0  0  0  0  0
    0.0922    1.2162    0.6026 N   0  0  0  0  0  0  0  0  0  0  0  0
    0.2464    0.1277    1.3217 C   0  0  0  0  0  0  0  0  0  0  0  0
    1.7558   -0.4733    1.9116 S   0  0  0  0  0  0  0  0  0  0  0  0
    2.8286   -0.0134    0.5161 C   0  0  0  0  0  0  0  0  0  0  0  0
    2.3804   -0.6774   -0.7770 C   0  0  0  0  0  0  0  0  0  0  0  0
    1.7957   -1.7594   -0.8151 O   0  0  0  0  0  0  0  0  0  0  0  0
    2.6871    0.0084   -2.0654 C   0  0  0  0  0  0  0  0  0  0  0  0
    1.9232   -0.3184   -3.1937 C   0  0  0  0  0  0  0  0  0  0  0  0
    2.1736    0.2968   -4.4237 C   0  0  0  0  0  0  0  0  0  0  0  0
    3.1957    1.2425   -4.5372 C   0  0  0  0  0  0  0  0  0  0  0  0
    3.4551    1.8759   -5.7973 C   0  0  0  0  0  0  0  0  0  0  0  0
    3.6686    2.3935   -6.8130 N   0  0  0  0  0  0  0  0  0  0  0  0
    3.9672    1.5648   -3.4152 C   0  0  0  0  0  0  0  0  0  0  0  0
    3.7178    0.9491   -2.1829 C   0  0  0  0  0  0  0  0  0  0  0  0
   -0.9724   -0.4513    1.5467 N   0  0  0  0  0  0  0  0  0  0  0  0
   -1.2680   -1.6283    2.4003 C   0  0  0  0  0  0  0  0  0  0  0  0
   -0.5518   -2.9526    2.2568 C   0  0  0  0  0  0  0  0  0  0  0  0
   -1.9944   -2.8497    1.8830 C   0  0  0  0  0  0  0  0  0  0  0  0
   -3.1435    1.7537    3.6197 H   0  0  0  0  0  0  0  0  0  0  0  0
   -3.2678    2.9554    2.3161 H   0  0  0  0  0  0  0  0  0  0  0  0
   -4.6802    2.5754    3.3112 H   0  0  0  0  0  0  0  0  0  0  0  0
    3.8485   -0.3424    0.7356 H   0  0  0  0  0  0  0  0  0  0  0  0
    2.8185    1.0763    0.4242 H   0  0  0  0  0  0  0  0  0  0  0  0
    1.1219   -1.0510   -3.1188 H   0  0  0  0  0  0  0  0  0  0  0  0
    1.5630    0.0349   -5.2863 H   0  0  0  0  0  0  0  0  0  0  0  0
    4.7713    2.2949   -3.4938 H   0  0  0  0  0  0  0  0  0  0  0  0
    4.3497    1.2142   -1.3389 H   0  0  0  0  0  0  0  0  0  0  0  0
   -1.4907   -1.3231    3.4198 H   0  0  0  0  0  0  0  0  0  0  0  0
   -0.2949   -3.4918    3.1616 H   0  0  0  0  0  0  0  0  0  0  0  0
    0.1554   -3.0977    1.4472 H   0  0  0  0  0  0  0  0  0  0  0  0
   -2.7247   -3.3192    2.5331 H   0  0  0  0  0  0  0  0  0  0  0  0
   -2.2211   -2.9416    0.8275 H   0  0  0  0  0  0  0  0  0  0  0  0
  1  2  1  0
  2  3  1  0
  3  4  2  0
  4  5  1  0
  5  6  1  0
  6  7  1  0
  7  8  2  0
  8  9  1  0
  9 10  2  0
 10 11  1  0
 11 12  1  0
 12 13  1  0
 13 14  2  0
 13 15  1  0
 15 16  2  0
 16 17  1  0
 17 18  2  0
 18 19  1  0
 19 20  3  0
 18 21  1  0
 21 22  2  0
 10 23  1  0
 23 24  1  0
 24 25  1  0
 25 26  1  0
  6  2  2  0
 23  7  1  0
 26 24  1  0
 22 15  1  0
  1 27  1  0
  1 28  1  0
  1 29  1  0
 12 30  1  0
 12 31  1  0
 16 32  1  0
 17 33  1  0
 21 34  1  0
 22 35  1  0
 24 36  1  0
 25 37  1  0
 25 38  1  0
 26 39  1  0
 26 40  1  0
M  END
$$$$
