
     RDKit          3D

 39 41  0  0  0  0  0  0  0  0999 V2000
   -5.9491   -0.5756   -1.6174 C   0  0  0  0  0  0  0  0  0  0  0  0
   -5.9312    0.1129   -0.2638 C   0  0  0  0  0  0  0  0  0  0  0  0
   -5.2376    1.3580   -0.3392 O   0  0  0  0  0  0  0  0  0  0  0  0
   -3.9027    1.3870   -0.0398 C   0  0  0  0  0  0  0  0  0  0  0  0
   -3.3796    2.6715    0.1135 C   0  0  0  0  0  0  0  0  0  0  0  0
   -2.0281    2.8735    0.4171 C   0  0  0  0  0  0  0  0  0  0  0  0
   -1.1765    1.7632    0.5612 C   0  0  0  0  0  0  0  0  0  0  0  0
    0.1739    1.8067    0.8582 N   0  0  0  0  0  0  0  0  0  0  0  0
    0.6484    0.5921    0.9036 C   0  0  0  0  0  0  0  0  0  0  0  0
    1.9214    0.1637    1.1555 N   0  0  0  0  0  0  0  0  0  0  0  0
    2.9753    1.0307    1.3283 C   0  0  0  0  0  0  0  0  0  0  0  0
    2.9429    2.2564    1.2988 O   0  0  0  0  0  0  0  0  0  0  0  0
    4.2939    0.3183    1.5500 C   0  0  0  0  0  0  0  0  0  0  0  0
    4.9391   -0.0619    0.2247 C   0  0  0  0  0  0  0  0  0  0  0  0
    4.2644   -1.1731   -0.4280 N   0  0  0  0  0  0  0  0  0  0  0  0
    4.3309   -2.4821   -0.0263 C   0  0  0  0  0  0  0  0  0  0  0  0
    3.5180   -3.2214   -0.8577 C   0  0  0  0  0  0  0  0  0  0  0  0
    2.9486   -2.3274   -1.7954 C   0  0  0  0  0  0  0  0  0  0  0  0
    3.4325   -1.0694   -1.5112 C   0  0  0  0  0  0  0  0  0  0  0  0
   -0.4533   -0.6757    0.6113 S   0  0  0  0  0  0  0  0  0  0  0  0
   -1.7114    0.4844    0.3924 C   0  0  0  0  0  0  0  0  0  0  0  0
   -3.0706    0.2715    0.0908 C   0  0  0  0  0  0  0  0  0  0  0  0
   -6.5392   -1.4962   -1.5728 H   0  0  0  0  0  0  0  0  0  0  0  0
   -6.3830    0.0833   -2.3776 H   0  0  0  0  0  0  0  0  0  0  0  0
   -4.9384   -0.8261   -1.9549 H   0  0  0  0  0  0  0  0  0  0  0  0
   -6.9638    0.3502    0.0170 H   0  0  0  0  0  0  0  0  0  0  0  0
   -5.5467   -0.5366    0.5313 H   0  0  0  0  0  0  0  0  0  0  0  0
   -4.0318    3.5352   -0.0006 H   0  0  0  0  0  0  0  0  0  0  0  0
   -1.6301    3.8756    0.5414 H   0  0  0  0  0  0  0  0  0  0  0  0
    2.0719   -0.8346    1.1012 H   0  0  0  0  0  0  0  0  0  0  0  0
    4.1382   -0.5533    2.1966 H   0  0  0  0  0  0  0  0  0  0  0  0
    4.9518    1.0034    2.0977 H   0  0  0  0  0  0  0  0  0  0  0  0
    5.9765   -0.3777    0.3844 H   0  0  0  0  0  0  0  0  0  0  0  0
    4.9488    0.7828   -0.4740 H   0  0  0  0  0  0  0  0  0  0  0  0
    4.9516   -2.7857    0.8070 H   0  0  0  0  0  0  0  0  0  0  0  0
    3.3615   -4.2915   -0.8031 H   0  0  0  0  0  0  0  0  0  0  0  0
    2.2673   -2.5745   -2.6001 H   0  0  0  0  0  0  0  0  0  0  0  0
    3.2454   -0.1166   -1.9917 H   0  0  0  0  0  0  0  0  0  0  0  0
   -3.4291   -0.7412   -0.0438 H   0  0  0  0  0  0  0  0  0  0  0  0
  1  2  1  0
  2  3  1  0
  3  4  1  0
  4  5  2  0
  5  6  1  0
  6  7  2  0
  7  8  1  0
  8  9  2  0
  9 10  1  0
 10 11  1  0
 11 12  2  0
 11 13  1  0
 13 14  1  0
 14 15  1  0
 15 16  1  0
 16 17  2  0
 17 18  1  0
 18 19  2  0
  9 20  1  0
 20 21  1  0
 21 22  2  0
 22  4  1  0
 21  7  1  0
 19 15  1  0
  1 23  1  0
  1 24  1  0
  1 25  1  0
  2 26  1  0
  2 27  1  0
  5 28  1  0
  6 29  1  0
 10 30  1  0
 13 31  1  0
 13 32  1  0
 14 33  1  0
 14 34  1  0
 16 35  1  0
 17 36  1  0
 18 37  1  0
 19 38  1  0
 22 39  1  0
M  END
$$$$
