
     RDKit          3D

 40 41  0  0  0  0  0  0  0  0999 V2000
    5.6576   -2.4859   -1.1271 C   0  0  0  0  0  0  0  0  0  0  0  0
    5.1211   -2.2319    0.1650 O   0  0  0  0  0  0  0  0  0  0  0  0
    4.4770   -1.0387    0.3431 C   0  0  0  0  0  0  0  0  0  0  0  0
    4.0030   -0.8186    1.6381 C   0  0  0  0  0  0  0  0  0  0  0  0
    3.3227    0.3579    1.9602 C   0  0  0  0  0  0  0  0  0  0  0  0
    3.1067    1.3363    0.9833 C   0  0  0  0  0  0  0  0  0  0  0  0
    2.3385    2.5968    1.3099 C   0  0  0  0  0  0  0  0  0  0  0  0
    0.9158    2.6091    0.7955 C   0  0  0  0  0  0  0  0  0  0  0  0
    0.3731    3.6233    0.3675 O   0  0  0  0  0  0  0  0  0  0  0  0
    0.3530    1.3651    0.9329 O   0  0  0  0  0  0  0  0  0  0  0  0
   -0.9848    1.3752    0.5010 N   0  0  0  0  0  0  0  0  0  0  0  0
   -1.4716    0.1690    0.4674 C   0  0  0  0  0  0  0  0  0  0  0  0
   -0.7322   -0.9489    0.7919 N   0  0  0  0  0  0  0  0  0  0  0  0
   -2.8965   -0.0032    0.0336 C   0  0  0  0  0  0  0  0  0  0  0  0
   -3.5974   -1.1775    0.3318 C   0  0  0  0  0  0  0  0  0  0  0  0
   -4.9235   -1.3295   -0.0844 C   0  0  0  0  0  0  0  0  0  0  0  0
   -5.5621   -0.3152   -0.8080 C   0  0  0  0  0  0  0  0  0  0  0  0
   -6.9970   -0.4660   -1.2198 C   0  0  0  0  0  0  0  0  0  0  0  0
   -4.8655    0.8672   -1.0838 C   0  0  0  0  0  0  0  0  0  0  0  0
   -3.5402    1.0218   -0.6684 C   0  0  0  0  0  0  0  0  0  0  0  0
    3.5799    1.1123   -0.3162 C   0  0  0  0  0  0  0  0  0  0  0  0
    4.2631   -0.0671   -0.6338 C   0  0  0  0  0  0  0  0  0  0  0  0
    6.1438   -3.4656   -1.0999 H   0  0  0  0  0  0  0  0  0  0  0  0
    4.8653   -2.5294   -1.8816 H   0  0  0  0  0  0  0  0  0  0  0  0
    6.4170   -1.7428   -1.3921 H   0  0  0  0  0  0  0  0  0  0  0  0
    4.1678   -1.5717    2.4052 H   0  0  0  0  0  0  0  0  0  0  0  0
    2.9631    0.4983    2.9774 H   0  0  0  0  0  0  0  0  0  0  0  0
    2.3071    2.7618    2.3931 H   0  0  0  0  0  0  0  0  0  0  0  0
    2.8710    3.4500    0.8723 H   0  0  0  0  0  0  0  0  0  0  0  0
   -0.9183   -1.7663    0.2217 H   0  0  0  0  0  0  0  0  0  0  0  0
    0.2624   -0.7441    0.8316 H   0  0  0  0  0  0  0  0  0  0  0  0
   -3.1351   -1.9707    0.9118 H   0  0  0  0  0  0  0  0  0  0  0  0
   -5.4589   -2.2421    0.1682 H   0  0  0  0  0  0  0  0  0  0  0  0
   -7.6552   -0.1473   -0.4054 H   0  0  0  0  0  0  0  0  0  0  0  0
   -7.2213   -1.5082   -1.4718 H   0  0  0  0  0  0  0  0  0  0  0  0
   -7.2164    0.1372   -2.1075 H   0  0  0  0  0  0  0  0  0  0  0  0
   -5.3490    1.6801   -1.6211 H   0  0  0  0  0  0  0  0  0  0  0  0
   -3.0157    1.9481   -0.8946 H   0  0  0  0  0  0  0  0  0  0  0  0
    3.4195    1.8551   -1.0960 H   0  0  0  0  0  0  0  0  0  0  0  0
    4.6123   -0.1937   -1.6533 H   0  0  0  0  0  0  0  0  0  0  0  0
  1  2  1  0
  2  3  1  0
  3  4  2  0
  4  5  1  0
  5  6  2  0
  6  7  1  0
  7  8  1  0
  8  9  2  0
  8 10  1  0
 10 11  1  0
 11 12  2  3
 12 13  1  0
 12 14  1  0
 14 15  2  0
 15 16  1  0
 16 17  2  0
 17 18  1  0
 17 19  1  0
 19 20  2  0
  6 21  1  0
 21 22  2  0
 22  3  1  0
 20 14  1  0
  1 23  1  0
  1 24  1  0
  1 25  1  0
  4 26  1  0
  5 27  1  0
  7 28  1  0
  7 29  1  0
 13 30  1  0
 13 31  1  0
 15 32  1  0
 16 33  1  0
 18 34  1  0
 18 35  1  0
 18 36  1  0
 19 37  1  0
 20 38  1  0
 21 39  1  0
 22 40  1  0
M  END
$$$$
