
     RDKit          3D

 37 38  0  0  0  0  0  0  0  0999 V2000
    6.2546   -0.1328    2.7922 C   0  0  0  0  0  0  0  0  0  0  0  0
    6.2888   -0.2717    1.3774 O   0  0  0  0  0  0  0  0  0  0  0  0
    5.0909   -0.4359    0.7404 C   0  0  0  0  0  0  0  0  0  0  0  0
    5.1782   -0.5435   -0.6485 C   0  0  0  0  0  0  0  0  0  0  0  0
    4.0283   -0.7146   -1.4238 C   0  0  0  0  0  0  0  0  0  0  0  0
    2.7697   -0.7870   -0.8155 C   0  0  0  0  0  0  0  0  0  0  0  0
    1.5737   -0.9791   -1.6903 C   0  0  0  0  0  0  0  0  0  0  0  0
    1.6803   -0.8274   -2.9074 O   0  0  0  0  0  0  0  0  0  0  0  0
    0.2519   -1.3677   -1.0849 C   0  0  0  0  0  0  0  0  0  0  0  0
   -0.5814   -0.1871   -0.6889 C   0  0  0  0  0  0  0  0  0  0  0  0
   -0.1501    0.9372   -0.4511 O   0  0  0  0  0  0  0  0  0  0  0  0
   -2.0761   -0.4438   -0.5096 C   0  0  0  0  0  0  0  0  0  0  0  0
   -2.4823   -1.5941   -0.5188 O   0  0  0  0  0  0  0  0  0  0  0  0
   -2.7815    0.7289   -0.3413 N   0  0  0  0  0  0  0  0  0  0  0  0
   -4.1649    0.8841   -0.1527 C   0  0  0  0  0  0  0  0  0  0  0  0
   -5.0688   -0.1808   -0.1264 C   0  0  0  0  0  0  0  0  0  0  0  0
   -6.4351    0.0550    0.0665 C   0  0  0  0  0  0  0  0  0  0  0  0
   -6.9001    1.3565    0.2328 C   0  0  0  0  0  0  0  0  0  0  0  0
   -8.5789    1.6439    0.4703 Cl  0  0  0  0  0  0  0  0  0  0  0  0
   -6.0104    2.4264    0.2074 C   0  0  0  0  0  0  0  0  0  0  0  0
   -4.6459    2.1894    0.0146 C   0  0  0  0  0  0  0  0  0  0  0  0
    2.6806   -0.6728    0.5763 C   0  0  0  0  0  0  0  0  0  0  0  0
    3.8376   -0.4990    1.3496 C   0  0  0  0  0  0  0  0  0  0  0  0
    7.2839   -0.0035    3.1405 H   0  0  0  0  0  0  0  0  0  0  0  0
    5.8529   -1.0339    3.2672 H   0  0  0  0  0  0  0  0  0  0  0  0
    5.6885    0.7566    3.0881 H   0  0  0  0  0  0  0  0  0  0  0  0
    6.1503   -0.4906   -1.1339 H   0  0  0  0  0  0  0  0  0  0  0  0
    4.1245   -0.7916   -2.5055 H   0  0  0  0  0  0  0  0  0  0  0  0
   -0.2834   -1.9466   -1.8472 H   0  0  0  0  0  0  0  0  0  0  0  0
    0.3926   -2.0304   -0.2263 H   0  0  0  0  0  0  0  0  0  0  0  0
   -2.2079    1.5707   -0.3426 H   0  0  0  0  0  0  0  0  0  0  0  0
   -4.7460   -1.2095   -0.2544 H   0  0  0  0  0  0  0  0  0  0  0  0
   -7.1260   -0.7839    0.0841 H   0  0  0  0  0  0  0  0  0  0  0  0
   -6.3690    3.4442    0.3357 H   0  0  0  0  0  0  0  0  0  0  0  0
   -3.9681    3.0397   -0.0026 H   0  0  0  0  0  0  0  0  0  0  0  0
    1.7258   -0.6948    1.0923 H   0  0  0  0  0  0  0  0  0  0  0  0
    3.7228   -0.4104    2.4253 H   0  0  0  0  0  0  0  0  0  0  0  0
  1  2  1  0
  2  3  1  0
  3  4  2  0
  4  5  1  0
  5  6  2  0
  6  7  1  0
  7  8  2  0
  7  9  1  0
  9 10  1  0
 10 11  2  0
 10 12  1  0
 12 13  2  0
 12 14  1  0
 14 15  1  0
 15 16  2  0
 16 17  1  0
 17 18  2  0
 18 19  1  0
 18 20  1  0
 20 21  2  0
  6 22  1  0
 22 23  2  0
 23  3  1  0
 21 15  1  0
  1 24  1  0
  1 25  1  0
  1 26  1  0
  4 27  1  0
  5 28  1  0
  9 29  1  0
  9 30  1  0
 14 31  1  0
 16 32  1  0
 17 33  1  0
 20 34  1  0
 21 35  1  0
 22 36  1  0
 23 37  1  0
M  END
$$$$
