
     RDKit          3D

 48 50  0  0  0  0  0  0  0  0999 V2000
    3.4926   -4.7991   -1.3827 C   0  0  0  0  0  0  0  0  0  0  0  0
    3.3816   -3.3677   -0.9461 C   0  0  0  0  0  0  0  0  0  0  0  0
    4.5241   -2.6384   -0.6085 C   0  0  0  0  0  0  0  0  0  0  0  0
    4.4608   -1.2991   -0.1712 C   0  0  0  0  0  0  0  0  0  0  0  0
    5.7362   -0.5881    0.1851 C   0  0  0  0  0  0  0  0  0  0  0  0
    3.1741   -0.7270   -0.0544 C   0  0  0  0  0  0  0  0  0  0  0  0
    2.7082    0.8455    0.4819 S   0  0  0  0  0  0  0  0  0  0  0  0
    1.0627    0.4861    0.1876 C   0  0  0  0  0  0  0  0  0  0  0  0
    0.0500    1.4031    0.4947 N   0  0  0  0  0  0  0  0  0  0  0  0
   -1.3498    0.9424    0.4015 C   0  0  0  0  0  0  0  0  0  0  0  0
   -1.8647    0.9768   -1.0422 C   0  0  0  0  0  0  0  0  0  0  0  0
   -3.3598    0.6498   -1.1438 C   0  0  0  0  0  0  0  0  0  0  0  0
   -3.7494   -0.6236   -0.5182 N   0  0  0  0  0  0  0  0  0  0  0  0
   -5.2097   -0.7524   -0.5099 C   0  0  0  0  0  0  0  0  0  0  0  0
   -3.1584   -1.7755   -1.2064 C   0  0  0  0  0  0  0  0  0  0  0  0
    0.3338    2.7813    0.4931 C   0  0  0  0  0  0  0  0  0  0  0  0
    1.2395    3.2814   -0.1733 O   0  0  0  0  0  0  0  0  0  0  0  0
   -0.5237    3.6130    1.3344 C   0  0  0  0  0  0  0  0  0  0  0  0
   -1.0029    3.3701    2.6118 C   0  0  0  0  0  0  0  0  0  0  0  0
   -1.8046    4.4433    3.1052 C   0  0  0  0  0  0  0  0  0  0  0  0
   -1.8833    5.4616    2.1903 C   0  0  0  0  0  0  0  0  0  0  0  0
   -2.8655    7.0730    2.4900 Br  0  0  0  0  0  0  0  0  0  0  0  0
   -1.0160    5.1571    0.7690 S   0  0  0  0  0  0  0  0  0  0  0  0
    0.8250   -0.7447   -0.2052 N   0  0  0  0  0  0  0  0  0  0  0  0
    2.0134   -1.4348   -0.3725 C   0  0  0  0  0  0  0  0  0  0  0  0
    2.1232   -2.7677   -0.8168 C   0  0  0  0  0  0  0  0  0  0  0  0
    3.4382   -5.4606   -0.5127 H   0  0  0  0  0  0  0  0  0  0  0  0
    2.6865   -5.0588   -2.0770 H   0  0  0  0  0  0  0  0  0  0  0  0
    4.4393   -4.9769   -1.9041 H   0  0  0  0  0  0  0  0  0  0  0  0
    5.5005   -3.1177   -0.6883 H   0  0  0  0  0  0  0  0  0  0  0  0
    5.6118    0.4983    0.1893 H   0  0  0  0  0  0  0  0  0  0  0  0
    6.5195   -0.8203   -0.5444 H   0  0  0  0  0  0  0  0  0  0  0  0
    6.0726   -0.9045    1.1773 H   0  0  0  0  0  0  0  0  0  0  0  0
   -1.4106   -0.0667    0.8261 H   0  0  0  0  0  0  0  0  0  0  0  0
   -1.9995    1.5698    1.0158 H   0  0  0  0  0  0  0  0  0  0  0  0
   -1.2814    0.2956   -1.6720 H   0  0  0  0  0  0  0  0  0  0  0  0
   -1.7058    1.9784   -1.4620 H   0  0  0  0  0  0  0  0  0  0  0  0
   -3.6585    0.6707   -2.2001 H   0  0  0  0  0  0  0  0  0  0  0  0
   -3.9023    1.4672   -0.6504 H   0  0  0  0  0  0  0  0  0  0  0  0
   -5.5123   -1.6759   -0.0035 H   0  0  0  0  0  0  0  0  0  0  0  0
   -5.6660    0.0722    0.0491 H   0  0  0  0  0  0  0  0  0  0  0  0
   -5.6303   -0.7590   -1.5221 H   0  0  0  0  0  0  0  0  0  0  0  0
   -2.0668   -1.7683   -1.1283 H   0  0  0  0  0  0  0  0  0  0  0  0
   -3.4322   -1.8076   -2.2671 H   0  0  0  0  0  0  0  0  0  0  0  0
   -3.4871   -2.7110   -0.7393 H   0  0  0  0  0  0  0  0  0  0  0  0
   -0.7863    2.4657    3.1692 H   0  0  0  0  0  0  0  0  0  0  0  0
   -2.2822    4.4590    4.0772 H   0  0  0  0  0  0  0  0  0  0  0  0
    1.2159   -3.3157   -1.0529 H   0  0  0  0  0  0  0  0  0  0  0  0
  1  2  1  0
  2  3  2  0
  3  4  1  0
  4  5  1  0
  4  6  2  0
  6  7  1  0
  7  8  1  0
  8  9  1  0
  9 10  1  0
 10 11  1  0
 11 12  1  0
 12 13  1  0
 13 14  1  0
 13 15  1  0
  9 16  1  0
 16 17  2  0
 16 18  1  0
 18 19  2  0
 19 20  1  0
 20 21  2  0
 21 22  1  0
 21 23  1  0
  8 24  2  0
 24 25  1  0
 25 26  2  0
 26  2  1  0
 25  6  1  0
 23 18  1  0
  1 27  1  0
  1 28  1  0
  1 29  1  0
  3 30  1  0
  5 31  1  0
  5 32  1  0
  5 33  1  0
 10 34  1  0
 10 35  1  0
 11 36  1  0
 11 37  1  0
 12 38  1  0
 12 39  1  0
 14 40  1  0
 14 41  1  0
 14 42  1  0
 15 43  1  0
 15 44  1  0
 15 45  1  0
 19 46  1  0
 20 47  1  0
 26 48  1  0
M  END
$$$$
