
     RDKit          3D

 72 76  0  0  0  0  0  0  0  0999 V2000
    7.9535    0.0119    2.8299 C   0  0  0  0  0  0  0  0  0  0  0  0
    7.2733   -0.3785    1.5135 C   0  0  0  0  0  0  0  0  0  0  0  0
    8.3414   -0.4479    0.4112 C   0  0  0  0  0  0  0  0  0  0  0  0
    6.5807   -1.7428    1.6081 C   0  0  0  0  0  0  0  0  0  0  0  0
    6.3543    0.6535    1.0714 O   0  0  0  0  0  0  0  0  0  0  0  0
    5.2706    0.9740    1.8139 C   0  0  0  0  0  0  0  0  0  0  0  0
    4.9453    0.4696    2.8769 O   0  0  0  0  0  0  0  0  0  0  0  0
    4.5764    1.9529    1.1700 N   0  0  0  0  0  0  0  0  0  0  0  0
    3.3092    2.4558    1.6448 C   0  0  0  0  0  0  0  0  0  0  0  0
    2.1445    1.5185    1.3211 C   0  0  0  0  0  0  0  0  0  0  0  0
    1.8701    1.4272   -0.1830 C   0  0  0  0  0  0  0  0  0  0  0  0
    0.8037    0.3863   -0.5476 C   0  0  0  0  0  0  0  0  0  0  0  0
   -0.5679    0.5937    0.1030 C   0  0  1  0  0  0  0  0  0  0  0  0
   -1.1240    1.9431   -0.2544 N   0  0  0  0  0  0  0  0  0  0  0  0
   -2.5530    1.7867   -0.6838 C   0  0  0  0  0  0  0  0  0  0  0  0
   -3.5374    2.4301    0.3349 C   0  0  0  0  0  0  0  0  0  0  0  0
   -3.5725    2.2770    1.5470 O   0  0  0  0  0  0  0  0  0  0  0  0
   -4.3644    3.2906   -0.3896 N   0  0  0  0  0  0  0  0  0  0  0  0
   -3.9914    3.3379   -1.7268 C   0  0  0  0  0  0  0  0  0  0  0  0
   -4.5581    4.1110   -2.7180 C   0  0  0  0  0  0  0  0  0  0  0  0
   -4.0099    4.0136   -3.9993 C   0  0  0  0  0  0  0  0  0  0  0  0
   -2.9196    3.1605   -4.2544 C   0  0  0  0  0  0  0  0  0  0  0  0
   -2.3601    2.3874   -3.2325 C   0  0  0  0  0  0  0  0  0  0  0  0
   -2.9125    2.4794   -1.9648 C   0  0  0  0  0  0  0  0  0  0  0  0
   -2.7312    0.3378   -0.8517 C   0  0  0  0  0  0  0  0  0  0  0  0
   -1.5991   -0.3442   -0.3946 C   0  0  0  0  0  0  0  0  0  0  0  0
   -1.8093   -1.6896   -0.5469 C   0  0  0  0  0  0  0  0  0  0  0  0
   -1.0566   -2.7468   -0.2716 O   0  0  0  0  0  0  0  0  0  0  0  0
   -3.0756   -1.8288   -1.0943 N   0  0  0  0  0  0  0  0  0  0  0  0
   -3.6920   -3.0987   -1.4567 C   0  0  0  0  0  0  0  0  0  0  0  0
   -4.4618   -3.7020   -0.3074 C   0  0  0  0  0  0  0  0  0  0  0  0
   -5.7916   -3.3287   -0.0639 C   0  0  0  0  0  0  0  0  0  0  0  0
   -6.5018   -3.8863    1.0005 C   0  0  0  0  0  0  0  0  0  0  0  0
   -5.8897   -4.8200    1.8349 C   0  0  0  0  0  0  0  0  0  0  0  0
   -4.5658   -5.1928    1.6091 C   0  0  0  0  0  0  0  0  0  0  0  0
   -3.8542   -4.6346    0.5459 C   0  0  0  0  0  0  0  0  0  0  0  0
   -3.6374   -0.5809   -1.3162 C   0  0  0  0  0  0  0  0  0  0  0  0
   -4.8295   -0.4492   -1.8857 O   0  0  0  0  0  0  0  0  0  0  0  0
    8.7643   -0.6809    3.0798 H   0  0  0  0  0  0  0  0  0  0  0  0
    7.2508    0.0109    3.6687 H   0  0  0  0  0  0  0  0  0  0  0  0
    8.3669    1.0250    2.7689 H   0  0  0  0  0  0  0  0  0  0  0  0
    7.8870   -0.6785   -0.5602 H   0  0  0  0  0  0  0  0  0  0  0  0
    8.8447    0.5197    0.2946 H   0  0  0  0  0  0  0  0  0  0  0  0
    9.0995   -1.2087    0.6271 H   0  0  0  0  0  0  0  0  0  0  0  0
    6.0372   -1.9675    0.6832 H   0  0  0  0  0  0  0  0  0  0  0  0
    5.8466   -1.7744    2.4195 H   0  0  0  0  0  0  0  0  0  0  0  0
    7.3039   -2.5462    1.7908 H   0  0  0  0  0  0  0  0  0  0  0  0
    4.9275    2.2192    0.2610 H   0  0  0  0  0  0  0  0  0  0  0  0
    3.3761    2.5878    2.7308 H   0  0  0  0  0  0  0  0  0  0  0  0
    3.1542    3.4404    1.1921 H   0  0  0  0  0  0  0  0  0  0  0  0
    1.2533    1.8984    1.8334 H   0  0  0  0  0  0  0  0  0  0  0  0
    2.3457    0.5173    1.7205 H   0  0  0  0  0  0  0  0  0  0  0  0
    1.5777    2.4130   -0.5645 H   0  0  0  0  0  0  0  0  0  0  0  0
    2.7923    1.1543   -0.7107 H   0  0  0  0  0  0  0  0  0  0  0  0
    0.6989    0.3767   -1.6417 H   0  0  0  0  0  0  0  0  0  0  0  0
    1.1817   -0.6087   -0.2776 H   0  0  0  0  0  0  0  0  0  0  0  0
   -0.5055    0.5052    1.1942 H   0  0  0  0  0  0  0  0  0  0  0  0
   -1.1350    2.4979    0.6028 H   0  0  0  0  0  0  0  0  0  0  0  0
   -5.0805    3.8530    0.0463 H   0  0  0  0  0  0  0  0  0  0  0  0
   -5.3920    4.7745   -2.5200 H   0  0  0  0  0  0  0  0  0  0  0  0
   -4.4252    4.6079   -4.8106 H   0  0  0  0  0  0  0  0  0  0  0  0
   -2.5042    3.1039   -5.2591 H   0  0  0  0  0  0  0  0  0  0  0  0
   -1.5163    1.7309   -3.4247 H   0  0  0  0  0  0  0  0  0  0  0  0
   -0.2342   -2.4200    0.1341 H   0  0  0  0  0  0  0  0  0  0  0  0
   -4.3481   -2.9339   -2.3193 H   0  0  0  0  0  0  0  0  0  0  0  0
   -2.9010   -3.7760   -1.8003 H   0  0  0  0  0  0  0  0  0  0  0  0
   -6.2773   -2.5934   -0.7022 H   0  0  0  0  0  0  0  0  0  0  0  0
   -7.5308   -3.5873    1.1810 H   0  0  0  0  0  0  0  0  0  0  0  0
   -6.4418   -5.2508    2.6658 H   0  0  0  0  0  0  0  0  0  0  0  0
   -4.0841   -5.9130    2.2648 H   0  0  0  0  0  0  0  0  0  0  0  0
   -2.8166   -4.9230    0.3896 H   0  0  0  0  0  0  0  0  0  0  0  0
   -4.9719    0.4995   -2.0507 H   0  0  0  0  0  0  0  0  0  0  0  0
  1  2  1  0
  2  3  1  0
  2  4  1  0
  2  5  1  0
  5  6  1  0
  6  7  2  0
  6  8  1  0
  8  9  1  0
  9 10  1  0
 10 11  1  0
 11 12  1  0
 12 13  1  0
 13 14  1  0
 14 15  1  0
 15 16  1  0
 16 17  2  0
 16 18  1  0
 18 19  1  0
 19 20  2  0
 20 21  1  0
 21 22  2  0
 22 23  1  0
 23 24  2  0
 15 25  1  0
 25 26  1  0
 26 27  2  0
 27 28  1  0
 27 29  1  0
 29 30  1  0
 30 31  1  0
 31 32  2  0
 32 33  1  0
 33 34  2  0
 34 35  1  0
 35 36  2  0
 29 37  1  0
 37 38  1  0
 26 13  1  0
 36 31  1  0
 24 15  1  0
 37 25  2  0
 24 19  1  0
  1 39  1  0
  1 40  1  0
  1 41  1  0
  3 42  1  0
  3 43  1  0
  3 44  1  0
  4 45  1  0
  4 46  1  0
  4 47  1  0
  8 48  1  0
  9 49  1  0
  9 50  1  0
 10 51  1  0
 10 52  1  0
 11 53  1  0
 11 54  1  0
 12 55  1  0
 12 56  1  0
 13 57  1  1
 14 58  1  0
 18 59  1  0
 20 60  1  0
 21 61  1  0
 22 62  1  0
 23 63  1  0
 28 64  1  0
 30 65  1  0
 30 66  1  0
 32 67  1  0
 33 68  1  0
 34 69  1  0
 35 70  1  0
 36 71  1  0
 38 72  1  0
M  END
$$$$
