
     RDKit          3D

 43 44  0  0  0  0  0  0  0  0999 V2000
   -2.3217    2.9062    0.5725 O   0  0  0  0  0  0  0  0  0  0  0  0
   -1.6665    2.8630   -0.4686 C   0  0  0  0  0  0  0  0  0  0  0  0
   -0.9770    4.1184   -1.0452 C   0  0  0  0  0  0  0  0  0  0  0  0
   -0.1077    4.8771   -0.2228 O   0  0  0  0  0  0  0  0  0  0  0  0
    0.6849    4.1211    0.6757 C   0  0  0  0  0  0  0  0  0  0  0  0
    1.4557    2.8790    0.1797 C   0  0  0  0  0  0  0  0  0  0  0  0
    1.3609    2.4558   -0.9705 O   0  0  0  0  0  0  0  0  0  0  0  0
    2.2037    2.2976    1.2003 N   0  0  0  0  0  0  0  0  0  0  0  0
    2.9913    1.1852    1.0627 N   0  0  0  0  0  0  0  0  0  0  0  0
    2.5488    0.2174    0.3177 C   0  0  0  0  0  0  0  0  0  0  0  0
    3.3437   -1.0127    0.1021 C   0  0  0  0  0  0  0  0  0  0  0  0
    2.8345   -2.0159   -0.7374 C   0  0  0  0  0  0  0  0  0  0  0  0
    3.5710   -3.1852   -0.9466 C   0  0  0  0  0  0  0  0  0  0  0  0
    4.8018   -3.3407   -0.3181 C   0  0  0  0  0  0  0  0  0  0  0  0
    5.5056   -4.4636   -0.5197 F   0  0  0  0  0  0  0  0  0  0  0  0
    5.3143   -2.3499    0.5195 C   0  0  0  0  0  0  0  0  0  0  0  0
    4.5840   -1.1790    0.7314 C   0  0  0  0  0  0  0  0  0  0  0  0
   -1.4067    1.7171   -1.2307 N   0  0  0  0  0  0  0  0  0  0  0  0
   -1.8135    0.4386   -0.9118 N   0  0  0  0  0  0  0  0  0  0  0  0
   -2.9830    0.3067   -0.3588 C   0  0  0  0  0  0  0  0  0  0  0  0
   -3.5042   -1.0237    0.0275 C   0  0  0  0  0  0  0  0  0  0  0  0
   -2.8147   -2.2023   -0.3026 C   0  0  0  0  0  0  0  0  0  0  0  0
   -3.3448   -3.4450    0.0599 C   0  0  0  0  0  0  0  0  0  0  0  0
   -4.5513   -3.4973    0.7503 C   0  0  0  0  0  0  0  0  0  0  0  0
   -5.0581   -4.6900    1.0961 F   0  0  0  0  0  0  0  0  0  0  0  0
   -5.2407   -2.3314    1.0845 C   0  0  0  0  0  0  0  0  0  0  0  0
   -4.7190   -1.0857    0.7192 C   0  0  0  0  0  0  0  0  0  0  0  0
   -1.7817    4.7896   -1.3616 H   0  0  0  0  0  0  0  0  0  0  0  0
   -0.4384    3.8681   -1.9621 H   0  0  0  0  0  0  0  0  0  0  0  0
    1.4264    4.8166    1.0869 H   0  0  0  0  0  0  0  0  0  0  0  0
    0.0507    3.8095    1.5147 H   0  0  0  0  0  0  0  0  0  0  0  0
    2.4913    2.8954    1.9708 H   0  0  0  0  0  0  0  0  0  0  0  0
    1.5534    0.2390   -0.1625 H   0  0  0  0  0  0  0  0  0  0  0  0
    1.8737   -1.8944   -1.2305 H   0  0  0  0  0  0  0  0  0  0  0  0
    3.1940   -3.9748   -1.5949 H   0  0  0  0  0  0  0  0  0  0  0  0
    6.2768   -2.4949    1.0005 H   0  0  0  0  0  0  0  0  0  0  0  0
    4.9810   -0.4048    1.3861 H   0  0  0  0  0  0  0  0  0  0  0  0
   -0.5163    1.7255   -1.7409 H   0  0  0  0  0  0  0  0  0  0  0  0
   -3.6675    1.1674   -0.1734 H   0  0  0  0  0  0  0  0  0  0  0  0
   -1.8737   -2.1583   -0.8444 H   0  0  0  0  0  0  0  0  0  0  0  0
   -2.8252   -4.3684   -0.1891 H   0  0  0  0  0  0  0  0  0  0  0  0
   -6.1776   -2.4000    1.6286 H   0  0  0  0  0  0  0  0  0  0  0  0
   -5.2581   -0.1763    0.9844 H   0  0  0  0  0  0  0  0  0  0  0  0
  1  2  2  0
  2  3  1  0
  3  4  1  0
  4  5  1  0
  5  6  1  0
  6  7  2  0
  6  8  1  0
  8  9  1  0
  9 10  2  3
 10 11  1  0
 11 12  2  0
 12 13  1  0
 13 14  2  0
 14 15  1  0
 14 16  1  0
 16 17  2  0
  2 18  1  0
 18 19  1  0
 19 20  2  3
 20 21  1  0
 21 22  2  0
 22 23  1  0
 23 24  2  0
 24 25  1  0
 24 26  1  0
 26 27  2  0
 17 11  1  0
 27 21  1  0
  3 28  1  0
  3 29  1  0
  5 30  1  0
  5 31  1  0
  8 32  1  0
 10 33  1  0
 12 34  1  0
 13 35  1  0
 16 36  1  0
 17 37  1  0
 18 38  1  0
 20 39  1  0
 22 40  1  0
 23 41  1  0
 26 42  1  0
 27 43  1  0
M  END
$$$$
