
     RDKit          3D

 44 47  0  0  0  0  0  0  0  0999 V2000
    2.2243   -3.7935    0.4448 C   0  0  0  0  0  0  0  0  0  0  0  0
    1.5467   -2.7142    1.0771 O   0  0  0  0  0  0  0  0  0  0  0  0
    2.0616   -1.4649    0.8740 C   0  0  0  0  0  0  0  0  0  0  0  0
    3.2758   -1.1656    0.2722 C   0  0  0  0  0  0  0  0  0  0  0  0
    3.6777    0.1694    0.1439 C   0  0  0  0  0  0  0  0  0  0  0  0
    2.8958    1.2242    0.5940 C   0  0  0  0  0  0  0  0  0  0  0  0
    3.3597    2.4755    0.4381 N   0  0  0  0  0  0  0  0  0  0  0  0
    2.5949    3.4967    0.8733 C   0  0  0  0  0  0  0  0  0  0  0  0
    1.3602    3.3333    1.4658 C   0  0  0  0  0  0  0  0  0  0  0  0
    0.8721    2.0366    1.6248 C   0  0  0  0  0  0  0  0  0  0  0  0
   -0.4637    1.8799    2.2234 C   0  0  0  0  0  0  0  0  0  0  0  0
   -1.6119    1.7706    1.5334 C   0  0  0  0  0  0  0  0  0  0  0  0
   -1.7325    1.7948    0.0648 C   0  0  0  0  0  0  0  0  0  0  0  0
   -1.6196    3.0265   -0.5809 C   0  0  0  0  0  0  0  0  0  0  0  0
   -1.7275    3.0566   -1.9551 C   0  0  0  0  0  0  0  0  0  0  0  0
   -1.9440    1.9646   -2.7140 N   0  0  0  0  0  0  0  0  0  0  0  0
   -2.0557    0.7765   -2.0981 C   0  0  0  0  0  0  0  0  0  0  0  0
   -2.2745   -0.3466   -2.8804 C   0  0  0  0  0  0  0  0  0  0  0  0
   -2.4030   -1.6200   -2.3209 C   0  0  0  0  0  0  0  0  0  0  0  0
   -2.3140   -1.7942   -0.9451 C   0  0  0  0  0  0  0  0  0  0  0  0
   -2.4523   -3.0848   -0.5187 O   0  0  0  0  0  0  0  0  0  0  0  0
   -2.2592   -3.3288    0.8691 C   0  0  0  0  0  0  0  0  0  0  0  0
   -2.1041   -0.6765   -0.1388 C   0  0  0  0  0  0  0  0  0  0  0  0
   -1.9641    0.6220   -0.6972 C   0  0  0  0  0  0  0  0  0  0  0  0
    1.6540    0.9361    1.1967 C   0  0  0  0  0  0  0  0  0  0  0  0
    1.2662   -0.4180    1.3410 C   0  0  0  0  0  0  0  0  0  0  0  0
    3.2185   -3.9399    0.8791 H   0  0  0  0  0  0  0  0  0  0  0  0
    2.2832   -3.6461   -0.6389 H   0  0  0  0  0  0  0  0  0  0  0  0
    1.6442   -4.7034    0.6261 H   0  0  0  0  0  0  0  0  0  0  0  0
    3.9406   -1.9367   -0.1018 H   0  0  0  0  0  0  0  0  0  0  0  0
    4.6339    0.3932   -0.3245 H   0  0  0  0  0  0  0  0  0  0  0  0
    3.0176    4.4859    0.7228 H   0  0  0  0  0  0  0  0  0  0  0  0
    0.7912    4.1987    1.7863 H   0  0  0  0  0  0  0  0  0  0  0  0
   -0.4798    1.8454    3.3103 H   0  0  0  0  0  0  0  0  0  0  0  0
   -2.5504    1.6410    2.0679 H   0  0  0  0  0  0  0  0  0  0  0  0
   -1.4491    3.9444   -0.0301 H   0  0  0  0  0  0  0  0  0  0  0  0
   -1.6412    3.9901   -2.5036 H   0  0  0  0  0  0  0  0  0  0  0  0
   -2.3448   -0.2300   -3.9593 H   0  0  0  0  0  0  0  0  0  0  0  0
   -2.5703   -2.4774   -2.9678 H   0  0  0  0  0  0  0  0  0  0  0  0
   -3.0362   -2.8387    1.4649 H   0  0  0  0  0  0  0  0  0  0  0  0
   -2.3441   -4.4073    1.0338 H   0  0  0  0  0  0  0  0  0  0  0  0
   -1.2603   -3.0205    1.1925 H   0  0  0  0  0  0  0  0  0  0  0  0
   -2.0403   -0.7878    0.9379 H   0  0  0  0  0  0  0  0  0  0  0  0
    0.3242   -0.6670    1.8216 H   0  0  0  0  0  0  0  0  0  0  0  0
  1  2  1  0
  2  3  1  0
  3  4  2  0
  4  5  1  0
  5  6  2  0
  6  7  1  0
  7  8  2  0
  8  9  1  0
  9 10  2  0
 10 11  1  0
 11 12  2  3
 12 13  1  0
 13 14  2  0
 14 15  1  0
 15 16  2  0
 16 17  1  0
 17 18  2  0
 18 19  1  0
 19 20  2  0
 20 21  1  0
 21 22  1  0
 20 23  1  0
 23 24  2  0
 10 25  1  0
 25 26  2  0
 26  3  1  0
 25  6  1  0
 24 13  1  0
 24 17  1  0
  1 27  1  0
  1 28  1  0
  1 29  1  0
  4 30  1  0
  5 31  1  0
  8 32  1  0
  9 33  1  0
 11 34  1  0
 12 35  1  0
 14 36  1  0
 15 37  1  0
 18 38  1  0
 19 39  1  0
 22 40  1  0
 22 41  1  0
 22 42  1  0
 23 43  1  0
 26 44  1  0
M  END
$$$$
