
     RDKit          3D

 58 62  0  0  0  0  0  0  0  0999 V2000
   -6.1804   -0.4836   -2.9280 C   0  0  0  0  0  0  0  0  0  0  0  0
   -5.0824   -1.2349   -2.4241 O   0  0  0  0  0  0  0  0  0  0  0  0
   -4.1528   -0.5540   -1.6882 C   0  0  0  0  0  0  0  0  0  0  0  0
   -3.0768   -1.3303   -1.2478 C   0  0  0  0  0  0  0  0  0  0  0  0
   -2.0531   -0.7652   -0.4828 C   0  0  0  0  0  0  0  0  0  0  0  0
   -2.1079    0.5904   -0.1391 C   0  0  0  0  0  0  0  0  0  0  0  0
   -1.0306    1.2308    0.6722 C   0  0  0  0  0  0  0  0  0  0  0  0
   -0.7161    2.4553    0.4154 N   0  0  0  0  0  0  0  0  0  0  0  0
    0.3962    3.0532    1.1464 C   0  0  0  0  0  0  0  0  0  0  0  0
    1.7053    2.4120    0.6925 C   0  0  0  0  0  0  0  0  0  0  0  0
    2.4526    2.9926   -0.1024 O   0  0  0  0  0  0  0  0  0  0  0  0
    2.0359    1.1677    1.2353 N   0  0  0  0  0  0  0  0  0  0  0  0
    3.4093    0.6960    1.0025 C   0  0  0  0  0  0  0  0  0  0  0  0
    3.4994   -0.1702   -0.2558 C   0  0  0  0  0  0  0  0  0  0  0  0
    4.0591   -1.2652   -0.2533 O   0  0  0  0  0  0  0  0  0  0  0  0
    2.9918    0.4129   -1.3971 N   0  0  0  0  0  0  0  0  0  0  0  0
    3.1448   -0.1946   -2.6975 C   0  0  0  0  0  0  0  0  0  0  0  0
    4.4119    0.2790   -3.3051 C   0  0  0  0  0  0  0  0  0  0  0  0
    5.7300   -0.1053   -3.1635 C   0  0  0  0  0  0  0  0  0  0  0  0
    6.4857    0.7398   -4.0106 C   0  0  0  0  0  0  0  0  0  0  0  0
    5.5829    1.5836   -4.6143 C   0  0  0  0  0  0  0  0  0  0  0  0
    4.3210    1.3121   -4.1929 O   0  0  0  0  0  0  0  0  0  0  0  0
    1.0338    0.3995    1.8470 C   0  0  0  0  0  0  0  0  0  0  0  0
    1.5269   -0.8115    2.9496 S   0  0  0  0  0  0  0  0  0  0  0  0
   -0.0639   -1.1581    3.3828 C   0  0  0  0  0  0  0  0  0  0  0  0
   -0.9884   -0.4176    2.6796 C   0  0  0  0  0  0  0  0  0  0  0  0
   -0.3503    0.4357    1.6995 C   0  0  0  0  0  0  0  0  0  0  0  0
   -2.4449   -0.5619    3.0148 C   0  0  0  0  0  0  0  0  0  0  0  0
   -2.8368   -1.9877    3.4523 C   0  0  0  0  0  0  0  0  0  0  0  0
   -1.6884   -2.9161    3.8977 C   0  0  0  0  0  0  0  0  0  0  0  0
   -0.4410   -2.1820    4.4012 C   0  0  0  0  0  0  0  0  0  0  0  0
   -3.1743    1.3742   -0.5962 C   0  0  0  0  0  0  0  0  0  0  0  0
   -4.1964    0.8023   -1.3625 C   0  0  0  0  0  0  0  0  0  0  0  0
   -6.7849   -0.0739   -2.1118 H   0  0  0  0  0  0  0  0  0  0  0  0
   -5.8413    0.3072   -3.6057 H   0  0  0  0  0  0  0  0  0  0  0  0
   -6.8153   -1.1646   -3.5029 H   0  0  0  0  0  0  0  0  0  0  0  0
   -3.0323   -2.3850   -1.5110 H   0  0  0  0  0  0  0  0  0  0  0  0
   -1.2204   -1.3925   -0.1751 H   0  0  0  0  0  0  0  0  0  0  0  0
    0.4440    4.1202    0.9004 H   0  0  0  0  0  0  0  0  0  0  0  0
    0.2770    3.0003    2.2347 H   0  0  0  0  0  0  0  0  0  0  0  0
    3.7884    0.1366    1.8615 H   0  0  0  0  0  0  0  0  0  0  0  0
    4.0871    1.5478    0.8696 H   0  0  0  0  0  0  0  0  0  0  0  0
    2.8107    1.4160   -1.3733 H   0  0  0  0  0  0  0  0  0  0  0  0
    3.1405   -1.2855   -2.6089 H   0  0  0  0  0  0  0  0  0  0  0  0
    2.2848    0.1066   -3.3032 H   0  0  0  0  0  0  0  0  0  0  0  0
    6.0908   -0.8954   -2.5177 H   0  0  0  0  0  0  0  0  0  0  0  0
    7.5558    0.7373   -4.1606 H   0  0  0  0  0  0  0  0  0  0  0  0
    5.6727    2.3905   -5.3284 H   0  0  0  0  0  0  0  0  0  0  0  0
   -3.0997   -0.2426    2.2008 H   0  0  0  0  0  0  0  0  0  0  0  0
   -2.6527    0.1240    3.8483 H   0  0  0  0  0  0  0  0  0  0  0  0
   -3.3690   -2.4800    2.6255 H   0  0  0  0  0  0  0  0  0  0  0  0
   -3.5731   -1.9084    4.2645 H   0  0  0  0  0  0  0  0  0  0  0  0
   -2.0508   -3.6110    4.6643 H   0  0  0  0  0  0  0  0  0  0  0  0
   -1.4021   -3.5357    3.0360 H   0  0  0  0  0  0  0  0  0  0  0  0
   -0.6557   -1.6879    5.3562 H   0  0  0  0  0  0  0  0  0  0  0  0
    0.3663   -2.9029    4.5717 H   0  0  0  0  0  0  0  0  0  0  0  0
   -3.2162    2.4348   -0.3558 H   0  0  0  0  0  0  0  0  0  0  0  0
   -5.0065    1.4454   -1.6903 H   0  0  0  0  0  0  0  0  0  0  0  0
  1  2  1  0
  2  3  1  0
  3  4  2  0
  4  5  1  0
  5  6  2  0
  6  7  1  0
  7  8  2  0
  8  9  1  0
  9 10  1  0
 10 11  2  0
 10 12  1  0
 12 13  1  0
 13 14  1  0
 14 15  2  0
 14 16  1  0
 16 17  1  0
 17 18  1  0
 18 19  2  0
 19 20  1  0
 20 21  2  0
 21 22  1  0
 12 23  1  0
 23 24  1  0
 24 25  1  0
 25 26  2  0
 26 27  1  0
 26 28  1  0
 28 29  1  0
 29 30  1  0
 30 31  1  0
  6 32  1  0
 32 33  2  0
 33  3  1  0
 27  7  1  0
 22 18  1  0
 27 23  2  0
 31 25  1  0
  1 34  1  0
  1 35  1  0
  1 36  1  0
  4 37  1  0
  5 38  1  0
  9 39  1  0
  9 40  1  0
 13 41  1  0
 13 42  1  0
 16 43  1  0
 17 44  1  0
 17 45  1  0
 19 46  1  0
 20 47  1  0
 21 48  1  0
 28 49  1  0
 28 50  1  0
 29 51  1  0
 29 52  1  0
 30 53  1  0
 30 54  1  0
 31 55  1  0
 31 56  1  0
 32 57  1  0
 33 58  1  0
M  END
$$$$
