
     RDKit          3D

 31 32  0  0  0  0  0  0  0  0999 V2000
   -6.8322    0.2955    0.8281 N   0  0  0  0  0  0  0  0  0  0  0  0
   -5.4389    0.5284    0.8371 N   0  0  0  0  0  0  0  0  0  0  0  0
   -4.5994   -0.3300    0.1245 C   0  0  0  0  0  0  0  0  0  0  0  0
   -5.0340   -1.2432   -0.5743 O   0  0  0  0  0  0  0  0  0  0  0  0
   -3.1180   -0.0001    0.3130 C   0  0  0  0  0  0  0  0  0  0  0  0
   -2.2961   -0.8846   -0.4321 O   0  0  0  0  0  0  0  0  0  0  0  0
   -0.9447   -0.6974   -0.3546 C   0  0  0  0  0  0  0  0  0  0  0  0
   -0.1898   -1.5949   -1.1104 C   0  0  0  0  0  0  0  0  0  0  0  0
    1.2059   -1.5209   -1.1256 C   0  0  0  0  0  0  0  0  0  0  0  0
    1.8799   -0.5409   -0.3814 C   0  0  0  0  0  0  0  0  0  0  0  0
    3.3937   -0.4804   -0.4131 C   0  0  0  0  0  0  0  0  0  0  0  0
    4.1359   -0.7894    1.2269 S   0  0  0  0  0  0  0  0  0  0  0  0
    4.9631    0.8122    1.4008 C   0  0  0  0  0  0  0  0  0  0  0  0
    5.4239    1.2536    0.0271 C   0  0  0  0  0  0  0  0  0  0  0  0
    4.0115    1.0962   -1.0906 S   0  0  0  0  0  0  0  0  0  0  0  0
    1.1091    0.3577    0.3767 C   0  0  0  0  0  0  0  0  0  0  0  0
   -0.2895    0.2810    0.3904 C   0  0  0  0  0  0  0  0  0  0  0  0
   -7.1895    0.6212   -0.0768 H   0  0  0  0  0  0  0  0  0  0  0  0
   -6.9646   -0.7240    0.7671 H   0  0  0  0  0  0  0  0  0  0  0  0
   -5.0612    1.1815    1.5206 H   0  0  0  0  0  0  0  0  0  0  0  0
   -2.9678    1.0319   -0.0267 H   0  0  0  0  0  0  0  0  0  0  0  0
   -2.8969   -0.0913    1.3834 H   0  0  0  0  0  0  0  0  0  0  0  0
   -0.6943   -2.3613   -1.6948 H   0  0  0  0  0  0  0  0  0  0  0  0
    1.7594   -2.2391   -1.7272 H   0  0  0  0  0  0  0  0  0  0  0  0
    3.7757   -1.2681   -1.0713 H   0  0  0  0  0  0  0  0  0  0  0  0
    5.8114    0.7165    2.0853 H   0  0  0  0  0  0  0  0  0  0  0  0
    4.2627    1.5319    1.8391 H   0  0  0  0  0  0  0  0  0  0  0  0
    5.7698    2.2914    0.0449 H   0  0  0  0  0  0  0  0  0  0  0  0
    6.2480    0.6323   -0.3402 H   0  0  0  0  0  0  0  0  0  0  0  0
    1.5954    1.1317    0.9673 H   0  0  0  0  0  0  0  0  0  0  0  0
   -0.8283    1.0026    0.9941 H   0  0  0  0  0  0  0  0  0  0  0  0
  1  2  1  0
  2  3  1  0
  3  4  2  0
  3  5  1  0
  5  6  1  0
  6  7  1  0
  7  8  2  0
  8  9  1  0
  9 10  2  0
 10 11  1  0
 11 12  1  0
 12 13  1  0
 13 14  1  0
 14 15  1  0
 10 16  1  0
 16 17  2  0
 17  7  1  0
 15 11  1  0
  1 18  1  0
  1 19  1  0
  2 20  1  0
  5 21  1  0
  5 22  1  0
  8 23  1  0
  9 24  1  0
 11 25  1  0
 13 26  1  0
 13 27  1  0
 14 28  1  0
 14 29  1  0
 16 30  1  0
 17 31  1  0
M  END
$$$$
