
     RDKit          3D

 39 41  0  0  0  0  0  0  0  0999 V2000
   -4.7465   -2.8915   -1.7625 O   0  0  0  0  0  0  0  0  0  0  0  0
   -3.9208   -2.2781   -1.1120 C   0  0  0  0  0  0  0  0  0  0  0  0
   -2.6173   -2.6280   -1.1246 O   0  0  0  0  0  0  0  0  0  0  0  0
   -4.1818   -1.1848   -0.1496 C   0  0  0  0  0  0  0  0  0  0  0  0
   -5.2207   -1.3957    0.7175 N   0  0  0  0  0  0  0  0  0  0  0  0
   -5.4283   -0.4210    1.6302 C   0  0  0  0  0  0  0  0  0  0  0  0
   -4.6370    0.7138    1.6970 C   0  0  0  0  0  0  0  0  0  0  0  0
   -3.6074    0.9341    0.8470 N   0  0  0  0  0  0  0  0  0  0  0  0
   -3.3959   -0.0418   -0.0913 C   0  0  0  0  0  0  0  0  0  0  0  0
   -2.3732    0.2390   -1.1341 C   0  0  0  0  0  0  0  0  0  0  0  0
   -2.6938    0.0591   -2.3092 O   0  0  0  0  0  0  0  0  0  0  0  0
   -1.1086    0.6950   -0.7582 N   0  0  0  0  0  0  0  0  0  0  0  0
   -0.6328    0.7570    0.6304 C   0  0  0  0  0  0  0  0  0  0  0  0
    0.8475    1.1702    0.7689 C   0  0  0  0  0  0  0  0  0  0  0  0
    1.7117    0.3679   -0.1109 N   0  0  0  0  0  0  0  0  0  0  0  0
    3.0787    0.2574    0.1218 C   0  0  0  0  0  0  0  0  0  0  0  0
    3.8545   -0.7037   -0.5504 C   0  0  0  0  0  0  0  0  0  0  0  0
    5.2297   -0.8405   -0.3251 C   0  0  0  0  0  0  0  0  0  0  0  0
    5.8700   -0.0151    0.5901 C   0  0  0  0  0  0  0  0  0  0  0  0
    5.1319    0.9398    1.2783 C   0  0  0  0  0  0  0  0  0  0  0  0
    3.7559    1.0680    1.0471 C   0  0  0  0  0  0  0  0  0  0  0  0
    1.1931    0.0740   -1.4658 C   0  0  0  0  0  0  0  0  0  0  0  0
   -0.0822    0.8758   -1.7856 C   0  0  0  0  0  0  0  0  0  0  0  0
   -2.5819   -3.3499   -1.7886 H   0  0  0  0  0  0  0  0  0  0  0  0
   -6.2547   -0.5786    2.3152 H   0  0  0  0  0  0  0  0  0  0  0  0
   -4.8174    1.4857    2.4377 H   0  0  0  0  0  0  0  0  0  0  0  0
   -1.2469    1.4718    1.1849 H   0  0  0  0  0  0  0  0  0  0  0  0
   -0.7819   -0.2365    1.0702 H   0  0  0  0  0  0  0  0  0  0  0  0
    0.9603    2.2322    0.5176 H   0  0  0  0  0  0  0  0  0  0  0  0
    1.1244    1.0385    1.8216 H   0  0  0  0  0  0  0  0  0  0  0  0
    3.3893   -1.3891   -1.2537 H   0  0  0  0  0  0  0  0  0  0  0  0
    5.7925   -1.5988   -0.8627 H   0  0  0  0  0  0  0  0  0  0  0  0
    6.9365   -0.1176    0.7687 H   0  0  0  0  0  0  0  0  0  0  0  0
    5.6216    1.5917    1.9967 H   0  0  0  0  0  0  0  0  0  0  0  0
    3.2304    1.8407    1.5996 H   0  0  0  0  0  0  0  0  0  0  0  0
    0.9705   -0.9982   -1.5274 H   0  0  0  0  0  0  0  0  0  0  0  0
    1.9377    0.3159   -2.2342 H   0  0  0  0  0  0  0  0  0  0  0  0
   -0.4540    0.5931   -2.7754 H   0  0  0  0  0  0  0  0  0  0  0  0
    0.1468    1.9479   -1.8194 H   0  0  0  0  0  0  0  0  0  0  0  0
  1  2  2  0
  2  3  1  0
  2  4  1  0
  4  5  2  0
  5  6  1  0
  6  7  2  0
  7  8  1  0
  8  9  2  0
  9 10  1  0
 10 11  2  0
 10 12  1  0
 12 13  1  0
 13 14  1  0
 14 15  1  0
 15 16  1  0
 16 17  2  0
 17 18  1  0
 18 19  2  0
 19 20  1  0
 20 21  2  0
 15 22  1  0
 22 23  1  0
  9  4  1  0
 23 12  1  0
 21 16  1  0
  3 24  1  0
  6 25  1  0
  7 26  1  0
 13 27  1  0
 13 28  1  0
 14 29  1  0
 14 30  1  0
 17 31  1  0
 18 32  1  0
 19 33  1  0
 20 34  1  0
 21 35  1  0
 22 36  1  0
 22 37  1  0
 23 38  1  0
 23 39  1  0
M  END
$$$$
