
     RDKit          3D

 61 64  0  0  0  0  0  0  0  0999 V2000
    9.2882   -0.3101    1.2237 C   0  0  0  0  0  0  0  0  0  0  0  0
    7.9818   -0.9899    1.5481 C   0  0  0  0  0  0  0  0  0  0  0  0
    7.8163   -1.5586    2.6211 O   0  0  0  0  0  0  0  0  0  0  0  0
    7.0746   -0.8885    0.5075 N   0  0  0  0  0  0  0  0  0  0  0  0
    5.7621   -1.4017    0.4597 C   0  0  0  0  0  0  0  0  0  0  0  0
    5.1614   -2.1094    1.5051 C   0  0  0  0  0  0  0  0  0  0  0  0
    3.8512   -2.5839    1.3828 C   0  0  0  0  0  0  0  0  0  0  0  0
    3.1360   -2.3429    0.2095 C   0  0  0  0  0  0  0  0  0  0  0  0
    1.4766   -2.9532    0.0648 S   0  0  0  0  0  6  0  0  0  0  0  0
    1.4369   -4.2664    0.6728 O   0  0  0  0  0  0  0  0  0  0  0  0
    1.0265   -2.7552   -1.2962 O   0  0  0  0  0  0  0  0  0  0  0  0
    0.5913   -1.8897    1.0643 N   0  0  0  0  0  0  0  0  0  0  0  0
   -0.8378   -2.3162    1.2611 C   0  0  0  0  0  0  0  0  0  0  0  0
   -1.8012   -1.5524    0.3361 C   0  0  0  0  0  0  0  0  0  0  0  0
   -1.7780   -0.0815    0.5892 N   0  0  0  0  0  0  0  0  0  0  0  0
   -2.1441    0.6569   -0.4988 C   0  0  0  0  0  0  0  0  0  0  0  0
   -1.3398    1.2241   -1.3693 N   0  0  0  0  0  0  0  0  0  0  0  0
   -2.1555    1.8087   -2.3028 C   0  0  0  0  0  0  0  0  0  0  0  0
   -1.8138    2.5133   -3.4665 C   0  0  0  0  0  0  0  0  0  0  0  0
   -2.8385    3.0219   -4.2735 C   0  0  0  0  0  0  0  0  0  0  0  0
   -4.1776    2.8345   -3.9270 C   0  0  0  0  0  0  0  0  0  0  0  0
   -4.5379    2.1365   -2.7682 C   0  0  0  0  0  0  0  0  0  0  0  0
   -3.4970    1.6327   -1.9773 C   0  0  0  0  0  0  0  0  0  0  0  0
   -3.4632    0.9249   -0.7949 N   0  0  0  0  0  0  0  0  0  0  0  0
   -4.6246    0.5705   -0.0010 C   0  0  0  0  0  0  0  0  0  0  0  0
   -5.1939    1.7369    0.8262 C   0  0  0  0  0  0  0  0  0  0  0  0
   -6.5310    1.3254    1.4456 C   0  0  0  0  0  0  0  0  0  0  0  0
   -4.2302    2.1865    1.9259 C   0  0  0  0  0  0  0  0  0  0  0  0
   -0.5064    0.3723    1.2125 C   0  0  0  0  0  0  0  0  0  0  0  0
    0.7019   -0.4300    0.7020 C   0  0  0  0  0  0  0  0  0  0  0  0
    3.7233   -1.6494   -0.8484 C   0  0  0  0  0  0  0  0  0  0  0  0
    5.0326   -1.1778   -0.7170 C   0  0  0  0  0  0  0  0  0  0  0  0
    9.8056   -0.8659    0.4372 H   0  0  0  0  0  0  0  0  0  0  0  0
    9.9212   -0.2837    2.1154 H   0  0  0  0  0  0  0  0  0  0  0  0
    9.1084    0.7179    0.8966 H   0  0  0  0  0  0  0  0  0  0  0  0
    7.3863   -0.3876   -0.3158 H   0  0  0  0  0  0  0  0  0  0  0  0
    5.6869   -2.3132    2.4332 H   0  0  0  0  0  0  0  0  0  0  0  0
    3.3992   -3.1371    2.2036 H   0  0  0  0  0  0  0  0  0  0  0  0
   -1.0948   -2.1381    2.3127 H   0  0  0  0  0  0  0  0  0  0  0  0
   -0.9515   -3.3933    1.0994 H   0  0  0  0  0  0  0  0  0  0  0  0
   -1.5384   -1.7667   -0.7086 H   0  0  0  0  0  0  0  0  0  0  0  0
   -2.8184   -1.9240    0.5036 H   0  0  0  0  0  0  0  0  0  0  0  0
   -0.7709    2.6520   -3.7288 H   0  0  0  0  0  0  0  0  0  0  0  0
   -2.5845    3.5675   -5.1791 H   0  0  0  0  0  0  0  0  0  0  0  0
   -4.9574    3.2394   -4.5694 H   0  0  0  0  0  0  0  0  0  0  0  0
   -5.5807    1.9964   -2.5037 H   0  0  0  0  0  0  0  0  0  0  0  0
   -4.3693   -0.2685    0.6521 H   0  0  0  0  0  0  0  0  0  0  0  0
   -5.3784    0.1950   -0.7039 H   0  0  0  0  0  0  0  0  0  0  0  0
   -5.3788    2.5950    0.1694 H   0  0  0  0  0  0  0  0  0  0  0  0
   -6.9692    2.1526    2.0138 H   0  0  0  0  0  0  0  0  0  0  0  0
   -6.4092    0.4746    2.1248 H   0  0  0  0  0  0  0  0  0  0  0  0
   -7.2475    1.0402    0.6679 H   0  0  0  0  0  0  0  0  0  0  0  0
   -3.3042    2.5888    1.5028 H   0  0  0  0  0  0  0  0  0  0  0  0
   -4.6797    2.9780    2.5352 H   0  0  0  0  0  0  0  0  0  0  0  0
   -3.9703    1.3563    2.5911 H   0  0  0  0  0  0  0  0  0  0  0  0
   -0.6016    0.2450    2.2983 H   0  0  0  0  0  0  0  0  0  0  0  0
   -0.3428    1.4458    1.0522 H   0  0  0  0  0  0  0  0  0  0  0  0
    1.6102   -0.0356    1.1691 H   0  0  0  0  0  0  0  0  0  0  0  0
    0.7907   -0.3096   -0.3825 H   0  0  0  0  0  0  0  0  0  0  0  0
    3.1752   -1.4718   -1.7714 H   0  0  0  0  0  0  0  0  0  0  0  0
    5.4741   -0.6382   -1.5515 H   0  0  0  0  0  0  0  0  0  0  0  0
  1  2  1  0
  2  3  2  0
  2  4  1  0
  4  5  1  0
  5  6  2  0
  6  7  1  0
  7  8  2  0
  8  9  1  0
  9 10  2  0
  9 11  2  0
  9 12  1  0
 12 13  1  0
 13 14  1  0
 14 15  1  0
 15 16  1  0
 16 17  2  0
 17 18  1  0
 18 19  2  0
 19 20  1  0
 20 21  2  0
 21 22  1  0
 22 23  2  0
 23 24  1  0
 24 25  1  0
 25 26  1  0
 26 27  1  0
 26 28  1  0
 15 29  1  0
 29 30  1  0
  8 31  1  0
 31 32  2  0
 32  5  1  0
 30 12  1  0
 24 16  1  0
 23 18  1  0
  1 33  1  0
  1 34  1  0
  1 35  1  0
  4 36  1  0
  6 37  1  0
  7 38  1  0
 13 39  1  0
 13 40  1  0
 14 41  1  0
 14 42  1  0
 19 43  1  0
 20 44  1  0
 21 45  1  0
 22 46  1  0
 25 47  1  0
 25 48  1  0
 26 49  1  0
 27 50  1  0
 27 51  1  0
 27 52  1  0
 28 53  1  0
 28 54  1  0
 28 55  1  0
 29 56  1  0
 29 57  1  0
 30 58  1  0
 30 59  1  0
 31 60  1  0
 32 61  1  0
M  END
$$$$
