
     RDKit          3D

 48 52  0  0  0  0  0  0  0  0999 V2000
    5.1374   -0.8869   -2.4419 C   0  0  0  0  0  0  0  0  0  0  0  0
    3.9712   -0.5868   -1.5485 C   0  0  0  0  0  0  0  0  0  0  0  0
    2.7732   -0.1053   -2.0843 C   0  0  0  0  0  0  0  0  0  0  0  0
    1.6938    0.2000   -1.2503 C   0  0  0  0  0  0  0  0  0  0  0  0
    1.7927    0.0528    0.1441 C   0  0  0  0  0  0  0  0  0  0  0  0
    0.6547    0.3657    1.0920 C   0  0  0  0  0  0  0  0  0  0  0  0
    0.1865    1.7419    0.8090 C   0  0  0  0  0  0  0  0  0  0  0  0
   -1.1641    1.7453    0.4259 C   0  0  0  0  0  0  0  0  0  0  0  0
   -1.5703    3.0386    0.2450 C   0  0  0  0  0  0  0  0  0  0  0  0
   -2.7703    3.5042   -0.0785 O   0  0  0  0  0  0  0  0  0  0  0  0
   -0.4522    3.8299    0.4772 N   0  0  0  0  0  0  0  0  0  0  0  0
   -0.4163    5.2731    0.3931 C   0  0  0  0  0  0  0  0  0  0  0  0
    0.6339    3.0365    0.8126 C   0  0  0  0  0  0  0  0  0  0  0  0
    1.8276    3.5603    1.0585 O   0  0  0  0  0  0  0  0  0  0  0  0
   -1.7278    0.3810    0.3723 C   0  0  0  0  0  0  0  0  0  0  0  0
   -2.1026   -0.1041   -1.0242 C   0  0  0  0  0  0  0  0  0  0  0  0
   -2.1142    0.5994   -2.0364 O   0  0  0  0  0  0  0  0  0  0  0  0
   -2.5618   -1.3931   -1.1383 N   0  0  0  0  0  0  0  0  0  0  0  0
   -2.6850   -2.3798   -0.1443 C   0  0  0  0  0  0  0  0  0  0  0  0
   -3.6772   -3.3456   -0.3947 C   0  0  0  0  0  0  0  0  0  0  0  0
   -3.9413   -4.3689    0.5170 C   0  0  0  0  0  0  0  0  0  0  0  0
   -3.2011   -4.4581    1.6874 C   0  0  0  0  0  0  0  0  0  0  0  0
   -2.1849   -3.5349    1.9308 C   0  0  0  0  0  0  0  0  0  0  0  0
   -1.9082   -2.4921    1.0226 C   0  0  0  0  0  0  0  0  0  0  0  0
   -0.6847   -1.6939    1.3245 C   0  0  0  0  0  0  0  0  0  0  0  0
    0.1995   -2.2031    2.0123 O   0  0  0  0  0  0  0  0  0  0  0  0
   -0.5719   -0.4193    0.8332 N   0  0  0  0  0  0  0  0  0  0  0  0
    3.0017   -0.4311    0.6710 C   0  0  0  0  0  0  0  0  0  0  0  0
    4.0801   -0.7387   -0.1633 C   0  0  0  0  0  0  0  0  0  0  0  0
    5.7533    0.0090   -2.5668 H   0  0  0  0  0  0  0  0  0  0  0  0
    5.7565   -1.6863   -2.0213 H   0  0  0  0  0  0  0  0  0  0  0  0
    4.7985   -1.2239   -3.4272 H   0  0  0  0  0  0  0  0  0  0  0  0
    2.6661    0.0332   -3.1579 H   0  0  0  0  0  0  0  0  0  0  0  0
    0.7748    0.5659   -1.7049 H   0  0  0  0  0  0  0  0  0  0  0  0
    0.9426    0.2587    2.1442 H   0  0  0  0  0  0  0  0  0  0  0  0
   -2.7098    4.4479   -0.2975 H   0  0  0  0  0  0  0  0  0  0  0  0
   -1.2205    5.6756    1.0146 H   0  0  0  0  0  0  0  0  0  0  0  0
    0.5417    5.6543    0.7527 H   0  0  0  0  0  0  0  0  0  0  0  0
   -0.5597    5.5562   -0.6527 H   0  0  0  0  0  0  0  0  0  0  0  0
    2.4593    2.8191    1.1133 H   0  0  0  0  0  0  0  0  0  0  0  0
   -2.5704    0.2647    1.0621 H   0  0  0  0  0  0  0  0  0  0  0  0
   -2.9828   -1.5645   -2.0441 H   0  0  0  0  0  0  0  0  0  0  0  0
   -4.2806   -3.2978   -1.2995 H   0  0  0  0  0  0  0  0  0  0  0  0
   -4.7236   -5.0953    0.3099 H   0  0  0  0  0  0  0  0  0  0  0  0
   -3.3928   -5.2571    2.3995 H   0  0  0  0  0  0  0  0  0  0  0  0
   -1.5808   -3.6485    2.8309 H   0  0  0  0  0  0  0  0  0  0  0  0
    3.1072   -0.5888    1.7432 H   0  0  0  0  0  0  0  0  0  0  0  0
    5.0028   -1.1096    0.2775 H   0  0  0  0  0  0  0  0  0  0  0  0
  1  2  1  0
  2  3  2  0
  3  4  1  0
  4  5  2  0
  5  6  1  0
  6  7  1  0
  7  8  1  0
  8  9  2  0
  9 10  1  0
  9 11  1  0
 11 12  1  0
 11 13  1  0
 13 14  1  0
  8 15  1  0
 15 16  1  0
 16 17  2  0
 16 18  1  0
 18 19  1  0
 19 20  2  0
 20 21  1  0
 21 22  2  0
 22 23  1  0
 23 24  2  0
 24 25  1  0
 25 26  2  0
 25 27  1  0
  5 28  1  0
 28 29  2  0
 29  2  1  0
 27  6  1  0
 13  7  2  0
 27 15  1  0
 24 19  1  0
  1 30  1  0
  1 31  1  0
  1 32  1  0
  3 33  1  0
  4 34  1  0
  6 35  1  0
 10 36  1  0
 12 37  1  0
 12 38  1  0
 12 39  1  0
 14 40  1  0
 15 41  1  0
 18 42  1  0
 20 43  1  0
 21 44  1  0
 22 45  1  0
 23 46  1  0
 28 47  1  0
 29 48  1  0
M  END
$$$$
