
     RDKit          3D

 68 72  0  0  0  0  0  0  0  0999 V2000
    9.5802    2.0154   -0.6895 C   0  0  0  0  0  0  0  0  0  0  0  0
    8.7832    0.8707   -0.4117 O   0  0  0  0  0  0  0  0  0  0  0  0
    7.4282    1.0357   -0.4679 C   0  0  0  0  0  0  0  0  0  0  0  0
    6.6846   -0.0901   -0.1293 C   0  0  0  0  0  0  0  0  0  0  0  0
    5.2845   -0.0530   -0.1458 C   0  0  0  0  0  0  0  0  0  0  0  0
    4.5767    1.1046   -0.5072 C   0  0  0  0  0  0  0  0  0  0  0  0
    3.1790    1.1142   -0.4997 N   0  0  0  0  0  0  0  0  0  0  0  0
    2.4439    2.3749   -0.6698 C   0  0  0  0  0  0  0  0  0  0  0  0
    0.9776    2.2426   -0.1745 C   0  0  0  0  0  0  0  0  0  0  0  0
    0.2749    0.9617   -0.4473 N   0  0  0  0  0  0  0  0  0  0  0  0
    0.1392    0.1957    0.8105 C   0  0  0  0  0  0  0  0  0  0  0  0
   -0.6369   -1.0804    0.6343 C   0  0  0  0  0  0  0  0  0  0  0  0
   -0.1066   -2.2953    0.5919 N   0  0  0  0  0  0  0  0  0  0  0  0
   -1.1616   -3.1355    0.4318 C   0  0  0  0  0  0  0  0  0  0  0  0
   -2.3469   -2.4621    0.3758 C   0  0  0  0  0  0  0  0  0  0  0  0
   -3.5950   -3.1287    0.2348 C   0  0  0  0  0  0  0  0  0  0  0  0
   -4.6951   -2.5883    0.2247 O   0  0  0  0  0  0  0  0  0  0  0  0
   -3.4531   -4.4943    0.1258 N   0  0  0  0  0  0  0  0  0  0  0  0
   -2.2802   -5.2237    0.1881 C   0  0  0  0  0  0  0  0  0  0  0  0
   -2.3397   -6.4508    0.1100 O   0  0  0  0  0  0  0  0  0  0  0  0
   -1.0974   -4.5096    0.3418 N   0  0  0  0  0  0  0  0  0  0  0  0
    0.1778   -5.1947    0.4190 C   0  0  0  0  0  0  0  0  0  0  0  0
   -2.0125   -1.1395    0.4871 N   0  0  0  0  0  0  0  0  0  0  0  0
   -2.9342   -0.0169    0.4371 C   0  0  0  0  0  0  0  0  0  0  0  0
   -3.5711    0.2606    1.7989 C   0  0  0  0  0  0  0  0  0  0  0  0
   -4.4017    1.5479    1.8130 C   0  0  0  0  0  0  0  0  0  0  0  0
   -5.5299    1.5881    0.8116 C   0  0  0  0  0  0  0  0  0  0  0  0
   -5.6357    2.6602   -0.0859 C   0  0  0  0  0  0  0  0  0  0  0  0
   -6.6781    2.7109   -1.0139 C   0  0  0  0  0  0  0  0  0  0  0  0
   -7.6287    1.6937   -1.0516 C   0  0  0  0  0  0  0  0  0  0  0  0
   -7.5400    0.6283   -0.1589 C   0  0  0  0  0  0  0  0  0  0  0  0
   -6.4999    0.5773    0.7712 C   0  0  0  0  0  0  0  0  0  0  0  0
    1.0439    0.2007   -1.4611 C   0  0  0  0  0  0  0  0  0  0  0  0
    2.5217   -0.0775   -1.0902 C   0  0  0  0  0  0  0  0  0  0  0  0
    5.3493    2.2290   -0.8346 C   0  0  0  0  0  0  0  0  0  0  0  0
    6.7539    2.1990   -0.8224 C   0  0  0  0  0  0  0  0  0  0  0  0
   10.6294    1.7305   -0.5656 H   0  0  0  0  0  0  0  0  0  0  0  0
    9.4448    2.3462   -1.7242 H   0  0  0  0  0  0  0  0  0  0  0  0
    9.3707    2.8257    0.0159 H   0  0  0  0  0  0  0  0  0  0  0  0
    7.1925   -1.0067    0.1598 H   0  0  0  0  0  0  0  0  0  0  0  0
    4.7528   -0.9500    0.1591 H   0  0  0  0  0  0  0  0  0  0  0  0
    2.9047    3.1846   -0.0912 H   0  0  0  0  0  0  0  0  0  0  0  0
    2.4531    2.6666   -1.7278 H   0  0  0  0  0  0  0  0  0  0  0  0
    0.3956    3.0426   -0.6495 H   0  0  0  0  0  0  0  0  0  0  0  0
    0.9552    2.4763    0.8985 H   0  0  0  0  0  0  0  0  0  0  0  0
   -0.3947    0.8051    1.5517 H   0  0  0  0  0  0  0  0  0  0  0  0
    1.1145   -0.0358    1.2560 H   0  0  0  0  0  0  0  0  0  0  0  0
   -4.3008   -5.0299    0.0306 H   0  0  0  0  0  0  0  0  0  0  0  0
    0.0613   -6.2768    0.3125 H   0  0  0  0  0  0  0  0  0  0  0  0
    0.6365   -4.9861    1.3902 H   0  0  0  0  0  0  0  0  0  0  0  0
    0.8293   -4.8313   -0.3816 H   0  0  0  0  0  0  0  0  0  0  0  0
   -2.3889    0.8612    0.0792 H   0  0  0  0  0  0  0  0  0  0  0  0
   -3.6865   -0.2482   -0.3244 H   0  0  0  0  0  0  0  0  0  0  0  0
   -2.7855    0.3518    2.5604 H   0  0  0  0  0  0  0  0  0  0  0  0
   -4.1860   -0.5939    2.1055 H   0  0  0  0  0  0  0  0  0  0  0  0
   -4.8294    1.6905    2.8136 H   0  0  0  0  0  0  0  0  0  0  0  0
   -3.7270    2.3977    1.6469 H   0  0  0  0  0  0  0  0  0  0  0  0
   -4.9060    3.4663   -0.0720 H   0  0  0  0  0  0  0  0  0  0  0  0
   -6.7479    3.5450   -1.7071 H   0  0  0  0  0  0  0  0  0  0  0  0
   -8.4389    1.7306   -1.7747 H   0  0  0  0  0  0  0  0  0  0  0  0
   -8.2796   -0.1677   -0.1859 H   0  0  0  0  0  0  0  0  0  0  0  0
   -6.4522   -0.2668    1.4562 H   0  0  0  0  0  0  0  0  0  0  0  0
    0.5448   -0.7423   -1.7131 H   0  0  0  0  0  0  0  0  0  0  0  0
    1.0193    0.7783   -2.3958 H   0  0  0  0  0  0  0  0  0  0  0  0
    2.5588   -0.9066   -0.3742 H   0  0  0  0  0  0  0  0  0  0  0  0
    3.0451   -0.3938   -2.0020 H   0  0  0  0  0  0  0  0  0  0  0  0
    4.8788    3.1617   -1.1315 H   0  0  0  0  0  0  0  0  0  0  0  0
    7.2818    3.1044   -1.1000 H   0  0  0  0  0  0  0  0  0  0  0  0
  1  2  1  0
  2  3  1  0
  3  4  2  0
  4  5  1  0
  5  6  2  0
  6  7  1  0
  7  8  1  0
  8  9  1  0
  9 10  1  0
 10 11  1  0
 11 12  1  0
 12 13  2  0
 13 14  1  0
 14 15  2  0
 15 16  1  0
 16 17  2  0
 16 18  1  0
 18 19  1  0
 19 20  2  0
 19 21  1  0
 21 22  1  0
 15 23  1  0
 23 24  1  0
 24 25  1  0
 25 26  1  0
 26 27  1  0
 27 28  2  0
 28 29  1  0
 29 30  2  0
 30 31  1  0
 31 32  2  0
 10 33  1  0
 33 34  1  0
  6 35  1  0
 35 36  2  0
 36  3  1  0
 34  7  1  0
 23 12  1  0
 32 27  1  0
 21 14  1  0
  1 37  1  0
  1 38  1  0
  1 39  1  0
  4 40  1  0
  5 41  1  0
  8 42  1  0
  8 43  1  0
  9 44  1  0
  9 45  1  0
 11 46  1  0
 11 47  1  0
 18 48  1  0
 22 49  1  0
 22 50  1  0
 22 51  1  0
 24 52  1  0
 24 53  1  0
 25 54  1  0
 25 55  1  0
 26 56  1  0
 26 57  1  0
 28 58  1  0
 29 59  1  0
 30 60  1  0
 31 61  1  0
 32 62  1  0
 33 63  1  0
 33 64  1  0
 34 65  1  0
 34 66  1  0
 35 67  1  0
 36 68  1  0
M  END
$$$$
