
     RDKit          3D

 65 69  0  0  0  0  0  0  0  0999 V2000
    3.5550   -3.7216   -1.8780 C   0  0  0  0  0  0  0  0  0  0  0  0
    3.8065   -2.4506   -1.2911 O   0  0  0  0  0  0  0  0  0  0  0  0
    2.7242   -1.7185   -0.8799 C   0  0  0  0  0  0  0  0  0  0  0  0
    1.3923   -2.0801   -1.1052 C   0  0  0  0  0  0  0  0  0  0  0  0
    0.3421   -1.2765   -0.6466 C   0  0  0  0  0  0  0  0  0  0  0  0
    0.6012   -0.0892    0.0482 C   0  0  0  0  0  0  0  0  0  0  0  0
   -0.5168    0.8069    0.5865 C   0  0  0  0  0  0  0  0  0  0  0  0
   -1.3645    0.0429    1.6256 C   0  0  0  0  0  0  0  0  0  0  0  0
   -1.8680    0.9537    2.6717 C   0  0  0  0  0  0  0  0  0  0  0  0
   -2.2731    1.6742    3.4867 N   0  0  0  0  0  0  0  0  0  0  0  0
   -2.5691   -0.6267    0.9644 C   0  0  0  0  0  0  0  0  0  0  0  0
   -2.8238   -1.8793    1.2113 N   0  0  0  0  0  0  0  0  0  0  0  0
   -3.3426    0.1808    0.1186 N   0  0  0  0  0  0  0  0  0  0  0  0
   -4.6641   -0.2621   -0.2361 C   0  0  0  0  0  0  0  0  0  0  0  0
   -5.5991   -0.5224    0.7853 C   0  0  0  0  0  0  0  0  0  0  0  0
   -6.9019   -0.9243    0.4839 C   0  0  0  0  0  0  0  0  0  0  0  0
   -7.2960   -1.0761   -0.8420 C   0  0  0  0  0  0  0  0  0  0  0  0
   -6.3843   -0.8374   -1.8698 C   0  0  0  0  0  0  0  0  0  0  0  0
   -5.0711   -0.4375   -1.5764 C   0  0  0  0  0  0  0  0  0  0  0  0
   -4.1532   -0.2544   -2.6639 C   0  0  0  0  0  0  0  0  0  0  0  0
   -3.4039   -0.0930   -3.5367 N   0  0  0  0  0  0  0  0  0  0  0  0
   -2.8417    1.4050   -0.3674 C   0  0  0  0  0  0  0  0  0  0  0  0
   -3.6052    2.4860   -0.6365 C   0  0  0  0  0  0  0  0  0  0  0  0
   -3.0978    3.7806   -1.1984 C   0  0  0  0  0  0  0  0  0  0  0  0
   -1.7213    3.6575   -1.8230 C   0  0  0  0  0  0  0  0  0  0  0  0
   -0.8445    2.8534   -0.8996 C   0  0  0  0  0  0  0  0  0  0  0  0
    0.2239    3.3090   -0.4924 O   0  0  0  0  0  0  0  0  0  0  0  0
   -1.3281    1.4302   -0.5868 C   0  0  0  0  0  0  0  0  0  0  0  0
    1.9371    0.2792    0.2548 C   0  0  0  0  0  0  0  0  0  0  0  0
    3.0038   -0.5237   -0.1962 C   0  0  0  0  0  0  0  0  0  0  0  0
    4.4234   -0.0559    0.0685 C   0  0  0  0  0  0  0  0  0  0  0  0
    4.7131    0.0827    1.5025 N   0  0  0  0  0  0  0  0  0  0  0  0
    6.0142    0.7089    1.7371 C   0  0  0  0  0  0  0  0  0  0  0  0
    6.2603    0.4252    3.2105 C   0  0  0  0  0  0  0  0  0  0  0  0
    5.4870   -0.8567    3.5000 C   0  0  0  0  0  0  0  0  0  0  0  0
    4.7908   -1.2071    2.1924 C   0  0  0  0  0  0  0  0  0  0  0  0
    3.0311   -3.6163   -2.8333 H   0  0  0  0  0  0  0  0  0  0  0  0
    4.5211   -4.1929   -2.0797 H   0  0  0  0  0  0  0  0  0  0  0  0
    3.0045   -4.3744   -1.1928 H   0  0  0  0  0  0  0  0  0  0  0  0
    1.1312   -2.9843   -1.6455 H   0  0  0  0  0  0  0  0  0  0  0  0
   -0.6761   -1.5991   -0.8563 H   0  0  0  0  0  0  0  0  0  0  0  0
   -0.0178    1.6145    1.1406 H   0  0  0  0  0  0  0  0  0  0  0  0
   -0.7556   -0.7215    2.1253 H   0  0  0  0  0  0  0  0  0  0  0  0
   -2.1450   -2.2961    1.8571 H   0  0  0  0  0  0  0  0  0  0  0  0
   -5.3126   -0.4058    1.8290 H   0  0  0  0  0  0  0  0  0  0  0  0
   -7.6069   -1.1196    1.2888 H   0  0  0  0  0  0  0  0  0  0  0  0
   -8.3107   -1.3918   -1.0752 H   0  0  0  0  0  0  0  0  0  0  0  0
   -6.7000   -0.9775   -2.9026 H   0  0  0  0  0  0  0  0  0  0  0  0
   -4.6740    2.4647   -0.4297 H   0  0  0  0  0  0  0  0  0  0  0  0
   -3.8002    4.1467   -1.9559 H   0  0  0  0  0  0  0  0  0  0  0  0
   -3.0813    4.5216   -0.3900 H   0  0  0  0  0  0  0  0  0  0  0  0
   -1.2835    4.6475   -1.9848 H   0  0  0  0  0  0  0  0  0  0  0  0
   -1.7622    3.1454   -2.7912 H   0  0  0  0  0  0  0  0  0  0  0  0
   -1.1445    0.8677   -1.5131 H   0  0  0  0  0  0  0  0  0  0  0  0
    2.1741    1.2054    0.7805 H   0  0  0  0  0  0  0  0  0  0  0  0
    5.1630   -0.7044   -0.4157 H   0  0  0  0  0  0  0  0  0  0  0  0
    4.5252    0.9243   -0.4172 H   0  0  0  0  0  0  0  0  0  0  0  0
    6.0006    1.7837    1.5314 H   0  0  0  0  0  0  0  0  0  0  0  0
    6.8054    0.2444    1.1350 H   0  0  0  0  0  0  0  0  0  0  0  0
    5.8729    1.2403    3.8327 H   0  0  0  0  0  0  0  0  0  0  0  0
    7.3276    0.3151    3.4278 H   0  0  0  0  0  0  0  0  0  0  0  0
    4.7554   -0.6791    4.2963 H   0  0  0  0  0  0  0  0  0  0  0  0
    6.1503   -1.6638    3.8268 H   0  0  0  0  0  0  0  0  0  0  0  0
    3.8053   -1.6465    2.3759 H   0  0  0  0  0  0  0  0  0  0  0  0
    5.3982   -1.9314    1.6343 H   0  0  0  0  0  0  0  0  0  0  0  0
  1  2  1  0
  2  3  1  0
  3  4  2  0
  4  5  1  0
  5  6  2  0
  6  7  1  0
  7  8  1  0
  8  9  1  0
  9 10  3  0
  8 11  1  0
 11 12  2  3
 11 13  1  0
 13 14  1  0
 14 15  2  0
 15 16  1  0
 16 17  2  0
 17 18  1  0
 18 19  2  0
 19 20  1  0
 20 21  3  0
 13 22  1  0
 22 23  2  0
 23 24  1  0
 24 25  1  0
 25 26  1  0
 26 27  2  0
 26 28  1  0
  6 29  1  0
 29 30  2  0
 30 31  1  0
 31 32  1  0
 32 33  1  0
 33 34  1  0
 34 35  1  0
 35 36  1  0
 30  3  1  0
 36 32  1  0
 28  7  1  0
 19 14  1  0
 28 22  1  0
  1 37  1  0
  1 38  1  0
  1 39  1  0
  4 40  1  0
  5 41  1  0
  7 42  1  0
  8 43  1  0
 12 44  1  0
 15 45  1  0
 16 46  1  0
 17 47  1  0
 18 48  1  0
 23 49  1  0
 24 50  1  0
 24 51  1  0
 25 52  1  0
 25 53  1  0
 28 54  1  0
 29 55  1  0
 31 56  1  0
 31 57  1  0
 33 58  1  0
 33 59  1  0
 34 60  1  0
 34 61  1  0
 35 62  1  0
 35 63  1  0
 36 64  1  0
 36 65  1  0
M  END
$$$$
