
     RDKit          3D

 54 57  0  0  0  0  0  0  0  0999 V2000
   -2.8470    5.7379   -0.0169 C   0  0  0  0  0  0  0  0  0  0  0  0
   -2.3210    5.2080   -1.2274 O   0  0  0  0  0  0  0  0  0  0  0  0
   -1.7469    3.9688   -1.1588 C   0  0  0  0  0  0  0  0  0  0  0  0
   -1.5754    3.2057   -0.0056 C   0  0  0  0  0  0  0  0  0  0  0  0
   -0.9674    1.9468   -0.0777 C   0  0  0  0  0  0  0  0  0  0  0  0
   -0.5287    1.4243   -1.3043 C   0  0  0  0  0  0  0  0  0  0  0  0
    0.1542    0.0687   -1.4124 C   0  0  0  0  0  0  0  0  0  0  0  0
    1.6472    0.1824   -1.0994 C   0  0  0  0  0  0  0  0  0  0  0  0
    1.7054   -0.5503    0.2126 C   0  0  0  0  0  0  0  0  0  0  0  0
    2.9360   -0.5815    1.0363 C   0  0  0  0  0  0  0  0  0  0  0  0
    2.9012   -1.2125    2.2841 C   0  0  0  0  0  0  0  0  0  0  0  0
    4.0465   -1.2547    3.0789 C   0  0  0  0  0  0  0  0  0  0  0  0
    5.2333   -0.6688    2.6323 C   0  0  0  0  0  0  0  0  0  0  0  0
    5.2781   -0.0393    1.3878 C   0  0  0  0  0  0  0  0  0  0  0  0
    6.3717    0.5686    0.8337 O   0  0  0  0  0  0  0  0  0  0  0  0
    7.5711    0.5572    1.5987 C   0  0  0  0  0  0  0  0  0  0  0  0
    4.1273    0.0018    0.5929 C   0  0  0  0  0  0  0  0  0  0  0  0
    0.6135   -1.1698    0.5458 N   0  0  0  0  0  0  0  0  0  0  0  0
   -0.3133   -0.9050   -0.4219 N   0  0  0  0  0  0  0  0  0  0  0  0
   -1.5471   -1.5528   -0.4247 C   0  0  0  0  0  0  0  0  0  0  0  0
   -2.5128   -1.3337   -1.4217 C   0  0  0  0  0  0  0  0  0  0  0  0
   -3.7479   -1.9938   -1.4090 C   0  0  0  0  0  0  0  0  0  0  0  0
   -4.0339   -2.8990   -0.3888 C   0  0  0  0  0  0  0  0  0  0  0  0
   -5.5942   -3.7360   -0.3724 S   0  0  0  0  0  6  0  0  0  0  0  0
   -5.2470   -5.1043   -1.2935 N   0  0  0  0  0  0  0  0  0  0  0  0
   -5.8452   -4.2223    0.9649 O   0  0  0  0  0  0  0  0  0  0  0  0
   -6.5528   -2.9423   -1.1036 O   0  0  0  0  0  0  0  0  0  0  0  0
   -3.1093   -3.1321    0.6251 C   0  0  0  0  0  0  0  0  0  0  0  0
   -1.8803   -2.4648    0.5956 C   0  0  0  0  0  0  0  0  0  0  0  0
   -0.6969    2.2056   -2.4572 C   0  0  0  0  0  0  0  0  0  0  0  0
   -1.3016    3.4631   -2.3813 C   0  0  0  0  0  0  0  0  0  0  0  0
   -2.0534    5.8990    0.7202 H   0  0  0  0  0  0  0  0  0  0  0  0
   -3.2921    6.7112   -0.2439 H   0  0  0  0  0  0  0  0  0  0  0  0
   -3.6377    5.0961    0.3859 H   0  0  0  0  0  0  0  0  0  0  0  0
   -1.9021    3.5552    0.9680 H   0  0  0  0  0  0  0  0  0  0  0  0
   -0.8478    1.3686    0.8381 H   0  0  0  0  0  0  0  0  0  0  0  0
    0.0258   -0.3314   -2.4264 H   0  0  0  0  0  0  0  0  0  0  0  0
    2.2449   -0.3668   -1.8348 H   0  0  0  0  0  0  0  0  0  0  0  0
    2.0111    1.2099   -1.0138 H   0  0  0  0  0  0  0  0  0  0  0  0
    1.9834   -1.6726    2.6450 H   0  0  0  0  0  0  0  0  0  0  0  0
    4.0133   -1.7453    4.0487 H   0  0  0  0  0  0  0  0  0  0  0  0
    6.1026   -0.7223    3.2795 H   0  0  0  0  0  0  0  0  0  0  0  0
    7.4417    1.0948    2.5439 H   0  0  0  0  0  0  0  0  0  0  0  0
    7.9201   -0.4666    1.7693 H   0  0  0  0  0  0  0  0  0  0  0  0
    8.3403    1.0796    1.0215 H   0  0  0  0  0  0  0  0  0  0  0  0
    4.1898    0.4939   -0.3731 H   0  0  0  0  0  0  0  0  0  0  0  0
   -2.3288   -0.6304   -2.2289 H   0  0  0  0  0  0  0  0  0  0  0  0
   -4.4754   -1.7881   -2.1918 H   0  0  0  0  0  0  0  0  0  0  0  0
   -5.3334   -5.9291   -0.6970 H   0  0  0  0  0  0  0  0  0  0  0  0
   -4.3348   -5.0578   -1.7465 H   0  0  0  0  0  0  0  0  0  0  0  0
   -3.3268   -3.8179    1.4402 H   0  0  0  0  0  0  0  0  0  0  0  0
   -1.1665   -2.6558    1.3953 H   0  0  0  0  0  0  0  0  0  0  0  0
   -0.3615    1.8443   -3.4268 H   0  0  0  0  0  0  0  0  0  0  0  0
   -1.4293    4.0554   -3.2844 H   0  0  0  0  0  0  0  0  0  0  0  0
  1  2  1  0
  2  3  1  0
  3  4  2  0
  4  5  1  0
  5  6  2  0
  6  7  1  0
  7  8  1  0
  8  9  1  0
  9 10  1  0
 10 11  2  0
 11 12  1  0
 12 13  2  0
 13 14  1  0
 14 15  1  0
 15 16  1  0
 14 17  2  0
  9 18  2  0
 18 19  1  0
 19 20  1  0
 20 21  2  0
 21 22  1  0
 22 23  2  0
 23 24  1  0
 24 25  1  0
 24 26  2  0
 24 27  2  0
 23 28  1  0
 28 29  2  0
  6 30  1  0
 30 31  2  0
 31  3  1  0
 19  7  1  0
 29 20  1  0
 17 10  1  0
  1 32  1  0
  1 33  1  0
  1 34  1  0
  4 35  1  0
  5 36  1  0
  7 37  1  0
  8 38  1  0
  8 39  1  0
 11 40  1  0
 12 41  1  0
 13 42  1  0
 16 43  1  0
 16 44  1  0
 16 45  1  0
 17 46  1  0
 21 47  1  0
 22 48  1  0
 25 49  1  0
 25 50  1  0
 28 51  1  0
 29 52  1  0
 30 53  1  0
 31 54  1  0
M  END
$$$$
