
     RDKit          3D

 34 35  0  0  0  0  0  0  0  0999 V2000
   -3.1382   -1.9940    0.9718 C   0  0  0  0  0  0  0  0  0  0  0  0
   -2.3936   -1.0133    0.2580 O   0  0  0  0  0  0  0  0  0  0  0  0
   -2.9484   -0.4980   -0.8845 C   0  0  0  0  0  0  0  0  0  0  0  0
   -4.1174   -0.9962   -1.4754 C   0  0  0  0  0  0  0  0  0  0  0  0
   -4.6458   -0.3994   -2.6256 C   0  0  0  0  0  0  0  0  0  0  0  0
   -4.0134    0.7020   -3.1939 C   0  0  0  0  0  0  0  0  0  0  0  0
   -4.6752    1.4340   -4.6018 Cl  0  0  0  0  0  0  0  0  0  0  0  0
   -2.8490    1.2086   -2.6296 C   0  0  0  0  0  0  0  0  0  0  0  0
   -2.3047    0.6028   -1.4848 C   0  0  0  0  0  0  0  0  0  0  0  0
   -1.0603    1.2105   -0.9539 C   0  0  0  0  0  0  0  0  0  0  0  0
   -0.8527    2.4150   -0.9994 O   0  0  0  0  0  0  0  0  0  0  0  0
   -0.2303    0.2231   -0.5166 O   0  0  0  0  0  0  0  0  0  0  0  0
    1.0009    0.7639   -0.0999 N   0  0  0  0  0  0  0  0  0  0  0  0
    1.6922   -0.1158    0.5626 C   0  0  0  0  0  0  0  0  0  0  0  0
    1.2291   -1.3871    0.8268 N   0  0  0  0  0  0  0  0  0  0  0  0
    3.0402    0.2904    1.0759 C   0  0  0  0  0  0  0  0  0  0  0  0
    3.3659    1.6499    1.1794 C   0  0  0  0  0  0  0  0  0  0  0  0
    4.6184    2.0394    1.6622 C   0  0  0  0  0  0  0  0  0  0  0  0
    5.5474    1.0704    2.0362 C   0  0  0  0  0  0  0  0  0  0  0  0
    7.0895    1.5479    2.6306 Cl  0  0  0  0  0  0  0  0  0  0  0  0
    5.2373   -0.2849    1.9281 C   0  0  0  0  0  0  0  0  0  0  0  0
    3.9843   -0.6767    1.4464 C   0  0  0  0  0  0  0  0  0  0  0  0
   -4.1247   -1.6145    1.2577 H   0  0  0  0  0  0  0  0  0  0  0  0
   -2.5905   -2.2232    1.8910 H   0  0  0  0  0  0  0  0  0  0  0  0
   -3.2195   -2.9204    0.3942 H   0  0  0  0  0  0  0  0  0  0  0  0
   -4.6487   -1.8504   -1.0667 H   0  0  0  0  0  0  0  0  0  0  0  0
   -5.5553   -0.7982   -3.0691 H   0  0  0  0  0  0  0  0  0  0  0  0
   -2.3564    2.0712   -3.0752 H   0  0  0  0  0  0  0  0  0  0  0  0
    1.4434   -1.7333    1.7550 H   0  0  0  0  0  0  0  0  0  0  0  0
    0.2342   -1.4570    0.6254 H   0  0  0  0  0  0  0  0  0  0  0  0
    2.6463    2.4125    0.8860 H   0  0  0  0  0  0  0  0  0  0  0  0
    4.8594    3.0964    1.7391 H   0  0  0  0  0  0  0  0  0  0  0  0
    5.9677   -1.0395    2.2083 H   0  0  0  0  0  0  0  0  0  0  0  0
    3.7678   -1.7361    1.3417 H   0  0  0  0  0  0  0  0  0  0  0  0
  1  2  1  0
  2  3  1  0
  3  4  2  0
  4  5  1  0
  5  6  2  0
  6  7  1  0
  6  8  1  0
  8  9  2  0
  9 10  1  0
 10 11  2  0
 10 12  1  0
 12 13  1  0
 13 14  2  3
 14 15  1  0
 14 16  1  0
 16 17  2  0
 17 18  1  0
 18 19  2  0
 19 20  1  0
 19 21  1  0
 21 22  2  0
  9  3  1  0
 22 16  1  0
  1 23  1  0
  1 24  1  0
  1 25  1  0
  4 26  1  0
  5 27  1  0
  8 28  1  0
 15 29  1  0
 15 30  1  0
 17 31  1  0
 18 32  1  0
 21 33  1  0
 22 34  1  0
M  END
$$$$
