
     RDKit          3D

 57 59  0  0  0  0  0  0  0  0999 V2000
    5.0549   -3.4151   -0.9734 C   0  0  0  0  0  0  0  0  0  0  0  0
    3.5262   -3.4455   -0.9395 C   0  0  0  0  0  0  0  0  0  0  0  0
    2.9487   -2.7437   -2.1693 C   0  0  0  0  0  0  0  0  0  0  0  0
    2.9534   -2.9035    0.3842 C   0  0  0  0  0  0  0  0  0  0  0  0
    3.1730   -1.4491    0.6333 C   0  0  0  0  0  0  0  0  0  0  0  0
    2.3030   -0.3699    0.3483 C   0  0  0  0  0  0  0  0  0  0  0  0
    2.9803    0.7430    0.7892 C   0  0  0  0  0  0  0  0  0  0  0  0
    2.7259    2.2009    0.8042 C   0  0  0  0  0  0  0  0  0  0  0  0
    1.3017    2.4671    0.7587 N   0  0  0  0  0  0  0  0  0  0  0  0
    0.5816    2.7275    1.8997 C   0  0  0  0  0  0  0  0  0  0  0  0
    1.0888    2.7512    3.0173 O   0  0  0  0  0  0  0  0  0  0  0  0
   -0.9085    2.9639    1.7144 C   0  0  0  0  0  0  0  0  0  0  0  0
   -1.2151    4.0734    0.7181 C   0  0  0  0  0  0  0  0  0  0  0  0
   -2.7120    4.3235    0.7044 C   0  0  0  0  0  0  0  0  0  0  0  0
   -3.5479    3.0741    0.4962 C   0  0  0  0  0  0  0  0  0  0  0  0
   -4.6766    3.1709    0.0132 O   0  0  0  0  0  0  0  0  0  0  0  0
   -3.0265    1.8736    0.9615 N   0  0  0  0  0  0  0  0  0  0  0  0
   -3.8339    0.6638    0.8028 C   0  0  0  0  0  0  0  0  0  0  0  0
   -3.4944   -0.1033   -0.4564 C   0  0  0  0  0  0  0  0  0  0  0  0
   -3.9945    0.3139   -1.6971 C   0  0  0  0  0  0  0  0  0  0  0  0
   -3.6720   -0.3794   -2.8632 C   0  0  0  0  0  0  0  0  0  0  0  0
   -2.8380   -1.4954   -2.8056 C   0  0  0  0  0  0  0  0  0  0  0  0
   -2.3155   -1.9278   -1.5786 C   0  0  0  0  0  0  0  0  0  0  0  0
   -1.4145   -3.1343   -1.4993 C   0  0  0  0  0  0  0  0  0  0  0  0
   -0.3376   -2.9180   -0.6908 F   0  0  0  0  0  0  0  0  0  0  0  0
   -0.8997   -3.5123   -2.7021 F   0  0  0  0  0  0  0  0  0  0  0  0
   -2.0456   -4.2288   -0.9957 F   0  0  0  0  0  0  0  0  0  0  0  0
   -2.6564   -1.2280   -0.4080 C   0  0  0  0  0  0  0  0  0  0  0  0
   -1.6066    1.6901    1.2662 C   0  0  0  0  0  0  0  0  0  0  0  0
    4.1790    0.3529    1.3032 O   0  0  0  0  0  0  0  0  0  0  0  0
    4.2993   -1.0203    1.2141 N   0  0  0  0  0  0  0  0  0  0  0  0
    5.4426   -2.3924   -0.9999 H   0  0  0  0  0  0  0  0  0  0  0  0
    5.4735   -3.9188   -0.0968 H   0  0  0  0  0  0  0  0  0  0  0  0
    5.4294   -3.9327   -1.8631 H   0  0  0  0  0  0  0  0  0  0  0  0
    3.2266   -4.5006   -1.0004 H   0  0  0  0  0  0  0  0  0  0  0  0
    3.2692   -3.2520   -3.0856 H   0  0  0  0  0  0  0  0  0  0  0  0
    1.8544   -2.7577   -2.1480 H   0  0  0  0  0  0  0  0  0  0  0  0
    3.2792   -1.7023   -2.2369 H   0  0  0  0  0  0  0  0  0  0  0  0
    3.3741   -3.4787    1.2196 H   0  0  0  0  0  0  0  0  0  0  0  0
    1.8747   -3.1008    0.4066 H   0  0  0  0  0  0  0  0  0  0  0  0
    1.3289   -0.4087   -0.1147 H   0  0  0  0  0  0  0  0  0  0  0  0
    3.1686    2.6626   -0.0844 H   0  0  0  0  0  0  0  0  0  0  0  0
    3.1690    2.6667    1.6910 H   0  0  0  0  0  0  0  0  0  0  0  0
    0.8502    2.4333   -0.1440 H   0  0  0  0  0  0  0  0  0  0  0  0
   -1.3055    3.2610    2.6953 H   0  0  0  0  0  0  0  0  0  0  0  0
   -0.6833    4.9932    0.9881 H   0  0  0  0  0  0  0  0  0  0  0  0
   -0.8833    3.7991   -0.2907 H   0  0  0  0  0  0  0  0  0  0  0  0
   -3.0304    4.7754    1.6510 H   0  0  0  0  0  0  0  0  0  0  0  0
   -2.9480    5.0305   -0.0990 H   0  0  0  0  0  0  0  0  0  0  0  0
   -4.9020    0.9135    0.7957 H   0  0  0  0  0  0  0  0  0  0  0  0
   -3.6780    0.0355    1.6885 H   0  0  0  0  0  0  0  0  0  0  0  0
   -4.6463    1.1851   -1.7589 H   0  0  0  0  0  0  0  0  0  0  0  0
   -4.0751   -0.0476   -3.8176 H   0  0  0  0  0  0  0  0  0  0  0  0
   -2.5979   -2.0272   -3.7256 H   0  0  0  0  0  0  0  0  0  0  0  0
   -2.2602   -1.5662    0.5499 H   0  0  0  0  0  0  0  0  0  0  0  0
   -1.1327    1.2873    0.3632 H   0  0  0  0  0  0  0  0  0  0  0  0
   -1.5183    0.9273    2.0494 H   0  0  0  0  0  0  0  0  0  0  0  0
  1  2  1  0
  2  3  1  0
  2  4  1  0
  4  5  1  0
  5  6  1  0
  6  7  2  0
  7  8  1  0
  8  9  1  0
  9 10  1  0
 10 11  2  0
 10 12  1  0
 12 13  1  0
 13 14  1  0
 14 15  1  0
 15 16  2  0
 15 17  1  0
 17 18  1  0
 18 19  1  0
 19 20  2  0
 20 21  1  0
 21 22  2  0
 22 23  1  0
 23 24  1  0
 24 25  1  0
 24 26  1  0
 24 27  1  0
 23 28  2  0
 17 29  1  0
  7 30  1  0
 30 31  1  0
 31  5  2  0
 29 12  1  0
 28 19  1  0
  1 32  1  0
  1 33  1  0
  1 34  1  0
  2 35  1  0
  3 36  1  0
  3 37  1  0
  3 38  1  0
  4 39  1  0
  4 40  1  0
  6 41  1  0
  8 42  1  0
  8 43  1  0
  9 44  1  0
 12 45  1  0
 13 46  1  0
 13 47  1  0
 14 48  1  0
 14 49  1  0
 18 50  1  0
 18 51  1  0
 20 52  1  0
 21 53  1  0
 22 54  1  0
 28 55  1  0
 29 56  1  0
 29 57  1  0
M  END
$$$$
