
     RDKit          3D

 50 53  0  0  0  0  0  0  0  0999 V2000
   -3.3188   -1.8514    1.8949 C   0  0  0  0  0  0  0  0  0  0  0  0
   -2.1705   -1.1324    1.4663 O   0  0  0  0  0  0  0  0  0  0  0  0
   -2.2561   -0.6986    0.1596 C   0  0  0  0  0  0  0  0  0  0  0  0
   -1.1494   -0.1454   -0.3023 N   0  0  0  0  0  0  0  0  0  0  0  0
   -1.2277    0.2739   -1.5572 C   0  0  0  0  0  0  0  0  0  0  0  0
   -0.1070    0.8854   -2.1769 N   0  0  0  0  0  0  0  0  0  0  0  0
    1.1487    0.4075   -1.8772 N   0  0  0  0  0  0  0  0  0  0  0  0
    1.6164    0.8028   -0.7318 C   0  0  0  0  0  0  0  0  0  0  0  0
    2.9121    0.3812   -0.2828 C   0  0  0  0  0  0  0  0  0  0  0  0
    3.8593   -0.4548   -0.8354 C   0  0  0  0  0  0  0  0  0  0  0  0
    4.9491   -0.4870    0.0693 C   0  0  0  0  0  0  0  0  0  0  0  0
    4.6079    0.3263    1.1322 C   0  0  0  0  0  0  0  0  0  0  0  0
    5.2511    0.7325    2.3805 C   0  0  0  0  0  0  0  0  0  0  0  0
    5.0231    2.0280    2.8791 C   0  0  0  0  0  0  0  0  0  0  0  0
    5.6359    2.4775    4.0563 C   0  0  0  0  0  0  0  0  0  0  0  0
    6.4940    1.6417    4.7682 C   0  0  0  0  0  0  0  0  0  0  0  0
    6.7366    0.3511    4.3079 C   0  0  0  0  0  0  0  0  0  0  0  0
    6.1115   -0.0844    3.1282 C   0  0  0  0  0  0  0  0  0  0  0  0
    6.3709   -1.4471    2.7259 N   0  0  0  0  0  4  0  0  0  0  0  0
    7.4591   -1.6701    2.1787 O   0  0  0  0  0  0  0  0  0  0  0  0
    5.5012   -2.2887    2.9820 O   0  0  0  0  0  1  0  0  0  0  0  0
    3.3694    0.8635    0.9103 O   0  0  0  0  0  0  0  0  0  0  0  0
   -2.3240    0.1859   -2.3061 N   0  0  0  0  0  0  0  0  0  0  0  0
   -3.3943   -0.3732   -1.7485 C   0  0  0  0  0  0  0  0  0  0  0  0
   -4.5396   -0.5024   -2.5055 N   0  0  0  0  0  0  0  0  0  0  0  0
   -5.8254   -0.7460   -1.8454 C   0  0  0  0  0  0  0  0  0  0  0  0
   -6.8823    0.2397   -2.3717 C   0  0  0  0  0  0  0  0  0  0  0  0
   -7.0785    0.1837   -3.7926 O   0  0  0  0  0  0  0  0  0  0  0  0
   -5.9051   -0.2121   -4.5193 C   0  0  0  0  0  0  0  0  0  0  0  0
   -4.5887    0.1506   -3.8150 C   0  0  0  0  0  0  0  0  0  0  0  0
   -3.3971   -0.8337   -0.5054 N   0  0  0  0  0  0  0  0  0  0  0  0
   -3.1368   -2.1914    2.9191 H   0  0  0  0  0  0  0  0  0  0  0  0
   -3.4885   -2.7393    1.2757 H   0  0  0  0  0  0  0  0  0  0  0  0
   -4.2061   -1.2090    1.9119 H   0  0  0  0  0  0  0  0  0  0  0  0
   -0.3400    0.8540   -3.1698 H   0  0  0  0  0  0  0  0  0  0  0  0
    1.0500    1.4829   -0.0702 H   0  0  0  0  0  0  0  0  0  0  0  0
    3.7671   -0.9744   -1.7796 H   0  0  0  0  0  0  0  0  0  0  0  0
    5.8709   -1.0382   -0.0587 H   0  0  0  0  0  0  0  0  0  0  0  0
    4.3636    2.7110    2.3440 H   0  0  0  0  0  0  0  0  0  0  0  0
    5.4397    3.4862    4.4142 H   0  0  0  0  0  0  0  0  0  0  0  0
    6.9667    1.9961    5.6813 H   0  0  0  0  0  0  0  0  0  0  0  0
    7.3988   -0.3078    4.8654 H   0  0  0  0  0  0  0  0  0  0  0  0
   -5.7787   -0.6458   -0.7554 H   0  0  0  0  0  0  0  0  0  0  0  0
   -6.1355   -1.7722   -2.0740 H   0  0  0  0  0  0  0  0  0  0  0  0
   -7.8498    0.0413   -1.8995 H   0  0  0  0  0  0  0  0  0  0  0  0
   -6.6007    1.2685   -2.1176 H   0  0  0  0  0  0  0  0  0  0  0  0
   -5.9515    0.2654   -5.5031 H   0  0  0  0  0  0  0  0  0  0  0  0
   -5.9658   -1.2952   -4.6782 H   0  0  0  0  0  0  0  0  0  0  0  0
   -4.5321    1.2388   -3.6877 H   0  0  0  0  0  0  0  0  0  0  0  0
   -3.7529   -0.1752   -4.4453 H   0  0  0  0  0  0  0  0  0  0  0  0
  1  2  1  0
  2  3  1  0
  3  4  2  0
  4  5  1  0
  5  6  1  0
  6  7  1  0
  7  8  2  3
  8  9  1  0
  9 10  2  0
 10 11  1  0
 11 12  2  0
 12 13  1  0
 13 14  2  0
 14 15  1  0
 15 16  2  0
 16 17  1  0
 17 18  2  0
 18 19  1  0
 19 20  2  0
 19 21  1  0
 12 22  1  0
  5 23  2  0
 23 24  1  0
 24 25  1  0
 25 26  1  0
 26 27  1  0
 27 28  1  0
 28 29  1  0
 29 30  1  0
 24 31  2  0
 31  3  1  0
 22  9  1  0
 30 25  1  0
 18 13  1  0
  1 32  1  0
  1 33  1  0
  1 34  1  0
  6 35  1  0
  8 36  1  0
 10 37  1  0
 11 38  1  0
 14 39  1  0
 15 40  1  0
 16 41  1  0
 17 42  1  0
 26 43  1  0
 26 44  1  0
 27 45  1  0
 27 46  1  0
 29 47  1  0
 29 48  1  0
 30 49  1  0
 30 50  1  0
M  CHG  2  19   1  21  -1
M  END
$$$$
