
     RDKit          3D

 50 53  0  0  0  0  0  0  0  0999 V2000
    7.1129   -0.0564   -2.1425 C   0  0  0  0  0  0  0  0  0  0  0  0
    5.9842    0.1370   -1.1792 C   0  0  0  0  0  0  0  0  0  0  0  0
    4.6653    0.1688   -1.6288 C   0  0  0  0  0  0  0  0  0  0  0  0
    3.6047    0.3408   -0.8038 N   0  0  0  0  0  0  0  0  0  0  0  0
    3.9258    0.4857    0.5144 C   0  0  0  0  0  0  0  0  0  0  0  0
    2.8001    0.6768    1.4703 C   0  0  0  0  0  0  0  0  0  0  0  0
    2.9933    0.7823    2.6752 O   0  0  0  0  0  0  0  0  0  0  0  0
    1.5563    0.7139    0.8818 N   0  0  0  0  0  0  0  0  0  0  0  0
    0.3316    0.7990    1.6441 C   0  0  0  0  0  0  0  0  0  0  0  0
   -0.0462   -0.5490    2.3041 C   0  0  0  0  0  0  0  0  0  0  0  0
   -0.7795   -1.5630    1.3695 C   0  0  0  0  0  0  0  0  0  0  0  0
    0.1488   -2.0667    0.2458 C   0  0  0  0  0  0  0  0  0  0  0  0
   -1.1933   -2.7865    2.2130 C   0  0  0  0  0  0  0  0  0  0  0  0
   -2.0640   -0.9242    0.7548 C   0  0  0  0  0  0  0  0  0  0  0  0
   -1.8292    0.4875    0.3285 C   0  0  0  0  0  0  0  0  0  0  0  0
   -0.7474    1.2539    0.7262 C   0  0  0  0  0  0  0  0  0  0  0  0
   -0.9039    2.4696    0.0545 C   0  0  0  0  0  0  0  0  0  0  0  0
   -1.9834    2.4823   -0.7220 N   0  0  0  0  0  0  0  0  0  0  0  0
   -2.6020    1.2811   -0.5131 N   0  0  0  0  0  0  0  0  0  0  0  0
   -3.8635    1.0399   -1.1440 C   0  0  0  0  0  0  0  0  0  0  0  0
   -4.6903   -0.0372   -0.8063 C   0  0  0  0  0  0  0  0  0  0  0  0
   -5.9154   -0.2238   -1.4588 C   0  0  0  0  0  0  0  0  0  0  0  0
   -6.3315    0.6643   -2.4472 C   0  0  0  0  0  0  0  0  0  0  0  0
   -5.5283    1.7492   -2.7818 C   0  0  0  0  0  0  0  0  0  0  0  0
   -4.3057    1.9393   -2.1324 C   0  0  0  0  0  0  0  0  0  0  0  0
    5.2323    0.4545    0.9730 C   0  0  0  0  0  0  0  0  0  0  0  0
    6.2874    0.2793    0.1360 N   0  0  0  0  0  0  0  0  0  0  0  0
    8.0750   -0.0558   -1.6201 H   0  0  0  0  0  0  0  0  0  0  0  0
    7.0076   -1.0140   -2.6616 H   0  0  0  0  0  0  0  0  0  0  0  0
    7.1246    0.7528   -2.8791 H   0  0  0  0  0  0  0  0  0  0  0  0
    4.4244    0.0551   -2.6813 H   0  0  0  0  0  0  0  0  0  0  0  0
    1.5242    0.5648   -0.1239 H   0  0  0  0  0  0  0  0  0  0  0  0
    0.4859    1.5419    2.4365 H   0  0  0  0  0  0  0  0  0  0  0  0
    0.8410   -1.0198    2.7464 H   0  0  0  0  0  0  0  0  0  0  0  0
   -0.7204   -0.3243    3.1437 H   0  0  0  0  0  0  0  0  0  0  0  0
    1.1014   -2.4244    0.6520 H   0  0  0  0  0  0  0  0  0  0  0  0
   -0.3116   -2.9006   -0.2971 H   0  0  0  0  0  0  0  0  0  0  0  0
    0.3652   -1.2930   -0.4958 H   0  0  0  0  0  0  0  0  0  0  0  0
   -1.8457   -2.4945    3.0436 H   0  0  0  0  0  0  0  0  0  0  0  0
   -1.7368   -3.5200    1.6067 H   0  0  0  0  0  0  0  0  0  0  0  0
   -0.3166   -3.2871    2.6391 H   0  0  0  0  0  0  0  0  0  0  0  0
   -2.8575   -0.9194    1.5128 H   0  0  0  0  0  0  0  0  0  0  0  0
   -2.3972   -1.5375   -0.0898 H   0  0  0  0  0  0  0  0  0  0  0  0
   -0.2639    3.3426    0.0794 H   0  0  0  0  0  0  0  0  0  0  0  0
   -4.4480   -0.7379   -0.0195 H   0  0  0  0  0  0  0  0  0  0  0  0
   -6.5518   -1.0620   -1.1849 H   0  0  0  0  0  0  0  0  0  0  0  0
   -7.2842    0.5164   -2.9488 H   0  0  0  0  0  0  0  0  0  0  0  0
   -5.8492    2.4519   -3.5464 H   0  0  0  0  0  0  0  0  0  0  0  0
   -3.6992    2.7978   -2.4181 H   0  0  0  0  0  0  0  0  0  0  0  0
    5.4736    0.5689    2.0244 H   0  0  0  0  0  0  0  0  0  0  0  0
  1  2  1  0
  2  3  2  0
  3  4  1  0
  4  5  2  0
  5  6  1  0
  6  7  2  0
  6  8  1  0
  8  9  1  0
  9 10  1  0
 10 11  1  0
 11 12  1  0
 11 13  1  0
 11 14  1  0
 14 15  1  0
 15 16  2  0
 16 17  1  0
 17 18  2  0
 18 19  1  0
 19 20  1  0
 20 21  2  0
 21 22  1  0
 22 23  2  0
 23 24  1  0
 24 25  2  0
  5 26  1  0
 26 27  2  0
 27  2  1  0
 16  9  1  0
 25 20  1  0
 19 15  1  0
  1 28  1  0
  1 29  1  0
  1 30  1  0
  3 31  1  0
  8 32  1  0
  9 33  1  0
 10 34  1  0
 10 35  1  0
 12 36  1  0
 12 37  1  0
 12 38  1  0
 13 39  1  0
 13 40  1  0
 13 41  1  0
 14 42  1  0
 14 43  1  0
 17 44  1  0
 21 45  1  0
 22 46  1  0
 23 47  1  0
 24 48  1  0
 25 49  1  0
 26 50  1  0
M  END
$$$$
