
     RDKit          3D

 48 48  0  0  0  0  0  0  0  0999 V2000
   -7.6314   -0.3117    0.7046 C   0  0  0  0  0  0  0  0  0  0  0  0
   -6.4234    0.5929    0.8944 C   0  0  0  0  0  0  0  0  0  0  0  0
   -5.8529    1.0502   -0.4498 C   0  0  0  0  0  0  0  0  0  0  0  0
   -4.6376    1.9727   -0.3043 C   0  0  0  0  0  0  0  0  0  0  0  0
   -3.2812    1.2691   -0.4334 C   0  0  0  0  0  0  0  0  0  0  0  0
   -2.9975    0.2514    0.6716 C   0  0  0  0  0  0  0  0  0  0  0  0
   -1.5474   -0.2454    0.6784 C   0  0  0  0  0  0  0  0  0  0  0  0
   -1.1781   -1.0523   -0.5711 C   0  0  0  0  0  0  0  0  0  0  0  0
    0.2310   -1.6401   -0.4861 C   0  0  0  0  0  0  0  0  0  0  0  0
    1.3349   -0.6111   -0.6720 C   0  0  0  0  0  0  0  0  0  0  0  0
    1.1224    0.5495   -1.0080 O   0  0  0  0  0  0  0  0  0  0  0  0
    2.5893   -1.1615   -0.4315 N   0  0  0  0  0  0  0  0  0  0  0  0
    3.7010   -0.3980   -0.6025 N   0  0  0  0  0  0  0  0  0  0  0  0
    4.8738   -0.8937   -0.3351 C   0  0  0  0  0  0  0  0  0  0  0  0
    5.0930   -2.2886    0.2144 C   0  0  0  0  0  0  0  0  0  0  0  0
    6.0655   -0.0312   -0.5836 C   0  0  0  0  0  0  0  0  0  0  0  0
    5.9283    1.3596   -0.6051 C   0  0  0  0  0  0  0  0  0  0  0  0
    7.0431    2.1598   -0.8454 C   0  0  0  0  0  0  0  0  0  0  0  0
    8.2623    1.5396   -1.0627 C   0  0  0  0  0  0  0  0  0  0  0  0
    8.4323    0.1991   -1.0615 N   0  0  0  0  0  0  0  0  0  0  0  0
    7.3284   -0.5548   -0.8309 C   0  0  0  0  0  0  0  0  0  0  0  0
   -8.4282    0.2057    0.1608 H   0  0  0  0  0  0  0  0  0  0  0  0
   -8.0294   -0.6212    1.6761 H   0  0  0  0  0  0  0  0  0  0  0  0
   -7.3617   -1.2132    0.1452 H   0  0  0  0  0  0  0  0  0  0  0  0
   -5.6687    0.0562    1.4762 H   0  0  0  0  0  0  0  0  0  0  0  0
   -6.7219    1.4670    1.4851 H   0  0  0  0  0  0  0  0  0  0  0  0
   -5.6072    0.1856   -1.0776 H   0  0  0  0  0  0  0  0  0  0  0  0
   -6.6398    1.6045   -0.9777 H   0  0  0  0  0  0  0  0  0  0  0  0
   -4.6860    2.7192   -1.1078 H   0  0  0  0  0  0  0  0  0  0  0  0
   -4.6838    2.5332    0.6369 H   0  0  0  0  0  0  0  0  0  0  0  0
   -2.4994    2.0389   -0.4217 H   0  0  0  0  0  0  0  0  0  0  0  0
   -3.2269    0.7817   -1.4137 H   0  0  0  0  0  0  0  0  0  0  0  0
   -3.2050    0.7099    1.6461 H   0  0  0  0  0  0  0  0  0  0  0  0
   -3.6675   -0.6094    0.5690 H   0  0  0  0  0  0  0  0  0  0  0  0
   -0.8716    0.6096    0.7937 H   0  0  0  0  0  0  0  0  0  0  0  0
   -1.4084   -0.8768    1.5648 H   0  0  0  0  0  0  0  0  0  0  0  0
   -1.8914   -1.8781   -0.6819 H   0  0  0  0  0  0  0  0  0  0  0  0
   -1.2664   -0.4300   -1.4684 H   0  0  0  0  0  0  0  0  0  0  0  0
    0.3494   -2.3843   -1.2832 H   0  0  0  0  0  0  0  0  0  0  0  0
    0.3712   -2.1512    0.4734 H   0  0  0  0  0  0  0  0  0  0  0  0
    2.6761   -2.1434   -0.2045 H   0  0  0  0  0  0  0  0  0  0  0  0
    4.3917   -2.4816    1.0319 H   0  0  0  0  0  0  0  0  0  0  0  0
    6.0950   -2.4201    0.6279 H   0  0  0  0  0  0  0  0  0  0  0  0
    4.9325   -3.0203   -0.5823 H   0  0  0  0  0  0  0  0  0  0  0  0
    4.9579    1.8235   -0.4383 H   0  0  0  0  0  0  0  0  0  0  0  0
    6.9582    3.2408   -0.8657 H   0  0  0  0  0  0  0  0  0  0  0  0
    9.1599    2.1214   -1.2541 H   0  0  0  0  0  0  0  0  0  0  0  0
    7.5153   -1.6227   -0.8754 H   0  0  0  0  0  0  0  0  0  0  0  0
  1  2  1  0
  2  3  1  0
  3  4  1  0
  4  5  1  0
  5  6  1  0
  6  7  1  0
  7  8  1  0
  8  9  1  0
  9 10  1  0
 10 11  2  0
 10 12  1  0
 12 13  1  0
 13 14  2  3
 14 15  1  0
 14 16  1  0
 16 17  2  0
 17 18  1  0
 18 19  2  0
 19 20  1  0
 20 21  2  0
 21 16  1  0
  1 22  1  0
  1 23  1  0
  1 24  1  0
  2 25  1  0
  2 26  1  0
  3 27  1  0
  3 28  1  0
  4 29  1  0
  4 30  1  0
  5 31  1  0
  5 32  1  0
  6 33  1  0
  6 34  1  0
  7 35  1  0
  7 36  1  0
  8 37  1  0
  8 38  1  0
  9 39  1  0
  9 40  1  0
 12 41  1  0
 15 42  1  0
 15 43  1  0
 15 44  1  0
 17 45  1  0
 18 46  1  0
 19 47  1  0
 21 48  1  0
M  END
$$$$
