
     RDKit          3D

 41 43  0  0  0  0  0  0  0  0999 V2000
    2.7811   -2.6373    0.5969 Cl  0  0  0  0  0  0  0  0  0  0  0  0
    3.9462   -2.2837   -0.6313 C   0  0  0  0  0  0  0  0  0  0  0  0
    5.2759   -2.1261   -0.2260 C   0  0  0  0  0  0  0  0  0  0  0  0
    6.2700   -1.8511   -1.1636 C   0  0  0  0  0  0  0  0  0  0  0  0
    5.9379   -1.7331   -2.5095 C   0  0  0  0  0  0  0  0  0  0  0  0
    4.6121   -1.8885   -2.9179 C   0  0  0  0  0  0  0  0  0  0  0  0
    3.5928   -2.1659   -1.9863 C   0  0  0  0  0  0  0  0  0  0  0  0
    2.1753   -2.3119   -2.4807 C   0  0  0  0  0  0  0  0  0  0  0  0
    1.3939   -0.7486   -2.9835 S   0  0  0  0  0  0  0  0  0  0  0  0
    1.3569    0.0939   -1.4750 C   0  0  0  0  0  0  0  0  0  0  0  0
    2.3058    0.8571   -0.9829 N   0  0  0  0  0  0  0  0  0  0  0  0
    1.8804    1.3019    0.2531 N   0  0  0  0  0  0  0  0  0  0  0  0
    0.6817    0.8022    0.4654 C   0  0  0  0  0  0  0  0  0  0  0  0
    0.2914    0.0576   -0.6098 N   0  0  0  0  0  0  0  0  0  0  0  0
   -0.9562   -0.6581   -0.7585 N   0  0  0  0  0  0  0  0  0  0  0  0
   -1.9866    0.2226   -1.3133 C   0  0  0  0  0  0  0  0  0  0  0  0
   -2.8112    0.9566   -0.2936 C   0  0  0  0  0  0  0  0  0  0  0  0
   -2.9036    0.6764    1.0179 C   0  0  0  0  0  0  0  0  0  0  0  0
   -3.7204    1.4413    1.9702 C   0  0  0  0  0  0  0  0  0  0  0  0
   -3.2351    1.6400    3.2694 C   0  0  0  0  0  0  0  0  0  0  0  0
   -3.9917    2.3398    4.2128 C   0  0  0  0  0  0  0  0  0  0  0  0
   -5.2468    2.8377    3.8700 C   0  0  0  0  0  0  0  0  0  0  0  0
   -5.7478    2.6319    2.5864 C   0  0  0  0  0  0  0  0  0  0  0  0
   -4.9907    1.9328    1.6424 C   0  0  0  0  0  0  0  0  0  0  0  0
    5.5426   -2.2092    0.8247 H   0  0  0  0  0  0  0  0  0  0  0  0
    7.3001   -1.7211   -0.8420 H   0  0  0  0  0  0  0  0  0  0  0  0
    6.7095   -1.5094   -3.2423 H   0  0  0  0  0  0  0  0  0  0  0  0
    4.3739   -1.7790   -3.9747 H   0  0  0  0  0  0  0  0  0  0  0  0
    2.1845   -2.9692   -3.3589 H   0  0  0  0  0  0  0  0  0  0  0  0
    1.5271   -2.8165   -1.7587 H   0  0  0  0  0  0  0  0  0  0  0  0
    0.0731    0.9477    1.3440 H   0  0  0  0  0  0  0  0  0  0  0  0
   -0.8261   -1.4338   -1.4060 H   0  0  0  0  0  0  0  0  0  0  0  0
   -2.6812   -0.3919   -1.8999 H   0  0  0  0  0  0  0  0  0  0  0  0
   -1.5562    0.9423   -2.0216 H   0  0  0  0  0  0  0  0  0  0  0  0
   -3.3761    1.7941   -0.6993 H   0  0  0  0  0  0  0  0  0  0  0  0
   -2.3469   -0.1555    1.4437 H   0  0  0  0  0  0  0  0  0  0  0  0
   -2.2580    1.2590    3.5574 H   0  0  0  0  0  0  0  0  0  0  0  0
   -3.6003    2.4947    5.2149 H   0  0  0  0  0  0  0  0  0  0  0  0
   -5.8358    3.3812    4.6039 H   0  0  0  0  0  0  0  0  0  0  0  0
   -6.7309    3.0109    2.3197 H   0  0  0  0  0  0  0  0  0  0  0  0
   -5.4105    1.7677    0.6536 H   0  0  0  0  0  0  0  0  0  0  0  0
  1  2  1  0
  2  3  2  0
  3  4  1  0
  4  5  2  0
  5  6  1  0
  6  7  2  0
  7  8  1  0
  8  9  1  0
  9 10  1  0
 10 11  2  0
 11 12  1  0
 12 13  2  0
 13 14  1  0
 14 15  1  0
 15 16  1  0
 16 17  1  0
 17 18  2  3
 18 19  1  0
 19 20  2  0
 20 21  1  0
 21 22  2  0
 22 23  1  0
 23 24  2  0
  7  2  1  0
 14 10  1  0
 24 19  1  0
  3 25  1  0
  4 26  1  0
  5 27  1  0
  6 28  1  0
  8 29  1  0
  8 30  1  0
 13 31  1  0
 15 32  1  0
 16 33  1  0
 16 34  1  0
 17 35  1  0
 18 36  1  0
 20 37  1  0
 21 38  1  0
 22 39  1  0
 23 40  1  0
 24 41  1  0
M  END
$$$$
