
     RDKit          3D

 31 32  0  0  0  0  0  0  0  0999 V2000
    0.5678    2.3964   -0.5351 S   0  0  0  0  0  0  0  0  0  0  0  0
    0.0809    0.9925    0.2603 C   0  0  0  0  0  0  0  0  0  0  0  0
    0.9614   -0.0316    0.6062 N   0  0  0  0  0  0  0  0  0  0  0  0
    2.2073   -0.3094   -0.0085 C   0  0  0  0  0  0  0  0  0  0  0  0
    3.3166   -0.4525    0.8357 C   0  0  0  0  0  0  0  0  0  0  0  0
    4.5800   -0.7212    0.3035 C   0  0  0  0  0  0  0  0  0  0  0  0
    4.7340   -0.8759   -1.0721 C   0  0  0  0  0  0  0  0  0  0  0  0
    6.2912   -1.2115   -1.7220 Cl  0  0  0  0  0  0  0  0  0  0  0  0
    3.6345   -0.7876   -1.9212 C   0  0  0  0  0  0  0  0  0  0  0  0
    2.3679   -0.5203   -1.3918 C   0  0  0  0  0  0  0  0  0  0  0  0
    1.0272   -0.6228   -2.4835 Cl  0  0  0  0  0  0  0  0  0  0  0  0
   -1.2201    0.7630    0.7623 N   0  0  0  0  0  0  0  0  0  0  0  0
   -1.7193   -0.5967    1.0210 C   0  0  0  0  0  0  0  0  0  0  0  0
   -2.5813   -1.0697   -0.1508 C   0  0  0  0  0  0  0  0  0  0  0  0
   -3.7166   -0.0840   -0.4360 C   0  0  0  0  0  0  0  0  0  0  0  0
   -3.1925    1.3455   -0.5913 C   0  0  0  0  0  0  0  0  0  0  0  0
   -2.3130    1.7341    0.5968 C   0  0  0  0  0  0  0  0  0  0  0  0
    0.9222   -0.2026    1.6039 H   0  0  0  0  0  0  0  0  0  0  0  0
    3.2187   -0.3209    1.9105 H   0  0  0  0  0  0  0  0  0  0  0  0
    5.4381   -0.8041    0.9660 H   0  0  0  0  0  0  0  0  0  0  0  0
    3.7569   -0.9497   -2.9888 H   0  0  0  0  0  0  0  0  0  0  0  0
   -2.3113   -0.5629    1.9434 H   0  0  0  0  0  0  0  0  0  0  0  0
   -0.9117   -1.3143    1.1837 H   0  0  0  0  0  0  0  0  0  0  0  0
   -1.9581   -1.1683   -1.0479 H   0  0  0  0  0  0  0  0  0  0  0  0
   -2.9963   -2.0598    0.0673 H   0  0  0  0  0  0  0  0  0  0  0  0
   -4.2524   -0.3849   -1.3431 H   0  0  0  0  0  0  0  0  0  0  0  0
   -4.4389   -0.1165    0.3890 H   0  0  0  0  0  0  0  0  0  0  0  0
   -2.6150    1.4170   -1.5208 H   0  0  0  0  0  0  0  0  0  0  0  0
   -4.0341    2.0416   -0.6764 H   0  0  0  0  0  0  0  0  0  0  0  0
   -2.9027    1.7223    1.5219 H   0  0  0  0  0  0  0  0  0  0  0  0
   -1.9415    2.7546    0.4803 H   0  0  0  0  0  0  0  0  0  0  0  0
  1  2  2  0
  2  3  1  0
  3  4  1  0
  4  5  2  0
  5  6  1  0
  6  7  2  0
  7  8  1  0
  7  9  1  0
  9 10  2  0
 10 11  1  0
  2 12  1  0
 12 13  1  0
 13 14  1  0
 14 15  1  0
 15 16  1  0
 16 17  1  0
 10  4  1  0
 17 12  1  0
  3 18  1  0
  5 19  1  0
  6 20  1  0
  9 21  1  0
 13 22  1  0
 13 23  1  0
 14 24  1  0
 14 25  1  0
 15 26  1  0
 15 27  1  0
 16 28  1  0
 16 29  1  0
 17 30  1  0
 17 31  1  0
M  END
$$$$
