
     RDKit          3D

 57 61  0  0  0  0  0  0  0  0999 V2000
    5.6906   -3.4370   -4.5167 C   0  0  0  0  0  0  0  0  0  0  0  0
    5.4131   -3.0080   -3.1060 C   0  0  0  0  0  0  0  0  0  0  0  0
    4.8662   -1.7462   -2.8456 C   0  0  0  0  0  0  0  0  0  0  0  0
    4.5778   -1.3548   -1.5360 C   0  0  0  0  0  0  0  0  0  0  0  0
    4.8288   -2.2209   -0.4623 C   0  0  0  0  0  0  0  0  0  0  0  0
    4.5041   -1.8056    0.9506 C   0  0  0  0  0  0  0  0  0  0  0  0
    3.1963   -2.2788    1.3542 N   0  0  0  0  0  0  0  0  0  0  0  0
    3.0559   -3.4339    2.0533 N   0  0  0  0  0  0  0  0  0  0  0  0
    1.7552   -3.6100    2.2899 N   0  0  0  0  0  0  0  0  0  0  0  0
    1.0996   -2.5449    1.7543 C   0  0  0  0  0  0  0  0  0  0  0  0
   -0.3000   -2.2216    1.7141 C   0  0  0  0  0  0  0  0  0  0  0  0
   -1.2111   -2.8995    2.1773 O   0  0  0  0  0  0  0  0  0  0  0  0
   -0.5400   -1.0129    1.0695 N   0  0  0  0  0  0  0  0  0  0  0  0
    0.4505   -0.2110    0.5144 C   0  0  0  0  0  0  0  0  0  0  0  0
    0.0006    1.0882   -0.1440 C   0  0  0  0  0  0  0  0  0  0  0  0
   -0.5251    2.0908    0.8926 C   0  0  0  0  0  0  0  0  0  0  0  0
   -2.0403    2.0727    1.0551 C   0  0  0  0  0  0  0  0  0  0  0  0
   -2.7668    2.1634   -0.2421 N   0  0  0  0  0  0  0  0  0  0  0  0
   -3.9160    3.4338   -0.3644 S   0  0  0  0  0  6  0  0  0  0  0  0
   -4.5923    3.3150   -1.6382 O   0  0  0  0  0  0  0  0  0  0  0  0
   -3.2407    4.6552    0.0231 O   0  0  0  0  0  0  0  0  0  0  0  0
   -5.0911    3.0013    0.8972 C   0  0  0  0  0  0  0  0  0  0  0  0
   -5.2688    3.8320    2.0089 C   0  0  0  0  0  0  0  0  0  0  0  0
   -6.1946    3.4717    2.9884 C   0  0  0  0  0  0  0  0  0  0  0  0
   -6.9298    2.2979    2.8440 C   0  0  0  0  0  0  0  0  0  0  0  0
   -7.8201    1.9589    3.7864 F   0  0  0  0  0  0  0  0  0  0  0  0
   -6.7638    1.4754    1.7328 C   0  0  0  0  0  0  0  0  0  0  0  0
   -5.8394    1.8270    0.7486 C   0  0  0  0  0  0  0  0  0  0  0  0
   -1.9244    2.0271   -1.4588 C   0  0  0  0  0  0  0  0  0  0  0  0
   -0.9846    0.8429   -1.2897 C   0  0  0  0  0  0  0  0  0  0  0  0
    1.7241   -0.4954    0.5493 N   0  0  0  0  0  0  0  0  0  0  0  0
    1.9860   -1.6720    1.1710 C   0  0  0  0  0  0  0  0  0  0  0  0
    5.3540   -3.4930   -0.7280 C   0  0  0  0  0  0  0  0  0  0  0  0
    5.6412   -3.8831   -2.0383 C   0  0  0  0  0  0  0  0  0  0  0  0
    6.4476   -4.2256   -4.5472 H   0  0  0  0  0  0  0  0  0  0  0  0
    4.7755   -3.8130   -4.9807 H   0  0  0  0  0  0  0  0  0  0  0  0
    6.0717   -2.5993   -5.1072 H   0  0  0  0  0  0  0  0  0  0  0  0
    4.6571   -1.0602   -3.6636 H   0  0  0  0  0  0  0  0  0  0  0  0
    4.1467   -0.3703   -1.3610 H   0  0  0  0  0  0  0  0  0  0  0  0
    5.2466   -2.2029    1.6532 H   0  0  0  0  0  0  0  0  0  0  0  0
    4.5174   -0.7143    1.0559 H   0  0  0  0  0  0  0  0  0  0  0  0
   -1.5178   -0.7801    0.9858 H   0  0  0  0  0  0  0  0  0  0  0  0
    0.9066    1.5368   -0.5781 H   0  0  0  0  0  0  0  0  0  0  0  0
   -0.2304    3.1004    0.5745 H   0  0  0  0  0  0  0  0  0  0  0  0
   -0.0511    1.9296    1.8689 H   0  0  0  0  0  0  0  0  0  0  0  0
   -2.3223    2.8862    1.7316 H   0  0  0  0  0  0  0  0  0  0  0  0
   -2.3608    1.1468    1.5450 H   0  0  0  0  0  0  0  0  0  0  0  0
   -4.7027    4.7538    2.1152 H   0  0  0  0  0  0  0  0  0  0  0  0
   -6.3552    4.0987    3.8601 H   0  0  0  0  0  0  0  0  0  0  0  0
   -7.3616    0.5730    1.6396 H   0  0  0  0  0  0  0  0  0  0  0  0
   -5.7092    1.1962   -0.1281 H   0  0  0  0  0  0  0  0  0  0  0  0
   -1.3623    2.9497   -1.6452 H   0  0  0  0  0  0  0  0  0  0  0  0
   -2.5656    1.8341   -2.3253 H   0  0  0  0  0  0  0  0  0  0  0  0
   -0.4240    0.6777   -2.2187 H   0  0  0  0  0  0  0  0  0  0  0  0
   -1.5763   -0.0670   -1.1307 H   0  0  0  0  0  0  0  0  0  0  0  0
    5.5339   -4.1956    0.0847 H   0  0  0  0  0  0  0  0  0  0  0  0
    6.0411   -4.8795   -2.2195 H   0  0  0  0  0  0  0  0  0  0  0  0
  1  2  1  0
  2  3  2  0
  3  4  1  0
  4  5  2  0
  5  6  1  0
  6  7  1  0
  7  8  1  0
  8  9  2  0
  9 10  1  0
 10 11  1  0
 11 12  2  0
 11 13  1  0
 13 14  1  0
 14 15  1  0
 15 16  1  0
 16 17  1  0
 17 18  1  0
 18 19  1  0
 19 20  2  0
 19 21  2  0
 19 22  1  0
 22 23  2  0
 23 24  1  0
 24 25  2  0
 25 26  1  0
 25 27  1  0
 27 28  2  0
 18 29  1  0
 29 30  1  0
 14 31  2  0
 31 32  1  0
  5 33  1  0
 33 34  2  0
 34  2  1  0
 32  7  1  0
 32 10  2  0
 30 15  1  0
 28 22  1  0
  1 35  1  0
  1 36  1  0
  1 37  1  0
  3 38  1  0
  4 39  1  0
  6 40  1  0
  6 41  1  0
 13 42  1  0
 15 43  1  0
 16 44  1  0
 16 45  1  0
 17 46  1  0
 17 47  1  0
 23 48  1  0
 24 49  1  0
 27 50  1  0
 28 51  1  0
 29 52  1  0
 29 53  1  0
 30 54  1  0
 30 55  1  0
 33 56  1  0
 34 57  1  0
M  END
$$$$
