
     RDKit          3D

 53 56  0  0  0  0  0  0  0  0999 V2000
    5.7791    4.5104   -2.2311 C   0  0  0  0  0  0  0  0  0  0  0  0
    4.8328    4.0628   -1.2691 O   0  0  0  0  0  0  0  0  0  0  0  0
    4.8137    2.7225   -0.9947 C   0  0  0  0  0  0  0  0  0  0  0  0
    5.6439    1.7577   -1.5612 C   0  0  0  0  0  0  0  0  0  0  0  0
    5.5211    0.4122   -1.1905 C   0  0  0  0  0  0  0  0  0  0  0  0
    4.5622    0.0148   -0.2523 C   0  0  0  0  0  0  0  0  0  0  0  0
    4.4271   -1.2763    0.1879 O   0  0  0  0  0  0  0  0  0  0  0  0
    4.8263   -2.2980   -0.7169 C   0  0  0  0  0  0  0  0  0  0  0  0
    3.7297    0.9863    0.3289 C   0  0  0  0  0  0  0  0  0  0  0  0
    2.7143    0.6272    1.3046 C   0  0  0  0  0  0  0  0  0  0  0  0
    2.7429    1.0627    2.6147 C   0  0  0  0  0  0  0  0  0  0  0  0
    1.3875    0.4336    3.4530 S   0  0  0  0  0  0  0  0  0  0  0  0
    0.8750   -0.3453    2.0275 C   0  0  0  0  0  0  0  0  0  0  0  0
   -0.2502   -1.1215    1.9604 N   0  0  0  0  0  0  0  0  0  0  0  0
   -1.1672   -1.3753    2.9576 C   0  0  0  0  0  0  0  0  0  0  0  0
   -1.1216   -0.9628    4.1143 O   0  0  0  0  0  0  0  0  0  0  0  0
   -2.2703   -2.3213    2.5175 C   0  0  0  0  0  0  0  0  0  0  0  0
   -3.1211   -1.7470    1.4872 N   0  0  0  0  0  0  0  0  0  0  0  0
   -4.3521   -1.1754    1.7020 C   0  0  0  0  0  0  0  0  0  0  0  0
   -4.8607   -1.0971    2.9239 O   0  0  0  0  0  0  0  0  0  0  0  0
   -4.8444   -0.7687    0.4790 C   0  0  0  0  0  0  0  0  0  0  0  0
   -3.8752   -1.1176   -0.5098 C   0  0  0  0  0  0  0  0  0  0  0  0
   -2.8198   -1.7173    0.1435 C   0  0  0  0  0  0  0  0  0  0  0  0
   -1.6616   -2.1917   -0.3031 O   0  0  0  0  0  0  0  0  0  0  0  0
   -4.0484   -0.8125   -1.9608 C   0  0  0  0  0  0  0  0  0  0  0  0
   -5.5057   -0.4583   -2.2956 C   0  0  0  0  0  0  0  0  0  0  0  0
   -6.1175    0.5005   -1.2633 C   0  0  0  0  0  0  0  0  0  0  0  0
   -6.1432   -0.1133    0.1454 C   0  0  0  0  0  0  0  0  0  0  0  0
    1.6322   -0.1683    0.9702 N   0  0  0  0  0  0  0  0  0  0  0  0
    3.8599    2.3317   -0.0521 C   0  0  0  0  0  0  0  0  0  0  0  0
    6.8030    4.3129   -1.8994 H   0  0  0  0  0  0  0  0  0  0  0  0
    5.6638    5.5937   -2.3333 H   0  0  0  0  0  0  0  0  0  0  0  0
    5.5873    4.0606   -3.2105 H   0  0  0  0  0  0  0  0  0  0  0  0
    6.4048    2.0159   -2.2907 H   0  0  0  0  0  0  0  0  0  0  0  0
    6.2044   -0.3026   -1.6374 H   0  0  0  0  0  0  0  0  0  0  0  0
    4.4003   -2.1419   -1.7136 H   0  0  0  0  0  0  0  0  0  0  0  0
    5.9168   -2.3730   -0.7620 H   0  0  0  0  0  0  0  0  0  0  0  0
    4.4443   -3.2497   -0.3358 H   0  0  0  0  0  0  0  0  0  0  0  0
    3.4729    1.6880    3.1079 H   0  0  0  0  0  0  0  0  0  0  0  0
   -0.4240   -1.4953    1.0315 H   0  0  0  0  0  0  0  0  0  0  0  0
   -1.8343   -3.2483    2.1287 H   0  0  0  0  0  0  0  0  0  0  0  0
   -2.8893   -2.5901    3.3799 H   0  0  0  0  0  0  0  0  0  0  0  0
   -5.7024   -0.6139    2.8594 H   0  0  0  0  0  0  0  0  0  0  0  0
   -1.6652   -2.0777   -1.2721 H   0  0  0  0  0  0  0  0  0  0  0  0
   -3.4004    0.0334   -2.2218 H   0  0  0  0  0  0  0  0  0  0  0  0
   -3.7314   -1.6672   -2.5697 H   0  0  0  0  0  0  0  0  0  0  0  0
   -6.1060   -1.3754   -2.3331 H   0  0  0  0  0  0  0  0  0  0  0  0
   -5.5493   -0.0069   -3.2933 H   0  0  0  0  0  0  0  0  0  0  0  0
   -5.5334    1.4301   -1.2471 H   0  0  0  0  0  0  0  0  0  0  0  0
   -7.1371    0.7695   -1.5621 H   0  0  0  0  0  0  0  0  0  0  0  0
   -6.3819    0.6640    0.8801 H   0  0  0  0  0  0  0  0  0  0  0  0
   -6.9374   -0.8673    0.1969 H   0  0  0  0  0  0  0  0  0  0  0  0
    3.2059    3.0866    0.3803 H   0  0  0  0  0  0  0  0  0  0  0  0
  1  2  1  0
  2  3  1  0
  3  4  2  0
  4  5  1  0
  5  6  2  0
  6  7  1  0
  7  8  1  0
  6  9  1  0
  9 10  1  0
 10 11  2  0
 11 12  1  0
 12 13  1  0
 13 14  1  0
 14 15  1  0
 15 16  2  0
 15 17  1  0
 17 18  1  0
 18 19  1  0
 19 20  1  0
 19 21  2  0
 21 22  1  0
 22 23  2  0
 23 24  1  0
 22 25  1  0
 25 26  1  0
 26 27  1  0
 27 28  1  0
 13 29  2  0
  9 30  2  0
 30  3  1  0
 29 10  1  0
 23 18  1  0
 28 21  1  0
  1 31  1  0
  1 32  1  0
  1 33  1  0
  4 34  1  0
  5 35  1  0
  8 36  1  0
  8 37  1  0
  8 38  1  0
 11 39  1  0
 14 40  1  0
 17 41  1  0
 17 42  1  0
 20 43  1  0
 24 44  1  0
 25 45  1  0
 25 46  1  0
 26 47  1  0
 26 48  1  0
 27 49  1  0
 27 50  1  0
 28 51  1  0
 28 52  1  0
 30 53  1  0
M  END
$$$$
