
     RDKit          3D

 42 44  0  0  0  0  0  0  0  0999 V2000
   -5.5400    1.3446   -1.8936 C   0  0  0  0  0  0  0  0  0  0  0  0
   -4.3341    0.9572   -1.0899 C   0  0  0  0  0  0  0  0  0  0  0  0
   -4.3462   -0.2024   -0.3084 C   0  0  0  0  0  0  0  0  0  0  0  0
   -3.2122   -0.5996    0.4210 C   0  0  0  0  0  0  0  0  0  0  0  0
   -3.2817   -1.8635    1.2375 C   0  0  0  0  0  0  0  0  0  0  0  0
   -2.0447    0.1932    0.3674 C   0  0  0  0  0  0  0  0  0  0  0  0
   -0.8640   -0.1837    1.1297 C   0  0  0  0  0  0  0  0  0  0  0  0
   -0.7466    0.0300    2.4882 C   0  0  0  0  0  0  0  0  0  0  0  0
    0.7907   -0.5112    3.0151 S   0  0  0  0  0  0  0  0  0  0  0  0
    1.1707   -0.9674    1.4187 C   0  0  0  0  0  0  0  0  0  0  0  0
    2.3748   -1.5121    1.0603 N   0  0  0  0  0  0  0  0  0  0  0  0
    3.4573   -1.7325    1.8674 C   0  0  0  0  0  0  0  0  0  0  0  0
    3.5482   -1.5875    3.0794 O   0  0  0  0  0  0  0  0  0  0  0  0
    4.6324   -2.2869    1.1400 C   0  0  0  0  0  0  0  0  0  0  0  0
    5.1883   -1.8403    0.0030 C   0  0  0  0  0  0  0  0  0  0  0  0
    4.7670   -0.6800   -0.7036 C   0  0  0  0  0  0  0  0  0  0  0  0
    4.4295    0.5808   -0.2406 C   0  0  0  0  0  0  0  0  0  0  0  0
    4.0430    1.4725   -1.2828 C   0  0  0  0  0  0  0  0  0  0  0  0
    4.1133    0.8761   -2.5196 C   0  0  0  0  0  0  0  0  0  0  0  0
    4.6455   -0.7442   -2.4211 S   0  0  0  0  0  0  0  0  0  0  0  0
    0.2369   -0.7569    0.5218 N   0  0  0  0  0  0  0  0  0  0  0  0
   -2.0148    1.3538   -0.4381 C   0  0  0  0  0  0  0  0  0  0  0  0
   -0.7765    2.2028   -0.5604 C   0  0  0  0  0  0  0  0  0  0  0  0
   -3.1622    1.7169   -1.1627 C   0  0  0  0  0  0  0  0  0  0  0  0
   -5.5893    2.4307   -2.0232 H   0  0  0  0  0  0  0  0  0  0  0  0
   -6.4615    1.0363   -1.3892 H   0  0  0  0  0  0  0  0  0  0  0  0
   -5.5000    0.8721   -2.8798 H   0  0  0  0  0  0  0  0  0  0  0  0
   -5.2488   -0.8101   -0.2734 H   0  0  0  0  0  0  0  0  0  0  0  0
   -2.4421   -2.5260    0.9994 H   0  0  0  0  0  0  0  0  0  0  0  0
   -3.2739   -1.6264    2.3059 H   0  0  0  0  0  0  0  0  0  0  0  0
   -4.1995   -2.4240    1.0279 H   0  0  0  0  0  0  0  0  0  0  0  0
   -1.4611    0.4668    3.1712 H   0  0  0  0  0  0  0  0  0  0  0  0
    2.4375   -1.7070    0.0699 H   0  0  0  0  0  0  0  0  0  0  0  0
    5.0777   -3.1362    1.6507 H   0  0  0  0  0  0  0  0  0  0  0  0
    6.0320   -2.3922   -0.4055 H   0  0  0  0  0  0  0  0  0  0  0  0
    4.4568    0.8587    0.8075 H   0  0  0  0  0  0  0  0  0  0  0  0
    3.7350    2.4998   -1.1305 H   0  0  0  0  0  0  0  0  0  0  0  0
    3.8827    1.3141   -3.4810 H   0  0  0  0  0  0  0  0  0  0  0  0
   -0.4274    2.5231    0.4263 H   0  0  0  0  0  0  0  0  0  0  0  0
   -0.9693    3.1103   -1.1420 H   0  0  0  0  0  0  0  0  0  0  0  0
    0.0177    1.6470   -1.0688 H   0  0  0  0  0  0  0  0  0  0  0  0
   -3.1412    2.6035   -1.7942 H   0  0  0  0  0  0  0  0  0  0  0  0
  1  2  1  0
  2  3  2  0
  3  4  1  0
  4  5  1  0
  4  6  2  0
  6  7  1  0
  7  8  2  0
  8  9  1  0
  9 10  1  0
 10 11  1  0
 11 12  1  0
 12 13  2  0
 12 14  1  0
 14 15  2  3
 15 16  1  0
 16 17  2  0
 17 18  1  0
 18 19  2  0
 19 20  1  0
 10 21  2  0
  6 22  1  0
 22 23  1  0
 22 24  2  0
 24  2  1  0
 21  7  1  0
 20 16  1  0
  1 25  1  0
  1 26  1  0
  1 27  1  0
  3 28  1  0
  5 29  1  0
  5 30  1  0
  5 31  1  0
  8 32  1  0
 11 33  1  0
 14 34  1  0
 15 35  1  0
 17 36  1  0
 18 37  1  0
 19 38  1  0
 23 39  1  0
 23 40  1  0
 23 41  1  0
 24 42  1  0
M  END
$$$$
