
     RDKit          3D

 49 51  0  0  0  0  0  0  0  0999 V2000
   -4.5894    3.1941    0.2881 C   0  0  0  0  0  0  0  0  0  0  0  0
   -4.3280    1.7338    0.0602 C   0  0  0  0  0  0  0  0  0  0  0  0
   -5.3813    0.8632   -0.2410 C   0  0  0  0  0  0  0  0  0  0  0  0
   -5.1363   -0.4911   -0.4888 C   0  0  0  0  0  0  0  0  0  0  0  0
   -6.2730   -1.4291   -0.7688 C   0  0  0  0  0  0  0  0  0  0  0  0
   -3.8207   -0.9701   -0.4179 C   0  0  0  0  0  0  0  0  0  0  0  0
   -2.7505   -0.1097   -0.1363 C   0  0  0  0  0  0  0  0  0  0  0  0
   -1.4619   -0.6817   -0.1000 N   0  0  0  0  0  0  0  0  0  0  0  0
   -0.2461   -0.0318    0.0854 C   0  0  0  0  0  0  0  0  0  0  0  0
   -0.0895    1.1801    0.2230 O   0  0  0  0  0  0  0  0  0  0  0  0
    0.9597   -1.0134    0.0979 C   0  0  0  0  0  0  0  0  0  0  0  0
    2.1841   -0.3755    0.4688 O   0  0  0  0  0  0  0  0  0  0  0  0
    2.2911   -0.1155    1.7929 C   0  0  0  0  0  0  0  0  0  0  0  0
    1.4995   -0.4684    2.6532 O   0  0  0  0  0  0  0  0  0  0  0  0
    3.5338    0.6507    2.0798 C   0  0  0  0  0  0  0  0  0  0  0  0
    4.4465    1.0070    1.0768 C   0  0  0  0  0  0  0  0  0  0  0  0
    5.6006    1.7232    1.4037 C   0  0  0  0  0  0  0  0  0  0  0  0
    5.8402    2.0829    2.7253 C   0  0  0  0  0  0  0  0  0  0  0  0
    6.9787    2.7819    2.9952 O   0  0  0  0  0  0  0  0  0  0  0  0
    4.9447    1.7394    3.7330 C   0  0  0  0  0  0  0  0  0  0  0  0
    3.7903    1.0217    3.4085 C   0  0  0  0  0  0  0  0  0  0  0  0
    1.1860   -1.6334   -1.2728 C   0  0  0  0  0  0  0  0  0  0  0  0
    1.2486   -3.0283   -1.4180 C   0  0  0  0  0  0  0  0  0  0  0  0
    1.4533   -3.6007   -2.6747 C   0  0  0  0  0  0  0  0  0  0  0  0
    1.6039   -2.7881   -3.7967 C   0  0  0  0  0  0  0  0  0  0  0  0
    1.5570   -1.4020   -3.6643 C   0  0  0  0  0  0  0  0  0  0  0  0
    1.3539   -0.8262   -2.4097 C   0  0  0  0  0  0  0  0  0  0  0  0
   -3.0142    1.2408    0.0960 C   0  0  0  0  0  0  0  0  0  0  0  0
   -3.8837    3.6073    1.0165 H   0  0  0  0  0  0  0  0  0  0  0  0
   -4.4904    3.7429   -0.6535 H   0  0  0  0  0  0  0  0  0  0  0  0
   -5.5968    3.3548    0.6862 H   0  0  0  0  0  0  0  0  0  0  0  0
   -6.4000    1.2444   -0.2813 H   0  0  0  0  0  0  0  0  0  0  0  0
   -6.6489   -1.8513    0.1682 H   0  0  0  0  0  0  0  0  0  0  0  0
   -5.9524   -2.2469   -1.4228 H   0  0  0  0  0  0  0  0  0  0  0  0
   -7.0924   -0.9101   -1.2773 H   0  0  0  0  0  0  0  0  0  0  0  0
   -3.6391   -2.0278   -0.5936 H   0  0  0  0  0  0  0  0  0  0  0  0
   -1.4187   -1.6763   -0.2851 H   0  0  0  0  0  0  0  0  0  0  0  0
    0.7277   -1.8163    0.8116 H   0  0  0  0  0  0  0  0  0  0  0  0
    4.2733    0.7373    0.0379 H   0  0  0  0  0  0  0  0  0  0  0  0
    6.3091    2.0016    0.6281 H   0  0  0  0  0  0  0  0  0  0  0  0
    7.0051    2.9809    3.9456 H   0  0  0  0  0  0  0  0  0  0  0  0
    5.1230    2.0186    4.7667 H   0  0  0  0  0  0  0  0  0  0  0  0
    3.0876    0.7547    4.1960 H   0  0  0  0  0  0  0  0  0  0  0  0
    1.1477   -3.6818   -0.5538 H   0  0  0  0  0  0  0  0  0  0  0  0
    1.5023   -4.6818   -2.7789 H   0  0  0  0  0  0  0  0  0  0  0  0
    1.7659   -3.2347   -4.7744 H   0  0  0  0  0  0  0  0  0  0  0  0
    1.6827   -0.7672   -4.5379 H   0  0  0  0  0  0  0  0  0  0  0  0
    1.3294    0.2596   -2.3228 H   0  0  0  0  0  0  0  0  0  0  0  0
   -2.2126    1.9383    0.3193 H   0  0  0  0  0  0  0  0  0  0  0  0
  1  2  1  0
  2  3  2  0
  3  4  1  0
  4  5  1  0
  4  6  2  0
  6  7  1  0
  7  8  1  0
  8  9  1  0
  9 10  2  0
  9 11  1  0
 11 12  1  0
 12 13  1  0
 13 14  2  0
 13 15  1  0
 15 16  2  0
 16 17  1  0
 17 18  2  0
 18 19  1  0
 18 20  1  0
 20 21  2  0
 11 22  1  0
 22 23  2  0
 23 24  1  0
 24 25  2  0
 25 26  1  0
 26 27  2  0
  7 28  2  0
 28  2  1  0
 21 15  1  0
 27 22  1  0
  1 29  1  0
  1 30  1  0
  1 31  1  0
  3 32  1  0
  5 33  1  0
  5 34  1  0
  5 35  1  0
  6 36  1  0
  8 37  1  0
 11 38  1  0
 16 39  1  0
 17 40  1  0
 19 41  1  0
 20 42  1  0
 21 43  1  0
 23 44  1  0
 24 45  1  0
 25 46  1  0
 26 47  1  0
 27 48  1  0
 28 49  1  0
M  END
$$$$
