
     RDKit          3D

 42 44  0  0  0  0  0  0  0  0999 V2000
   -2.6865    5.4599   -0.3937 C   0  0  0  0  0  0  0  0  0  0  0  0
   -3.2510    4.5818   -1.3554 O   0  0  0  0  0  0  0  0  0  0  0  0
   -2.6796    3.3435   -1.4919 C   0  0  0  0  0  0  0  0  0  0  0  0
   -1.8006    2.7596   -0.5736 C   0  0  0  0  0  0  0  0  0  0  0  0
   -1.2828    1.4686   -0.7864 C   0  0  0  0  0  0  0  0  0  0  0  0
   -0.4207    0.8832    0.2564 C   0  0  0  0  0  0  0  0  0  0  0  0
    0.7069    0.1629    0.0872 C   0  0  0  0  0  0  0  0  0  0  0  0
    1.3033   -0.1309   -1.1669 C   0  0  0  0  0  0  0  0  0  0  0  0
    1.7517   -0.4021   -2.2033 N   0  0  0  0  0  0  0  0  0  0  0  0
    1.3878   -0.2852    1.3315 C   0  0  0  0  0  0  0  0  0  0  0  0
    1.6596    0.5243    2.2180 O   0  0  0  0  0  0  0  0  0  0  0  0
    1.6761   -1.7180    1.4294 C   0  0  0  0  0  0  0  0  0  0  0  0
    1.1676   -2.7424    0.6432 C   0  0  0  0  0  0  0  0  0  0  0  0
    1.6826   -3.9336    1.0870 N   0  0  0  0  0  0  0  0  0  0  0  0
    2.5157   -3.7224    2.1592 C   0  0  0  0  0  0  0  0  0  0  0  0
    3.2476   -4.6413    2.9233 C   0  0  0  0  0  0  0  0  0  0  0  0
    4.0142   -4.1418    3.9798 C   0  0  0  0  0  0  0  0  0  0  0  0
    4.0472   -2.7769    4.2575 C   0  0  0  0  0  0  0  0  0  0  0  0
    3.3149   -1.8726    3.4779 C   0  0  0  0  0  0  0  0  0  0  0  0
    2.5289   -2.3478    2.4044 C   0  0  0  0  0  0  0  0  0  0  0  0
   -1.6643    0.7545   -1.9318 C   0  0  0  0  0  0  0  0  0  0  0  0
   -2.5156    1.3368   -2.8709 C   0  0  0  0  0  0  0  0  0  0  0  0
   -2.9312    0.7337   -4.0331 O   0  0  0  0  0  0  0  0  0  0  0  0
   -1.9980   -0.1822   -4.6051 C   0  0  0  0  0  0  0  0  0  0  0  0
   -3.0366    2.6135   -2.6296 C   0  0  0  0  0  0  0  0  0  0  0  0
   -3.9054    3.1571   -3.5449 O   0  0  0  0  0  0  0  0  0  0  0  0
   -3.1829    6.4306   -0.4969 H   0  0  0  0  0  0  0  0  0  0  0  0
   -1.6150    5.6106   -0.5673 H   0  0  0  0  0  0  0  0  0  0  0  0
   -2.8769    5.1027    0.6226 H   0  0  0  0  0  0  0  0  0  0  0  0
   -1.5134    3.2945    0.3262 H   0  0  0  0  0  0  0  0  0  0  0  0
   -0.7621    1.0892    1.2739 H   0  0  0  0  0  0  0  0  0  0  0  0
    0.4848   -2.7445   -0.1955 H   0  0  0  0  0  0  0  0  0  0  0  0
    1.4878   -4.8423    0.6849 H   0  0  0  0  0  0  0  0  0  0  0  0
    3.2223   -5.7068    2.7114 H   0  0  0  0  0  0  0  0  0  0  0  0
    4.5893   -4.8304    4.5969 H   0  0  0  0  0  0  0  0  0  0  0  0
    4.6414   -2.4068    5.0890 H   0  0  0  0  0  0  0  0  0  0  0  0
    3.3460   -0.8094    3.7107 H   0  0  0  0  0  0  0  0  0  0  0  0
   -1.3176   -0.2622   -2.0782 H   0  0  0  0  0  0  0  0  0  0  0  0
   -0.9847    0.2360   -4.6337 H   0  0  0  0  0  0  0  0  0  0  0  0
   -2.0143   -1.1375   -4.0695 H   0  0  0  0  0  0  0  0  0  0  0  0
   -2.3096   -0.3751   -5.6362 H   0  0  0  0  0  0  0  0  0  0  0  0
   -4.0268    2.4692   -4.2249 H   0  0  0  0  0  0  0  0  0  0  0  0
  1  2  1  0
  2  3  1  0
  3  4  2  0
  4  5  1  0
  5  6  1  0
  6  7  2  3
  7  8  1  0
  8  9  3  0
  7 10  1  0
 10 11  2  0
 10 12  1  0
 12 13  2  0
 13 14  1  0
 14 15  1  0
 15 16  2  0
 16 17  1  0
 17 18  2  0
 18 19  1  0
 19 20  2  0
  5 21  2  0
 21 22  1  0
 22 23  1  0
 23 24  1  0
 22 25  2  0
 25 26  1  0
 25  3  1  0
 20 12  1  0
 20 15  1  0
  1 27  1  0
  1 28  1  0
  1 29  1  0
  4 30  1  0
  6 31  1  0
 13 32  1  0
 14 33  1  0
 16 34  1  0
 17 35  1  0
 18 36  1  0
 19 37  1  0
 21 38  1  0
 24 39  1  0
 24 40  1  0
 24 41  1  0
 26 42  1  0
M  END
$$$$
