
     RDKit          3D

 50 52  0  0  0  0  0  0  0  0999 V2000
   -5.2025    2.5425   -3.0246 O   0  0  0  0  0  0  0  0  0  0  0  0
   -4.2863    1.7811   -2.7381 C   0  0  0  0  0  0  0  0  0  0  0  0
   -2.8567    1.9779   -3.2515 C   0  0  0  0  0  0  0  0  0  0  0  0
   -1.8755    1.2989   -2.4596 O   0  0  0  0  0  0  0  0  0  0  0  0
   -1.5351    1.9503   -1.3187 C   0  0  0  0  0  0  0  0  0  0  0  0
   -1.9489    3.0430   -0.9727 O   0  0  0  0  0  0  0  0  0  0  0  0
   -0.5817    1.1435   -0.5077 C   0  0  0  0  0  0  0  0  0  0  0  0
   -0.1685    1.6666    0.7253 C   0  0  0  0  0  0  0  0  0  0  0  0
    0.7108    0.9508    1.5380 C   0  0  0  0  0  0  0  0  0  0  0  0
    1.1920   -0.2883    1.1081 C   0  0  0  0  0  0  0  0  0  0  0  0
    2.2772   -1.2260    2.1690 S   0  0  0  0  0  6  0  0  0  0  0  0
    2.0933   -0.7274    3.5129 O   0  0  0  0  0  0  0  0  0  0  0  0
    2.0749   -2.6237    1.8570 O   0  0  0  0  0  0  0  0  0  0  0  0
    3.8302   -0.7734    1.6404 N   0  0  0  0  0  0  0  0  0  0  0  0
    4.2195    0.6404    1.8631 C   0  0  0  0  0  0  0  0  0  0  0  0
    5.7391    0.7707    1.7879 C   0  0  0  0  0  0  0  0  0  0  0  0
    6.2771    0.2302    0.4644 C   0  0  0  0  0  0  0  0  0  0  0  0
    5.7917   -1.1998    0.2284 C   0  0  0  0  0  0  0  0  0  0  0  0
    4.2699   -1.2953    0.3244 C   0  0  0  0  0  0  0  0  0  0  0  0
    0.7735   -0.8308   -0.1103 C   0  0  0  0  0  0  0  0  0  0  0  0
   -0.1069   -0.1105   -0.9218 C   0  0  0  0  0  0  0  0  0  0  0  0
   -4.4583    0.6502   -1.9728 N   0  0  0  0  0  0  0  0  0  0  0  0
   -5.7662    0.2532   -1.5103 C   0  0  0  0  0  0  0  0  0  0  0  0
   -5.5959   -0.8634   -0.5528 C   0  0  0  0  0  0  0  0  0  0  0  0
   -5.4872   -0.9280    0.8233 C   0  0  0  0  0  0  0  0  0  0  0  0
   -5.3055   -2.2946    1.1401 C   0  0  0  0  0  0  0  0  0  0  0  0
   -5.3295   -2.9750   -0.0578 C   0  0  0  0  0  0  0  0  0  0  0  0
   -5.4919   -2.1163   -1.0928 O   0  0  0  0  0  0  0  0  0  0  0  0
   -2.6354    3.0467   -3.3186 H   0  0  0  0  0  0  0  0  0  0  0  0
   -2.8063    1.5655   -4.2620 H   0  0  0  0  0  0  0  0  0  0  0  0
   -0.5425    2.6308    1.0645 H   0  0  0  0  0  0  0  0  0  0  0  0
    1.0038    1.3596    2.5027 H   0  0  0  0  0  0  0  0  0  0  0  0
    3.8939    0.9799    2.8519 H   0  0  0  0  0  0  0  0  0  0  0  0
    3.7504    1.2804    1.1051 H   0  0  0  0  0  0  0  0  0  0  0  0
    6.1968    0.2173    2.6204 H   0  0  0  0  0  0  0  0  0  0  0  0
    6.0285    1.8253    1.9040 H   0  0  0  0  0  0  0  0  0  0  0  0
    7.3733    0.2570    0.4733 H   0  0  0  0  0  0  0  0  0  0  0  0
    5.9446    0.8742   -0.3612 H   0  0  0  0  0  0  0  0  0  0  0  0
    6.1251   -1.5477   -0.7566 H   0  0  0  0  0  0  0  0  0  0  0  0
    6.2475   -1.8611    0.9783 H   0  0  0  0  0  0  0  0  0  0  0  0
    3.9870   -2.3482    0.2131 H   0  0  0  0  0  0  0  0  0  0  0  0
    3.8015   -0.7253   -0.4871 H   0  0  0  0  0  0  0  0  0  0  0  0
    1.1190   -1.8118   -0.4273 H   0  0  0  0  0  0  0  0  0  0  0  0
   -0.4200   -0.5436   -1.8721 H   0  0  0  0  0  0  0  0  0  0  0  0
   -3.7317   -0.0558   -2.0012 H   0  0  0  0  0  0  0  0  0  0  0  0
   -6.3578   -0.0565   -2.3758 H   0  0  0  0  0  0  0  0  0  0  0  0
   -6.2646    1.1133   -1.0434 H   0  0  0  0  0  0  0  0  0  0  0  0
   -5.5253   -0.0899    1.5086 H   0  0  0  0  0  0  0  0  0  0  0  0
   -5.1871   -2.7355    2.1200 H   0  0  0  0  0  0  0  0  0  0  0  0
   -5.2532   -4.0215   -0.3355 H   0  0  0  0  0  0  0  0  0  0  0  0
  1  2  2  0
  2  3  1  0
  3  4  1  0
  4  5  1  0
  5  6  2  0
  5  7  1  0
  7  8  2  0
  8  9  1  0
  9 10  2  0
 10 11  1  0
 11 12  2  0
 11 13  2  0
 11 14  1  0
 14 15  1  0
 15 16  1  0
 16 17  1  0
 17 18  1  0
 18 19  1  0
 10 20  1  0
 20 21  2  0
  2 22  1  0
 22 23  1  0
 23 24  1  0
 24 25  2  0
 25 26  1  0
 26 27  2  0
 27 28  1  0
 21  7  1  0
 28 24  1  0
 19 14  1  0
  3 29  1  0
  3 30  1  0
  8 31  1  0
  9 32  1  0
 15 33  1  0
 15 34  1  0
 16 35  1  0
 16 36  1  0
 17 37  1  0
 17 38  1  0
 18 39  1  0
 18 40  1  0
 19 41  1  0
 19 42  1  0
 20 43  1  0
 21 44  1  0
 22 45  1  0
 23 46  1  0
 23 47  1  0
 25 48  1  0
 26 49  1  0
 27 50  1  0
M  END
$$$$
