
     RDKit          3D

 41 42  0  0  0  0  0  0  0  0999 V2000
   -6.9644    0.3409    0.4078 C   0  0  0  0  0  0  0  0  0  0  0  0
   -5.9662    1.4203    0.7824 C   0  0  0  0  0  0  0  0  0  0  0  0
   -4.6879    1.1378    0.1958 O   0  0  0  0  0  0  0  0  0  0  0  0
   -3.8686    0.3235    0.9145 C   0  0  0  0  0  0  0  0  0  0  0  0
   -4.1664   -0.1657    1.9976 O   0  0  0  0  0  0  0  0  0  0  0  0
   -2.6605    0.1118    0.2848 N   0  0  0  0  0  0  0  0  0  0  0  0
   -2.3202    0.6797   -1.0203 C   0  0  0  0  0  0  0  0  0  0  0  0
   -1.2679   -0.1617   -1.7541 C   0  0  0  0  0  0  0  0  0  0  0  0
   -0.0374   -0.3929   -0.9663 N   0  0  0  0  0  0  0  0  0  0  0  0
    1.0765   -0.9722   -1.5338 C   0  0  0  0  0  0  0  0  0  0  0  0
    1.0834   -1.8227   -2.9882 S   0  0  0  0  0  0  0  0  0  0  0  0
    2.3032   -0.9041   -0.9134 N   0  0  0  0  0  0  0  0  0  0  0  0
    2.8735    0.0468   -0.0673 C   0  0  0  0  0  0  0  0  0  0  0  0
    2.2929    0.9042    0.5832 O   0  0  0  0  0  0  0  0  0  0  0  0
    4.3508   -0.0571    0.0856 C   0  0  0  0  0  0  0  0  0  0  0  0
    5.1908   -0.3292   -1.0071 C   0  0  0  0  0  0  0  0  0  0  0  0
    6.5742   -0.4074   -0.8194 C   0  0  0  0  0  0  0  0  0  0  0  0
    7.1098   -0.2043    0.4492 C   0  0  0  0  0  0  0  0  0  0  0  0
    8.4360   -0.2817    0.6207 F   0  0  0  0  0  0  0  0  0  0  0  0
    6.2794    0.0837    1.5263 C   0  0  0  0  0  0  0  0  0  0  0  0
    6.8016    0.2849    2.7435 F   0  0  0  0  0  0  0  0  0  0  0  0
    4.9019    0.1651    1.3541 C   0  0  0  0  0  0  0  0  0  0  0  0
   -0.2144   -0.2821    0.4965 C   0  0  0  0  0  0  0  0  0  0  0  0
   -1.6273   -0.6753    0.9537 C   0  0  0  0  0  0  0  0  0  0  0  0
   -7.9575    0.5782    0.7997 H   0  0  0  0  0  0  0  0  0  0  0  0
   -6.6570   -0.6330    0.8014 H   0  0  0  0  0  0  0  0  0  0  0  0
   -7.0292    0.2384   -0.6804 H   0  0  0  0  0  0  0  0  0  0  0  0
   -6.2971    2.3824    0.3776 H   0  0  0  0  0  0  0  0  0  0  0  0
   -5.8908    1.5393    1.8694 H   0  0  0  0  0  0  0  0  0  0  0  0
   -1.9361    1.6900   -0.8364 H   0  0  0  0  0  0  0  0  0  0  0  0
   -3.2183    0.7704   -1.6398 H   0  0  0  0  0  0  0  0  0  0  0  0
   -0.9979    0.3232   -2.6987 H   0  0  0  0  0  0  0  0  0  0  0  0
   -1.6972   -1.1449   -1.9848 H   0  0  0  0  0  0  0  0  0  0  0  0
    2.9613   -1.4981   -1.3992 H   0  0  0  0  0  0  0  0  0  0  0  0
    4.7927   -0.4491   -2.0122 H   0  0  0  0  0  0  0  0  0  0  0  0
    7.2391   -0.6129   -1.6537 H   0  0  0  0  0  0  0  0  0  0  0  0
    4.2701    0.4011    2.2064 H   0  0  0  0  0  0  0  0  0  0  0  0
    0.5164   -0.9080    1.0171 H   0  0  0  0  0  0  0  0  0  0  0  0
   -0.0525    0.7688    0.7581 H   0  0  0  0  0  0  0  0  0  0  0  0
   -1.7162   -0.5617    2.0395 H   0  0  0  0  0  0  0  0  0  0  0  0
   -1.8226   -1.7266    0.7104 H   0  0  0  0  0  0  0  0  0  0  0  0
  1  2  1  0
  2  3  1  0
  3  4  1  0
  4  5  2  0
  4  6  1  0
  6  7  1  0
  7  8  1  0
  8  9  1  0
  9 10  1  0
 10 11  2  0
 10 12  1  0
 12 13  1  0
 13 14  2  0
 13 15  1  0
 15 16  2  0
 16 17  1  0
 17 18  2  0
 18 19  1  0
 18 20  1  0
 20 21  1  0
 20 22  2  0
  9 23  1  0
 23 24  1  0
 24  6  1  0
 22 15  1  0
  1 25  1  0
  1 26  1  0
  1 27  1  0
  2 28  1  0
  2 29  1  0
  7 30  1  0
  7 31  1  0
  8 32  1  0
  8 33  1  0
 12 34  1  0
 16 35  1  0
 17 36  1  0
 22 37  1  0
 23 38  1  0
 23 39  1  0
 24 40  1  0
 24 41  1  0
M  END
$$$$
