
     RDKit          3D

 46 48  0  0  0  0  0  0  0  0999 V2000
   -1.2754    3.8607   -1.3878 C   0  0  0  0  0  0  0  0  0  0  0  0
   -1.8370    2.4592   -1.6068 C   0  0  0  0  0  0  0  0  0  0  0  0
   -1.2137    1.3352   -0.7595 C   0  0  0  0  0  0  0  0  0  0  0  0
   -1.1882    1.7183    1.0418 S   0  0  0  0  0  0  0  0  0  0  0  0
   -2.8268    1.3975    1.4587 C   0  0  0  0  0  0  0  0  0  0  0  0
   -3.6878    0.6697    0.7935 N   0  0  0  0  0  0  0  0  0  0  0  0
   -4.8371    0.7161    1.5473 C   0  0  0  0  0  0  0  0  0  0  0  0
   -6.0855    0.1212    1.3159 C   0  0  0  0  0  0  0  0  0  0  0  0
   -7.1087    0.3221    2.2515 C   0  0  0  0  0  0  0  0  0  0  0  0
   -6.8935    1.0988    3.3936 C   0  0  0  0  0  0  0  0  0  0  0  0
   -5.6545    1.7010    3.6431 C   0  0  0  0  0  0  0  0  0  0  0  0
   -4.6530    1.4850    2.6948 C   0  0  0  0  0  0  0  0  0  0  0  0
   -3.3508    1.9063    2.6096 N   0  0  0  0  0  0  0  0  0  0  0  0
    0.2139    0.9669   -1.2088 C   0  0  0  0  0  0  0  0  0  0  0  0
    0.7902    1.5632   -2.1136 O   0  0  0  0  0  0  0  0  0  0  0  0
    0.7173   -0.1286   -0.5157 N   0  0  0  0  0  0  0  0  0  0  0  0
    1.9664   -0.7583   -0.6759 C   0  0  0  0  0  0  0  0  0  0  0  0
    2.9164   -0.3890   -1.6257 C   0  0  0  0  0  0  0  0  0  0  0  0
    4.1408   -1.0691   -1.7176 C   0  0  0  0  0  0  0  0  0  0  0  0
    4.4331   -2.1294   -0.8616 C   0  0  0  0  0  0  0  0  0  0  0  0
    5.6384   -2.8597   -0.8871 N   0  0  0  0  0  0  0  0  0  0  0  0
    6.7154   -2.6790   -1.7370 C   0  0  0  0  0  0  0  0  0  0  0  0
    7.8256   -3.6586   -1.4499 C   0  0  0  0  0  0  0  0  0  0  0  0
    6.8202   -1.8554   -2.6379 O   0  0  0  0  0  0  0  0  0  0  0  0
    3.4791   -2.5022    0.0904 C   0  0  0  0  0  0  0  0  0  0  0  0
    2.2579   -1.8237    0.1818 C   0  0  0  0  0  0  0  0  0  0  0  0
   -0.1890    3.8890   -1.5080 H   0  0  0  0  0  0  0  0  0  0  0  0
   -1.5243    4.2468   -0.3948 H   0  0  0  0  0  0  0  0  0  0  0  0
   -1.7094    4.5504   -2.1195 H   0  0  0  0  0  0  0  0  0  0  0  0
   -2.9184    2.4926   -1.4229 H   0  0  0  0  0  0  0  0  0  0  0  0
   -1.7223    2.2070   -2.6689 H   0  0  0  0  0  0  0  0  0  0  0  0
   -1.8055    0.4250   -0.9234 H   0  0  0  0  0  0  0  0  0  0  0  0
   -6.2476   -0.4794    0.4278 H   0  0  0  0  0  0  0  0  0  0  0  0
   -8.0822   -0.1331    2.0842 H   0  0  0  0  0  0  0  0  0  0  0  0
   -7.7065    1.2389    4.1038 H   0  0  0  0  0  0  0  0  0  0  0  0
   -5.4902    2.3041    4.5297 H   0  0  0  0  0  0  0  0  0  0  0  0
   -2.8587    2.4903    3.2688 H   0  0  0  0  0  0  0  0  0  0  0  0
    0.1269   -0.4841    0.2281 H   0  0  0  0  0  0  0  0  0  0  0  0
    2.7450    0.4285   -2.3194 H   0  0  0  0  0  0  0  0  0  0  0  0
    4.8429   -0.7356   -2.4755 H   0  0  0  0  0  0  0  0  0  0  0  0
    5.7198   -3.6051   -0.2076 H   0  0  0  0  0  0  0  0  0  0  0  0
    7.4974   -4.6716   -1.6997 H   0  0  0  0  0  0  0  0  0  0  0  0
    8.1086   -3.6084   -0.3944 H   0  0  0  0  0  0  0  0  0  0  0  0
    8.7014   -3.4094   -2.0559 H   0  0  0  0  0  0  0  0  0  0  0  0
    3.6674   -3.3240    0.7760 H   0  0  0  0  0  0  0  0  0  0  0  0
    1.5419   -2.1434    0.9344 H   0  0  0  0  0  0  0  0  0  0  0  0
  1  2  1  0
  2  3  1  0
  3  4  1  0
  4  5  1  0
  5  6  2  0
  6  7  1  0
  7  8  2  0
  8  9  1  0
  9 10  2  0
 10 11  1  0
 11 12  2  0
 12 13  1  0
  3 14  1  0
 14 15  2  0
 14 16  1  0
 16 17  1  0
 17 18  2  0
 18 19  1  0
 19 20  2  0
 20 21  1  0
 21 22  1  0
 22 23  1  0
 22 24  2  0
 20 25  1  0
 25 26  2  0
 13  5  1  0
 26 17  1  0
 12  7  1  0
  1 27  1  0
  1 28  1  0
  1 29  1  0
  2 30  1  0
  2 31  1  0
  3 32  1  0
  8 33  1  0
  9 34  1  0
 10 35  1  0
 11 36  1  0
 13 37  1  0
 16 38  1  0
 18 39  1  0
 19 40  1  0
 21 41  1  0
 23 42  1  0
 23 43  1  0
 23 44  1  0
 25 45  1  0
 26 46  1  0
M  END
$$$$
