
     RDKit          3D

 56 58  0  0  0  0  0  0  0  0999 V2000
   -8.7507    1.8219   -1.0331 C   0  0  0  0  0  0  0  0  0  0  0  0
   -8.1410    0.9776   -0.0678 O   0  0  0  0  0  0  0  0  0  0  0  0
   -6.7927    0.7453   -0.1861 C   0  0  0  0  0  0  0  0  0  0  0  0
   -6.0044    1.1967   -1.2499 C   0  0  0  0  0  0  0  0  0  0  0  0
   -4.6364    0.9153   -1.2882 C   0  0  0  0  0  0  0  0  0  0  0  0
   -4.0371    0.1752   -0.2657 C   0  0  0  0  0  0  0  0  0  0  0  0
   -2.5552   -0.1057   -0.2854 C   0  0  0  0  0  0  0  0  0  0  0  0
   -1.7638    0.9926    0.4294 C   0  0  0  0  0  0  0  0  0  0  0  0
   -0.3361    0.7297    0.4272 N   0  0  0  0  0  0  0  0  0  0  0  0
    0.2239   -0.1543    1.3162 C   0  0  0  0  0  0  0  0  0  0  0  0
   -0.4266   -0.7459    2.1720 O   0  0  0  0  0  0  0  0  0  0  0  0
    1.6952   -0.3576    1.1667 C   0  0  0  0  0  0  0  0  0  0  0  0
    2.2456   -1.4287    1.7703 C   0  0  0  0  0  0  0  0  0  0  0  0
    3.7040   -1.7784    1.7203 C   0  0  0  0  0  0  0  0  0  0  0  0
    4.3889   -0.9854    0.6662 N   0  0  0  0  0  0  0  0  0  0  0  0
    6.0619   -1.3177    0.5977 S   0  0  0  0  0  6  0  0  0  0  0  0
    6.7021   -0.5160    1.6191 O   0  0  0  0  0  0  0  0  0  0  0  0
    6.2425   -2.7515    0.5376 O   0  0  0  0  0  0  0  0  0  0  0  0
    6.5152   -0.6701   -0.9942 C   0  0  0  0  0  0  0  0  0  0  0  0
    5.9391   -1.2326   -2.1407 C   0  0  0  0  0  0  0  0  0  0  0  0
    6.2852   -0.7313   -3.3957 C   0  0  0  0  0  0  0  0  0  0  0  0
    7.1994    0.3154   -3.4892 C   0  0  0  0  0  0  0  0  0  0  0  0
    7.5277    0.7959   -4.6957 F   0  0  0  0  0  0  0  0  0  0  0  0
    7.7781    0.8728   -2.3510 C   0  0  0  0  0  0  0  0  0  0  0  0
    7.4380    0.3781   -1.0911 C   0  0  0  0  0  0  0  0  0  0  0  0
    4.0322    0.4572    0.7506 C   0  0  0  0  0  0  0  0  0  0  0  0
    2.5475    0.6232    0.4152 C   0  0  0  0  0  0  0  0  0  0  0  0
   -4.8262   -0.2789    0.8022 C   0  0  0  0  0  0  0  0  0  0  0  0
   -6.1989   -0.0055    0.8478 C   0  0  0  0  0  0  0  0  0  0  0  0
   -7.0387   -0.4173    1.8537 O   0  0  0  0  0  0  0  0  0  0  0  0
   -6.4818   -1.2080    2.8975 C   0  0  0  0  0  0  0  0  0  0  0  0
   -9.8009    1.9459   -0.7532 H   0  0  0  0  0  0  0  0  0  0  0  0
   -8.2901    2.8153   -1.0406 H   0  0  0  0  0  0  0  0  0  0  0  0
   -8.7234    1.3656   -2.0277 H   0  0  0  0  0  0  0  0  0  0  0  0
   -6.4261    1.7694   -2.0687 H   0  0  0  0  0  0  0  0  0  0  0  0
   -4.0448    1.2796   -2.1251 H   0  0  0  0  0  0  0  0  0  0  0  0
   -2.2112   -0.2015   -1.3233 H   0  0  0  0  0  0  0  0  0  0  0  0
   -2.3628   -1.0825    0.1757 H   0  0  0  0  0  0  0  0  0  0  0  0
   -1.9105    1.9596   -0.0649 H   0  0  0  0  0  0  0  0  0  0  0  0
   -2.0984    1.0966    1.4686 H   0  0  0  0  0  0  0  0  0  0  0  0
    0.2090    1.1040   -0.3354 H   0  0  0  0  0  0  0  0  0  0  0  0
    1.6204   -2.1170    2.3382 H   0  0  0  0  0  0  0  0  0  0  0  0
    3.7894   -2.8435    1.4787 H   0  0  0  0  0  0  0  0  0  0  0  0
    4.1552   -1.5952    2.7011 H   0  0  0  0  0  0  0  0  0  0  0  0
    5.2312   -2.0552   -2.0572 H   0  0  0  0  0  0  0  0  0  0  0  0
    5.8543   -1.1512   -4.2999 H   0  0  0  0  0  0  0  0  0  0  0  0
    8.4944    1.6830   -2.4551 H   0  0  0  0  0  0  0  0  0  0  0  0
    7.8932    0.8073   -0.2011 H   0  0  0  0  0  0  0  0  0  0  0  0
    4.6143    1.0492    0.0381 H   0  0  0  0  0  0  0  0  0  0  0  0
    4.2433    0.8383    1.7575 H   0  0  0  0  0  0  0  0  0  0  0  0
    2.2538    1.6531    0.6481 H   0  0  0  0  0  0  0  0  0  0  0  0
    2.4003    0.4675   -0.6608 H   0  0  0  0  0  0  0  0  0  0  0  0
   -4.3408   -0.8454    1.5915 H   0  0  0  0  0  0  0  0  0  0  0  0
   -7.2911   -1.4716    3.5866 H   0  0  0  0  0  0  0  0  0  0  0  0
   -6.0616   -2.1433    2.5081 H   0  0  0  0  0  0  0  0  0  0  0  0
   -5.7338   -0.6402    3.4648 H   0  0  0  0  0  0  0  0  0  0  0  0
  1  2  1  0
  2  3  1  0
  3  4  2  0
  4  5  1  0
  5  6  2  0
  6  7  1  0
  7  8  1  0
  8  9  1  0
  9 10  1  0
 10 11  2  0
 10 12  1  0
 12 13  2  0
 13 14  1  0
 14 15  1  0
 15 16  1  0
 16 17  2  0
 16 18  2  0
 16 19  1  0
 19 20  2  0
 20 21  1  0
 21 22  2  0
 22 23  1  0
 22 24  1  0
 24 25  2  0
 15 26  1  0
 26 27  1  0
  6 28  1  0
 28 29  2  0
 29 30  1  0
 30 31  1  0
 29  3  1  0
 27 12  1  0
 25 19  1  0
  1 32  1  0
  1 33  1  0
  1 34  1  0
  4 35  1  0
  5 36  1  0
  7 37  1  0
  7 38  1  0
  8 39  1  0
  8 40  1  0
  9 41  1  0
 13 42  1  0
 14 43  1  0
 14 44  1  0
 20 45  1  0
 21 46  1  0
 24 47  1  0
 25 48  1  0
 26 49  1  0
 26 50  1  0
 27 51  1  0
 27 52  1  0
 28 53  1  0
 31 54  1  0
 31 55  1  0
 31 56  1  0
M  END
$$$$
