
     RDKit          3D

 35 37  0  0  0  0  0  0  0  0999 V2000
   -4.9155    1.8583   -0.0931 C   0  0  0  0  0  0  0  0  0  0  0  0
   -3.8799    0.8209   -0.4165 C   0  0  0  0  0  0  0  0  0  0  0  0
   -3.0885    0.2713    0.6018 C   0  0  0  0  0  0  0  0  0  0  0  0
   -2.1480   -0.7181    0.3111 C   0  0  0  0  0  0  0  0  0  0  0  0
   -1.9997   -1.1594   -1.0058 C   0  0  0  0  0  0  0  0  0  0  0  0
   -0.8127   -2.4203   -1.3864 S   0  0  0  0  0  6  0  0  0  0  0  0
   -0.3229   -2.9995   -0.1538 O   0  0  0  0  0  0  0  0  0  0  0  0
   -1.3803   -3.2535   -2.4261 O   0  0  0  0  0  0  0  0  0  0  0  0
    0.4341   -1.5444   -2.1250 N   0  0  0  0  0  0  0  0  0  0  0  0
    1.3556   -0.8679   -1.2832 C   0  0  0  0  0  0  0  0  0  0  0  0
    1.0909    0.4382   -0.8794 C   0  0  0  0  0  0  0  0  0  0  0  0
    1.9703    1.0922   -0.0125 C   0  0  0  0  0  0  0  0  0  0  0  0
    3.1158    0.4329    0.4615 C   0  0  0  0  0  0  0  0  0  0  0  0
    3.9924    1.1083    1.3450 N   0  0  0  0  0  0  0  0  0  0  0  0
    5.1508    0.6688    1.9348 C   0  0  0  0  0  0  0  0  0  0  0  0
    5.6514    1.6270    2.6805 N   0  0  0  0  0  0  0  0  0  0  0  0
    4.7889    2.6831    2.5553 N   0  0  0  0  0  0  0  0  0  0  0  0
    3.7802    2.3819    1.7499 N   0  0  0  0  0  0  0  0  0  0  0  0
    3.3717   -0.8853    0.0570 C   0  0  0  0  0  0  0  0  0  0  0  0
    2.4879   -1.5321   -0.8138 C   0  0  0  0  0  0  0  0  0  0  0  0
   -2.8005   -0.6415   -2.0266 C   0  0  0  0  0  0  0  0  0  0  0  0
   -3.7396    0.3469   -1.7283 C   0  0  0  0  0  0  0  0  0  0  0  0
   -5.8642    1.3741    0.1578 H   0  0  0  0  0  0  0  0  0  0  0  0
   -4.5979    2.4762    0.7534 H   0  0  0  0  0  0  0  0  0  0  0  0
   -5.0741    2.5298   -0.9434 H   0  0  0  0  0  0  0  0  0  0  0  0
   -3.2039    0.6099    1.6297 H   0  0  0  0  0  0  0  0  0  0  0  0
   -1.5401   -1.1347    1.1112 H   0  0  0  0  0  0  0  0  0  0  0  0
    0.8072   -2.0593   -2.9219 H   0  0  0  0  0  0  0  0  0  0  0  0
    0.2078    0.9608   -1.2388 H   0  0  0  0  0  0  0  0  0  0  0  0
    1.7407    2.1150    0.2840 H   0  0  0  0  0  0  0  0  0  0  0  0
    5.5737   -0.3132    1.7994 H   0  0  0  0  0  0  0  0  0  0  0  0
    4.2365   -1.4446    0.4026 H   0  0  0  0  0  0  0  0  0  0  0  0
    2.6798   -2.5628   -1.1027 H   0  0  0  0  0  0  0  0  0  0  0  0
   -2.7018   -1.0031   -3.0476 H   0  0  0  0  0  0  0  0  0  0  0  0
   -4.3660    0.7439   -2.5248 H   0  0  0  0  0  0  0  0  0  0  0  0
  1  2  1  0
  2  3  2  0
  3  4  1  0
  4  5  2  0
  5  6  1  0
  6  7  2  0
  6  8  2  0
  6  9  1  0
  9 10  1  0
 10 11  2  0
 11 12  1  0
 12 13  2  0
 13 14  1  0
 14 15  1  0
 15 16  2  0
 16 17  1  0
 17 18  2  0
 13 19  1  0
 19 20  2  0
  5 21  1  0
 21 22  2  0
 22  2  1  0
 20 10  1  0
 18 14  1  0
  1 23  1  0
  1 24  1  0
  1 25  1  0
  3 26  1  0
  4 27  1  0
  9 28  1  0
 11 29  1  0
 12 30  1  0
 15 31  1  0
 19 32  1  0
 20 33  1  0
 21 34  1  0
 22 35  1  0
M  END
$$$$
