
     RDKit          3D

 49 50  0  0  0  0  0  0  0  0999 V2000
   -4.3633    2.9370    0.8470 C   0  0  0  0  0  0  0  0  0  0  0  0
   -5.1270    1.7423    0.7140 O   0  0  0  0  0  0  0  0  0  0  0  0
   -4.4875    0.6481    0.1907 C   0  0  0  0  0  0  0  0  0  0  0  0
   -3.0988    0.5364    0.0430 C   0  0  0  0  0  0  0  0  0  0  0  0
   -2.5260   -0.6173   -0.5130 C   0  0  0  0  0  0  0  0  0  0  0  0
   -1.0695   -0.7036   -0.6457 C   0  0  0  0  0  0  0  0  0  0  0  0
   -0.3678   -1.7032   -0.0925 C   0  0  0  0  0  0  0  0  0  0  0  0
    1.1000   -1.7427   -0.2290 C   0  0  0  0  0  0  0  0  0  0  0  0
    1.7708   -0.9706   -0.8958 O   0  0  0  0  0  0  0  0  0  0  0  0
    1.5617   -2.7714    0.5207 O   0  0  0  0  0  0  0  0  0  0  0  0
    2.9814   -2.9203    0.5306 C   0  0  0  0  0  0  0  0  0  0  0  0
    3.6932   -1.8219    1.3247 C   0  0  0  0  0  0  0  0  0  0  0  0
    3.8318   -1.8715    2.5434 O   0  0  0  0  0  0  0  0  0  0  0  0
    4.1222   -0.7639    0.5505 N   0  0  0  0  0  0  0  0  0  0  0  0
    4.7385    0.3973    1.1671 C   0  0  0  0  0  0  0  0  0  0  0  0
    5.2829    1.4249    0.1665 C   0  0  0  0  0  0  0  0  0  0  0  0
    4.2301    2.0493   -0.7444 C   0  0  0  0  0  0  0  0  0  0  0  0
    4.4971    1.4204   -2.0910 C   0  0  0  0  0  0  0  0  0  0  0  0
    5.9845    1.1652   -2.0386 C   0  0  0  0  0  0  0  0  0  0  0  0
    6.2768    0.8183   -0.6822 O   0  0  0  0  0  0  0  0  0  0  0  0
   -3.3517   -1.6612   -0.9391 C   0  0  0  0  0  0  0  0  0  0  0  0
   -4.7336   -1.5663   -0.7871 C   0  0  0  0  0  0  0  0  0  0  0  0
   -5.2969   -0.4284   -0.2038 C   0  0  0  0  0  0  0  0  0  0  0  0
   -6.6636   -0.4428   -0.1008 O   0  0  0  0  0  0  0  0  0  0  0  0
   -7.1400   -0.1863    1.2287 C   0  0  0  0  0  0  0  0  0  0  0  0
   -8.2759   -1.0778    1.5237 C   0  0  0  0  0  0  0  0  0  0  0  0
   -9.1529   -1.8044    1.7580 N   0  0  0  0  0  0  0  0  0  0  0  0
   -3.5962    2.8248    1.6199 H   0  0  0  0  0  0  0  0  0  0  0  0
   -5.0414    3.7308    1.1713 H   0  0  0  0  0  0  0  0  0  0  0  0
   -3.9236    3.2377   -0.1104 H   0  0  0  0  0  0  0  0  0  0  0  0
   -2.4367    1.3304    0.3700 H   0  0  0  0  0  0  0  0  0  0  0  0
   -0.5814    0.1001   -1.1934 H   0  0  0  0  0  0  0  0  0  0  0  0
   -0.8346   -2.4957    0.4808 H   0  0  0  0  0  0  0  0  0  0  0  0
    3.2146   -3.8794    1.0052 H   0  0  0  0  0  0  0  0  0  0  0  0
    3.3706   -2.9774   -0.4935 H   0  0  0  0  0  0  0  0  0  0  0  0
    3.5954   -0.6206   -0.3098 H   0  0  0  0  0  0  0  0  0  0  0  0
    3.9968    0.8630    1.8242 H   0  0  0  0  0  0  0  0  0  0  0  0
    5.5582    0.0282    1.7940 H   0  0  0  0  0  0  0  0  0  0  0  0
    5.7822    2.2176    0.7379 H   0  0  0  0  0  0  0  0  0  0  0  0
    3.2006    1.9134   -0.3986 H   0  0  0  0  0  0  0  0  0  0  0  0
    4.4092    3.1307   -0.8103 H   0  0  0  0  0  0  0  0  0  0  0  0
    4.2040    2.0550   -2.9292 H   0  0  0  0  0  0  0  0  0  0  0  0
    3.9554    0.4720   -2.1785 H   0  0  0  0  0  0  0  0  0  0  0  0
    6.2985    0.3559   -2.7043 H   0  0  0  0  0  0  0  0  0  0  0  0
    6.5530    2.0678   -2.2891 H   0  0  0  0  0  0  0  0  0  0  0  0
   -2.9306   -2.5575   -1.3889 H   0  0  0  0  0  0  0  0  0  0  0  0
   -5.3741   -2.3820   -1.1163 H   0  0  0  0  0  0  0  0  0  0  0  0
   -6.3644   -0.3559    1.9855 H   0  0  0  0  0  0  0  0  0  0  0  0
   -7.4721    0.8555    1.2865 H   0  0  0  0  0  0  0  0  0  0  0  0
  1  2  1  0
  2  3  1  0
  3  4  2  0
  4  5  1  0
  5  6  1  0
  6  7  2  3
  7  8  1  0
  8  9  2  0
  8 10  1  0
 10 11  1  0
 11 12  1  0
 12 13  2  0
 12 14  1  0
 14 15  1  0
 15 16  1  0
 16 17  1  0
 17 18  1  0
 18 19  1  0
 19 20  1  0
  5 21  2  0
 21 22  1  0
 22 23  2  0
 23 24  1  0
 24 25  1  0
 25 26  1  0
 26 27  3  0
 23  3  1  0
 20 16  1  0
  1 28  1  0
  1 29  1  0
  1 30  1  0
  4 31  1  0
  6 32  1  0
  7 33  1  0
 11 34  1  0
 11 35  1  0
 14 36  1  0
 15 37  1  0
 15 38  1  0
 16 39  1  0
 17 40  1  0
 17 41  1  0
 18 42  1  0
 18 43  1  0
 19 44  1  0
 19 45  1  0
 21 46  1  0
 22 47  1  0
 25 48  1  0
 25 49  1  0
M  END
$$$$
