
     RDKit          3D

 50 52  0  0  0  0  0  0  0  0999 V2000
   -3.3601    0.1535   -2.7135 O   0  0  0  0  0  0  0  0  0  0  0  0
   -4.0026    0.5801   -1.7572 C   0  0  0  0  0  0  0  0  0  0  0  0
   -3.3602    1.3196   -0.5805 C   0  0  0  0  0  0  0  0  0  0  0  0
   -1.9515    1.1116   -0.4964 O   0  0  0  0  0  0  0  0  0  0  0  0
   -1.6056   -0.1102   -0.0203 C   0  0  0  0  0  0  0  0  0  0  0  0
   -2.3770   -0.9443    0.4262 O   0  0  0  0  0  0  0  0  0  0  0  0
   -0.1312   -0.3040   -0.0845 C   0  0  0  0  0  0  0  0  0  0  0  0
    0.4054   -1.4767    0.4707 C   0  0  0  0  0  0  0  0  0  0  0  0
    1.7822   -1.7123    0.4346 C   0  0  0  0  0  0  0  0  0  0  0  0
    2.6232   -0.7660   -0.1561 C   0  0  0  0  0  0  0  0  0  0  0  0
    4.3774   -1.0444   -0.2224 S   0  0  0  0  0  6  0  0  0  0  0  0
    4.7931   -0.8075   -1.5881 O   0  0  0  0  0  0  0  0  0  0  0  0
    4.6742   -2.2924    0.4498 O   0  0  0  0  0  0  0  0  0  0  0  0
    4.9885    0.2193    0.7527 N   0  0  0  0  0  0  0  0  0  0  0  0
    4.6135    0.1793    2.1953 C   0  0  0  0  0  0  0  0  0  0  0  0
    5.8080   -0.1546    3.0788 C   0  0  0  0  0  0  0  0  0  0  0  0
    6.9226    0.8789    2.9314 C   0  0  0  0  0  0  0  0  0  0  0  0
    6.9669    1.4896    1.5320 C   0  0  0  0  0  0  0  0  0  0  0  0
    6.4224    0.5249    0.4859 C   0  0  0  0  0  0  0  0  0  0  0  0
    2.1027    0.4019   -0.7226 C   0  0  0  0  0  0  0  0  0  0  0  0
    0.7248    0.6322   -0.6851 C   0  0  0  0  0  0  0  0  0  0  0  0
   -5.3692    0.4515   -1.6559 N   0  0  0  0  0  0  0  0  0  0  0  0
   -6.1367   -0.1424   -2.7252 C   0  0  0  0  0  0  0  0  0  0  0  0
   -7.4964   -0.4370   -2.2168 C   0  0  0  0  0  0  0  0  0  0  0  0
   -8.1674   -1.6061   -1.9220 C   0  0  0  0  0  0  0  0  0  0  0  0
   -9.4492   -1.2247   -1.4580 C   0  0  0  0  0  0  0  0  0  0  0  0
   -9.4777    0.1505   -1.4937 C   0  0  0  0  0  0  0  0  0  0  0  0
   -8.2944    0.6387   -1.9457 O   0  0  0  0  0  0  0  0  0  0  0  0
   -3.5215    2.3910   -0.7415 H   0  0  0  0  0  0  0  0  0  0  0  0
   -3.8514    1.0521    0.3626 H   0  0  0  0  0  0  0  0  0  0  0  0
   -0.2512   -2.2156    0.9282 H   0  0  0  0  0  0  0  0  0  0  0  0
    2.1834   -2.6299    0.8603 H   0  0  0  0  0  0  0  0  0  0  0  0
    4.2039    1.1616    2.4624 H   0  0  0  0  0  0  0  0  0  0  0  0
    3.8145   -0.5455    2.3807 H   0  0  0  0  0  0  0  0  0  0  0  0
    6.1951   -1.1453    2.8075 H   0  0  0  0  0  0  0  0  0  0  0  0
    5.4997   -0.2154    4.1282 H   0  0  0  0  0  0  0  0  0  0  0  0
    6.7893    1.6825    3.6666 H   0  0  0  0  0  0  0  0  0  0  0  0
    7.8818    0.4034    3.1680 H   0  0  0  0  0  0  0  0  0  0  0  0
    6.3700    2.4108    1.5206 H   0  0  0  0  0  0  0  0  0  0  0  0
    7.9949    1.7784    1.2870 H   0  0  0  0  0  0  0  0  0  0  0  0
    6.5018    0.9929   -0.5012 H   0  0  0  0  0  0  0  0  0  0  0  0
    7.0161   -0.3975    0.4782 H   0  0  0  0  0  0  0  0  0  0  0  0
    2.7631    1.1247   -1.1982 H   0  0  0  0  0  0  0  0  0  0  0  0
    0.3310    1.5395   -1.1381 H   0  0  0  0  0  0  0  0  0  0  0  0
   -5.8784    0.9696   -0.9509 H   0  0  0  0  0  0  0  0  0  0  0  0
   -6.1772    0.5724   -3.5538 H   0  0  0  0  0  0  0  0  0  0  0  0
   -5.6356   -1.0498   -3.0775 H   0  0  0  0  0  0  0  0  0  0  0  0
   -7.7763   -2.6094   -2.0309 H   0  0  0  0  0  0  0  0  0  0  0  0
  -10.2539   -1.8709   -1.1367 H   0  0  0  0  0  0  0  0  0  0  0  0
  -10.2249    0.8915   -1.2433 H   0  0  0  0  0  0  0  0  0  0  0  0
  1  2  2  0
  2  3  1  0
  3  4  1  0
  4  5  1  0
  5  6  2  0
  5  7  1  0
  7  8  2  0
  8  9  1  0
  9 10  2  0
 10 11  1  0
 11 12  2  0
 11 13  2  0
 11 14  1  0
 14 15  1  0
 15 16  1  0
 16 17  1  0
 17 18  1  0
 18 19  1  0
 10 20  1  0
 20 21  2  0
  2 22  1  0
 22 23  1  0
 23 24  1  0
 24 25  2  0
 25 26  1  0
 26 27  2  0
 27 28  1  0
 21  7  1  0
 28 24  1  0
 19 14  1  0
  3 29  1  0
  3 30  1  0
  8 31  1  0
  9 32  1  0
 15 33  1  0
 15 34  1  0
 16 35  1  0
 16 36  1  0
 17 37  1  0
 17 38  1  0
 18 39  1  0
 18 40  1  0
 19 41  1  0
 19 42  1  0
 20 43  1  0
 21 44  1  0
 22 45  1  0
 23 46  1  0
 23 47  1  0
 25 48  1  0
 26 49  1  0
 27 50  1  0
M  END
$$$$
