
     RDKit          3D

 45 47  0  0  0  0  0  0  0  0999 V2000
   -0.4113    2.5708    0.1759 C   0  0  0  0  0  0  0  0  0  0  0  0
    0.1490    1.2437    0.5328 C   0  0  0  0  0  0  0  0  0  0  0  0
    1.4355    0.9588    0.5660 N   0  0  0  0  0  0  0  0  0  0  0  0
    1.4777   -0.3207    1.0838 C   0  0  0  0  0  0  0  0  0  0  0  0
    2.7578   -1.0328    1.3048 C   0  0  0  0  0  0  0  0  0  0  0  0
    2.8208   -2.1780    1.7393 O   0  0  0  0  0  0  0  0  0  0  0  0
    3.8376   -0.2397    0.9534 N   0  0  0  0  0  0  0  0  0  0  0  0
    5.2148   -0.5384    1.0125 C   0  0  0  0  0  0  0  0  0  0  0  0
    5.7128   -1.7616    1.4704 C   0  0  0  0  0  0  0  0  0  0  0  0
    7.0921   -1.9986    1.5057 C   0  0  0  0  0  0  0  0  0  0  0  0
    7.9817   -1.0141    1.0835 C   0  0  0  0  0  0  0  0  0  0  0  0
    9.6745   -1.3145    1.1301 Cl  0  0  0  0  0  0  0  0  0  0  0  0
    7.5095    0.2103    0.6242 C   0  0  0  0  0  0  0  0  0  0  0  0
    6.1329    0.4439    0.5902 C   0  0  0  0  0  0  0  0  0  0  0  0
    5.5868    1.9826    0.0103 Cl  0  0  0  0  0  0  0  0  0  0  0  0
    0.2698   -0.8291    1.3563 N   0  0  0  0  0  0  0  0  0  0  0  0
   -0.5813    0.1496    0.9816 N   0  0  0  0  0  0  0  0  0  0  0  0
   -1.9842   -0.0706    0.9782 C   0  0  0  0  0  0  0  0  0  0  0  0
   -2.7497    0.4468   -0.0816 C   0  0  0  0  0  0  0  0  0  0  0  0
   -4.1251    0.1992   -0.1497 C   0  0  0  0  0  0  0  0  0  0  0  0
   -4.8599    0.7409   -1.1711 O   0  0  0  0  0  0  0  0  0  0  0  0
   -4.5758    0.1452   -2.4493 C   0  0  0  0  0  0  0  0  0  0  0  0
   -5.8307   -0.5765   -2.9289 C   0  0  0  0  0  0  0  0  0  0  0  0
   -4.2026    1.2664   -3.4131 C   0  0  0  0  0  0  0  0  0  0  0  0
   -4.7569   -0.5269    0.8602 C   0  0  0  0  0  0  0  0  0  0  0  0
   -6.4591   -0.8026    0.8446 Cl  0  0  0  0  0  0  0  0  0  0  0  0
   -4.0059   -1.0468    1.9131 C   0  0  0  0  0  0  0  0  0  0  0  0
   -2.6223   -0.8288    1.9769 C   0  0  0  0  0  0  0  0  0  0  0  0
   -1.8385   -1.4173    3.4034 Cl  0  0  0  0  0  0  0  0  0  0  0  0
   -0.6655    2.6105   -0.8871 H   0  0  0  0  0  0  0  0  0  0  0  0
   -1.2964    2.8147    0.7704 H   0  0  0  0  0  0  0  0  0  0  0  0
    0.3325    3.3521    0.3659 H   0  0  0  0  0  0  0  0  0  0  0  0
    3.5881    0.6864    0.6058 H   0  0  0  0  0  0  0  0  0  0  0  0
    5.0566   -2.5577    1.8104 H   0  0  0  0  0  0  0  0  0  0  0  0
    7.4598   -2.9569    1.8658 H   0  0  0  0  0  0  0  0  0  0  0  0
    8.2058    0.9767    0.2956 H   0  0  0  0  0  0  0  0  0  0  0  0
   -2.2937    1.0058   -0.8925 H   0  0  0  0  0  0  0  0  0  0  0  0
   -3.7502   -0.5775   -2.4019 H   0  0  0  0  0  0  0  0  0  0  0  0
   -5.6905   -0.9943   -3.9306 H   0  0  0  0  0  0  0  0  0  0  0  0
   -6.6924    0.0999   -2.9462 H   0  0  0  0  0  0  0  0  0  0  0  0
   -6.0853   -1.3952   -2.2481 H   0  0  0  0  0  0  0  0  0  0  0  0
   -5.0043    2.0103   -3.4802 H   0  0  0  0  0  0  0  0  0  0  0  0
   -3.9999    0.8775   -4.4156 H   0  0  0  0  0  0  0  0  0  0  0  0
   -3.3118    1.7965   -3.0599 H   0  0  0  0  0  0  0  0  0  0  0  0
   -4.5030   -1.6098    2.7006 H   0  0  0  0  0  0  0  0  0  0  0  0
  1  2  1  0
  2  3  2  0
  3  4  1  0
  4  5  1  0
  5  6  2  0
  5  7  1  0
  7  8  1  0
  8  9  2  0
  9 10  1  0
 10 11  2  0
 11 12  1  0
 11 13  1  0
 13 14  2  0
 14 15  1  0
  4 16  2  0
 16 17  1  0
 17 18  1  0
 18 19  2  0
 19 20  1  0
 20 21  1  0
 21 22  1  0
 22 23  1  0
 22 24  1  0
 20 25  2  0
 25 26  1  0
 25 27  1  0
 27 28  2  0
 28 29  1  0
 17  2  1  0
 28 18  1  0
 14  8  1  0
  1 30  1  0
  1 31  1  0
  1 32  1  0
  7 33  1  0
  9 34  1  0
 10 35  1  0
 13 36  1  0
 19 37  1  0
 22 38  1  0
 23 39  1  0
 23 40  1  0
 23 41  1  0
 24 42  1  0
 24 43  1  0
 24 44  1  0
 27 45  1  0
M  END
$$$$
