
     RDKit          3D

 57 60  0  0  0  0  0  0  0  0999 V2000
   -6.3345    0.6544   -1.0542 C   0  0  0  0  0  0  0  0  0  0  0  0
   -5.5530    0.9355    0.1739 C   0  0  0  0  0  0  0  0  0  0  0  0
   -6.1818    1.2823    1.3038 N   0  0  0  0  0  0  0  0  0  0  0  0
   -5.1912    1.4523    2.2499 O   0  0  0  0  0  0  0  0  0  0  0  0
   -3.9774    1.2204    1.6823 C   0  0  0  0  0  0  0  0  0  0  0  0
   -2.8038    1.3495    2.5636 C   0  0  0  0  0  0  0  0  0  0  0  0
   -4.1435    0.8935    0.3535 C   0  0  0  0  0  0  0  0  0  0  0  0
   -3.0982    0.5567   -0.6446 C   0  0  0  0  0  0  0  0  0  0  0  0
   -2.5421   -0.7360   -0.3526 O   0  0  0  0  0  0  0  0  0  0  0  0
   -2.3251   -1.4872   -1.4767 C   0  0  0  0  0  0  0  0  0  0  0  0
   -2.9980   -2.7099   -1.5368 C   0  0  0  0  0  0  0  0  0  0  0  0
   -2.8519   -3.5390   -2.6518 C   0  0  0  0  0  0  0  0  0  0  0  0
   -2.0212   -3.1565   -3.7070 C   0  0  0  0  0  0  0  0  0  0  0  0
   -1.3193   -1.9519   -3.6392 C   0  0  0  0  0  0  0  0  0  0  0  0
   -1.4528   -1.1290   -2.5111 C   0  0  0  0  0  0  0  0  0  0  0  0
   -0.6446    0.1045   -2.4739 C   0  0  0  0  0  0  0  0  0  0  0  0
   -0.9204    0.9859   -3.2844 O   0  0  0  0  0  0  0  0  0  0  0  0
    0.3715    0.2121   -1.5336 N   0  0  0  0  0  0  0  0  0  0  0  0
    1.1589    1.4456   -1.4863 C   0  0  0  0  0  0  0  0  0  0  0  0
    1.7963    1.7042   -0.1089 C   0  0  0  0  0  0  0  0  0  0  0  0
    2.6013    0.5563    0.3492 N   0  0  0  0  0  0  0  0  0  0  0  0
    3.6512    0.7208    1.2404 C   0  0  0  0  0  0  0  0  0  0  0  0
    3.7539    1.8527    2.0673 C   0  0  0  0  0  0  0  0  0  0  0  0
    4.8097    2.0193    2.9728 C   0  0  0  0  0  0  0  0  0  0  0  0
    5.8020    1.0482    3.0793 C   0  0  0  0  0  0  0  0  0  0  0  0
    5.7394   -0.0969    2.2818 C   0  0  0  0  0  0  0  0  0  0  0  0
    6.8038   -1.1630    2.3564 C   0  0  0  0  0  0  0  0  0  0  0  0
    7.6587   -1.1187    1.2943 F   0  0  0  0  0  0  0  0  0  0  0  0
    6.2858   -2.4253    2.3643 F   0  0  0  0  0  0  0  0  0  0  0  0
    7.5855   -1.0777    3.4702 F   0  0  0  0  0  0  0  0  0  0  0  0
    4.6711   -0.2391    1.3714 C   0  0  0  0  0  0  0  0  0  0  0  0
    2.2677   -0.7668   -0.2075 C   0  0  0  0  0  0  0  0  0  0  0  0
    0.7880   -0.8598   -0.6215 C   0  0  0  0  0  0  0  0  0  0  0  0
   -6.2086    1.4638   -1.7794 H   0  0  0  0  0  0  0  0  0  0  0  0
   -6.0003   -0.2787   -1.5181 H   0  0  0  0  0  0  0  0  0  0  0  0
   -7.4021    0.5549   -0.8376 H   0  0  0  0  0  0  0  0  0  0  0  0
   -2.2418    2.2583    2.3205 H   0  0  0  0  0  0  0  0  0  0  0  0
   -2.1347    0.4918    2.4436 H   0  0  0  0  0  0  0  0  0  0  0  0
   -3.1007    1.4026    3.6147 H   0  0  0  0  0  0  0  0  0  0  0  0
   -2.2920    1.2995   -0.5811 H   0  0  0  0  0  0  0  0  0  0  0  0
   -3.5256    0.6057   -1.6564 H   0  0  0  0  0  0  0  0  0  0  0  0
   -3.6472   -3.0118   -0.7183 H   0  0  0  0  0  0  0  0  0  0  0  0
   -3.3888   -4.4843   -2.7005 H   0  0  0  0  0  0  0  0  0  0  0  0
   -1.9143   -3.8002   -4.5771 H   0  0  0  0  0  0  0  0  0  0  0  0
   -0.6571   -1.6607   -4.4527 H   0  0  0  0  0  0  0  0  0  0  0  0
    0.5318    2.2983   -1.7706 H   0  0  0  0  0  0  0  0  0  0  0  0
    1.9435    1.3465   -2.2481 H   0  0  0  0  0  0  0  0  0  0  0  0
    1.0061    1.8986    0.6288 H   0  0  0  0  0  0  0  0  0  0  0  0
    2.4135    2.6079   -0.1974 H   0  0  0  0  0  0  0  0  0  0  0  0
    2.9912    2.6295    2.0407 H   0  0  0  0  0  0  0  0  0  0  0  0
    4.8460    2.9079    3.5994 H   0  0  0  0  0  0  0  0  0  0  0  0
    6.6186    1.1880    3.7859 H   0  0  0  0  0  0  0  0  0  0  0  0
    4.6649   -1.1270    0.7411 H   0  0  0  0  0  0  0  0  0  0  0  0
    2.4466   -1.5597    0.5298 H   0  0  0  0  0  0  0  0  0  0  0  0
    2.9063   -0.9578   -1.0797 H   0  0  0  0  0  0  0  0  0  0  0  0
    0.1561   -0.7753    0.2695 H   0  0  0  0  0  0  0  0  0  0  0  0
    0.6027   -1.8354   -1.0778 H   0  0  0  0  0  0  0  0  0  0  0  0
  1  2  1  0
  2  3  2  0
  3  4  1  0
  4  5  1  0
  5  6  1  0
  5  7  2  0
  7  8  1  0
  8  9  1  0
  9 10  1  0
 10 11  2  0
 11 12  1  0
 12 13  2  0
 13 14  1  0
 14 15  2  0
 15 16  1  0
 16 17  2  0
 16 18  1  0
 18 19  1  0
 19 20  1  0
 20 21  1  0
 21 22  1  0
 22 23  2  0
 23 24  1  0
 24 25  2  0
 25 26  1  0
 26 27  1  0
 27 28  1  0
 27 29  1  0
 27 30  1  0
 26 31  2  0
 21 32  1  0
 32 33  1  0
  7  2  1  0
 15 10  1  0
 33 18  1  0
 31 22  1  0
  1 34  1  0
  1 35  1  0
  1 36  1  0
  6 37  1  0
  6 38  1  0
  6 39  1  0
  8 40  1  0
  8 41  1  0
 11 42  1  0
 12 43  1  0
 13 44  1  0
 14 45  1  0
 19 46  1  0
 19 47  1  0
 20 48  1  0
 20 49  1  0
 23 50  1  0
 24 51  1  0
 25 52  1  0
 31 53  1  0
 32 54  1  0
 32 55  1  0
 33 56  1  0
 33 57  1  0
M  END
$$$$
