
     RDKit          3D

 71 75  0  0  0  0  0  0  0  0999 V2000
   -0.4654   -0.6324    5.6748 C   0  0  0  0  0  0  0  0  0  0  0  0
   -0.5502   -1.3420    4.3307 C   0  0  0  0  0  0  0  0  0  0  0  0
   -0.3417   -0.3961    3.2195 N   0  0  0  0  0  0  0  0  0  0  0  0
    0.9341   -0.1800    2.7134 C   0  0  0  0  0  0  0  0  0  0  0  0
    1.2799    0.6610    1.7280 C   0  0  0  0  0  0  0  0  0  0  0  0
    2.7122    0.7292    1.3226 C   0  0  0  0  0  0  0  0  0  0  0  0
    3.5675    0.0237    1.8528 O   0  0  0  0  0  0  0  0  0  0  0  0
    2.9986    1.6165    0.3168 N   0  0  0  0  0  0  0  0  0  0  0  0
    4.3135    1.7218   -0.2782 C   0  0  0  0  0  0  0  0  0  0  0  0
    4.5420    0.6371   -1.3289 C   0  0  0  0  0  0  0  0  0  0  0  0
    5.9418    0.7532   -1.9406 C   0  0  0  0  0  0  0  0  0  0  0  0
    6.1645   -0.2340   -3.0016 N   0  0  0  0  0  0  0  0  0  0  0  0
    7.4503   -0.0374   -3.6747 C   0  0  0  0  0  0  0  0  0  0  0  0
    7.5812   -1.3120   -4.4883 C   0  0  0  0  0  0  0  0  0  0  0  0
    6.9125   -2.3805   -3.6325 C   0  0  0  0  0  0  0  0  0  0  0  0
    6.1989   -1.6197   -2.5209 C   0  0  0  0  0  0  0  0  0  0  0  0
    0.1853    1.4456    1.1111 C   0  0  0  0  0  0  0  0  0  0  0  0
    0.3913    2.2043    0.1658 O   0  0  0  0  0  0  0  0  0  0  0  0
   -1.1849    1.2839    1.6607 C   0  0  0  0  0  0  0  0  0  0  0  0
   -2.2172    2.0631    1.1151 C   0  0  0  0  0  0  0  0  0  0  0  0
   -3.5163    1.9083    1.5925 C   0  0  0  0  0  0  0  0  0  0  0  0
   -4.8230    2.9277    0.9460 S   0  0  0  0  0  6  0  0  0  0  0  0
   -5.7983    3.0878    2.0050 O   0  0  0  0  0  0  0  0  0  0  0  0
   -4.2027    4.0806    0.3282 O   0  0  0  0  0  0  0  0  0  0  0  0
   -5.5019    1.9805   -0.2607 N   0  0  0  0  0  0  0  0  0  0  0  0
   -4.8372    1.8331   -1.5677 C   0  0  0  0  0  0  0  0  0  0  0  0
   -4.0848    0.5092   -1.6774 C   0  0  0  0  0  0  0  0  0  0  0  0
   -4.9331   -0.6652   -1.2672 C   0  0  0  0  0  0  0  0  0  0  0  0
   -4.6063   -1.9533   -1.7152 C   0  0  0  0  0  0  0  0  0  0  0  0
   -5.3772   -3.0515   -1.3326 C   0  0  0  0  0  0  0  0  0  0  0  0
   -6.4721   -2.8742   -0.4910 C   0  0  0  0  0  0  0  0  0  0  0  0
   -6.7937   -1.5988   -0.0255 C   0  0  0  0  0  0  0  0  0  0  0  0
   -6.0257   -0.4838   -0.4015 C   0  0  0  0  0  0  0  0  0  0  0  0
   -6.4150    0.8864    0.1094 C   0  0  0  0  0  0  0  0  0  0  0  0
   -3.7779    1.0201    2.6345 C   0  0  0  0  0  0  0  0  0  0  0  0
   -2.7385    0.2536    3.1777 C   0  0  0  0  0  0  0  0  0  0  0  0
   -1.4187    0.3598    2.7057 C   0  0  0  0  0  0  0  0  0  0  0  0
   -1.2538    0.1185    5.7850 H   0  0  0  0  0  0  0  0  0  0  0  0
   -0.5681   -1.3552    6.4908 H   0  0  0  0  0  0  0  0  0  0  0  0
    0.4980   -0.1241    5.7922 H   0  0  0  0  0  0  0  0  0  0  0  0
    0.2250   -2.1203    4.2998 H   0  0  0  0  0  0  0  0  0  0  0  0
   -1.4948   -1.8890    4.2328 H   0  0  0  0  0  0  0  0  0  0  0  0
    1.6974   -0.7856    3.2019 H   0  0  0  0  0  0  0  0  0  0  0  0
    2.2231    2.1171   -0.1208 H   0  0  0  0  0  0  0  0  0  0  0  0
    4.3849    2.7178   -0.7270 H   0  0  0  0  0  0  0  0  0  0  0  0
    5.0641    1.6478    0.5163 H   0  0  0  0  0  0  0  0  0  0  0  0
    4.4055   -0.3478   -0.8667 H   0  0  0  0  0  0  0  0  0  0  0  0
    3.7813    0.7243   -2.1147 H   0  0  0  0  0  0  0  0  0  0  0  0
    6.7049    0.6668   -1.1544 H   0  0  0  0  0  0  0  0  0  0  0  0
    6.0419    1.7585   -2.3732 H   0  0  0  0  0  0  0  0  0  0  0  0
    8.2785    0.0387   -2.9588 H   0  0  0  0  0  0  0  0  0  0  0  0
    7.4509    0.8514   -4.3124 H   0  0  0  0  0  0  0  0  0  0  0  0
    8.6232   -1.5577   -4.7115 H   0  0  0  0  0  0  0  0  0  0  0  0
    7.0475   -1.2146   -5.4418 H   0  0  0  0  0  0  0  0  0  0  0  0
    7.6519   -3.0736   -3.2157 H   0  0  0  0  0  0  0  0  0  0  0  0
    6.2084   -2.9668   -4.2353 H   0  0  0  0  0  0  0  0  0  0  0  0
    6.7733   -1.7079   -1.5888 H   0  0  0  0  0  0  0  0  0  0  0  0
    5.1947   -2.0202   -2.3533 H   0  0  0  0  0  0  0  0  0  0  0  0
   -2.0016    2.7808    0.3249 H   0  0  0  0  0  0  0  0  0  0  0  0
   -5.6122    1.8919   -2.3445 H   0  0  0  0  0  0  0  0  0  0  0  0
   -4.1532    2.6651   -1.7652 H   0  0  0  0  0  0  0  0  0  0  0  0
   -3.1916    0.5207   -1.0454 H   0  0  0  0  0  0  0  0  0  0  0  0
   -3.7507    0.3852   -2.7144 H   0  0  0  0  0  0  0  0  0  0  0  0
   -3.7524   -2.1076   -2.3725 H   0  0  0  0  0  0  0  0  0  0  0  0
   -5.1275   -4.0462   -1.6968 H   0  0  0  0  0  0  0  0  0  0  0  0
   -7.0773   -3.7296   -0.1994 H   0  0  0  0  0  0  0  0  0  0  0  0
   -7.6532   -1.4774    0.6311 H   0  0  0  0  0  0  0  0  0  0  0  0
   -7.4033    1.1387   -0.2977 H   0  0  0  0  0  0  0  0  0  0  0  0
   -6.5245    0.8220    1.1972 H   0  0  0  0  0  0  0  0  0  0  0  0
   -4.7822    0.9228    3.0430 H   0  0  0  0  0  0  0  0  0  0  0  0
   -2.9996   -0.4181    3.9896 H   0  0  0  0  0  0  0  0  0  0  0  0
  1  2  1  0
  2  3  1  0
  3  4  1  0
  4  5  2  0
  5  6  1  0
  6  7  2  0
  6  8  1  0
  8  9  1  0
  9 10  1  0
 10 11  1  0
 11 12  1  0
 12 13  1  0
 13 14  1  0
 14 15  1  0
 15 16  1  0
  5 17  1  0
 17 18  2  0
 17 19  1  0
 19 20  2  0
 20 21  1  0
 21 22  1  0
 22 23  2  0
 22 24  2  0
 22 25  1  0
 25 26  1  0
 26 27  1  0
 27 28  1  0
 28 29  2  0
 29 30  1  0
 30 31  2  0
 31 32  1  0
 32 33  2  0
 33 34  1  0
 21 35  2  0
 35 36  1  0
 36 37  2  0
 37  3  1  0
 16 12  1  0
 37 19  1  0
 34 25  1  0
 33 28  1  0
  1 38  1  0
  1 39  1  0
  1 40  1  0
  2 41  1  0
  2 42  1  0
  4 43  1  0
  8 44  1  0
  9 45  1  0
  9 46  1  0
 10 47  1  0
 10 48  1  0
 11 49  1  0
 11 50  1  0
 13 51  1  0
 13 52  1  0
 14 53  1  0
 14 54  1  0
 15 55  1  0
 15 56  1  0
 16 57  1  0
 16 58  1  0
 20 59  1  0
 26 60  1  0
 26 61  1  0
 27 62  1  0
 27 63  1  0
 29 64  1  0
 30 65  1  0
 31 66  1  0
 32 67  1  0
 34 68  1  0
 34 69  1  0
 35 70  1  0
 36 71  1  0
M  END
$$$$
