
     RDKit          3D

 37 39  0  0  0  0  0  0  0  0999 V2000
   -1.5969   -1.8971    1.4400 O   0  0  0  0  0  0  0  0  0  0  0  0
   -1.4173   -0.6852    1.3764 C   0  0  0  0  0  0  0  0  0  0  0  0
   -0.3384   -0.0288    2.2122 C   0  0  0  0  0  0  0  0  0  0  0  0
    1.0409   -0.3194    1.6226 C   0  0  0  0  0  0  0  0  0  0  0  0
    1.3350    0.7109    0.1451 S   0  0  0  0  0  0  0  0  0  0  0  0
    3.0363    0.2697   -0.1397 C   0  0  0  0  0  0  0  0  0  0  0  0
    3.5482    0.3710   -1.4380 C   0  0  0  0  0  0  0  0  0  0  0  0
    4.8953    0.1045   -1.6883 C   0  0  0  0  0  0  0  0  0  0  0  0
    5.7419   -0.2479   -0.6396 C   0  0  0  0  0  0  0  0  0  0  0  0
    5.2423   -0.3396    0.6604 C   0  0  0  0  0  0  0  0  0  0  0  0
    3.8884   -0.0955    0.9121 C   0  0  0  0  0  0  0  0  0  0  0  0
    3.4428   -0.1756    2.2402 N   0  0  0  0  0  0  0  0  0  0  0  0
    2.1400   -0.1236    2.6625 C   0  0  0  0  0  0  0  0  0  0  0  0
    1.9127   -0.0307    3.8698 O   0  0  0  0  0  0  0  0  0  0  0  0
   -2.0896    0.2064    0.5629 N   0  0  0  0  0  0  0  0  0  0  0  0
   -3.1552   -0.0484   -0.3412 C   0  0  0  0  0  0  0  0  0  0  0  0
   -3.7452   -1.3167   -0.4370 C   0  0  0  0  0  0  0  0  0  0  0  0
   -4.7987   -1.5678   -1.3251 C   0  0  0  0  0  0  0  0  0  0  0  0
   -5.2908   -0.5557   -2.1407 C   0  0  0  0  0  0  0  0  0  0  0  0
   -4.7293    0.7157   -2.0710 C   0  0  0  0  0  0  0  0  0  0  0  0
   -3.6689    0.9711   -1.1784 C   0  0  0  0  0  0  0  0  0  0  0  0
   -3.1167    2.3347   -1.1661 N   0  0  0  0  0  4  0  0  0  0  0  0
   -2.3923    2.6637   -0.2132 O   0  0  0  0  0  0  0  0  0  0  0  0
   -3.4054    3.0852   -2.1094 O   0  0  0  0  0  1  0  0  0  0  0  0
   -0.5176    1.0466    2.3319 H   0  0  0  0  0  0  0  0  0  0  0  0
   -0.4387   -0.4569    3.2180 H   0  0  0  0  0  0  0  0  0  0  0  0
    1.0930   -1.3704    1.3099 H   0  0  0  0  0  0  0  0  0  0  0  0
    2.9043    0.6667   -2.2636 H   0  0  0  0  0  0  0  0  0  0  0  0
    5.2850    0.1836   -2.7004 H   0  0  0  0  0  0  0  0  0  0  0  0
    6.7934   -0.4464   -0.8337 H   0  0  0  0  0  0  0  0  0  0  0  0
    5.9191   -0.6111    1.4664 H   0  0  0  0  0  0  0  0  0  0  0  0
    4.1266   -0.2120    2.9861 H   0  0  0  0  0  0  0  0  0  0  0  0
   -1.7604    1.1733    0.5904 H   0  0  0  0  0  0  0  0  0  0  0  0
   -3.4145   -2.1493    0.1776 H   0  0  0  0  0  0  0  0  0  0  0  0
   -5.2332   -2.5646   -1.3723 H   0  0  0  0  0  0  0  0  0  0  0  0
   -6.1090   -0.7576   -2.8282 H   0  0  0  0  0  0  0  0  0  0  0  0
   -5.1268    1.4973   -2.7164 H   0  0  0  0  0  0  0  0  0  0  0  0
  1  2  2  0
  2  3  1  0
  3  4  1  0
  4  5  1  0
  5  6  1  0
  6  7  2  0
  7  8  1  0
  8  9  2  0
  9 10  1  0
 10 11  2  0
 11 12  1  0
 12 13  1  0
 13 14  2  0
  2 15  1  0
 15 16  1  0
 16 17  2  0
 17 18  1  0
 18 19  2  0
 19 20  1  0
 20 21  2  0
 21 22  1  0
 22 23  2  0
 22 24  1  0
 13  4  1  0
 21 16  1  0
 11  6  1  0
  3 25  1  0
  3 26  1  0
  4 27  1  0
  7 28  1  0
  8 29  1  0
  9 30  1  0
 10 31  1  0
 12 32  1  0
 15 33  1  0
 17 34  1  0
 18 35  1  0
 19 36  1  0
 20 37  1  0
M  CHG  2  22   1  24  -1
M  END
$$$$
