
     RDKit          3D

 21 21  0  0  0  0  0  0  0  0999 V2000
   -1.7608   -2.3120   -0.1610 C   0  0  0  0  0  0  0  0  0  0  0  0
   -0.6049   -1.7312   -0.7512 O   0  0  0  0  0  0  0  0  0  0  0  0
   -0.1909   -0.5165   -0.2729 C   0  0  0  0  0  0  0  0  0  0  0  0
   -0.9838    0.3241    0.5223 C   0  0  0  0  0  0  0  0  0  0  0  0
   -0.5406    1.5993    0.9081 C   0  0  0  0  0  0  0  0  0  0  0  0
   -1.3236    2.3467    1.8053 N   0  0  0  0  0  0  0  0  0  0  0  0
    0.7576    1.9953    0.5482 C   0  0  0  0  0  0  0  0  0  0  0  0
    1.4561    3.6748    1.0982 Br  0  0  0  0  0  0  0  0  0  0  0  0
    1.5597    1.1783   -0.2464 C   0  0  0  0  0  0  0  0  0  0  0  0
    1.0879   -0.0772   -0.6490 C   0  0  0  0  0  0  0  0  0  0  0  0
    1.9984   -0.8870   -1.4809 C   0  0  0  0  0  0  0  0  0  0  0  0
    2.6685   -0.4641   -2.4052 O   0  0  0  0  0  0  0  0  0  0  0  0
    2.1139   -2.1507   -1.0403 O   0  0  0  0  0  0  0  0  0  0  0  0
   -1.8609   -3.3286   -0.5532 H   0  0  0  0  0  0  0  0  0  0  0  0
   -2.6621   -1.7576   -0.4413 H   0  0  0  0  0  0  0  0  0  0  0  0
   -1.6613   -2.3832    0.9274 H   0  0  0  0  0  0  0  0  0  0  0  0
   -1.9702    0.0105    0.8485 H   0  0  0  0  0  0  0  0  0  0  0  0
   -2.3247    2.2103    1.7108 H   0  0  0  0  0  0  0  0  0  0  0  0
   -1.0635    3.3308    1.8346 H   0  0  0  0  0  0  0  0  0  0  0  0
    2.5542    1.5025   -0.5451 H   0  0  0  0  0  0  0  0  0  0  0  0
    2.7512   -2.5647   -1.6569 H   0  0  0  0  0  0  0  0  0  0  0  0
  1  2  1  0
  2  3  1  0
  3  4  2  0
  4  5  1  0
  5  6  1  0
  5  7  2  0
  7  8  1  0
  7  9  1  0
  9 10  2  0
 10 11  1  0
 11 12  2  0
 11 13  1  0
 10  3  1  0
  1 14  1  0
  1 15  1  0
  1 16  1  0
  4 17  1  0
  6 18  1  0
  6 19  1  0
  9 20  1  0
 13 21  1  0
M  END
$$$$
