
     RDKit          3D

 50 53  0  0  0  0  0  0  0  0999 V2000
    7.4871    0.3830   -2.4134 C   0  0  0  0  0  0  0  0  0  0  0  0
    6.3187    0.3951   -1.4783 C   0  0  0  0  0  0  0  0  0  0  0  0
    5.0152    0.3814   -1.9714 C   0  0  0  0  0  0  0  0  0  0  0  0
    3.9203    0.3915   -1.1735 N   0  0  0  0  0  0  0  0  0  0  0  0
    4.1903    0.4204    0.1637 C   0  0  0  0  0  0  0  0  0  0  0  0
    3.0256    0.4324    1.0915 C   0  0  0  0  0  0  0  0  0  0  0  0
    3.1750    0.4111    2.3071 O   0  0  0  0  0  0  0  0  0  0  0  0
    1.7994    0.4577    0.4648 N   0  0  0  0  0  0  0  0  0  0  0  0
    0.5565    0.3294    1.1904 C   0  0  0  0  0  0  0  0  0  0  0  0
    0.2863   -1.1492    1.5570 C   0  0  0  0  0  0  0  0  0  0  0  0
   -1.1984   -1.4456    1.9212 C   0  0  0  0  0  0  0  0  0  0  0  0
   -1.6101   -0.6727    3.1909 C   0  0  0  0  0  0  0  0  0  0  0  0
   -1.3459   -2.9510    2.2135 C   0  0  0  0  0  0  0  0  0  0  0  0
   -2.1358   -1.0734    0.7286 C   0  0  0  0  0  0  0  0  0  0  0  0
   -1.7515    0.2355    0.1206 C   0  0  0  0  0  0  0  0  0  0  0  0
   -0.5417    0.8706    0.3420 C   0  0  0  0  0  0  0  0  0  0  0  0
   -0.6640    2.1026   -0.3080 C   0  0  0  0  0  0  0  0  0  0  0  0
   -1.8360    2.2372   -0.9224 N   0  0  0  0  0  0  0  0  0  0  0  0
   -2.4994    1.0609   -0.7114 N   0  0  0  0  0  0  0  0  0  0  0  0
   -3.7726    0.8670   -1.3337 C   0  0  0  0  0  0  0  0  0  0  0  0
   -4.4007    1.9691   -1.9433 C   0  0  0  0  0  0  0  0  0  0  0  0
   -5.6455    1.8333   -2.5633 C   0  0  0  0  0  0  0  0  0  0  0  0
   -6.2760    0.5939   -2.5923 C   0  0  0  0  0  0  0  0  0  0  0  0
   -5.6581   -0.5092   -2.0088 C   0  0  0  0  0  0  0  0  0  0  0  0
   -4.4110   -0.3771   -1.3855 C   0  0  0  0  0  0  0  0  0  0  0  0
    5.4813    0.4325    0.6653 C   0  0  0  0  0  0  0  0  0  0  0  0
    6.5711    0.4197   -0.1451 N   0  0  0  0  0  0  0  0  0  0  0  0
    8.4304    0.3963   -1.8580 H   0  0  0  0  0  0  0  0  0  0  0  0
    7.4681   -0.5201   -3.0312 H   0  0  0  0  0  0  0  0  0  0  0  0
    7.4614    1.2636   -3.0626 H   0  0  0  0  0  0  0  0  0  0  0  0
    4.8151    0.3619   -3.0383 H   0  0  0  0  0  0  0  0  0  0  0  0
    1.8071    0.3606   -0.5478 H   0  0  0  0  0  0  0  0  0  0  0  0
    0.6282    0.9227    2.1104 H   0  0  0  0  0  0  0  0  0  0  0  0
    0.9482   -1.4443    2.3820 H   0  0  0  0  0  0  0  0  0  0  0  0
    0.5684   -1.7878    0.7067 H   0  0  0  0  0  0  0  0  0  0  0  0
   -0.9427   -0.9103    4.0270 H   0  0  0  0  0  0  0  0  0  0  0  0
   -2.6294   -0.9358    3.4963 H   0  0  0  0  0  0  0  0  0  0  0  0
   -1.5858    0.4117    3.0462 H   0  0  0  0  0  0  0  0  0  0  0  0
   -2.3833   -3.2062    2.4575 H   0  0  0  0  0  0  0  0  0  0  0  0
   -0.7185   -3.2531    3.0595 H   0  0  0  0  0  0  0  0  0  0  0  0
   -1.0495   -3.5547    1.3484 H   0  0  0  0  0  0  0  0  0  0  0  0
   -2.0501   -1.8456   -0.0461 H   0  0  0  0  0  0  0  0  0  0  0  0
   -3.1726   -1.0515    1.0823 H   0  0  0  0  0  0  0  0  0  0  0  0
    0.0481    2.9172   -0.3503 H   0  0  0  0  0  0  0  0  0  0  0  0
   -3.9336    2.9530   -1.9352 H   0  0  0  0  0  0  0  0  0  0  0  0
   -6.1177    2.6979   -3.0226 H   0  0  0  0  0  0  0  0  0  0  0  0
   -7.2432    0.4860   -3.0761 H   0  0  0  0  0  0  0  0  0  0  0  0
   -6.1438   -1.4815   -2.0463 H   0  0  0  0  0  0  0  0  0  0  0  0
   -3.9668   -1.2798   -0.9895 H   0  0  0  0  0  0  0  0  0  0  0  0
    5.6820    0.4532    1.7312 H   0  0  0  0  0  0  0  0  0  0  0  0
  1  2  1  0
  2  3  2  0
  3  4  1  0
  4  5  2  0
  5  6  1  0
  6  7  2  0
  6  8  1  0
  8  9  1  0
  9 10  1  0
 10 11  1  0
 11 12  1  0
 11 13  1  0
 11 14  1  0
 14 15  1  0
 15 16  2  0
 16 17  1  0
 17 18  2  0
 18 19  1  0
 19 20  1  0
 20 21  2  0
 21 22  1  0
 22 23  2  0
 23 24  1  0
 24 25  2  0
  5 26  1  0
 26 27  2  0
 27  2  1  0
 16  9  1  0
 25 20  1  0
 19 15  1  0
  1 28  1  0
  1 29  1  0
  1 30  1  0
  3 31  1  0
  8 32  1  0
  9 33  1  0
 10 34  1  0
 10 35  1  0
 12 36  1  0
 12 37  1  0
 12 38  1  0
 13 39  1  0
 13 40  1  0
 13 41  1  0
 14 42  1  0
 14 43  1  0
 17 44  1  0
 21 45  1  0
 22 46  1  0
 23 47  1  0
 24 48  1  0
 25 49  1  0
 26 50  1  0
M  END
$$$$
