
     RDKit          3D

 33 35  0  0  0  0  0  0  0  0999 V2000
    1.5925    1.7085   -1.4388 O   0  0  0  0  0  0  0  0  0  0  0  0
    1.7505    0.8598   -0.5696 C   0  0  0  0  0  0  0  0  0  0  0  0
    0.7866    0.1174    0.0816 N   0  0  0  0  0  0  0  0  0  0  0  0
   -0.5826    0.1204   -0.1478 C   0  0  0  0  0  0  0  0  0  0  0  0
   -1.2830    1.1048   -1.3657 S   0  0  0  0  0  0  0  0  0  0  0  0
   -2.8040    0.5331   -0.9994 C   0  0  0  0  0  0  0  0  0  0  0  0
   -2.8253   -0.3794    0.0166 C   0  0  0  0  0  0  0  0  0  0  0  0
   -1.5287   -0.6465    0.5384 C   0  0  0  0  0  0  0  0  0  0  0  0
   -1.1791   -1.5598    1.6115 C   0  0  0  0  0  0  0  0  0  0  0  0
   -0.0493   -1.7277    2.0536 O   0  0  0  0  0  0  0  0  0  0  0  0
   -2.2160   -2.2545    2.1295 O   0  0  0  0  0  0  0  0  0  0  0  0
   -4.2125   -0.8415    0.2829 C   0  0  0  0  0  0  0  0  0  0  0  0
   -5.0693    0.1966   -0.5085 C   0  0  0  0  0  0  0  0  0  0  0  0
   -4.1324    0.8337   -1.5790 C   0  0  0  0  0  0  0  0  0  0  0  0
    3.1399    0.6357   -0.0869 C   0  0  0  0  0  0  0  0  0  0  0  0
    3.9138    1.7839    0.1528 C   0  0  0  0  0  0  0  0  0  0  0  0
    5.2256    1.6716    0.6156 C   0  0  0  0  0  0  0  0  0  0  0  0
    5.7785    0.4124    0.8341 C   0  0  0  0  0  0  0  0  0  0  0  0
    5.0235   -0.7344    0.5806 C   0  0  0  0  0  0  0  0  0  0  0  0
    3.7070   -0.6291    0.1149 C   0  0  0  0  0  0  0  0  0  0  0  0
    2.8742   -2.1045   -0.2239 Cl  0  0  0  0  0  0  0  0  0  0  0  0
    1.0934   -0.5274    0.8084 H   0  0  0  0  0  0  0  0  0  0  0  0
   -1.7968   -2.8086    2.8187 H   0  0  0  0  0  0  0  0  0  0  0  0
   -4.3642   -1.8488   -0.1188 H   0  0  0  0  0  0  0  0  0  0  0  0
   -4.4698   -0.8295    1.3455 H   0  0  0  0  0  0  0  0  0  0  0  0
   -5.9625   -0.2541   -0.9521 H   0  0  0  0  0  0  0  0  0  0  0  0
   -5.4055    0.9808    0.1829 H   0  0  0  0  0  0  0  0  0  0  0  0
   -4.2581    0.3345   -2.5452 H   0  0  0  0  0  0  0  0  0  0  0  0
   -4.3266    1.9039   -1.6893 H   0  0  0  0  0  0  0  0  0  0  0  0
    3.4896    2.7717   -0.0234 H   0  0  0  0  0  0  0  0  0  0  0  0
    5.8148    2.5671    0.7997 H   0  0  0  0  0  0  0  0  0  0  0  0
    6.8019    0.3220    1.1910 H   0  0  0  0  0  0  0  0  0  0  0  0
    5.4737   -1.7121    0.7388 H   0  0  0  0  0  0  0  0  0  0  0  0
  1  2  2  0
  2  3  1  0
  3  4  1  0
  4  5  1  0
  5  6  1  0
  6  7  2  0
  7  8  1  0
  8  9  1  0
  9 10  2  0
  9 11  1  0
  7 12  1  0
 12 13  1  0
 13 14  1  0
  2 15  1  0
 15 16  2  0
 16 17  1  0
 17 18  2  0
 18 19  1  0
 19 20  2  0
 20 21  1  0
  8  4  2  0
 20 15  1  0
 14  6  1  0
  3 22  1  0
 11 23  1  0
 12 24  1  0
 12 25  1  0
 13 26  1  0
 13 27  1  0
 14 28  1  0
 14 29  1  0
 16 30  1  0
 17 31  1  0
 18 32  1  0
 19 33  1  0
M  END
$$$$
