
     RDKit          3D

 77 83  0  0  0  0  0  0  0  0999 V2000
   -6.5621   -2.5531    1.0554 C   0  0  0  0  0  0  0  0  0  0  0  0
   -5.8336   -2.7842   -0.2732 C   0  0  0  0  0  0  0  0  0  0  0  0
   -5.6997   -4.2981   -0.4999 C   0  0  0  0  0  0  0  0  0  0  0  0
   -6.5927   -2.1793   -1.4593 C   0  0  0  0  0  0  0  0  0  0  0  0
   -4.4673   -2.3012   -0.2199 O   0  0  0  0  0  0  0  0  0  0  0  0
   -4.1959   -0.9845   -0.0248 C   0  0  0  0  0  0  0  0  0  0  0  0
   -5.0488   -0.1181    0.1161 O   0  0  0  0  0  0  0  0  0  0  0  0
   -2.8341   -0.7321   -0.0027 N   0  0  0  0  0  0  0  0  0  0  0  0
   -1.8587   -1.7414   -0.4593 C   0  0  0  0  0  0  0  0  0  0  0  0
   -0.4005   -1.4711   -0.0076 C   0  0  0  0  0  0  0  0  0  0  0  0
   -0.0727   -0.0805   -0.2712 N   0  0  0  0  0  0  0  0  0  0  0  0
   -0.9848    0.8213    0.5073 C   0  0  2  0  0  0  0  0  0  0  0  0
   -2.4001    0.6796   -0.0391 C   0  0  0  0  0  0  0  0  0  0  0  0
   -0.2686    2.1016    0.3463 C   0  0  0  0  0  0  0  0  0  0  0  0
    1.0754    1.8734    0.0087 C   0  0  0  0  0  0  0  0  0  0  0  0
    1.6969    3.0888   -0.1344 C   0  0  0  0  0  0  0  0  0  0  0  0
    2.9599    3.3735   -0.4439 O   0  0  0  0  0  0  0  0  0  0  0  0
    0.7446    4.0826    0.1804 N   0  0  0  0  0  0  0  0  0  0  0  0
    0.9904    5.4890    0.2923 C   0  0  0  0  0  0  0  0  0  0  0  0
    1.9623    6.1132   -0.4991 C   0  0  0  0  0  0  0  0  0  0  0  0
    2.1870    7.4883   -0.3851 C   0  0  0  0  0  0  0  0  0  0  0  0
    1.4529    8.2466    0.5244 C   0  0  0  0  0  0  0  0  0  0  0  0
    0.4962    7.6315    1.3282 C   0  0  0  0  0  0  0  0  0  0  0  0
    0.2659    6.2578    1.2170 C   0  0  0  0  0  0  0  0  0  0  0  0
   -0.4985    3.4454    0.3865 C   0  0  0  0  0  0  0  0  0  0  0  0
   -1.6648    4.0703    0.5345 O   0  0  0  0  0  0  0  0  0  0  0  0
    1.3149    0.4078   -0.1007 C   0  0  1  0  0  0  0  0  0  0  0  0
    2.0707   -0.1846    1.1149 C   0  0  0  0  0  0  0  0  0  0  0  0
    1.6966   -0.2209    2.2799 O   0  0  0  0  0  0  0  0  0  0  0  0
    3.2787   -0.7026    0.6139 N   0  0  0  0  0  0  0  0  0  0  0  0
    4.2119   -1.4484    1.4270 C   0  0  0  0  0  0  0  0  0  0  0  0
    3.9163   -2.9316    1.4276 C   0  0  0  0  0  0  0  0  0  0  0  0
    2.8468   -3.4408    2.1809 C   0  0  0  0  0  0  0  0  0  0  0  0
    2.5555   -4.8055    2.1714 C   0  0  0  0  0  0  0  0  0  0  0  0
    3.3281   -5.6778    1.4086 C   0  0  0  0  0  0  0  0  0  0  0  0
    4.3934   -5.1865    0.6570 C   0  0  0  0  0  0  0  0  0  0  0  0
    4.6871   -3.8213    0.6661 C   0  0  0  0  0  0  0  0  0  0  0  0
    3.3758   -0.5188   -0.7747 C   0  0  0  0  0  0  0  0  0  0  0  0
    4.4001   -0.8868   -1.6281 C   0  0  0  0  0  0  0  0  0  0  0  0
    4.2627   -0.5909   -2.9879 C   0  0  0  0  0  0  0  0  0  0  0  0
    3.1149    0.0574   -3.4715 C   0  0  0  0  0  0  0  0  0  0  0  0
    2.0876    0.4243   -2.6015 C   0  0  0  0  0  0  0  0  0  0  0  0
    2.2351    0.1389   -1.2508 C   0  0  0  0  0  0  0  0  0  0  0  0
   -7.5296   -3.0665    1.0734 H   0  0  0  0  0  0  0  0  0  0  0  0
   -5.9605   -2.9143    1.8972 H   0  0  0  0  0  0  0  0  0  0  0  0
   -6.7534   -1.4917    1.2391 H   0  0  0  0  0  0  0  0  0  0  0  0
   -6.6770   -4.7889   -0.5601 H   0  0  0  0  0  0  0  0  0  0  0  0
   -5.1265   -4.7644    0.3104 H   0  0  0  0  0  0  0  0  0  0  0  0
   -5.1502   -4.5066   -1.4255 H   0  0  0  0  0  0  0  0  0  0  0  0
   -6.7833   -1.1110   -1.3217 H   0  0  0  0  0  0  0  0  0  0  0  0
   -7.5626   -2.6678   -1.6029 H   0  0  0  0  0  0  0  0  0  0  0  0
   -6.0124   -2.2784   -2.3834 H   0  0  0  0  0  0  0  0  0  0  0  0
   -1.9102   -1.7492   -1.5555 H   0  0  0  0  0  0  0  0  0  0  0  0
   -2.1593   -2.7351   -0.1103 H   0  0  0  0  0  0  0  0  0  0  0  0
   -0.3027   -1.7086    1.0586 H   0  0  0  0  0  0  0  0  0  0  0  0
    0.2663   -2.1426   -0.5599 H   0  0  0  0  0  0  0  0  0  0  0  0
   -0.9698    0.5434    1.5711 H   0  0  0  0  0  0  0  0  0  0  0  0
   -3.0955    1.2976    0.5401 H   0  0  0  0  0  0  0  0  0  0  0  0
   -2.4648    1.0130   -1.0830 H   0  0  0  0  0  0  0  0  0  0  0  0
    3.4147    2.5382   -0.6534 H   0  0  0  0  0  0  0  0  0  0  0  0
    2.5371    5.5595   -1.2361 H   0  0  0  0  0  0  0  0  0  0  0  0
    2.9377    7.9661   -1.0096 H   0  0  0  0  0  0  0  0  0  0  0  0
    1.6352    9.3145    0.6147 H   0  0  0  0  0  0  0  0  0  0  0  0
   -0.0597    8.2181    2.0557 H   0  0  0  0  0  0  0  0  0  0  0  0
   -0.4455    5.8003    1.9018 H   0  0  0  0  0  0  0  0  0  0  0  0
   -1.5882    4.9667    0.1597 H   0  0  0  0  0  0  0  0  0  0  0  0
    5.2357   -1.2487    1.0898 H   0  0  0  0  0  0  0  0  0  0  0  0
    4.1543   -1.0807    2.4591 H   0  0  0  0  0  0  0  0  0  0  0  0
    2.2336   -2.7736    2.7852 H   0  0  0  0  0  0  0  0  0  0  0  0
    1.7267   -5.1870    2.7622 H   0  0  0  0  0  0  0  0  0  0  0  0
    3.1016   -6.7406    1.4021 H   0  0  0  0  0  0  0  0  0  0  0  0
    4.9965   -5.8682    0.0629 H   0  0  0  0  0  0  0  0  0  0  0  0
    5.5231   -3.4612    0.0729 H   0  0  0  0  0  0  0  0  0  0  0  0
    5.2934   -1.3876   -1.2756 H   0  0  0  0  0  0  0  0  0  0  0  0
    5.0521   -0.8696   -3.6831 H   0  0  0  0  0  0  0  0  0  0  0  0
    3.0239    0.2726   -4.5344 H   0  0  0  0  0  0  0  0  0  0  0  0
    1.1943    0.9209   -2.9708 H   0  0  0  0  0  0  0  0  0  0  0  0
  1  2  1  0
  2  3  1  0
  2  4  1  0
  2  5  1  0
  5  6  1  0
  6  7  2  0
  6  8  1  0
  8  9  1  0
  9 10  1  0
 10 11  1  0
 11 12  1  0
 12 13  1  0
 12 14  1  0
 14 15  1  0
 15 16  2  0
 16 17  1  0
 16 18  1  0
 18 19  1  0
 19 20  2  0
 20 21  1  0
 21 22  2  0
 22 23  1  0
 23 24  2  0
 18 25  1  0
 25 26  1  0
 15 27  1  0
 27 28  1  0
 28 29  2  0
 28 30  1  0
 30 31  1  0
 31 32  1  0
 32 33  2  0
 33 34  1  0
 34 35  2  0
 35 36  1  0
 36 37  2  0
 30 38  1  0
 38 39  2  0
 39 40  1  0
 40 41  2  0
 41 42  1  0
 42 43  2  0
 13  8  1  0
 25 14  2  0
 43 27  1  0
 27 11  1  6
 37 32  1  0
 43 38  1  0
 24 19  1  0
  1 44  1  0
  1 45  1  0
  1 46  1  0
  3 47  1  0
  3 48  1  0
  3 49  1  0
  4 50  1  0
  4 51  1  0
  4 52  1  0
  9 53  1  0
  9 54  1  0
 10 55  1  0
 10 56  1  0
 12 57  1  1
 13 58  1  0
 13 59  1  0
 17 60  1  0
 20 61  1  0
 21 62  1  0
 22 63  1  0
 23 64  1  0
 24 65  1  0
 26 66  1  0
 31 67  1  0
 31 68  1  0
 33 69  1  0
 34 70  1  0
 35 71  1  0
 36 72  1  0
 37 73  1  0
 39 74  1  0
 40 75  1  0
 41 76  1  0
 42 77  1  0
M  END
$$$$
