
     RDKit          3D

 50 52  0  0  0  0  0  0  0  0999 V2000
   -2.7112   -0.0282   -3.6768 C   0  0  0  0  0  0  0  0  0  0  0  0
   -3.5264   -0.4177   -2.5791 O   0  0  0  0  0  0  0  0  0  0  0  0
   -3.2445    0.1492   -1.3634 C   0  0  0  0  0  0  0  0  0  0  0  0
   -2.0389    0.7705   -1.0425 C   0  0  0  0  0  0  0  0  0  0  0  0
   -1.8511    1.2927    0.2435 C   0  0  0  0  0  0  0  0  0  0  0  0
   -0.5813    1.9656    0.5910 C   0  0  0  0  0  0  0  0  0  0  0  0
   -0.6452    3.1244    0.9927 O   0  0  0  0  0  0  0  0  0  0  0  0
    0.6162    1.2682    0.4238 N   0  0  0  0  0  0  0  0  0  0  0  0
    0.7001   -0.1984    0.5582 C   0  0  0  0  0  0  0  0  0  0  0  0
    1.9688   -0.7813   -0.0937 C   0  0  0  0  0  0  0  0  0  0  0  0
    3.1690   -0.0694    0.4037 N   0  0  0  0  0  0  0  0  0  0  0  0
    4.3672   -0.7335    0.0743 C   0  0  0  0  0  0  0  0  0  0  0  0
    5.1437   -0.3584   -1.0356 C   0  0  0  0  0  0  0  0  0  0  0  0
    6.3220   -1.0397   -1.3552 C   0  0  0  0  0  0  0  0  0  0  0  0
    7.2398   -0.5537   -2.7282 Cl  0  0  0  0  0  0  0  0  0  0  0  0
    6.7587   -2.1094   -0.5809 C   0  0  0  0  0  0  0  0  0  0  0  0
    6.0104   -2.5027    0.5261 C   0  0  0  0  0  0  0  0  0  0  0  0
    4.8292   -1.8245    0.8510 C   0  0  0  0  0  0  0  0  0  0  0  0
    3.9800   -2.3524    2.2678 Cl  0  0  0  0  0  0  0  0  0  0  0  0
    3.1007    1.3862    0.1520 C   0  0  0  0  0  0  0  0  0  0  0  0
    1.8433    1.9765    0.8152 C   0  0  0  0  0  0  0  0  0  0  0  0
   -2.8685    1.2477    1.2032 C   0  0  0  0  0  0  0  0  0  0  0  0
   -4.0796    0.6296    0.8962 C   0  0  0  0  0  0  0  0  0  0  0  0
   -5.1365    0.5128    1.7612 O   0  0  0  0  0  0  0  0  0  0  0  0
   -5.1019    1.3113    2.9372 C   0  0  0  0  0  0  0  0  0  0  0  0
   -4.2463    0.0571   -0.3790 C   0  0  0  0  0  0  0  0  0  0  0  0
   -5.4525   -0.5243   -0.7051 O   0  0  0  0  0  0  0  0  0  0  0  0
   -5.4283   -1.9102   -0.3689 C   0  0  0  0  0  0  0  0  0  0  0  0
   -3.1659   -0.4263   -4.5890 H   0  0  0  0  0  0  0  0  0  0  0  0
   -1.7090   -0.4598   -3.5892 H   0  0  0  0  0  0  0  0  0  0  0  0
   -2.6645    1.0617   -3.7753 H   0  0  0  0  0  0  0  0  0  0  0  0
   -1.2335    0.8612   -1.7632 H   0  0  0  0  0  0  0  0  0  0  0  0
    0.6995   -0.4144    1.6342 H   0  0  0  0  0  0  0  0  0  0  0  0
   -0.1791   -0.6881    0.1351 H   0  0  0  0  0  0  0  0  0  0  0  0
    1.9024   -0.6699   -1.1842 H   0  0  0  0  0  0  0  0  0  0  0  0
    2.0112   -1.8540    0.1269 H   0  0  0  0  0  0  0  0  0  0  0  0
    4.8311    0.4592   -1.6776 H   0  0  0  0  0  0  0  0  0  0  0  0
    7.6758   -2.6364   -0.8302 H   0  0  0  0  0  0  0  0  0  0  0  0
    6.3529   -3.3331    1.1385 H   0  0  0  0  0  0  0  0  0  0  0  0
    3.0541    1.5867   -0.9257 H   0  0  0  0  0  0  0  0  0  0  0  0
    3.9858    1.8874    0.5612 H   0  0  0  0  0  0  0  0  0  0  0  0
    1.7597    3.0374    0.5542 H   0  0  0  0  0  0  0  0  0  0  0  0
    1.9219    1.9081    1.9075 H   0  0  0  0  0  0  0  0  0  0  0  0
   -2.6822    1.6977    2.1733 H   0  0  0  0  0  0  0  0  0  0  0  0
   -6.0658    1.2020    3.4435 H   0  0  0  0  0  0  0  0  0  0  0  0
   -4.9699    2.3717    2.6970 H   0  0  0  0  0  0  0  0  0  0  0  0
   -4.3245    0.9611    3.6238 H   0  0  0  0  0  0  0  0  0  0  0  0
   -5.2952   -2.0585    0.7082 H   0  0  0  0  0  0  0  0  0  0  0  0
   -4.6475   -2.4419   -0.9236 H   0  0  0  0  0  0  0  0  0  0  0  0
   -6.3942   -2.3398   -0.6512 H   0  0  0  0  0  0  0  0  0  0  0  0
  1  2  1  0
  2  3  1  0
  3  4  2  0
  4  5  1  0
  5  6  1  0
  6  7  2  0
  6  8  1  0
  8  9  1  0
  9 10  1  0
 10 11  1  0
 11 12  1  0
 12 13  2  0
 13 14  1  0
 14 15  1  0
 14 16  2  0
 16 17  1  0
 17 18  2  0
 18 19  1  0
 11 20  1  0
 20 21  1  0
  5 22  2  0
 22 23  1  0
 23 24  1  0
 24 25  1  0
 23 26  2  0
 26 27  1  0
 27 28  1  0
 26  3  1  0
 21  8  1  0
 18 12  1  0
  1 29  1  0
  1 30  1  0
  1 31  1  0
  4 32  1  0
  9 33  1  0
  9 34  1  0
 10 35  1  0
 10 36  1  0
 13 37  1  0
 16 38  1  0
 17 39  1  0
 20 40  1  0
 20 41  1  0
 21 42  1  0
 21 43  1  0
 22 44  1  0
 25 45  1  0
 25 46  1  0
 25 47  1  0
 28 48  1  0
 28 49  1  0
 28 50  1  0
M  END
$$$$
