
     RDKit          3D

 36 37  0  0  0  0  0  0  0  0999 V2000
   -4.8303    1.0919    1.7886 C   0  0  0  0  0  0  0  0  0  0  0  0
   -4.1303    0.8277    0.5451 N   0  0  0  0  0  0  0  0  0  0  0  0
   -4.4769    1.5820   -0.5680 C   0  0  0  0  0  0  0  0  0  0  0  0
   -5.3382    2.4592   -0.5523 O   0  0  0  0  0  0  0  0  0  0  0  0
   -3.7367    1.2914   -1.8155 C   0  0  0  0  0  0  0  0  0  0  0  0
   -4.0586    1.9830   -3.0115 C   0  0  0  0  0  0  0  0  0  0  0  0
   -4.2739    2.5108   -4.0226 N   0  0  0  0  0  0  0  0  0  0  0  0
   -2.7614    0.3782   -1.7785 C   0  0  0  0  0  0  0  0  0  0  0  0
   -2.4275   -0.3003   -0.6270 N   0  0  0  0  0  0  0  0  0  0  0  0
   -1.3062   -1.2476   -0.6513 C   0  0  0  0  0  0  0  0  0  0  0  0
    0.0111   -0.6157   -0.1714 C   0  0  0  0  0  0  0  0  0  0  0  0
    1.0883   -1.6045   -0.2311 N   0  0  0  0  0  0  0  0  0  0  0  0
    2.3694   -1.1023    0.0777 C   0  0  0  0  0  0  0  0  0  0  0  0
    2.5548    0.2364    0.1478 N   0  0  0  0  0  0  0  0  0  0  0  0
    3.8030    0.7049    0.3900 C   0  0  0  0  0  0  0  0  0  0  0  0
    4.9173   -0.1011    0.5583 C   0  0  0  0  0  0  0  0  0  0  0  0
    6.2529    0.5097    0.8443 C   0  0  0  0  0  0  0  0  0  0  0  0
    6.4269    0.7710    2.1677 F   0  0  0  0  0  0  0  0  0  0  0  0
    7.2938   -0.2878    0.4789 F   0  0  0  0  0  0  0  0  0  0  0  0
    6.4454    1.6926    0.1993 F   0  0  0  0  0  0  0  0  0  0  0  0
    4.7254   -1.4820    0.4849 C   0  0  0  0  0  0  0  0  0  0  0  0
    3.4493   -1.9874    0.2352 C   0  0  0  0  0  0  0  0  0  0  0  0
    3.2411   -3.7007    0.1551 Cl  0  0  0  0  0  0  0  0  0  0  0  0
   -3.0718   -0.0760    0.5885 C   0  0  0  0  0  0  0  0  0  0  0  0
   -2.7134   -0.6346    1.6252 O   0  0  0  0  0  0  0  0  0  0  0  0
   -5.8357    1.4820    1.6059 H   0  0  0  0  0  0  0  0  0  0  0  0
   -4.9117    0.1794    2.3872 H   0  0  0  0  0  0  0  0  0  0  0  0
   -4.2575    1.8343    2.3535 H   0  0  0  0  0  0  0  0  0  0  0  0
   -2.1830    0.1394   -2.6695 H   0  0  0  0  0  0  0  0  0  0  0  0
   -1.1902   -1.6494   -1.6661 H   0  0  0  0  0  0  0  0  0  0  0  0
   -1.5570   -2.1025   -0.0102 H   0  0  0  0  0  0  0  0  0  0  0  0
    0.2334    0.2400   -0.8217 H   0  0  0  0  0  0  0  0  0  0  0  0
   -0.1021   -0.2413    0.8534 H   0  0  0  0  0  0  0  0  0  0  0  0
    0.9103   -2.4102    0.3676 H   0  0  0  0  0  0  0  0  0  0  0  0
    3.8747    1.7902    0.4417 H   0  0  0  0  0  0  0  0  0  0  0  0
    5.5653   -2.1610    0.6178 H   0  0  0  0  0  0  0  0  0  0  0  0
  1  2  1  0
  2  3  1  0
  3  4  2  0
  3  5  1  0
  5  6  1  0
  6  7  3  0
  5  8  2  0
  8  9  1  0
  9 10  1  0
 10 11  1  0
 11 12  1  0
 12 13  1  0
 13 14  2  0
 14 15  1  0
 15 16  2  0
 16 17  1  0
 17 18  1  0
 17 19  1  0
 17 20  1  0
 16 21  1  0
 21 22  2  0
 22 23  1  0
  9 24  1  0
 24 25  2  0
 24  2  1  0
 22 13  1  0
  1 26  1  0
  1 27  1  0
  1 28  1  0
  8 29  1  0
 10 30  1  0
 10 31  1  0
 11 32  1  0
 11 33  1  0
 12 34  1  0
 15 35  1  0
 21 36  1  0
M  END
$$$$
