
     RDKit          3D

 41 44  0  0  0  0  0  0  0  0999 V2000
   -3.0487    2.1938    1.8331 C   0  0  0  0  0  0  0  0  0  0  0  0
   -3.2922    2.0496    0.4373 O   0  0  0  0  0  0  0  0  0  0  0  0
   -4.1561    1.0393    0.0896 C   0  0  0  0  0  0  0  0  0  0  0  0
   -5.1975    0.5918    0.9093 C   0  0  0  0  0  0  0  0  0  0  0  0
   -6.0529   -0.4225    0.4719 C   0  0  0  0  0  0  0  0  0  0  0  0
   -5.8816   -0.9888   -0.7888 C   0  0  0  0  0  0  0  0  0  0  0  0
   -4.8548   -0.5404   -1.6192 C   0  0  0  0  0  0  0  0  0  0  0  0
   -3.9863    0.4715   -1.1876 C   0  0  0  0  0  0  0  0  0  0  0  0
   -2.9305    0.9187   -2.1050 C   0  0  0  0  0  0  0  0  0  0  0  0
   -1.6144    0.7340   -1.9257 C   0  0  0  0  0  0  0  0  0  0  0  0
   -0.4345    1.3794   -3.0694 S   0  0  0  0  0  0  0  0  0  0  0  0
    0.8336    0.7722   -2.0929 C   0  0  0  0  0  0  0  0  0  0  0  0
    2.1332    0.7891   -2.1486 N   0  0  0  0  0  0  0  0  0  0  0  0
    2.4785    0.0564   -1.0126 C   0  0  0  0  0  0  0  0  0  0  0  0
    3.8769   -0.1753   -0.6604 C   0  0  0  0  0  0  0  0  0  0  0  0
    4.8307    0.7944   -1.0178 C   0  0  0  0  0  0  0  0  0  0  0  0
    6.1823    0.6251   -0.7041 C   0  0  0  0  0  0  0  0  0  0  0  0
    6.6039   -0.5233   -0.0394 C   0  0  0  0  0  0  0  0  0  0  0  0
    5.6754   -1.5017    0.3119 C   0  0  0  0  0  0  0  0  0  0  0  0
    4.3176   -1.3231    0.0174 C   0  0  0  0  0  0  0  0  0  0  0  0
    3.4564   -2.3504    0.3112 O   0  0  0  0  0  0  0  0  0  0  0  0
    3.1359   -2.3527    1.7031 C   0  0  0  0  0  0  0  0  0  0  0  0
    1.4236   -0.3426   -0.2675 N   0  0  0  0  0  0  0  0  0  0  0  0
    0.3973    0.1149   -1.0032 N   0  0  0  0  0  0  0  0  0  0  0  0
   -0.9601    0.0033   -0.7871 C   0  0  0  0  0  0  0  0  0  0  0  0
   -1.4357   -0.5995    0.1568 O   0  0  0  0  0  0  0  0  0  0  0  0
   -2.8369    1.2308    2.3106 H   0  0  0  0  0  0  0  0  0  0  0  0
   -2.1636    2.8261    1.9524 H   0  0  0  0  0  0  0  0  0  0  0  0
   -3.8871    2.7004    2.3214 H   0  0  0  0  0  0  0  0  0  0  0  0
   -5.3739    1.0238    1.8887 H   0  0  0  0  0  0  0  0  0  0  0  0
   -6.8571   -0.7681    1.1169 H   0  0  0  0  0  0  0  0  0  0  0  0
   -6.5485   -1.7783   -1.1259 H   0  0  0  0  0  0  0  0  0  0  0  0
   -4.7352   -0.9906   -2.6019 H   0  0  0  0  0  0  0  0  0  0  0  0
   -3.3002    1.4589   -2.9738 H   0  0  0  0  0  0  0  0  0  0  0  0
    4.5215    1.6938   -1.5479 H   0  0  0  0  0  0  0  0  0  0  0  0
    6.9042    1.3865   -0.9889 H   0  0  0  0  0  0  0  0  0  0  0  0
    7.6566   -0.6645    0.1916 H   0  0  0  0  0  0  0  0  0  0  0  0
    6.0106   -2.4131    0.7994 H   0  0  0  0  0  0  0  0  0  0  0  0
    3.9696   -2.7546    2.2883 H   0  0  0  0  0  0  0  0  0  0  0  0
    2.2733   -3.0102    1.8470 H   0  0  0  0  0  0  0  0  0  0  0  0
    2.8668   -1.3541    2.0661 H   0  0  0  0  0  0  0  0  0  0  0  0
  1  2  1  0
  2  3  1  0
  3  4  2  0
  4  5  1  0
  5  6  2  0
  6  7  1  0
  7  8  2  0
  8  9  1  0
  9 10  2  3
 10 11  1  0
 11 12  1  0
 12 13  2  0
 13 14  1  0
 14 15  1  0
 15 16  2  0
 16 17  1  0
 17 18  2  0
 18 19  1  0
 19 20  2  0
 20 21  1  0
 21 22  1  0
 14 23  2  0
 23 24  1  0
 24 25  1  0
 25 26  2  0
  8  3  1  0
 25 10  1  0
 24 12  1  0
 20 15  1  0
  1 27  1  0
  1 28  1  0
  1 29  1  0
  4 30  1  0
  5 31  1  0
  6 32  1  0
  7 33  1  0
  9 34  1  0
 16 35  1  0
 17 36  1  0
 18 37  1  0
 19 38  1  0
 22 39  1  0
 22 40  1  0
 22 41  1  0
M  END
$$$$
