
     RDKit          3D

 53 56  0  0  0  0  0  0  0  0999 V2000
   -6.7512    0.3726   -0.8720 C   0  0  0  0  0  0  0  0  0  0  0  0
   -5.8543    1.1332    0.1287 C   0  0  0  0  0  0  0  0  0  0  0  0
   -6.0033    2.6515   -0.1083 C   0  0  0  0  0  0  0  0  0  0  0  0
   -6.3972    0.8358    1.5448 C   0  0  0  0  0  0  0  0  0  0  0  0
   -4.3865    0.7201   -0.0739 C   0  0  0  0  0  0  0  0  0  0  0  0
   -3.6106    0.1426    0.9422 C   0  0  0  0  0  0  0  0  0  0  0  0
   -2.2717   -0.2274    0.7307 C   0  0  0  0  0  0  0  0  0  0  0  0
   -1.6673   -0.0360   -0.5120 C   0  0  0  0  0  0  0  0  0  0  0  0
   -0.3096   -0.3935   -0.7813 N   0  0  0  0  0  0  0  0  0  0  0  0
    0.2695    0.0406   -1.9412 N   0  0  0  0  0  0  0  0  0  0  0  0
    1.5366   -0.3604   -1.8811 C   0  0  0  0  0  0  0  0  0  0  0  0
    1.8117   -1.0845   -0.7169 C   0  0  0  0  0  0  0  0  0  0  0  0
    0.6008   -1.1442   -0.0478 C   0  0  0  0  0  0  0  0  0  0  0  0
    0.3809   -1.9235    1.2036 C   0  0  0  0  0  0  0  0  0  0  0  0
    1.5316   -2.9276    1.4163 C   0  0  0  0  0  0  0  0  0  0  0  0
    2.9078   -2.2843    1.1822 C   0  0  0  0  0  0  0  0  0  0  0  0
    3.0617   -1.7604   -0.2644 C   0  0  0  0  0  0  0  0  0  0  0  0
    4.1523   -0.8181   -0.3558 N   0  0  0  0  0  0  0  0  0  0  0  0
    5.4695   -1.2169   -0.4063 C   0  0  0  0  0  0  0  0  0  0  0  0
    5.8311   -2.3843   -0.4880 O   0  0  0  0  0  0  0  0  0  0  0  0
    6.4532   -0.1006   -0.3412 C   0  0  0  0  0  0  0  0  0  0  0  0
    7.8122   -0.3631   -0.4200 C   0  0  0  0  0  0  0  0  0  0  0  0
    8.7424    0.6249   -0.3622 N   0  0  0  0  0  0  0  0  0  0  0  0
    8.2489    1.8777   -0.2235 C   0  0  0  0  0  0  0  0  0  0  0  0
    6.8888    2.1390   -0.1431 C   0  0  0  0  0  0  0  0  0  0  0  0
    5.9531    1.1625   -0.1971 N   0  0  0  0  0  0  0  0  0  0  0  0
   -2.4257    0.5572   -1.5310 C   0  0  0  0  0  0  0  0  0  0  0  0
   -3.7600    0.9227   -1.3152 C   0  0  0  0  0  0  0  0  0  0  0  0
   -6.5079    0.6129   -1.9127 H   0  0  0  0  0  0  0  0  0  0  0  0
   -7.8084    0.6227   -0.7246 H   0  0  0  0  0  0  0  0  0  0  0  0
   -6.6450   -0.7121   -0.7513 H   0  0  0  0  0  0  0  0  0  0  0  0
   -5.3558    3.2219    0.5682 H   0  0  0  0  0  0  0  0  0  0  0  0
   -5.7422    2.9386   -1.1329 H   0  0  0  0  0  0  0  0  0  0  0  0
   -7.0355    2.9789    0.0629 H   0  0  0  0  0  0  0  0  0  0  0  0
   -6.3528   -0.2347    1.7772 H   0  0  0  0  0  0  0  0  0  0  0  0
   -7.4459    1.1427    1.6384 H   0  0  0  0  0  0  0  0  0  0  0  0
   -5.8343    1.3763    2.3147 H   0  0  0  0  0  0  0  0  0  0  0  0
   -4.0209   -0.0303    1.9339 H   0  0  0  0  0  0  0  0  0  0  0  0
   -1.7403   -0.6290    1.5827 H   0  0  0  0  0  0  0  0  0  0  0  0
    2.2045   -0.1155   -2.6975 H   0  0  0  0  0  0  0  0  0  0  0  0
   -0.5590   -2.4832    1.1646 H   0  0  0  0  0  0  0  0  0  0  0  0
    0.3514   -1.2379    2.0582 H   0  0  0  0  0  0  0  0  0  0  0  0
    1.4118   -3.7751    0.7289 H   0  0  0  0  0  0  0  0  0  0  0  0
    1.4768   -3.3316    2.4336 H   0  0  0  0  0  0  0  0  0  0  0  0
    3.0380   -1.4617    1.8989 H   0  0  0  0  0  0  0  0  0  0  0  0
    3.7006   -3.0103    1.3987 H   0  0  0  0  0  0  0  0  0  0  0  0
    3.2699   -2.6079   -0.9297 H   0  0  0  0  0  0  0  0  0  0  0  0
    3.9848    0.1691   -0.1760 H   0  0  0  0  0  0  0  0  0  0  0  0
    8.1955   -1.3718   -0.5321 H   0  0  0  0  0  0  0  0  0  0  0  0
    8.9831    2.6748   -0.1782 H   0  0  0  0  0  0  0  0  0  0  0  0
    6.5157    3.1515   -0.0323 H   0  0  0  0  0  0  0  0  0  0  0  0
   -1.9961    0.7373   -2.5156 H   0  0  0  0  0  0  0  0  0  0  0  0
   -4.3025    1.3728   -2.1441 H   0  0  0  0  0  0  0  0  0  0  0  0
  1  2  1  0
  2  3  1  0
  2  4  1  0
  2  5  1  0
  5  6  2  0
  6  7  1  0
  7  8  2  0
  8  9  1  0
  9 10  1  0
 10 11  2  0
 11 12  1  0
 12 13  2  0
 13 14  1  0
 14 15  1  0
 15 16  1  0
 16 17  1  0
 17 18  1  0
 18 19  1  0
 19 20  2  0
 19 21  1  0
 21 22  2  0
 22 23  1  0
 23 24  2  0
 24 25  1  0
 25 26  2  0
  8 27  1  0
 27 28  2  0
 28  5  1  0
 13  9  1  0
 26 21  1  0
 17 12  1  0
  1 29  1  0
  1 30  1  0
  1 31  1  0
  3 32  1  0
  3 33  1  0
  3 34  1  0
  4 35  1  0
  4 36  1  0
  4 37  1  0
  6 38  1  0
  7 39  1  0
 11 40  1  0
 14 41  1  0
 14 42  1  0
 15 43  1  0
 15 44  1  0
 16 45  1  0
 16 46  1  0
 17 47  1  0
 18 48  1  0
 22 49  1  0
 24 50  1  0
 25 51  1  0
 27 52  1  0
 28 53  1  0
M  END
$$$$
