
     RDKit          3D

 55 58  0  0  0  0  0  0  0  0999 V2000
   -7.2061   -0.5469    1.5032 C   0  0  0  0  0  0  0  0  0  0  0  0
   -6.3669   -0.9169    0.4192 O   0  0  0  0  0  0  0  0  0  0  0  0
   -5.1201   -0.3460    0.3557 C   0  0  0  0  0  0  0  0  0  0  0  0
   -4.6152    0.5549    1.2937 C   0  0  0  0  0  0  0  0  0  0  0  0
   -3.3277    1.0816    1.1448 C   0  0  0  0  0  0  0  0  0  0  0  0
   -2.5049    0.7234    0.0645 C   0  0  0  0  0  0  0  0  0  0  0  0
   -1.1437    1.2856   -0.0601 C   0  0  0  0  0  0  0  0  0  0  0  0
   -0.0840    0.5826   -0.6049 C   0  0  0  0  0  0  0  0  0  0  0  0
    1.1623    1.2070   -0.6644 C   0  0  0  0  0  0  0  0  0  0  0  0
    2.2759    0.4316   -1.2412 C   0  0  0  0  0  0  0  0  0  0  0  0
    2.6705    0.7444   -2.3607 O   0  0  0  0  0  0  0  0  0  0  0  0
    2.7920   -0.6409   -0.5082 N   0  0  0  0  0  0  0  0  0  0  0  0
    2.6193   -0.7868    0.9360 C   0  0  0  0  0  0  0  0  0  0  0  0
    2.4730   -2.2511    1.3466 C   0  0  0  0  0  0  0  0  0  0  0  0
    2.9726   -3.2394    0.2930 C   0  0  0  0  0  0  0  0  0  0  0  0
    4.1884   -2.7350   -0.4902 C   0  0  0  0  0  0  0  0  0  0  0  0
    5.4583   -2.7267    0.3423 C   0  0  0  0  0  0  0  0  0  0  0  0
    5.7080   -3.9555    0.8460 F   0  0  0  0  0  0  0  0  0  0  0  0
    5.3887   -1.8684    1.3799 F   0  0  0  0  0  0  0  0  0  0  0  0
    6.5254   -2.3769   -0.4087 F   0  0  0  0  0  0  0  0  0  0  0  0
    3.9275   -1.3530   -1.0988 C   0  0  0  0  0  0  0  0  0  0  0  0
    1.3486    2.5262   -0.2128 C   0  0  0  0  0  0  0  0  0  0  0  0
    2.5759    3.2324   -0.2643 C   0  0  0  0  0  0  0  0  0  0  0  0
    2.6723    4.5337    0.2232 C   0  0  0  0  0  0  0  0  0  0  0  0
    1.5502    5.1436    0.7663 C   0  0  0  0  0  0  0  0  0  0  0  0
    0.3393    4.4481    0.8150 C   0  0  0  0  0  0  0  0  0  0  0  0
    0.2156    3.1510    0.3341 C   0  0  0  0  0  0  0  0  0  0  0  0
   -0.9827    2.5450    0.4174 N   0  0  0  0  0  0  0  0  0  0  0  0
   -3.0333   -0.1769   -0.8809 C   0  0  0  0  0  0  0  0  0  0  0  0
   -4.3238   -0.7115   -0.7460 C   0  0  0  0  0  0  0  0  0  0  0  0
   -4.8904   -1.5990   -1.6287 O   0  0  0  0  0  0  0  0  0  0  0  0
   -4.1789   -1.8967   -2.8205 C   0  0  0  0  0  0  0  0  0  0  0  0
   -6.7683   -0.8464    2.4608 H   0  0  0  0  0  0  0  0  0  0  0  0
   -7.4260    0.5256    1.4847 H   0  0  0  0  0  0  0  0  0  0  0  0
   -8.1541   -1.0818    1.3907 H   0  0  0  0  0  0  0  0  0  0  0  0
   -5.1940    0.8729    2.1548 H   0  0  0  0  0  0  0  0  0  0  0  0
   -2.9614    1.7846    1.8925 H   0  0  0  0  0  0  0  0  0  0  0  0
   -0.1991   -0.4338   -0.9635 H   0  0  0  0  0  0  0  0  0  0  0  0
    1.7677   -0.2168    1.3142 H   0  0  0  0  0  0  0  0  0  0  0  0
    3.5062   -0.3443    1.4049 H   0  0  0  0  0  0  0  0  0  0  0  0
    1.4170   -2.4695    1.5500 H   0  0  0  0  0  0  0  0  0  0  0  0
    2.9984   -2.4098    2.2961 H   0  0  0  0  0  0  0  0  0  0  0  0
    3.1829   -4.2073    0.7631 H   0  0  0  0  0  0  0  0  0  0  0  0
    2.1578   -3.4214   -0.4209 H   0  0  0  0  0  0  0  0  0  0  0  0
    4.3715   -3.4367   -1.3145 H   0  0  0  0  0  0  0  0  0  0  0  0
    3.7237   -1.4750   -2.1698 H   0  0  0  0  0  0  0  0  0  0  0  0
    4.8036   -0.6975   -1.0254 H   0  0  0  0  0  0  0  0  0  0  0  0
    3.4628    2.7726   -0.6976 H   0  0  0  0  0  0  0  0  0  0  0  0
    3.6178    5.0678    0.1731 H   0  0  0  0  0  0  0  0  0  0  0  0
    1.6090    6.1598    1.1492 H   0  0  0  0  0  0  0  0  0  0  0  0
   -0.5362    4.9357    1.2389 H   0  0  0  0  0  0  0  0  0  0  0  0
   -2.4245   -0.4454   -1.7384 H   0  0  0  0  0  0  0  0  0  0  0  0
   -4.7997   -2.5678   -3.4218 H   0  0  0  0  0  0  0  0  0  0  0  0
   -3.9979   -0.9928   -3.4115 H   0  0  0  0  0  0  0  0  0  0  0  0
   -3.2432   -2.4202   -2.6001 H   0  0  0  0  0  0  0  0  0  0  0  0
  1  2  1  0
  2  3  1  0
  3  4  2  0
  4  5  1  0
  5  6  2  0
  6  7  1  0
  7  8  2  0
  8  9  1  0
  9 10  1  0
 10 11  2  0
 10 12  1  0
 12 13  1  0
 13 14  1  0
 14 15  1  0
 15 16  1  0
 16 17  1  0
 17 18  1  0
 17 19  1  0
 17 20  1  0
 16 21  1  0
  9 22  2  0
 22 23  1  0
 23 24  2  0
 24 25  1  0
 25 26  2  0
 26 27  1  0
 27 28  2  0
  6 29  1  0
 29 30  2  0
 30 31  1  0
 31 32  1  0
 30  3  1  0
 28  7  1  0
 21 12  1  0
 27 22  1  0
  1 33  1  0
  1 34  1  0
  1 35  1  0
  4 36  1  0
  5 37  1  0
  8 38  1  0
 13 39  1  0
 13 40  1  0
 14 41  1  0
 14 42  1  0
 15 43  1  0
 15 44  1  0
 16 45  1  0
 21 46  1  0
 21 47  1  0
 23 48  1  0
 24 49  1  0
 25 50  1  0
 26 51  1  0
 29 52  1  0
 32 53  1  0
 32 54  1  0
 32 55  1  0
M  END
$$$$
