
     RDKit          3D

 41 42  0  0  0  0  0  0  0  0999 V2000
   -6.2983    1.4406    1.0090 C   0  0  0  0  0  0  0  0  0  0  0  0
   -5.2399    0.8393    1.9146 C   0  0  0  0  0  0  0  0  0  0  0  0
   -3.9929    0.7289    1.2139 O   0  0  0  0  0  0  0  0  0  0  0  0
   -3.8152   -0.4060    0.4844 C   0  0  0  0  0  0  0  0  0  0  0  0
   -4.6510   -1.2981    0.3984 O   0  0  0  0  0  0  0  0  0  0  0  0
   -2.5894   -0.4349   -0.1584 N   0  0  0  0  0  0  0  0  0  0  0  0
   -1.5075    0.4925    0.1906 C   0  0  0  0  0  0  0  0  0  0  0  0
   -0.5239    0.6818   -0.9689 C   0  0  0  0  0  0  0  0  0  0  0  0
   -0.0503   -0.6025   -1.5138 N   0  0  0  0  0  0  0  0  0  0  0  0
    1.1711   -0.6411   -2.1526 C   0  0  0  0  0  0  0  0  0  0  0  0
    1.4376   -1.2029   -3.7123 S   0  0  0  0  0  0  0  0  0  0  0  0
    2.2882   -0.2058   -1.4711 N   0  0  0  0  0  0  0  0  0  0  0  0
    2.5216   -0.0930   -0.1015 C   0  0  0  0  0  0  0  0  0  0  0  0
    1.6758   -0.0262    0.7818 O   0  0  0  0  0  0  0  0  0  0  0  0
    3.9536    0.0336    0.2890 C   0  0  0  0  0  0  0  0  0  0  0  0
    4.2770    0.8621    1.3768 C   0  0  0  0  0  0  0  0  0  0  0  0
    5.6059    1.0039    1.7849 C   0  0  0  0  0  0  0  0  0  0  0  0
    6.6048    0.3090    1.1126 C   0  0  0  0  0  0  0  0  0  0  0  0
    7.8786    0.4452    1.5038 F   0  0  0  0  0  0  0  0  0  0  0  0
    6.2848   -0.5265    0.0478 C   0  0  0  0  0  0  0  0  0  0  0  0
    7.2493   -1.2054   -0.5878 F   0  0  0  0  0  0  0  0  0  0  0  0
    4.9647   -0.6763   -0.3702 C   0  0  0  0  0  0  0  0  0  0  0  0
   -1.1606   -1.4843   -1.9146 C   0  0  0  0  0  0  0  0  0  0  0  0
   -2.1674   -1.6911   -0.7752 C   0  0  0  0  0  0  0  0  0  0  0  0
   -6.4900    0.7958    0.1456 H   0  0  0  0  0  0  0  0  0  0  0  0
   -5.9645    2.4069    0.6168 H   0  0  0  0  0  0  0  0  0  0  0  0
   -7.2366    1.5850    1.5520 H   0  0  0  0  0  0  0  0  0  0  0  0
   -5.0679    1.5027    2.7685 H   0  0  0  0  0  0  0  0  0  0  0  0
   -5.5587   -0.1278    2.3199 H   0  0  0  0  0  0  0  0  0  0  0  0
   -0.9990    0.0707    1.0651 H   0  0  0  0  0  0  0  0  0  0  0  0
   -1.9127    1.4668    0.4805 H   0  0  0  0  0  0  0  0  0  0  0  0
   -1.0322    1.1960   -1.7959 H   0  0  0  0  0  0  0  0  0  0  0  0
    0.3032    1.3360   -0.6821 H   0  0  0  0  0  0  0  0  0  0  0  0
    3.1022   -0.2306   -2.0693 H   0  0  0  0  0  0  0  0  0  0  0  0
    3.4919    1.3977    1.9093 H   0  0  0  0  0  0  0  0  0  0  0  0
    5.8648    1.6448    2.6224 H   0  0  0  0  0  0  0  0  0  0  0  0
    4.7557   -1.3684   -1.1795 H   0  0  0  0  0  0  0  0  0  0  0  0
   -0.7684   -2.4577   -2.2279 H   0  0  0  0  0  0  0  0  0  0  0  0
   -1.6571   -1.0223   -2.7771 H   0  0  0  0  0  0  0  0  0  0  0  0
   -3.0360   -2.2440   -1.1490 H   0  0  0  0  0  0  0  0  0  0  0  0
   -1.7114   -2.2945    0.0196 H   0  0  0  0  0  0  0  0  0  0  0  0
  1  2  1  0
  2  3  1  0
  3  4  1  0
  4  5  2  0
  4  6  1  0
  6  7  1  0
  7  8  1  0
  8  9  1  0
  9 10  1  0
 10 11  2  0
 10 12  1  0
 12 13  1  0
 13 14  2  0
 13 15  1  0
 15 16  2  0
 16 17  1  0
 17 18  2  0
 18 19  1  0
 18 20  1  0
 20 21  1  0
 20 22  2  0
  9 23  1  0
 23 24  1  0
 24  6  1  0
 22 15  1  0
  1 25  1  0
  1 26  1  0
  1 27  1  0
  2 28  1  0
  2 29  1  0
  7 30  1  0
  7 31  1  0
  8 32  1  0
  8 33  1  0
 12 34  1  0
 16 35  1  0
 17 36  1  0
 22 37  1  0
 23 38  1  0
 23 39  1  0
 24 40  1  0
 24 41  1  0
M  END
$$$$
