
     RDKit          3D

 57 59  0  0  0  0  0  0  0  0999 V2000
    6.3168   -2.2665   -0.0441 C   0  0  0  0  0  0  0  0  0  0  0  0
    6.5767   -1.1868   -1.0980 C   0  0  0  0  0  0  0  0  0  0  0  0
    7.7880   -1.5772   -1.9481 C   0  0  0  0  0  0  0  0  0  0  0  0
    6.8061    0.1972   -0.4619 C   0  0  0  0  0  0  0  0  0  0  0  0
    5.5907    0.7584    0.1967 C   0  0  0  0  0  0  0  0  0  0  0  0
    4.4455    1.3205   -0.4128 C   0  0  0  0  0  0  0  0  0  0  0  0
    3.6396    1.6751    0.6412 C   0  0  0  0  0  0  0  0  0  0  0  0
    2.3016    2.2856    0.7563 C   0  0  0  0  0  0  0  0  0  0  0  0
    1.3311    1.2309    0.9489 N   0  0  0  0  0  0  0  0  0  0  0  0
   -0.0127    1.4867    0.8014 C   0  0  0  0  0  0  0  0  0  0  0  0
   -0.4430    2.5706    0.4215 O   0  0  0  0  0  0  0  0  0  0  0  0
   -0.9122    0.3155    1.1705 C   0  0  0  0  0  0  0  0  0  0  0  0
   -0.6621   -0.8958    0.2794 C   0  0  0  0  0  0  0  0  0  0  0  0
   -1.5369   -2.0512    0.7310 C   0  0  0  0  0  0  0  0  0  0  0  0
   -3.0013   -1.7066    0.9263 C   0  0  0  0  0  0  0  0  0  0  0  0
   -3.8483   -2.5987    0.8720 O   0  0  0  0  0  0  0  0  0  0  0  0
   -3.3038   -0.3978    1.2744 N   0  0  0  0  0  0  0  0  0  0  0  0
   -4.7073   -0.0491    1.4968 C   0  0  0  0  0  0  0  0  0  0  0  0
   -5.3879    0.4865    0.2568 C   0  0  0  0  0  0  0  0  0  0  0  0
   -5.5620    1.8655    0.0769 C   0  0  0  0  0  0  0  0  0  0  0  0
   -6.1676    2.3589   -1.0786 C   0  0  0  0  0  0  0  0  0  0  0  0
   -6.6061    1.4801   -2.0688 C   0  0  0  0  0  0  0  0  0  0  0  0
   -6.4486    0.0956   -1.9117 C   0  0  0  0  0  0  0  0  0  0  0  0
   -6.8965   -0.8630   -2.9870 C   0  0  0  0  0  0  0  0  0  0  0  0
   -7.7912   -0.3156   -3.8585 F   0  0  0  0  0  0  0  0  0  0  0  0
   -5.8603   -1.3074   -3.7511 F   0  0  0  0  0  0  0  0  0  0  0  0
   -7.5021   -1.9772   -2.4899 F   0  0  0  0  0  0  0  0  0  0  0  0
   -5.8320   -0.3890   -0.7464 C   0  0  0  0  0  0  0  0  0  0  0  0
   -2.3782    0.7079    1.0248 C   0  0  0  0  0  0  0  0  0  0  0  0
    4.2624    1.3546    1.8072 O   0  0  0  0  0  0  0  0  0  0  0  0
    5.4878    0.7776    1.5316 N   0  0  0  0  0  0  0  0  0  0  0  0
    5.4024   -2.0596    0.5208 H   0  0  0  0  0  0  0  0  0  0  0  0
    7.1477   -2.3365    0.6662 H   0  0  0  0  0  0  0  0  0  0  0  0
    6.1935   -3.2471   -0.5165 H   0  0  0  0  0  0  0  0  0  0  0  0
    5.7026   -1.1409   -1.7606 H   0  0  0  0  0  0  0  0  0  0  0  0
    8.6961   -1.6451   -1.3393 H   0  0  0  0  0  0  0  0  0  0  0  0
    7.6291   -2.5480   -2.4295 H   0  0  0  0  0  0  0  0  0  0  0  0
    7.9632   -0.8391   -2.7380 H   0  0  0  0  0  0  0  0  0  0  0  0
    7.1239    0.9056   -1.2384 H   0  0  0  0  0  0  0  0  0  0  0  0
    7.6333    0.1446    0.2583 H   0  0  0  0  0  0  0  0  0  0  0  0
    4.2364    1.4406   -1.4653 H   0  0  0  0  0  0  0  0  0  0  0  0
    2.2451    2.9621    1.6156 H   0  0  0  0  0  0  0  0  0  0  0  0
    2.0485    2.8559   -0.1437 H   0  0  0  0  0  0  0  0  0  0  0  0
    1.6153    0.4395    1.5138 H   0  0  0  0  0  0  0  0  0  0  0  0
   -0.7083    0.0571    2.2182 H   0  0  0  0  0  0  0  0  0  0  0  0
    0.3885   -1.2059    0.3100 H   0  0  0  0  0  0  0  0  0  0  0  0
   -0.8824   -0.6452   -0.7666 H   0  0  0  0  0  0  0  0  0  0  0  0
   -1.4721   -2.8568   -0.0093 H   0  0  0  0  0  0  0  0  0  0  0  0
   -1.1695   -2.4459    1.6859 H   0  0  0  0  0  0  0  0  0  0  0  0
   -4.7454    0.6912    2.3055 H   0  0  0  0  0  0  0  0  0  0  0  0
   -5.2626   -0.9212    1.8630 H   0  0  0  0  0  0  0  0  0  0  0  0
   -5.2197    2.5673    0.8347 H   0  0  0  0  0  0  0  0  0  0  0  0
   -6.2935    3.4312   -1.2095 H   0  0  0  0  0  0  0  0  0  0  0  0
   -7.0720    1.8811   -2.9678 H   0  0  0  0  0  0  0  0  0  0  0  0
   -5.6952   -1.4643   -0.6198 H   0  0  0  0  0  0  0  0  0  0  0  0
   -2.5771    1.0780    0.0110 H   0  0  0  0  0  0  0  0  0  0  0  0
   -2.6141    1.5163    1.7276 H   0  0  0  0  0  0  0  0  0  0  0  0
  1  2  1  0
  2  3  1  0
  2  4  1  0
  4  5  1  0
  5  6  1  0
  6  7  2  0
  7  8  1  0
  8  9  1  0
  9 10  1  0
 10 11  2  0
 10 12  1  0
 12 13  1  0
 13 14  1  0
 14 15  1  0
 15 16  2  0
 15 17  1  0
 17 18  1  0
 18 19  1  0
 19 20  2  0
 20 21  1  0
 21 22  2  0
 22 23  1  0
 23 24  1  0
 24 25  1  0
 24 26  1  0
 24 27  1  0
 23 28  2  0
 17 29  1  0
  7 30  1  0
 30 31  1  0
 31  5  2  0
 29 12  1  0
 28 19  1  0
  1 32  1  0
  1 33  1  0
  1 34  1  0
  2 35  1  0
  3 36  1  0
  3 37  1  0
  3 38  1  0
  4 39  1  0
  4 40  1  0
  6 41  1  0
  8 42  1  0
  8 43  1  0
  9 44  1  0
 12 45  1  0
 13 46  1  0
 13 47  1  0
 14 48  1  0
 14 49  1  0
 18 50  1  0
 18 51  1  0
 20 52  1  0
 21 53  1  0
 22 54  1  0
 28 55  1  0
 29 56  1  0
 29 57  1  0
M  END
$$$$
