
     RDKit          3D

 67 72  0  0  0  0  0  0  0  0999 V2000
   -2.1928   -2.3762   -1.5471 O   0  0  0  0  0  0  0  0  0  0  0  0
   -2.2143   -1.3880   -0.8104 C   0  0  0  0  0  0  0  0  0  0  0  0
   -0.9359   -0.6036   -0.5254 C   0  0  0  0  0  0  0  0  0  0  0  0
   -0.9052    0.7085   -1.3344 C   0  0  0  0  0  0  0  0  0  0  0  0
    0.3372    0.8398   -2.2092 C   0  0  0  0  0  0  0  0  0  0  0  0
    1.6176    0.5600   -1.4207 C   0  0  0  0  0  0  0  0  0  0  0  0
    1.5009   -0.6694   -0.6350 N   0  0  0  0  0  0  0  0  0  0  0  0
    2.6879   -1.3162   -0.2876 C   0  0  0  0  0  0  0  0  0  0  0  0
    2.6719   -2.6628   -0.0526 N   0  0  0  0  0  0  0  0  0  0  0  0
    3.8117   -3.2979    0.2894 C   0  0  0  0  0  0  0  0  0  0  0  0
    5.0383   -2.7759    0.4578 N   0  0  0  0  0  0  0  0  0  0  0  0
    5.0239   -1.4510    0.2414 C   0  0  0  0  0  0  0  0  0  0  0  0
    3.9404   -0.6659   -0.1214 C   0  0  0  0  0  0  0  0  0  0  0  0
    4.3354    0.6571   -0.2451 N   0  0  0  0  0  0  0  0  0  0  0  0
    5.6228    0.6768    0.0416 C   0  0  0  0  0  0  0  0  0  0  0  0
    6.0790   -0.5854    0.3371 N   0  0  0  0  0  0  0  0  0  0  0  0
    7.4343   -0.9346    0.7010 C   0  0  0  0  0  0  0  0  0  0  0  0
    7.9082   -0.2450    1.9783 C   0  0  0  0  0  0  0  0  0  0  0  0
    8.2703    1.2295    1.7900 C   0  0  0  0  0  0  0  0  0  0  0  0
    7.0941    2.1464    1.4446 C   0  0  0  0  0  0  0  0  0  0  0  0
    6.4906    1.8877    0.0652 C   0  0  0  0  0  0  0  0  0  0  0  0
    0.2955   -1.4832   -0.8029 C   0  0  0  0  0  0  0  0  0  0  0  0
   -3.3994   -0.9354   -0.2513 N   0  0  0  0  0  0  0  0  0  0  0  0
   -3.5953    0.2943    0.5345 C   0  0  0  0  0  0  0  0  0  0  0  0
   -4.5460    1.2675   -0.1980 C   0  0  0  0  0  0  0  0  0  0  0  0
   -5.8120    0.6096   -0.5987 N   0  0  0  0  0  0  0  0  0  0  0  0
   -6.9306    0.6508    0.2435 C   0  0  0  0  0  0  0  0  0  0  0  0
   -8.1974    0.3305   -0.2831 C   0  0  0  0  0  0  0  0  0  0  0  0
   -9.3641    0.3735    0.4923 C   0  0  0  0  0  0  0  0  0  0  0  0
   -9.3001    0.7491    1.8284 C   0  0  0  0  0  0  0  0  0  0  0  0
   -8.0715    1.0900    2.3796 C   0  0  0  0  0  0  0  0  0  0  0  0
   -6.9137    1.0466    1.5960 C   0  0  0  0  0  0  0  0  0  0  0  0
   -5.7655    1.3794    2.2066 F   0  0  0  0  0  0  0  0  0  0  0  0
   -5.5914   -0.6464   -1.3669 C   0  0  0  0  0  0  0  0  0  0  0  0
   -4.6610   -1.6050   -0.5955 C   0  0  0  0  0  0  0  0  0  0  0  0
   -0.9150   -0.3671    0.5463 H   0  0  0  0  0  0  0  0  0  0  0  0
   -1.7941    0.8136   -1.9670 H   0  0  0  0  0  0  0  0  0  0  0  0
   -0.9241    1.5544   -0.6357 H   0  0  0  0  0  0  0  0  0  0  0  0
    0.3834    1.8442   -2.6455 H   0  0  0  0  0  0  0  0  0  0  0  0
    0.2608    0.1384   -3.0496 H   0  0  0  0  0  0  0  0  0  0  0  0
    1.8108    1.4014   -0.7443 H   0  0  0  0  0  0  0  0  0  0  0  0
    2.4416    0.5014   -2.1430 H   0  0  0  0  0  0  0  0  0  0  0  0
    3.7233   -4.3684    0.4496 H   0  0  0  0  0  0  0  0  0  0  0  0
    8.0783   -0.6934   -0.1522 H   0  0  0  0  0  0  0  0  0  0  0  0
    7.4783   -2.0193    0.8449 H   0  0  0  0  0  0  0  0  0  0  0  0
    7.1565   -0.3455    2.7711 H   0  0  0  0  0  0  0  0  0  0  0  0
    8.8084   -0.7646    2.3294 H   0  0  0  0  0  0  0  0  0  0  0  0
    8.7159    1.5889    2.7258 H   0  0  0  0  0  0  0  0  0  0  0  0
    9.0487    1.3224    1.0229 H   0  0  0  0  0  0  0  0  0  0  0  0
    6.3245    2.0746    2.2239 H   0  0  0  0  0  0  0  0  0  0  0  0
    7.4643    3.1796    1.4638 H   0  0  0  0  0  0  0  0  0  0  0  0
    5.8768    2.7538   -0.2129 H   0  0  0  0  0  0  0  0  0  0  0  0
    7.2762    1.8046   -0.6951 H   0  0  0  0  0  0  0  0  0  0  0  0
    0.2766   -1.9151   -1.8116 H   0  0  0  0  0  0  0  0  0  0  0  0
    0.2658   -2.3220   -0.0959 H   0  0  0  0  0  0  0  0  0  0  0  0
   -4.0199   -0.0184    1.4942 H   0  0  0  0  0  0  0  0  0  0  0  0
   -2.6547    0.7994    0.7520 H   0  0  0  0  0  0  0  0  0  0  0  0
   -4.0518    1.6018   -1.1196 H   0  0  0  0  0  0  0  0  0  0  0  0
   -4.7174    2.1785    0.3848 H   0  0  0  0  0  0  0  0  0  0  0  0
   -8.2984    0.0726   -1.3354 H   0  0  0  0  0  0  0  0  0  0  0  0
  -10.3209    0.1213    0.0417 H   0  0  0  0  0  0  0  0  0  0  0  0
  -10.2021    0.7837    2.4331 H   0  0  0  0  0  0  0  0  0  0  0  0
   -7.9972    1.3903    3.4197 H   0  0  0  0  0  0  0  0  0  0  0  0
   -6.5208   -1.1667   -1.6177 H   0  0  0  0  0  0  0  0  0  0  0  0
   -5.1189   -0.3766   -2.3202 H   0  0  0  0  0  0  0  0  0  0  0  0
   -5.1314   -1.9130    0.3471 H   0  0  0  0  0  0  0  0  0  0  0  0
   -4.4871   -2.5098   -1.1872 H   0  0  0  0  0  0  0  0  0  0  0  0
  1  2  2  0
  2  3  1  0
  3  4  1  0
  4  5  1  0
  5  6  1  0
  6  7  1  0
  7  8  1  0
  8  9  2  0
  9 10  1  0
 10 11  2  0
 11 12  1  0
 12 13  2  0
 13 14  1  0
 14 15  2  0
 15 16  1  0
 16 17  1  0
 17 18  1  0
 18 19  1  0
 19 20  1  0
 20 21  1  0
  7 22  1  0
  2 23  1  0
 23 24  1  0
 24 25  1  0
 25 26  1  0
 26 27  1  0
 27 28  2  0
 28 29  1  0
 29 30  2  0
 30 31  1  0
 31 32  2  0
 32 33  1  0
 26 34  1  0
 34 35  1  0
 22  3  1  0
 35 23  1  0
 13  8  1  0
 21 15  1  0
 32 27  1  0
 16 12  1  0
  3 36  1  0
  4 37  1  0
  4 38  1  0
  5 39  1  0
  5 40  1  0
  6 41  1  0
  6 42  1  0
 10 43  1  0
 17 44  1  0
 17 45  1  0
 18 46  1  0
 18 47  1  0
 19 48  1  0
 19 49  1  0
 20 50  1  0
 20 51  1  0
 21 52  1  0
 21 53  1  0
 22 54  1  0
 22 55  1  0
 24 56  1  0
 24 57  1  0
 25 58  1  0
 25 59  1  0
 28 60  1  0
 29 61  1  0
 30 62  1  0
 31 63  1  0
 34 64  1  0
 34 65  1  0
 35 66  1  0
 35 67  1  0
M  END
$$$$
