
     RDKit          3D

 44 46  0  0  0  0  0  0  0  0999 V2000
    1.5649   -1.6043    0.7145 C   0  0  0  0  0  0  0  0  0  0  0  0
    1.3244   -0.7522   -0.5144 C   0  0  0  0  0  0  0  0  0  0  0  0
    2.1956   -0.5755   -1.4613 N   0  0  0  0  0  0  0  0  0  0  0  0
    3.4866   -1.2702   -1.4250 C   0  0  0  0  0  0  0  0  0  0  0  0
    4.5838   -0.4100   -0.8642 C   0  0  0  0  0  0  0  0  0  0  0  0
    4.8630    0.8558   -1.3883 C   0  0  0  0  0  0  0  0  0  0  0  0
    5.8938    1.6179   -0.8464 C   0  0  0  0  0  0  0  0  0  0  0  0
    6.6210    1.0843    0.2037 C   0  0  0  0  0  0  0  0  0  0  0  0
    6.3901   -0.1365    0.7315 N   0  0  0  0  0  0  0  0  0  0  0  0
    5.3833   -0.8545    0.1839 C   0  0  0  0  0  0  0  0  0  0  0  0
    0.0079   -0.0444   -0.6221 C   0  0  0  0  0  0  0  0  0  0  0  0
   -0.0325    1.1733   -1.1782 C   0  0  0  0  0  0  0  0  0  0  0  0
    1.0332    1.8269   -1.7408 O   0  0  0  0  0  0  0  0  0  0  0  0
   -1.1812    1.8799   -1.2479 N   0  0  0  0  0  0  0  0  0  0  0  0
   -2.3900    1.4646   -0.7628 C   0  0  0  0  0  0  0  0  0  0  0  0
   -3.3720    2.1780   -0.9640 O   0  0  0  0  0  0  0  0  0  0  0  0
   -2.3869    0.2263   -0.1144 N   0  0  0  0  0  0  0  0  0  0  0  0
   -3.6305   -0.2629    0.4168 C   0  0  0  0  0  0  0  0  0  0  0  0
   -4.1058   -1.5213    0.0018 C   0  0  0  0  0  0  0  0  0  0  0  0
   -5.3279   -2.0198    0.4558 C   0  0  0  0  0  0  0  0  0  0  0  0
   -6.0976   -1.2696    1.3349 C   0  0  0  0  0  0  0  0  0  0  0  0
   -5.6365   -0.0302    1.7743 C   0  0  0  0  0  0  0  0  0  0  0  0
   -4.3966    0.4799    1.3438 C   0  0  0  0  0  0  0  0  0  0  0  0
   -3.9534    1.7945    1.9293 C   0  0  0  0  0  0  0  0  0  0  0  0
   -1.2706   -0.6174   -0.1162 C   0  0  0  0  0  0  0  0  0  0  0  0
   -1.2652   -1.7859    0.2754 O   0  0  0  0  0  0  0  0  0  0  0  0
    1.4661   -2.6607    0.4509 H   0  0  0  0  0  0  0  0  0  0  0  0
    2.5634   -1.4202    1.1174 H   0  0  0  0  0  0  0  0  0  0  0  0
    0.8593   -1.3629    1.5136 H   0  0  0  0  0  0  0  0  0  0  0  0
    3.7566   -1.5284   -2.4568 H   0  0  0  0  0  0  0  0  0  0  0  0
    3.4275   -2.2323   -0.9035 H   0  0  0  0  0  0  0  0  0  0  0  0
    4.2830    1.2488   -2.2194 H   0  0  0  0  0  0  0  0  0  0  0  0
    6.1254    2.6030   -1.2356 H   0  0  0  0  0  0  0  0  0  0  0  0
    7.4350    1.6400    0.6604 H   0  0  0  0  0  0  0  0  0  0  0  0
    5.2353   -1.8327    0.6341 H   0  0  0  0  0  0  0  0  0  0  0  0
    1.7627    1.1700   -1.8182 H   0  0  0  0  0  0  0  0  0  0  0  0
   -1.1658    2.7783   -1.7152 H   0  0  0  0  0  0  0  0  0  0  0  0
   -3.5412   -2.1223   -0.7077 H   0  0  0  0  0  0  0  0  0  0  0  0
   -5.6793   -2.9895    0.1131 H   0  0  0  0  0  0  0  0  0  0  0  0
   -7.0540   -1.6498    1.6845 H   0  0  0  0  0  0  0  0  0  0  0  0
   -6.2471    0.5389    2.4731 H   0  0  0  0  0  0  0  0  0  0  0  0
   -2.8633    1.8863    1.9451 H   0  0  0  0  0  0  0  0  0  0  0  0
   -4.2811    1.8785    2.9719 H   0  0  0  0  0  0  0  0  0  0  0  0
   -4.3838    2.6284    1.3675 H   0  0  0  0  0  0  0  0  0  0  0  0
  1  2  1  0
  2  3  2  3
  3  4  1  0
  4  5  1  0
  5  6  2  0
  6  7  1  0
  7  8  2  0
  8  9  1  0
  9 10  2  0
  2 11  1  0
 11 12  2  0
 12 13  1  0
 12 14  1  0
 14 15  1  0
 15 16  2  0
 15 17  1  0
 17 18  1  0
 18 19  2  0
 19 20  1  0
 20 21  2  0
 21 22  1  0
 22 23  2  0
 23 24  1  0
 17 25  1  0
 25 26  2  0
 10  5  1  0
 25 11  1  0
 23 18  1  0
  1 27  1  0
  1 28  1  0
  1 29  1  0
  4 30  1  0
  4 31  1  0
  6 32  1  0
  7 33  1  0
  8 34  1  0
 10 35  1  0
 13 36  1  0
 14 37  1  0
 19 38  1  0
 20 39  1  0
 21 40  1  0
 22 41  1  0
 24 42  1  0
 24 43  1  0
 24 44  1  0
M  END
$$$$
