
     RDKit          3D

 33 34  0  0  0  0  0  0  0  0999 V2000
    1.3086   -4.0907    0.5598 O   0  0  0  0  0  0  0  0  0  0  0  0
    0.7431   -3.0410    0.2751 C   0  0  0  0  0  0  0  0  0  0  0  0
   -0.7486   -3.0151   -0.0561 C   0  0  0  0  0  0  0  0  0  0  0  0
   -1.2391   -1.6705   -0.1732 O   0  0  0  0  0  0  0  0  0  0  0  0
   -2.5518   -1.6091   -0.5136 C   0  0  0  0  0  0  0  0  0  0  0  0
   -3.2753   -2.5650   -0.7356 O   0  0  0  0  0  0  0  0  0  0  0  0
   -3.0086   -0.2063   -0.6191 C   0  0  0  0  0  0  0  0  0  0  0  0
   -4.2660    0.0687   -1.1660 C   0  0  0  0  0  0  0  0  0  0  0  0
   -4.6959    1.3912   -1.2734 C   0  0  0  0  0  0  0  0  0  0  0  0
   -3.8463    2.3890   -0.8266 C   0  0  0  0  0  0  0  0  0  0  0  0
   -4.2920    4.0399   -0.9284 Cl  0  0  0  0  0  0  0  0  0  0  0  0
   -2.6284    2.1643   -0.2894 N   0  0  0  0  0  0  0  0  0  0  0  0
   -2.2401    0.8695   -0.1912 C   0  0  0  0  0  0  0  0  0  0  0  0
    1.3468   -1.8037    0.1236 N   0  0  0  0  0  0  0  0  0  0  0  0
    2.5753   -1.4443    0.6447 C   0  0  0  0  0  0  0  0  0  0  0  0
    3.3443   -2.1794    1.2482 O   0  0  0  0  0  0  0  0  0  0  0  0
    2.9307   -0.0071    0.4737 C   0  0  0  0  0  0  0  0  0  0  0  0
    3.6897    0.6134    1.4735 C   0  0  0  0  0  0  0  0  0  0  0  0
    4.0258    1.9631    1.3614 C   0  0  0  0  0  0  0  0  0  0  0  0
    3.6138    2.6937    0.2474 C   0  0  0  0  0  0  0  0  0  0  0  0
    2.8751    2.0758   -0.7619 C   0  0  0  0  0  0  0  0  0  0  0  0
    2.5362    0.7250   -0.6551 C   0  0  0  0  0  0  0  0  0  0  0  0
   -1.2794   -3.5249    0.7555 H   0  0  0  0  0  0  0  0  0  0  0  0
   -0.8844   -3.5448   -1.0059 H   0  0  0  0  0  0  0  0  0  0  0  0
   -4.9099   -0.7394   -1.5087 H   0  0  0  0  0  0  0  0  0  0  0  0
   -5.6665    1.6289   -1.6951 H   0  0  0  0  0  0  0  0  0  0  0  0
   -1.2631    0.7381    0.2640 H   0  0  0  0  0  0  0  0  0  0  0  0
    0.7217   -1.0580   -0.1457 H   0  0  0  0  0  0  0  0  0  0  0  0
    4.0194    0.0465    2.3426 H   0  0  0  0  0  0  0  0  0  0  0  0
    4.6131    2.4426    2.1410 H   0  0  0  0  0  0  0  0  0  0  0  0
    3.8803    3.7448    0.1601 H   0  0  0  0  0  0  0  0  0  0  0  0
    2.5751    2.6470   -1.6376 H   0  0  0  0  0  0  0  0  0  0  0  0
    1.9964    0.2578   -1.4737 H   0  0  0  0  0  0  0  0  0  0  0  0
  1  2  2  0
  2  3  1  0
  3  4  1  0
  4  5  1  0
  5  6  2  0
  5  7  1  0
  7  8  2  0
  8  9  1  0
  9 10  2  0
 10 11  1  0
 10 12  1  0
 12 13  2  0
  2 14  1  0
 14 15  1  0
 15 16  2  0
 15 17  1  0
 17 18  2  0
 18 19  1  0
 19 20  2  0
 20 21  1  0
 21 22  2  0
 13  7  1  0
 22 17  1  0
  3 23  1  0
  3 24  1  0
  8 25  1  0
  9 26  1  0
 13 27  1  0
 14 28  1  0
 18 29  1  0
 19 30  1  0
 20 31  1  0
 21 32  1  0
 22 33  1  0
M  END
$$$$
