
     RDKit          3D

 47 49  0  0  0  0  0  0  0  0999 V2000
    4.5722    3.7120   -0.6276 C   0  0  0  0  0  0  0  0  0  0  0  0
    5.4727    2.6213   -0.4709 O   0  0  0  0  0  0  0  0  0  0  0  0
    4.9954    1.3789   -0.7909 C   0  0  0  0  0  0  0  0  0  0  0  0
    5.9560    0.3664   -0.7765 C   0  0  0  0  0  0  0  0  0  0  0  0
    5.5990   -0.9488   -1.0637 C   0  0  0  0  0  0  0  0  0  0  0  0
    4.2746   -1.2547   -1.3761 C   0  0  0  0  0  0  0  0  0  0  0  0
    3.3025   -0.2477   -1.4180 C   0  0  0  0  0  0  0  0  0  0  0  0
    1.9768   -0.6436   -1.7051 N   0  0  0  0  0  0  0  0  0  0  0  0
    0.8974    0.0774   -2.2030 C   0  0  0  0  0  0  0  0  0  0  0  0
    1.0289    1.4785   -3.1251 S   0  0  0  0  0  0  0  0  0  0  0  0
   -0.3305   -0.5531   -1.9165 N   0  0  0  0  0  0  0  0  0  0  0  0
   -1.5915   -0.2103   -2.5879 C   0  0  0  0  0  0  0  0  0  0  0  0
   -2.4694    0.6383   -1.6714 C   0  0  0  0  0  0  0  0  0  0  0  0
   -2.6378   -0.0214   -0.3225 C   0  0  0  0  0  0  0  0  0  0  0  0
   -3.7121    0.3465    0.5020 C   0  0  0  0  0  0  0  0  0  0  0  0
   -3.8781   -0.2344    1.7638 C   0  0  0  0  0  0  0  0  0  0  0  0
   -4.9043    0.0633    2.6265 O   0  0  0  0  0  0  0  0  0  0  0  0
   -5.8288    1.0661    2.2317 C   0  0  0  0  0  0  0  0  0  0  0  0
   -2.9513   -1.1943    2.2137 C   0  0  0  0  0  0  0  0  0  0  0  0
   -3.1883   -1.7232    3.4588 O   0  0  0  0  0  0  0  0  0  0  0  0
   -2.2328   -2.6314    3.9855 C   0  0  0  0  0  0  0  0  0  0  0  0
   -1.8729   -1.5513    1.3954 C   0  0  0  0  0  0  0  0  0  0  0  0
   -1.6985   -0.9637    0.1310 C   0  0  0  0  0  0  0  0  0  0  0  0
   -0.5184   -1.3898   -0.7225 C   0  0  0  0  0  0  0  0  0  0  0  0
    3.6674    1.0642   -1.0967 C   0  0  0  0  0  0  0  0  0  0  0  0
    4.1953    3.7735   -1.6540 H   0  0  0  0  0  0  0  0  0  0  0  0
    5.1252    4.6332   -0.4206 H   0  0  0  0  0  0  0  0  0  0  0  0
    3.7512    3.6487    0.0938 H   0  0  0  0  0  0  0  0  0  0  0  0
    6.9883    0.6068   -0.5342 H   0  0  0  0  0  0  0  0  0  0  0  0
    6.3522   -1.7317   -1.0452 H   0  0  0  0  0  0  0  0  0  0  0  0
    4.0190   -2.2867   -1.6007 H   0  0  0  0  0  0  0  0  0  0  0  0
    1.8342   -1.6437   -1.7593 H   0  0  0  0  0  0  0  0  0  0  0  0
   -1.4238    0.3000   -3.5397 H   0  0  0  0  0  0  0  0  0  0  0  0
   -2.0934   -1.1567   -2.8292 H   0  0  0  0  0  0  0  0  0  0  0  0
   -2.0163    1.6246   -1.5162 H   0  0  0  0  0  0  0  0  0  0  0  0
   -3.4467    0.7822   -2.1465 H   0  0  0  0  0  0  0  0  0  0  0  0
   -4.4092    1.0917    0.1322 H   0  0  0  0  0  0  0  0  0  0  0  0
   -5.3295    2.0295    2.0840 H   0  0  0  0  0  0  0  0  0  0  0  0
   -6.5544    1.1896    3.0415 H   0  0  0  0  0  0  0  0  0  0  0  0
   -6.3805    0.7633    1.3357 H   0  0  0  0  0  0  0  0  0  0  0  0
   -2.1816   -3.5434    3.3818 H   0  0  0  0  0  0  0  0  0  0  0  0
   -1.2481   -2.1615    4.0784 H   0  0  0  0  0  0  0  0  0  0  0  0
   -2.5604   -2.9169    4.9898 H   0  0  0  0  0  0  0  0  0  0  0  0
   -1.1467   -2.2886    1.7224 H   0  0  0  0  0  0  0  0  0  0  0  0
   -0.6869   -2.4140   -1.0751 H   0  0  0  0  0  0  0  0  0  0  0  0
    0.3775   -1.3773   -0.0941 H   0  0  0  0  0  0  0  0  0  0  0  0
    2.9068    1.8322   -1.0458 H   0  0  0  0  0  0  0  0  0  0  0  0
  1  2  1  0
  2  3  1  0
  3  4  2  0
  4  5  1  0
  5  6  2  0
  6  7  1  0
  7  8  1  0
  8  9  1  0
  9 10  2  0
  9 11  1  0
 11 12  1  0
 12 13  1  0
 13 14  1  0
 14 15  2  0
 15 16  1  0
 16 17  1  0
 17 18  1  0
 16 19  2  0
 19 20  1  0
 20 21  1  0
 19 22  1  0
 22 23  2  0
 23 24  1  0
  7 25  2  0
 25  3  1  0
 24 11  1  0
 23 14  1  0
  1 26  1  0
  1 27  1  0
  1 28  1  0
  4 29  1  0
  5 30  1  0
  6 31  1  0
  8 32  1  0
 12 33  1  0
 12 34  1  0
 13 35  1  0
 13 36  1  0
 15 37  1  0
 18 38  1  0
 18 39  1  0
 18 40  1  0
 21 41  1  0
 21 42  1  0
 21 43  1  0
 22 44  1  0
 24 45  1  0
 24 46  1  0
 25 47  1  0
M  END
$$$$
