
     RDKit          3D

 50 54  0  0  0  0  0  0  0  0999 V2000
    7.0206    2.7777    0.6537 F   0  0  0  0  0  0  0  0  0  0  0  0
    5.9085    2.1770    0.2100 C   0  0  0  0  0  0  0  0  0  0  0  0
    5.9612    0.8470   -0.1882 C   0  0  0  0  0  0  0  0  0  0  0  0
    4.8025    0.2223   -0.6501 C   0  0  0  0  0  0  0  0  0  0  0  0
    3.5884    0.9272   -0.7112 C   0  0  0  0  0  0  0  0  0  0  0  0
    2.3328    0.2484   -1.2229 C   0  0  0  0  0  0  0  0  0  0  0  0
    1.9594   -0.9428   -0.4439 N   0  0  0  0  0  0  0  0  0  0  0  0
    0.8611   -1.6896   -1.0980 C   0  0  0  0  0  0  0  0  0  0  0  0
   -0.5676   -1.2447   -0.7057 C   0  0  0  0  0  0  0  0  0  0  0  0
   -0.7702   -1.2412    0.7608 N   0  0  0  0  0  0  0  0  0  0  0  0
   -1.8580   -2.0222    1.1696 C   0  0  0  0  0  0  0  0  0  0  0  0
   -1.6173   -3.1744    1.8450 N   0  0  0  0  0  0  0  0  0  0  0  0
   -2.6422   -3.9586    2.2016 C   0  0  0  0  0  0  0  0  0  0  0  0
   -3.9367   -3.7492    1.9768 N   0  0  0  0  0  0  0  0  0  0  0  0
   -4.1611   -2.5864    1.3445 C   0  0  0  0  0  0  0  0  0  0  0  0
   -5.7604   -2.1246    0.9864 S   0  0  0  0  0  0  0  0  0  0  0  0
   -5.2419   -0.6527    0.3032 C   0  0  0  0  0  0  0  0  0  0  0  0
   -3.8657   -0.5128    0.3263 C   0  0  0  0  0  0  0  0  0  0  0  0
   -3.2681    0.7238   -0.1660 C   0  0  0  0  0  0  0  0  0  0  0  0
   -3.4663    1.1306   -1.4926 C   0  0  0  0  0  0  0  0  0  0  0  0
   -2.8956    2.3176   -1.9573 C   0  0  0  0  0  0  0  0  0  0  0  0
   -2.1270    3.1051   -1.1009 C   0  0  0  0  0  0  0  0  0  0  0  0
   -1.9286    2.7088    0.2209 C   0  0  0  0  0  0  0  0  0  0  0  0
   -2.4993    1.5232    0.6885 C   0  0  0  0  0  0  0  0  0  0  0  0
   -3.2109   -1.6653    0.9218 C   0  0  0  0  0  0  0  0  0  0  0  0
    0.4611   -1.4443    1.5484 C   0  0  0  0  0  0  0  0  0  0  0  0
    1.5940   -0.5803    0.9513 C   0  0  0  0  0  0  0  0  0  0  0  0
    3.5585    2.2713   -0.3057 C   0  0  0  0  0  0  0  0  0  0  0  0
    4.7193    2.8943    0.1556 C   0  0  0  0  0  0  0  0  0  0  0  0
    6.8995    0.3050   -0.1349 H   0  0  0  0  0  0  0  0  0  0  0  0
    4.8391   -0.8218   -0.9555 H   0  0  0  0  0  0  0  0  0  0  0  0
    1.5009    0.9639   -1.2648 H   0  0  0  0  0  0  0  0  0  0  0  0
    2.5418   -0.0379   -2.2625 H   0  0  0  0  0  0  0  0  0  0  0  0
    0.9670   -1.6657   -2.1897 H   0  0  0  0  0  0  0  0  0  0  0  0
    0.9787   -2.7467   -0.8244 H   0  0  0  0  0  0  0  0  0  0  0  0
   -0.7231   -0.2274   -1.0788 H   0  0  0  0  0  0  0  0  0  0  0  0
   -1.2861   -1.8932   -1.2235 H   0  0  0  0  0  0  0  0  0  0  0  0
   -2.3852   -4.8711    2.7301 H   0  0  0  0  0  0  0  0  0  0  0  0
   -5.9761    0.0507   -0.0673 H   0  0  0  0  0  0  0  0  0  0  0  0
   -4.0589    0.5250   -2.1743 H   0  0  0  0  0  0  0  0  0  0  0  0
   -3.0523    2.6287   -2.9870 H   0  0  0  0  0  0  0  0  0  0  0  0
   -1.6854    4.0303   -1.4626 H   0  0  0  0  0  0  0  0  0  0  0  0
   -1.3307    3.3215    0.8906 H   0  0  0  0  0  0  0  0  0  0  0  0
   -2.3316    1.2226    1.7205 H   0  0  0  0  0  0  0  0  0  0  0  0
    0.2880   -1.1331    2.5859 H   0  0  0  0  0  0  0  0  0  0  0  0
    0.7769   -2.4959    1.5584 H   0  0  0  0  0  0  0  0  0  0  0  0
    1.2656    0.4666    1.0087 H   0  0  0  0  0  0  0  0  0  0  0  0
    2.4862   -0.6764    1.5805 H   0  0  0  0  0  0  0  0  0  0  0  0
    2.6309    2.8377   -0.3440 H   0  0  0  0  0  0  0  0  0  0  0  0
    4.7042    3.9319    0.4728 H   0  0  0  0  0  0  0  0  0  0  0  0
  1  2  1  0
  2  3  2  0
  3  4  1  0
  4  5  2  0
  5  6  1  0
  6  7  1  0
  7  8  1  0
  8  9  1  0
  9 10  1  0
 10 11  1  0
 11 12  2  0
 12 13  1  0
 13 14  2  0
 14 15  1  0
 15 16  1  0
 16 17  1  0
 17 18  2  0
 18 19  1  0
 19 20  2  0
 20 21  1  0
 21 22  2  0
 22 23  1  0
 23 24  2  0
 18 25  1  0
 10 26  1  0
 26 27  1  0
  5 28  1  0
 28 29  2  0
 29  2  1  0
 27  7  1  0
 25 11  1  0
 25 15  2  0
 24 19  1  0
  3 30  1  0
  4 31  1  0
  6 32  1  0
  6 33  1  0
  8 34  1  0
  8 35  1  0
  9 36  1  0
  9 37  1  0
 13 38  1  0
 17 39  1  0
 20 40  1  0
 21 41  1  0
 22 42  1  0
 23 43  1  0
 24 44  1  0
 26 45  1  0
 26 46  1  0
 27 47  1  0
 27 48  1  0
 28 49  1  0
 29 50  1  0
M  END
$$$$
