
     RDKit          3D

 48 48  0  0  0  0  0  0  0  0999 V2000
   -6.1433    2.5946   -0.7922 C   0  0  0  0  0  0  0  0  0  0  0  0
   -5.4297    2.7215    0.5449 C   0  0  0  0  0  0  0  0  0  0  0  0
   -5.1702    1.3775    1.2289 C   0  0  0  0  0  0  0  0  0  0  0  0
   -4.1893    0.4866    0.4618 C   0  0  0  0  0  0  0  0  0  0  0  0
   -3.8792   -0.7924    1.2437 C   0  0  0  0  0  0  0  0  0  0  0  0
   -2.9905   -1.7761    0.4765 C   0  0  0  0  0  0  0  0  0  0  0  0
   -1.6111   -1.2513    0.0650 C   0  0  0  0  0  0  0  0  0  0  0  0
   -0.7524   -0.8031    1.2520 C   0  0  0  0  0  0  0  0  0  0  0  0
    0.6591   -0.3980    0.8261 C   0  0  0  0  0  0  0  0  0  0  0  0
    1.5594   -1.5774    0.4932 C   0  0  0  0  0  0  0  0  0  0  0  0
    1.2375   -2.7443    0.6905 O   0  0  0  0  0  0  0  0  0  0  0  0
    2.7733   -1.1547   -0.0374 N   0  0  0  0  0  0  0  0  0  0  0  0
    3.7494   -2.0675   -0.3052 N   0  0  0  0  0  0  0  0  0  0  0  0
    4.8663   -1.6684   -0.8357 C   0  0  0  0  0  0  0  0  0  0  0  0
    5.9585   -2.6951   -1.0238 C   0  0  0  0  0  0  0  0  0  0  0  0
    5.1693   -0.2981   -1.2840 C   0  0  0  0  0  0  0  0  0  0  0  0
    4.4443    0.2862   -2.3215 C   0  0  0  0  0  0  0  0  0  0  0  0
    4.7629    1.5822   -2.7159 C   0  0  0  0  0  0  0  0  0  0  0  0
    5.7924    2.2371   -2.0550 C   0  0  0  0  0  0  0  0  0  0  0  0
    6.5076    1.6898   -1.0452 N   0  0  0  0  0  0  0  0  0  0  0  0
    6.1855    0.4267   -0.6819 C   0  0  0  0  0  0  0  0  0  0  0  0
   -5.5186    2.0891   -1.5344 H   0  0  0  0  0  0  0  0  0  0  0  0
   -7.0785    2.0358   -0.6870 H   0  0  0  0  0  0  0  0  0  0  0  0
   -6.3846    3.5877   -1.1845 H   0  0  0  0  0  0  0  0  0  0  0  0
   -6.0459    3.3367    1.2112 H   0  0  0  0  0  0  0  0  0  0  0  0
   -4.4840    3.2574    0.4041 H   0  0  0  0  0  0  0  0  0  0  0  0
   -4.7669    1.5751    2.2299 H   0  0  0  0  0  0  0  0  0  0  0  0
   -6.1202    0.8475    1.3698 H   0  0  0  0  0  0  0  0  0  0  0  0
   -3.2660    1.0471    0.2779 H   0  0  0  0  0  0  0  0  0  0  0  0
   -4.6101    0.2176   -0.5135 H   0  0  0  0  0  0  0  0  0  0  0  0
   -3.4168   -0.5391    2.2045 H   0  0  0  0  0  0  0  0  0  0  0  0
   -4.8208   -1.3026    1.4823 H   0  0  0  0  0  0  0  0  0  0  0  0
   -2.8571   -2.6742    1.0927 H   0  0  0  0  0  0  0  0  0  0  0  0
   -3.5203   -2.1009   -0.4277 H   0  0  0  0  0  0  0  0  0  0  0  0
   -1.0979   -2.0523   -0.4804 H   0  0  0  0  0  0  0  0  0  0  0  0
   -1.7216   -0.4232   -0.6449 H   0  0  0  0  0  0  0  0  0  0  0  0
   -0.7094   -1.5988    2.0051 H   0  0  0  0  0  0  0  0  0  0  0  0
   -1.2220    0.0651    1.7286 H   0  0  0  0  0  0  0  0  0  0  0  0
    0.6157    0.2797   -0.0348 H   0  0  0  0  0  0  0  0  0  0  0  0
    1.1338    0.1414    1.6553 H   0  0  0  0  0  0  0  0  0  0  0  0
    2.9862   -0.1652   -0.0836 H   0  0  0  0  0  0  0  0  0  0  0  0
    5.5415   -3.5846   -1.5060 H   0  0  0  0  0  0  0  0  0  0  0  0
    6.7714   -2.3115   -1.6462 H   0  0  0  0  0  0  0  0  0  0  0  0
    6.3581   -2.9762   -0.0451 H   0  0  0  0  0  0  0  0  0  0  0  0
    3.6502   -0.2628   -2.8216 H   0  0  0  0  0  0  0  0  0  0  0  0
    4.2275    2.0700   -3.5236 H   0  0  0  0  0  0  0  0  0  0  0  0
    6.0796    3.2491   -2.3295 H   0  0  0  0  0  0  0  0  0  0  0  0
    6.7770    0.0165    0.1316 H   0  0  0  0  0  0  0  0  0  0  0  0
  1  2  1  0
  2  3  1  0
  3  4  1  0
  4  5  1  0
  5  6  1  0
  6  7  1  0
  7  8  1  0
  8  9  1  0
  9 10  1  0
 10 11  2  0
 10 12  1  0
 12 13  1  0
 13 14  2  3
 14 15  1  0
 14 16  1  0
 16 17  2  0
 17 18  1  0
 18 19  2  0
 19 20  1  0
 20 21  2  0
 21 16  1  0
  1 22  1  0
  1 23  1  0
  1 24  1  0
  2 25  1  0
  2 26  1  0
  3 27  1  0
  3 28  1  0
  4 29  1  0
  4 30  1  0
  5 31  1  0
  5 32  1  0
  6 33  1  0
  6 34  1  0
  7 35  1  0
  7 36  1  0
  8 37  1  0
  8 38  1  0
  9 39  1  0
  9 40  1  0
 12 41  1  0
 15 42  1  0
 15 43  1  0
 15 44  1  0
 17 45  1  0
 18 46  1  0
 19 47  1  0
 21 48  1  0
M  END
$$$$
