
     RDKit          3D

 53 56  0  0  0  0  0  0  0  0999 V2000
    7.2048   -0.9462   -2.2144 C   0  0  0  0  0  0  0  0  0  0  0  0
    6.4696    0.2558   -2.4030 O   0  0  0  0  0  0  0  0  0  0  0  0
    5.5175    0.5522   -1.4671 C   0  0  0  0  0  0  0  0  0  0  0  0
    5.2074   -0.2102   -0.3408 C   0  0  0  0  0  0  0  0  0  0  0  0
    4.2026    0.2087    0.5395 C   0  0  0  0  0  0  0  0  0  0  0  0
    3.5000    1.3985    0.3083 C   0  0  0  0  0  0  0  0  0  0  0  0
    2.3937    1.8371    1.2312 C   0  0  0  0  0  0  0  0  0  0  0  0
    1.1165    1.3921    0.7223 N   0  0  0  0  0  0  0  0  0  0  0  0
    0.2095    2.2598    0.1334 C   0  0  0  0  0  0  0  0  0  0  0  0
    0.4460    3.4625    0.0285 O   0  0  0  0  0  0  0  0  0  0  0  0
   -1.0284    1.5878   -0.4546 C   0  0  0  0  0  0  0  0  0  0  0  0
   -1.9333    2.5687   -1.0726 C   0  0  0  0  0  0  0  0  0  0  0  0
   -2.6844    3.2787   -1.6062 N   0  0  0  0  0  0  0  0  0  0  0  0
   -1.7784    0.7528    0.5613 C   0  0  0  0  0  0  0  0  0  0  0  0
   -1.8832    1.2404    1.8301 N   0  0  0  0  0  0  0  0  0  0  0  0
   -2.5479    0.4928    2.7266 C   0  0  0  0  0  0  0  0  0  0  0  0
   -2.6878    0.9457    4.0330 C   0  0  0  0  0  0  0  0  0  0  0  0
   -3.3663    0.1930    4.9920 C   0  0  0  0  0  0  0  0  0  0  0  0
   -3.9133   -1.0336    4.6372 C   0  0  0  0  0  0  0  0  0  0  0  0
   -3.7775   -1.4950    3.3269 C   0  0  0  0  0  0  0  0  0  0  0  0
   -3.1045   -0.7521    2.3643 C   0  0  0  0  0  0  0  0  0  0  0  0
   -2.9963   -1.2298    1.1103 N   0  0  0  0  0  0  0  0  0  0  0  0
   -2.3448   -0.4784    0.1946 C   0  0  0  0  0  0  0  0  0  0  0  0
   -2.2589   -0.9363   -1.1380 N   0  0  0  0  0  0  0  0  0  0  0  0
   -3.4747   -0.5185   -1.8858 C   0  0  0  0  0  0  0  0  0  0  0  0
   -3.8891   -1.7449   -2.6929 C   0  0  0  0  0  0  0  0  0  0  0  0
   -3.4927   -2.8862   -1.7793 C   0  0  0  0  0  0  0  0  0  0  0  0
   -2.1500   -2.4100   -1.2415 C   0  0  0  0  0  0  0  0  0  0  0  0
    3.8113    2.1558   -0.8275 C   0  0  0  0  0  0  0  0  0  0  0  0
    4.8143    1.7351   -1.7034 C   0  0  0  0  0  0  0  0  0  0  0  0
    6.5456   -1.8199   -2.2460 H   0  0  0  0  0  0  0  0  0  0  0  0
    7.7797   -0.9172   -1.2829 H   0  0  0  0  0  0  0  0  0  0  0  0
    7.9158   -1.0373   -3.0411 H   0  0  0  0  0  0  0  0  0  0  0  0
    5.7266   -1.1360   -0.1180 H   0  0  0  0  0  0  0  0  0  0  0  0
    3.9743   -0.4037    1.4090 H   0  0  0  0  0  0  0  0  0  0  0  0
    2.4132    2.9249    1.3620 H   0  0  0  0  0  0  0  0  0  0  0  0
    2.5231    1.3901    2.2232 H   0  0  0  0  0  0  0  0  0  0  0  0
    0.9222    0.4003    0.7575 H   0  0  0  0  0  0  0  0  0  0  0  0
   -0.6297    0.9440   -1.2497 H   0  0  0  0  0  0  0  0  0  0  0  0
   -2.2608    1.9080    4.3072 H   0  0  0  0  0  0  0  0  0  0  0  0
   -3.4663    0.5677    6.0083 H   0  0  0  0  0  0  0  0  0  0  0  0
   -4.4466   -1.6307    5.3726 H   0  0  0  0  0  0  0  0  0  0  0  0
   -4.2081   -2.4538    3.0471 H   0  0  0  0  0  0  0  0  0  0  0  0
   -4.2993   -0.2220   -1.2227 H   0  0  0  0  0  0  0  0  0  0  0  0
   -3.2474    0.3217   -2.5495 H   0  0  0  0  0  0  0  0  0  0  0  0
   -4.9549   -1.7446   -2.9379 H   0  0  0  0  0  0  0  0  0  0  0  0
   -3.3202   -1.7935   -3.6291 H   0  0  0  0  0  0  0  0  0  0  0  0
   -4.2187   -2.9913   -0.9642 H   0  0  0  0  0  0  0  0  0  0  0  0
   -3.4181   -3.8435   -2.3030 H   0  0  0  0  0  0  0  0  0  0  0  0
   -1.3653   -2.6295   -1.9764 H   0  0  0  0  0  0  0  0  0  0  0  0
   -1.8638   -2.9219   -0.3159 H   0  0  0  0  0  0  0  0  0  0  0  0
    3.2698    3.0776   -1.0366 H   0  0  0  0  0  0  0  0  0  0  0  0
    5.0472    2.3346   -2.5802 H   0  0  0  0  0  0  0  0  0  0  0  0
  1  2  1  0
  2  3  1  0
  3  4  2  0
  4  5  1  0
  5  6  2  0
  6  7  1  0
  7  8  1  0
  8  9  1  0
  9 10  2  0
  9 11  1  0
 11 12  1  0
 12 13  3  0
 11 14  1  0
 14 15  2  0
 15 16  1  0
 16 17  2  0
 17 18  1  0
 18 19  2  0
 19 20  1  0
 20 21  2  0
 21 22  1  0
 22 23  2  0
 23 24  1  0
 24 25  1  0
 25 26  1  0
 26 27  1  0
 27 28  1  0
  6 29  1  0
 29 30  2  0
 30  3  1  0
 23 14  1  0
 28 24  1  0
 21 16  1  0
  1 31  1  0
  1 32  1  0
  1 33  1  0
  4 34  1  0
  5 35  1  0
  7 36  1  0
  7 37  1  0
  8 38  1  0
 11 39  1  0
 17 40  1  0
 18 41  1  0
 19 42  1  0
 20 43  1  0
 25 44  1  0
 25 45  1  0
 26 46  1  0
 26 47  1  0
 27 48  1  0
 27 49  1  0
 28 50  1  0
 28 51  1  0
 29 52  1  0
 30 53  1  0
M  END
$$$$
