
     RDKit          3D

 45 47  0  0  0  0  0  0  0  0999 V2000
   -6.7129   -0.2816   -1.8748 C   0  0  0  0  0  0  0  0  0  0  0  0
   -5.6353    0.7570   -1.7651 C   0  0  0  0  0  0  0  0  0  0  0  0
   -5.7980    1.8613   -0.9229 C   0  0  0  0  0  0  0  0  0  0  0  0
   -4.7850    2.8114   -0.8025 C   0  0  0  0  0  0  0  0  0  0  0  0
   -3.5932    2.6581   -1.5099 C   0  0  0  0  0  0  0  0  0  0  0  0
   -3.3975    1.5439   -2.3387 C   0  0  0  0  0  0  0  0  0  0  0  0
   -2.1013    1.3705   -3.0832 C   0  0  0  0  0  0  0  0  0  0  0  0
   -1.1081    0.0607   -2.3731 S   0  0  0  0  0  6  0  0  0  0  0  0
   -1.7919   -1.2038   -2.5957 O   0  0  0  0  0  0  0  0  0  0  0  0
    0.2368    0.2476   -2.8942 O   0  0  0  0  0  0  0  0  0  0  0  0
   -1.0994    0.4097   -0.6150 C   0  0  0  0  0  0  0  0  0  0  0  0
   -0.1253   -0.4779    0.0623 C   0  0  0  0  0  0  0  0  0  0  0  0
    0.0829   -1.8399    0.0926 C   0  0  0  0  0  0  0  0  0  0  0  0
    1.1801   -2.0577    0.9622 C   0  0  0  0  0  0  0  0  0  0  0  0
    1.5775   -0.8174    1.4324 C   0  0  0  0  0  0  0  0  0  0  0  0
    2.6231   -0.3822    2.3416 C   0  0  0  0  0  0  0  0  0  0  0  0
    2.7519    0.7788    2.7248 O   0  0  0  0  0  0  0  0  0  0  0  0
    3.4878   -1.3780    2.7543 N   0  0  0  0  0  0  0  0  0  0  0  0
    4.6810   -1.0691    3.5066 C   0  0  0  0  0  0  0  0  0  0  0  0
    5.8076   -0.9278    2.5533 C   0  0  0  0  0  0  0  0  0  0  0  0
    6.3582    0.1509    1.8927 C   0  0  0  0  0  0  0  0  0  0  0  0
    7.4118   -0.3627    1.0999 C   0  0  0  0  0  0  0  0  0  0  0  0
    7.4343   -1.7193    1.3235 C   0  0  0  0  0  0  0  0  0  0  0  0
    6.4611   -2.0738    2.2021 O   0  0  0  0  0  0  0  0  0  0  0  0
    0.7649    0.1422    0.8868 O   0  0  0  0  0  0  0  0  0  0  0  0
   -4.4303    0.6018   -2.4628 C   0  0  0  0  0  0  0  0  0  0  0  0
   -7.7009    0.1603   -1.7085 H   0  0  0  0  0  0  0  0  0  0  0  0
   -6.5489   -1.0699   -1.1337 H   0  0  0  0  0  0  0  0  0  0  0  0
   -6.7221   -0.7298   -2.8739 H   0  0  0  0  0  0  0  0  0  0  0  0
   -6.7196    1.9913   -0.3595 H   0  0  0  0  0  0  0  0  0  0  0  0
   -4.9271    3.6739   -0.1556 H   0  0  0  0  0  0  0  0  0  0  0  0
   -2.8213    3.4183   -1.4038 H   0  0  0  0  0  0  0  0  0  0  0  0
   -2.2851    1.1198   -4.1329 H   0  0  0  0  0  0  0  0  0  0  0  0
   -1.5003    2.2855   -3.0548 H   0  0  0  0  0  0  0  0  0  0  0  0
   -2.1030    0.2359   -0.2196 H   0  0  0  0  0  0  0  0  0  0  0  0
   -0.8255    1.4616   -0.4918 H   0  0  0  0  0  0  0  0  0  0  0  0
   -0.4808   -2.5855   -0.4540 H   0  0  0  0  0  0  0  0  0  0  0  0
    1.6168   -3.0129    1.2156 H   0  0  0  0  0  0  0  0  0  0  0  0
    3.4835   -2.2594    2.2635 H   0  0  0  0  0  0  0  0  0  0  0  0
    4.8603   -1.9013    4.1946 H   0  0  0  0  0  0  0  0  0  0  0  0
    4.5474   -0.1569    4.0962 H   0  0  0  0  0  0  0  0  0  0  0  0
    6.0269    1.1779    1.9715 H   0  0  0  0  0  0  0  0  0  0  0  0
    8.0702    0.1867    0.4418 H   0  0  0  0  0  0  0  0  0  0  0  0
    8.0462   -2.5292    0.9516 H   0  0  0  0  0  0  0  0  0  0  0  0
   -4.2975   -0.2691   -3.1058 H   0  0  0  0  0  0  0  0  0  0  0  0
  1  2  1  0
  2  3  2  0
  3  4  1  0
  4  5  2  0
  5  6  1  0
  6  7  1  0
  7  8  1  0
  8  9  2  0
  8 10  2  0
  8 11  1  0
 11 12  1  0
 12 13  2  0
 13 14  1  0
 14 15  2  0
 15 16  1  0
 16 17  2  0
 16 18  1  0
 18 19  1  0
 19 20  1  0
 20 21  2  0
 21 22  1  0
 22 23  2  0
 23 24  1  0
 15 25  1  0
  6 26  2  0
 26  2  1  0
 25 12  1  0
 24 20  1  0
  1 27  1  0
  1 28  1  0
  1 29  1  0
  3 30  1  0
  4 31  1  0
  5 32  1  0
  7 33  1  0
  7 34  1  0
 11 35  1  0
 11 36  1  0
 13 37  1  0
 14 38  1  0
 18 39  1  0
 19 40  1  0
 19 41  1  0
 21 42  1  0
 22 43  1  0
 23 44  1  0
 26 45  1  0
M  END
$$$$
