
     RDKit          3D

 46 48  0  0  0  0  0  0  0  0999 V2000
    5.5115    0.8622   -3.0598 C   0  0  0  0  0  0  0  0  0  0  0  0
    4.5284    1.6149   -2.3610 O   0  0  0  0  0  0  0  0  0  0  0  0
    3.6923    0.9217   -1.5309 C   0  0  0  0  0  0  0  0  0  0  0  0
    3.7224   -0.4504   -1.2923 C   0  0  0  0  0  0  0  0  0  0  0  0
    2.8020   -1.0380   -0.4130 C   0  0  0  0  0  0  0  0  0  0  0  0
    1.8268   -0.2674    0.2390 C   0  0  0  0  0  0  0  0  0  0  0  0
    0.8204   -0.8619    1.2221 C   0  0  0  0  0  0  0  0  0  0  0  0
    0.9260   -2.3631    1.5179 C   0  0  0  0  0  0  0  0  0  0  0  0
   -0.5840   -0.4954    0.9031 N   0  0  0  0  0  0  0  0  0  0  0  0
   -1.4724    0.0490    1.8405 C   0  0  0  0  0  0  0  0  0  0  0  0
   -1.1395    0.1692    3.2912 C   0  0  0  0  0  0  0  0  0  0  0  0
   -2.6002    0.4321    1.1393 C   0  0  0  0  0  0  0  0  0  0  0  0
   -3.7365    1.1119    1.6245 C   0  0  0  0  0  0  0  0  0  0  0  0
   -4.0426    1.6244    2.9869 C   0  0  0  0  0  0  0  0  0  0  0  0
   -4.6700    1.3027    0.6396 N   0  0  0  0  0  0  0  0  0  0  0  0
   -4.5065    0.8695   -0.7500 N   0  0  0  0  0  0  0  0  0  0  0  0
   -3.4000    0.2212   -1.2330 C   0  0  0  0  0  0  0  0  0  0  0  0
   -3.3740   -0.1437   -2.6749 C   0  0  0  0  0  0  0  0  0  0  0  0
   -2.4401    0.0078   -0.2222 C   0  0  0  0  0  0  0  0  0  0  0  0
   -1.2154   -0.6250   -0.3370 C   0  0  0  0  0  0  0  0  0  0  0  0
   -0.5921   -1.2892   -1.5191 C   0  0  0  0  0  0  0  0  0  0  0  0
    1.8190    1.1177   -0.0023 C   0  0  0  0  0  0  0  0  0  0  0  0
    2.7370    1.7005   -0.8797 C   0  0  0  0  0  0  0  0  0  0  0  0
    6.0860    1.5569   -3.6801 H   0  0  0  0  0  0  0  0  0  0  0  0
    5.0469    0.1274   -3.7257 H   0  0  0  0  0  0  0  0  0  0  0  0
    6.2082    0.3820   -2.3649 H   0  0  0  0  0  0  0  0  0  0  0  0
    4.4503   -1.0963   -1.7723 H   0  0  0  0  0  0  0  0  0  0  0  0
    2.8657   -2.1123   -0.2585 H   0  0  0  0  0  0  0  0  0  0  0  0
    1.0592   -0.3527    2.1642 H   0  0  0  0  0  0  0  0  0  0  0  0
    1.9184   -2.6153    1.9077 H   0  0  0  0  0  0  0  0  0  0  0  0
    0.1909   -2.6660    2.2721 H   0  0  0  0  0  0  0  0  0  0  0  0
    0.7490   -2.9790    0.6315 H   0  0  0  0  0  0  0  0  0  0  0  0
   -0.6161    1.1108    3.4833 H   0  0  0  0  0  0  0  0  0  0  0  0
   -0.5134   -0.6585    3.6371 H   0  0  0  0  0  0  0  0  0  0  0  0
   -2.0356    0.1363    3.9146 H   0  0  0  0  0  0  0  0  0  0  0  0
   -4.9281    2.2681    2.9677 H   0  0  0  0  0  0  0  0  0  0  0  0
   -4.2459    0.7926    3.6671 H   0  0  0  0  0  0  0  0  0  0  0  0
   -3.2093    2.2183    3.3727 H   0  0  0  0  0  0  0  0  0  0  0  0
   -3.4613   -1.2273   -2.7930 H   0  0  0  0  0  0  0  0  0  0  0  0
   -4.2107    0.3213   -3.2063 H   0  0  0  0  0  0  0  0  0  0  0  0
   -2.4492    0.2022   -3.1448 H   0  0  0  0  0  0  0  0  0  0  0  0
   -1.3350   -1.8686   -2.0744 H   0  0  0  0  0  0  0  0  0  0  0  0
    0.1879   -2.0013   -1.2493 H   0  0  0  0  0  0  0  0  0  0  0  0
   -0.1619   -0.5417   -2.1928 H   0  0  0  0  0  0  0  0  0  0  0  0
    1.0871    1.7594    0.4866 H   0  0  0  0  0  0  0  0  0  0  0  0
    2.7044    2.7730   -1.0568 H   0  0  0  0  0  0  0  0  0  0  0  0
  1  2  1  0
  2  3  1  0
  3  4  2  0
  4  5  1  0
  5  6  2  0
  6  7  1  0
  7  8  1  0
  7  9  1  0
  9 10  1  0
 10 11  1  0
 10 12  2  0
 12 13  1  0
 13 14  1  0
 13 15  2  0
 15 16  1  0
 16 17  2  0
 17 18  1  0
 17 19  1  0
 19 20  2  0
 20 21  1  0
  6 22  1  0
 22 23  2  0
 23  3  1  0
 20  9  1  0
 19 12  1  0
  1 24  1  0
  1 25  1  0
  1 26  1  0
  4 27  1  0
  5 28  1  0
  7 29  1  0
  8 30  1  0
  8 31  1  0
  8 32  1  0
 11 33  1  0
 11 34  1  0
 11 35  1  0
 14 36  1  0
 14 37  1  0
 14 38  1  0
 18 39  1  0
 18 40  1  0
 18 41  1  0
 21 42  1  0
 21 43  1  0
 21 44  1  0
 22 45  1  0
 23 46  1  0
M  END
$$$$
