
     RDKit          3D

 63 68  0  0  0  0  0  0  0  0999 V2000
   -1.9649    3.8438    4.5818 C   0  0  0  0  0  0  0  0  0  0  0  0
   -1.5565    2.4973    4.3813 O   0  0  0  0  0  0  0  0  0  0  0  0
   -1.6923    1.9933    3.1168 C   0  0  0  0  0  0  0  0  0  0  0  0
   -1.3190    0.6557    2.9773 C   0  0  0  0  0  0  0  0  0  0  0  0
   -1.4064    0.0144    1.7389 C   0  0  0  0  0  0  0  0  0  0  0  0
   -1.8759    0.7040    0.6103 C   0  0  0  0  0  0  0  0  0  0  0  0
   -1.9821    0.0263   -0.7598 C   0  0  0  0  0  0  0  0  0  0  0  0
   -2.8873   -1.1924   -0.7067 C   0  0  0  0  0  0  0  0  0  0  0  0
   -4.2652   -1.0548   -0.4987 C   0  0  0  0  0  0  0  0  0  0  0  0
   -5.0821   -2.1827   -0.4175 C   0  0  0  0  0  0  0  0  0  0  0  0
   -4.5435   -3.4723   -0.5390 C   0  0  0  0  0  0  0  0  0  0  0  0
   -5.3687   -4.6060   -0.4510 C   0  0  0  0  0  0  0  0  0  0  0  0
   -4.8374   -5.8904   -0.5710 C   0  0  0  0  0  0  0  0  0  0  0  0
   -3.4739   -6.0587   -0.7808 C   0  0  0  0  0  0  0  0  0  0  0  0
   -2.6411   -4.9419   -0.8701 C   0  0  0  0  0  0  0  0  0  0  0  0
   -3.1537   -3.6319   -0.7511 C   0  0  0  0  0  0  0  0  0  0  0  0
   -2.3421   -2.4759   -0.8377 C   0  0  0  0  0  0  0  0  0  0  0  0
   -0.9905   -2.6631   -1.0437 O   0  0  0  0  0  0  0  0  0  0  0  0
   -0.1905   -1.5884   -1.4233 C   0  0  0  0  0  0  0  0  0  0  0  0
    1.0678   -1.9480   -1.8668 N   0  0  0  0  0  0  0  0  0  0  0  0
    1.8482   -0.9809   -2.2235 C   0  0  0  0  0  0  0  0  0  0  0  0
    1.5293    0.3586   -2.2550 N   0  0  0  0  0  0  0  0  0  0  0  0
    2.5886    1.3189   -2.5788 C   0  0  0  0  0  0  0  0  0  0  0  0
    3.2626    1.8619   -1.2982 C   0  0  0  0  0  0  0  0  0  0  0  0
    4.0013    0.8279   -0.5493 N   0  0  0  0  0  0  0  0  0  0  0  0
    4.1743    1.1983    0.8745 C   0  0  0  0  0  0  0  0  0  0  0  0
    5.2283    2.2928    1.1052 C   0  0  0  0  0  0  0  0  0  0  0  0
    6.4990    1.9094    0.5655 O   0  0  0  0  0  0  0  0  0  0  0  0
    6.3953    1.6212   -0.8327 C   0  0  0  0  0  0  0  0  0  0  0  0
    5.3381    0.5371   -1.1140 C   0  0  0  0  0  0  0  0  0  0  0  0
    0.2697    0.7569   -1.8309 C   0  0  0  0  0  0  0  0  0  0  0  0
   -0.1914    1.9705   -1.8616 N   0  0  0  0  0  0  0  0  0  0  0  0
   -0.6351   -0.3192   -1.3212 C   0  0  0  0  0  0  0  0  0  0  0  0
   -2.2417    2.0508    0.7585 C   0  0  0  0  0  0  0  0  0  0  0  0
   -2.1516    2.6903    2.0005 C   0  0  0  0  0  0  0  0  0  0  0  0
   -3.0292    3.9722    4.3587 H   0  0  0  0  0  0  0  0  0  0  0  0
   -1.8155    4.0844    5.6388 H   0  0  0  0  0  0  0  0  0  0  0  0
   -1.3509    4.5336    3.9936 H   0  0  0  0  0  0  0  0  0  0  0  0
   -0.9575    0.1039    3.8413 H   0  0  0  0  0  0  0  0  0  0  0  0
   -1.1073   -1.0293    1.6664 H   0  0  0  0  0  0  0  0  0  0  0  0
   -2.4672    0.7159   -1.4661 H   0  0  0  0  0  0  0  0  0  0  0  0
   -4.7077   -0.0674   -0.3854 H   0  0  0  0  0  0  0  0  0  0  0  0
   -6.1484   -2.0457   -0.2500 H   0  0  0  0  0  0  0  0  0  0  0  0
   -6.4384   -4.4960   -0.2868 H   0  0  0  0  0  0  0  0  0  0  0  0
   -5.4888   -6.7573   -0.5005 H   0  0  0  0  0  0  0  0  0  0  0  0
   -3.0540   -7.0565   -0.8759 H   0  0  0  0  0  0  0  0  0  0  0  0
   -1.5763   -5.0984   -1.0357 H   0  0  0  0  0  0  0  0  0  0  0  0
    2.8737   -1.2123   -2.5564 H   0  0  0  0  0  0  0  0  0  0  0  0
    2.1824    2.1552   -3.1590 H   0  0  0  0  0  0  0  0  0  0  0  0
    3.3337    0.8620   -3.2414 H   0  0  0  0  0  0  0  0  0  0  0  0
    2.4698    2.2768   -0.6625 H   0  0  0  0  0  0  0  0  0  0  0  0
    3.9111    2.7042   -1.5641 H   0  0  0  0  0  0  0  0  0  0  0  0
    4.4894    0.2938    1.4110 H   0  0  0  0  0  0  0  0  0  0  0  0
    3.2156    1.4936    1.3171 H   0  0  0  0  0  0  0  0  0  0  0  0
    5.3632    2.4543    2.1795 H   0  0  0  0  0  0  0  0  0  0  0  0
    4.9220    3.2480    0.6635 H   0  0  0  0  0  0  0  0  0  0  0  0
    6.1779    2.5485   -1.3740 H   0  0  0  0  0  0  0  0  0  0  0  0
    7.3765    1.2706   -1.1689 H   0  0  0  0  0  0  0  0  0  0  0  0
    5.2777    0.3451   -2.1905 H   0  0  0  0  0  0  0  0  0  0  0  0
    5.6818   -0.4017   -0.6601 H   0  0  0  0  0  0  0  0  0  0  0  0
    0.4861    2.6277   -2.2378 H   0  0  0  0  0  0  0  0  0  0  0  0
   -2.5863    2.6189   -0.1037 H   0  0  0  0  0  0  0  0  0  0  0  0
   -2.4432    3.7333    2.0560 H   0  0  0  0  0  0  0  0  0  0  0  0
  1  2  1  0
  2  3  1  0
  3  4  2  0
  4  5  1  0
  5  6  2  0
  6  7  1  0
  7  8  1  0
  8  9  2  0
  9 10  1  0
 10 11  2  0
 11 12  1  0
 12 13  2  0
 13 14  1  0
 14 15  2  0
 15 16  1  0
 16 17  2  0
 17 18  1  0
 18 19  1  0
 19 20  1  0
 20 21  2  0
 21 22  1  0
 22 23  1  0
 23 24  1  0
 24 25  1  0
 25 26  1  0
 26 27  1  0
 27 28  1  0
 28 29  1  0
 29 30  1  0
 22 31  1  0
 31 32  2  3
 31 33  1  0
  6 34  1  0
 34 35  2  0
 35  3  1  0
 33  7  1  0
 17  8  1  0
 33 19  2  0
 16 11  1  0
 30 25  1  0
  1 36  1  0
  1 37  1  0
  1 38  1  0
  4 39  1  0
  5 40  1  0
  7 41  1  0
  9 42  1  0
 10 43  1  0
 12 44  1  0
 13 45  1  0
 14 46  1  0
 15 47  1  0
 21 48  1  0
 23 49  1  0
 23 50  1  0
 24 51  1  0
 24 52  1  0
 26 53  1  0
 26 54  1  0
 27 55  1  0
 27 56  1  0
 29 57  1  0
 29 58  1  0
 30 59  1  0
 30 60  1  0
 32 61  1  0
 34 62  1  0
 35 63  1  0
M  END
$$$$
