
     RDKit          3D

 73 75  0  0  0  0  0  0  0  0999 V2000
    9.0097    0.3010   -2.9857 C   0  0  0  0  0  0  0  0  0  0  0  0
    9.1104   -0.6220   -1.7799 C   0  0  0  0  0  0  0  0  0  0  0  0
    9.2685    0.1249   -0.4527 C   0  0  0  0  0  0  0  0  0  0  0  0
    8.1376    1.0941   -0.0946 C   0  0  0  0  0  0  0  0  0  0  0  0
    6.7802    0.4068    0.0811 C   0  0  0  0  0  0  0  0  0  0  0  0
    5.7247    1.3915    0.5923 C   0  0  0  0  0  0  0  0  0  0  0  0
    4.3656    0.7112    0.7721 C   0  0  0  0  0  0  0  0  0  0  0  0
    3.3341    1.6830    1.3553 C   0  0  0  0  0  0  0  0  0  0  0  0
    1.9750    1.0291    1.6217 C   0  0  0  0  0  0  0  0  0  0  0  0
    1.1925    0.7202    0.3394 C   0  0  0  0  0  0  0  0  0  0  0  0
   -0.1807    0.1333    0.6802 C   0  0  0  0  0  0  0  0  0  0  0  0
   -1.0894   -0.1341   -0.5553 N   0  0  0  0  0  4  0  0  0  0  0  0
   -1.4989    1.1928   -1.1955 C   0  0  0  0  0  0  0  0  0  0  0  0
   -0.3722   -1.0085   -1.5761 C   0  0  0  0  0  0  0  0  0  0  0  0
   -2.3489   -0.8674   -0.0001 C   0  0  0  0  0  0  0  0  0  0  0  0
   -3.3921   -1.2515   -1.0602 C   0  0  0  0  0  0  0  0  0  0  0  0
   -4.6205   -1.8312   -0.4067 C   0  0  0  0  0  0  0  0  0  0  0  0
   -5.7109   -1.1806    0.0610 C   0  0  0  0  0  0  0  0  0  0  0  0
   -5.8486    0.2985    0.0146 C   0  0  0  0  0  0  0  0  0  0  0  0
   -5.7829    1.0196   -1.1863 C   0  0  0  0  0  0  0  0  0  0  0  0
   -5.9251    2.4097   -1.1884 C   0  0  0  0  0  0  0  0  0  0  0  0
   -6.1575    3.0894    0.0050 C   0  0  0  0  0  0  0  0  0  0  0  0
   -6.2777    2.3781    1.2005 C   0  0  0  0  0  0  0  0  0  0  0  0
   -6.1485    0.9836    1.2095 C   0  0  0  0  0  0  0  0  0  0  0  0
   -6.4164    0.1085    2.7523 S   0  0  0  0  0  0  0  0  0  0  0  0
   -7.0602   -1.4525    2.1369 C   0  0  0  0  0  0  0  0  0  0  0  0
   -7.9570   -2.1722    2.9364 C   0  0  0  0  0  0  0  0  0  0  0  0
   -8.4769   -3.3912    2.4893 C   0  0  0  0  0  0  0  0  0  0  0  0
   -8.1065   -3.8880    1.2422 C   0  0  0  0  0  0  0  0  0  0  0  0
   -8.7588   -5.3808    0.6881 Cl  0  0  0  0  0  0  0  0  0  0  0  0
   -7.2115   -3.1846    0.4355 C   0  0  0  0  0  0  0  0  0  0  0  0
   -6.6706   -1.9688    0.8823 C   0  0  0  0  0  0  0  0  0  0  0  0
    9.0702   -0.2799   -3.9108 H   0  0  0  0  0  0  0  0  0  0  0  0
    8.0564    0.8362   -2.9954 H   0  0  0  0  0  0  0  0  0  0  0  0
    9.8202    1.0346   -2.9898 H   0  0  0  0  0  0  0  0  0  0  0  0
    8.2355   -1.2806   -1.7493 H   0  0  0  0  0  0  0  0  0  0  0  0
    9.9842   -1.2751   -1.9103 H   0  0  0  0  0  0  0  0  0  0  0  0
    9.3727   -0.6129    0.3529 H   0  0  0  0  0  0  0  0  0  0  0  0
   10.2102    0.6886   -0.4781 H   0  0  0  0  0  0  0  0  0  0  0  0
    8.0612    1.8800   -0.8549 H   0  0  0  0  0  0  0  0  0  0  0  0
    8.4060    1.5963    0.8428 H   0  0  0  0  0  0  0  0  0  0  0  0
    6.8789   -0.4251    0.7881 H   0  0  0  0  0  0  0  0  0  0  0  0
    6.4490   -0.0171   -0.8741 H   0  0  0  0  0  0  0  0  0  0  0  0
    6.0541    1.8155    1.5486 H   0  0  0  0  0  0  0  0  0  0  0  0
    5.6272    2.2250   -0.1140 H   0  0  0  0  0  0  0  0  0  0  0  0
    4.0242    0.3296   -0.1964 H   0  0  0  0  0  0  0  0  0  0  0  0
    4.4698   -0.1513    1.4413 H   0  0  0  0  0  0  0  0  0  0  0  0
    3.7167    2.0752    2.3072 H   0  0  0  0  0  0  0  0  0  0  0  0
    3.2110    2.5437    0.6855 H   0  0  0  0  0  0  0  0  0  0  0  0
    1.3831    1.7114    2.2429 H   0  0  0  0  0  0  0  0  0  0  0  0
    2.1129    0.1104    2.2036 H   0  0  0  0  0  0  0  0  0  0  0  0
    1.0938    1.6436   -0.2400 H   0  0  0  0  0  0  0  0  0  0  0  0
    1.7640    0.0079   -0.2633 H   0  0  0  0  0  0  0  0  0  0  0  0
   -0.7400    0.8105    1.3381 H   0  0  0  0  0  0  0  0  0  0  0  0
   -0.0563   -0.8283    1.1948 H   0  0  0  0  0  0  0  0  0  0  0  0
   -2.1114    0.9872   -2.0760 H   0  0  0  0  0  0  0  0  0  0  0  0
   -0.6021    1.7276   -1.5167 H   0  0  0  0  0  0  0  0  0  0  0  0
   -2.0580    1.7770   -0.4594 H   0  0  0  0  0  0  0  0  0  0  0  0
   -0.0501   -1.9290   -1.0781 H   0  0  0  0  0  0  0  0  0  0  0  0
    0.4839   -0.4568   -1.9744 H   0  0  0  0  0  0  0  0  0  0  0  0
   -1.0568   -1.2293   -2.3986 H   0  0  0  0  0  0  0  0  0  0  0  0
   -1.9836   -1.7716    0.5056 H   0  0  0  0  0  0  0  0  0  0  0  0
   -2.7832   -0.1999    0.7560 H   0  0  0  0  0  0  0  0  0  0  0  0
   -3.6521   -0.4033   -1.6923 H   0  0  0  0  0  0  0  0  0  0  0  0
   -2.9895   -2.0158   -1.7349 H   0  0  0  0  0  0  0  0  0  0  0  0
   -4.5504   -2.9090   -0.2460 H   0  0  0  0  0  0  0  0  0  0  0  0
   -5.6630    0.5038   -2.1360 H   0  0  0  0  0  0  0  0  0  0  0  0
   -5.8873    2.9615   -2.1256 H   0  0  0  0  0  0  0  0  0  0  0  0
   -6.2885    4.1703    0.0029 H   0  0  0  0  0  0  0  0  0  0  0  0
   -6.5071    2.9185    2.1173 H   0  0  0  0  0  0  0  0  0  0  0  0
   -8.2649   -1.7897    3.9071 H   0  0  0  0  0  0  0  0  0  0  0  0
   -9.1791   -3.9395    3.1146 H   0  0  0  0  0  0  0  0  0  0  0  0
   -6.9483   -3.5825   -0.5417 H   0  0  0  0  0  0  0  0  0  0  0  0
  1  2  1  0
  2  3  1  0
  3  4  1  0
  4  5  1  0
  5  6  1  0
  6  7  1  0
  7  8  1  0
  8  9  1  0
  9 10  1  0
 10 11  1  0
 11 12  1  0
 12 13  1  0
 12 14  1  0
 12 15  1  0
 15 16  1  0
 16 17  1  0
 17 18  2  3
 18 19  1  0
 19 20  2  0
 20 21  1  0
 21 22  2  0
 22 23  1  0
 23 24  2  0
 24 25  1  0
 25 26  1  0
 26 27  2  0
 27 28  1  0
 28 29  2  0
 29 30  1  0
 29 31  1  0
 31 32  2  0
 32 18  1  0
 24 19  1  0
 32 26  1  0
  1 33  1  0
  1 34  1  0
  1 35  1  0
  2 36  1  0
  2 37  1  0
  3 38  1  0
  3 39  1  0
  4 40  1  0
  4 41  1  0
  5 42  1  0
  5 43  1  0
  6 44  1  0
  6 45  1  0
  7 46  1  0
  7 47  1  0
  8 48  1  0
  8 49  1  0
  9 50  1  0
  9 51  1  0
 10 52  1  0
 10 53  1  0
 11 54  1  0
 11 55  1  0
 13 56  1  0
 13 57  1  0
 13 58  1  0
 14 59  1  0
 14 60  1  0
 14 61  1  0
 15 62  1  0
 15 63  1  0
 16 64  1  0
 16 65  1  0
 17 66  1  0
 20 67  1  0
 21 68  1  0
 22 69  1  0
 23 70  1  0
 27 71  1  0
 28 72  1  0
 31 73  1  0
M  CHG  1  12   1
M  END
$$$$
