
     RDKit          3D

 51 53  0  0  0  0  0  0  0  0999 V2000
   -6.8861   -2.6261   -0.1134 C   0  0  0  0  0  0  0  0  0  0  0  0
   -5.6530   -3.2263   -0.4853 O   0  0  0  0  0  0  0  0  0  0  0  0
   -4.7212   -2.3020   -1.0424 C   0  0  0  0  0  0  0  0  0  0  0  0
   -3.9264   -1.6099    0.0584 C   0  0  0  0  0  0  0  0  0  0  0  0
   -2.8374   -0.7213   -0.5355 C   0  0  0  0  0  0  0  0  0  0  0  0
   -2.1012    0.0268    0.4639 N   0  0  0  0  0  0  0  0  0  0  0  0
   -1.0154   -0.4029    1.1833 C   0  0  0  0  0  0  0  0  0  0  0  0
   -0.4203   -2.0271    1.1682 S   0  0  0  0  0  0  0  0  0  0  0  0
    1.3112   -1.7401    1.6482 C   0  0  0  0  0  0  0  0  0  0  0  0
    2.0886   -0.9914    0.5824 C   0  0  0  0  0  0  0  0  0  0  0  0
    1.7144   -0.7406   -0.5576 O   0  0  0  0  0  0  0  0  0  0  0  0
    3.3246   -0.6742    1.0812 O   0  0  0  0  0  0  0  0  0  0  0  0
    4.2012    0.0446    0.1941 C   0  0  0  0  0  0  0  0  0  0  0  0
    5.2356    0.7716    1.0576 C   0  0  0  0  0  0  0  0  0  0  0  0
    6.2839    1.4791    0.2066 C   0  0  0  0  0  0  0  0  0  0  0  0
    6.9581    0.5202   -0.7701 C   0  0  0  0  0  0  0  0  0  0  0  0
    5.9374   -0.2266   -1.6230 C   0  0  0  0  0  0  0  0  0  0  0  0
    4.8921   -0.9308   -0.7646 C   0  0  0  0  0  0  0  0  0  0  0  0
   -0.5010    0.5955    1.8591 N   0  0  0  0  0  0  0  0  0  0  0  0
   -1.2526    1.7130    1.5823 N   0  0  0  0  0  0  0  0  0  0  0  0
   -2.2314    1.3643    0.7696 C   0  0  0  0  0  0  0  0  0  0  0  0
   -3.2011    2.2905    0.2635 C   0  0  0  0  0  0  0  0  0  0  0  0
   -2.9284    3.5227   -0.3036 C   0  0  0  0  0  0  0  0  0  0  0  0
   -4.1092    4.2188   -0.6985 C   0  0  0  0  0  0  0  0  0  0  0  0
   -5.2491    3.5052   -0.3965 C   0  0  0  0  0  0  0  0  0  0  0  0
   -4.8896    2.0112    0.3585 S   0  0  0  0  0  0  0  0  0  0  0  0
   -7.3925   -2.2283   -0.9967 H   0  0  0  0  0  0  0  0  0  0  0  0
   -6.7363   -1.8335    0.6228 H   0  0  0  0  0  0  0  0  0  0  0  0
   -7.5210   -3.3964    0.3315 H   0  0  0  0  0  0  0  0  0  0  0  0
   -5.2298   -1.5787   -1.6916 H   0  0  0  0  0  0  0  0  0  0  0  0
   -4.0394   -2.8804   -1.6735 H   0  0  0  0  0  0  0  0  0  0  0  0
   -4.5957   -1.0274    0.6963 H   0  0  0  0  0  0  0  0  0  0  0  0
   -3.4931   -2.3677    0.7213 H   0  0  0  0  0  0  0  0  0  0  0  0
   -2.1148   -1.3195   -1.1039 H   0  0  0  0  0  0  0  0  0  0  0  0
   -3.2618   -0.0099   -1.2530 H   0  0  0  0  0  0  0  0  0  0  0  0
    1.3471   -1.1878    2.5938 H   0  0  0  0  0  0  0  0  0  0  0  0
    1.7859   -2.7156    1.7910 H   0  0  0  0  0  0  0  0  0  0  0  0
    3.6323    0.7944   -0.3715 H   0  0  0  0  0  0  0  0  0  0  0  0
    4.7329    1.4944    1.7087 H   0  0  0  0  0  0  0  0  0  0  0  0
    5.7220    0.0558    1.7315 H   0  0  0  0  0  0  0  0  0  0  0  0
    7.0401    1.9344    0.8555 H   0  0  0  0  0  0  0  0  0  0  0  0
    5.8104    2.2948   -0.3533 H   0  0  0  0  0  0  0  0  0  0  0  0
    7.6449    1.0781   -1.4177 H   0  0  0  0  0  0  0  0  0  0  0  0
    7.5642   -0.2036   -0.2105 H   0  0  0  0  0  0  0  0  0  0  0  0
    5.4375    0.4805   -2.2973 H   0  0  0  0  0  0  0  0  0  0  0  0
    6.4516   -0.9596   -2.2542 H   0  0  0  0  0  0  0  0  0  0  0  0
    4.1520   -1.4156   -1.4117 H   0  0  0  0  0  0  0  0  0  0  0  0
    5.3599   -1.7420   -0.1911 H   0  0  0  0  0  0  0  0  0  0  0  0
   -1.9216    3.9014   -0.4364 H   0  0  0  0  0  0  0  0  0  0  0  0
   -4.1216    5.1943   -1.1734 H   0  0  0  0  0  0  0  0  0  0  0  0
   -6.2770    3.7935   -0.5736 H   0  0  0  0  0  0  0  0  0  0  0  0
  1  2  1  0
  2  3  1  0
  3  4  1  0
  4  5  1  0
  5  6  1  0
  6  7  1  0
  7  8  1  0
  8  9  1  0
  9 10  1  0
 10 11  2  0
 10 12  1  0
 12 13  1  0
 13 14  1  0
 14 15  1  0
 15 16  1  0
 16 17  1  0
 17 18  1  0
  7 19  2  0
 19 20  1  0
 20 21  2  0
 21 22  1  0
 22 23  2  0
 23 24  1  0
 24 25  2  0
 25 26  1  0
 21  6  1  0
 26 22  1  0
 18 13  1  0
  1 27  1  0
  1 28  1  0
  1 29  1  0
  3 30  1  0
  3 31  1  0
  4 32  1  0
  4 33  1  0
  5 34  1  0
  5 35  1  0
  9 36  1  0
  9 37  1  0
 13 38  1  0
 14 39  1  0
 14 40  1  0
 15 41  1  0
 15 42  1  0
 16 43  1  0
 16 44  1  0
 17 45  1  0
 17 46  1  0
 18 47  1  0
 18 48  1  0
 23 49  1  0
 24 50  1  0
 25 51  1  0
M  END
$$$$
