
     RDKit          3D

 37 38  0  0  0  0  0  0  0  0999 V2000
    5.0262   -0.8472    1.6245 C   0  0  0  0  0  0  0  0  0  0  0  0
    3.9369    0.0718    1.0662 C   0  0  0  0  0  0  0  0  0  0  0  0
    3.9309    1.3929    1.8402 C   0  0  0  0  0  0  0  0  0  0  0  0
    2.5721   -0.6384    1.1258 C   0  0  0  0  0  0  0  0  0  0  0  0
    1.5065    0.1007    0.3794 C   0  0  0  0  0  0  0  0  0  0  0  0
    1.5035    0.2991   -0.9228 N   0  0  0  0  0  0  0  0  0  0  0  0
    0.4078    1.0311   -1.3333 N   0  0  0  0  0  0  0  0  0  0  0  0
   -0.3923    1.3237   -0.3371 C   0  0  0  0  0  0  0  0  0  0  0  0
   -1.6469    2.0239   -0.4733 N   0  0  0  0  0  0  0  0  0  0  0  0
   -2.2263    2.2839   -2.0095 S   0  0  0  0  0  6  0  0  0  0  0  0
   -1.2951    3.1337   -2.7220 O   0  0  0  0  0  0  0  0  0  0  0  0
   -3.5933    2.7361   -1.8186 O   0  0  0  0  0  0  0  0  0  0  0  0
   -2.2889    0.6701   -2.8255 C   0  0  0  0  0  0  0  0  0  0  0  0
   -2.8484   -0.3898   -1.9075 C   0  0  0  0  0  0  0  0  0  0  0  0
   -4.1906   -0.3680   -1.5014 C   0  0  0  0  0  0  0  0  0  0  0  0
   -4.6891   -1.3511   -0.6452 C   0  0  0  0  0  0  0  0  0  0  0  0
   -3.8575   -2.3744   -0.1960 C   0  0  0  0  0  0  0  0  0  0  0  0
   -2.5284   -2.4212   -0.6090 C   0  0  0  0  0  0  0  0  0  0  0  0
   -2.0279   -1.4392   -1.4647 C   0  0  0  0  0  0  0  0  0  0  0  0
    0.1327    0.7481    1.1858 S   0  0  0  0  0  0  0  0  0  0  0  0
    4.8351   -1.0993    2.6732 H   0  0  0  0  0  0  0  0  0  0  0  0
    6.0089   -0.3674    1.5647 H   0  0  0  0  0  0  0  0  0  0  0  0
    5.0770   -1.7811    1.0547 H   0  0  0  0  0  0  0  0  0  0  0  0
    4.1873    0.2912    0.0201 H   0  0  0  0  0  0  0  0  0  0  0  0
    3.2251    2.1067    1.4041 H   0  0  0  0  0  0  0  0  0  0  0  0
    4.9218    1.8592    1.8178 H   0  0  0  0  0  0  0  0  0  0  0  0
    3.6549    1.2378    2.8888 H   0  0  0  0  0  0  0  0  0  0  0  0
    2.2805   -0.8024    2.1708 H   0  0  0  0  0  0  0  0  0  0  0  0
    2.6598   -1.6337    0.6710 H   0  0  0  0  0  0  0  0  0  0  0  0
   -2.3603    1.7776    0.2079 H   0  0  0  0  0  0  0  0  0  0  0  0
   -2.9250    0.7804   -3.7103 H   0  0  0  0  0  0  0  0  0  0  0  0
   -1.2808    0.4249   -3.1711 H   0  0  0  0  0  0  0  0  0  0  0  0
   -4.8651    0.4142   -1.8488 H   0  0  0  0  0  0  0  0  0  0  0  0
   -5.7311   -1.3221   -0.3353 H   0  0  0  0  0  0  0  0  0  0  0  0
   -4.2497   -3.1428    0.4655 H   0  0  0  0  0  0  0  0  0  0  0  0
   -1.8826   -3.2283   -0.2721 H   0  0  0  0  0  0  0  0  0  0  0  0
   -0.9876   -1.5008   -1.7839 H   0  0  0  0  0  0  0  0  0  0  0  0
  1  2  1  0
  2  3  1  0
  2  4  1  0
  4  5  1  0
  5  6  2  0
  6  7  1  0
  7  8  2  0
  8  9  1  0
  9 10  1  0
 10 11  2  0
 10 12  2  0
 10 13  1  0
 13 14  1  0
 14 15  2  0
 15 16  1  0
 16 17  2  0
 17 18  1  0
 18 19  2  0
  8 20  1  0
 20  5  1  0
 19 14  1  0
  1 21  1  0
  1 22  1  0
  1 23  1  0
  2 24  1  0
  3 25  1  0
  3 26  1  0
  3 27  1  0
  4 28  1  0
  4 29  1  0
  9 30  1  0
 13 31  1  0
 13 32  1  0
 15 33  1  0
 16 34  1  0
 17 35  1  0
 18 36  1  0
 19 37  1  0
M  END
$$$$
