
     RDKit          3D

 42 44  0  0  0  0  0  0  0  0999 V2000
   -5.2333   -0.0783   -1.9759 C   0  0  0  0  0  0  0  0  0  0  0  0
   -4.6622    0.7505   -0.8148 C   0  0  0  0  0  0  0  0  0  0  0  0
   -4.6892    2.2357   -1.2187 C   0  0  0  0  0  0  0  0  0  0  0  0
   -5.5330    0.5725    0.4387 C   0  0  0  0  0  0  0  0  0  0  0  0
   -3.2715    0.3794   -0.5420 N   0  0  0  0  0  0  0  0  0  0  0  0
   -2.8276   -0.8713   -0.1502 C   0  0  0  0  0  0  0  0  0  0  0  0
   -3.5627   -1.8393    0.0156 O   0  0  0  0  0  0  0  0  0  0  0  0
   -1.3614   -0.9102    0.0478 C   0  0  0  0  0  0  0  0  0  0  0  0
   -0.5743    0.2059   -0.1522 N   0  0  0  0  0  0  0  0  0  0  0  0
    0.6403   -0.2119    0.1181 C   0  0  0  0  0  0  0  0  0  0  0  0
    1.8089    0.4882    0.0832 N   0  0  0  0  0  0  0  0  0  0  0  0
    2.8947   -0.1526    0.4086 C   0  0  0  0  0  0  0  0  0  0  0  0
    4.1973    0.5745    0.3918 C   0  0  0  0  0  0  0  0  0  0  0  0
    4.3832    1.5906   -0.5550 C   0  0  0  0  0  0  0  0  0  0  0  0
    5.5871    2.2955   -0.6032 C   0  0  0  0  0  0  0  0  0  0  0  0
    6.6063    1.9964    0.2991 C   0  0  0  0  0  0  0  0  0  0  0  0
    6.4215    0.9989    1.2558 C   0  0  0  0  0  0  0  0  0  0  0  0
    5.2184    0.2900    1.3077 C   0  0  0  0  0  0  0  0  0  0  0  0
    2.9372   -1.6039    0.7817 C   0  0  0  0  0  0  0  0  0  0  0  0
    1.7567   -2.2529    0.8007 C   0  0  0  0  0  0  0  0  0  0  0  0
    1.6046   -3.6860    1.1386 C   0  0  0  0  0  0  0  0  0  0  0  0
    2.8099   -4.2506    1.4340 F   0  0  0  0  0  0  0  0  0  0  0  0
    0.8254   -3.8865    2.2284 F   0  0  0  0  0  0  0  0  0  0  0  0
    1.0947   -4.4141    0.1166 F   0  0  0  0  0  0  0  0  0  0  0  0
    0.5972   -1.5646    0.4755 N   0  0  0  0  0  0  0  0  0  0  0  0
   -0.6787   -2.0007    0.4287 N   0  0  0  0  0  0  0  0  0  0  0  0
   -4.6047    0.0115   -2.8694 H   0  0  0  0  0  0  0  0  0  0  0  0
   -6.2435    0.2544   -2.2401 H   0  0  0  0  0  0  0  0  0  0  0  0
   -5.2958   -1.1426   -1.7273 H   0  0  0  0  0  0  0  0  0  0  0  0
   -5.7084    2.5739   -1.4366 H   0  0  0  0  0  0  0  0  0  0  0  0
   -4.0776    2.4133   -2.1112 H   0  0  0  0  0  0  0  0  0  0  0  0
   -4.2881    2.8696   -0.4191 H   0  0  0  0  0  0  0  0  0  0  0  0
   -5.6015   -0.4767    0.7438 H   0  0  0  0  0  0  0  0  0  0  0  0
   -5.1211    1.1324    1.2862 H   0  0  0  0  0  0  0  0  0  0  0  0
   -6.5547    0.9286    0.2645 H   0  0  0  0  0  0  0  0  0  0  0  0
   -2.5418    1.0829   -0.6333 H   0  0  0  0  0  0  0  0  0  0  0  0
    3.5931    1.8386   -1.2612 H   0  0  0  0  0  0  0  0  0  0  0  0
    5.7266    3.0810   -1.3421 H   0  0  0  0  0  0  0  0  0  0  0  0
    7.5423    2.5492    0.2633 H   0  0  0  0  0  0  0  0  0  0  0  0
    7.2133    0.7807    1.9688 H   0  0  0  0  0  0  0  0  0  0  0  0
    5.0932   -0.4570    2.0859 H   0  0  0  0  0  0  0  0  0  0  0  0
    3.8792   -2.0951    0.9929 H   0  0  0  0  0  0  0  0  0  0  0  0
  1  2  1  0
  2  3  1  0
  2  4  1  0
  2  5  1  0
  5  6  1  0
  6  7  2  0
  6  8  1  0
  8  9  1  0
  9 10  2  0
 10 11  1  0
 11 12  2  0
 12 13  1  0
 13 14  2  0
 14 15  1  0
 15 16  2  0
 16 17  1  0
 17 18  2  0
 12 19  1  0
 19 20  2  0
 20 21  1  0
 21 22  1  0
 21 23  1  0
 21 24  1  0
 20 25  1  0
 25 26  1  0
 26  8  2  0
 25 10  1  0
 18 13  1  0
  1 27  1  0
  1 28  1  0
  1 29  1  0
  3 30  1  0
  3 31  1  0
  3 32  1  0
  4 33  1  0
  4 34  1  0
  4 35  1  0
  5 36  1  0
 14 37  1  0
 15 38  1  0
 16 39  1  0
 17 40  1  0
 18 41  1  0
 19 42  1  0
M  END
$$$$
