
     RDKit          3D

 46 48  0  0  0  0  0  0  0  0999 V2000
    5.6132   -1.1184   -2.1937 C   0  0  0  0  0  0  0  0  0  0  0  0
    4.4084   -1.9677   -1.8390 C   0  0  0  0  0  0  0  0  0  0  0  0
    3.5328   -1.1806   -1.0243 O   0  0  0  0  0  0  0  0  0  0  0  0
    2.3856   -1.8195   -0.6351 C   0  0  0  0  0  0  0  0  0  0  0  0
    2.1301   -2.9812   -0.9402 O   0  0  0  0  0  0  0  0  0  0  0  0
    1.5009   -0.9140    0.2381 C   0  0  0  0  0  0  0  0  0  0  0  0
    2.0676   -1.1252    1.6641 C   0  0  0  0  0  0  0  0  0  0  0  0
    1.3766   -0.3801    2.5722 F   0  0  0  0  0  0  0  0  0  0  0  0
    1.9883   -2.4104    2.0824 F   0  0  0  0  0  0  0  0  0  0  0  0
    3.3648   -0.7482    1.7749 F   0  0  0  0  0  0  0  0  0  0  0  0
    1.6348    0.4859   -0.2134 N   0  0  0  0  0  0  0  0  0  0  0  0
    0.6269    1.2253    0.0682 C   0  0  0  0  0  0  0  0  0  0  0  0
    0.6074    2.6852   -0.1542 C   0  0  0  0  0  0  0  0  0  0  0  0
   -0.4478    3.5071    0.2522 C   0  0  0  0  0  0  0  0  0  0  0  0
   -0.3858    4.8780    0.0046 C   0  0  0  0  0  0  0  0  0  0  0  0
    0.7312    5.3821   -0.6421 C   0  0  0  0  0  0  0  0  0  0  0  0
    1.7682    4.6191   -1.0474 N   0  0  0  0  0  0  0  0  0  0  0  0
    1.6850    3.2885   -0.7930 C   0  0  0  0  0  0  0  0  0  0  0  0
   -0.5420    0.7931    0.5696 O   0  0  0  0  0  0  0  0  0  0  0  0
   -0.7974   -0.5215    0.3906 C   0  0  0  0  0  0  0  0  0  0  0  0
   -2.1360   -0.8332    0.4863 N   0  0  0  0  0  0  0  0  0  0  0  0
   -3.1427    0.1310    0.9321 C   0  0  0  0  0  0  0  0  0  0  0  0
   -4.3224   -0.5709    1.5973 C   0  0  0  0  0  0  0  0  0  0  0  0
   -4.9974   -1.5704    0.6621 C   0  0  0  0  0  0  0  0  0  0  0  0
   -4.0245   -2.1774   -0.3456 C   0  0  0  0  0  0  0  0  0  0  0  0
   -2.5924   -2.1941    0.1792 C   0  0  0  0  0  0  0  0  0  0  0  0
    0.1130   -1.3851    0.1319 N   0  0  0  0  0  0  0  0  0  0  0  0
    5.3036   -0.2158   -2.7309 H   0  0  0  0  0  0  0  0  0  0  0  0
    6.3151   -1.6781   -2.8181 H   0  0  0  0  0  0  0  0  0  0  0  0
    6.1317   -0.7874   -1.2877 H   0  0  0  0  0  0  0  0  0  0  0  0
    4.7319   -2.8549   -1.2833 H   0  0  0  0  0  0  0  0  0  0  0  0
    3.8888   -2.2727   -2.7541 H   0  0  0  0  0  0  0  0  0  0  0  0
   -1.3157    3.1015    0.7632 H   0  0  0  0  0  0  0  0  0  0  0  0
   -1.1895    5.5389    0.3109 H   0  0  0  0  0  0  0  0  0  0  0  0
    0.8249    6.4433   -0.8564 H   0  0  0  0  0  0  0  0  0  0  0  0
    2.5412    2.7108   -1.1338 H   0  0  0  0  0  0  0  0  0  0  0  0
   -2.7148    0.8280    1.6620 H   0  0  0  0  0  0  0  0  0  0  0  0
   -3.4840    0.7211    0.0735 H   0  0  0  0  0  0  0  0  0  0  0  0
   -3.9655   -1.1025    2.4892 H   0  0  0  0  0  0  0  0  0  0  0  0
   -5.0564    0.1646    1.9456 H   0  0  0  0  0  0  0  0  0  0  0  0
   -5.4589   -2.3631    1.2630 H   0  0  0  0  0  0  0  0  0  0  0  0
   -5.8148   -1.0826    0.1175 H   0  0  0  0  0  0  0  0  0  0  0  0
   -4.0588   -1.5892   -1.2721 H   0  0  0  0  0  0  0  0  0  0  0  0
   -4.3469   -3.1915   -0.6073 H   0  0  0  0  0  0  0  0  0  0  0  0
   -2.5199   -2.8146    1.0803 H   0  0  0  0  0  0  0  0  0  0  0  0
   -1.9584   -2.6532   -0.5885 H   0  0  0  0  0  0  0  0  0  0  0  0
  1  2  1  0
  2  3  1  0
  3  4  1  0
  4  5  2  0
  4  6  1  0
  6  7  1  0
  7  8  1  0
  7  9  1  0
  7 10  1  0
  6 11  1  0
 11 12  2  0
 12 13  1  0
 13 14  2  0
 14 15  1  0
 15 16  2  0
 16 17  1  0
 17 18  2  0
 12 19  1  0
 19 20  1  0
 20 21  1  0
 21 22  1  0
 22 23  1  0
 23 24  1  0
 24 25  1  0
 25 26  1  0
 20 27  2  0
 27  6  1  0
 18 13  1  0
 26 21  1  0
  1 28  1  0
  1 29  1  0
  1 30  1  0
  2 31  1  0
  2 32  1  0
 14 33  1  0
 15 34  1  0
 16 35  1  0
 18 36  1  0
 22 37  1  0
 22 38  1  0
 23 39  1  0
 23 40  1  0
 24 41  1  0
 24 42  1  0
 25 43  1  0
 25 44  1  0
 26 45  1  0
 26 46  1  0
M  END
$$$$
