
     RDKit          3D

 46 48  0  0  0  0  0  0  0  0999 V2000
   -3.8893   -1.2308   -0.5773 C   0  0  0  0  0  0  0  0  0  0  0  0
   -3.6129   -0.0367    0.3004 C   0  0  0  0  0  0  0  0  0  0  0  0
   -4.5866    0.8192    0.6820 C   0  0  0  0  0  0  0  0  0  0  0  0
   -5.9968    0.7464    0.2881 C   0  0  0  0  0  0  0  0  0  0  0  0
   -6.4034    1.1762   -0.9801 C   0  0  0  0  0  0  0  0  0  0  0  0
   -7.7489    1.1084   -1.3454 C   0  0  0  0  0  0  0  0  0  0  0  0
   -8.6924    0.6128   -0.4459 C   0  0  0  0  0  0  0  0  0  0  0  0
   -8.2925    0.1851    0.8198 C   0  0  0  0  0  0  0  0  0  0  0  0
   -6.9473    0.2522    1.1876 C   0  0  0  0  0  0  0  0  0  0  0  0
   -2.2535    0.2163    0.7937 C   0  0  0  0  0  0  0  0  0  0  0  0
   -1.0724   -0.3693    0.5393 C   0  0  0  0  0  0  0  0  0  0  0  0
   -0.6786   -1.6776   -0.5106 S   0  0  0  0  0  0  0  0  0  0  0  0
    1.0395   -1.6199   -0.1352 C   0  0  0  0  0  0  0  0  0  0  0  0
    2.1613   -2.6635   -0.7886 S   0  0  0  0  0  0  0  0  0  0  0  0
    1.2495   -0.6143    0.7801 N   0  0  0  0  0  0  0  0  0  0  0  0
    2.6370   -0.2054    1.2501 N   0  0  0  0  0  0  0  0  0  0  0  0
    3.2904    1.0865    0.3343 S   0  0  0  0  0  6  0  0  0  0  0  0
    2.5375    1.1957   -0.8979 O   0  0  0  0  0  0  0  0  0  0  0  0
    3.4321    2.2022    1.2437 O   0  0  0  0  0  0  0  0  0  0  0  0
    4.9102    0.4701   -0.0350 C   0  0  0  0  0  0  0  0  0  0  0  0
    5.9398    0.6447    0.8938 C   0  0  0  0  0  0  0  0  0  0  0  0
    7.2225    0.1821    0.5950 C   0  0  0  0  0  0  0  0  0  0  0  0
    7.4811   -0.4557   -0.6256 C   0  0  0  0  0  0  0  0  0  0  0  0
    8.8679   -0.9228   -0.9591 C   0  0  0  0  0  0  0  0  0  0  0  0
    6.4454   -0.5971   -1.5592 C   0  0  0  0  0  0  0  0  0  0  0  0
    5.1609   -0.1339   -1.2685 C   0  0  0  0  0  0  0  0  0  0  0  0
    0.1651    0.1243    1.2149 C   0  0  0  0  0  0  0  0  0  0  0  0
    0.2080    1.0205    2.0473 O   0  0  0  0  0  0  0  0  0  0  0  0
   -4.9532   -1.3769   -0.7864 H   0  0  0  0  0  0  0  0  0  0  0  0
   -3.5550   -2.1534   -0.0915 H   0  0  0  0  0  0  0  0  0  0  0  0
   -3.3934   -1.1214   -1.5469 H   0  0  0  0  0  0  0  0  0  0  0  0
   -4.3721    1.6649    1.3333 H   0  0  0  0  0  0  0  0  0  0  0  0
   -5.6754    1.5649   -1.6884 H   0  0  0  0  0  0  0  0  0  0  0  0
   -8.0604    1.4422   -2.3314 H   0  0  0  0  0  0  0  0  0  0  0  0
   -9.7400    0.5604   -0.7311 H   0  0  0  0  0  0  0  0  0  0  0  0
   -9.0282   -0.2009    1.5208 H   0  0  0  0  0  0  0  0  0  0  0  0
   -6.6461   -0.0856    2.1763 H   0  0  0  0  0  0  0  0  0  0  0  0
   -2.2115    1.0532    1.4984 H   0  0  0  0  0  0  0  0  0  0  0  0
    2.6074    0.1207    2.2245 H   0  0  0  0  0  0  0  0  0  0  0  0
    5.7579    1.1440    1.8426 H   0  0  0  0  0  0  0  0  0  0  0  0
    8.0227    0.3249    1.3187 H   0  0  0  0  0  0  0  0  0  0  0  0
    8.8358   -1.8204   -1.5855 H   0  0  0  0  0  0  0  0  0  0  0  0
    9.4241   -1.1789   -0.0515 H   0  0  0  0  0  0  0  0  0  0  0  0
    9.4085   -0.1358   -1.4935 H   0  0  0  0  0  0  0  0  0  0  0  0
    6.6347   -1.0687   -2.5216 H   0  0  0  0  0  0  0  0  0  0  0  0
    4.3708   -0.2492   -2.0070 H   0  0  0  0  0  0  0  0  0  0  0  0
  1  2  1  0
  2  3  2  3
  3  4  1  0
  4  5  2  0
  5  6  1  0
  6  7  2  0
  7  8  1  0
  8  9  2  0
  2 10  1  0
 10 11  2  3
 11 12  1  0
 12 13  1  0
 13 14  2  0
 13 15  1  0
 15 16  1  0
 16 17  1  0
 17 18  2  0
 17 19  2  0
 17 20  1  0
 20 21  2  0
 21 22  1  0
 22 23  2  0
 23 24  1  0
 23 25  1  0
 25 26  2  0
 15 27  1  0
 27 28  2  0
  9  4  1  0
 27 11  1  0
 26 20  1  0
  1 29  1  0
  1 30  1  0
  1 31  1  0
  3 32  1  0
  5 33  1  0
  6 34  1  0
  7 35  1  0
  8 36  1  0
  9 37  1  0
 10 38  1  0
 16 39  1  0
 21 40  1  0
 22 41  1  0
 24 42  1  0
 24 43  1  0
 24 44  1  0
 25 45  1  0
 26 46  1  0
M  END
$$$$
