
     RDKit          3D

 42 43  0  0  0  0  0  0  0  0999 V2000
   -2.4943    0.9068    1.9805 C   0  0  0  0  0  0  0  0  0  0  0  0
   -1.0782    0.8657    1.4757 C   0  0  0  0  0  0  0  0  0  0  0  0
   -0.0723    1.4649    2.2565 C   0  0  0  0  0  0  0  0  0  0  0  0
    1.2613    1.4641    1.8427 C   0  0  0  0  0  0  0  0  0  0  0  0
    1.6048    0.8525    0.6386 C   0  0  0  0  0  0  0  0  0  0  0  0
    3.2950    0.8514    0.0866 S   0  0  0  0  0  6  0  0  0  0  0  0
    4.0774    1.6066    1.0479 O   0  0  0  0  0  0  0  0  0  0  0  0
    3.2712    1.2390   -1.3117 O   0  0  0  0  0  0  0  0  0  0  0  0
    3.8517   -0.8358    0.1821 C   0  0  0  0  0  0  0  0  0  0  0  0
    4.2096   -1.3665    1.4261 C   0  0  0  0  0  0  0  0  0  0  0  0
    4.6536   -2.6880    1.5057 C   0  0  0  0  0  0  0  0  0  0  0  0
    4.7433   -3.4620    0.3476 C   0  0  0  0  0  0  0  0  0  0  0  0
    5.2912   -5.0894    0.4508 Cl  0  0  0  0  0  0  0  0  0  0  0  0
    4.3970   -2.9257   -0.8937 C   0  0  0  0  0  0  0  0  0  0  0  0
    3.9530   -1.6045   -0.9817 C   0  0  0  0  0  0  0  0  0  0  0  0
    0.6294    0.2574   -0.1636 C   0  0  0  0  0  0  0  0  0  0  0  0
   -0.7105    0.2654    0.2541 C   0  0  0  0  0  0  0  0  0  0  0  0
   -1.9102   -0.5230   -0.8124 S   0  0  0  0  0  6  0  0  0  0  0  0
   -1.2206   -0.9783   -2.0028 O   0  0  0  0  0  0  0  0  0  0  0  0
   -2.6660   -1.4544   -0.0063 O   0  0  0  0  0  0  0  0  0  0  0  0
   -2.9246    0.7627   -1.3023 N   0  0  0  0  0  0  0  0  0  0  0  0
   -2.2565    1.8226   -2.0907 C   0  0  0  0  0  0  0  0  0  0  0  0
   -4.1666    0.2853   -1.9864 C   0  0  0  0  0  0  0  0  0  0  0  0
   -5.1449   -0.4521   -1.1023 C   0  0  0  0  0  0  0  0  0  0  0  0
   -5.8473   -1.3907   -1.4470 O   0  0  0  0  0  0  0  0  0  0  0  0
   -5.2702    0.0695    0.1362 O   0  0  0  0  0  0  0  0  0  0  0  0
   -3.1349    1.4592    1.2888 H   0  0  0  0  0  0  0  0  0  0  0  0
   -2.5569    1.4196    2.9470 H   0  0  0  0  0  0  0  0  0  0  0  0
   -2.8834   -0.1029    2.1349 H   0  0  0  0  0  0  0  0  0  0  0  0
   -0.3247    1.9448    3.2018 H   0  0  0  0  0  0  0  0  0  0  0  0
    2.0149    1.9443    2.4642 H   0  0  0  0  0  0  0  0  0  0  0  0
    4.1544   -0.7621    2.3291 H   0  0  0  0  0  0  0  0  0  0  0  0
    4.9333   -3.1072    2.4693 H   0  0  0  0  0  0  0  0  0  0  0  0
    4.4751   -3.5299   -1.7945 H   0  0  0  0  0  0  0  0  0  0  0  0
    3.6943   -1.1898   -1.9540 H   0  0  0  0  0  0  0  0  0  0  0  0
    0.9109   -0.2009   -1.1104 H   0  0  0  0  0  0  0  0  0  0  0  0
   -1.3878    2.2209   -1.5609 H   0  0  0  0  0  0  0  0  0  0  0  0
   -2.9458    2.6607   -2.2374 H   0  0  0  0  0  0  0  0  0  0  0  0
   -1.9487    1.4507   -3.0725 H   0  0  0  0  0  0  0  0  0  0  0  0
   -4.7110    1.1433   -2.3982 H   0  0  0  0  0  0  0  0  0  0  0  0
   -3.8920   -0.3644   -2.8257 H   0  0  0  0  0  0  0  0  0  0  0  0
   -5.8737   -0.5558    0.5886 H   0  0  0  0  0  0  0  0  0  0  0  0
  1  2  1  0
  2  3  2  0
  3  4  1  0
  4  5  2  0
  5  6  1  0
  6  7  2  0
  6  8  2  0
  6  9  1  0
  9 10  2  0
 10 11  1  0
 11 12  2  0
 12 13  1  0
 12 14  1  0
 14 15  2  0
  5 16  1  0
 16 17  2  0
 17 18  1  0
 18 19  2  0
 18 20  2  0
 18 21  1  0
 21 22  1  0
 21 23  1  0
 23 24  1  0
 24 25  2  0
 24 26  1  0
 17  2  1  0
 15  9  1  0
  1 27  1  0
  1 28  1  0
  1 29  1  0
  3 30  1  0
  4 31  1  0
 10 32  1  0
 11 33  1  0
 14 34  1  0
 15 35  1  0
 16 36  1  0
 22 37  1  0
 22 38  1  0
 22 39  1  0
 23 40  1  0
 23 41  1  0
 26 42  1  0
M  END
$$$$
