
     RDKit          3D

 39 42  0  0  0  0  0  0  0  0999 V2000
    0.3226   -3.3202   -0.5547 N   0  0  0  0  0  0  0  0  0  0  0  0
    0.3458   -2.8307    0.4983 C   0  0  0  0  0  0  0  0  0  0  0  0
    0.3305   -2.2063    1.8275 C   0  0  0  0  0  0  0  0  0  0  0  0
   -1.0962   -1.0950    2.0554 S   0  0  0  0  0  0  0  0  0  0  0  0
   -0.6861    0.1435    0.8707 C   0  0  0  0  0  0  0  0  0  0  0  0
    0.5547    0.5190    0.8741 N   0  0  0  0  0  0  0  0  0  0  0  0
    0.8841    1.5461    0.0512 C   0  0  0  0  0  0  0  0  0  0  0  0
    0.0146    2.2348   -0.6816 C   0  0  0  0  0  0  0  0  0  0  0  0
    0.7230    3.4989   -1.5923 S   0  0  0  0  0  0  0  0  0  0  0  0
    2.3307    3.0787   -0.9510 C   0  0  0  0  0  0  0  0  0  0  0  0
    3.7129    3.9055   -1.3747 S   0  0  0  0  0  0  0  0  0  0  0  0
    2.1868    1.9980   -0.0761 N   0  0  0  0  0  0  0  0  0  0  0  0
    3.2934    1.3196    0.6013 C   0  0  0  0  0  0  0  0  0  0  0  0
    3.7729    0.1792   -0.2275 C   0  0  0  0  0  0  0  0  0  0  0  0
    4.6922    0.0704   -1.2516 C   0  0  0  0  0  0  0  0  0  0  0  0
    4.6909   -1.2876   -1.6493 C   0  0  0  0  0  0  0  0  0  0  0  0
    3.7791   -1.9231   -0.8410 C   0  0  0  0  0  0  0  0  0  0  0  0
    3.2253   -1.0449    0.0343 O   0  0  0  0  0  0  0  0  0  0  0  0
   -1.4050    1.8618   -0.6799 C   0  0  0  0  0  0  0  0  0  0  0  0
   -2.2147    2.5090   -1.3406 O   0  0  0  0  0  0  0  0  0  0  0  0
   -1.6949    0.7252    0.0922 N   0  0  0  0  0  0  0  0  0  0  0  0
   -3.0269    0.1984    0.0134 C   0  0  0  0  0  0  0  0  0  0  0  0
   -3.2486   -1.1513   -0.3100 C   0  0  0  0  0  0  0  0  0  0  0  0
   -4.5484   -1.6565   -0.4022 C   0  0  0  0  0  0  0  0  0  0  0  0
   -5.6299   -0.8130   -0.1852 C   0  0  0  0  0  0  0  0  0  0  0  0
   -6.8746   -1.2984   -0.2744 F   0  0  0  0  0  0  0  0  0  0  0  0
   -5.4371    0.5293    0.1121 C   0  0  0  0  0  0  0  0  0  0  0  0
   -4.1382    1.0366    0.2036 C   0  0  0  0  0  0  0  0  0  0  0  0
    0.2517   -2.9884    2.5899 H   0  0  0  0  0  0  0  0  0  0  0  0
    1.2645   -1.6725    2.0260 H   0  0  0  0  0  0  0  0  0  0  0  0
    4.1151    2.0225    0.7715 H   0  0  0  0  0  0  0  0  0  0  0  0
    2.9693    0.9783    1.5913 H   0  0  0  0  0  0  0  0  0  0  0  0
    5.2837    0.8743   -1.6687 H   0  0  0  0  0  0  0  0  0  0  0  0
    5.2766   -1.7472   -2.4331 H   0  0  0  0  0  0  0  0  0  0  0  0
    3.4269   -2.9434   -0.7710 H   0  0  0  0  0  0  0  0  0  0  0  0
   -2.4211   -1.8205   -0.5343 H   0  0  0  0  0  0  0  0  0  0  0  0
   -4.7217   -2.6979   -0.6556 H   0  0  0  0  0  0  0  0  0  0  0  0
   -6.2958    1.1757    0.2644 H   0  0  0  0  0  0  0  0  0  0  0  0
   -4.0081    2.0921    0.4344 H   0  0  0  0  0  0  0  0  0  0  0  0
  1  2  3  0
  2  3  1  0
  3  4  1  0
  4  5  1  0
  5  6  2  0
  6  7  1  0
  7  8  2  0
  8  9  1  0
  9 10  1  0
 10 11  2  0
 10 12  1  0
 12 13  1  0
 13 14  1  0
 14 15  2  0
 15 16  1  0
 16 17  2  0
 17 18  1  0
  8 19  1  0
 19 20  2  0
 19 21  1  0
 21 22  1  0
 22 23  2  0
 23 24  1  0
 24 25  2  0
 25 26  1  0
 25 27  1  0
 27 28  2  0
 21  5  1  0
 28 22  1  0
 12  7  1  0
 18 14  1  0
  3 29  1  0
  3 30  1  0
 13 31  1  0
 13 32  1  0
 15 33  1  0
 16 34  1  0
 17 35  1  0
 23 36  1  0
 24 37  1  0
 27 38  1  0
 28 39  1  0
M  END
$$$$
