
     RDKit          3D

 43 45  0  0  0  0  0  0  0  0999 V2000
   -6.8148    2.1962    1.6224 C   0  0  0  0  0  0  0  0  0  0  0  0
   -5.5768    1.6172    0.9572 C   0  0  0  0  0  0  0  0  0  0  0  0
   -4.7980    0.7170    1.9130 C   0  0  0  0  0  0  0  0  0  0  0  0
   -3.6407    0.0605    1.2210 C   0  0  0  0  0  0  0  0  0  0  0  0
   -2.7522    0.7005    0.5265 N   0  0  0  0  0  0  0  0  0  0  0  0
   -1.8272   -0.2001    0.0533 N   0  0  0  0  0  0  0  0  0  0  0  0
   -0.7293    0.1956   -0.6754 C   0  0  0  0  0  0  0  0  0  0  0  0
   -0.4074    1.3427   -0.9620 O   0  0  0  0  0  0  0  0  0  0  0  0
    0.1515   -0.9242   -1.0764 C   0  0  0  0  0  0  0  0  0  0  0  0
   -0.0932   -2.1629   -0.6178 C   0  0  0  0  0  0  0  0  0  0  0  0
    0.8487   -3.3031   -0.9505 C   0  0  0  0  0  0  0  0  0  0  0  0
    1.6401   -4.0123    0.5379 S   0  0  0  0  0  0  0  0  0  0  0  0
    2.5131   -2.5617    1.2141 C   0  0  0  0  0  0  0  0  0  0  0  0
    3.3992   -1.8675    0.1855 C   0  0  0  0  0  0  0  0  0  0  0  0
    4.1742   -2.4948   -0.5297 O   0  0  0  0  0  0  0  0  0  0  0  0
    3.2016   -0.4924    0.1517 N   0  0  0  0  0  0  0  0  0  0  0  0
    3.8135    0.4400   -0.7131 C   0  0  0  0  0  0  0  0  0  0  0  0
    4.8494    0.1255   -1.5953 C   0  0  0  0  0  0  0  0  0  0  0  0
    5.3923    1.1091   -2.4285 C   0  0  0  0  0  0  0  0  0  0  0  0
    4.8973    2.4046   -2.3797 C   0  0  0  0  0  0  0  0  0  0  0  0
    5.4156    3.3436   -3.1811 F   0  0  0  0  0  0  0  0  0  0  0  0
    3.8719    2.7387   -1.5082 C   0  0  0  0  0  0  0  0  0  0  0  0
    3.3317    1.7570   -0.6736 C   0  0  0  0  0  0  0  0  0  0  0  0
   -1.1952   -2.4802    0.1516 N   0  0  0  0  0  0  0  0  0  0  0  0
   -1.9904   -1.5047    0.4341 C   0  0  0  0  0  0  0  0  0  0  0  0
   -3.4292   -1.6658    1.3861 S   0  0  0  0  0  0  0  0  0  0  0  0
   -6.5484    2.7846    2.5063 H   0  0  0  0  0  0  0  0  0  0  0  0
   -7.5008    1.4014    1.9321 H   0  0  0  0  0  0  0  0  0  0  0  0
   -7.3472    2.8509    0.9268 H   0  0  0  0  0  0  0  0  0  0  0  0
   -5.8719    1.0530    0.0639 H   0  0  0  0  0  0  0  0  0  0  0  0
   -4.9375    2.4396    0.6143 H   0  0  0  0  0  0  0  0  0  0  0  0
   -4.4002    1.3090    2.7444 H   0  0  0  0  0  0  0  0  0  0  0  0
   -5.4625   -0.0429    2.3382 H   0  0  0  0  0  0  0  0  0  0  0  0
    0.9992   -0.6739   -1.7024 H   0  0  0  0  0  0  0  0  0  0  0  0
    0.2798   -4.1053   -1.4353 H   0  0  0  0  0  0  0  0  0  0  0  0
    1.6253   -3.0029   -1.6615 H   0  0  0  0  0  0  0  0  0  0  0  0
    3.1581   -2.8970    2.0337 H   0  0  0  0  0  0  0  0  0  0  0  0
    1.7757   -1.8770    1.6428 H   0  0  0  0  0  0  0  0  0  0  0  0
    2.5087   -0.1055    0.7801 H   0  0  0  0  0  0  0  0  0  0  0  0
    5.2687   -0.8731   -1.6561 H   0  0  0  0  0  0  0  0  0  0  0  0
    6.1982    0.8672   -3.1123 H   0  0  0  0  0  0  0  0  0  0  0  0
    3.4920    3.7551   -1.4885 H   0  0  0  0  0  0  0  0  0  0  0  0
    2.5171    2.0385   -0.0115 H   0  0  0  0  0  0  0  0  0  0  0  0
  1  2  1  0
  2  3  1  0
  3  4  1  0
  4  5  2  0
  5  6  1  0
  6  7  1  0
  7  8  2  0
  7  9  1  0
  9 10  2  0
 10 11  1  0
 11 12  1  0
 12 13  1  0
 13 14  1  0
 14 15  2  0
 14 16  1  0
 16 17  1  0
 17 18  2  0
 18 19  1  0
 19 20  2  0
 20 21  1  0
 20 22  1  0
 22 23  2  0
 10 24  1  0
 24 25  2  0
 25 26  1  0
 26  4  1  0
 25  6  1  0
 23 17  1  0
  1 27  1  0
  1 28  1  0
  1 29  1  0
  2 30  1  0
  2 31  1  0
  3 32  1  0
  3 33  1  0
  9 34  1  0
 11 35  1  0
 11 36  1  0
 13 37  1  0
 13 38  1  0
 16 39  1  0
 18 40  1  0
 19 41  1  0
 22 42  1  0
 23 43  1  0
M  END
$$$$
