
     RDKit          3D

 53 56  0  0  0  0  0  0  0  0999 V2000
   -8.7424    0.1649    1.5411 C   0  0  0  0  0  0  0  0  0  0  0  0
   -8.1579   -0.3707    0.3610 O   0  0  0  0  0  0  0  0  0  0  0  0
   -6.9823    0.3470   -0.0163 C   0  0  0  0  0  0  0  0  0  0  0  0
   -6.4114   -0.2822   -1.2900 C   0  0  0  0  0  0  0  0  0  0  0  0
   -5.8948   -1.7074   -1.0663 C   0  0  0  0  0  0  0  0  0  0  0  0
   -4.4864   -1.5015   -0.5185 C   0  0  0  0  0  0  0  0  0  0  0  0
   -4.0594   -0.2229   -1.0721 N   0  0  0  0  0  0  0  0  0  0  0  0
   -2.7833    0.3282   -1.0830 C   0  0  0  0  0  0  0  0  0  0  0  0
   -2.5671    1.3709   -1.7065 O   0  0  0  0  0  0  0  0  0  0  0  0
   -1.6853   -0.3237   -0.3492 C   0  0  0  0  0  0  0  0  0  0  0  0
   -0.3152    0.0549   -0.4123 C   0  0  0  0  0  0  0  0  0  0  0  0
    0.3352   -0.8032    0.4392 C   0  0  0  0  0  0  0  0  0  0  0  0
    1.7397   -1.0060    0.8632 C   0  0  0  0  0  0  0  0  0  0  0  0
    2.5211    0.0213    0.2574 O   0  0  0  0  0  0  0  0  0  0  0  0
    3.8857   -0.0275    0.4222 C   0  0  0  0  0  0  0  0  0  0  0  0
    4.5371   -0.9364    1.2583 C   0  0  0  0  0  0  0  0  0  0  0  0
    5.9284   -0.9244    1.3708 C   0  0  0  0  0  0  0  0  0  0  0  0
    6.6915   -0.0029    0.6511 C   0  0  0  0  0  0  0  0  0  0  0  0
    8.0637    0.0668    0.7104 O   0  0  0  0  0  0  0  0  0  0  0  0
    8.7434   -0.8892    1.5130 C   0  0  0  0  0  0  0  0  0  0  0  0
    6.0523    0.9354   -0.1970 C   0  0  0  0  0  0  0  0  0  0  0  0
    6.7808    1.8914   -0.9416 C   0  0  0  0  0  0  0  0  0  0  0  0
    6.1478    2.8136   -1.7753 C   0  0  0  0  0  0  0  0  0  0  0  0
    4.7660    2.8034   -1.8857 C   0  0  0  0  0  0  0  0  0  0  0  0
    4.0219    1.8707   -1.1630 C   0  0  0  0  0  0  0  0  0  0  0  0
    4.6369    0.9243   -0.3113 C   0  0  0  0  0  0  0  0  0  0  0  0
   -0.5773   -1.6457    0.9900 O   0  0  0  0  0  0  0  0  0  0  0  0
   -1.8350   -1.3472    0.5092 N   0  0  0  0  0  0  0  0  0  0  0  0
   -5.1540    0.4457   -1.7554 C   0  0  0  0  0  0  0  0  0  0  0  0
   -9.0348    1.2076    1.3843 H   0  0  0  0  0  0  0  0  0  0  0  0
   -8.0449    0.0905    2.3809 H   0  0  0  0  0  0  0  0  0  0  0  0
   -9.6365   -0.4179    1.7773 H   0  0  0  0  0  0  0  0  0  0  0  0
   -6.2579    0.3194    0.8059 H   0  0  0  0  0  0  0  0  0  0  0  0
   -7.2493    1.3929   -0.2085 H   0  0  0  0  0  0  0  0  0  0  0  0
   -7.1882   -0.2762   -2.0632 H   0  0  0  0  0  0  0  0  0  0  0  0
   -5.8357   -2.2244   -2.0327 H   0  0  0  0  0  0  0  0  0  0  0  0
   -6.5168   -2.3140   -0.4022 H   0  0  0  0  0  0  0  0  0  0  0  0
   -4.4969   -1.4194    0.5730 H   0  0  0  0  0  0  0  0  0  0  0  0
   -3.8152   -2.3080   -0.8269 H   0  0  0  0  0  0  0  0  0  0  0  0
    0.1206    0.8473   -1.0039 H   0  0  0  0  0  0  0  0  0  0  0  0
    1.8016   -0.9334    1.9551 H   0  0  0  0  0  0  0  0  0  0  0  0
    2.0732   -1.9940    0.5244 H   0  0  0  0  0  0  0  0  0  0  0  0
    3.9959   -1.6699    1.8460 H   0  0  0  0  0  0  0  0  0  0  0  0
    6.3855   -1.6504    2.0352 H   0  0  0  0  0  0  0  0  0  0  0  0
    9.8171   -0.7014    1.4176 H   0  0  0  0  0  0  0  0  0  0  0  0
    8.4791   -0.7758    2.5695 H   0  0  0  0  0  0  0  0  0  0  0  0
    8.5528   -1.9088    1.1626 H   0  0  0  0  0  0  0  0  0  0  0  0
    7.8670    1.9214   -0.8726 H   0  0  0  0  0  0  0  0  0  0  0  0
    6.7372    3.5355   -2.3338 H   0  0  0  0  0  0  0  0  0  0  0  0
    4.2626    3.5175   -2.5315 H   0  0  0  0  0  0  0  0  0  0  0  0
    2.9388    1.8863   -1.2689 H   0  0  0  0  0  0  0  0  0  0  0  0
   -5.1562    1.5188   -1.5386 H   0  0  0  0  0  0  0  0  0  0  0  0
   -4.9989    0.3087   -2.8323 H   0  0  0  0  0  0  0  0  0  0  0  0
  1  2  1  0
  2  3  1  0
  3  4  1  0
  4  5  1  0
  5  6  1  0
  6  7  1  0
  7  8  1  0
  8  9  2  0
  8 10  1  0
 10 11  1  0
 11 12  2  0
 12 13  1  0
 13 14  1  0
 14 15  1  0
 15 16  2  0
 16 17  1  0
 17 18  2  0
 18 19  1  0
 19 20  1  0
 18 21  1  0
 21 22  2  0
 22 23  1  0
 23 24  2  0
 24 25  1  0
 25 26  2  0
 12 27  1  0
 27 28  1  0
  7 29  1  0
 29  4  1  0
 28 10  2  0
 26 15  1  0
 26 21  1  0
  1 30  1  0
  1 31  1  0
  1 32  1  0
  3 33  1  0
  3 34  1  0
  4 35  1  0
  5 36  1  0
  5 37  1  0
  6 38  1  0
  6 39  1  0
 11 40  1  0
 13 41  1  0
 13 42  1  0
 16 43  1  0
 17 44  1  0
 20 45  1  0
 20 46  1  0
 20 47  1  0
 22 48  1  0
 23 49  1  0
 24 50  1  0
 25 51  1  0
 29 52  1  0
 29 53  1  0
M  END
$$$$
