
     RDKit          3D

 53 56  0  0  0  0  0  0  0  0999 V2000
    4.1321   -1.8153    2.4304 C   0  0  0  0  0  0  0  0  0  0  0  0
    4.3325   -0.7963    1.3874 N   0  0  0  0  0  0  0  0  0  0  0  0
    5.4633    0.0527    1.5080 C   0  0  0  0  0  0  0  0  0  0  0  0
    6.4699   -0.1338    2.4706 C   0  0  0  0  0  0  0  0  0  0  0  0
    7.5799    0.7176    2.5477 C   0  0  0  0  0  0  0  0  0  0  0  0
    7.7176    1.7726    1.6532 C   0  0  0  0  0  0  0  0  0  0  0  0
    6.7491    1.9723    0.6775 C   0  0  0  0  0  0  0  0  0  0  0  0
    5.6420    1.1197    0.6053 C   0  0  0  0  0  0  0  0  0  0  0  0
    3.0902   -0.3857    0.8380 C   0  0  0  0  0  0  0  0  0  0  0  0
    2.3720    0.6673    1.4282 C   0  0  0  0  0  0  0  0  0  0  0  0
    1.1468    1.0928    0.8997 C   0  0  0  0  0  0  0  0  0  0  0  0
    0.6093    0.4757   -0.2363 C   0  0  0  0  0  0  0  0  0  0  0  0
   -0.6763    0.9138   -0.7889 C   0  0  0  0  0  0  0  0  0  0  0  0
   -1.8846    0.6405   -0.2530 C   0  0  0  0  0  0  0  0  0  0  0  0
   -2.0148   -0.0990    0.9624 C   0  0  0  0  0  0  0  0  0  0  0  0
   -2.1541   -0.7251    1.9297 N   0  0  0  0  0  0  0  0  0  0  0  0
   -3.0272    1.1833   -0.9118 C   0  0  0  0  0  0  0  0  0  0  0  0
   -3.1540    2.3698   -1.4755 N   0  0  0  0  0  0  0  0  0  0  0  0
   -4.4317    2.5033   -1.9358 N   0  0  0  0  0  0  0  0  0  0  0  0
   -5.0838    1.3898   -1.6800 C   0  0  0  0  0  0  0  0  0  0  0  0
   -4.2193    0.4962   -1.0847 N   0  0  0  0  0  0  0  0  0  0  0  0
   -4.4945   -0.8896   -0.7472 C   0  0  0  0  0  0  0  0  0  0  0  0
   -5.5380   -1.5867   -1.6159 C   0  0  0  0  0  0  0  0  0  0  0  0
   -6.9778   -1.2288   -1.2519 C   0  0  0  0  0  0  0  0  0  0  0  0
   -7.2421    0.2580   -1.0196 C   0  0  0  0  0  0  0  0  0  0  0  0
   -6.5204    1.1606   -2.0115 C   0  0  0  0  0  0  0  0  0  0  0  0
    1.3083   -0.5651   -0.8493 C   0  0  0  0  0  0  0  0  0  0  0  0
    2.5297   -0.9839   -0.3009 C   0  0  0  0  0  0  0  0  0  0  0  0
    3.2284   -2.0559   -0.9773 N   0  0  0  0  0  4  0  0  0  0  0  0
    3.6421   -1.8193   -2.1213 O   0  0  0  0  0  0  0  0  0  0  0  0
    3.2911   -3.1496   -0.3980 O   0  0  0  0  0  1  0  0  0  0  0  0
    3.2477   -2.4361    2.2399 H   0  0  0  0  0  0  0  0  0  0  0  0
    3.9984   -1.3521    3.4155 H   0  0  0  0  0  0  0  0  0  0  0  0
    4.9819   -2.5064    2.4657 H   0  0  0  0  0  0  0  0  0  0  0  0
    6.4220   -0.9447    3.1904 H   0  0  0  0  0  0  0  0  0  0  0  0
    8.3391    0.5478    3.3073 H   0  0  0  0  0  0  0  0  0  0  0  0
    8.5807    2.4300    1.7104 H   0  0  0  0  0  0  0  0  0  0  0  0
    6.8532    2.7849   -0.0365 H   0  0  0  0  0  0  0  0  0  0  0  0
    4.9186    1.2969   -0.1871 H   0  0  0  0  0  0  0  0  0  0  0  0
    2.7717    1.1667    2.3094 H   0  0  0  0  0  0  0  0  0  0  0  0
    0.6234    1.9158    1.3845 H   0  0  0  0  0  0  0  0  0  0  0  0
   -0.5968    1.5009   -1.7048 H   0  0  0  0  0  0  0  0  0  0  0  0
   -4.7782   -0.9170    0.3104 H   0  0  0  0  0  0  0  0  0  0  0  0
   -3.5557   -1.4400   -0.8728 H   0  0  0  0  0  0  0  0  0  0  0  0
   -5.3536   -1.3702   -2.6755 H   0  0  0  0  0  0  0  0  0  0  0  0
   -5.4253   -2.6722   -1.5029 H   0  0  0  0  0  0  0  0  0  0  0  0
   -7.2729   -1.7775   -0.3490 H   0  0  0  0  0  0  0  0  0  0  0  0
   -7.6335   -1.5911   -2.0536 H   0  0  0  0  0  0  0  0  0  0  0  0
   -8.3234    0.4243   -1.1018 H   0  0  0  0  0  0  0  0  0  0  0  0
   -6.9699    0.5269    0.0089 H   0  0  0  0  0  0  0  0  0  0  0  0
   -7.0205    2.1375   -2.0076 H   0  0  0  0  0  0  0  0  0  0  0  0
   -6.6087    0.7713   -3.0323 H   0  0  0  0  0  0  0  0  0  0  0  0
    0.9160   -1.0479   -1.7422 H   0  0  0  0  0  0  0  0  0  0  0  0
  1  2  1  0
  2  3  1  0
  3  4  2  0
  4  5  1  0
  5  6  2  0
  6  7  1  0
  7  8  2  0
  2  9  1  0
  9 10  2  0
 10 11  1  0
 11 12  2  0
 12 13  1  0
 13 14  2  3
 14 15  1  0
 15 16  3  0
 14 17  1  0
 17 18  2  0
 18 19  1  0
 19 20  2  0
 20 21  1  0
 21 22  1  0
 22 23  1  0
 23 24  1  0
 24 25  1  0
 25 26  1  0
 12 27  1  0
 27 28  2  0
 28 29  1  0
 29 30  2  0
 29 31  1  0
  8  3  1  0
 28  9  1  0
 21 17  1  0
 26 20  1  0
  1 32  1  0
  1 33  1  0
  1 34  1  0
  4 35  1  0
  5 36  1  0
  6 37  1  0
  7 38  1  0
  8 39  1  0
 10 40  1  0
 11 41  1  0
 13 42  1  0
 22 43  1  0
 22 44  1  0
 23 45  1  0
 23 46  1  0
 24 47  1  0
 24 48  1  0
 25 49  1  0
 25 50  1  0
 26 51  1  0
 26 52  1  0
 27 53  1  0
M  CHG  2  29   1  31  -1
M  END
$$$$
