
     RDKit          3D

 29 31  0  0  0  0  0  0  0  0999 V2000
   -1.5537   -0.6282   -3.9783 O   0  0  0  0  0  0  0  0  0  0  0  0
   -2.3964   -0.1392   -3.2436 C   0  0  0  0  0  0  0  0  0  0  0  0
   -3.5153    0.5116   -3.6799 N   0  0  0  0  0  0  0  0  0  0  0  0
   -4.3724    1.0053   -2.7466 C   0  0  0  0  0  0  0  0  0  0  0  0
   -5.7707    1.8097   -3.1154 S   0  0  0  0  0  0  0  0  0  0  0  0
   -3.7631    0.6568   -1.1470 S   0  0  0  0  0  0  0  0  0  0  0  0
   -2.3693   -0.1577   -1.7524 C   0  0  0  0  0  0  0  0  0  0  0  0
   -1.3454   -0.7323   -1.1106 C   0  0  0  0  0  0  0  0  0  0  0  0
   -1.1404   -0.8292    0.2948 C   0  0  0  0  0  0  0  0  0  0  0  0
   -1.9686   -0.6582    1.3975 C   0  0  0  0  0  0  0  0  0  0  0  0
   -1.2008   -0.8853    2.5667 C   0  0  0  0  0  0  0  0  0  0  0  0
    0.0695   -1.1959    2.1451 C   0  0  0  0  0  0  0  0  0  0  0  0
    1.4575   -1.5751    3.1268 S   0  0  0  0  0  0  0  0  0  0  0  0
    2.8032   -1.4519    1.9119 C   0  0  0  0  0  0  0  0  0  0  0  0
    3.1054   -0.0475    1.5327 C   0  0  0  0  0  0  0  0  0  0  0  0
    3.4509    1.0841    2.2451 C   0  0  0  0  0  0  0  0  0  0  0  0
    3.6247    2.1195    1.2951 C   0  0  0  0  0  0  0  0  0  0  0  0
    3.3845    1.5551    0.0654 C   0  0  0  0  0  0  0  0  0  0  0  0
    3.0750    0.2405    0.1981 O   0  0  0  0  0  0  0  0  0  0  0  0
    0.0989   -1.1848    0.7863 O   0  0  0  0  0  0  0  0  0  0  0  0
   -3.6894    0.6116   -4.6687 H   0  0  0  0  0  0  0  0  0  0  0  0
   -0.5423   -1.1619   -1.7095 H   0  0  0  0  0  0  0  0  0  0  0  0
   -3.0175   -0.4017    1.3830 H   0  0  0  0  0  0  0  0  0  0  0  0
   -1.5354   -0.8263    3.5925 H   0  0  0  0  0  0  0  0  0  0  0  0
    3.6978   -1.8907    2.3676 H   0  0  0  0  0  0  0  0  0  0  0  0
    2.5681   -2.0614    1.0327 H   0  0  0  0  0  0  0  0  0  0  0  0
    3.5582    1.1518    3.3191 H   0  0  0  0  0  0  0  0  0  0  0  0
    3.8935    3.1491    1.4822 H   0  0  0  0  0  0  0  0  0  0  0  0
    3.3934    1.9323   -0.9479 H   0  0  0  0  0  0  0  0  0  0  0  0
  1  2  2  0
  2  3  1  0
  3  4  1  0
  4  5  2  0
  4  6  1  0
  6  7  1  0
  7  8  2  3
  8  9  1  0
  9 10  2  0
 10 11  1  0
 11 12  2  0
 12 13  1  0
 13 14  1  0
 14 15  1  0
 15 16  2  0
 16 17  1  0
 17 18  2  0
 18 19  1  0
 12 20  1  0
  7  2  1  0
 20  9  1  0
 19 15  1  0
  3 21  1  0
  8 22  1  0
 10 23  1  0
 11 24  1  0
 14 25  1  0
 14 26  1  0
 16 27  1  0
 17 28  1  0
 18 29  1  0
M  END
$$$$
