
     RDKit          3D

 63 64  0  0  0  0  0  0  0  0999 V2000
   -4.3711   -1.7325   -3.6171 C   0  0  0  0  0  0  0  0  0  0  0  0
   -3.3118   -2.1560   -2.5920 C   0  0  0  0  0  0  0  0  0  0  0  0
   -2.6592   -3.4653   -3.0369 C   0  0  0  0  0  0  0  0  0  0  0  0
   -2.2849   -1.0202   -2.4052 C   0  0  0  0  0  0  0  0  0  0  0  0
   -1.1965   -1.2694   -1.3429 C   0  0  0  0  0  0  0  0  0  0  0  0
   -0.1895   -0.2044   -1.4073 N   0  0  0  0  0  0  0  0  0  0  0  0
    0.8151   -0.2231   -2.3382 C   0  0  0  0  0  0  0  0  0  0  0  0
    0.9103   -1.1314   -3.1614 O   0  0  0  0  0  0  0  0  0  0  0  0
    1.7680    0.8573   -2.3309 C   0  0  0  0  0  0  0  0  0  0  0  0
    2.7034    0.9666   -3.3391 N   0  0  0  0  0  0  0  0  0  0  0  0
    3.4969    2.0407   -3.0887 C   0  0  0  0  0  0  0  0  0  0  0  0
    3.1485    2.6334   -1.9728 N   0  0  0  0  0  0  0  0  0  0  0  0
    2.0725    1.9077   -1.4700 C   0  0  0  0  0  0  0  0  0  0  0  0
    1.3803    2.2685   -0.2277 C   0  0  0  0  0  0  0  0  0  0  0  0
    0.1535    2.1663   -0.1619 O   0  0  0  0  0  0  0  0  0  0  0  0
    2.1387    2.7280    0.8572 N   0  0  0  0  0  0  0  0  0  0  0  0
    1.4053    3.1423    2.0380 C   0  0  0  0  0  0  0  0  0  0  0  0
    3.5551    2.4042    1.0423 C   0  0  0  0  0  0  0  0  0  0  0  0
    3.7685    1.0330    1.6457 C   0  0  0  0  0  0  0  0  0  0  0  0
    3.9562   -0.0846    0.8210 C   0  0  0  0  0  0  0  0  0  0  0  0
    4.1342   -1.3544    1.3734 C   0  0  0  0  0  0  0  0  0  0  0  0
    4.1338   -1.5205    2.7570 C   0  0  0  0  0  0  0  0  0  0  0  0
    3.9556   -0.4173    3.5893 C   0  0  0  0  0  0  0  0  0  0  0  0
    3.7718    0.8529    3.0380 C   0  0  0  0  0  0  0  0  0  0  0  0
   -1.8350   -1.3596    0.0520 C   0  0  0  0  0  0  0  0  0  0  0  0
   -2.3678   -2.3743    0.4850 O   0  0  0  0  0  0  0  0  0  0  0  0
   -1.8216   -0.1519    0.6800 O   0  0  0  0  0  0  0  0  0  0  0  0
   -2.4805    0.0283    1.9596 C   0  0  0  0  0  0  0  0  0  0  0  0
   -1.7999   -0.8039    3.0518 C   0  0  0  0  0  0  0  0  0  0  0  0
   -2.3018    1.5175    2.2883 C   0  0  0  0  0  0  0  0  0  0  0  0
   -3.9820   -0.2668    1.8640 C   0  0  0  0  0  0  0  0  0  0  0  0
   -5.1341   -2.5103   -3.7345 H   0  0  0  0  0  0  0  0  0  0  0  0
   -4.8788   -0.8165   -3.2954 H   0  0  0  0  0  0  0  0  0  0  0  0
   -3.9233   -1.5475   -4.6009 H   0  0  0  0  0  0  0  0  0  0  0  0
   -3.8330   -2.3339   -1.6445 H   0  0  0  0  0  0  0  0  0  0  0  0
   -1.9973   -3.8631   -2.2655 H   0  0  0  0  0  0  0  0  0  0  0  0
   -3.4176   -4.2303   -3.2356 H   0  0  0  0  0  0  0  0  0  0  0  0
   -2.0742   -3.3265   -3.9501 H   0  0  0  0  0  0  0  0  0  0  0  0
   -2.8239   -0.1000   -2.1432 H   0  0  0  0  0  0  0  0  0  0  0  0
   -1.8094   -0.8202   -3.3745 H   0  0  0  0  0  0  0  0  0  0  0  0
   -0.6685   -2.2128   -1.5240 H   0  0  0  0  0  0  0  0  0  0  0  0
   -0.3384    0.6212   -0.8227 H   0  0  0  0  0  0  0  0  0  0  0  0
    2.7683    0.3342   -4.1269 H   0  0  0  0  0  0  0  0  0  0  0  0
    4.3070    2.3370   -3.7443 H   0  0  0  0  0  0  0  0  0  0  0  0
    2.0124    3.8361    2.6263 H   0  0  0  0  0  0  0  0  0  0  0  0
    1.1526    2.2628    2.6370 H   0  0  0  0  0  0  0  0  0  0  0  0
    0.4806    3.6524    1.7534 H   0  0  0  0  0  0  0  0  0  0  0  0
    4.1101    2.4698    0.1049 H   0  0  0  0  0  0  0  0  0  0  0  0
    4.0027    3.1714    1.6887 H   0  0  0  0  0  0  0  0  0  0  0  0
    3.9730    0.0278   -0.2616 H   0  0  0  0  0  0  0  0  0  0  0  0
    4.2774   -2.2136    0.7232 H   0  0  0  0  0  0  0  0  0  0  0  0
    4.2721   -2.5117    3.1844 H   0  0  0  0  0  0  0  0  0  0  0  0
    3.9575   -0.5488    4.6682 H   0  0  0  0  0  0  0  0  0  0  0  0
    3.6314    1.7042    3.7008 H   0  0  0  0  0  0  0  0  0  0  0  0
   -1.9285   -1.8785    2.8876 H   0  0  0  0  0  0  0  0  0  0  0  0
   -2.2074   -0.5705    4.0411 H   0  0  0  0  0  0  0  0  0  0  0  0
   -0.7196   -0.6189    3.0652 H   0  0  0  0  0  0  0  0  0  0  0  0
   -2.7889    1.7894    3.2308 H   0  0  0  0  0  0  0  0  0  0  0  0
   -1.2404    1.7711    2.3666 H   0  0  0  0  0  0  0  0  0  0  0  0
   -2.7107    2.1481    1.4900 H   0  0  0  0  0  0  0  0  0  0  0  0
   -4.5120    0.0580    2.7680 H   0  0  0  0  0  0  0  0  0  0  0  0
   -4.4223    0.2441    1.0002 H   0  0  0  0  0  0  0  0  0  0  0  0
   -4.1826   -1.3355    1.7363 H   0  0  0  0  0  0  0  0  0  0  0  0
  1  2  1  0
  2  3  1  0
  2  4  1  0
  4  5  1  0
  5  6  1  0
  6  7  1  0
  7  8  2  0
  7  9  1  0
  9 10  1  0
 10 11  1  0
 11 12  2  0
 12 13  1  0
 13 14  1  0
 14 15  2  0
 14 16  1  0
 16 17  1  0
 16 18  1  0
 18 19  1  0
 19 20  2  0
 20 21  1  0
 21 22  2  0
 22 23  1  0
 23 24  2  0
  5 25  1  0
 25 26  2  0
 25 27  1  0
 27 28  1  0
 28 29  1  0
 28 30  1  0
 28 31  1  0
 13  9  2  0
 24 19  1  0
  1 32  1  0
  1 33  1  0
  1 34  1  0
  2 35  1  0
  3 36  1  0
  3 37  1  0
  3 38  1  0
  4 39  1  0
  4 40  1  0
  5 41  1  0
  6 42  1  0
 10 43  1  0
 11 44  1  0
 17 45  1  0
 17 46  1  0
 17 47  1  0
 18 48  1  0
 18 49  1  0
 20 50  1  0
 21 51  1  0
 22 52  1  0
 23 53  1  0
 24 54  1  0
 29 55  1  0
 29 56  1  0
 29 57  1  0
 30 58  1  0
 30 59  1  0
 30 60  1  0
 31 61  1  0
 31 62  1  0
 31 63  1  0
M  END
$$$$
