
     RDKit          3D

 41 42  0  0  0  0  0  0  0  0999 V2000
   -6.9775    0.2674    0.1554 C   0  0  0  0  0  0  0  0  0  0  0  0
   -6.0322    0.1875    1.3394 C   0  0  0  0  0  0  0  0  0  0  0  0
   -4.7038    0.5508    0.9378 O   0  0  0  0  0  0  0  0  0  0  0  0
   -3.9372   -0.4535    0.4332 C   0  0  0  0  0  0  0  0  0  0  0  0
   -4.3195   -1.6106    0.3068 O   0  0  0  0  0  0  0  0  0  0  0  0
   -2.6765   -0.0207    0.0809 N   0  0  0  0  0  0  0  0  0  0  0  0
   -2.2336    1.3678    0.2138 C   0  0  0  0  0  0  0  0  0  0  0  0
   -1.1063    1.7063   -0.7702 C   0  0  0  0  0  0  0  0  0  0  0  0
    0.0545    0.7936   -0.6806 N   0  0  0  0  0  0  0  0  0  0  0  0
    1.2239    1.0558   -1.3604 C   0  0  0  0  0  0  0  0  0  0  0  0
    1.3712    2.1491   -2.6338 S   0  0  0  0  0  0  0  0  0  0  0  0
    2.3914    0.4004   -1.0400 N   0  0  0  0  0  0  0  0  0  0  0  0
    2.8661   -0.1436    0.1537 C   0  0  0  0  0  0  0  0  0  0  0  0
    2.2136   -0.4264    1.1488 O   0  0  0  0  0  0  0  0  0  0  0  0
    4.3227   -0.4555    0.1691 C   0  0  0  0  0  0  0  0  0  0  0  0
    4.7469   -1.6178    0.8348 C   0  0  0  0  0  0  0  0  0  0  0  0
    6.1041   -1.9463    0.8843 C   0  0  0  0  0  0  0  0  0  0  0  0
    7.0326   -1.1068    0.2792 C   0  0  0  0  0  0  0  0  0  0  0  0
    8.3336   -1.4219    0.3269 F   0  0  0  0  0  0  0  0  0  0  0  0
    6.6163    0.0543   -0.3633 C   0  0  0  0  0  0  0  0  0  0  0  0
    7.5163    0.8678   -0.9320 F   0  0  0  0  0  0  0  0  0  0  0  0
    5.2668    0.3934   -0.4214 C   0  0  0  0  0  0  0  0  0  0  0  0
   -0.2525   -0.5371   -0.1167 C   0  0  0  0  0  0  0  0  0  0  0  0
   -1.6931   -0.9851   -0.4061 C   0  0  0  0  0  0  0  0  0  0  0  0
   -6.6902   -0.4431   -0.6261 H   0  0  0  0  0  0  0  0  0  0  0  0
   -6.9464    1.2652   -0.2945 H   0  0  0  0  0  0  0  0  0  0  0  0
   -8.0043    0.0510    0.4637 H   0  0  0  0  0  0  0  0  0  0  0  0
   -6.3417    0.9064    2.1051 H   0  0  0  0  0  0  0  0  0  0  0  0
   -6.0528   -0.8046    1.8048 H   0  0  0  0  0  0  0  0  0  0  0  0
   -3.0757    2.0502    0.0600 H   0  0  0  0  0  0  0  0  0  0  0  0
   -1.8851    1.4923    1.2459 H   0  0  0  0  0  0  0  0  0  0  0  0
   -0.7632    2.7333   -0.6027 H   0  0  0  0  0  0  0  0  0  0  0  0
   -1.4963    1.6386   -1.7937 H   0  0  0  0  0  0  0  0  0  0  0  0
    3.0986    0.6155   -1.7296 H   0  0  0  0  0  0  0  0  0  0  0  0
    4.0186   -2.2683    1.3180 H   0  0  0  0  0  0  0  0  0  0  0  0
    6.4404   -2.8445    1.3937 H   0  0  0  0  0  0  0  0  0  0  0  0
    4.9898    1.3282   -0.8979 H   0  0  0  0  0  0  0  0  0  0  0  0
    0.4405   -1.2866   -0.5102 H   0  0  0  0  0  0  0  0  0  0  0  0
   -0.1330   -0.4583    0.9689 H   0  0  0  0  0  0  0  0  0  0  0  0
   -1.8485   -1.0775   -1.4877 H   0  0  0  0  0  0  0  0  0  0  0  0
   -1.8788   -1.9667    0.0431 H   0  0  0  0  0  0  0  0  0  0  0  0
  1  2  1  0
  2  3  1  0
  3  4  1  0
  4  5  2  0
  4  6  1  0
  6  7  1  0
  7  8  1  0
  8  9  1  0
  9 10  1  0
 10 11  2  0
 10 12  1  0
 12 13  1  0
 13 14  2  0
 13 15  1  0
 15 16  2  0
 16 17  1  0
 17 18  2  0
 18 19  1  0
 18 20  1  0
 20 21  1  0
 20 22  2  0
  9 23  1  0
 23 24  1  0
 24  6  1  0
 22 15  1  0
  1 25  1  0
  1 26  1  0
  1 27  1  0
  2 28  1  0
  2 29  1  0
  7 30  1  0
  7 31  1  0
  8 32  1  0
  8 33  1  0
 12 34  1  0
 16 35  1  0
 17 36  1  0
 22 37  1  0
 23 38  1  0
 23 39  1  0
 24 40  1  0
 24 41  1  0
M  END
$$$$
