
     RDKit          3D

 46 49  0  0  0  0  0  0  0  0999 V2000
    2.0666    1.4372   -2.8000 O   0  0  0  0  0  0  0  0  0  0  0  0
    1.6430    0.3858   -2.3291 C   0  0  0  0  0  0  0  0  0  0  0  0
    0.3580   -0.2443   -2.8796 C   0  0  0  0  0  0  0  0  0  0  0  0
   -0.7884   -0.0047   -2.0627 O   0  0  0  0  0  0  0  0  0  0  0  0
   -0.8788   -0.7896   -0.9643 C   0  0  0  0  0  0  0  0  0  0  0  0
   -0.0944   -1.6644   -0.6366 O   0  0  0  0  0  0  0  0  0  0  0  0
   -2.0926   -0.4207   -0.2149 C   0  0  0  0  0  0  0  0  0  0  0  0
   -3.2072   -1.3024   -0.2612 C   0  0  0  0  0  0  0  0  0  0  0  0
   -3.2392   -2.5213   -0.9851 C   0  0  0  0  0  0  0  0  0  0  0  0
   -4.3712   -3.3385   -0.9941 C   0  0  0  0  0  0  0  0  0  0  0  0
   -5.5008   -2.9609   -0.2819 C   0  0  0  0  0  0  0  0  0  0  0  0
   -5.4962   -1.7685    0.4397 C   0  0  0  0  0  0  0  0  0  0  0  0
   -4.3638   -0.9363    0.4591 C   0  0  0  0  0  0  0  0  0  0  0  0
   -4.3782    0.2595    1.1939 C   0  0  0  0  0  0  0  0  0  0  0  0
   -3.2686    1.1177    1.2454 C   0  0  0  0  0  0  0  0  0  0  0  0
   -3.3252    2.3010    2.0019 C   0  0  0  0  0  0  0  0  0  0  0  0
   -2.2334    3.1644    2.0710 C   0  0  0  0  0  0  0  0  0  0  0  0
   -1.0677    2.8551    1.3850 C   0  0  0  0  0  0  0  0  0  0  0  0
   -0.9966    1.6831    0.6297 C   0  0  0  0  0  0  0  0  0  0  0  0
   -2.0936    0.7883    0.5367 C   0  0  0  0  0  0  0  0  0  0  0  0
    2.2051   -0.3497   -1.3037 N   0  0  0  0  0  0  0  0  0  0  0  0
    3.3830   -0.0296   -0.6082 C   0  0  0  0  0  0  0  0  0  0  0  0
    4.0924    1.0632   -0.9580 N   0  0  0  0  0  0  0  0  0  0  0  0
    5.2213    1.3510   -0.2704 C   0  0  0  0  0  0  0  0  0  0  0  0
    5.6980    0.5907    0.7843 C   0  0  0  0  0  0  0  0  0  0  0  0
    6.9704    0.9709    1.4739 C   0  0  0  0  0  0  0  0  0  0  0  0
    8.0678    0.4704    0.8454 F   0  0  0  0  0  0  0  0  0  0  0  0
    7.1578    2.3168    1.5452 F   0  0  0  0  0  0  0  0  0  0  0  0
    7.0344    0.5181    2.7565 F   0  0  0  0  0  0  0  0  0  0  0  0
    4.9663   -0.5470    1.1356 C   0  0  0  0  0  0  0  0  0  0  0  0
    3.7987   -0.8614    0.4379 C   0  0  0  0  0  0  0  0  0  0  0  0
    2.9248   -2.2767    0.8972 Cl  0  0  0  0  0  0  0  0  0  0  0  0
    0.1587    0.2007   -3.8609 H   0  0  0  0  0  0  0  0  0  0  0  0
    0.5056   -1.3176   -3.0534 H   0  0  0  0  0  0  0  0  0  0  0  0
   -2.3720   -2.8563   -1.5514 H   0  0  0  0  0  0  0  0  0  0  0  0
   -4.3658   -4.2691   -1.5560 H   0  0  0  0  0  0  0  0  0  0  0  0
   -6.3851   -3.5929   -0.2846 H   0  0  0  0  0  0  0  0  0  0  0  0
   -6.3922   -1.4922    0.9927 H   0  0  0  0  0  0  0  0  0  0  0  0
   -5.2788    0.5286    1.7458 H   0  0  0  0  0  0  0  0  0  0  0  0
   -4.2291    2.5623    2.5491 H   0  0  0  0  0  0  0  0  0  0  0  0
   -2.2952    4.0763    2.6592 H   0  0  0  0  0  0  0  0  0  0  0  0
   -0.2115    3.5239    1.4310 H   0  0  0  0  0  0  0  0  0  0  0  0
   -0.0628    1.4829    0.1078 H   0  0  0  0  0  0  0  0  0  0  0  0
    1.6907   -1.1630   -0.9622 H   0  0  0  0  0  0  0  0  0  0  0  0
    5.7407    2.2447   -0.6128 H   0  0  0  0  0  0  0  0  0  0  0  0
    5.3051   -1.1854    1.9495 H   0  0  0  0  0  0  0  0  0  0  0  0
  1  2  2  0
  2  3  1  0
  3  4  1  0
  4  5  1  0
  5  6  2  0
  5  7  1  0
  7  8  1  0
  8  9  2  0
  9 10  1  0
 10 11  2  0
 11 12  1  0
 12 13  2  0
 13 14  1  0
 14 15  2  0
 15 16  1  0
 16 17  2  0
 17 18  1  0
 18 19  2  0
 19 20  1  0
  2 21  1  0
 21 22  1  0
 22 23  2  0
 23 24  1  0
 24 25  2  0
 25 26  1  0
 26 27  1  0
 26 28  1  0
 26 29  1  0
 25 30  1  0
 30 31  2  0
 31 32  1  0
 20  7  2  0
 31 22  1  0
 13  8  1  0
 20 15  1  0
  3 33  1  0
  3 34  1  0
  9 35  1  0
 10 36  1  0
 11 37  1  0
 12 38  1  0
 14 39  1  0
 16 40  1  0
 17 41  1  0
 18 42  1  0
 19 43  1  0
 21 44  1  0
 24 45  1  0
 30 46  1  0
M  END
$$$$
