
     RDKit          3D

 56 59  0  0  0  0  0  0  0  0999 V2000
    7.7055   -1.4239   -0.3540 C   0  0  0  0  0  0  0  0  0  0  0  0
    7.6919   -0.1729    0.3249 O   0  0  0  0  0  0  0  0  0  0  0  0
    6.4187    0.3017    0.5647 C   0  0  0  0  0  0  0  0  0  0  0  0
    6.3311    1.5052    1.2395 C   0  0  0  0  0  0  0  0  0  0  0  0
    5.0653    2.0216    1.5032 C   0  0  0  0  0  0  0  0  0  0  0  0
    3.9212    1.3257    1.0882 C   0  0  0  0  0  0  0  0  0  0  0  0
    2.5939    1.9296    1.4051 C   0  0  0  0  0  0  0  0  0  0  0  0
    2.5382    3.0281    1.9513 O   0  0  0  0  0  0  0  0  0  0  0  0
    1.4655    1.2220    1.0693 N   0  0  0  0  0  0  0  0  0  0  0  0
    0.1350    1.7614    1.2492 C   0  0  0  0  0  0  0  0  0  0  0  0
   -0.2078    2.7807    0.1344 C   0  0  0  0  0  0  0  0  0  0  0  0
   -1.7263    2.9704   -0.0434 C   0  0  0  0  0  0  0  0  0  0  0  0
   -2.4130    1.6514   -0.4523 C   0  0  0  0  0  0  0  0  0  0  0  0
   -1.9600    0.5589    0.4546 C   0  0  0  0  0  0  0  0  0  0  0  0
   -0.8291    0.6230    1.2471 C   0  0  0  0  0  0  0  0  0  0  0  0
   -0.9177   -0.5032    2.0758 C   0  0  0  0  0  0  0  0  0  0  0  0
   -2.0098   -1.2280    1.8344 N   0  0  0  0  0  0  0  0  0  0  0  0
   -2.6190   -0.6140    0.7796 N   0  0  0  0  0  0  0  0  0  0  0  0
   -3.8380   -1.1413    0.2688 C   0  0  0  0  0  0  0  0  0  0  0  0
   -4.7521   -1.6285    1.2210 C   0  0  0  0  0  0  0  0  0  0  0  0
   -6.0093   -2.0773    0.8317 C   0  0  0  0  0  0  0  0  0  0  0  0
   -6.3650   -2.0511   -0.5119 C   0  0  0  0  0  0  0  0  0  0  0  0
   -5.4559   -1.6126   -1.4885 C   0  0  0  0  0  0  0  0  0  0  0  0
   -5.8830   -1.6710   -2.9331 C   0  0  0  0  0  0  0  0  0  0  0  0
   -4.1529   -1.1962   -1.1083 C   0  0  0  0  0  0  0  0  0  0  0  0
   -3.1353   -0.9499   -2.1930 C   0  0  0  0  0  0  0  0  0  0  0  0
    4.1205    0.1195    0.4128 C   0  0  0  0  0  0  0  0  0  0  0  0
    3.0164   -0.5880   -0.0263 O   0  0  0  0  0  0  0  0  0  0  0  0
    3.3356   -1.8375   -0.6333 C   0  0  0  0  0  0  0  0  0  0  0  0
    5.3459   -0.3997    0.1448 N   0  0  0  0  0  0  0  0  0  0  0  0
    8.7507   -1.7164   -0.4936 H   0  0  0  0  0  0  0  0  0  0  0  0
    7.2474   -1.3423   -1.3458 H   0  0  0  0  0  0  0  0  0  0  0  0
    7.2180   -2.2037    0.2412 H   0  0  0  0  0  0  0  0  0  0  0  0
    7.2260    2.0300    1.5554 H   0  0  0  0  0  0  0  0  0  0  0  0
    4.9747    2.9671    2.0352 H   0  0  0  0  0  0  0  0  0  0  0  0
    1.5669    0.3725    0.5228 H   0  0  0  0  0  0  0  0  0  0  0  0
    0.0854    2.2685    2.2213 H   0  0  0  0  0  0  0  0  0  0  0  0
    0.2158    2.4472   -0.8233 H   0  0  0  0  0  0  0  0  0  0  0  0
    0.2644    3.7447    0.3590 H   0  0  0  0  0  0  0  0  0  0  0  0
   -2.1572    3.3389    0.8960 H   0  0  0  0  0  0  0  0  0  0  0  0
   -1.9183    3.7320   -0.8075 H   0  0  0  0  0  0  0  0  0  0  0  0
   -2.1196    1.4273   -1.4817 H   0  0  0  0  0  0  0  0  0  0  0  0
   -3.4999    1.7780   -0.4198 H   0  0  0  0  0  0  0  0  0  0  0  0
   -0.2505   -0.8084    2.8721 H   0  0  0  0  0  0  0  0  0  0  0  0
   -4.5003   -1.6288    2.2810 H   0  0  0  0  0  0  0  0  0  0  0  0
   -6.7135   -2.4355    1.5776 H   0  0  0  0  0  0  0  0  0  0  0  0
   -7.3560   -2.3975   -0.7989 H   0  0  0  0  0  0  0  0  0  0  0  0
   -5.5849   -0.7613   -3.4644 H   0  0  0  0  0  0  0  0  0  0  0  0
   -5.4391   -2.5436   -3.4226 H   0  0  0  0  0  0  0  0  0  0  0  0
   -6.9720   -1.7465   -3.0234 H   0  0  0  0  0  0  0  0  0  0  0  0
   -3.1611   -1.7624   -2.9279 H   0  0  0  0  0  0  0  0  0  0  0  0
   -3.3451   -0.0079   -2.7074 H   0  0  0  0  0  0  0  0  0  0  0  0
   -2.1097   -0.9402   -1.8162 H   0  0  0  0  0  0  0  0  0  0  0  0
    3.8563   -2.4991    0.0676 H   0  0  0  0  0  0  0  0  0  0  0  0
    3.9173   -1.6953   -1.5504 H   0  0  0  0  0  0  0  0  0  0  0  0
    2.3935   -2.3213   -0.9093 H   0  0  0  0  0  0  0  0  0  0  0  0
  1  2  1  0
  2  3  1  0
  3  4  2  0
  4  5  1  0
  5  6  2  0
  6  7  1  0
  7  8  2  0
  7  9  1  0
  9 10  1  0
 10 11  1  0
 11 12  1  0
 12 13  1  0
 13 14  1  0
 14 15  2  0
 15 16  1  0
 16 17  2  0
 17 18  1  0
 18 19  1  0
 19 20  2  0
 20 21  1  0
 21 22  2  0
 22 23  1  0
 23 24  1  0
 23 25  2  0
 25 26  1  0
  6 27  1  0
 27 28  1  0
 28 29  1  0
 27 30  2  0
 30  3  1  0
 15 10  1  0
 25 19  1  0
 18 14  1  0
  1 31  1  0
  1 32  1  0
  1 33  1  0
  4 34  1  0
  5 35  1  0
  9 36  1  0
 10 37  1  0
 11 38  1  0
 11 39  1  0
 12 40  1  0
 12 41  1  0
 13 42  1  0
 13 43  1  0
 16 44  1  0
 20 45  1  0
 21 46  1  0
 22 47  1  0
 24 48  1  0
 24 49  1  0
 24 50  1  0
 26 51  1  0
 26 52  1  0
 26 53  1  0
 29 54  1  0
 29 55  1  0
 29 56  1  0
M  END
$$$$
