
     RDKit          3D

 59 62  0  0  0  0  0  0  0  0999 V2000
    9.0222    1.6224   -3.6026 C   0  0  0  0  0  0  0  0  0  0  0  0
    7.7898    0.7692   -3.6524 C   0  0  0  0  0  0  0  0  0  0  0  0
    7.2742    0.3405   -4.8809 C   0  0  0  0  0  0  0  0  0  0  0  0
    6.1445   -0.4806   -4.9289 C   0  0  0  0  0  0  0  0  0  0  0  0
    5.5210   -0.9010   -3.7469 C   0  0  0  0  0  0  0  0  0  0  0  0
    4.2878   -1.7657   -3.7881 C   0  0  0  0  0  0  0  0  0  0  0  0
    3.0954   -0.9604   -3.6472 N   0  0  0  0  0  0  0  0  0  0  0  0
    2.4421   -0.8385   -2.4405 C   0  0  0  0  0  0  0  0  0  0  0  0
    2.7401   -1.4767   -1.4381 O   0  0  0  0  0  0  0  0  0  0  0  0
    1.3133    0.1734   -2.4891 C   0  0  0  0  0  0  0  0  0  0  0  0
    0.5135    0.2647   -1.1919 C   0  0  0  0  0  0  0  0  0  0  0  0
   -0.3465   -0.9768   -0.9431 C   0  0  0  0  0  0  0  0  0  0  0  0
   -1.2672   -0.7698    0.1706 N   0  0  0  0  0  0  0  0  0  0  0  0
   -0.7843   -1.1322    1.4316 N   0  0  0  0  0  0  0  0  0  0  0  0
   -1.5032   -0.9589    2.5048 C   0  0  0  0  0  0  0  0  0  0  0  0
   -0.9270   -1.3860    3.8247 C   0  0  0  0  0  0  0  0  0  0  0  0
   -2.8121   -0.3627    2.3917 C   0  0  0  0  0  0  0  0  0  0  0  0
   -3.7863    0.0109    3.3032 C   0  0  0  0  0  0  0  0  0  0  0  0
   -3.7426    0.0334    4.7880 C   0  0  0  0  0  0  0  0  0  0  0  0
   -4.8679    0.4522    2.5302 N   0  0  0  0  0  0  0  0  0  0  0  0
   -6.2125    0.7671    2.9022 C   0  0  0  0  0  0  0  0  0  0  0  0
   -7.0052    1.5100    2.0093 C   0  0  0  0  0  0  0  0  0  0  0  0
   -8.3249    1.8372    2.3295 C   0  0  0  0  0  0  0  0  0  0  0  0
   -8.8738    1.4142    3.5363 C   0  0  0  0  0  0  0  0  0  0  0  0
   -8.1076    0.6541    4.4169 C   0  0  0  0  0  0  0  0  0  0  0  0
   -6.7845    0.3247    4.1011 C   0  0  0  0  0  0  0  0  0  0  0  0
   -4.5106    0.5765    1.2228 N   0  0  0  0  0  0  0  0  0  0  0  0
   -3.3009    0.0197    1.1380 C   0  0  0  0  0  0  0  0  0  0  0  0
   -2.5149   -0.1599   -0.0760 C   0  0  0  0  0  0  0  0  0  0  0  0
   -2.8936    0.1875   -1.1936 O   0  0  0  0  0  0  0  0  0  0  0  0
    6.0430   -0.4757   -2.5179 C   0  0  0  0  0  0  0  0  0  0  0  0
    7.1718    0.3453   -2.4710 C   0  0  0  0  0  0  0  0  0  0  0  0
    9.0387    2.2356   -2.6955 H   0  0  0  0  0  0  0  0  0  0  0  0
    9.0567    2.3065   -4.4572 H   0  0  0  0  0  0  0  0  0  0  0  0
    9.9156    0.9902   -3.6169 H   0  0  0  0  0  0  0  0  0  0  0  0
    7.7501    0.6452   -5.8105 H   0  0  0  0  0  0  0  0  0  0  0  0
    5.7593   -0.7933   -5.8968 H   0  0  0  0  0  0  0  0  0  0  0  0
    4.3356   -2.5351   -3.0091 H   0  0  0  0  0  0  0  0  0  0  0  0
    4.2167   -2.2835   -4.7514 H   0  0  0  0  0  0  0  0  0  0  0  0
    2.9197   -0.2693   -4.3638 H   0  0  0  0  0  0  0  0  0  0  0  0
    0.6498   -0.0729   -3.3263 H   0  0  0  0  0  0  0  0  0  0  0  0
    1.7628    1.1527   -2.6941 H   0  0  0  0  0  0  0  0  0  0  0  0
    1.1820    0.4281   -0.3375 H   0  0  0  0  0  0  0  0  0  0  0  0
   -0.1335    1.1490   -1.2518 H   0  0  0  0  0  0  0  0  0  0  0  0
   -0.9323   -1.2131   -1.8390 H   0  0  0  0  0  0  0  0  0  0  0  0
    0.2710   -1.8533   -0.7189 H   0  0  0  0  0  0  0  0  0  0  0  0
   -0.0331   -1.9976    3.6692 H   0  0  0  0  0  0  0  0  0  0  0  0
   -0.6444   -0.5018    4.4020 H   0  0  0  0  0  0  0  0  0  0  0  0
   -1.6577   -1.9758    4.3843 H   0  0  0  0  0  0  0  0  0  0  0  0
   -4.0970   -0.9154    5.2012 H   0  0  0  0  0  0  0  0  0  0  0  0
   -4.3304    0.8575    5.2025 H   0  0  0  0  0  0  0  0  0  0  0  0
   -2.7228    0.1948    5.1480 H   0  0  0  0  0  0  0  0  0  0  0  0
   -6.6030    1.8539    1.0568 H   0  0  0  0  0  0  0  0  0  0  0  0
   -8.9215    2.4198    1.6320 H   0  0  0  0  0  0  0  0  0  0  0  0
   -9.9020    1.6649    3.7838 H   0  0  0  0  0  0  0  0  0  0  0  0
   -8.5463    0.3032    5.3481 H   0  0  0  0  0  0  0  0  0  0  0  0
   -6.2567   -0.3169    4.7954 H   0  0  0  0  0  0  0  0  0  0  0  0
    5.5672   -0.7847   -1.5877 H   0  0  0  0  0  0  0  0  0  0  0  0
    7.5622    0.6531   -1.5034 H   0  0  0  0  0  0  0  0  0  0  0  0
  1  2  1  0
  2  3  2  0
  3  4  1  0
  4  5  2  0
  5  6  1  0
  6  7  1  0
  7  8  1  0
  8  9  2  0
  8 10  1  0
 10 11  1  0
 11 12  1  0
 12 13  1  0
 13 14  1  0
 14 15  2  0
 15 16  1  0
 15 17  1  0
 17 18  2  0
 18 19  1  0
 18 20  1  0
 20 21  1  0
 21 22  2  0
 22 23  1  0
 23 24  2  0
 24 25  1  0
 25 26  2  0
 20 27  1  0
 27 28  2  0
 28 29  1  0
 29 30  2  0
  5 31  1  0
 31 32  2  0
 32  2  1  0
 29 13  1  0
 28 17  1  0
 26 21  1  0
  1 33  1  0
  1 34  1  0
  1 35  1  0
  3 36  1  0
  4 37  1  0
  6 38  1  0
  6 39  1  0
  7 40  1  0
 10 41  1  0
 10 42  1  0
 11 43  1  0
 11 44  1  0
 12 45  1  0
 12 46  1  0
 16 47  1  0
 16 48  1  0
 16 49  1  0
 19 50  1  0
 19 51  1  0
 19 52  1  0
 22 53  1  0
 23 54  1  0
 24 55  1  0
 25 56  1  0
 26 57  1  0
 31 58  1  0
 32 59  1  0
M  END
$$$$
