
     RDKit          3D

 46 49  0  0  0  0  0  0  0  0999 V2000
    5.7291   -1.3516   -2.5954 N   0  0  0  0  0  0  0  0  0  0  0  0
    5.8196    0.0612   -1.6812 S   0  0  0  0  0  6  0  0  0  0  0  0
    6.0386    1.1262   -2.6327 O   0  0  0  0  0  0  0  0  0  0  0  0
    6.7088   -0.1843   -0.5709 O   0  0  0  0  0  0  0  0  0  0  0  0
    4.1652    0.1837   -1.0618 C   0  0  0  0  0  0  0  0  0  0  0  0
    3.2196    0.9433   -1.7442 C   0  0  0  0  0  0  0  0  0  0  0  0
    1.9160    1.0222   -1.2429 C   0  0  0  0  0  0  0  0  0  0  0  0
    1.5272    0.3652   -0.0592 C   0  0  0  0  0  0  0  0  0  0  0  0
    0.2178    0.4610    0.4084 N   0  0  0  0  0  0  0  0  0  0  0  0
   -0.7037    1.2274   -0.2466 N   0  0  0  0  0  0  0  0  0  0  0  0
   -1.7523    1.3066    0.5159 C   0  0  0  0  0  0  0  0  0  0  0  0
   -2.9792    2.0436    0.1324 C   0  0  0  0  0  0  0  0  0  0  0  0
   -4.0570    2.1806    1.0147 C   0  0  0  0  0  0  0  0  0  0  0  0
   -5.1997    2.8815    0.6194 C   0  0  0  0  0  0  0  0  0  0  0  0
   -5.2699    3.4472   -0.6532 C   0  0  0  0  0  0  0  0  0  0  0  0
   -4.1985    3.3154   -1.5345 C   0  0  0  0  0  0  0  0  0  0  0  0
   -3.0553    2.6160   -1.1436 C   0  0  0  0  0  0  0  0  0  0  0  0
   -1.6245    0.6186    1.8471 C   0  0  0  0  0  0  0  0  0  0  0  0
   -0.2966   -0.1156    1.6525 C   0  0  0  0  0  0  0  0  0  0  0  0
   -0.5108   -1.6218    1.5705 C   0  0  0  0  0  0  0  0  0  0  0  0
   -0.3034   -2.4130    2.7152 C   0  0  0  0  0  0  0  0  0  0  0  0
   -0.5139   -3.7926    2.6723 C   0  0  0  0  0  0  0  0  0  0  0  0
   -0.9378   -4.3862    1.4899 C   0  0  0  0  0  0  0  0  0  0  0  0
   -1.1395   -5.7097    1.4520 F   0  0  0  0  0  0  0  0  0  0  0  0
   -1.1576   -3.6269    0.3484 C   0  0  0  0  0  0  0  0  0  0  0  0
   -0.9481   -2.2476    0.3884 C   0  0  0  0  0  0  0  0  0  0  0  0
    2.5148   -0.3788    0.6086 C   0  0  0  0  0  0  0  0  0  0  0  0
    3.8239   -0.4712    0.1201 C   0  0  0  0  0  0  0  0  0  0  0  0
    5.8814   -1.1154   -3.5775 H   0  0  0  0  0  0  0  0  0  0  0  0
    4.8552   -1.8591   -2.4595 H   0  0  0  0  0  0  0  0  0  0  0  0
    3.4757    1.4769   -2.6563 H   0  0  0  0  0  0  0  0  0  0  0  0
    1.1854    1.6173   -1.7885 H   0  0  0  0  0  0  0  0  0  0  0  0
   -4.0324    1.7564    2.0135 H   0  0  0  0  0  0  0  0  0  0  0  0
   -6.0368    2.9881    1.3053 H   0  0  0  0  0  0  0  0  0  0  0  0
   -6.1598    3.9927   -0.9581 H   0  0  0  0  0  0  0  0  0  0  0  0
   -4.2507    3.7574   -2.5265 H   0  0  0  0  0  0  0  0  0  0  0  0
   -2.2254    2.5212   -1.8410 H   0  0  0  0  0  0  0  0  0  0  0  0
   -2.4736   -0.0383    2.0545 H   0  0  0  0  0  0  0  0  0  0  0  0
   -1.5405    1.3804    2.6295 H   0  0  0  0  0  0  0  0  0  0  0  0
    0.3727    0.1217    2.4893 H   0  0  0  0  0  0  0  0  0  0  0  0
    0.0261   -1.9606    3.6485 H   0  0  0  0  0  0  0  0  0  0  0  0
   -0.3510   -4.4077    3.5516 H   0  0  0  0  0  0  0  0  0  0  0  0
   -1.4886   -4.1100   -0.5652 H   0  0  0  0  0  0  0  0  0  0  0  0
   -1.1192   -1.6603   -0.5132 H   0  0  0  0  0  0  0  0  0  0  0  0
    2.2857   -0.9086    1.5285 H   0  0  0  0  0  0  0  0  0  0  0  0
    4.5631   -1.0525    0.6678 H   0  0  0  0  0  0  0  0  0  0  0  0
  1  2  1  0
  2  3  2  0
  2  4  2  0
  2  5  1  0
  5  6  2  0
  6  7  1  0
  7  8  2  0
  8  9  1  0
  9 10  1  0
 10 11  2  0
 11 12  1  0
 12 13  2  0
 13 14  1  0
 14 15  2  0
 15 16  1  0
 16 17  2  0
 11 18  1  0
 18 19  1  0
 19 20  1  0
 20 21  2  0
 21 22  1  0
 22 23  2  0
 23 24  1  0
 23 25  1  0
 25 26  2  0
  8 27  1  0
 27 28  2  0
 28  5  1  0
 19  9  1  0
 26 20  1  0
 17 12  1  0
  1 29  1  0
  1 30  1  0
  6 31  1  0
  7 32  1  0
 13 33  1  0
 14 34  1  0
 15 35  1  0
 16 36  1  0
 17 37  1  0
 18 38  1  0
 18 39  1  0
 19 40  1  0
 21 41  1  0
 22 42  1  0
 25 43  1  0
 26 44  1  0
 27 45  1  0
 28 46  1  0
M  END
$$$$
