
     RDKit          3D

 59 62  0  0  0  0  0  0  0  0999 V2000
   -5.2276   -0.2465   -2.4636 C   0  0  0  0  0  0  0  0  0  0  0  0
   -5.4649    0.3646   -1.0784 C   0  0  0  0  0  0  0  0  0  0  0  0
   -5.4192    1.8989   -1.1467 C   0  0  0  0  0  0  0  0  0  0  0  0
   -5.5418    2.5059    0.2508 C   0  0  0  0  0  0  0  0  0  0  0  0
   -4.5180    1.9027    1.2178 C   0  0  0  0  0  0  0  0  0  0  0  0
   -4.6348    0.4454    1.2544 N   0  0  0  0  0  0  0  0  0  0  0  0
   -3.8812   -0.1992    2.3366 C   0  0  0  0  0  0  0  0  0  0  0  0
   -2.4192    0.2027    2.6090 C   0  0  0  0  0  0  0  0  0  0  0  0
   -1.3973   -0.1635    1.5368 C   0  0  0  0  0  0  0  0  0  0  0  0
   -1.3501   -1.6159    1.3424 N   0  0  0  0  0  0  0  0  0  0  0  0
   -0.7642   -2.2529   -0.0990 S   0  0  0  0  0  6  0  0  0  0  0  0
   -1.4711   -1.6322   -1.2010 O   0  0  0  0  0  0  0  0  0  0  0  0
   -0.7343   -3.6885    0.0756 O   0  0  0  0  0  0  0  0  0  0  0  0
    0.9158   -1.6694   -0.1303 C   0  0  0  0  0  0  0  0  0  0  0  0
    1.9297   -2.4563    0.4464 C   0  0  0  0  0  0  0  0  0  0  0  0
    3.2610   -2.0291    0.4042 C   0  0  0  0  0  0  0  0  0  0  0  0
    3.5517   -0.8296   -0.2277 C   0  0  0  0  0  0  0  0  0  0  0  0
    2.5392   -0.0588   -0.8071 C   0  0  0  0  0  0  0  0  0  0  0  0
    1.2135   -0.4634   -0.7741 C   0  0  0  0  0  0  0  0  0  0  0  0
    3.0856    1.2068   -1.3830 C   0  0  0  0  0  0  0  0  0  0  0  0
    4.5987    0.9874   -1.2546 C   0  0  0  0  0  0  0  0  0  0  0  0
    4.7976   -0.2078   -0.4194 N   0  0  0  0  0  0  0  0  0  0  0  0
    6.0160   -0.6821    0.0348 C   0  0  0  0  0  0  0  0  0  0  0  0
    6.1899   -1.6824    0.7219 O   0  0  0  0  0  0  0  0  0  0  0  0
    7.2063    0.1449   -0.3316 C   0  0  0  0  0  0  0  0  0  0  0  0
    7.7435    0.1304   -1.7428 C   0  0  0  0  0  0  0  0  0  0  0  0
    8.5308   -0.5180   -0.6463 C   0  0  0  0  0  0  0  0  0  0  0  0
   -4.4298   -0.1625   -0.0660 C   0  0  0  0  0  0  0  0  0  0  0  0
   -5.3105   -1.3392   -2.4231 H   0  0  0  0  0  0  0  0  0  0  0  0
   -5.9650    0.1225   -3.1839 H   0  0  0  0  0  0  0  0  0  0  0  0
   -4.2301   -0.0016   -2.8488 H   0  0  0  0  0  0  0  0  0  0  0  0
   -6.4667    0.0584   -0.7453 H   0  0  0  0  0  0  0  0  0  0  0  0
   -4.4741    2.2221   -1.6024 H   0  0  0  0  0  0  0  0  0  0  0  0
   -6.2286    2.2765   -1.7865 H   0  0  0  0  0  0  0  0  0  0  0  0
   -5.4022    3.5932    0.1950 H   0  0  0  0  0  0  0  0  0  0  0  0
   -6.5562    2.3379    0.6345 H   0  0  0  0  0  0  0  0  0  0  0  0
   -3.5116    2.2056    0.9139 H   0  0  0  0  0  0  0  0  0  0  0  0
   -4.7010    2.3187    2.2145 H   0  0  0  0  0  0  0  0  0  0  0  0
   -3.9534   -1.2906    2.2424 H   0  0  0  0  0  0  0  0  0  0  0  0
   -4.4321    0.0290    3.2594 H   0  0  0  0  0  0  0  0  0  0  0  0
   -2.1170   -0.2774    3.5500 H   0  0  0  0  0  0  0  0  0  0  0  0
   -2.3618    1.2819    2.8009 H   0  0  0  0  0  0  0  0  0  0  0  0
   -1.6159    0.3634    0.6021 H   0  0  0  0  0  0  0  0  0  0  0  0
   -0.4097    0.1714    1.8769 H   0  0  0  0  0  0  0  0  0  0  0  0
   -1.1705   -2.2121    2.1519 H   0  0  0  0  0  0  0  0  0  0  0  0
    1.6916   -3.4108    0.9172 H   0  0  0  0  0  0  0  0  0  0  0  0
    4.0359   -2.6479    0.8432 H   0  0  0  0  0  0  0  0  0  0  0  0
    0.4331    0.1375   -1.2348 H   0  0  0  0  0  0  0  0  0  0  0  0
    2.7655    2.0608   -0.7816 H   0  0  0  0  0  0  0  0  0  0  0  0
    2.7842    1.3587   -2.4235 H   0  0  0  0  0  0  0  0  0  0  0  0
    5.1016    1.8525   -0.8118 H   0  0  0  0  0  0  0  0  0  0  0  0
    5.0470    0.7956   -2.2362 H   0  0  0  0  0  0  0  0  0  0  0  0
    7.2789    1.0683    0.2370 H   0  0  0  0  0  0  0  0  0  0  0  0
    8.1047    1.0609   -2.1596 H   0  0  0  0  0  0  0  0  0  0  0  0
    7.2805   -0.5303   -2.4734 H   0  0  0  0  0  0  0  0  0  0  0  0
    9.4361   -0.0288   -0.2984 H   0  0  0  0  0  0  0  0  0  0  0  0
    8.5802   -1.6032   -0.6215 H   0  0  0  0  0  0  0  0  0  0  0  0
   -4.5327   -1.2537    0.0005 H   0  0  0  0  0  0  0  0  0  0  0  0
   -3.4262    0.0488   -0.4468 H   0  0  0  0  0  0  0  0  0  0  0  0
  1  2  1  0
  2  3  1  0
  3  4  1  0
  4  5  1  0
  5  6  1  0
  6  7  1  0
  7  8  1  0
  8  9  1  0
  9 10  1  0
 10 11  1  0
 11 12  2  0
 11 13  2  0
 11 14  1  0
 14 15  2  0
 15 16  1  0
 16 17  2  0
 17 18  1  0
 18 19  2  0
 18 20  1  0
 20 21  1  0
 21 22  1  0
 22 23  1  0
 23 24  2  0
 23 25  1  0
 25 26  1  0
 26 27  1  0
  6 28  1  0
 28  2  1  0
 19 14  1  0
 27 25  1  0
 22 17  1  0
  1 29  1  0
  1 30  1  0
  1 31  1  0
  2 32  1  0
  3 33  1  0
  3 34  1  0
  4 35  1  0
  4 36  1  0
  5 37  1  0
  5 38  1  0
  7 39  1  0
  7 40  1  0
  8 41  1  0
  8 42  1  0
  9 43  1  0
  9 44  1  0
 10 45  1  0
 15 46  1  0
 16 47  1  0
 19 48  1  0
 20 49  1  0
 20 50  1  0
 21 51  1  0
 21 52  1  0
 25 53  1  0
 26 54  1  0
 26 55  1  0
 27 56  1  0
 27 57  1  0
 28 58  1  0
 28 59  1  0
M  END
$$$$
