
     RDKit          3D

 50 52  0  0  0  0  0  0  0  0999 V2000
   -3.7750    0.2008    0.6830 O   0  0  0  0  0  0  0  0  0  0  0  0
   -3.9359    0.4245   -0.5156 C   0  0  0  0  0  0  0  0  0  0  0  0
   -2.8029    0.8373   -1.4531 C   0  0  0  0  0  0  0  0  0  0  0  0
   -1.5716    0.2760   -0.9967 O   0  0  0  0  0  0  0  0  0  0  0  0
   -0.4881    0.6857   -1.6928 C   0  0  0  0  0  0  0  0  0  0  0  0
   -0.4964    1.4844   -2.6169 O   0  0  0  0  0  0  0  0  0  0  0  0
    0.7420    0.0087   -1.1920 C   0  0  0  0  0  0  0  0  0  0  0  0
    1.9645    0.3155   -1.8087 C   0  0  0  0  0  0  0  0  0  0  0  0
    3.1428   -0.3149   -1.3982 C   0  0  0  0  0  0  0  0  0  0  0  0
    3.1007   -1.2435   -0.3550 C   0  0  0  0  0  0  0  0  0  0  0  0
    4.5925   -2.0904    0.1333 S   0  0  0  0  0  6  0  0  0  0  0  0
    5.4856   -2.0760   -1.0064 O   0  0  0  0  0  0  0  0  0  0  0  0
    4.1953   -3.3352    0.7585 O   0  0  0  0  0  0  0  0  0  0  0  0
    5.2347   -1.0763    1.3299 N   0  0  0  0  0  0  0  0  0  0  0  0
    4.5512   -1.0224    2.6465 C   0  0  0  0  0  0  0  0  0  0  0  0
    4.1586    0.4061    3.0073 C   0  0  0  0  0  0  0  0  0  0  0  0
    5.3724    1.3309    3.0623 C   0  0  0  0  0  0  0  0  0  0  0  0
    6.4745    0.9085    2.0891 C   0  0  0  0  0  0  0  0  0  0  0  0
    5.9063    0.1661    0.8856 C   0  0  0  0  0  0  0  0  0  0  0  0
    1.8860   -1.5714    0.2560 C   0  0  0  0  0  0  0  0  0  0  0  0
    0.7095   -0.9381   -0.1556 C   0  0  0  0  0  0  0  0  0  0  0  0
   -5.1673    0.3457   -1.1257 N   0  0  0  0  0  0  0  0  0  0  0  0
   -6.3124   -0.1560   -0.4006 C   0  0  0  0  0  0  0  0  0  0  0  0
   -7.5204    0.0632   -1.2268 C   0  0  0  0  0  0  0  0  0  0  0  0
   -8.5595    0.9703   -1.1705 C   0  0  0  0  0  0  0  0  0  0  0  0
   -9.4024    0.6755   -2.2669 C   0  0  0  0  0  0  0  0  0  0  0  0
   -8.8275   -0.3929   -2.9159 C   0  0  0  0  0  0  0  0  0  0  0  0
   -7.6829   -0.7688   -2.2966 O   0  0  0  0  0  0  0  0  0  0  0  0
   -2.7555    1.9338   -1.4481 H   0  0  0  0  0  0  0  0  0  0  0  0
   -3.0106    0.4699   -2.4663 H   0  0  0  0  0  0  0  0  0  0  0  0
    2.0005    1.0377   -2.6205 H   0  0  0  0  0  0  0  0  0  0  0  0
    4.0800   -0.0866   -1.9020 H   0  0  0  0  0  0  0  0  0  0  0  0
    5.2334   -1.4327    3.4014 H   0  0  0  0  0  0  0  0  0  0  0  0
    3.6574   -1.6516    2.6616 H   0  0  0  0  0  0  0  0  0  0  0  0
    3.4509    0.7882    2.2619 H   0  0  0  0  0  0  0  0  0  0  0  0
    3.6365    0.4246    3.9698 H   0  0  0  0  0  0  0  0  0  0  0  0
    5.0481    2.3549    2.8403 H   0  0  0  0  0  0  0  0  0  0  0  0
    5.7828    1.3496    4.0769 H   0  0  0  0  0  0  0  0  0  0  0  0
    7.1859    0.2564    2.6141 H   0  0  0  0  0  0  0  0  0  0  0  0
    7.0375    1.7909    1.7632 H   0  0  0  0  0  0  0  0  0  0  0  0
    6.7308   -0.0893    0.2109 H   0  0  0  0  0  0  0  0  0  0  0  0
    5.2056    0.8126    0.3489 H   0  0  0  0  0  0  0  0  0  0  0  0
    1.8428   -2.3261    1.0389 H   0  0  0  0  0  0  0  0  0  0  0  0
   -0.2278   -1.2040    0.3308 H   0  0  0  0  0  0  0  0  0  0  0  0
   -5.2291    0.3567   -2.1351 H   0  0  0  0  0  0  0  0  0  0  0  0
   -6.1558   -1.2202   -0.2084 H   0  0  0  0  0  0  0  0  0  0  0  0
   -6.3860    0.3597    0.5672 H   0  0  0  0  0  0  0  0  0  0  0  0
   -8.6857    1.7499   -0.4305 H   0  0  0  0  0  0  0  0  0  0  0  0
  -10.3209    1.1764   -2.5513 H   0  0  0  0  0  0  0  0  0  0  0  0
   -9.0950   -0.9641   -3.7898 H   0  0  0  0  0  0  0  0  0  0  0  0
  1  2  2  0
  2  3  1  0
  3  4  1  0
  4  5  1  0
  5  6  2  0
  5  7  1  0
  7  8  2  0
  8  9  1  0
  9 10  2  0
 10 11  1  0
 11 12  2  0
 11 13  2  0
 11 14  1  0
 14 15  1  0
 15 16  1  0
 16 17  1  0
 17 18  1  0
 18 19  1  0
 10 20  1  0
 20 21  2  0
  2 22  1  0
 22 23  1  0
 23 24  1  0
 24 25  2  0
 25 26  1  0
 26 27  2  0
 27 28  1  0
 21  7  1  0
 28 24  1  0
 19 14  1  0
  3 29  1  0
  3 30  1  0
  8 31  1  0
  9 32  1  0
 15 33  1  0
 15 34  1  0
 16 35  1  0
 16 36  1  0
 17 37  1  0
 17 38  1  0
 18 39  1  0
 18 40  1  0
 19 41  1  0
 19 42  1  0
 20 43  1  0
 21 44  1  0
 22 45  1  0
 23 46  1  0
 23 47  1  0
 25 48  1  0
 26 49  1  0
 27 50  1  0
M  END
$$$$
