
     RDKit          3D

 59 63  0  0  0  0  0  0  0  0999 V2000
   -4.9960    1.6709    2.7753 C   0  0  0  0  0  0  0  0  0  0  0  0
   -4.1347    1.1339    1.6391 C   0  0  0  0  0  0  0  0  0  0  0  0
   -2.6813    0.9166    2.1141 C   0  0  0  0  0  0  0  0  0  0  0  0
   -1.7313    0.5856    1.0223 N   0  0  0  0  0  0  0  0  0  0  0  0
   -1.7230   -0.7833    0.6956 C   0  0  0  0  0  0  0  0  0  0  0  0
   -2.8841   -1.3988    0.3914 N   0  0  0  0  0  0  0  0  0  0  0  0
   -2.8451   -2.7101    0.0856 C   0  0  0  0  0  0  0  0  0  0  0  0
   -4.0209   -3.3720   -0.2474 C   0  0  0  0  0  0  0  0  0  0  0  0
   -4.0249   -4.7309   -0.5673 C   0  0  0  0  0  0  0  0  0  0  0  0
   -2.8316   -5.4410   -0.5537 C   0  0  0  0  0  0  0  0  0  0  0  0
   -1.6457   -4.7859   -0.2194 C   0  0  0  0  0  0  0  0  0  0  0  0
   -1.6334   -3.4334    0.0998 C   0  0  0  0  0  0  0  0  0  0  0  0
   -0.4749   -2.8357    0.4224 N   0  0  0  0  0  0  0  0  0  0  0  0
   -0.5170   -1.5054    0.7163 C   0  0  0  0  0  0  0  0  0  0  0  0
    0.7704   -0.8087    1.1062 C   0  0  0  0  0  0  0  0  0  0  0  0
    1.8711   -1.7292    1.4329 C   0  0  0  0  0  0  0  0  0  0  0  0
    2.7686   -2.3930    1.7589 N   0  0  0  0  0  0  0  0  0  0  0  0
    1.2537    0.1541    0.0270 C   0  0  0  0  0  0  0  0  0  0  0  0
    1.0063    0.0179   -1.1704 O   0  0  0  0  0  0  0  0  0  0  0  0
    1.9927    1.2290    0.5023 N   0  0  0  0  0  0  0  0  0  0  0  0
    2.6139    2.1741   -0.4005 C   0  0  0  0  0  0  0  0  0  0  0  0
    4.0535    1.8063   -0.6525 C   0  0  0  0  0  0  0  0  0  0  0  0
    5.0881    2.3790    0.1240 C   0  0  0  0  0  0  0  0  0  0  0  0
    6.4252    2.0245   -0.0862 C   0  0  0  0  0  0  0  0  0  0  0  0
    6.6969    1.0967   -1.0683 C   0  0  0  0  0  0  0  0  0  0  0  0
    5.6988    0.5306   -1.8249 C   0  0  0  0  0  0  0  0  0  0  0  0
    4.3724    0.8593   -1.6412 C   0  0  0  0  0  0  0  0  0  0  0  0
    6.1784   -0.3575   -2.7363 O   0  0  0  0  0  0  0  0  0  0  0  0
    7.5896   -0.3100   -2.4429 C   0  0  0  0  0  0  0  0  0  0  0  0
    7.9305    0.6346   -1.4058 O   0  0  0  0  0  0  0  0  0  0  0  0
   -1.9417    1.4347   -0.1810 C   0  0  0  0  0  0  0  0  0  0  0  0
   -3.4283    1.6131   -0.5572 C   0  0  0  0  0  0  0  0  0  0  0  0
   -3.5802    2.6357   -1.6764 C   0  0  0  0  0  0  0  0  0  0  0  0
   -4.1838    2.0939    0.5693 O   0  0  0  0  0  0  0  0  0  0  0  0
   -4.6229    2.6368    3.1317 H   0  0  0  0  0  0  0  0  0  0  0  0
   -6.0213    1.8398    2.4285 H   0  0  0  0  0  0  0  0  0  0  0  0
   -5.0232    0.9718    3.6160 H   0  0  0  0  0  0  0  0  0  0  0  0
   -4.5860    0.1998    1.2881 H   0  0  0  0  0  0  0  0  0  0  0  0
   -2.6402    0.1604    2.9093 H   0  0  0  0  0  0  0  0  0  0  0  0
   -2.3151    1.8516    2.5590 H   0  0  0  0  0  0  0  0  0  0  0  0
   -4.9545   -2.8153   -0.2568 H   0  0  0  0  0  0  0  0  0  0  0  0
   -4.9568   -5.2277   -0.8252 H   0  0  0  0  0  0  0  0  0  0  0  0
   -2.8172   -6.4997   -0.8015 H   0  0  0  0  0  0  0  0  0  0  0  0
   -0.7090   -5.3387   -0.2071 H   0  0  0  0  0  0  0  0  0  0  0  0
    0.5653   -0.2272    2.0160 H   0  0  0  0  0  0  0  0  0  0  0  0
    2.3620    1.1972    1.4445 H   0  0  0  0  0  0  0  0  0  0  0  0
    2.5503    3.1614    0.0699 H   0  0  0  0  0  0  0  0  0  0  0  0
    2.0623    2.2312   -1.3454 H   0  0  0  0  0  0  0  0  0  0  0  0
    4.8535    3.1073    0.8975 H   0  0  0  0  0  0  0  0  0  0  0  0
    7.2233    2.4617    0.5029 H   0  0  0  0  0  0  0  0  0  0  0  0
    3.6010    0.3886   -2.2450 H   0  0  0  0  0  0  0  0  0  0  0  0
    8.1282   -0.0356   -3.3570 H   0  0  0  0  0  0  0  0  0  0  0  0
    7.9168   -1.3078   -2.1282 H   0  0  0  0  0  0  0  0  0  0  0  0
   -1.5161    2.4177    0.0600 H   0  0  0  0  0  0  0  0  0  0  0  0
   -1.3794    1.0542   -1.0416 H   0  0  0  0  0  0  0  0  0  0  0  0
   -3.8659    0.6669   -0.8959 H   0  0  0  0  0  0  0  0  0  0  0  0
   -4.6369    2.7616   -1.9359 H   0  0  0  0  0  0  0  0  0  0  0  0
   -3.2162    3.6197   -1.3616 H   0  0  0  0  0  0  0  0  0  0  0  0
   -3.0343    2.3287   -2.5733 H   0  0  0  0  0  0  0  0  0  0  0  0
  1  2  1  0
  2  3  1  0
  3  4  1  0
  4  5  1  0
  5  6  2  0
  6  7  1  0
  7  8  2  0
  8  9  1  0
  9 10  2  0
 10 11  1  0
 11 12  2  0
 12 13  1  0
 13 14  2  0
 14 15  1  0
 15 16  1  0
 16 17  3  0
 15 18  1  0
 18 19  2  0
 18 20  1  0
 20 21  1  0
 21 22  1  0
 22 23  2  0
 23 24  1  0
 24 25  2  0
 25 26  1  0
 26 27  2  0
 26 28  1  0
 28 29  1  0
 29 30  1  0
  4 31  1  0
 31 32  1  0
 32 33  1  0
 32 34  1  0
 34  2  1  0
 14  5  1  0
 27 22  1  0
 12  7  1  0
 30 25  1  0
  1 35  1  0
  1 36  1  0
  1 37  1  0
  2 38  1  0
  3 39  1  0
  3 40  1  0
  8 41  1  0
  9 42  1  0
 10 43  1  0
 11 44  1  0
 15 45  1  0
 20 46  1  0
 21 47  1  0
 21 48  1  0
 23 49  1  0
 24 50  1  0
 27 51  1  0
 29 52  1  0
 29 53  1  0
 31 54  1  0
 31 55  1  0
 32 56  1  0
 33 57  1  0
 33 58  1  0
 33 59  1  0
M  END
$$$$
