
     RDKit          3D

 45 48  0  0  0  0  0  0  0  0999 V2000
   -1.9654    2.0043   -1.6363 C   0  0  0  0  0  0  0  0  0  0  0  0
   -3.3092    1.2934   -1.8032 C   0  0  0  0  0  0  0  0  0  0  0  0
   -4.2588    1.6786   -0.6692 C   0  0  0  0  0  0  0  0  0  0  0  0
   -3.1582   -0.2330   -1.9577 C   0  0  0  0  0  0  0  0  0  0  0  0
   -2.5798   -0.9093   -0.7965 N   0  0  0  0  0  0  0  0  0  0  0  0
   -1.2083   -0.9407   -0.7403 N   0  0  0  0  0  0  0  0  0  0  0  0
   -0.6269   -1.5447    0.2566 C   0  0  0  0  0  0  0  0  0  0  0  0
    0.9013   -1.5160    0.2241 C   0  0  0  0  0  0  0  0  0  0  0  0
    1.5358   -2.4881    0.5933 O   0  0  0  0  0  0  0  0  0  0  0  0
    1.3606   -0.3241   -0.2753 N   0  0  0  0  0  0  0  0  0  0  0  0
    2.6895   -0.0451   -0.3873 C   0  0  0  0  0  0  0  0  0  0  0  0
    3.7338   -0.7313    0.0069 N   0  0  0  0  0  0  0  0  0  0  0  0
    4.9167   -0.0766   -0.2939 N   0  0  0  0  0  0  0  0  0  0  0  0
    4.6942    1.0721   -0.8926 C   0  0  0  0  0  0  0  0  0  0  0  0
    5.8530    2.0081   -1.3538 C   0  0  0  0  0  0  0  0  0  0  0  0
    6.0774    3.3161   -0.6380 C   0  0  0  0  0  0  0  0  0  0  0  0
    7.0514    2.1889   -0.4570 C   0  0  0  0  0  0  0  0  0  0  0  0
    3.0425    1.4446   -1.1446 S   0  0  0  0  0  0  0  0  0  0  0  0
   -1.3584   -2.1800    1.3656 C   0  0  0  0  0  0  0  0  0  0  0  0
   -0.7373   -2.7656    2.4759 C   0  0  0  0  0  0  0  0  0  0  0  0
   -1.5087   -3.3431    3.4891 C   0  0  0  0  0  0  0  0  0  0  0  0
   -2.8990   -3.3340    3.4041 C   0  0  0  0  0  0  0  0  0  0  0  0
   -3.5213   -2.7414    2.3068 C   0  0  0  0  0  0  0  0  0  0  0  0
   -2.7484   -2.1612    1.2907 C   0  0  0  0  0  0  0  0  0  0  0  0
   -3.4131   -1.5088    0.1465 C   0  0  0  0  0  0  0  0  0  0  0  0
   -4.6398   -1.5077    0.0829 O   0  0  0  0  0  0  0  0  0  0  0  0
   -2.0979    3.0903   -1.6924 H   0  0  0  0  0  0  0  0  0  0  0  0
   -1.2671    1.7133   -2.4280 H   0  0  0  0  0  0  0  0  0  0  0  0
   -1.5039    1.7801   -0.6694 H   0  0  0  0  0  0  0  0  0  0  0  0
   -3.7539    1.6597   -2.7382 H   0  0  0  0  0  0  0  0  0  0  0  0
   -3.8543    1.4028    0.3099 H   0  0  0  0  0  0  0  0  0  0  0  0
   -4.4314    2.7603   -0.6636 H   0  0  0  0  0  0  0  0  0  0  0  0
   -5.2305    1.1890   -0.7911 H   0  0  0  0  0  0  0  0  0  0  0  0
   -4.1403   -0.6714   -2.1721 H   0  0  0  0  0  0  0  0  0  0  0  0
   -2.5231   -0.4574   -2.8240 H   0  0  0  0  0  0  0  0  0  0  0  0
    0.6912    0.3292   -0.6611 H   0  0  0  0  0  0  0  0  0  0  0  0
    6.0428    1.9791   -2.4213 H   0  0  0  0  0  0  0  0  0  0  0  0
    6.3919    4.1686   -1.2288 H   0  0  0  0  0  0  0  0  0  0  0  0
    5.4442    3.5704    0.2043 H   0  0  0  0  0  0  0  0  0  0  0  0
    7.0654    1.6723    0.4969 H   0  0  0  0  0  0  0  0  0  0  0  0
    8.0247    2.2714   -0.9266 H   0  0  0  0  0  0  0  0  0  0  0  0
    0.3442   -2.7947    2.5833 H   0  0  0  0  0  0  0  0  0  0  0  0
   -1.0197   -3.8039    4.3453 H   0  0  0  0  0  0  0  0  0  0  0  0
   -3.4977   -3.7855    4.1918 H   0  0  0  0  0  0  0  0  0  0  0  0
   -4.6081   -2.7290    2.2461 H   0  0  0  0  0  0  0  0  0  0  0  0
  1  2  1  0
  2  3  1  0
  2  4  1  0
  4  5  1  0
  5  6  1  0
  6  7  2  0
  7  8  1  0
  8  9  2  0
  8 10  1  0
 10 11  1  0
 11 12  2  0
 12 13  1  0
 13 14  2  0
 14 15  1  0
 15 16  1  0
 16 17  1  0
 14 18  1  0
  7 19  1  0
 19 20  2  0
 20 21  1  0
 21 22  2  0
 22 23  1  0
 23 24  2  0
 24 25  1  0
 25 26  2  0
 25  5  1  0
 18 11  1  0
 24 19  1  0
 17 15  1  0
  1 27  1  0
  1 28  1  0
  1 29  1  0
  2 30  1  0
  3 31  1  0
  3 32  1  0
  3 33  1  0
  4 34  1  0
  4 35  1  0
 10 36  1  0
 15 37  1  0
 16 38  1  0
 16 39  1  0
 17 40  1  0
 17 41  1  0
 20 42  1  0
 21 43  1  0
 22 44  1  0
 23 45  1  0
M  END
$$$$
