
     RDKit          3D

 47 48  0  0  0  0  0  0  0  0999 V2000
    7.7370   -1.2222    1.2304 C   0  0  0  0  0  0  0  0  0  0  0  0
    6.8798   -0.1581    0.6075 C   0  0  0  0  0  0  0  0  0  0  0  0
    6.9152    1.1544    1.0924 C   0  0  0  0  0  0  0  0  0  0  0  0
    6.1049    2.1422    0.5268 C   0  0  0  0  0  0  0  0  0  0  0  0
    5.2362    1.8340   -0.5285 C   0  0  0  0  0  0  0  0  0  0  0  0
    4.3709    2.9038   -1.1437 C   0  0  0  0  0  0  0  0  0  0  0  0
    2.8480    3.1980   -0.2070 S   0  0  0  0  0  0  0  0  0  0  0  0
    1.7540    2.0821   -0.9602 C   0  0  0  0  0  0  0  0  0  0  0  0
    2.0079    1.3598   -2.0325 N   0  0  0  0  0  0  0  0  0  0  0  0
    0.8609    0.6491   -2.3202 N   0  0  0  0  0  0  0  0  0  0  0  0
   -0.0234    1.0009   -1.4135 C   0  0  0  0  0  0  0  0  0  0  0  0
   -1.4286    0.5664   -1.2544 C   0  0  0  0  0  0  0  0  0  0  0  0
   -1.5008   -0.8505   -0.6880 C   0  0  0  0  0  0  0  0  0  0  0  0
   -2.8523   -1.3707   -0.6624 N   0  0  0  0  0  0  0  0  0  0  0  0
   -3.7906   -0.9440    0.2280 C   0  0  0  0  0  0  0  0  0  0  0  0
   -3.5908   -0.1190    1.1055 O   0  0  0  0  0  0  0  0  0  0  0  0
   -4.9603   -1.5622   -0.0455 O   0  0  0  0  0  0  0  0  0  0  0  0
   -6.1526   -1.2570    0.7232 C   0  0  0  0  0  0  0  0  0  0  0  0
   -6.5685    0.2090    0.5427 C   0  0  0  0  0  0  0  0  0  0  0  0
   -5.9747   -1.6275    2.1990 C   0  0  0  0  0  0  0  0  0  0  0  0
   -7.2454   -2.1523    0.1194 C   0  0  0  0  0  0  0  0  0  0  0  0
    0.4677    1.9028   -0.5127 O   0  0  0  0  0  0  0  0  0  0  0  0
    5.1816    0.5118   -0.9923 C   0  0  0  0  0  0  0  0  0  0  0  0
    5.9929   -0.4748   -0.4262 C   0  0  0  0  0  0  0  0  0  0  0  0
    7.9955   -1.9980    0.5014 H   0  0  0  0  0  0  0  0  0  0  0  0
    8.6790   -0.7979    1.5961 H   0  0  0  0  0  0  0  0  0  0  0  0
    7.2098   -1.6896    2.0687 H   0  0  0  0  0  0  0  0  0  0  0  0
    7.5806    1.4166    1.9114 H   0  0  0  0  0  0  0  0  0  0  0  0
    6.1543    3.1550    0.9210 H   0  0  0  0  0  0  0  0  0  0  0  0
    4.9374    3.8422   -1.1601 H   0  0  0  0  0  0  0  0  0  0  0  0
    4.1628    2.6784   -2.1951 H   0  0  0  0  0  0  0  0  0  0  0  0
   -1.9286    0.6085   -2.2273 H   0  0  0  0  0  0  0  0  0  0  0  0
   -1.9674    1.2620   -0.6001 H   0  0  0  0  0  0  0  0  0  0  0  0
   -0.9048   -1.5499   -1.2868 H   0  0  0  0  0  0  0  0  0  0  0  0
   -1.1071   -0.8672    0.3362 H   0  0  0  0  0  0  0  0  0  0  0  0
   -3.1724   -2.0155   -1.3729 H   0  0  0  0  0  0  0  0  0  0  0  0
   -6.6003    0.4776   -0.5200 H   0  0  0  0  0  0  0  0  0  0  0  0
   -7.5543    0.4029    0.9804 H   0  0  0  0  0  0  0  0  0  0  0  0
   -5.8595    0.8942    1.0187 H   0  0  0  0  0  0  0  0  0  0  0  0
   -6.9292   -1.5874    2.7380 H   0  0  0  0  0  0  0  0  0  0  0  0
   -5.5592   -2.6365    2.2952 H   0  0  0  0  0  0  0  0  0  0  0  0
   -5.2835   -0.9525    2.7093 H   0  0  0  0  0  0  0  0  0  0  0  0
   -8.2128   -1.9979    0.6098 H   0  0  0  0  0  0  0  0  0  0  0  0
   -7.3666   -1.9544   -0.9509 H   0  0  0  0  0  0  0  0  0  0  0  0
   -6.9744   -3.2112    0.2091 H   0  0  0  0  0  0  0  0  0  0  0  0
    4.5039    0.2381   -1.7989 H   0  0  0  0  0  0  0  0  0  0  0  0
    5.9282   -1.4934   -0.8005 H   0  0  0  0  0  0  0  0  0  0  0  0
  1  2  1  0
  2  3  2  0
  3  4  1  0
  4  5  2  0
  5  6  1  0
  6  7  1  0
  7  8  1  0
  8  9  2  0
  9 10  1  0
 10 11  2  0
 11 12  1  0
 12 13  1  0
 13 14  1  0
 14 15  1  0
 15 16  2  0
 15 17  1  0
 17 18  1  0
 18 19  1  0
 18 20  1  0
 18 21  1  0
 11 22  1  0
  5 23  1  0
 23 24  2  0
 24  2  1  0
 22  8  1  0
  1 25  1  0
  1 26  1  0
  1 27  1  0
  3 28  1  0
  4 29  1  0
  6 30  1  0
  6 31  1  0
 12 32  1  0
 12 33  1  0
 13 34  1  0
 13 35  1  0
 14 36  1  0
 19 37  1  0
 19 38  1  0
 19 39  1  0
 20 40  1  0
 20 41  1  0
 20 42  1  0
 21 43  1  0
 21 44  1  0
 21 45  1  0
 23 46  1  0
 24 47  1  0
M  END
$$$$
