
     RDKit          3D

 51 54  0  0  0  0  0  0  0  0999 V2000
   -0.6537    0.9248    2.3974 O   0  0  0  0  0  0  0  0  0  0  0  0
   -0.8646    0.7255    1.1983 C   0  0  0  0  0  0  0  0  0  0  0  0
    0.2810    0.5541    0.2863 C   0  0  0  0  0  0  0  0  0  0  0  0
    1.6248    0.3136    0.6868 C   0  0  0  0  0  0  0  0  0  0  0  0
    2.3435    0.2567   -0.4813 C   0  0  0  0  0  0  0  0  0  0  0  0
    3.7653    0.0390   -0.8352 C   0  0  0  0  0  0  0  0  0  0  0  0
    4.4672   -0.2468    0.3739 O   0  0  0  0  0  0  0  0  0  0  0  0
    5.8121   -0.4724    0.2790 C   0  0  0  0  0  0  0  0  0  0  0  0
    6.4462   -0.7194    1.4987 C   0  0  0  0  0  0  0  0  0  0  0  0
    7.8168   -0.9714    1.5519 C   0  0  0  0  0  0  0  0  0  0  0  0
    8.5675   -0.9767    0.3783 C   0  0  0  0  0  0  0  0  0  0  0  0
    7.9520   -0.7232   -0.8562 C   0  0  0  0  0  0  0  0  0  0  0  0
    8.7548   -0.7527   -2.1338 C   0  0  0  0  0  0  0  0  0  0  0  0
   10.0703   -0.4515   -1.9519 F   0  0  0  0  0  0  0  0  0  0  0  0
    8.7276   -1.9753   -2.7318 F   0  0  0  0  0  0  0  0  0  0  0  0
    8.2970    0.1290   -3.0665 F   0  0  0  0  0  0  0  0  0  0  0  0
    6.5658   -0.4784   -0.8960 C   0  0  0  0  0  0  0  0  0  0  0  0
    1.4976    0.4644   -1.5243 O   0  0  0  0  0  0  0  0  0  0  0  0
    0.2168    0.6642   -1.0522 N   0  0  0  0  0  0  0  0  0  0  0  0
   -2.1799    0.6639    0.7087 N   0  0  0  0  0  0  0  0  0  0  0  0
   -3.2683    1.0052    1.6210 C   0  0  0  0  0  0  0  0  0  0  0  0
   -4.4413    1.6443    0.8846 C   0  0  0  0  0  0  0  0  0  0  0  0
   -4.9728    0.7668   -0.2665 C   0  0  0  0  0  0  0  0  0  0  0  0
   -6.3574    0.2082    0.0102 C   0  0  0  0  0  0  0  0  0  0  0  0
   -6.6265   -0.5885    1.1286 C   0  0  0  0  0  0  0  0  0  0  0  0
   -7.9144   -1.0694    1.3154 C   0  0  0  0  0  0  0  0  0  0  0  0
   -8.9406   -0.8174    0.4769 N   0  0  0  0  0  0  0  0  0  0  0  0
   -8.6649   -0.0498   -0.5974 C   0  0  0  0  0  0  0  0  0  0  0  0
   -7.4107    0.4766   -0.8704 C   0  0  0  0  0  0  0  0  0  0  0  0
   -3.9941   -0.3550   -0.6501 C   0  0  0  0  0  0  0  0  0  0  0  0
   -2.5493    0.1331   -0.6050 C   0  0  0  0  0  0  0  0  0  0  0  0
    2.0004    0.1996    1.6937 H   0  0  0  0  0  0  0  0  0  0  0  0
    3.8383   -0.8091   -1.5259 H   0  0  0  0  0  0  0  0  0  0  0  0
    4.1632    0.9479   -1.3017 H   0  0  0  0  0  0  0  0  0  0  0  0
    5.8654   -0.7173    2.4186 H   0  0  0  0  0  0  0  0  0  0  0  0
    8.2958   -1.1652    2.5085 H   0  0  0  0  0  0  0  0  0  0  0  0
    9.6367   -1.1788    0.4292 H   0  0  0  0  0  0  0  0  0  0  0  0
    6.1067   -0.2961   -1.8642 H   0  0  0  0  0  0  0  0  0  0  0  0
   -3.5757    0.0833    2.1279 H   0  0  0  0  0  0  0  0  0  0  0  0
   -2.9105    1.6948    2.3935 H   0  0  0  0  0  0  0  0  0  0  0  0
   -4.0900    2.5925    0.4543 H   0  0  0  0  0  0  0  0  0  0  0  0
   -5.2311    1.9118    1.5965 H   0  0  0  0  0  0  0  0  0  0  0  0
   -5.0565    1.4321   -1.1382 H   0  0  0  0  0  0  0  0  0  0  0  0
   -5.8555   -0.8405    1.8483 H   0  0  0  0  0  0  0  0  0  0  0  0
   -8.1597   -1.6907    2.1721 H   0  0  0  0  0  0  0  0  0  0  0  0
   -9.5058    0.1395   -1.2584 H   0  0  0  0  0  0  0  0  0  0  0  0
   -7.2682    1.0849   -1.7576 H   0  0  0  0  0  0  0  0  0  0  0  0
   -4.0957   -1.2124    0.0281 H   0  0  0  0  0  0  0  0  0  0  0  0
   -4.2306   -0.7290   -1.6539 H   0  0  0  0  0  0  0  0  0  0  0  0
   -1.8902   -0.7031   -0.8586 H   0  0  0  0  0  0  0  0  0  0  0  0
   -2.4051    0.9343   -1.3385 H   0  0  0  0  0  0  0  0  0  0  0  0
  1  2  2  0
  2  3  1  0
  3  4  1  0
  4  5  2  0
  5  6  1  0
  6  7  1  0
  7  8  1  0
  8  9  2  0
  9 10  1  0
 10 11  2  0
 11 12  1  0
 12 13  1  0
 13 14  1  0
 13 15  1  0
 13 16  1  0
 12 17  2  0
  5 18  1  0
 18 19  1  0
  2 20  1  0
 20 21  1  0
 21 22  1  0
 22 23  1  0
 23 24  1  0
 24 25  2  0
 25 26  1  0
 26 27  2  0
 27 28  1  0
 28 29  2  0
 23 30  1  0
 30 31  1  0
 19  3  2  0
 31 20  1  0
 17  8  1  0
 29 24  1  0
  4 32  1  0
  6 33  1  0
  6 34  1  0
  9 35  1  0
 10 36  1  0
 11 37  1  0
 17 38  1  0
 21 39  1  0
 21 40  1  0
 22 41  1  0
 22 42  1  0
 23 43  1  0
 25 44  1  0
 26 45  1  0
 28 46  1  0
 29 47  1  0
 30 48  1  0
 30 49  1  0
 31 50  1  0
 31 51  1  0
M  END
$$$$
