
     RDKit          3D

 57 60  0  0  0  0  0  0  0  0999 V2000
   -1.6102    4.6666   -2.4174 C   0  0  0  0  0  0  0  0  0  0  0  0
   -1.7288    4.8400   -0.8996 C   0  0  0  0  0  0  0  0  0  0  0  0
   -0.4234    4.4488   -0.1743 C   0  0  0  0  0  0  0  0  0  0  0  0
   -0.0909    2.9520   -0.2890 C   0  0  0  0  0  0  0  0  0  0  0  0
   -1.2971    2.0880   -0.0613 C   0  0  0  0  0  0  0  0  0  0  0  0
   -2.5772    2.6120   -0.1028 C   0  0  0  0  0  0  0  0  0  0  0  0
   -3.7725    1.4424    0.1954 S   0  0  0  0  0  0  0  0  0  0  0  0
   -2.6058    0.2157    0.3862 C   0  0  0  0  0  0  0  0  0  0  0  0
   -2.9930   -1.0345    0.6766 N   0  0  0  0  0  0  0  0  0  0  0  0
   -1.9777   -1.8914    0.8096 C   0  0  0  0  0  0  0  0  0  0  0  0
   -2.2999   -3.3500    1.1372 C   0  0  0  0  0  0  0  0  0  0  0  0
   -3.7988   -3.5606    1.4317 C   0  0  0  0  0  0  0  0  0  0  0  0
   -1.5003   -3.7870    2.3785 C   0  0  0  0  0  0  0  0  0  0  0  0
   -1.9088   -4.2284   -0.0640 C   0  0  0  0  0  0  0  0  0  0  0  0
   -0.6755   -1.5801    0.6467 N   0  0  0  0  0  0  0  0  0  0  0  0
   -0.3008   -0.3166    0.3336 C   0  0  0  0  0  0  0  0  0  0  0  0
    1.0630   -0.0351    0.1305 N   0  0  0  0  0  0  0  0  0  0  0  0
    1.4010   -0.0844   -1.3157 C   0  0  0  0  0  0  0  0  0  0  0  0
    2.4912   -1.1209   -1.6467 C   0  0  0  0  0  0  0  0  0  0  0  0
    3.6772   -0.9735   -0.7922 N   0  0  0  0  0  0  0  0  0  0  0  0
    4.9408   -1.1975   -1.3319 C   0  0  0  0  0  0  0  0  0  0  0  0
    5.0761   -1.5686   -2.4983 O   0  0  0  0  0  0  0  0  0  0  0  0
    6.1222   -0.9831   -0.3934 C   0  0  0  0  0  0  0  0  0  0  0  0
    7.6465   -0.8113   -1.2881 Cl  0  0  0  0  0  0  0  0  0  0  0  0
    3.4158   -0.6299    0.6131 C   0  0  0  0  0  0  0  0  0  0  0  0
    1.9422   -0.8381    1.0044 C   0  0  0  0  0  0  0  0  0  0  0  0
   -1.3074    0.6657    0.2064 C   0  0  0  0  0  0  0  0  0  0  0  0
   -2.9294    4.0513   -0.3330 C   0  0  0  0  0  0  0  0  0  0  0  0
   -0.7533    5.2282   -2.8041 H   0  0  0  0  0  0  0  0  0  0  0  0
   -2.5084    5.0462   -2.9165 H   0  0  0  0  0  0  0  0  0  0  0  0
   -1.4879    3.6189   -2.7088 H   0  0  0  0  0  0  0  0  0  0  0  0
   -1.9126    5.9067   -0.7157 H   0  0  0  0  0  0  0  0  0  0  0  0
    0.4173    5.0388   -0.5584 H   0  0  0  0  0  0  0  0  0  0  0  0
   -0.5264    4.7084    0.8880 H   0  0  0  0  0  0  0  0  0  0  0  0
    0.3057    2.7470   -1.2897 H   0  0  0  0  0  0  0  0  0  0  0  0
    0.6956    2.7102    0.4342 H   0  0  0  0  0  0  0  0  0  0  0  0
   -4.1293   -2.9508    2.2808 H   0  0  0  0  0  0  0  0  0  0  0  0
   -4.4203   -3.2942    0.5686 H   0  0  0  0  0  0  0  0  0  0  0  0
   -4.0100   -4.6082    1.6757 H   0  0  0  0  0  0  0  0  0  0  0  0
   -1.7330   -3.1536    3.2427 H   0  0  0  0  0  0  0  0  0  0  0  0
   -0.4188   -3.7265    2.2093 H   0  0  0  0  0  0  0  0  0  0  0  0
   -1.7294   -4.8235    2.6516 H   0  0  0  0  0  0  0  0  0  0  0  0
   -2.1358   -5.2835    0.1269 H   0  0  0  0  0  0  0  0  0  0  0  0
   -0.8375   -4.1579   -0.2862 H   0  0  0  0  0  0  0  0  0  0  0  0
   -2.4508   -3.9277   -0.9685 H   0  0  0  0  0  0  0  0  0  0  0  0
    1.7812    0.9068   -1.5898 H   0  0  0  0  0  0  0  0  0  0  0  0
    0.5247   -0.2744   -1.9492 H   0  0  0  0  0  0  0  0  0  0  0  0
    2.1087   -2.1364   -1.4880 H   0  0  0  0  0  0  0  0  0  0  0  0
    2.7655   -1.0363   -2.7033 H   0  0  0  0  0  0  0  0  0  0  0  0
    5.9934   -0.0670    0.1871 H   0  0  0  0  0  0  0  0  0  0  0  0
    6.2146   -1.8431    0.2750 H   0  0  0  0  0  0  0  0  0  0  0  0
    3.6940    0.4229    0.7409 H   0  0  0  0  0  0  0  0  0  0  0  0
    4.0624   -1.2335    1.2579 H   0  0  0  0  0  0  0  0  0  0  0  0
    1.7206   -1.9113    0.9331 H   0  0  0  0  0  0  0  0  0  0  0  0
    1.8011   -0.5319    2.0479 H   0  0  0  0  0  0  0  0  0  0  0  0
   -3.7954    4.1439   -0.9991 H   0  0  0  0  0  0  0  0  0  0  0  0
   -3.2144    4.4902    0.6321 H   0  0  0  0  0  0  0  0  0  0  0  0
  1  2  1  0
  2  3  1  0
  3  4  1  0
  4  5  1  0
  5  6  2  0
  6  7  1  0
  7  8  1  0
  8  9  2  0
  9 10  1  0
 10 11  1  0
 11 12  1  0
 11 13  1  0
 11 14  1  0
 10 15  2  0
 15 16  1  0
 16 17  1  0
 17 18  1  0
 18 19  1  0
 19 20  1  0
 20 21  1  0
 21 22  2  0
 21 23  1  0
 23 24  1  0
 20 25  1  0
 25 26  1  0
 16 27  2  0
  6 28  1  0
 28  2  1  0
 27  5  1  0
 27  8  1  0
 26 17  1  0
  1 29  1  0
  1 30  1  0
  1 31  1  0
  2 32  1  0
  3 33  1  0
  3 34  1  0
  4 35  1  0
  4 36  1  0
 12 37  1  0
 12 38  1  0
 12 39  1  0
 13 40  1  0
 13 41  1  0
 13 42  1  0
 14 43  1  0
 14 44  1  0
 14 45  1  0
 18 46  1  0
 18 47  1  0
 19 48  1  0
 19 49  1  0
 23 50  1  0
 23 51  1  0
 25 52  1  0
 25 53  1  0
 26 54  1  0
 26 55  1  0
 28 56  1  0
 28 57  1  0
M  END
$$$$
