
     RDKit          3D

 58 60  0  0  0  0  0  0  0  0999 V2000
    2.0248   -4.6812    1.2221 C   0  0  0  0  0  0  0  0  0  0  0  0
    0.7862   -3.8252    1.4469 C   0  0  0  0  0  0  0  0  0  0  0  0
    1.0819   -2.4868    2.1311 C   0  0  0  0  0  0  0  0  0  0  0  0
    1.9334   -1.5616    1.3090 C   0  0  0  0  0  0  0  0  0  0  0  0
    3.3115   -1.5281    1.5173 N   0  0  0  0  0  0  0  0  0  0  0  0
    3.8135   -0.5040    0.7017 N   0  0  0  0  0  0  0  0  0  0  0  0
    5.1983   -0.2413    0.6384 C   0  0  0  0  0  0  0  0  0  0  0  0
    5.7038    0.8081   -0.1438 C   0  0  0  0  0  0  0  0  0  0  0  0
    7.0789    1.0708   -0.2044 C   0  0  0  0  0  0  0  0  0  0  0  0
    7.9675    0.2746    0.5237 C   0  0  0  0  0  0  0  0  0  0  0  0
    9.4098    0.5417    0.4606 N   0  0  0  0  0  4  0  0  0  0  0  0
    9.7958    1.4505   -0.2873 O   0  0  0  0  0  0  0  0  0  0  0  0
   10.1556   -0.1594    1.1598 O   0  0  0  0  0  1  0  0  0  0  0  0
    7.4881   -0.7795    1.3078 C   0  0  0  0  0  0  0  0  0  0  0  0
    6.1111   -1.0305    1.3604 C   0  0  0  0  0  0  0  0  0  0  0  0
    2.7666    0.0411   -0.0441 C   0  0  0  0  0  0  0  0  0  0  0  0
    2.7696    0.9273   -0.8833 O   0  0  0  0  0  0  0  0  0  0  0  0
    1.5334   -0.6759    0.3791 C   0  0  0  0  0  0  0  0  0  0  0  0
    0.1958   -0.3795   -0.1507 C   0  0  0  0  0  0  0  0  0  0  0  0
   -0.8866   -0.9427    0.2618 N   0  0  0  0  0  0  0  0  0  0  0  0
   -2.1099   -0.4951   -0.4196 C   0  0  0  0  0  0  0  0  0  0  0  0
   -2.8606    0.4897    0.4790 C   0  0  0  0  0  0  0  0  0  0  0  0
   -4.1250    0.9941   -0.1709 C   0  0  0  0  0  0  0  0  0  0  0  0
   -5.3311    0.3087    0.0014 C   0  0  0  0  0  0  0  0  0  0  0  0
   -6.4997    0.7644   -0.6140 C   0  0  0  0  0  0  0  0  0  0  0  0
   -6.4784    1.9109   -1.4152 C   0  0  0  0  0  0  0  0  0  0  0  0
   -7.5759    2.4290   -2.0579 O   0  0  0  0  0  0  0  0  0  0  0  0
   -8.8187    1.7669   -1.8765 C   0  0  0  0  0  0  0  0  0  0  0  0
   -5.2663    2.6058   -1.6010 C   0  0  0  0  0  0  0  0  0  0  0  0
   -5.3266    3.7198   -2.4025 O   0  0  0  0  0  0  0  0  0  0  0  0
   -4.1245    4.4439   -2.6194 C   0  0  0  0  0  0  0  0  0  0  0  0
   -4.1003    2.1409   -0.9792 C   0  0  0  0  0  0  0  0  0  0  0  0
    2.7125   -4.2138    0.5110 H   0  0  0  0  0  0  0  0  0  0  0  0
    2.5598   -4.8524    2.1616 H   0  0  0  0  0  0  0  0  0  0  0  0
    1.7380   -5.6556    0.8134 H   0  0  0  0  0  0  0  0  0  0  0  0
    0.0851   -4.3874    2.0756 H   0  0  0  0  0  0  0  0  0  0  0  0
    0.2838   -3.6589    0.4866 H   0  0  0  0  0  0  0  0  0  0  0  0
    1.5707   -2.6720    3.0966 H   0  0  0  0  0  0  0  0  0  0  0  0
    0.1343   -1.9973    2.3834 H   0  0  0  0  0  0  0  0  0  0  0  0
    3.5361   -1.4055    2.5069 H   0  0  0  0  0  0  0  0  0  0  0  0
    5.0432    1.4493   -0.7226 H   0  0  0  0  0  0  0  0  0  0  0  0
    7.4312    1.8945   -0.8230 H   0  0  0  0  0  0  0  0  0  0  0  0
    8.1645   -1.4168    1.8743 H   0  0  0  0  0  0  0  0  0  0  0  0
    5.7704   -1.8716    1.9597 H   0  0  0  0  0  0  0  0  0  0  0  0
    0.1818    0.3883   -0.9461 H   0  0  0  0  0  0  0  0  0  0  0  0
   -2.7317   -1.3774   -0.6138 H   0  0  0  0  0  0  0  0  0  0  0  0
   -1.9021   -0.0490   -1.4012 H   0  0  0  0  0  0  0  0  0  0  0  0
   -3.1023    0.0148    1.4388 H   0  0  0  0  0  0  0  0  0  0  0  0
   -2.2138    1.3407    0.7294 H   0  0  0  0  0  0  0  0  0  0  0  0
   -5.3706   -0.5876    0.6178 H   0  0  0  0  0  0  0  0  0  0  0  0
   -7.4109    0.1997   -0.4479 H   0  0  0  0  0  0  0  0  0  0  0  0
   -9.1224    1.7771   -0.8243 H   0  0  0  0  0  0  0  0  0  0  0  0
   -9.5756    2.3156   -2.4454 H   0  0  0  0  0  0  0  0  0  0  0  0
   -8.7837    0.7454   -2.2696 H   0  0  0  0  0  0  0  0  0  0  0  0
   -3.7324    4.8495   -1.6808 H   0  0  0  0  0  0  0  0  0  0  0  0
   -4.3565    5.2897   -3.2741 H   0  0  0  0  0  0  0  0  0  0  0  0
   -3.3769    3.8261   -3.1281 H   0  0  0  0  0  0  0  0  0  0  0  0
   -3.1543    2.6575   -1.1082 H   0  0  0  0  0  0  0  0  0  0  0  0
  1  2  1  0
  2  3  1  0
  3  4  1  0
  4  5  1  0
  5  6  1  0
  6  7  1  0
  7  8  2  0
  8  9  1  0
  9 10  2  0
 10 11  1  0
 11 12  2  0
 11 13  1  0
 10 14  1  0
 14 15  2  0
  6 16  1  0
 16 17  2  0
 16 18  1  0
 18 19  1  0
 19 20  2  3
 20 21  1  0
 21 22  1  0
 22 23  1  0
 23 24  2  0
 24 25  1  0
 25 26  2  0
 26 27  1  0
 27 28  1  0
 26 29  1  0
 29 30  1  0
 30 31  1  0
 29 32  2  0
 18  4  2  0
 32 23  1  0
 15  7  1  0
  1 33  1  0
  1 34  1  0
  1 35  1  0
  2 36  1  0
  2 37  1  0
  3 38  1  0
  3 39  1  0
  5 40  1  0
  8 41  1  0
  9 42  1  0
 14 43  1  0
 15 44  1  0
 19 45  1  0
 21 46  1  0
 21 47  1  0
 22 48  1  0
 22 49  1  0
 24 50  1  0
 25 51  1  0
 28 52  1  0
 28 53  1  0
 28 54  1  0
 31 55  1  0
 31 56  1  0
 31 57  1  0
 32 58  1  0
M  CHG  2  11   1  13  -1
M  END
$$$$
