
     RDKit          3D

 50 52  0  0  0  0  0  0  0  0999 V2000
    2.1201   -0.0994   -3.6804 C   0  0  0  0  0  0  0  0  0  0  0  0
    1.9582    0.1748   -2.2965 O   0  0  0  0  0  0  0  0  0  0  0  0
    3.0492   -0.0740   -1.4953 C   0  0  0  0  0  0  0  0  0  0  0  0
    4.1188   -0.9008   -1.8546 C   0  0  0  0  0  0  0  0  0  0  0  0
    5.1816   -1.0916   -0.9704 C   0  0  0  0  0  0  0  0  0  0  0  0
    5.1787   -0.4617    0.2725 C   0  0  0  0  0  0  0  0  0  0  0  0
    4.1080    0.3540    0.6425 C   0  0  0  0  0  0  0  0  0  0  0  0
    3.0343    0.5475   -0.2282 C   0  0  0  0  0  0  0  0  0  0  0  0
    1.9129    1.3432    0.0825 N   0  0  0  0  0  0  0  0  0  0  0  0
    1.6456    2.0465    1.2398 C   0  0  0  0  0  0  0  0  0  0  0  0
    2.3621    2.1131    2.2345 O   0  0  0  0  0  0  0  0  0  0  0  0
    0.3310    2.8223    1.1694 C   0  0  0  0  0  0  0  0  0  0  0  0
   -0.6490    2.0585    0.4632 O   0  0  0  0  0  0  0  0  0  0  0  0
   -1.9014    2.1586    0.9610 C   0  0  0  0  0  0  0  0  0  0  0  0
   -2.3012    3.0074    1.7418 O   0  0  0  0  0  0  0  0  0  0  0  0
   -2.7888    1.1139    0.4010 C   0  0  0  0  0  0  0  0  0  0  0  0
   -4.0799    1.5424    0.0402 C   0  0  0  0  0  0  0  0  0  0  0  0
   -4.9928    0.6219   -0.4723 C   0  0  0  0  0  0  0  0  0  0  0  0
   -6.3392    1.0616   -0.8486 N   0  0  0  0  0  4  0  0  0  0  0  0
   -7.1948    0.1841   -1.0521 O   0  0  0  0  0  0  0  0  0  0  0  0
   -6.5370    2.2839   -0.9409 O   0  0  0  0  0  1  0  0  0  0  0  0
   -4.6359   -0.7184   -0.6173 C   0  0  0  0  0  0  0  0  0  0  0  0
   -3.3525   -1.1351   -0.2443 C   0  0  0  0  0  0  0  0  0  0  0  0
   -2.3957   -0.2402    0.2700 C   0  0  0  0  0  0  0  0  0  0  0  0
   -1.1457   -0.6874    0.6845 N   0  0  0  0  0  0  0  0  0  0  0  0
   -0.9609   -0.8198    2.1394 C   0  0  0  0  0  0  0  0  0  0  0  0
    0.2778   -1.6986    2.2664 C   0  0  0  0  0  0  0  0  0  0  0  0
    0.1211   -2.6559    1.0982 C   0  0  0  0  0  0  0  0  0  0  0  0
   -0.4276   -1.7653   -0.0122 C   0  0  0  0  0  0  0  0  0  0  0  0
    1.2550    0.3175   -4.2004 H   0  0  0  0  0  0  0  0  0  0  0  0
    3.0139    0.3827   -4.0839 H   0  0  0  0  0  0  0  0  0  0  0  0
    2.1346   -1.1744   -3.8682 H   0  0  0  0  0  0  0  0  0  0  0  0
    4.1490   -1.4176   -2.8104 H   0  0  0  0  0  0  0  0  0  0  0  0
    6.0115   -1.7377   -1.2518 H   0  0  0  0  0  0  0  0  0  0  0  0
    6.0082   -0.6077    0.9612 H   0  0  0  0  0  0  0  0  0  0  0  0
    4.1375    0.8191    1.6181 H   0  0  0  0  0  0  0  0  0  0  0  0
    1.1722    1.3226   -0.6136 H   0  0  0  0  0  0  0  0  0  0  0  0
    0.0258    3.0323    2.1976 H   0  0  0  0  0  0  0  0  0  0  0  0
    0.5081    3.7619    0.6402 H   0  0  0  0  0  0  0  0  0  0  0  0
   -4.3540    2.5865    0.1714 H   0  0  0  0  0  0  0  0  0  0  0  0
   -5.3405   -1.4525   -0.9990 H   0  0  0  0  0  0  0  0  0  0  0  0
   -3.1267   -2.1942   -0.3259 H   0  0  0  0  0  0  0  0  0  0  0  0
   -1.8230   -1.3175    2.5994 H   0  0  0  0  0  0  0  0  0  0  0  0
   -0.8076    0.1458    2.6285 H   0  0  0  0  0  0  0  0  0  0  0  0
    1.1867   -1.0973    2.1415 H   0  0  0  0  0  0  0  0  0  0  0  0
    0.3313   -2.2100    3.2309 H   0  0  0  0  0  0  0  0  0  0  0  0
    1.0605   -3.1424    0.8175 H   0  0  0  0  0  0  0  0  0  0  0  0
   -0.6086   -3.4364    1.3472 H   0  0  0  0  0  0  0  0  0  0  0  0
    0.3964   -1.3193   -0.5770 H   0  0  0  0  0  0  0  0  0  0  0  0
   -1.0270   -2.3470   -0.7172 H   0  0  0  0  0  0  0  0  0  0  0  0
  1  2  1  0
  2  3  1  0
  3  4  2  0
  4  5  1  0
  5  6  2  0
  6  7  1  0
  7  8  2  0
  8  9  1  0
  9 10  1  0
 10 11  2  0
 10 12  1  0
 12 13  1  0
 13 14  1  0
 14 15  2  0
 14 16  1  0
 16 17  2  0
 17 18  1  0
 18 19  1  0
 19 20  2  0
 19 21  1  0
 18 22  2  0
 22 23  1  0
 23 24  2  0
 24 25  1  0
 25 26  1  0
 26 27  1  0
 27 28  1  0
 28 29  1  0
  8  3  1  0
 24 16  1  0
 29 25  1  0
  1 30  1  0
  1 31  1  0
  1 32  1  0
  4 33  1  0
  5 34  1  0
  6 35  1  0
  7 36  1  0
  9 37  1  0
 12 38  1  0
 12 39  1  0
 17 40  1  0
 22 41  1  0
 23 42  1  0
 26 43  1  0
 26 44  1  0
 27 45  1  0
 27 46  1  0
 28 47  1  0
 28 48  1  0
 29 49  1  0
 29 50  1  0
M  CHG  2  19   1  21  -1
M  END
$$$$
