
     RDKit          3D

 47 50  0  0  0  0  0  0  0  0999 V2000
    6.7613    2.5617   -1.0737 C   0  0  0  0  0  0  0  0  0  0  0  0
    5.4578    1.8784   -0.7418 C   0  0  0  0  0  0  0  0  0  0  0  0
    4.4317    2.1652   -1.3442 O   0  0  0  0  0  0  0  0  0  0  0  0
    5.6003    0.9649    0.2868 N   0  0  0  0  0  0  0  0  0  0  0  0
    4.6033    0.1546    0.8721 C   0  0  0  0  0  0  0  0  0  0  0  0
    5.0228   -0.7129    1.8891 C   0  0  0  0  0  0  0  0  0  0  0  0
    4.1135   -1.5570    2.5224 C   0  0  0  0  0  0  0  0  0  0  0  0
    2.7731   -1.5390    2.1441 C   0  0  0  0  0  0  0  0  0  0  0  0
    2.3292   -0.6751    1.1352 C   0  0  0  0  0  0  0  0  0  0  0  0
    0.9544   -0.7314    0.8189 N   0  0  0  0  0  0  0  0  0  0  0  0
    0.2656    0.0497   -0.0872 C   0  0  0  0  0  0  0  0  0  0  0  0
    0.6771    0.9934   -0.7443 O   0  0  0  0  0  0  0  0  0  0  0  0
   -1.1708   -0.2898   -0.2014 C   0  0  0  0  0  0  0  0  0  0  0  0
   -2.0710    0.7228    0.1367 C   0  0  0  0  0  0  0  0  0  0  0  0
   -3.4257    0.4449    0.0954 C   0  0  0  0  0  0  0  0  0  0  0  0
   -4.4712    1.4249    0.4451 C   0  0  0  0  0  0  0  0  0  0  0  0
   -5.7712    1.3313   -0.0778 C   0  0  0  0  0  0  0  0  0  0  0  0
   -6.7508    2.2639    0.2628 C   0  0  0  0  0  0  0  0  0  0  0  0
   -6.4099    3.2820    1.1330 C   0  0  0  0  0  0  0  0  0  0  0  0
   -5.1825    3.4188    1.6725 N   0  0  0  0  0  0  0  0  0  0  0  0
   -4.2541    2.4932    1.3181 C   0  0  0  0  0  0  0  0  0  0  0  0
   -3.8755   -0.7809   -0.2781 N   0  0  0  0  0  0  0  0  0  0  0  0
   -3.0101   -1.7428   -0.6365 C   0  0  0  0  0  0  0  0  0  0  0  0
   -3.5213   -2.9716   -1.0339 C   0  0  0  0  0  0  0  0  0  0  0  0
   -2.6933   -4.0224   -1.4373 C   0  0  0  0  0  0  0  0  0  0  0  0
   -1.3193   -3.8388   -1.4521 C   0  0  0  0  0  0  0  0  0  0  0  0
   -0.2866   -5.1174   -1.9541 Cl  0  0  0  0  0  0  0  0  0  0  0  0
   -0.7767   -2.6187   -1.0581 C   0  0  0  0  0  0  0  0  0  0  0  0
   -1.6165   -1.5581   -0.6284 C   0  0  0  0  0  0  0  0  0  0  0  0
    3.2519    0.1684    0.5019 C   0  0  0  0  0  0  0  0  0  0  0  0
    6.9719    3.3281   -0.3228 H   0  0  0  0  0  0  0  0  0  0  0  0
    6.6865    3.0321   -2.0584 H   0  0  0  0  0  0  0  0  0  0  0  0
    7.5807    1.8374   -1.1038 H   0  0  0  0  0  0  0  0  0  0  0  0
    6.5328    0.8583    0.6645 H   0  0  0  0  0  0  0  0  0  0  0  0
    6.0638   -0.7459    2.2001 H   0  0  0  0  0  0  0  0  0  0  0  0
    4.4493   -2.2283    3.3085 H   0  0  0  0  0  0  0  0  0  0  0  0
    2.0823   -2.2075    2.6516 H   0  0  0  0  0  0  0  0  0  0  0  0
    0.4108   -1.4051    1.3448 H   0  0  0  0  0  0  0  0  0  0  0  0
   -1.6941    1.7037    0.4109 H   0  0  0  0  0  0  0  0  0  0  0  0
   -6.0268    0.5245   -0.7625 H   0  0  0  0  0  0  0  0  0  0  0  0
   -7.7532    2.1932   -0.1438 H   0  0  0  0  0  0  0  0  0  0  0  0
   -7.1353    4.0341    1.4293 H   0  0  0  0  0  0  0  0  0  0  0  0
   -3.2920    2.6496    1.7994 H   0  0  0  0  0  0  0  0  0  0  0  0
   -4.6004   -3.1151   -1.0353 H   0  0  0  0  0  0  0  0  0  0  0  0
   -3.1319   -4.9682   -1.7441 H   0  0  0  0  0  0  0  0  0  0  0  0
    0.3030   -2.4886   -1.1049 H   0  0  0  0  0  0  0  0  0  0  0  0
    2.9173    0.8352   -0.2840 H   0  0  0  0  0  0  0  0  0  0  0  0
  1  2  1  0
  2  3  2  0
  2  4  1  0
  4  5  1  0
  5  6  2  0
  6  7  1  0
  7  8  2  0
  8  9  1  0
  9 10  1  0
 10 11  1  0
 11 12  2  0
 11 13  1  0
 13 14  2  0
 14 15  1  0
 15 16  1  0
 16 17  2  0
 17 18  1  0
 18 19  2  0
 19 20  1  0
 20 21  2  0
 15 22  2  0
 22 23  1  0
 23 24  2  0
 24 25  1  0
 25 26  2  0
 26 27  1  0
 26 28  1  0
 28 29  2  0
  9 30  2  0
 30  5  1  0
 29 13  1  0
 21 16  1  0
 29 23  1  0
  1 31  1  0
  1 32  1  0
  1 33  1  0
  4 34  1  0
  6 35  1  0
  7 36  1  0
  8 37  1  0
 10 38  1  0
 14 39  1  0
 17 40  1  0
 18 41  1  0
 19 42  1  0
 21 43  1  0
 24 44  1  0
 25 45  1  0
 28 46  1  0
 30 47  1  0
M  END
$$$$
