
     RDKit          3D

 57 59  0  0  0  0  0  0  0  0999 V2000
   -2.1231   -4.5506    1.2109 C   0  0  0  0  0  0  0  0  0  0  0  0
   -1.6631   -3.1532    1.5869 C   0  0  0  0  0  0  0  0  0  0  0  0
   -0.9868   -2.4470    0.4164 C   0  0  0  0  0  0  0  0  0  0  0  0
   -0.5476   -1.1490    0.8377 O   0  0  0  0  0  0  0  0  0  0  0  0
   -1.1685   -0.0994    0.2058 C   0  0  0  0  0  0  0  0  0  0  0  0
   -2.5571   -0.0271    0.0552 C   0  0  0  0  0  0  0  0  0  0  0  0
   -3.1627    1.0672   -0.5802 C   0  0  0  0  0  0  0  0  0  0  0  0
   -4.5694    1.0863   -0.6970 N   0  0  0  0  0  0  0  0  0  0  0  0
   -5.0764    1.6111   -1.9772 C   0  0  0  0  0  0  0  0  0  0  0  0
   -6.4619    1.0548   -2.2740 C   0  0  0  0  0  0  0  0  0  0  0  0
   -5.2020    1.6337    0.5207 C   0  0  0  0  0  0  0  0  0  0  0  0
   -5.9635    0.5360    1.2505 C   0  0  0  0  0  0  0  0  0  0  0  0
   -2.3425    2.1076   -1.0367 C   0  0  0  0  0  0  0  0  0  0  0  0
   -0.9561    2.0595   -0.8629 C   0  0  0  0  0  0  0  0  0  0  0  0
   -0.3624    0.9597   -0.2362 C   0  0  0  0  0  0  0  0  0  0  0  0
    1.0938    0.9185   -0.0434 C   0  0  0  0  0  0  0  0  0  0  0  0
    1.9972    0.6760   -1.0153 C   0  0  0  0  0  0  0  0  0  0  0  0
    1.6172    0.4874   -2.3820 C   0  0  0  0  0  0  0  0  0  0  0  0
    1.2829    0.3175   -3.4822 N   0  0  0  0  0  0  0  0  0  0  0  0
    3.3762    0.6108   -0.6750 C   0  0  0  0  0  0  0  0  0  0  0  0
    4.4223    1.1882   -1.2327 N   0  0  0  0  0  0  0  0  0  0  0  0
    5.5177    0.7503   -0.5298 C   0  0  0  0  0  0  0  0  0  0  0  0
    6.8748    1.0614   -0.6964 C   0  0  0  0  0  0  0  0  0  0  0  0
    7.8231    0.4586    0.1499 C   0  0  0  0  0  0  0  0  0  0  0  0
    9.2793    0.7948    0.0101 C   0  0  0  0  0  0  0  0  0  0  0  0
    7.4006   -0.4205    1.1594 C   0  0  0  0  0  0  0  0  0  0  0  0
    6.0484   -0.7390    1.3426 C   0  0  0  0  0  0  0  0  0  0  0  0
    5.1412   -0.1312    0.4746 C   0  0  0  0  0  0  0  0  0  0  0  0
    3.7776   -0.2097    0.3583 N   0  0  0  0  0  0  0  0  0  0  0  0
   -2.8595   -4.5144    0.4018 H   0  0  0  0  0  0  0  0  0  0  0  0
   -2.5885   -5.0416    2.0711 H   0  0  0  0  0  0  0  0  0  0  0  0
   -1.2802   -5.1674    0.8827 H   0  0  0  0  0  0  0  0  0  0  0  0
   -2.5196   -2.5656    1.9371 H   0  0  0  0  0  0  0  0  0  0  0  0
   -0.9688   -3.2035    2.4345 H   0  0  0  0  0  0  0  0  0  0  0  0
   -1.6316   -2.4219   -0.4711 H   0  0  0  0  0  0  0  0  0  0  0  0
   -0.0856   -3.0023    0.1290 H   0  0  0  0  0  0  0  0  0  0  0  0
   -3.1935   -0.8261    0.4233 H   0  0  0  0  0  0  0  0  0  0  0  0
   -4.4193    1.3044   -2.8013 H   0  0  0  0  0  0  0  0  0  0  0  0
   -5.1095    2.7065   -1.9686 H   0  0  0  0  0  0  0  0  0  0  0  0
   -7.1974    1.3895   -1.5362 H   0  0  0  0  0  0  0  0  0  0  0  0
   -6.8008    1.3900   -3.2594 H   0  0  0  0  0  0  0  0  0  0  0  0
   -6.4537   -0.0397   -2.2686 H   0  0  0  0  0  0  0  0  0  0  0  0
   -5.8991    2.4407    0.2628 H   0  0  0  0  0  0  0  0  0  0  0  0
   -4.4674    2.0783    1.2067 H   0  0  0  0  0  0  0  0  0  0  0  0
   -6.7244    0.0824    0.6068 H   0  0  0  0  0  0  0  0  0  0  0  0
   -5.2906   -0.2603    1.5843 H   0  0  0  0  0  0  0  0  0  0  0  0
   -6.4619    0.9468    2.1339 H   0  0  0  0  0  0  0  0  0  0  0  0
   -2.7736    2.9828   -1.5143 H   0  0  0  0  0  0  0  0  0  0  0  0
   -0.3506    2.8906   -1.2178 H   0  0  0  0  0  0  0  0  0  0  0  0
    1.3957    1.0753    0.9910 H   0  0  0  0  0  0  0  0  0  0  0  0
    7.1698    1.7546   -1.4766 H   0  0  0  0  0  0  0  0  0  0  0  0
    9.5049    1.1684   -0.9943 H   0  0  0  0  0  0  0  0  0  0  0  0
    9.5566    1.5616    0.7397 H   0  0  0  0  0  0  0  0  0  0  0  0
    9.8967   -0.0957    0.1723 H   0  0  0  0  0  0  0  0  0  0  0  0
    8.1384   -0.8772    1.8187 H   0  0  0  0  0  0  0  0  0  0  0  0
    5.7337   -1.4240    2.1217 H   0  0  0  0  0  0  0  0  0  0  0  0
    3.1709   -0.7848    0.9256 H   0  0  0  0  0  0  0  0  0  0  0  0
  1  2  1  0
  2  3  1  0
  3  4  1  0
  4  5  1  0
  5  6  2  0
  6  7  1  0
  7  8  1  0
  8  9  1  0
  9 10  1  0
  8 11  1  0
 11 12  1  0
  7 13  2  0
 13 14  1  0
 14 15  2  0
 15 16  1  0
 16 17  2  3
 17 18  1  0
 18 19  3  0
 17 20  1  0
 20 21  2  0
 21 22  1  0
 22 23  2  0
 23 24  1  0
 24 25  1  0
 24 26  2  0
 26 27  1  0
 27 28  2  0
 28 29  1  0
 15  5  1  0
 29 20  1  0
 28 22  1  0
  1 30  1  0
  1 31  1  0
  1 32  1  0
  2 33  1  0
  2 34  1  0
  3 35  1  0
  3 36  1  0
  6 37  1  0
  9 38  1  0
  9 39  1  0
 10 40  1  0
 10 41  1  0
 10 42  1  0
 11 43  1  0
 11 44  1  0
 12 45  1  0
 12 46  1  0
 12 47  1  0
 13 48  1  0
 14 49  1  0
 16 50  1  0
 23 51  1  0
 25 52  1  0
 25 53  1  0
 25 54  1  0
 26 55  1  0
 27 56  1  0
 29 57  1  0
M  END
$$$$
