
     RDKit          3D

 48 51  0  0  0  0  0  0  0  0999 V2000
    4.5213    1.6295    2.8932 C   0  0  0  0  0  0  0  0  0  0  0  0
    3.6073    0.9481    1.9203 C   0  0  0  0  0  0  0  0  0  0  0  0
    2.3307    0.5326    2.3052 C   0  0  0  0  0  0  0  0  0  0  0  0
    1.4850   -0.0914    1.3810 C   0  0  0  0  0  0  0  0  0  0  0  0
    1.8810   -0.3236    0.0701 C   0  0  0  0  0  0  0  0  0  0  0  0
    1.0329   -0.9307   -0.7734 N   0  0  0  0  0  0  0  0  0  0  0  0
    1.4226   -1.1545   -2.0568 C   0  0  0  0  0  0  0  0  0  0  0  0
    0.2272   -1.9807   -3.1063 S   0  0  0  0  0  0  0  0  0  0  0  0
   -1.2766   -1.8224   -2.0846 C   0  0  0  0  0  0  0  0  0  0  0  0
   -1.7125   -0.3696   -1.9362 C   0  0  0  0  0  0  0  0  0  0  0  0
   -1.5705    0.4328   -2.8667 O   0  0  0  0  0  0  0  0  0  0  0  0
   -2.2546    0.0562   -0.7327 N   0  0  0  0  0  0  0  0  0  0  0  0
   -2.6894   -0.6604    0.3986 C   0  0  0  0  0  0  0  0  0  0  0  0
   -2.9926   -2.0066    0.5509 C   0  0  0  0  0  0  0  0  0  0  0  0
   -3.4009   -2.4695    1.8085 C   0  0  0  0  0  0  0  0  0  0  0  0
   -3.5213   -1.5842    2.8893 C   0  0  0  0  0  0  0  0  0  0  0  0
   -3.2493   -0.2228    2.7247 C   0  0  0  0  0  0  0  0  0  0  0  0
   -2.8521    0.2232    1.4741 C   0  0  0  0  0  0  0  0  0  0  0  0
   -2.5002    1.6252    1.0880 C   0  0  0  0  0  0  0  0  0  0  0  0
   -2.4017    1.5043   -0.4447 C   0  0  0  0  0  0  0  0  0  0  0  0
   -3.6437    2.0797   -1.1268 C   0  0  0  0  0  0  0  0  0  0  0  0
    2.6888   -0.8045   -2.5330 C   0  0  0  0  0  0  0  0  0  0  0  0
    3.1339   -1.0672   -3.9403 C   0  0  0  0  0  0  0  0  0  0  0  0
    3.5658   -0.1708   -1.6431 C   0  0  0  0  0  0  0  0  0  0  0  0
    3.1712    0.0846   -0.3213 C   0  0  0  0  0  0  0  0  0  0  0  0
    4.0227    0.7207    0.6010 C   0  0  0  0  0  0  0  0  0  0  0  0
    4.1044    1.6251    3.9123 H   0  0  0  0  0  0  0  0  0  0  0  0
    5.4845    1.1069    2.9291 H   0  0  0  0  0  0  0  0  0  0  0  0
    4.6843    2.6711    2.5896 H   0  0  0  0  0  0  0  0  0  0  0  0
    1.9778    0.6858    3.3236 H   0  0  0  0  0  0  0  0  0  0  0  0
    0.4946   -0.4072    1.6925 H   0  0  0  0  0  0  0  0  0  0  0  0
   -1.0508   -2.2945   -1.1283 H   0  0  0  0  0  0  0  0  0  0  0  0
   -2.0889   -2.3722   -2.5703 H   0  0  0  0  0  0  0  0  0  0  0  0
   -2.9665   -2.7148   -0.2700 H   0  0  0  0  0  0  0  0  0  0  0  0
   -3.6378   -3.5291    1.9455 H   0  0  0  0  0  0  0  0  0  0  0  0
   -3.8363   -1.9586    3.8646 H   0  0  0  0  0  0  0  0  0  0  0  0
   -3.3501    0.4678    3.5598 H   0  0  0  0  0  0  0  0  0  0  0  0
   -1.5318    1.8883    1.5232 H   0  0  0  0  0  0  0  0  0  0  0  0
   -3.2531    2.3322    1.4163 H   0  0  0  0  0  0  0  0  0  0  0  0
   -1.5175    2.0399   -0.8168 H   0  0  0  0  0  0  0  0  0  0  0  0
   -3.7708    3.1336   -0.8720 H   0  0  0  0  0  0  0  0  0  0  0  0
   -4.5505    1.5437   -0.8217 H   0  0  0  0  0  0  0  0  0  0  0  0
   -3.5707    2.0039   -2.2140 H   0  0  0  0  0  0  0  0  0  0  0  0
    3.1015   -2.1403   -4.1644 H   0  0  0  0  0  0  0  0  0  0  0  0
    2.5052   -0.5214   -4.6471 H   0  0  0  0  0  0  0  0  0  0  0  0
    4.1710   -0.7328   -4.1028 H   0  0  0  0  0  0  0  0  0  0  0  0
    4.5643    0.1230   -1.9752 H   0  0  0  0  0  0  0  0  0  0  0  0
    5.0122    1.0495    0.2871 H   0  0  0  0  0  0  0  0  0  0  0  0
  1  2  1  0
  2  3  2  0
  3  4  1  0
  4  5  2  0
  5  6  1  0
  6  7  2  0
  7  8  1  0
  8  9  1  0
  9 10  1  0
 10 11  2  0
 10 12  1  0
 12 13  1  0
 13 14  2  0
 14 15  1  0
 15 16  2  0
 16 17  1  0
 17 18  2  0
 18 19  1  0
 19 20  1  0
 20 21  1  0
  7 22  1  0
 22 23  1  0
 22 24  2  0
 24 25  1  0
 25 26  2  0
 26  2  1  0
 25  5  1  0
 20 12  1  0
 18 13  1  0
  1 27  1  0
  1 28  1  0
  1 29  1  0
  3 30  1  0
  4 31  1  0
  9 32  1  0
  9 33  1  0
 14 34  1  0
 15 35  1  0
 16 36  1  0
 17 37  1  0
 19 38  1  0
 19 39  1  0
 20 40  1  0
 21 41  1  0
 21 42  1  0
 21 43  1  0
 23 44  1  0
 23 45  1  0
 23 46  1  0
 24 47  1  0
 26 48  1  0
M  END
$$$$
