
     RDKit          3D

 36 37  0  0  0  0  0  0  0  0999 V2000
    5.7077   -0.9665   -0.1983 C   0  0  0  0  0  0  0  0  0  0  0  0
    4.3388   -0.4945   -0.1023 N   0  0  0  0  0  0  0  0  0  0  0  0
    3.3634   -0.6480   -1.0717 C   0  0  0  0  0  0  0  0  0  0  0  0
    3.6481   -1.3994   -2.5478 S   0  0  0  0  0  0  0  0  0  0  0  0
    2.1246   -0.1169   -0.6762 N   0  0  0  0  0  0  0  0  0  0  0  0
    2.0378    1.0969    0.1463 C   0  0  0  0  0  0  0  0  0  0  0  0
    0.9194    0.9756    1.1772 C   0  0  0  0  0  0  0  0  0  0  0  0
   -0.3826    0.5700    0.5350 C   0  0  0  0  0  0  0  0  0  0  0  0
   -1.5962    0.8177    1.1950 C   0  0  0  0  0  0  0  0  0  0  0  0
   -2.8135    0.4278    0.6257 C   0  0  0  0  0  0  0  0  0  0  0  0
   -4.0426    0.6387    1.2010 O   0  0  0  0  0  0  0  0  0  0  0  0
   -4.0793    1.2911    2.4614 C   0  0  0  0  0  0  0  0  0  0  0  0
   -2.8186   -0.2283   -0.6201 C   0  0  0  0  0  0  0  0  0  0  0  0
   -4.0524   -0.5746   -1.1140 O   0  0  0  0  0  0  0  0  0  0  0  0
   -4.0984   -1.2601   -2.3568 C   0  0  0  0  0  0  0  0  0  0  0  0
   -1.6058   -0.4860   -1.2697 C   0  0  0  0  0  0  0  0  0  0  0  0
   -0.3815   -0.1010   -0.6973 C   0  0  0  0  0  0  0  0  0  0  0  0
    0.9026   -0.3967   -1.4451 C   0  0  0  0  0  0  0  0  0  0  0  0
    6.1715   -0.5981   -1.1168 H   0  0  0  0  0  0  0  0  0  0  0  0
    6.2596   -0.5875    0.6653 H   0  0  0  0  0  0  0  0  0  0  0  0
    5.7134   -2.0598   -0.1857 H   0  0  0  0  0  0  0  0  0  0  0  0
    3.9681   -0.4681    0.8372 H   0  0  0  0  0  0  0  0  0  0  0  0
    2.9799    1.3313    0.6487 H   0  0  0  0  0  0  0  0  0  0  0  0
    1.8431    1.9326   -0.5391 H   0  0  0  0  0  0  0  0  0  0  0  0
    0.8043    1.9359    1.6929 H   0  0  0  0  0  0  0  0  0  0  0  0
    1.1841    0.2170    1.9240 H   0  0  0  0  0  0  0  0  0  0  0  0
   -1.5636    1.3197    2.1565 H   0  0  0  0  0  0  0  0  0  0  0  0
   -3.6747    2.3062    2.3931 H   0  0  0  0  0  0  0  0  0  0  0  0
   -5.1273    1.3718    2.7659 H   0  0  0  0  0  0  0  0  0  0  0  0
   -3.5563    0.7059    3.2250 H   0  0  0  0  0  0  0  0  0  0  0  0
   -3.6953   -0.6406   -3.1646 H   0  0  0  0  0  0  0  0  0  0  0  0
   -5.1485   -1.4636   -2.5877 H   0  0  0  0  0  0  0  0  0  0  0  0
   -3.5793   -2.2223   -2.2974 H   0  0  0  0  0  0  0  0  0  0  0  0
   -1.5830   -0.9920   -2.2300 H   0  0  0  0  0  0  0  0  0  0  0  0
    0.9327    0.2202   -2.3518 H   0  0  0  0  0  0  0  0  0  0  0  0
    0.9000   -1.4543   -1.7317 H   0  0  0  0  0  0  0  0  0  0  0  0
  1  2  1  0
  2  3  1  0
  3  4  2  0
  3  5  1  0
  5  6  1  0
  6  7  1  0
  7  8  1  0
  8  9  2  0
  9 10  1  0
 10 11  1  0
 11 12  1  0
 10 13  2  0
 13 14  1  0
 14 15  1  0
 13 16  1  0
 16 17  2  0
 17 18  1  0
 18  5  1  0
 17  8  1  0
  1 19  1  0
  1 20  1  0
  1 21  1  0
  2 22  1  0
  6 23  1  0
  6 24  1  0
  7 25  1  0
  7 26  1  0
  9 27  1  0
 12 28  1  0
 12 29  1  0
 12 30  1  0
 15 31  1  0
 15 32  1  0
 15 33  1  0
 16 34  1  0
 18 35  1  0
 18 36  1  0
M  END
$$$$
