
     RDKit          3D

 51 54  0  0  0  0  0  0  0  0999 V2000
    2.1300    0.3277   -2.1876 C   0  0  0  0  0  0  0  0  0  0  0  0
    2.4844   -0.7153   -1.1230 C   0  0  0  0  0  0  0  0  0  0  0  0
    1.4735   -1.8824   -1.1550 C   0  0  0  0  0  0  0  0  0  0  0  0
    0.6518   -1.6092    0.0629 C   0  0  0  0  0  0  0  0  0  0  0  0
   -0.5140   -2.2562    0.4463 C   0  0  0  0  0  0  0  0  0  0  0  0
   -1.0909   -1.8932    1.6670 C   0  0  0  0  0  0  0  0  0  0  0  0
   -2.5882   -2.6953    2.1822 S   0  0  0  0  0  6  0  0  0  0  0  0
   -2.5036   -4.0807    1.7768 O   0  0  0  0  0  0  0  0  0  0  0  0
   -2.8873   -2.3143    3.5442 O   0  0  0  0  0  0  0  0  0  0  0  0
   -3.7131   -1.9757    1.1826 N   0  0  0  0  0  0  0  0  0  0  0  0
   -4.2514   -0.6756    1.5588 C   0  0  0  0  0  0  0  0  0  0  0  0
   -4.8052    0.0364    0.3501 C   0  0  0  0  0  0  0  0  0  0  0  0
   -3.9350    0.6328   -0.5751 C   0  0  0  0  0  0  0  0  0  0  0  0
   -4.4379    1.2781   -1.7055 C   0  0  0  0  0  0  0  0  0  0  0  0
   -5.8131    1.3280   -1.9256 C   0  0  0  0  0  0  0  0  0  0  0  0
   -6.6864    0.7304   -1.0182 C   0  0  0  0  0  0  0  0  0  0  0  0
   -6.1860    0.0842    0.1135 C   0  0  0  0  0  0  0  0  0  0  0  0
   -0.4939   -0.9274    2.4924 C   0  0  0  0  0  0  0  0  0  0  0  0
    0.6861   -0.2916    2.0885 C   0  0  0  0  0  0  0  0  0  0  0  0
    1.2475   -0.6334    0.8669 C   0  0  0  0  0  0  0  0  0  0  0  0
    2.4155   -0.1352    0.2443 N   0  0  0  0  0  0  0  0  0  0  0  0
    3.3052    0.7734    0.8191 C   0  0  0  0  0  0  0  0  0  0  0  0
    3.1192    1.2686    1.9396 O   0  0  0  0  0  0  0  0  0  0  0  0
    4.5806    1.1482    0.0031 C   0  0  0  0  0  0  0  0  0  0  0  0
    5.9092    1.2989    0.8022 C   0  0  0  0  0  0  0  0  0  0  0  0
    6.2667    2.4681   -0.1338 C   0  0  0  0  0  0  0  0  0  0  0  0
    4.7564    2.6474   -0.3742 C   0  0  0  0  0  0  0  0  0  0  0  0
    2.8278    1.1687   -2.1779 H   0  0  0  0  0  0  0  0  0  0  0  0
    1.1263    0.7369   -2.0267 H   0  0  0  0  0  0  0  0  0  0  0  0
    2.1599   -0.1176   -3.1876 H   0  0  0  0  0  0  0  0  0  0  0  0
    3.4922   -1.1000   -1.3105 H   0  0  0  0  0  0  0  0  0  0  0  0
    1.9915   -2.8404   -1.0347 H   0  0  0  0  0  0  0  0  0  0  0  0
    0.8716   -1.9064   -2.0683 H   0  0  0  0  0  0  0  0  0  0  0  0
   -0.9599   -3.0257   -0.1774 H   0  0  0  0  0  0  0  0  0  0  0  0
   -4.3156   -2.6247    0.6818 H   0  0  0  0  0  0  0  0  0  0  0  0
   -3.4843   -0.0401    2.0151 H   0  0  0  0  0  0  0  0  0  0  0  0
   -5.0428   -0.8162    2.3039 H   0  0  0  0  0  0  0  0  0  0  0  0
   -2.8588    0.5936   -0.4175 H   0  0  0  0  0  0  0  0  0  0  0  0
   -3.7569    1.7409   -2.4149 H   0  0  0  0  0  0  0  0  0  0  0  0
   -6.2048    1.8311   -2.8059 H   0  0  0  0  0  0  0  0  0  0  0  0
   -7.7588    0.7674   -1.1929 H   0  0  0  0  0  0  0  0  0  0  0  0
   -6.8819   -0.3799    0.8090 H   0  0  0  0  0  0  0  0  0  0  0  0
   -0.9377   -0.6641    3.4506 H   0  0  0  0  0  0  0  0  0  0  0  0
    1.1310    0.4551    2.7377 H   0  0  0  0  0  0  0  0  0  0  0  0
    4.7563    0.5052   -0.8664 H   0  0  0  0  0  0  0  0  0  0  0  0
    5.7847    1.5978    1.8494 H   0  0  0  0  0  0  0  0  0  0  0  0
    6.5857    0.4410    0.7591 H   0  0  0  0  0  0  0  0  0  0  0  0
    6.8220    2.1627   -1.0280 H   0  0  0  0  0  0  0  0  0  0  0  0
    6.7782    3.3131    0.3333 H   0  0  0  0  0  0  0  0  0  0  0  0
    4.2786    3.3484    0.3201 H   0  0  0  0  0  0  0  0  0  0  0  0
    4.4756    2.9167   -1.3958 H   0  0  0  0  0  0  0  0  0  0  0  0
  1  2  1  0
  2  3  1  0
  3  4  1  0
  4  5  2  0
  5  6  1  0
  6  7  1  0
  7  8  2  0
  7  9  2  0
  7 10  1  0
 10 11  1  0
 11 12  1  0
 12 13  2  0
 13 14  1  0
 14 15  2  0
 15 16  1  0
 16 17  2  0
  6 18  2  0
 18 19  1  0
 19 20  2  0
 20 21  1  0
 21 22  1  0
 22 23  2  0
 22 24  1  0
 24 25  1  0
 25 26  1  0
 26 27  1  0
 21  2  1  0
 27 24  1  0
 20  4  1  0
 17 12  1  0
  1 28  1  0
  1 29  1  0
  1 30  1  0
  2 31  1  0
  3 32  1  0
  3 33  1  0
  5 34  1  0
 10 35  1  0
 11 36  1  0
 11 37  1  0
 13 38  1  0
 14 39  1  0
 15 40  1  0
 16 41  1  0
 17 42  1  0
 18 43  1  0
 19 44  1  0
 24 45  1  0
 25 46  1  0
 25 47  1  0
 26 48  1  0
 26 49  1  0
 27 50  1  0
 27 51  1  0
M  END
$$$$
