
     RDKit          3D

 42 43  0  0  0  0  0  0  0  0999 V2000
    4.2392   -1.4938    1.7851 C   0  0  0  0  0  0  0  0  0  0  0  0
    3.8325   -0.1387    1.2436 C   0  0  0  0  0  0  0  0  0  0  0  0
    2.5984    0.2623    1.1484 N   0  0  0  0  0  0  0  0  0  0  0  0
    1.5870   -0.5713    1.5079 N   0  0  0  0  0  0  0  0  0  0  0  0
    0.2753   -0.1155    1.4601 C   0  0  0  0  0  0  0  0  0  0  0  0
   -0.0722    1.0223    1.1618 O   0  0  0  0  0  0  0  0  0  0  0  0
   -0.7099   -1.2053    1.8412 C   0  0  0  0  0  0  0  0  0  0  0  0
   -2.1707   -0.7744    1.7265 C   0  0  0  0  0  0  0  0  0  0  0  0
   -2.6236   -0.6012    0.2725 C   0  0  0  0  0  0  0  0  0  0  0  0
   -4.0686   -0.3897    0.2497 N   0  0  0  0  0  0  0  0  0  0  0  0
   -4.7169   -0.1846   -0.9759 C   0  0  0  0  0  0  0  0  0  0  0  0
   -6.0309    0.3085   -0.9559 C   0  0  0  0  0  0  0  0  0  0  0  0
   -6.7663    0.4767   -2.1330 C   0  0  0  0  0  0  0  0  0  0  0  0
   -6.2061    0.1277   -3.3569 C   0  0  0  0  0  0  0  0  0  0  0  0
   -4.9192   -0.3999   -3.3968 C   0  0  0  0  0  0  0  0  0  0  0  0
   -4.1889   -0.5671   -2.2141 C   0  0  0  0  0  0  0  0  0  0  0  0
    4.9066    0.8003    0.7932 C   0  0  0  0  0  0  0  0  0  0  0  0
    4.6454    2.1720    0.7990 C   0  0  0  0  0  0  0  0  0  0  0  0
    5.6433    3.0298    0.3749 C   0  0  0  0  0  0  0  0  0  0  0  0
    6.8561    2.6145   -0.0484 N   0  0  0  0  0  0  0  0  0  0  0  0
    7.0761    1.2835   -0.0627 C   0  0  0  0  0  0  0  0  0  0  0  0
    6.1435    0.3427    0.3410 C   0  0  0  0  0  0  0  0  0  0  0  0
    5.3013   -1.5397    2.0349 H   0  0  0  0  0  0  0  0  0  0  0  0
    3.6925   -1.7051    2.7090 H   0  0  0  0  0  0  0  0  0  0  0  0
    4.0097   -2.2635    1.0429 H   0  0  0  0  0  0  0  0  0  0  0  0
    1.7836   -1.5338    1.7503 H   0  0  0  0  0  0  0  0  0  0  0  0
   -0.5258   -2.0874    1.2170 H   0  0  0  0  0  0  0  0  0  0  0  0
   -0.5050   -1.4813    2.8828 H   0  0  0  0  0  0  0  0  0  0  0  0
   -2.3403    0.1568    2.2815 H   0  0  0  0  0  0  0  0  0  0  0  0
   -2.7936   -1.5402    2.2069 H   0  0  0  0  0  0  0  0  0  0  0  0
   -2.1123    0.2476   -0.1937 H   0  0  0  0  0  0  0  0  0  0  0  0
   -2.3694   -1.5117   -0.2822 H   0  0  0  0  0  0  0  0  0  0  0  0
   -4.3669    0.3091    0.9280 H   0  0  0  0  0  0  0  0  0  0  0  0
   -6.4981    0.5666   -0.0087 H   0  0  0  0  0  0  0  0  0  0  0  0
   -7.7772    0.8720   -2.0882 H   0  0  0  0  0  0  0  0  0  0  0  0
   -6.7736    0.2547   -4.2744 H   0  0  0  0  0  0  0  0  0  0  0  0
   -4.4802   -0.6906   -4.3474 H   0  0  0  0  0  0  0  0  0  0  0  0
   -3.1964   -0.9986   -2.2903 H   0  0  0  0  0  0  0  0  0  0  0  0
    3.6878    2.5678    1.1238 H   0  0  0  0  0  0  0  0  0  0  0  0
    5.4885    4.1051    0.3623 H   0  0  0  0  0  0  0  0  0  0  0  0
    8.0552    0.9828   -0.4257 H   0  0  0  0  0  0  0  0  0  0  0  0
    6.3901   -0.7094    0.2745 H   0  0  0  0  0  0  0  0  0  0  0  0
  1  2  1  0
  2  3  2  3
  3  4  1  0
  4  5  1  0
  5  6  2  0
  5  7  1  0
  7  8  1  0
  8  9  1  0
  9 10  1  0
 10 11  1  0
 11 12  2  0
 12 13  1  0
 13 14  2  0
 14 15  1  0
 15 16  2  0
  2 17  1  0
 17 18  2  0
 18 19  1  0
 19 20  2  0
 20 21  1  0
 21 22  2  0
 16 11  1  0
 22 17  1  0
  1 23  1  0
  1 24  1  0
  1 25  1  0
  4 26  1  0
  7 27  1  0
  7 28  1  0
  8 29  1  0
  8 30  1  0
  9 31  1  0
  9 32  1  0
 10 33  1  0
 12 34  1  0
 13 35  1  0
 14 36  1  0
 15 37  1  0
 16 38  1  0
 18 39  1  0
 19 40  1  0
 21 41  1  0
 22 42  1  0
M  END
$$$$
