
     RDKit          3D

 45 48  0  0  0  0  0  0  0  0999 V2000
    5.2487   -0.7608   -1.8170 O   0  0  0  0  0  0  0  0  0  0  0  0
    4.2672   -0.2619   -1.2779 C   0  0  0  0  0  0  0  0  0  0  0  0
    3.0074   -0.8234   -1.1786 N   0  0  0  0  0  0  0  0  0  0  0  0
    2.5787   -2.1106   -1.6057 C   0  0  0  0  0  0  0  0  0  0  0  0
    3.4684   -3.0361   -2.1696 C   0  0  0  0  0  0  0  0  0  0  0  0
    3.0335   -4.2958   -2.5898 C   0  0  0  0  0  0  0  0  0  0  0  0
    1.7007   -4.6558   -2.4502 C   0  0  0  0  0  0  0  0  0  0  0  0
    0.7994   -3.7548   -1.8853 C   0  0  0  0  0  0  0  0  0  0  0  0
    1.2156   -2.4779   -1.4533 C   0  0  0  0  0  0  0  0  0  0  0  0
    0.2395   -1.5689   -0.8513 C   0  0  0  0  0  0  0  0  0  0  0  0
    0.4083   -0.3612   -0.3451 N   0  0  0  0  0  0  0  0  0  0  0  0
   -0.8277    0.0532    0.1000 N   0  0  0  0  0  0  0  0  0  0  0  0
   -1.6729   -0.9228   -0.1640 C   0  0  0  0  0  0  0  0  0  0  0  0
   -3.3674   -0.9062    0.2025 S   0  0  0  0  0  0  0  0  0  0  0  0
   -3.5066    0.7087    1.0178 C   0  0  0  0  0  0  0  0  0  0  0  0
   -4.9272    0.9848    1.4487 C   0  0  0  0  0  0  0  0  0  0  0  0
   -5.3922    0.5435    2.6980 C   0  0  0  0  0  0  0  0  0  0  0  0
   -6.7118    0.7848    3.0884 C   0  0  0  0  0  0  0  0  0  0  0  0
   -7.5749    1.4634    2.2306 C   0  0  0  0  0  0  0  0  0  0  0  0
   -9.2011    1.7576    2.7106 Cl  0  0  0  0  0  0  0  0  0  0  0  0
   -7.1310    1.9010    0.9846 C   0  0  0  0  0  0  0  0  0  0  0  0
   -5.8119    1.6601    0.5934 C   0  0  0  0  0  0  0  0  0  0  0  0
   -1.0622   -1.9886   -0.7696 O   0  0  0  0  0  0  0  0  0  0  0  0
    4.4018    1.1070   -0.6928 C   0  0  0  0  0  0  0  0  0  0  0  0
    5.3405    1.9808   -1.2583 C   0  0  0  0  0  0  0  0  0  0  0  0
    5.5034    3.2691   -0.7451 C   0  0  0  0  0  0  0  0  0  0  0  0
    4.7363    3.6878    0.3409 C   0  0  0  0  0  0  0  0  0  0  0  0
    3.8118    2.8186    0.9205 C   0  0  0  0  0  0  0  0  0  0  0  0
    3.6455    1.5283    0.4103 C   0  0  0  0  0  0  0  0  0  0  0  0
    2.2747   -0.2232   -0.8087 H   0  0  0  0  0  0  0  0  0  0  0  0
    4.5222   -2.8085   -2.2990 H   0  0  0  0  0  0  0  0  0  0  0  0
    3.7458   -4.9927   -3.0259 H   0  0  0  0  0  0  0  0  0  0  0  0
    1.3633   -5.6365   -2.7766 H   0  0  0  0  0  0  0  0  0  0  0  0
   -0.2389   -4.0658   -1.7830 H   0  0  0  0  0  0  0  0  0  0  0  0
   -2.8483    0.7403    1.8940 H   0  0  0  0  0  0  0  0  0  0  0  0
   -3.1713    1.4992    0.3362 H   0  0  0  0  0  0  0  0  0  0  0  0
   -4.7306    0.0044    3.3732 H   0  0  0  0  0  0  0  0  0  0  0  0
   -7.0599    0.4370    4.0576 H   0  0  0  0  0  0  0  0  0  0  0  0
   -7.8062    2.4241    0.3128 H   0  0  0  0  0  0  0  0  0  0  0  0
   -5.4804    2.0001   -0.3857 H   0  0  0  0  0  0  0  0  0  0  0  0
    5.9463    1.6584   -2.1032 H   0  0  0  0  0  0  0  0  0  0  0  0
    6.2318    3.9423   -1.1908 H   0  0  0  0  0  0  0  0  0  0  0  0
    4.8659    4.6899    0.7437 H   0  0  0  0  0  0  0  0  0  0  0  0
    3.2254    3.1433    1.7768 H   0  0  0  0  0  0  0  0  0  0  0  0
    2.9406    0.8638    0.9022 H   0  0  0  0  0  0  0  0  0  0  0  0
  1  2  2  0
  2  3  1  0
  3  4  1  0
  4  5  2  0
  5  6  1  0
  6  7  2  0
  7  8  1  0
  8  9  2  0
  9 10  1  0
 10 11  2  0
 11 12  1  0
 12 13  2  0
 13 14  1  0
 14 15  1  0
 15 16  1  0
 16 17  2  0
 17 18  1  0
 18 19  2  0
 19 20  1  0
 19 21  1  0
 21 22  2  0
 13 23  1  0
  2 24  1  0
 24 25  2  0
 25 26  1  0
 26 27  2  0
 27 28  1  0
 28 29  2  0
  9  4  1  0
 23 10  1  0
 29 24  1  0
 22 16  1  0
  3 30  1  0
  5 31  1  0
  6 32  1  0
  7 33  1  0
  8 34  1  0
 15 35  1  0
 15 36  1  0
 17 37  1  0
 18 38  1  0
 21 39  1  0
 22 40  1  0
 25 41  1  0
 26 42  1  0
 27 43  1  0
 28 44  1  0
 29 45  1  0
M  END
$$$$
