
     RDKit          3D

 40 40  0  0  0  0  0  0  0  0999 V2000
   -2.7321    2.5631    3.3679 C   0  0  0  0  0  0  0  0  0  0  0  0
   -2.6535    2.4706    1.8519 C   0  0  0  0  0  0  0  0  0  0  0  0
   -1.2242    2.3283    1.3178 C   0  0  0  0  0  0  0  0  0  0  0  0
   -0.4916    1.0634    1.7660 C   0  0  0  0  0  0  0  0  0  0  0  0
   -1.2168   -0.1187    1.3237 N   0  0  0  0  0  0  0  0  0  0  0  0
   -0.7242   -0.9307    0.4526 C   0  0  0  0  0  0  0  0  0  0  0  0
    0.4538   -0.8355   -0.2920 N   0  0  0  0  0  0  0  0  0  0  0  0
    0.7477    0.2948   -1.0258 N   0  0  0  0  0  0  0  0  0  0  0  0
    2.0724    0.7199   -1.2677 C   0  0  0  0  0  0  0  0  0  0  0  0
    3.1805   -0.0916   -0.9933 C   0  0  0  0  0  0  0  0  0  0  0  0
    4.4760    0.3313   -1.3080 C   0  0  0  0  0  0  0  0  0  0  0  0
    4.6697    1.5658   -1.9207 C   0  0  0  0  0  0  0  0  0  0  0  0
    6.4184    2.1381   -2.3513 Br  0  0  0  0  0  0  0  0  0  0  0  0
    3.5804    2.3758   -2.2281 C   0  0  0  0  0  0  0  0  0  0  0  0
    2.2878    1.9477   -1.9101 C   0  0  0  0  0  0  0  0  0  0  0  0
   -1.5653   -2.2227    0.2102 C   0  0  0  0  0  0  0  0  0  0  0  0
   -2.7723   -2.2959    0.3250 O   0  0  0  0  0  0  0  0  0  0  0  0
   -0.7181   -3.2072   -0.1871 O   0  0  0  0  0  0  0  0  0  0  0  0
   -1.3374   -4.4725   -0.4598 C   0  0  0  0  0  0  0  0  0  0  0  0
   -1.8013   -4.5235   -1.9039 C   0  0  0  0  0  0  0  0  0  0  0  0
   -2.4341    1.6235    3.8428 H   0  0  0  0  0  0  0  0  0  0  0  0
   -2.0893    3.3641    3.7476 H   0  0  0  0  0  0  0  0  0  0  0  0
   -3.7602    2.7779    3.6778 H   0  0  0  0  0  0  0  0  0  0  0  0
   -3.0900    3.3818    1.4253 H   0  0  0  0  0  0  0  0  0  0  0  0
   -3.2742    1.6360    1.5054 H   0  0  0  0  0  0  0  0  0  0  0  0
   -0.6383    3.2019    1.6280 H   0  0  0  0  0  0  0  0  0  0  0  0
   -1.2690    2.3545    0.2229 H   0  0  0  0  0  0  0  0  0  0  0  0
   -0.4243    1.0368    2.8591 H   0  0  0  0  0  0  0  0  0  0  0  0
    0.5459    1.0938    1.4207 H   0  0  0  0  0  0  0  0  0  0  0  0
    0.6299   -1.6933   -0.8237 H   0  0  0  0  0  0  0  0  0  0  0  0
    0.1043    1.0785   -0.9019 H   0  0  0  0  0  0  0  0  0  0  0  0
    3.0507   -1.0599   -0.5191 H   0  0  0  0  0  0  0  0  0  0  0  0
    5.3200   -0.3115   -1.0756 H   0  0  0  0  0  0  0  0  0  0  0  0
    3.7225    3.3336   -2.7215 H   0  0  0  0  0  0  0  0  0  0  0  0
    1.4463    2.5839   -2.1731 H   0  0  0  0  0  0  0  0  0  0  0  0
   -0.5787   -5.2426   -0.2900 H   0  0  0  0  0  0  0  0  0  0  0  0
   -2.1616   -4.6739    0.2340 H   0  0  0  0  0  0  0  0  0  0  0  0
   -0.9670   -4.3151   -2.5831 H   0  0  0  0  0  0  0  0  0  0  0  0
   -2.2166   -5.5060   -2.1452 H   0  0  0  0  0  0  0  0  0  0  0  0
   -2.5662   -3.7642   -2.0974 H   0  0  0  0  0  0  0  0  0  0  0  0
  1  2  1  0
  2  3  1  0
  3  4  1  0
  4  5  1  0
  5  6  2  3
  6  7  1  0
  7  8  1  0
  8  9  1  0
  9 10  2  0
 10 11  1  0
 11 12  2  0
 12 13  1  0
 12 14  1  0
 14 15  2  0
  6 16  1  0
 16 17  2  0
 16 18  1  0
 18 19  1  0
 19 20  1  0
 15  9  1  0
  1 21  1  0
  1 22  1  0
  1 23  1  0
  2 24  1  0
  2 25  1  0
  3 26  1  0
  3 27  1  0
  4 28  1  0
  4 29  1  0
  7 30  1  0
  8 31  1  0
 10 32  1  0
 11 33  1  0
 14 34  1  0
 15 35  1  0
 19 36  1  0
 19 37  1  0
 20 38  1  0
 20 39  1  0
 20 40  1  0
M  END
$$$$
