
     RDKit          3D

 52 55  0  0  0  0  0  0  0  0999 V2000
    5.6352   -0.8779    2.1595 C   0  0  0  0  0  0  0  0  0  0  0  0
    5.8999    0.2479    1.1682 C   0  0  0  0  0  0  0  0  0  0  0  0
    5.5196   -0.1300   -0.2809 C   0  0  0  0  0  0  0  0  0  0  0  0
    5.9005    0.9810   -1.2687 C   0  0  0  0  0  0  0  0  0  0  0  0
    4.0962   -0.5544   -0.4466 N   0  0  0  0  0  0  0  0  0  0  0  0
    3.1171    0.3878   -0.1014 C   0  0  0  0  0  0  0  0  0  0  0  0
    3.3832    1.5301    0.2741 O   0  0  0  0  0  0  0  0  0  0  0  0
    1.6933   -0.0401   -0.2119 C   0  0  0  0  0  0  0  0  0  0  0  0
    0.7607    0.8481    0.1912 C   0  0  0  0  0  0  0  0  0  0  0  0
   -0.6933    0.6749    0.1837 C   0  0  0  0  0  0  0  0  0  0  0  0
   -1.4441    1.0890   -0.9158 C   0  0  0  0  0  0  0  0  0  0  0  0
   -2.8425    0.9448   -0.9239 C   0  0  0  0  0  0  0  0  0  0  0  0
   -3.5093    0.3570    0.1727 C   0  0  0  0  0  0  0  0  0  0  0  0
   -2.7404   -0.0350    1.2898 C   0  0  0  0  0  0  0  0  0  0  0  0
   -1.3428    0.1157    1.2835 C   0  0  0  0  0  0  0  0  0  0  0  0
   -3.3865   -0.6798    2.4903 C   0  0  0  0  0  0  0  0  0  0  0  0
   -4.8876   -0.4390    2.5278 C   0  0  0  0  0  0  0  0  0  0  0  0
   -5.4734   -0.7081    1.1519 C   0  0  0  0  0  0  0  0  0  0  0  0
   -4.9079    0.2244    0.1784 N   0  0  0  0  0  0  0  0  0  0  0  0
   -5.5782    0.2974   -1.1186 C   0  0  0  0  0  0  0  0  0  0  0  0
   -5.0909    1.5151   -1.8856 C   0  0  0  0  0  0  0  0  0  0  0  0
   -3.6006    1.3762   -2.1541 C   0  0  0  0  0  0  0  0  0  0  0  0
    1.3694   -1.3735   -0.7452 C   0  0  0  0  0  0  0  0  0  0  0  0
    0.2450   -1.8370   -0.8806 O   0  0  0  0  0  0  0  0  0  0  0  0
    2.4575   -2.1133   -1.1029 N   0  0  0  0  0  0  0  0  0  0  0  0
    3.7834   -1.8019   -0.9855 C   0  0  0  0  0  0  0  0  0  0  0  0
    4.8417   -2.9931   -1.5153 S   0  0  0  0  0  0  0  0  0  0  0  0
    4.5673   -1.1044    2.2325 H   0  0  0  0  0  0  0  0  0  0  0  0
    5.9843   -0.5901    3.1563 H   0  0  0  0  0  0  0  0  0  0  0  0
    6.1639   -1.7908    1.8673 H   0  0  0  0  0  0  0  0  0  0  0  0
    6.9704    0.4881    1.1993 H   0  0  0  0  0  0  0  0  0  0  0  0
    5.3802    1.1497    1.5053 H   0  0  0  0  0  0  0  0  0  0  0  0
    6.1757   -0.9669   -0.5322 H   0  0  0  0  0  0  0  0  0  0  0  0
    5.4022    1.9290   -1.0478 H   0  0  0  0  0  0  0  0  0  0  0  0
    6.9800    1.1651   -1.2390 H   0  0  0  0  0  0  0  0  0  0  0  0
    5.6364    0.6950   -2.2924 H   0  0  0  0  0  0  0  0  0  0  0  0
    1.0587    1.8238    0.5752 H   0  0  0  0  0  0  0  0  0  0  0  0
   -0.9466    1.5256   -1.7787 H   0  0  0  0  0  0  0  0  0  0  0  0
   -0.7659   -0.2119    2.1453 H   0  0  0  0  0  0  0  0  0  0  0  0
   -3.1876   -1.7581    2.4492 H   0  0  0  0  0  0  0  0  0  0  0  0
   -2.9400   -0.2926    3.4139 H   0  0  0  0  0  0  0  0  0  0  0  0
   -5.3524   -1.0877    3.2783 H   0  0  0  0  0  0  0  0  0  0  0  0
   -5.0915    0.5989    2.8217 H   0  0  0  0  0  0  0  0  0  0  0  0
   -5.2870   -1.7441    0.8407 H   0  0  0  0  0  0  0  0  0  0  0  0
   -6.5605   -0.5738    1.2006 H   0  0  0  0  0  0  0  0  0  0  0  0
   -6.6606    0.3869   -0.9681 H   0  0  0  0  0  0  0  0  0  0  0  0
   -5.4040   -0.6232   -1.6903 H   0  0  0  0  0  0  0  0  0  0  0  0
   -5.6340    1.6177   -2.8313 H   0  0  0  0  0  0  0  0  0  0  0  0
   -5.2811    2.4236   -1.2994 H   0  0  0  0  0  0  0  0  0  0  0  0
   -3.2134    2.3343   -2.5206 H   0  0  0  0  0  0  0  0  0  0  0  0
   -3.4362    0.6271   -2.9388 H   0  0  0  0  0  0  0  0  0  0  0  0
    2.2365   -3.0280   -1.4769 H   0  0  0  0  0  0  0  0  0  0  0  0
  1  2  1  0
  2  3  1  0
  3  4  1  0
  3  5  1  0
  5  6  1  0
  6  7  2  0
  6  8  1  0
  8  9  2  3
  9 10  1  0
 10 11  2  0
 11 12  1  0
 12 13  2  0
 13 14  1  0
 14 15  2  0
 14 16  1  0
 16 17  1  0
 17 18  1  0
 18 19  1  0
 19 20  1  0
 20 21  1  0
 21 22  1  0
  8 23  1  0
 23 24  2  0
 23 25  1  0
 25 26  1  0
 26 27  2  0
 26  5  1  0
 15 10  1  0
 22 12  1  0
 19 13  1  0
  1 28  1  0
  1 29  1  0
  1 30  1  0
  2 31  1  0
  2 32  1  0
  3 33  1  0
  4 34  1  0
  4 35  1  0
  4 36  1  0
  9 37  1  0
 11 38  1  0
 15 39  1  0
 16 40  1  0
 16 41  1  0
 17 42  1  0
 17 43  1  0
 18 44  1  0
 18 45  1  0
 20 46  1  0
 20 47  1  0
 21 48  1  0
 21 49  1  0
 22 50  1  0
 22 51  1  0
 25 52  1  0
M  END
$$$$
