
     RDKit          3D

 49 51  0  0  0  0  0  0  0  0999 V2000
   -0.5689    1.3776   -2.4997 N   0  0  0  0  0  0  0  0  0  0  0  0
    0.1632    1.2578   -1.3788 C   0  0  0  0  0  0  0  0  0  0  0  0
    0.5762    2.2849   -0.6956 N   0  0  0  0  0  0  0  0  0  0  0  0
    1.2880    1.6812    0.4708 C   0  0  0  0  0  0  0  0  0  0  0  0
    1.4524    0.1733    0.1677 C   0  0  0  0  0  0  0  0  0  0  0  0
    2.8868   -0.1775   -0.2651 C   0  0  0  0  0  0  0  0  0  0  0  0
    3.8614   -0.2017    0.8903 C   0  0  0  0  0  0  0  0  0  0  0  0
    3.8394   -1.2553    1.8160 C   0  0  0  0  0  0  0  0  0  0  0  0
    4.7315   -1.2712    2.8888 C   0  0  0  0  0  0  0  0  0  0  0  0
    5.6470   -0.2373    3.0391 C   0  0  0  0  0  0  0  0  0  0  0  0
    6.4980   -0.2921    4.1029 O   0  0  0  0  0  0  0  0  0  0  0  0
    5.6891    0.8143    2.1303 C   0  0  0  0  0  0  0  0  0  0  0  0
    4.7970    0.8299    1.0557 C   0  0  0  0  0  0  0  0  0  0  0  0
    0.5204    0.0266   -0.9439 N   0  0  0  0  0  0  0  0  0  0  0  0
    0.0566   -1.2727   -1.3861 C   0  0  0  0  0  0  0  0  0  0  0  0
   -1.1144   -1.7897   -0.5370 C   0  0  0  0  0  0  0  0  0  0  0  0
   -2.4182   -1.0616   -0.7743 C   0  0  0  0  0  0  0  0  0  0  0  0
   -2.7643    0.0466    0.0118 C   0  0  0  0  0  0  0  0  0  0  0  0
   -3.9634    0.7412   -0.2040 C   0  0  0  0  0  0  0  0  0  0  0  0
   -4.3220    1.9463    0.6352 C   0  0  0  0  0  0  0  0  0  0  0  0
   -4.0760    3.1170   -0.0130 F   0  0  0  0  0  0  0  0  0  0  0  0
   -3.6416    2.0112    1.8125 F   0  0  0  0  0  0  0  0  0  0  0  0
   -5.6431    1.9739    0.9681 F   0  0  0  0  0  0  0  0  0  0  0  0
   -4.8169    0.3167   -1.2356 C   0  0  0  0  0  0  0  0  0  0  0  0
   -4.4871   -0.7852   -2.0411 C   0  0  0  0  0  0  0  0  0  0  0  0
   -5.4265   -1.2547   -3.1281 C   0  0  0  0  0  0  0  0  0  0  0  0
   -6.2884   -2.2109   -2.6886 F   0  0  0  0  0  0  0  0  0  0  0  0
   -4.7733   -1.7970   -4.1933 F   0  0  0  0  0  0  0  0  0  0  0  0
   -6.1982   -0.2542   -3.6350 F   0  0  0  0  0  0  0  0  0  0  0  0
   -3.2858   -1.4698   -1.7966 C   0  0  0  0  0  0  0  0  0  0  0  0
   -1.3735    0.7671   -2.5238 H   0  0  0  0  0  0  0  0  0  0  0  0
   -0.8518    2.3443   -2.6251 H   0  0  0  0  0  0  0  0  0  0  0  0
    2.2370    2.1991    0.6322 H   0  0  0  0  0  0  0  0  0  0  0  0
    0.6664    1.8252    1.3623 H   0  0  0  0  0  0  0  0  0  0  0  0
    1.1381   -0.4221    1.0324 H   0  0  0  0  0  0  0  0  0  0  0  0
    3.2347    0.5194   -1.0393 H   0  0  0  0  0  0  0  0  0  0  0  0
    2.9129   -1.1666   -0.7394 H   0  0  0  0  0  0  0  0  0  0  0  0
    3.1321   -2.0740    1.7069 H   0  0  0  0  0  0  0  0  0  0  0  0
    4.7141   -2.0880    3.6047 H   0  0  0  0  0  0  0  0  0  0  0  0
    7.0709    0.4918    4.0800 H   0  0  0  0  0  0  0  0  0  0  0  0
    6.4031    1.6247    2.2384 H   0  0  0  0  0  0  0  0  0  0  0  0
    4.8358    1.6558    0.3475 H   0  0  0  0  0  0  0  0  0  0  0  0
    0.8763   -1.9957   -1.3066 H   0  0  0  0  0  0  0  0  0  0  0  0
   -0.2178   -1.2493   -2.4473 H   0  0  0  0  0  0  0  0  0  0  0  0
   -0.8638   -1.7485    0.5305 H   0  0  0  0  0  0  0  0  0  0  0  0
   -1.2688   -2.8534   -0.7610 H   0  0  0  0  0  0  0  0  0  0  0  0
   -2.0844    0.3824    0.7967 H   0  0  0  0  0  0  0  0  0  0  0  0
   -5.7518    0.8524   -1.4112 H   0  0  0  0  0  0  0  0  0  0  0  0
   -3.0282   -2.3322   -2.4125 H   0  0  0  0  0  0  0  0  0  0  0  0
  1  2  1  0
  2  3  2  0
  3  4  1  0
  4  5  1  0
  5  6  1  0
  6  7  1  0
  7  8  2  0
  8  9  1  0
  9 10  2  0
 10 11  1  0
 10 12  1  0
 12 13  2  0
  5 14  1  0
 14 15  1  0
 15 16  1  0
 16 17  1  0
 17 18  2  0
 18 19  1  0
 19 20  1  0
 20 21  1  0
 20 22  1  0
 20 23  1  0
 19 24  2  0
 24 25  1  0
 25 26  1  0
 26 27  1  0
 26 28  1  0
 26 29  1  0
 25 30  2  0
 14  2  1  0
 30 17  1  0
 13  7  1  0
  1 31  1  0
  1 32  1  0
  4 33  1  0
  4 34  1  0
  5 35  1  0
  6 36  1  0
  6 37  1  0
  8 38  1  0
  9 39  1  0
 11 40  1  0
 12 41  1  0
 13 42  1  0
 15 43  1  0
 15 44  1  0
 16 45  1  0
 16 46  1  0
 18 47  1  0
 24 48  1  0
 30 49  1  0
M  END
$$$$
