
     RDKit          3D

 30 31  0  0  0  0  0  0  0  0999 V2000
   -2.6314    1.8302   -2.2334 C   0  0  0  0  0  0  0  0  0  0  0  0
   -2.1802    1.2002   -0.9662 C   0  0  0  0  0  0  0  0  0  0  0  0
   -3.0138    0.4062   -0.2803 N   0  0  0  0  0  0  0  0  0  0  0  0
   -2.3096    0.0512    0.8153 N   0  0  0  0  0  0  0  0  0  0  0  0
   -2.9603   -0.7651    1.8179 C   0  0  0  0  0  0  0  0  0  0  0  0
   -1.0164    0.5156    0.8045 C   0  0  0  0  0  0  0  0  0  0  0  0
    0.1025    0.0520    2.0555 S   0  0  0  0  0  0  0  0  0  0  0  0
    1.5100   -0.4425    1.0558 C   0  0  0  0  0  0  0  0  0  0  0  0
    2.6591    0.3611    1.1237 C   0  0  0  0  0  0  0  0  0  0  0  0
    3.8021    0.0328    0.3960 C   0  0  0  0  0  0  0  0  0  0  0  0
    3.8172   -1.1181   -0.3835 C   0  0  0  0  0  0  0  0  0  0  0  0
    2.6861   -1.9341   -0.4436 C   0  0  0  0  0  0  0  0  0  0  0  0
    1.5080   -1.5918    0.2358 C   0  0  0  0  0  0  0  0  0  0  0  0
    0.4518   -2.5225    0.2434 N   0  0  0  0  0  0  0  0  0  0  0  0
   -0.9295    1.3234   -0.3126 C   0  0  0  0  0  0  0  0  0  0  0  0
    0.1744    2.1217   -0.7339 N   0  0  0  0  0  4  0  0  0  0  0  0
    0.7578    2.7850    0.1320 O   0  0  0  0  0  0  0  0  0  0  0  0
    0.4300    2.1216   -1.9446 O   0  0  0  0  0  1  0  0  0  0  0  0
   -2.1265    1.3692   -3.0881 H   0  0  0  0  0  0  0  0  0  0  0  0
   -3.7110    1.7140   -2.3758 H   0  0  0  0  0  0  0  0  0  0  0  0
   -2.4095    2.9021   -2.2330 H   0  0  0  0  0  0  0  0  0  0  0  0
   -4.0167   -0.8823    1.5608 H   0  0  0  0  0  0  0  0  0  0  0  0
   -2.8764   -0.2643    2.7854 H   0  0  0  0  0  0  0  0  0  0  0  0
   -2.4760   -1.7442    1.8369 H   0  0  0  0  0  0  0  0  0  0  0  0
    2.6705    1.2563    1.7429 H   0  0  0  0  0  0  0  0  0  0  0  0
    4.6823    0.6682    0.4508 H   0  0  0  0  0  0  0  0  0  0  0  0
    4.7143   -1.3921   -0.9329 H   0  0  0  0  0  0  0  0  0  0  0  0
    2.7330   -2.8504   -1.0270 H   0  0  0  0  0  0  0  0  0  0  0  0
    0.3982   -3.0888   -0.5977 H   0  0  0  0  0  0  0  0  0  0  0  0
   -0.4401   -2.1146    0.4959 H   0  0  0  0  0  0  0  0  0  0  0  0
  1  2  1  0
  2  3  2  0
  3  4  1  0
  4  5  1  0
  4  6  1  0
  6  7  1  0
  7  8  1  0
  8  9  2  0
  9 10  1  0
 10 11  2  0
 11 12  1  0
 12 13  2  0
 13 14  1  0
  6 15  2  0
 15 16  1  0
 16 17  2  0
 16 18  1  0
 15  2  1  0
 13  8  1  0
  1 19  1  0
  1 20  1  0
  1 21  1  0
  5 22  1  0
  5 23  1  0
  5 24  1  0
  9 25  1  0
 10 26  1  0
 11 27  1  0
 12 28  1  0
 14 29  1  0
 14 30  1  0
M  CHG  2  16   1  18  -1
M  END
$$$$
