
     RDKit          3D

 46 49  0  0  0  0  0  0  0  0999 V2000
    6.6201   -0.7198   -0.9185 N   0  0  0  0  0  0  0  0  0  0  0  0
    6.0395   -0.1872    0.5717 S   0  0  0  0  0  6  0  0  0  0  0  0
    6.4969    1.1682    0.7645 O   0  0  0  0  0  0  0  0  0  0  0  0
    6.3347   -1.2490    1.5060 O   0  0  0  0  0  0  0  0  0  0  0  0
    4.2936   -0.1607    0.2763 C   0  0  0  0  0  0  0  0  0  0  0  0
    3.5280   -1.2932    0.5383 C   0  0  0  0  0  0  0  0  0  0  0  0
    2.1510   -1.2583    0.2946 C   0  0  0  0  0  0  0  0  0  0  0  0
    1.5064   -0.1076   -0.1992 C   0  0  0  0  0  0  0  0  0  0  0  0
    0.1325   -0.1086   -0.4315 N   0  0  0  0  0  0  0  0  0  0  0  0
   -0.6096   -1.2380   -0.2328 N   0  0  0  0  0  0  0  0  0  0  0  0
   -1.8095   -0.9916   -0.6648 C   0  0  0  0  0  0  0  0  0  0  0  0
   -2.9140   -1.9768   -0.5958 C   0  0  0  0  0  0  0  0  0  0  0  0
   -4.1655   -1.7148   -1.1647 C   0  0  0  0  0  0  0  0  0  0  0  0
   -5.1854   -2.6665   -1.0797 C   0  0  0  0  0  0  0  0  0  0  0  0
   -4.9601   -3.8794   -0.4297 C   0  0  0  0  0  0  0  0  0  0  0  0
   -3.7150   -4.1458    0.1366 C   0  0  0  0  0  0  0  0  0  0  0  0
   -2.6935   -3.1978    0.0539 C   0  0  0  0  0  0  0  0  0  0  0  0
   -1.9973    0.3681   -1.2795 C   0  0  0  0  0  0  0  0  0  0  0  0
   -0.6642    1.0227   -0.9119 C   0  0  0  0  0  0  0  0  0  0  0  0
   -0.8627    2.1125    0.1334 C   0  0  0  0  0  0  0  0  0  0  0  0
   -0.9699    3.4523   -0.2780 C   0  0  0  0  0  0  0  0  0  0  0  0
   -1.1756    4.4712    0.6557 C   0  0  0  0  0  0  0  0  0  0  0  0
   -1.2817    4.1586    2.0089 C   0  0  0  0  0  0  0  0  0  0  0  0
   -1.5605    5.5376    3.2711 Br  0  0  0  0  0  0  0  0  0  0  0  0
   -1.1861    2.8376    2.4371 C   0  0  0  0  0  0  0  0  0  0  0  0
   -0.9816    1.8197    1.5028 C   0  0  0  0  0  0  0  0  0  0  0  0
    2.3112    1.0198   -0.4360 C   0  0  0  0  0  0  0  0  0  0  0  0
    3.6917    1.0023   -0.2001 C   0  0  0  0  0  0  0  0  0  0  0  0
    5.8998   -0.7471   -1.6394 H   0  0  0  0  0  0  0  0  0  0  0  0
    7.0626   -1.6313   -0.7889 H   0  0  0  0  0  0  0  0  0  0  0  0
    3.9793   -2.2004    0.9326 H   0  0  0  0  0  0  0  0  0  0  0  0
    1.5640   -2.1511    0.5041 H   0  0  0  0  0  0  0  0  0  0  0  0
   -4.3721   -0.7824   -1.6808 H   0  0  0  0  0  0  0  0  0  0  0  0
   -6.1579   -2.4625   -1.5216 H   0  0  0  0  0  0  0  0  0  0  0  0
   -5.7553   -4.6182   -0.3647 H   0  0  0  0  0  0  0  0  0  0  0  0
   -3.5373   -5.0911    0.6436 H   0  0  0  0  0  0  0  0  0  0  0  0
   -1.7261   -3.4178    0.5010 H   0  0  0  0  0  0  0  0  0  0  0  0
   -2.8752    0.8838   -0.8810 H   0  0  0  0  0  0  0  0  0  0  0  0
   -2.0912    0.2521   -2.3645 H   0  0  0  0  0  0  0  0  0  0  0  0
   -0.2104    1.4512   -1.8146 H   0  0  0  0  0  0  0  0  0  0  0  0
   -0.8915    3.7151   -1.3311 H   0  0  0  0  0  0  0  0  0  0  0  0
   -1.2508    5.5019    0.3190 H   0  0  0  0  0  0  0  0  0  0  0  0
   -1.2654    2.5868    3.4916 H   0  0  0  0  0  0  0  0  0  0  0  0
   -0.9040    0.7909    1.8535 H   0  0  0  0  0  0  0  0  0  0  0  0
    1.8776    1.9458   -0.8024 H   0  0  0  0  0  0  0  0  0  0  0  0
    4.2802    1.8988   -0.3852 H   0  0  0  0  0  0  0  0  0  0  0  0
  1  2  1  0
  2  3  2  0
  2  4  2  0
  2  5  1  0
  5  6  2  0
  6  7  1  0
  7  8  2  0
  8  9  1  0
  9 10  1  0
 10 11  2  0
 11 12  1  0
 12 13  2  0
 13 14  1  0
 14 15  2  0
 15 16  1  0
 16 17  2  0
 11 18  1  0
 18 19  1  0
 19 20  1  0
 20 21  2  0
 21 22  1  0
 22 23  2  0
 23 24  1  0
 23 25  1  0
 25 26  2  0
  8 27  1  0
 27 28  2  0
 28  5  1  0
 19  9  1  0
 26 20  1  0
 17 12  1  0
  1 29  1  0
  1 30  1  0
  6 31  1  0
  7 32  1  0
 13 33  1  0
 14 34  1  0
 15 35  1  0
 16 36  1  0
 17 37  1  0
 18 38  1  0
 18 39  1  0
 19 40  1  0
 21 41  1  0
 22 42  1  0
 25 43  1  0
 26 44  1  0
 27 45  1  0
 28 46  1  0
M  END
$$$$
