
     RDKit          3D

 36 38  0  0  0  0  0  0  0  0999 V2000
    2.7184   -1.4819   -2.8204 C   0  0  0  0  0  0  0  0  0  0  0  0
    2.3879   -1.7400   -1.3515 C   0  0  0  0  0  0  0  0  0  0  0  0
    3.4053   -1.1617   -0.5543 O   0  0  0  0  0  0  0  0  0  0  0  0
    3.1222    0.0880   -0.0781 C   0  0  0  0  0  0  0  0  0  0  0  0
    4.2234    0.7750    0.4433 C   0  0  0  0  0  0  0  0  0  0  0  0
    4.0667    2.0473    0.9834 C   0  0  0  0  0  0  0  0  0  0  0  0
    2.8036    2.6270    1.0139 C   0  0  0  0  0  0  0  0  0  0  0  0
    1.6988    1.9363    0.5025 C   0  0  0  0  0  0  0  0  0  0  0  0
    1.8409    0.6577   -0.0580 C   0  0  0  0  0  0  0  0  0  0  0  0
    0.7352   -0.0791   -0.5683 N   0  0  0  0  0  0  0  0  0  0  0  0
   -0.6426    0.3832   -0.4276 C   0  0  0  0  0  0  0  0  0  0  0  0
   -1.2406    0.0108    0.9293 C   0  0  0  0  0  0  0  0  0  0  0  0
   -0.5615   -0.1248    1.9466 O   0  0  0  0  0  0  0  0  0  0  0  0
   -2.7223   -0.1481    1.0374 C   0  0  0  0  0  0  0  0  0  0  0  0
   -3.2368   -0.8154    2.1613 C   0  0  0  0  0  0  0  0  0  0  0  0
   -4.6145   -0.9839    2.3142 C   0  0  0  0  0  0  0  0  0  0  0  0
   -5.4755   -0.4812    1.3474 C   0  0  0  0  0  0  0  0  0  0  0  0
   -6.7971   -0.6395    1.4921 F   0  0  0  0  0  0  0  0  0  0  0  0
   -4.9849    0.1893    0.2323 C   0  0  0  0  0  0  0  0  0  0  0  0
   -3.6059    0.3607    0.0746 C   0  0  0  0  0  0  0  0  0  0  0  0
    0.9315   -1.3492   -1.0910 C   0  0  0  0  0  0  0  0  0  0  0  0
    0.0021   -2.0916   -1.4173 O   0  0  0  0  0  0  0  0  0  0  0  0
    2.6895   -0.4105   -3.0491 H   0  0  0  0  0  0  0  0  0  0  0  0
    3.7301   -1.8304   -3.0540 H   0  0  0  0  0  0  0  0  0  0  0  0
    2.0103   -1.9875   -3.4847 H   0  0  0  0  0  0  0  0  0  0  0  0
    2.4461   -2.8200   -1.1679 H   0  0  0  0  0  0  0  0  0  0  0  0
    5.2059    0.3098    0.4295 H   0  0  0  0  0  0  0  0  0  0  0  0
    4.9239    2.5774    1.3896 H   0  0  0  0  0  0  0  0  0  0  0  0
    2.6705    3.6141    1.4502 H   0  0  0  0  0  0  0  0  0  0  0  0
    0.7352    2.4269    0.5812 H   0  0  0  0  0  0  0  0  0  0  0  0
   -0.7124    1.4629   -0.5848 H   0  0  0  0  0  0  0  0  0  0  0  0
   -1.2364   -0.0874   -1.2189 H   0  0  0  0  0  0  0  0  0  0  0  0
   -2.5640   -1.2102    2.9215 H   0  0  0  0  0  0  0  0  0  0  0  0
   -5.0169   -1.5021    3.1791 H   0  0  0  0  0  0  0  0  0  0  0  0
   -5.6810    0.5765   -0.5060 H   0  0  0  0  0  0  0  0  0  0  0  0
   -3.2552    0.9013   -0.7993 H   0  0  0  0  0  0  0  0  0  0  0  0
  1  2  1  0
  2  3  1  0
  3  4  1  0
  4  5  2  0
  5  6  1  0
  6  7  2  0
  7  8  1  0
  8  9  2  0
  9 10  1  0
 10 11  1  0
 11 12  1  0
 12 13  2  0
 12 14  1  0
 14 15  2  0
 15 16  1  0
 16 17  2  0
 17 18  1  0
 17 19  1  0
 19 20  2  0
 10 21  1  0
 21 22  2  0
 21  2  1  0
  9  4  1  0
 20 14  1  0
  1 23  1  0
  1 24  1  0
  1 25  1  0
  2 26  1  0
  5 27  1  0
  6 28  1  0
  7 29  1  0
  8 30  1  0
 11 31  1  0
 11 32  1  0
 15 33  1  0
 16 34  1  0
 19 35  1  0
 20 36  1  0
M  END
$$$$
