
     RDKit          3D

 31 34  0  0  0  0  0  0  0  0999 V2000
    2.6286   -1.1999    3.0299 O   0  0  0  0  0  0  0  0  0  0  0  0
    3.0841   -0.7668    1.9802 C   0  0  0  0  0  0  0  0  0  0  0  0
    4.4004   -0.8852    1.7293 O   0  0  0  0  0  0  0  0  0  0  0  0
    2.2931    0.0307    0.9537 C   0  0  0  0  0  0  0  0  0  0  0  0
    2.9765   -0.1116   -0.7436 S   0  0  0  0  0  0  0  0  0  0  0  0
    1.7036    0.5673   -1.6470 C   0  0  0  0  0  0  0  0  0  0  0  0
    1.9191    0.8563   -2.9593 N   0  0  0  0  0  0  0  0  0  0  0  0
    0.8804    1.4376   -3.6350 C   0  0  0  0  0  0  0  0  0  0  0  0
    0.8570    1.7812   -4.8026 O   0  0  0  0  0  0  0  0  0  0  0  0
   -0.4538    1.6249   -2.4918 S   0  0  0  0  0  0  0  0  0  0  0  0
    0.4789    0.8821   -1.2025 C   0  0  0  0  0  0  0  0  0  0  0  0
   -0.0377    0.6944    0.2031 C   0  0  0  0  0  0  0  0  0  0  0  0
   -1.4857    0.2832    0.2996 C   0  0  0  0  0  0  0  0  0  0  0  0
   -2.5263    1.2236    0.3166 C   0  0  0  0  0  0  0  0  0  0  0  0
   -3.8545    0.7968    0.3917 C   0  0  0  0  0  0  0  0  0  0  0  0
   -5.2471    2.0751    0.4075 Br  0  0  0  0  0  0  0  0  0  0  0  0
   -4.1632   -0.5617    0.4529 C   0  0  0  0  0  0  0  0  0  0  0  0
   -3.1345   -1.5022    0.4429 C   0  0  0  0  0  0  0  0  0  0  0  0
   -1.8123   -1.0675    0.3750 C   0  0  0  0  0  0  0  0  0  0  0  0
   -0.8170   -2.0550    0.3692 O   0  0  0  0  0  0  0  0  0  0  0  0
    0.5131   -1.7448    0.6151 C   0  0  0  0  0  0  0  0  0  0  0  0
    1.3749   -2.6152    0.5561 O   0  0  0  0  0  0  0  0  0  0  0  0
    0.7920   -0.3073    1.0292 C   0  0  0  0  0  0  0  0  0  0  0  0
    4.7453   -1.4360    2.4633 H   0  0  0  0  0  0  0  0  0  0  0  0
    2.4275    1.0798    1.2497 H   0  0  0  0  0  0  0  0  0  0  0  0
    2.7955    0.6628   -3.4216 H   0  0  0  0  0  0  0  0  0  0  0  0
    0.0547    1.6705    0.7031 H   0  0  0  0  0  0  0  0  0  0  0  0
   -2.3044    2.2874    0.2596 H   0  0  0  0  0  0  0  0  0  0  0  0
   -5.1964   -0.8954    0.5066 H   0  0  0  0  0  0  0  0  0  0  0  0
   -3.3629   -2.5638    0.4893 H   0  0  0  0  0  0  0  0  0  0  0  0
    0.4713   -0.2412    2.0799 H   0  0  0  0  0  0  0  0  0  0  0  0
  1  2  2  0
  2  3  1  0
  2  4  1  0
  4  5  1  0
  5  6  1  0
  6  7  1  0
  7  8  1  0
  8  9  2  0
  8 10  1  0
 10 11  1  0
 11 12  1  0
 12 13  1  0
 13 14  2  0
 14 15  1  0
 15 16  1  0
 15 17  2  0
 17 18  1  0
 18 19  2  0
 19 20  1  0
 20 21  1  0
 21 22  2  0
 21 23  1  0
 23  4  1  0
 11  6  2  0
 23 12  1  0
 19 13  1  0
  3 24  1  0
  4 25  1  0
  7 26  1  0
 12 27  1  0
 14 28  1  0
 17 29  1  0
 18 30  1  0
 23 31  1  0
M  END
$$$$
