
     RDKit          3D

 56 61  0  0  0  0  0  0  0  0999 V2000
   -0.0875    3.4454    0.8827 C   0  0  0  0  0  0  0  0  0  0  0  0
    0.7350    2.2320    0.6568 C   0  0  0  0  0  0  0  0  0  0  0  0
    2.0359    2.3550    0.3763 N   0  0  0  0  0  0  0  0  0  0  0  0
    2.5051    1.0767    0.2246 N   0  0  0  0  0  0  0  0  0  0  0  0
    3.8768    0.8645   -0.1223 C   0  0  0  0  0  0  0  0  0  0  0  0
    4.7166    1.9817   -0.2965 C   0  0  0  0  0  0  0  0  0  0  0  0
    6.0587    1.8194   -0.6557 C   0  0  0  0  0  0  0  0  0  0  0  0
    6.5693    0.5312   -0.8398 C   0  0  0  0  0  0  0  0  0  0  0  0
    7.9727    0.3548   -1.2251 N   0  0  0  0  0  4  0  0  0  0  0  0
    8.4599   -0.7799   -1.1204 O   0  0  0  0  0  0  0  0  0  0  0  0
    8.5881    1.3498   -1.6350 O   0  0  0  0  0  1  0  0  0  0  0  0
    5.7506   -0.5897   -0.6653 C   0  0  0  0  0  0  0  0  0  0  0  0
    4.4062   -0.4199   -0.3114 C   0  0  0  0  0  0  0  0  0  0  0  0
    1.4859    0.1555    0.4500 C   0  0  0  0  0  0  0  0  0  0  0  0
    0.3436    0.8834    0.6881 C   0  0  0  0  0  0  0  0  0  0  0  0
   -0.9365    0.1708    0.9489 C   0  0  0  0  0  0  0  0  0  0  0  0
   -1.8122    0.5122   -0.2589 C   0  0  0  0  0  0  0  0  0  0  0  0
   -1.5966   -0.0676   -1.5211 C   0  0  0  0  0  0  0  0  0  0  0  0
   -2.4081    0.2643   -2.6084 C   0  0  0  0  0  0  0  0  0  0  0  0
   -3.4437    1.1884   -2.4694 C   0  0  0  0  0  0  0  0  0  0  0  0
   -4.1581    1.4231   -3.6096 O   0  0  0  0  0  0  0  0  0  0  0  0
   -4.9575    2.5930   -3.6224 C   0  0  0  0  0  0  0  0  0  0  0  0
   -5.3939    2.7732   -4.8951 F   0  0  0  0  0  0  0  0  0  0  0  0
   -6.0602    2.3880   -2.8593 F   0  0  0  0  0  0  0  0  0  0  0  0
   -3.6791    1.7630   -1.2208 C   0  0  0  0  0  0  0  0  0  0  0  0
   -2.8687    1.4309   -0.1277 C   0  0  0  0  0  0  0  0  0  0  0  0
   -0.7587   -1.2890    1.1039 N   0  0  0  0  0  0  0  0  0  0  0  0
    0.4913   -1.8452    0.7695 C   0  0  0  0  0  0  0  0  0  0  0  0
    1.5818   -1.1970    0.4417 N   0  0  0  0  0  0  0  0  0  0  0  0
    0.6459   -3.3850    0.7734 C   0  0  0  0  0  0  0  0  0  0  0  0
    1.6778   -3.9350    0.4145 O   0  0  0  0  0  0  0  0  0  0  0  0
   -0.4434   -4.0935    1.2043 N   0  0  0  0  0  0  0  0  0  0  0  0
   -1.6463   -3.5069    1.6063 C   0  0  0  0  0  0  0  0  0  0  0  0
   -2.6673   -4.3598    2.0432 C   0  0  0  0  0  0  0  0  0  0  0  0
   -3.8846   -3.8321    2.4574 C   0  0  0  0  0  0  0  0  0  0  0  0
   -4.0762   -2.4571    2.4354 C   0  0  0  0  0  0  0  0  0  0  0  0
   -3.0527   -1.6070    1.9957 C   0  0  0  0  0  0  0  0  0  0  0  0
   -1.8127   -2.1057    1.5618 C   0  0  0  0  0  0  0  0  0  0  0  0
   -0.5964    3.7372   -0.0421 H   0  0  0  0  0  0  0  0  0  0  0  0
    0.5293    4.2890    1.2134 H   0  0  0  0  0  0  0  0  0  0  0  0
   -0.8433    3.2648    1.6541 H   0  0  0  0  0  0  0  0  0  0  0  0
    4.3356    2.9936   -0.1608 H   0  0  0  0  0  0  0  0  0  0  0  0
    6.6826    2.7016   -0.7869 H   0  0  0  0  0  0  0  0  0  0  0  0
    6.1338   -1.5984   -0.8068 H   0  0  0  0  0  0  0  0  0  0  0  0
    3.8061   -1.3182   -0.1949 H   0  0  0  0  0  0  0  0  0  0  0  0
   -1.3613    0.5889    1.8704 H   0  0  0  0  0  0  0  0  0  0  0  0
   -0.7895   -0.7823   -1.6737 H   0  0  0  0  0  0  0  0  0  0  0  0
   -2.2222   -0.2003   -3.5753 H   0  0  0  0  0  0  0  0  0  0  0  0
   -4.4222    3.4940   -3.3024 H   0  0  0  0  0  0  0  0  0  0  0  0
   -4.4973    2.4572   -1.0536 H   0  0  0  0  0  0  0  0  0  0  0  0
   -3.0782    1.8970    0.8336 H   0  0  0  0  0  0  0  0  0  0  0  0
   -0.3307   -5.0980    1.2155 H   0  0  0  0  0  0  0  0  0  0  0  0
   -2.5246   -5.4368    2.0627 H   0  0  0  0  0  0  0  0  0  0  0  0
   -4.6812   -4.4915    2.7943 H   0  0  0  0  0  0  0  0  0  0  0  0
   -5.0268   -2.0384    2.7584 H   0  0  0  0  0  0  0  0  0  0  0  0
   -3.2706   -0.5447    2.0071 H   0  0  0  0  0  0  0  0  0  0  0  0
  1  2  1  0
  2  3  2  0
  3  4  1  0
  4  5  1  0
  5  6  2  0
  6  7  1  0
  7  8  2  0
  8  9  1  0
  9 10  2  0
  9 11  1  0
  8 12  1  0
 12 13  2  0
  4 14  1  0
 14 15  2  0
 15 16  1  0
 16 17  1  0
 17 18  2  0
 18 19  1  0
 19 20  2  0
 20 21  1  0
 21 22  1  0
 22 23  1  0
 22 24  1  0
 20 25  1  0
 25 26  2  0
 16 27  1  0
 27 28  1  0
 28 29  2  0
 28 30  1  0
 30 31  2  0
 30 32  1  0
 32 33  1  0
 33 34  2  0
 34 35  1  0
 35 36  2  0
 36 37  1  0
 37 38  2  0
 15  2  1  0
 26 17  1  0
 38 27  1  0
 13  5  1  0
 29 14  1  0
 38 33  1  0
  1 39  1  0
  1 40  1  0
  1 41  1  0
  6 42  1  0
  7 43  1  0
 12 44  1  0
 13 45  1  0
 16 46  1  0
 18 47  1  0
 19 48  1  0
 22 49  1  0
 25 50  1  0
 26 51  1  0
 32 52  1  0
 34 53  1  0
 35 54  1  0
 36 55  1  0
 37 56  1  0
M  CHG  2   9   1  11  -1
M  END
$$$$
