
     RDKit          3D

 44 47  0  0  0  0  0  0  0  0999 V2000
    3.8936   -0.3685   -3.2635 C   0  0  0  0  0  0  0  0  0  0  0  0
    5.1599   -0.5894   -2.6550 O   0  0  0  0  0  0  0  0  0  0  0  0
    5.1879   -0.5550   -1.3252 C   0  0  0  0  0  0  0  0  0  0  0  0
    6.2204   -0.6828   -0.4259 C   0  0  0  0  0  0  0  0  0  0  0  0
    5.6459   -0.5586    0.8615 C   0  0  0  0  0  0  0  0  0  0  0  0
    4.2907   -0.3641    0.6740 C   0  0  0  0  0  0  0  0  0  0  0  0
    3.2146   -0.1777    1.6234 C   0  0  0  0  0  0  0  0  0  0  0  0
    3.3736   -0.1732    2.8406 O   0  0  0  0  0  0  0  0  0  0  0  0
    1.9791   -0.0148    1.0388 N   0  0  0  0  0  0  0  0  0  0  0  0
    0.7649    0.0648    1.8160 C   0  0  0  0  0  0  0  0  0  0  0  0
    0.3236   -1.3376    2.2979 C   0  0  0  0  0  0  0  0  0  0  0  0
   -1.1595   -1.3707    2.7036 C   0  0  0  0  0  0  0  0  0  0  0  0
   -2.0832   -1.0203    1.5203 C   0  0  0  0  0  0  0  0  0  0  0  0
   -1.5757    0.1951    0.8203 C   0  0  0  0  0  0  0  0  0  0  0  0
   -0.2923    0.6916    0.9704 C   0  0  0  0  0  0  0  0  0  0  0  0
   -0.2965    1.8947    0.2583 C   0  0  0  0  0  0  0  0  0  0  0  0
   -1.4671    2.1315   -0.3262 N   0  0  0  0  0  0  0  0  0  0  0  0
   -2.2635    1.0738   -0.0107 N   0  0  0  0  0  0  0  0  0  0  0  0
   -3.5783    0.9876   -0.5525 C   0  0  0  0  0  0  0  0  0  0  0  0
   -4.2567   -0.2370   -0.6463 C   0  0  0  0  0  0  0  0  0  0  0  0
   -5.5437   -0.3001   -1.1955 C   0  0  0  0  0  0  0  0  0  0  0  0
   -6.1670    0.8538   -1.6619 C   0  0  0  0  0  0  0  0  0  0  0  0
   -5.5004    2.0724   -1.5839 C   0  0  0  0  0  0  0  0  0  0  0  0
   -4.2170    2.1376   -1.0378 C   0  0  0  0  0  0  0  0  0  0  0  0
   -3.6586    3.3540   -0.9583 F   0  0  0  0  0  0  0  0  0  0  0  0
    4.0095   -0.3654   -0.6692 O   0  0  0  0  0  0  0  0  0  0  0  0
    4.0274   -0.4111   -4.3484 H   0  0  0  0  0  0  0  0  0  0  0  0
    3.5029    0.6226   -3.0084 H   0  0  0  0  0  0  0  0  0  0  0  0
    3.1804   -1.1497   -2.9789 H   0  0  0  0  0  0  0  0  0  0  0  0
    7.2589   -0.8430   -0.6770 H   0  0  0  0  0  0  0  0  0  0  0  0
    6.1471   -0.6030    1.8192 H   0  0  0  0  0  0  0  0  0  0  0  0
    1.9231   -0.1444    0.0353 H   0  0  0  0  0  0  0  0  0  0  0  0
    0.9445    0.7020    2.6913 H   0  0  0  0  0  0  0  0  0  0  0  0
    0.4861   -2.0788    1.5031 H   0  0  0  0  0  0  0  0  0  0  0  0
    0.9478   -1.6512    3.1431 H   0  0  0  0  0  0  0  0  0  0  0  0
   -1.3232   -0.6599    3.5239 H   0  0  0  0  0  0  0  0  0  0  0  0
   -1.4191   -2.3650    3.0844 H   0  0  0  0  0  0  0  0  0  0  0  0
   -3.0987   -0.8692    1.9002 H   0  0  0  0  0  0  0  0  0  0  0  0
   -2.0888   -1.8660    0.8234 H   0  0  0  0  0  0  0  0  0  0  0  0
    0.5009    2.6190    0.1465 H   0  0  0  0  0  0  0  0  0  0  0  0
   -3.8033   -1.1746   -0.3500 H   0  0  0  0  0  0  0  0  0  0  0  0
   -6.0547   -1.2578   -1.2698 H   0  0  0  0  0  0  0  0  0  0  0  0
   -7.1653    0.8040   -2.0891 H   0  0  0  0  0  0  0  0  0  0  0  0
   -5.9705    2.9843   -1.9401 H   0  0  0  0  0  0  0  0  0  0  0  0
  1  2  1  0
  2  3  1  0
  3  4  2  0
  4  5  1  0
  5  6  2  0
  6  7  1  0
  7  8  2  0
  7  9  1  0
  9 10  1  0
 10 11  1  0
 11 12  1  0
 12 13  1  0
 13 14  1  0
 14 15  2  0
 15 16  1  0
 16 17  2  0
 17 18  1  0
 18 19  1  0
 19 20  2  0
 20 21  1  0
 21 22  2  0
 22 23  1  0
 23 24  2  0
 24 25  1  0
  6 26  1  0
 26  3  1  0
 15 10  1  0
 24 19  1  0
 18 14  1  0
  1 27  1  0
  1 28  1  0
  1 29  1  0
  4 30  1  0
  5 31  1  0
  9 32  1  0
 10 33  1  0
 11 34  1  0
 11 35  1  0
 12 36  1  0
 12 37  1  0
 13 38  1  0
 13 39  1  0
 16 40  1  0
 20 41  1  0
 21 42  1  0
 22 43  1  0
 23 44  1  0
M  END
$$$$
