
     RDKit          3D

 56 59  0  0  0  0  0  0  0  0999 V2000
    5.6458   -3.1176    0.3285 C   0  0  0  0  0  0  0  0  0  0  0  0
    5.4648   -2.1799   -0.7252 O   0  0  0  0  0  0  0  0  0  0  0  0
    4.6409   -1.1174   -0.4738 C   0  0  0  0  0  0  0  0  0  0  0  0
    4.5085   -0.2229   -1.5383 C   0  0  0  0  0  0  0  0  0  0  0  0
    3.7001    0.9076   -1.4197 C   0  0  0  0  0  0  0  0  0  0  0  0
    3.0065    1.1417   -0.2276 C   0  0  0  0  0  0  0  0  0  0  0  0
    2.1630    2.3569   -0.1268 C   0  0  0  0  0  0  0  0  0  0  0  0
    2.4811    3.2033    0.7078 O   0  0  0  0  0  0  0  0  0  0  0  0
    1.0093    2.5502   -1.1205 C   0  0  0  0  0  0  0  0  0  0  0  0
    0.0016    3.5820   -0.5912 C   0  0  0  0  0  0  0  0  0  0  0  0
   -0.8484    2.9977    0.5353 C   0  0  0  0  0  0  0  0  0  0  0  0
   -1.4886    1.6684    0.1306 C   0  0  0  0  0  0  0  0  0  0  0  0
   -0.4771    0.7059   -0.3367 N   0  0  0  0  0  0  0  0  0  0  0  0
   -1.0982   -0.5830   -0.6982 C   0  0  0  0  0  0  0  0  0  0  0  0
   -1.4520   -1.3772    0.5246 C   0  0  0  0  0  0  0  0  0  0  0  0
   -0.5412   -2.0017    1.3667 C   0  0  0  0  0  0  0  0  0  0  0  0
   -1.2520   -2.6643    2.3761 C   0  0  0  0  0  0  0  0  0  0  0  0
   -2.5856   -2.4352    2.1371 C   0  0  0  0  0  0  0  0  0  0  0  0
   -2.7402   -1.6407    1.0052 N   0  0  0  0  0  0  0  0  0  0  0  0
   -4.0042   -1.1919    0.4712 C   0  0  0  0  0  0  0  0  0  0  0  0
   -5.2033   -1.5960    1.0621 C   0  0  0  0  0  0  0  0  0  0  0  0
   -6.4145   -1.1458    0.5325 C   0  0  0  0  0  0  0  0  0  0  0  0
   -6.4099   -0.3046   -0.5693 C   0  0  0  0  0  0  0  0  0  0  0  0
   -5.1870    0.0531   -1.0993 C   0  0  0  0  0  0  0  0  0  0  0  0
   -4.0016   -0.3696   -0.6067 N   0  0  0  0  0  0  0  0  0  0  0  0
    0.2640    1.2547   -1.4821 C   0  0  0  0  0  0  0  0  0  0  0  0
    3.1291    0.2583    0.8586 C   0  0  0  0  0  0  0  0  0  0  0  0
    2.4274    0.5078    2.1655 C   0  0  0  0  0  0  0  0  0  0  0  0
    3.9578   -0.8705    0.7206 C   0  0  0  0  0  0  0  0  0  0  0  0
    4.6992   -3.5975    0.5979 H   0  0  0  0  0  0  0  0  0  0  0  0
    6.1135   -2.6462    1.1994 H   0  0  0  0  0  0  0  0  0  0  0  0
    6.3236   -3.8977   -0.0316 H   0  0  0  0  0  0  0  0  0  0  0  0
    5.0486   -0.4063   -2.4642 H   0  0  0  0  0  0  0  0  0  0  0  0
    3.6281    1.6014   -2.2526 H   0  0  0  0  0  0  0  0  0  0  0  0
    1.4642    2.9608   -2.0314 H   0  0  0  0  0  0  0  0  0  0  0  0
   -0.6591    3.8887   -1.4123 H   0  0  0  0  0  0  0  0  0  0  0  0
    0.5061    4.4899   -0.2413 H   0  0  0  0  0  0  0  0  0  0  0  0
   -0.2308    2.8498    1.4297 H   0  0  0  0  0  0  0  0  0  0  0  0
   -1.6325    3.7130    0.8095 H   0  0  0  0  0  0  0  0  0  0  0  0
   -2.2383    1.8537   -0.6497 H   0  0  0  0  0  0  0  0  0  0  0  0
   -2.0164    1.2781    1.0080 H   0  0  0  0  0  0  0  0  0  0  0  0
   -1.8998   -0.4633   -1.4275 H   0  0  0  0  0  0  0  0  0  0  0  0
   -0.3488   -1.1926   -1.2254 H   0  0  0  0  0  0  0  0  0  0  0  0
    0.5342   -1.9658    1.2432 H   0  0  0  0  0  0  0  0  0  0  0  0
   -0.8437   -3.2440    3.1938 H   0  0  0  0  0  0  0  0  0  0  0  0
   -3.4317   -2.7794    2.7108 H   0  0  0  0  0  0  0  0  0  0  0  0
   -5.2458   -2.2543    1.9205 H   0  0  0  0  0  0  0  0  0  0  0  0
   -7.3547   -1.4527    0.9834 H   0  0  0  0  0  0  0  0  0  0  0  0
   -7.3335    0.0622   -1.0018 H   0  0  0  0  0  0  0  0  0  0  0  0
   -5.1212    0.7102   -1.9617 H   0  0  0  0  0  0  0  0  0  0  0  0
    0.9741    0.5093   -1.8556 H   0  0  0  0  0  0  0  0  0  0  0  0
   -0.4248    1.4582   -2.3142 H   0  0  0  0  0  0  0  0  0  0  0  0
    2.4132   -0.3944    2.7864 H   0  0  0  0  0  0  0  0  0  0  0  0
    1.3850    0.7973    2.0047 H   0  0  0  0  0  0  0  0  0  0  0  0
    2.9415    1.2963    2.7236 H   0  0  0  0  0  0  0  0  0  0  0  0
    4.0537   -1.5440    1.5667 H   0  0  0  0  0  0  0  0  0  0  0  0
  1  2  1  0
  2  3  1  0
  3  4  2  0
  4  5  1  0
  5  6  2  0
  6  7  1  0
  7  8  2  0
  7  9  1  0
  9 10  1  0
 10 11  1  0
 11 12  1  0
 12 13  1  0
 13 14  1  0
 14 15  1  0
 15 16  2  0
 16 17  1  0
 17 18  2  0
 18 19  1  0
 19 20  1  0
 20 21  2  0
 21 22  1  0
 22 23  2  0
 23 24  1  0
 24 25  2  0
 13 26  1  0
  6 27  1  0
 27 28  1  0
 27 29  2  0
 29  3  1  0
 26  9  1  0
 19 15  1  0
 25 20  1  0
  1 30  1  0
  1 31  1  0
  1 32  1  0
  4 33  1  0
  5 34  1  0
  9 35  1  0
 10 36  1  0
 10 37  1  0
 11 38  1  0
 11 39  1  0
 12 40  1  0
 12 41  1  0
 14 42  1  0
 14 43  1  0
 16 44  1  0
 17 45  1  0
 18 46  1  0
 21 47  1  0
 22 48  1  0
 23 49  1  0
 24 50  1  0
 26 51  1  0
 26 52  1  0
 28 53  1  0
 28 54  1  0
 28 55  1  0
 29 56  1  0
M  END
$$$$
