
     RDKit          3D

 59 62  0  0  0  0  0  0  0  0999 V2000
   -1.7604    4.8147    0.3759 C   0  0  0  0  0  0  0  0  0  0  0  0
   -1.1225    3.7131   -0.4547 C   0  0  0  0  0  0  0  0  0  0  0  0
   -0.3183    2.7541    0.4208 C   0  0  0  0  0  0  0  0  0  0  0  0
    0.2909    1.6769   -0.3408 N   0  0  0  0  0  0  0  0  0  0  0  0
   -0.1468    0.3633   -0.4314 C   0  0  0  0  0  0  0  0  0  0  0  0
   -1.3491   -0.1757    0.2012 C   0  0  0  0  0  0  0  0  0  0  0  0
   -2.6252    0.2422   -0.1997 C   0  0  0  0  0  0  0  0  0  0  0  0
   -3.7643   -0.2739    0.4210 C   0  0  0  0  0  0  0  0  0  0  0  0
   -5.0505    0.0875    0.1118 O   0  0  0  0  0  0  0  0  0  0  0  0
   -5.2555    0.7630   -1.1221 C   0  0  0  0  0  0  0  0  0  0  0  0
   -3.6089   -1.2106    1.4575 C   0  0  0  0  0  0  0  0  0  0  0  0
   -4.7315   -1.7503    2.0468 O   0  0  0  0  0  0  0  0  0  0  0  0
   -5.0808   -0.9940    3.2048 C   0  0  0  0  0  0  0  0  0  0  0  0
   -2.3384   -1.6755    1.8372 C   0  0  0  0  0  0  0  0  0  0  0  0
   -2.3031   -2.6144    2.8356 O   0  0  0  0  0  0  0  0  0  0  0  0
   -1.0702   -3.2906    3.0452 C   0  0  0  0  0  0  0  0  0  0  0  0
   -1.2127   -1.1464    1.2046 C   0  0  0  0  0  0  0  0  0  0  0  0
    0.7120   -0.3633   -1.1301 N   0  0  0  0  0  0  0  0  0  0  0  0
    1.7025    0.4924   -1.4914 C   0  0  0  0  0  0  0  0  0  0  0  0
    1.4748    1.7542   -1.0260 C   0  0  0  0  0  0  0  0  0  0  0  0
    2.3769    2.8275   -1.2621 C   0  0  0  0  0  0  0  0  0  0  0  0
    2.2319    3.9764   -0.8611 O   0  0  0  0  0  0  0  0  0  0  0  0
    3.4667    2.4442   -2.0108 N   0  0  0  0  0  0  0  0  0  0  0  0
    3.7471    1.1813   -2.4992 C   0  0  0  0  0  0  0  0  0  0  0  0
    4.7813    1.0122   -3.1459 O   0  0  0  0  0  0  0  0  0  0  0  0
    2.8254    0.1769   -2.2273 N   0  0  0  0  0  0  0  0  0  0  0  0
    3.0838   -1.1847   -2.6715 C   0  0  0  0  0  0  0  0  0  0  0  0
    3.8086   -2.0042   -1.6268 C   0  0  0  0  0  0  0  0  0  0  0  0
    3.0887   -2.7695   -0.6976 C   0  0  0  0  0  0  0  0  0  0  0  0
    3.7558   -3.5150    0.2756 C   0  0  0  0  0  0  0  0  0  0  0  0
    5.1481   -3.4983    0.3344 C   0  0  0  0  0  0  0  0  0  0  0  0
    5.8743   -2.7337   -0.5770 C   0  0  0  0  0  0  0  0  0  0  0  0
    5.2088   -1.9880   -1.5514 C   0  0  0  0  0  0  0  0  0  0  0  0
   -0.9987    5.4035    0.8970 H   0  0  0  0  0  0  0  0  0  0  0  0
   -2.3322    5.4914   -0.2669 H   0  0  0  0  0  0  0  0  0  0  0  0
   -2.4437    4.3971    1.1225 H   0  0  0  0  0  0  0  0  0  0  0  0
   -0.4782    4.1653   -1.2173 H   0  0  0  0  0  0  0  0  0  0  0  0
   -1.9062    3.1709   -0.9946 H   0  0  0  0  0  0  0  0  0  0  0  0
   -0.9527    2.3119    1.1964 H   0  0  0  0  0  0  0  0  0  0  0  0
    0.4866    3.2817    0.9451 H   0  0  0  0  0  0  0  0  0  0  0  0
   -2.7072    0.9629   -1.0056 H   0  0  0  0  0  0  0  0  0  0  0  0
   -4.8254    0.2046   -1.9608 H   0  0  0  0  0  0  0  0  0  0  0  0
   -6.3349    0.8355   -1.2893 H   0  0  0  0  0  0  0  0  0  0  0  0
   -4.8567    1.7818   -1.0789 H   0  0  0  0  0  0  0  0  0  0  0  0
   -5.2885    0.0518    2.9533 H   0  0  0  0  0  0  0  0  0  0  0  0
   -4.2983   -1.0514    3.9691 H   0  0  0  0  0  0  0  0  0  0  0  0
   -5.9937   -1.4271    3.6243 H   0  0  0  0  0  0  0  0  0  0  0  0
   -1.2457   -4.0873    3.7751 H   0  0  0  0  0  0  0  0  0  0  0  0
   -0.7078   -3.7574    2.1227 H   0  0  0  0  0  0  0  0  0  0  0  0
   -0.3208   -2.6131    3.4673 H   0  0  0  0  0  0  0  0  0  0  0  0
   -0.2100   -1.4661    1.4737 H   0  0  0  0  0  0  0  0  0  0  0  0
    4.1510    3.1562   -2.2115 H   0  0  0  0  0  0  0  0  0  0  0  0
    3.6819   -1.1640   -3.5913 H   0  0  0  0  0  0  0  0  0  0  0  0
    2.1362   -1.6655   -2.9458 H   0  0  0  0  0  0  0  0  0  0  0  0
    2.0003   -2.7820   -0.7277 H   0  0  0  0  0  0  0  0  0  0  0  0
    3.1883   -4.1075    0.9879 H   0  0  0  0  0  0  0  0  0  0  0  0
    5.6678   -4.0790    1.0918 H   0  0  0  0  0  0  0  0  0  0  0  0
    6.9600   -2.7159   -0.5293 H   0  0  0  0  0  0  0  0  0  0  0  0
    5.7889   -1.3904   -2.2527 H   0  0  0  0  0  0  0  0  0  0  0  0
  1  2  1  0
  2  3  1  0
  3  4  1  0
  4  5  1  0
  5  6  1  0
  6  7  2  0
  7  8  1  0
  8  9  1  0
  9 10  1  0
  8 11  2  0
 11 12  1  0
 12 13  1  0
 11 14  1  0
 14 15  1  0
 15 16  1  0
 14 17  2  0
  5 18  2  0
 18 19  1  0
 19 20  2  0
 20 21  1  0
 21 22  2  0
 21 23  1  0
 23 24  1  0
 24 25  2  0
 24 26  1  0
 26 27  1  0
 27 28  1  0
 28 29  2  0
 29 30  1  0
 30 31  2  0
 31 32  1  0
 32 33  2  0
 20  4  1  0
 33 28  1  0
 17  6  1  0
 26 19  1  0
  1 34  1  0
  1 35  1  0
  1 36  1  0
  2 37  1  0
  2 38  1  0
  3 39  1  0
  3 40  1  0
  7 41  1  0
 10 42  1  0
 10 43  1  0
 10 44  1  0
 13 45  1  0
 13 46  1  0
 13 47  1  0
 16 48  1  0
 16 49  1  0
 16 50  1  0
 17 51  1  0
 23 52  1  0
 27 53  1  0
 27 54  1  0
 29 55  1  0
 30 56  1  0
 31 57  1  0
 32 58  1  0
 33 59  1  0
M  END
$$$$
