
     RDKit          3D

 45 48  0  0  0  0  0  0  0  0999 V2000
   -3.0328    2.2271   -0.6841 C   0  0  0  0  0  0  0  0  0  0  0  0
   -3.9524    1.2116   -1.3630 C   0  0  0  0  0  0  0  0  0  0  0  0
   -5.0411    0.7499   -0.3951 C   0  0  0  0  0  0  0  0  0  0  0  0
   -3.1775    0.0371   -1.9929 C   0  0  0  0  0  0  0  0  0  0  0  0
   -2.4499   -0.8012   -1.0396 N   0  0  0  0  0  0  0  0  0  0  0  0
   -1.2011   -0.3577   -0.6793 N   0  0  0  0  0  0  0  0  0  0  0  0
   -0.5099   -1.0412    0.1861 C   0  0  0  0  0  0  0  0  0  0  0  0
    0.8587   -0.4543    0.5295 C   0  0  0  0  0  0  0  0  0  0  0  0
    1.2451   -0.4705    1.6858 O   0  0  0  0  0  0  0  0  0  0  0  0
    1.4769    0.0498   -0.5856 N   0  0  0  0  0  0  0  0  0  0  0  0
    2.7047    0.6515   -0.6485 C   0  0  0  0  0  0  0  0  0  0  0  0
    3.1854    1.1548   -1.7646 N   0  0  0  0  0  0  0  0  0  0  0  0
    4.4433    1.7006   -1.5893 N   0  0  0  0  0  0  0  0  0  0  0  0
    4.8448    1.5887   -0.3433 C   0  0  0  0  0  0  0  0  0  0  0  0
    6.2308    2.1179    0.1363 C   0  0  0  0  0  0  0  0  0  0  0  0
    6.2875    3.3219    1.0419 C   0  0  0  0  0  0  0  0  0  0  0  0
    6.7356    3.4392   -0.3853 C   0  0  0  0  0  0  0  0  0  0  0  0
    3.7456    0.7938    0.6944 S   0  0  0  0  0  0  0  0  0  0  0  0
   -0.9697   -2.3058    0.7834 C   0  0  0  0  0  0  0  0  0  0  0  0
   -0.2015   -3.0746    1.6670 C   0  0  0  0  0  0  0  0  0  0  0  0
   -0.7112   -4.2699    2.1830 C   0  0  0  0  0  0  0  0  0  0  0  0
   -1.9822   -4.7065    1.8165 C   0  0  0  0  0  0  0  0  0  0  0  0
   -2.7449   -3.9499    0.9285 C   0  0  0  0  0  0  0  0  0  0  0  0
   -2.2345   -2.7512    0.4101 C   0  0  0  0  0  0  0  0  0  0  0  0
   -3.0354   -1.9668   -0.5490 C   0  0  0  0  0  0  0  0  0  0  0  0
   -4.1500   -2.3694   -0.8720 O   0  0  0  0  0  0  0  0  0  0  0  0
   -2.5740    1.8189    0.2219 H   0  0  0  0  0  0  0  0  0  0  0  0
   -3.5978    3.1193   -0.3926 H   0  0  0  0  0  0  0  0  0  0  0  0
   -2.2342    2.5466   -1.3616 H   0  0  0  0  0  0  0  0  0  0  0  0
   -4.4529    1.7337   -2.1893 H   0  0  0  0  0  0  0  0  0  0  0  0
   -5.6439    1.6012   -0.0609 H   0  0  0  0  0  0  0  0  0  0  0  0
   -4.6171    0.2753    0.4955 H   0  0  0  0  0  0  0  0  0  0  0  0
   -5.7159    0.0362   -0.8786 H   0  0  0  0  0  0  0  0  0  0  0  0
   -3.8771   -0.5930   -2.5556 H   0  0  0  0  0  0  0  0  0  0  0  0
   -2.4508    0.4195   -2.7207 H   0  0  0  0  0  0  0  0  0  0  0  0
    0.9484    0.0656   -1.4507 H   0  0  0  0  0  0  0  0  0  0  0  0
    6.9691    1.3382    0.2905 H   0  0  0  0  0  0  0  0  0  0  0  0
    5.3620    3.8148    1.3192 H   0  0  0  0  0  0  0  0  0  0  0  0
    7.0458    3.3363    1.8159 H   0  0  0  0  0  0  0  0  0  0  0  0
    7.7972    3.5303   -0.5837 H   0  0  0  0  0  0  0  0  0  0  0  0
    6.1092    3.9967   -1.0734 H   0  0  0  0  0  0  0  0  0  0  0  0
    0.7947   -2.7715    1.9785 H   0  0  0  0  0  0  0  0  0  0  0  0
   -0.1135   -4.8602    2.8750 H   0  0  0  0  0  0  0  0  0  0  0  0
   -2.3784   -5.6360    2.2193 H   0  0  0  0  0  0  0  0  0  0  0  0
   -3.7353   -4.2967    0.6384 H   0  0  0  0  0  0  0  0  0  0  0  0
  1  2  1  0
  2  3  1  0
  2  4  1  0
  4  5  1  0
  5  6  1  0
  6  7  2  0
  7  8  1  0
  8  9  2  0
  8 10  1  0
 10 11  1  0
 11 12  2  0
 12 13  1  0
 13 14  2  0
 14 15  1  0
 15 16  1  0
 16 17  1  0
 14 18  1  0
  7 19  1  0
 19 20  2  0
 20 21  1  0
 21 22  2  0
 22 23  1  0
 23 24  2  0
 24 25  1  0
 25 26  2  0
 25  5  1  0
 18 11  1  0
 24 19  1  0
 17 15  1  0
  1 27  1  0
  1 28  1  0
  1 29  1  0
  2 30  1  0
  3 31  1  0
  3 32  1  0
  3 33  1  0
  4 34  1  0
  4 35  1  0
 10 36  1  0
 15 37  1  0
 16 38  1  0
 16 39  1  0
 17 40  1  0
 17 41  1  0
 20 42  1  0
 21 43  1  0
 22 44  1  0
 23 45  1  0
M  END
$$$$
