
     RDKit          3D

 38 41  0  0  0  0  0  0  0  0999 V2000
    8.1550    1.6366    0.4538 C   0  0  0  0  0  0  0  0  0  0  0  0
    6.6778    1.7714    0.4846 C   0  0  0  0  0  0  0  0  0  0  0  0
    6.0240    2.8827    0.7492 N   0  0  0  0  0  0  0  0  0  0  0  0
    4.6568    2.6976    0.7029 N   0  0  0  0  0  0  0  0  0  0  0  0
    4.3310    1.4587    0.4066 C   0  0  0  0  0  0  0  0  0  0  0  0
    3.0239    1.0583    0.3085 N   0  0  0  0  0  0  0  0  0  0  0  0
    2.5468   -0.1988    0.0081 C   0  0  0  0  0  0  0  0  0  0  0  0
    3.2570   -1.1757   -0.2191 O   0  0  0  0  0  0  0  0  0  0  0  0
    1.0836   -0.3050   -0.0238 C   0  0  0  0  0  0  0  0  0  0  0  0
    0.0792    0.9927    0.4683 S   0  0  0  0  0  0  0  0  0  0  0  0
   -1.3401    0.1093    0.1681 C   0  0  0  0  0  0  0  0  0  0  0  0
   -2.5350    0.6835    0.3933 N   0  0  0  0  0  0  0  0  0  0  0  0
   -3.6091   -0.0764    0.1081 C   0  0  0  0  0  0  0  0  0  0  0  0
   -4.8927    0.6078    0.3700 C   0  0  0  0  0  0  0  0  0  0  0  0
   -5.0887    1.9166    0.7889 C   0  0  0  0  0  0  0  0  0  0  0  0
   -6.4619    2.2596    0.9494 C   0  0  0  0  0  0  0  0  0  0  0  0
   -7.2890    1.2031    0.6515 C   0  0  0  0  0  0  0  0  0  0  0  0
   -6.4102   -0.1840    0.1860 S   0  0  0  0  0  0  0  0  0  0  0  0
   -3.5066   -1.3691   -0.3914 C   0  0  0  0  0  0  0  0  0  0  0  0
   -2.2430   -1.9583   -0.6110 C   0  0  0  0  0  0  0  0  0  0  0  0
   -2.1705   -3.3450   -1.1910 C   0  0  0  0  0  0  0  0  0  0  0  0
   -1.8301   -3.3462   -2.5076 F   0  0  0  0  0  0  0  0  0  0  0  0
   -3.3540   -4.0187   -1.1166 F   0  0  0  0  0  0  0  0  0  0  0  0
   -1.2626   -4.1464   -0.5635 F   0  0  0  0  0  0  0  0  0  0  0  0
   -1.1002   -1.1724   -0.3096 C   0  0  0  0  0  0  0  0  0  0  0  0
    0.3195   -1.3984   -0.4023 C   0  0  0  0  0  0  0  0  0  0  0  0
    0.8711   -2.5597   -0.8294 N   0  0  0  0  0  0  0  0  0  0  0  0
    5.6627    0.4256    0.1623 S   0  0  0  0  0  0  0  0  0  0  0  0
    8.4973    1.3245   -0.5380 H   0  0  0  0  0  0  0  0  0  0  0  0
    8.6319    2.5936    0.6887 H   0  0  0  0  0  0  0  0  0  0  0  0
    8.4950    0.9019    1.1904 H   0  0  0  0  0  0  0  0  0  0  0  0
    2.3588    1.8000    0.4815 H   0  0  0  0  0  0  0  0  0  0  0  0
   -4.2687    2.6021    0.9724 H   0  0  0  0  0  0  0  0  0  0  0  0
   -6.8206    3.2309    1.2675 H   0  0  0  0  0  0  0  0  0  0  0  0
   -8.3696    1.1781    0.6862 H   0  0  0  0  0  0  0  0  0  0  0  0
   -4.3996   -1.9438   -0.6261 H   0  0  0  0  0  0  0  0  0  0  0  0
    1.8873   -2.6813   -0.7473 H   0  0  0  0  0  0  0  0  0  0  0  0
    0.3934   -3.4554   -0.7291 H   0  0  0  0  0  0  0  0  0  0  0  0
  1  2  1  0
  2  3  2  0
  3  4  1  0
  4  5  2  0
  5  6  1  0
  6  7  1  0
  7  8  2  0
  7  9  1  0
  9 10  1  0
 10 11  1  0
 11 12  2  0
 12 13  1  0
 13 14  1  0
 14 15  2  0
 15 16  1  0
 16 17  2  0
 17 18  1  0
 13 19  2  0
 19 20  1  0
 20 21  1  0
 21 22  1  0
 21 23  1  0
 21 24  1  0
 20 25  2  0
 25 26  1  0
 26 27  1  0
  5 28  1  0
 28  2  1  0
 26  9  2  0
 25 11  1  0
 18 14  1  0
  1 29  1  0
  1 30  1  0
  1 31  1  0
  6 32  1  0
 15 33  1  0
 16 34  1  0
 17 35  1  0
 19 36  1  0
 27 37  1  0
 27 38  1  0
M  END
$$$$
