
     RDKit          3D

 52 55  0  0  0  0  0  0  0  0999 V2000
    7.1360   -2.1605    2.7709 C   0  0  0  0  0  0  0  0  0  0  0  0
    7.0285   -1.0198    1.7761 C   0  0  0  0  0  0  0  0  0  0  0  0
    5.6539   -0.7936    1.4313 O   0  0  0  0  0  0  0  0  0  0  0  0
    5.1656   -1.5388    0.3971 C   0  0  0  0  0  0  0  0  0  0  0  0
    5.8280   -2.3671   -0.2149 O   0  0  0  0  0  0  0  0  0  0  0  0
    3.7609   -1.2244    0.1676 C   0  0  0  0  0  0  0  0  0  0  0  0
    2.8408   -2.3758   -0.7146 S   0  0  0  0  0  0  0  0  0  0  0  0
    1.4107   -1.4809   -0.5512 C   0  0  0  0  0  0  0  0  0  0  0  0
    0.2518   -1.9340   -1.0743 N   0  0  0  0  0  0  0  0  0  0  0  0
   -0.7881   -1.1660   -0.9214 C   0  0  0  0  0  0  0  0  0  0  0  0
   -2.1291   -1.5665   -1.4984 C   0  0  0  0  0  0  0  0  0  0  0  0
   -2.3065   -3.0315   -2.4101 S   0  0  0  0  0  0  0  0  0  0  0  0
   -0.9966   -2.9381   -3.6672 C   0  0  0  0  0  0  0  0  0  0  0  0
   -1.0045   -1.6590   -4.4741 C   0  0  0  0  0  0  0  0  0  0  0  0
   -1.3864   -0.5489   -4.1403 O   0  0  0  0  0  0  0  0  0  0  0  0
   -0.4532   -1.8343   -5.6972 O   0  0  0  0  0  0  0  0  0  0  0  0
   -3.1990   -0.7893   -1.2743 C   0  0  0  0  0  0  0  0  0  0  0  0
   -3.1027    0.4361   -0.5198 C   0  0  0  0  0  0  0  0  0  0  0  0
   -4.3184    1.2872   -0.3461 C   0  0  0  0  0  0  0  0  0  0  0  0
   -5.1014    1.4511   -1.2820 O   0  0  0  0  0  0  0  0  0  0  0  0
   -4.6024    1.9591    0.9497 C   0  0  0  0  0  0  0  0  0  0  0  0
   -4.1490    1.4351    2.1692 C   0  0  0  0  0  0  0  0  0  0  0  0
   -4.4302    2.0989    3.3674 C   0  0  0  0  0  0  0  0  0  0  0  0
   -5.1738    3.2777    3.3584 C   0  0  0  0  0  0  0  0  0  0  0  0
   -5.6531    3.7899    2.1539 C   0  0  0  0  0  0  0  0  0  0  0  0
   -5.3805    3.1270    0.9593 C   0  0  0  0  0  0  0  0  0  0  0  0
   -5.9147    3.6788   -0.1747 O   0  0  0  0  0  0  0  0  0  0  0  0
   -1.9057    0.8286   -0.0610 C   0  0  0  0  0  0  0  0  0  0  0  0
   -0.7519    0.0613   -0.2270 N   0  0  0  0  0  0  0  0  0  0  0  0
    0.4429    0.5385    0.3493 C   0  0  0  0  0  0  0  0  0  0  0  0
    0.5103    1.5754    1.0077 O   0  0  0  0  0  0  0  0  0  0  0  0
    1.6067   -0.3097    0.1351 C   0  0  0  0  0  0  0  0  0  0  0  0
    2.9859   -0.1228    0.5357 C   0  0  0  0  0  0  0  0  0  0  0  0
    3.4956    1.0923    1.2524 C   0  0  0  0  0  0  0  0  0  0  0  0
    8.1739   -2.3020    3.0876 H   0  0  0  0  0  0  0  0  0  0  0  0
    6.7723   -3.0971    2.3360 H   0  0  0  0  0  0  0  0  0  0  0  0
    6.5217   -1.9574    3.6559 H   0  0  0  0  0  0  0  0  0  0  0  0
    7.3988   -0.0968    2.2341 H   0  0  0  0  0  0  0  0  0  0  0  0
    7.6411   -1.2028    0.8859 H   0  0  0  0  0  0  0  0  0  0  0  0
   -0.0028   -3.0841   -3.2342 H   0  0  0  0  0  0  0  0  0  0  0  0
   -1.1806   -3.7740   -4.3535 H   0  0  0  0  0  0  0  0  0  0  0  0
   -0.4976   -0.9445   -6.1080 H   0  0  0  0  0  0  0  0  0  0  0  0
   -4.1760   -1.0459   -1.6793 H   0  0  0  0  0  0  0  0  0  0  0  0
   -3.5898    0.5052    2.2164 H   0  0  0  0  0  0  0  0  0  0  0  0
   -4.0728    1.6940    4.3117 H   0  0  0  0  0  0  0  0  0  0  0  0
   -5.3927    3.7924    4.2912 H   0  0  0  0  0  0  0  0  0  0  0  0
   -6.2482    4.6991    2.1448 H   0  0  0  0  0  0  0  0  0  0  0  0
   -5.8339    3.0195   -0.9001 H   0  0  0  0  0  0  0  0  0  0  0  0
   -1.7799    1.7736    0.4647 H   0  0  0  0  0  0  0  0  0  0  0  0
    3.4887    0.9241    2.3352 H   0  0  0  0  0  0  0  0  0  0  0  0
    2.8926    1.9779    1.0333 H   0  0  0  0  0  0  0  0  0  0  0  0
    4.5144    1.3426    0.9363 H   0  0  0  0  0  0  0  0  0  0  0  0
  1  2  1  0
  2  3  1  0
  3  4  1  0
  4  5  2  0
  4  6  1  0
  6  7  1  0
  7  8  1  0
  8  9  1  0
  9 10  2  0
 10 11  1  0
 11 12  1  0
 12 13  1  0
 13 14  1  0
 14 15  2  0
 14 16  1  0
 11 17  2  0
 17 18  1  0
 18 19  1  0
 19 20  2  0
 19 21  1  0
 21 22  2  0
 22 23  1  0
 23 24  2  0
 24 25  1  0
 25 26  2  0
 26 27  1  0
 18 28  2  0
 28 29  1  0
 29 30  1  0
 30 31  2  0
 30 32  1  0
 32 33  1  0
 33 34  1  0
 33  6  2  0
 32  8  2  0
 29 10  1  0
 26 21  1  0
  1 35  1  0
  1 36  1  0
  1 37  1  0
  2 38  1  0
  2 39  1  0
 13 40  1  0
 13 41  1  0
 16 42  1  0
 17 43  1  0
 22 44  1  0
 23 45  1  0
 24 46  1  0
 25 47  1  0
 27 48  1  0
 28 49  1  0
 34 50  1  0
 34 51  1  0
 34 52  1  0
M  END
$$$$
