
     RDKit          3D

 42 45  0  0  0  0  0  0  0  0999 V2000
   -2.6181    4.1800   -0.3568 C   0  0  0  0  0  0  0  0  0  0  0  0
   -1.7839    2.9962    0.0385 C   0  0  0  0  0  0  0  0  0  0  0  0
   -0.7247    3.1525    0.9532 C   0  0  0  0  0  0  0  0  0  0  0  0
    0.0492    2.0595    1.3634 C   0  0  0  0  0  0  0  0  0  0  0  0
   -0.2415    0.8100    0.8437 C   0  0  0  0  0  0  0  0  0  0  0  0
   -1.3212    0.6453   -0.0305 C   0  0  0  0  0  0  0  0  0  0  0  0
   -2.0945    1.7205   -0.4461 C   0  0  0  0  0  0  0  0  0  0  0  0
   -1.4659   -0.7992   -0.4287 C   0  0  0  0  0  0  0  0  0  0  0  0
   -0.8794   -1.0095   -1.8351 C   0  0  0  0  0  0  0  0  0  0  0  0
   -0.4744   -2.3845   -2.1372 N   0  0  0  0  0  0  0  0  0  0  0  0
   -1.6124   -3.2802   -2.3187 C   0  0  0  0  0  0  0  0  0  0  0  0
    0.4832   -2.8602   -1.1351 C   0  0  0  0  0  0  0  0  0  0  0  0
   -0.0548   -2.8306    0.2912 C   0  0  0  0  0  0  0  0  0  0  0  0
   -0.6416   -1.4744    0.6942 C   0  0  0  0  0  0  0  0  0  0  0  0
    0.3474   -0.4520    1.1207 N   0  0  0  0  0  0  0  0  0  0  0  0
    1.2521   -0.6902    2.1535 C   0  0  0  0  0  0  0  0  0  0  0  0
    1.0644   -1.6052    2.9570 O   0  0  0  0  0  0  0  0  0  0  0  0
    2.4705    0.1038    2.1511 C   0  0  0  0  0  0  0  0  0  0  0  0
    3.1369    0.8011    1.1561 C   0  0  0  0  0  0  0  0  0  0  0  0
    4.2967    1.3571    1.7490 C   0  0  0  0  0  0  0  0  0  0  0  0
    4.2815    0.9581    3.0646 C   0  0  0  0  0  0  0  0  0  0  0  0
    5.6006    1.3999    4.3614 Br  0  0  0  0  0  0  0  0  0  0  0  0
    3.1868    0.1950    3.3158 O   0  0  0  0  0  0  0  0  0  0  0  0
   -3.4446    4.3074    0.3490 H   0  0  0  0  0  0  0  0  0  0  0  0
   -3.0288    4.0497   -1.3636 H   0  0  0  0  0  0  0  0  0  0  0  0
   -2.0162    5.0947   -0.3678 H   0  0  0  0  0  0  0  0  0  0  0  0
   -0.5031    4.1367    1.3630 H   0  0  0  0  0  0  0  0  0  0  0  0
    0.8313    2.2227    2.0952 H   0  0  0  0  0  0  0  0  0  0  0  0
   -2.9250    1.5717   -1.1305 H   0  0  0  0  0  0  0  0  0  0  0  0
   -2.5084   -1.1334   -0.3805 H   0  0  0  0  0  0  0  0  0  0  0  0
    0.0044   -0.3711   -1.9786 H   0  0  0  0  0  0  0  0  0  0  0  0
   -1.5951   -0.6536   -2.5885 H   0  0  0  0  0  0  0  0  0  0  0  0
   -1.2696   -4.2868   -2.5825 H   0  0  0  0  0  0  0  0  0  0  0  0
   -2.2357   -2.9357   -3.1515 H   0  0  0  0  0  0  0  0  0  0  0  0
   -2.2495   -3.3575   -1.4320 H   0  0  0  0  0  0  0  0  0  0  0  0
    0.8067   -3.8784   -1.3846 H   0  0  0  0  0  0  0  0  0  0  0  0
    1.3906   -2.2448   -1.1913 H   0  0  0  0  0  0  0  0  0  0  0  0
   -0.8440   -3.5873    0.3853 H   0  0  0  0  0  0  0  0  0  0  0  0
    0.7394   -3.1438    0.9766 H   0  0  0  0  0  0  0  0  0  0  0  0
   -1.2832   -1.6377    1.5739 H   0  0  0  0  0  0  0  0  0  0  0  0
    2.8210    0.8891    0.1250 H   0  0  0  0  0  0  0  0  0  0  0  0
    5.0528    1.9652    1.2725 H   0  0  0  0  0  0  0  0  0  0  0  0
  1  2  1  0
  2  3  2  0
  3  4  1  0
  4  5  2  0
  5  6  1  0
  6  7  2  0
  6  8  1  0
  8  9  1  0
  9 10  1  0
 10 11  1  0
 10 12  1  0
 12 13  1  0
 13 14  1  0
 14 15  1  0
 15 16  1  0
 16 17  2  0
 16 18  1  0
 18 19  2  0
 19 20  1  0
 20 21  2  0
 21 22  1  0
 21 23  1  0
  7  2  1  0
 14  8  1  0
 23 18  1  0
 15  5  1  0
  1 24  1  0
  1 25  1  0
  1 26  1  0
  3 27  1  0
  4 28  1  0
  7 29  1  0
  8 30  1  0
  9 31  1  0
  9 32  1  0
 11 33  1  0
 11 34  1  0
 11 35  1  0
 12 36  1  0
 12 37  1  0
 13 38  1  0
 13 39  1  0
 14 40  1  0
 19 41  1  0
 20 42  1  0
M  END
$$$$
