
     RDKit          3D

 47 49  0  0  0  0  0  0  0  0999 V2000
    7.2156    0.7364   -0.1516 C   0  0  0  0  0  0  0  0  0  0  0  0
    6.0679   -0.2616   -0.1463 C   0  0  0  0  0  0  0  0  0  0  0  0
    5.4665   -0.4122    1.2515 C   0  0  0  0  0  0  0  0  0  0  0  0
    4.3646   -1.4746    1.3288 C   0  0  0  0  0  0  0  0  0  0  0  0
    3.1798   -1.1721    0.5286 N   0  0  0  0  0  0  0  0  0  0  0  0
    2.3456   -0.0581    0.9509 C   0  0  0  0  0  0  0  0  0  0  0  0
    1.0325    0.0049    0.2488 C   0  0  0  0  0  0  0  0  0  0  0  0
   -0.0320    0.7843    0.7094 C   0  0  0  0  0  0  0  0  0  0  0  0
   -1.2070    0.8487   -0.0411 C   0  0  0  0  0  0  0  0  0  0  0  0
   -2.3259    1.6888    0.4287 C   0  0  0  0  0  0  0  0  0  0  0  0
   -2.0676    2.7516    0.9940 O   0  0  0  0  0  0  0  0  0  0  0  0
   -3.7492    1.3194    0.2279 C   0  0  0  0  0  0  0  0  0  0  0  0
   -4.1536   -0.0192    0.1473 C   0  0  0  0  0  0  0  0  0  0  0  0
   -5.4996   -0.3459   -0.0552 C   0  0  0  0  0  0  0  0  0  0  0  0
   -5.7503   -1.6884   -0.1256 O   0  0  0  0  0  0  0  0  0  0  0  0
   -7.1033   -2.0827   -0.3220 C   0  0  0  0  0  0  0  0  0  0  0  0
   -6.4478    0.6719   -0.1650 C   0  0  0  0  0  0  0  0  0  0  0  0
   -6.0562    2.0087   -0.0558 C   0  0  0  0  0  0  0  0  0  0  0  0
   -4.7181    2.3280    0.1532 C   0  0  0  0  0  0  0  0  0  0  0  0
   -4.4209    3.6583    0.2788 O   0  0  0  0  0  0  0  0  0  0  0  0
   -1.2458    0.1701   -1.2515 C   0  0  0  0  0  0  0  0  0  0  0  0
   -0.2264   -0.5900   -1.7194 N   0  0  0  0  0  0  0  0  0  0  0  0
    0.8826   -0.6595   -0.9549 C   0  0  0  0  0  0  0  0  0  0  0  0
    1.9185   -1.4455   -1.4163 N   0  0  0  0  0  0  0  0  0  0  0  0
    3.0422   -1.7534   -0.7167 C   0  0  0  0  0  0  0  0  0  0  0  0
    3.8569   -2.5410   -1.1935 O   0  0  0  0  0  0  0  0  0  0  0  0
    8.0201    0.4133    0.5168 H   0  0  0  0  0  0  0  0  0  0  0  0
    7.6300    0.8317   -1.1602 H   0  0  0  0  0  0  0  0  0  0  0  0
    6.8764    1.7258    0.1713 H   0  0  0  0  0  0  0  0  0  0  0  0
    5.3036    0.0796   -0.8529 H   0  0  0  0  0  0  0  0  0  0  0  0
    6.4345   -1.2315   -0.5013 H   0  0  0  0  0  0  0  0  0  0  0  0
    6.2607   -0.6949    1.9538 H   0  0  0  0  0  0  0  0  0  0  0  0
    5.0804    0.5561    1.5908 H   0  0  0  0  0  0  0  0  0  0  0  0
    4.7744   -2.4469    1.0317 H   0  0  0  0  0  0  0  0  0  0  0  0
    4.0353   -1.5806    2.3693 H   0  0  0  0  0  0  0  0  0  0  0  0
    2.8965    0.8692    0.7579 H   0  0  0  0  0  0  0  0  0  0  0  0
    2.1792   -0.1558    2.0298 H   0  0  0  0  0  0  0  0  0  0  0  0
    0.0536    1.3444    1.6383 H   0  0  0  0  0  0  0  0  0  0  0  0
   -3.4407   -0.8329    0.2562 H   0  0  0  0  0  0  0  0  0  0  0  0
   -7.1316   -3.1762   -0.3514 H   0  0  0  0  0  0  0  0  0  0  0  0
   -7.4864   -1.7135   -1.2790 H   0  0  0  0  0  0  0  0  0  0  0  0
   -7.7345   -1.7551    0.5106 H   0  0  0  0  0  0  0  0  0  0  0  0
   -7.5007    0.4623   -0.3238 H   0  0  0  0  0  0  0  0  0  0  0  0
   -6.7966    2.8019   -0.1240 H   0  0  0  0  0  0  0  0  0  0  0  0
   -3.5017    3.7296    0.6224 H   0  0  0  0  0  0  0  0  0  0  0  0
   -2.1049    0.2206   -1.9151 H   0  0  0  0  0  0  0  0  0  0  0  0
    1.7833   -1.9143   -2.2992 H   0  0  0  0  0  0  0  0  0  0  0  0
  1  2  1  0
  2  3  1  0
  3  4  1  0
  4  5  1  0
  5  6  1  0
  6  7  1  0
  7  8  2  0
  8  9  1  0
  9 10  1  0
 10 11  2  0
 10 12  1  0
 12 13  2  0
 13 14  1  0
 14 15  1  0
 15 16  1  0
 14 17  2  0
 17 18  1  0
 18 19  2  0
 19 20  1  0
  9 21  2  0
 21 22  1  0
 22 23  2  0
 23 24  1  0
 24 25  1  0
 25 26  2  0
 25  5  1  0
 23  7  1  0
 19 12  1  0
  1 27  1  0
  1 28  1  0
  1 29  1  0
  2 30  1  0
  2 31  1  0
  3 32  1  0
  3 33  1  0
  4 34  1  0
  4 35  1  0
  6 36  1  0
  6 37  1  0
  8 38  1  0
 13 39  1  0
 16 40  1  0
 16 41  1  0
 16 42  1  0
 17 43  1  0
 18 44  1  0
 20 45  1  0
 21 46  1  0
 24 47  1  0
M  END
$$$$
