
     RDKit          3D

 36 37  0  0  0  0  0  0  0  0999 V2000
    0.2436    0.9216    0.9343 O   0  0  0  0  0  0  0  0  0  0  0  0
    0.4940   -0.2764    1.0338 C   0  0  0  0  0  0  0  0  0  0  0  0
   -0.4768   -1.3802    0.6157 C   0  0  0  0  0  0  0  0  0  0  0  0
   -1.7069   -0.8385    0.1434 O   0  0  0  0  0  0  0  0  0  0  0  0
   -2.6036   -1.7804   -0.2201 C   0  0  0  0  0  0  0  0  0  0  0  0
   -2.4717   -2.9903   -0.1820 O   0  0  0  0  0  0  0  0  0  0  0  0
   -3.8088   -1.0945   -0.6852 C   0  0  0  0  0  0  0  0  0  0  0  0
   -3.9516   -0.7757   -2.0388 C   0  0  0  0  0  0  0  0  0  0  0  0
   -2.7388   -1.1515   -3.2100 Cl  0  0  0  0  0  0  0  0  0  0  0  0
   -5.1089   -0.1278   -2.4817 C   0  0  0  0  0  0  0  0  0  0  0  0
   -6.1204    0.1975   -1.5771 C   0  0  0  0  0  0  0  0  0  0  0  0
   -5.9778   -0.1256   -0.2271 C   0  0  0  0  0  0  0  0  0  0  0  0
   -4.8229   -0.7736    0.2220 C   0  0  0  0  0  0  0  0  0  0  0  0
   -4.7105   -1.1484    1.9047 Cl  0  0  0  0  0  0  0  0  0  0  0  0
    1.6788   -0.7668    1.5605 N   0  0  0  0  0  0  0  0  0  0  0  0
    2.8035    0.1172    1.8222 C   0  0  0  0  0  0  0  0  0  0  0  0
    3.8714    0.0364    0.7136 C   0  0  0  0  0  0  0  0  0  0  0  0
    4.9619    1.0819    0.8804 C   0  0  0  0  0  0  0  0  0  0  0  0
    4.3935    2.2668    0.1383 C   0  0  0  0  0  0  0  0  0  0  0  0
    3.6466    1.6100   -1.0032 C   0  0  0  0  0  0  0  0  0  0  0  0
    3.2801    0.2912   -0.5740 O   0  0  0  0  0  0  0  0  0  0  0  0
   -0.6642   -2.0151    1.4899 H   0  0  0  0  0  0  0  0  0  0  0  0
   -0.0005   -1.9622   -0.1822 H   0  0  0  0  0  0  0  0  0  0  0  0
   -5.2281    0.1273   -3.5328 H   0  0  0  0  0  0  0  0  0  0  0  0
   -7.0195    0.7027   -1.9241 H   0  0  0  0  0  0  0  0  0  0  0  0
   -6.7714    0.1309    0.4717 H   0  0  0  0  0  0  0  0  0  0  0  0
    1.8736   -1.7546    1.4607 H   0  0  0  0  0  0  0  0  0  0  0  0
    2.4329    1.1412    1.9337 H   0  0  0  0  0  0  0  0  0  0  0  0
    3.2391   -0.1902    2.7787 H   0  0  0  0  0  0  0  0  0  0  0  0
    4.2934   -0.9747    0.6953 H   0  0  0  0  0  0  0  0  0  0  0  0
    5.8743    0.7449    0.3735 H   0  0  0  0  0  0  0  0  0  0  0  0
    5.2133    1.2983    1.9224 H   0  0  0  0  0  0  0  0  0  0  0  0
    3.6926    2.8138    0.7792 H   0  0  0  0  0  0  0  0  0  0  0  0
    5.1536    2.9741   -0.2042 H   0  0  0  0  0  0  0  0  0  0  0  0
    2.7493    2.1657   -1.2901 H   0  0  0  0  0  0  0  0  0  0  0  0
    4.2870    1.5049   -1.8851 H   0  0  0  0  0  0  0  0  0  0  0  0
  1  2  2  0
  2  3  1  0
  3  4  1  0
  4  5  1  0
  5  6  2  0
  5  7  1  0
  7  8  2  0
  8  9  1  0
  8 10  1  0
 10 11  2  0
 11 12  1  0
 12 13  2  0
 13 14  1  0
  2 15  1  0
 15 16  1  0
 16 17  1  0
 17 18  1  0
 18 19  1  0
 19 20  1  0
 20 21  1  0
 13  7  1  0
 21 17  1  0
  3 22  1  0
  3 23  1  0
 10 24  1  0
 11 25  1  0
 12 26  1  0
 15 27  1  0
 16 28  1  0
 16 29  1  0
 17 30  1  0
 18 31  1  0
 18 32  1  0
 19 33  1  0
 19 34  1  0
 20 35  1  0
 20 36  1  0
M  END
$$$$
