
     RDKit          3D

 50 53  0  0  0  0  0  0  0  0999 V2000
   -3.6285    0.1572   -2.3473 O   0  0  0  0  0  0  0  0  0  0  0  0
   -2.8194   -0.0102   -1.4313 C   0  0  0  0  0  0  0  0  0  0  0  0
   -3.1888   -0.8529   -0.2071 C   0  0  0  0  0  0  0  0  0  0  0  0
   -4.4135   -1.7385   -0.4974 C   0  0  0  0  0  0  0  0  0  0  0  0
   -4.8188   -2.5552    0.7272 C   0  0  0  0  0  0  0  0  0  0  0  0
   -5.0767   -1.6607    1.9356 C   0  0  0  0  0  0  0  0  0  0  0  0
   -3.8870   -0.7514    2.2268 C   0  0  0  0  0  0  0  0  0  0  0  0
   -3.4776    0.0561    0.9971 C   0  0  0  0  0  0  0  0  0  0  0  0
   -1.5683    0.6005   -1.4639 N   0  0  0  0  0  0  0  0  0  0  0  0
   -1.2554    1.3890   -2.6563 C   0  0  0  0  0  0  0  0  0  0  0  0
    0.1419    2.0051   -2.6280 C   0  0  0  0  0  0  0  0  0  0  0  0
    0.4372    2.6176   -1.2622 C   0  0  0  0  0  0  0  0  0  0  0  0
    0.2646    1.5994   -0.1173 C   0  0  0  0  0  0  0  0  0  0  0  0
    1.5750    1.2522    0.4960 C   0  0  0  0  0  0  0  0  0  0  0  0
    2.6283    0.6831   -0.0421 N   0  0  0  0  0  0  0  0  0  0  0  0
    3.5112    0.6227    1.0171 C   0  0  0  0  0  0  0  0  0  0  0  0
    4.8501    0.0565    0.8836 C   0  0  0  0  0  0  0  0  0  0  0  0
    5.2830   -0.4486   -0.3544 C   0  0  0  0  0  0  0  0  0  0  0  0
    6.5628   -0.9929   -0.4924 C   0  0  0  0  0  0  0  0  0  0  0  0
    7.4122   -1.0338    0.6061 C   0  0  0  0  0  0  0  0  0  0  0  0
    8.6383   -1.5554    0.4734 F   0  0  0  0  0  0  0  0  0  0  0  0
    7.0074   -0.5407    1.8403 C   0  0  0  0  0  0  0  0  0  0  0  0
    5.7277    0.0041    1.9800 C   0  0  0  0  0  0  0  0  0  0  0  0
    3.0164    1.1246    2.1613 N   0  0  0  0  0  0  0  0  0  0  0  0
    1.7348    1.5437    1.8168 O   0  0  0  0  0  0  0  0  0  0  0  0
   -0.4459    0.3119   -0.5679 C   0  0  0  0  0  0  0  0  0  0  0  0
   -2.3563   -1.5303    0.0151 H   0  0  0  0  0  0  0  0  0  0  0  0
   -4.1940   -2.4160   -1.3316 H   0  0  0  0  0  0  0  0  0  0  0  0
   -5.2642   -1.1206   -0.8133 H   0  0  0  0  0  0  0  0  0  0  0  0
   -5.7193   -3.1371    0.5009 H   0  0  0  0  0  0  0  0  0  0  0  0
   -4.0253   -3.2739    0.9663 H   0  0  0  0  0  0  0  0  0  0  0  0
   -5.2925   -2.2794    2.8139 H   0  0  0  0  0  0  0  0  0  0  0  0
   -5.9669   -1.0469    1.7507 H   0  0  0  0  0  0  0  0  0  0  0  0
   -4.1379   -0.0700    3.0476 H   0  0  0  0  0  0  0  0  0  0  0  0
   -3.0370   -1.3578    2.5632 H   0  0  0  0  0  0  0  0  0  0  0  0
   -2.6072    0.6712    1.2479 H   0  0  0  0  0  0  0  0  0  0  0  0
   -4.2796    0.7614    0.7417 H   0  0  0  0  0  0  0  0  0  0  0  0
   -1.3596    0.7460   -3.5384 H   0  0  0  0  0  0  0  0  0  0  0  0
   -2.0122    2.1790   -2.7370 H   0  0  0  0  0  0  0  0  0  0  0  0
    0.2266    2.7652   -3.4125 H   0  0  0  0  0  0  0  0  0  0  0  0
    0.8924    1.2366   -2.8509 H   0  0  0  0  0  0  0  0  0  0  0  0
   -0.2654    3.4462   -1.1003 H   0  0  0  0  0  0  0  0  0  0  0  0
    1.4380    3.0663   -1.2650 H   0  0  0  0  0  0  0  0  0  0  0  0
   -0.3587    2.0808    0.6489 H   0  0  0  0  0  0  0  0  0  0  0  0
    4.6248   -0.4204   -1.2211 H   0  0  0  0  0  0  0  0  0  0  0  0
    6.8993   -1.3834   -1.4477 H   0  0  0  0  0  0  0  0  0  0  0  0
    7.6873   -0.5820    2.6853 H   0  0  0  0  0  0  0  0  0  0  0  0
    5.4230    0.3873    2.9522 H   0  0  0  0  0  0  0  0  0  0  0  0
    0.2311   -0.3524   -1.1220 H   0  0  0  0  0  0  0  0  0  0  0  0
   -0.7576   -0.2532    0.3127 H   0  0  0  0  0  0  0  0  0  0  0  0
  1  2  2  0
  2  3  1  0
  3  4  1  0
  4  5  1  0
  5  6  1  0
  6  7  1  0
  7  8  1  0
  2  9  1  0
  9 10  1  0
 10 11  1  0
 11 12  1  0
 12 13  1  0
 13 14  1  0
 14 15  2  0
 15 16  1  0
 16 17  1  0
 17 18  2  0
 18 19  1  0
 19 20  2  0
 20 21  1  0
 20 22  1  0
 22 23  2  0
 16 24  2  0
 24 25  1  0
 13 26  1  0
  8  3  1  0
 26  9  1  0
 25 14  1  0
 23 17  1  0
  3 27  1  0
  4 28  1  0
  4 29  1  0
  5 30  1  0
  5 31  1  0
  6 32  1  0
  6 33  1  0
  7 34  1  0
  7 35  1  0
  8 36  1  0
  8 37  1  0
 10 38  1  0
 10 39  1  0
 11 40  1  0
 11 41  1  0
 12 42  1  0
 12 43  1  0
 13 44  1  0
 18 45  1  0
 19 46  1  0
 22 47  1  0
 23 48  1  0
 26 49  1  0
 26 50  1  0
M  END
$$$$
