
     RDKit          3D

 32 35  0  0  0  0  0  0  0  0999 V2000
   -5.7546    2.3792    0.0441 C   0  0  0  0  0  0  0  0  0  0  0  0
   -4.3593    2.1150    0.0504 O   0  0  0  0  0  0  0  0  0  0  0  0
   -3.9592    0.8031    0.0286 C   0  0  0  0  0  0  0  0  0  0  0  0
   -4.8325   -0.2966    0.0005 C   0  0  0  0  0  0  0  0  0  0  0  0
   -4.3461   -1.6030   -0.0205 C   0  0  0  0  0  0  0  0  0  0  0  0
   -2.9749   -1.8575   -0.0142 C   0  0  0  0  0  0  0  0  0  0  0  0
   -2.1011   -0.7605    0.0139 C   0  0  0  0  0  0  0  0  0  0  0  0
   -0.3838   -0.7568    0.0280 S   0  0  0  0  0  0  0  0  0  0  0  0
   -0.3592    0.9643    0.0611 C   0  0  0  0  0  0  0  0  0  0  0  0
    0.7441    1.7452    0.0850 N   0  0  0  0  0  0  0  0  0  0  0  0
    2.0567    1.4631    0.0903 C   0  0  0  0  0  0  0  0  0  0  0  0
    3.0637    2.3098    0.1147 N   0  0  0  0  0  0  0  0  0  0  0  0
    4.2180    1.5553    0.1097 N   0  0  0  0  0  0  0  0  0  0  0  0
    3.8457    0.2884    0.0825 C   0  0  0  0  0  0  0  0  0  0  0  0
    4.7601   -0.8165    0.0688 C   0  0  0  0  0  0  0  0  0  0  0  0
    6.1412   -0.7555    0.0813 C   0  0  0  0  0  0  0  0  0  0  0  0
    6.7460   -2.0468    0.0615 C   0  0  0  0  0  0  0  0  0  0  0  0
    5.8068   -3.0529    0.0346 C   0  0  0  0  0  0  0  0  0  0  0  0
    4.2102   -2.4394    0.0333 S   0  0  0  0  0  0  0  0  0  0  0  0
    2.4777    0.1653    0.0690 O   0  0  0  0  0  0  0  0  0  0  0  0
   -1.5516    1.5147    0.0619 N   0  0  0  0  0  0  0  0  0  0  0  0
   -2.5599    0.5552    0.0353 C   0  0  0  0  0  0  0  0  0  0  0  0
   -5.8897    3.4650    0.0638 H   0  0  0  0  0  0  0  0  0  0  0  0
   -6.2239    2.0028   -0.8708 H   0  0  0  0  0  0  0  0  0  0  0  0
   -6.2386    1.9682    0.9362 H   0  0  0  0  0  0  0  0  0  0  0  0
   -5.9099   -0.1620   -0.0058 H   0  0  0  0  0  0  0  0  0  0  0  0
   -5.0449   -2.4371   -0.0422 H   0  0  0  0  0  0  0  0  0  0  0  0
   -2.5965   -2.8752   -0.0306 H   0  0  0  0  0  0  0  0  0  0  0  0
    0.5277    2.7351    0.1022 H   0  0  0  0  0  0  0  0  0  0  0  0
    6.6942    0.1772    0.1036 H   0  0  0  0  0  0  0  0  0  0  0  0
    7.8144   -2.2263    0.0668 H   0  0  0  0  0  0  0  0  0  0  0  0
    5.9792   -4.1205    0.0156 H   0  0  0  0  0  0  0  0  0  0  0  0
  1  2  1  0
  2  3  1  0
  3  4  2  0
  4  5  1  0
  5  6  2  0
  6  7  1  0
  7  8  1  0
  8  9  1  0
  9 10  1  0
 10 11  1  0
 11 12  2  0
 12 13  1  0
 13 14  2  0
 14 15  1  0
 15 16  2  0
 16 17  1  0
 17 18  2  0
 18 19  1  0
 14 20  1  0
  9 21  2  0
 21 22  1  0
 22  3  1  0
 22  7  2  0
 20 11  1  0
 19 15  1  0
  1 23  1  0
  1 24  1  0
  1 25  1  0
  4 26  1  0
  5 27  1  0
  6 28  1  0
 10 29  1  0
 16 30  1  0
 17 31  1  0
 18 32  1  0
M  END
$$$$
