
     RDKit          3D

 55 58  0  0  0  0  0  0  0  0999 V2000
   -7.0586   -1.9224   -1.6336 C   0  0  0  0  0  0  0  0  0  0  0  0
   -6.7045   -0.6642   -1.0786 O   0  0  0  0  0  0  0  0  0  0  0  0
   -5.3901   -0.4642   -0.7387 C   0  0  0  0  0  0  0  0  0  0  0  0
   -4.3703   -1.3954   -0.9421 C   0  0  0  0  0  0  0  0  0  0  0  0
   -3.0543   -1.1029   -0.5626 C   0  0  0  0  0  0  0  0  0  0  0  0
   -2.7187    0.1231    0.0335 C   0  0  0  0  0  0  0  0  0  0  0  0
   -1.3354    0.4477    0.4454 C   0  0  0  0  0  0  0  0  0  0  0  0
   -0.4248   -0.5073    0.8617 C   0  0  0  0  0  0  0  0  0  0  0  0
    0.8570   -0.0885    1.2169 C   0  0  0  0  0  0  0  0  0  0  0  0
    1.8042   -1.1402    1.6323 C   0  0  0  0  0  0  0  0  0  0  0  0
    1.5750   -1.7165    2.6918 O   0  0  0  0  0  0  0  0  0  0  0  0
    2.8972   -1.4249    0.8062 N   0  0  0  0  0  0  0  0  0  0  0  0
    3.7694   -2.5213    1.2234 C   0  0  0  0  0  0  0  0  0  0  0  0
    5.2005   -2.3202    0.7372 C   0  0  0  0  0  0  0  0  0  0  0  0
    5.2476   -2.0532   -0.7646 C   0  0  0  0  0  0  0  0  0  0  0  0
    4.3483   -0.8651   -1.1272 C   0  0  0  0  0  0  0  0  0  0  0  0
    4.3277   -0.6245   -2.6226 C   0  0  0  0  0  0  0  0  0  0  0  0
    3.5624    0.4446   -2.9304 F   0  0  0  0  0  0  0  0  0  0  0  0
    5.5703   -0.3843   -3.0937 F   0  0  0  0  0  0  0  0  0  0  0  0
    3.8322   -1.6895   -3.2883 F   0  0  0  0  0  0  0  0  0  0  0  0
    2.9240   -1.0977   -0.6270 C   0  0  0  0  0  0  0  0  0  0  0  0
    1.2180    1.2735    1.2075 C   0  0  0  0  0  0  0  0  0  0  0  0
    2.4799    1.7815    1.6080 C   0  0  0  0  0  0  0  0  0  0  0  0
    2.7525    3.1461    1.5520 C   0  0  0  0  0  0  0  0  0  0  0  0
    1.7718    4.0186    1.1023 C   0  0  0  0  0  0  0  0  0  0  0  0
    0.5237    3.5205    0.7197 C   0  0  0  0  0  0  0  0  0  0  0  0
    0.2254    2.1651    0.7690 C   0  0  0  0  0  0  0  0  0  0  0  0
   -1.0022    1.7630    0.3953 N   0  0  0  0  0  0  0  0  0  0  0  0
   -3.7590    1.0549    0.2222 C   0  0  0  0  0  0  0  0  0  0  0  0
   -5.0810    0.7773   -0.1545 C   0  0  0  0  0  0  0  0  0  0  0  0
   -6.1333    1.6445    0.0113 O   0  0  0  0  0  0  0  0  0  0  0  0
   -5.8483    2.9313    0.5406 C   0  0  0  0  0  0  0  0  0  0  0  0
   -8.1364   -1.9134   -1.8226 H   0  0  0  0  0  0  0  0  0  0  0  0
   -6.5551   -2.0871   -2.5919 H   0  0  0  0  0  0  0  0  0  0  0  0
   -6.8515   -2.7370   -0.9317 H   0  0  0  0  0  0  0  0  0  0  0  0
   -4.5616   -2.3599   -1.4002 H   0  0  0  0  0  0  0  0  0  0  0  0
   -2.2910   -1.8521   -0.7602 H   0  0  0  0  0  0  0  0  0  0  0  0
   -0.6900   -1.5568    0.9324 H   0  0  0  0  0  0  0  0  0  0  0  0
    3.3494   -3.4484    0.8145 H   0  0  0  0  0  0  0  0  0  0  0  0
    3.7692   -2.6152    2.3148 H   0  0  0  0  0  0  0  0  0  0  0  0
    5.8031   -3.2026    0.9791 H   0  0  0  0  0  0  0  0  0  0  0  0
    5.6471   -1.4689    1.2665 H   0  0  0  0  0  0  0  0  0  0  0  0
    4.9253   -2.9524   -1.3046 H   0  0  0  0  0  0  0  0  0  0  0  0
    6.2816   -1.8508   -1.0668 H   0  0  0  0  0  0  0  0  0  0  0  0
    4.7493    0.0318   -0.6367 H   0  0  0  0  0  0  0  0  0  0  0  0
    2.4545   -1.9415   -1.1487 H   0  0  0  0  0  0  0  0  0  0  0  0
    2.3102   -0.2194   -0.8397 H   0  0  0  0  0  0  0  0  0  0  0  0
    3.2558    1.1129    1.9764 H   0  0  0  0  0  0  0  0  0  0  0  0
    3.7227    3.5249    1.8634 H   0  0  0  0  0  0  0  0  0  0  0  0
    1.9674    5.0869    1.0536 H   0  0  0  0  0  0  0  0  0  0  0  0
   -0.2419    4.2128    0.3756 H   0  0  0  0  0  0  0  0  0  0  0  0
   -3.5056    2.0071    0.6804 H   0  0  0  0  0  0  0  0  0  0  0  0
   -6.7860    3.4946    0.5723 H   0  0  0  0  0  0  0  0  0  0  0  0
   -5.4694    2.8609    1.5654 H   0  0  0  0  0  0  0  0  0  0  0  0
   -5.1537    3.4803   -0.1035 H   0  0  0  0  0  0  0  0  0  0  0  0
  1  2  1  0
  2  3  1  0
  3  4  2  0
  4  5  1  0
  5  6  2  0
  6  7  1  0
  7  8  2  0
  8  9  1  0
  9 10  1  0
 10 11  2  0
 10 12  1  0
 12 13  1  0
 13 14  1  0
 14 15  1  0
 15 16  1  0
 16 17  1  0
 17 18  1  0
 17 19  1  0
 17 20  1  0
 16 21  1  0
  9 22  2  0
 22 23  1  0
 23 24  2  0
 24 25  1  0
 25 26  2  0
 26 27  1  0
 27 28  2  0
  6 29  1  0
 29 30  2  0
 30 31  1  0
 31 32  1  0
 30  3  1  0
 28  7  1  0
 21 12  1  0
 27 22  1  0
  1 33  1  0
  1 34  1  0
  1 35  1  0
  4 36  1  0
  5 37  1  0
  8 38  1  0
 13 39  1  0
 13 40  1  0
 14 41  1  0
 14 42  1  0
 15 43  1  0
 15 44  1  0
 16 45  1  0
 21 46  1  0
 21 47  1  0
 23 48  1  0
 24 49  1  0
 25 50  1  0
 26 51  1  0
 29 52  1  0
 32 53  1  0
 32 54  1  0
 32 55  1  0
M  END
$$$$
