
     RDKit          3D

 48 51  0  0  0  0  0  0  0  0999 V2000
   -0.7554   -0.1190    2.1711 O   0  0  0  0  0  0  0  0  0  0  0  0
    0.1761   -0.6239    1.5448 C   0  0  0  0  0  0  0  0  0  0  0  0
    1.3922   -1.2327    2.2572 C   0  0  0  0  0  0  0  0  0  0  0  0
    2.6730   -0.6800    1.7620 N   0  0  0  0  0  0  0  0  0  0  0  0
    2.8558    0.7610    1.9976 C   0  0  0  0  0  0  0  0  0  0  0  0
    4.3328    1.1180    1.9974 C   0  0  0  0  0  0  0  0  0  0  0  0
    4.9038    0.8062    0.6221 C   0  0  0  0  0  0  0  0  0  0  0  0
    4.5323   -0.5897    0.1782 C   0  0  0  0  0  0  0  0  0  0  0  0
    5.2878   -1.1692   -0.8607 C   0  0  0  0  0  0  0  0  0  0  0  0
    5.0047   -2.4539   -1.3149 C   0  0  0  0  0  0  0  0  0  0  0  0
    3.9740   -3.1721   -0.7229 C   0  0  0  0  0  0  0  0  0  0  0  0
    3.2185   -2.5945    0.3091 C   0  0  0  0  0  0  0  0  0  0  0  0
    3.4477   -1.2821    0.7672 C   0  0  0  0  0  0  0  0  0  0  0  0
    0.2614   -0.7169    0.1535 N   0  0  0  0  0  0  0  0  0  0  0  0
   -0.6177   -0.1216   -0.7226 N   0  0  0  0  0  0  0  0  0  0  0  0
   -1.8803   -0.1511   -0.4117 C   0  0  0  0  0  0  0  0  0  0  0  0
   -2.9008    0.5036   -1.2693 C   0  0  0  0  0  0  0  0  0  0  0  0
   -2.5830    0.8034   -2.6081 C   0  0  0  0  0  0  0  0  0  0  0  0
   -1.3522    0.5668   -3.1691 O   0  0  0  0  0  0  0  0  0  0  0  0
   -3.5326    1.3595   -3.4505 C   0  0  0  0  0  0  0  0  0  0  0  0
   -4.8071    1.6402   -2.9669 C   0  0  0  0  0  0  0  0  0  0  0  0
   -5.1522    1.3699   -1.6305 C   0  0  0  0  0  0  0  0  0  0  0  0
   -6.4452    1.6777   -1.1704 C   0  0  0  0  0  0  0  0  0  0  0  0
   -6.8154    1.4477    0.1557 C   0  0  0  0  0  0  0  0  0  0  0  0
   -5.8931    0.9110    1.0416 C   0  0  0  0  0  0  0  0  0  0  0  0
   -4.6046    0.5922    0.5996 C   0  0  0  0  0  0  0  0  0  0  0  0
   -4.1969    0.7994   -0.7471 C   0  0  0  0  0  0  0  0  0  0  0  0
    1.3291   -2.3209    2.1978 H   0  0  0  0  0  0  0  0  0  0  0  0
    1.3026   -0.9918    3.3195 H   0  0  0  0  0  0  0  0  0  0  0  0
    2.3190    1.3343    1.2265 H   0  0  0  0  0  0  0  0  0  0  0  0
    2.4273    1.0470    2.9680 H   0  0  0  0  0  0  0  0  0  0  0  0
    4.4708    2.1794    2.2297 H   0  0  0  0  0  0  0  0  0  0  0  0
    4.8602    0.5381    2.7690 H   0  0  0  0  0  0  0  0  0  0  0  0
    4.5160    1.5244   -0.1173 H   0  0  0  0  0  0  0  0  0  0  0  0
    5.9949    0.9188    0.6531 H   0  0  0  0  0  0  0  0  0  0  0  0
    6.1167   -0.6097   -1.2984 H   0  0  0  0  0  0  0  0  0  0  0  0
    5.6035   -2.8895   -2.1127 H   0  0  0  0  0  0  0  0  0  0  0  0
    3.7594   -4.1833   -1.0517 H   0  0  0  0  0  0  0  0  0  0  0  0
    2.4500   -3.2197    0.7524 H   0  0  0  0  0  0  0  0  0  0  0  0
    1.2131   -0.7768   -0.2039 H   0  0  0  0  0  0  0  0  0  0  0  0
   -2.2450   -0.7029    0.4724 H   0  0  0  0  0  0  0  0  0  0  0  0
   -0.7482    0.2910   -2.4456 H   0  0  0  0  0  0  0  0  0  0  0  0
   -3.2763    1.5807   -4.4837 H   0  0  0  0  0  0  0  0  0  0  0  0
   -5.5322    2.0844   -3.6457 H   0  0  0  0  0  0  0  0  0  0  0  0
   -7.1815    2.1080   -1.8448 H   0  0  0  0  0  0  0  0  0  0  0  0
   -7.8193    1.6965    0.4974 H   0  0  0  0  0  0  0  0  0  0  0  0
   -6.1675    0.7445    2.0826 H   0  0  0  0  0  0  0  0  0  0  0  0
   -3.9165    0.1972    1.3430 H   0  0  0  0  0  0  0  0  0  0  0  0
  1  2  2  0
  2  3  1  0
  3  4  1  0
  4  5  1  0
  5  6  1  0
  6  7  1  0
  7  8  1  0
  8  9  2  0
  9 10  1  0
 10 11  2  0
 11 12  1  0
 12 13  2  0
  2 14  1  0
 14 15  1  0
 15 16  2  3
 16 17  1  0
 17 18  2  0
 18 19  1  0
 18 20  1  0
 20 21  2  0
 21 22  1  0
 22 23  2  0
 23 24  1  0
 24 25  2  0
 25 26  1  0
 26 27  2  0
 13  4  1  0
 27 17  1  0
 13  8  1  0
 27 22  1  0
  3 28  1  0
  3 29  1  0
  5 30  1  0
  5 31  1  0
  6 32  1  0
  6 33  1  0
  7 34  1  0
  7 35  1  0
  9 36  1  0
 10 37  1  0
 11 38  1  0
 12 39  1  0
 14 40  1  0
 16 41  1  0
 19 42  1  0
 20 43  1  0
 21 44  1  0
 23 45  1  0
 24 46  1  0
 25 47  1  0
 26 48  1  0
M  END
$$$$
