
     RDKit          3D

 44 46  0  0  0  0  0  0  0  0999 V2000
    4.7223    2.2420   -1.0020 C   0  0  0  0  0  0  0  0  0  0  0  0
    4.0397    1.0652   -0.5787 O   0  0  0  0  0  0  0  0  0  0  0  0
    4.7965   -0.0118   -0.1844 C   0  0  0  0  0  0  0  0  0  0  0  0
    6.1992   -0.0254   -0.2502 C   0  0  0  0  0  0  0  0  0  0  0  0
    6.9278   -1.1417    0.1671 C   0  0  0  0  0  0  0  0  0  0  0  0
    6.2676   -2.2618    0.6538 C   0  0  0  0  0  0  0  0  0  0  0  0
    4.8754   -2.2657    0.7224 C   0  0  0  0  0  0  0  0  0  0  0  0
    4.1199   -1.1511    0.3067 C   0  0  0  0  0  0  0  0  0  0  0  0
    2.6218   -1.2835    0.4358 C   0  0  0  0  0  0  0  0  0  0  0  0
    2.1675   -2.3025    0.9495 O   0  0  0  0  0  0  0  0  0  0  0  0
    1.8633   -0.2361   -0.0476 N   0  0  0  0  0  0  0  0  0  0  0  0
    0.4625   -0.0971   -0.0460 C   0  0  0  0  0  0  0  0  0  0  0  0
   -0.0624    1.0728   -0.6039 C   0  0  0  0  0  0  0  0  0  0  0  0
   -1.4444    1.2907   -0.6390 C   0  0  0  0  0  0  0  0  0  0  0  0
   -2.3313    0.3405   -0.1169 C   0  0  0  0  0  0  0  0  0  0  0  0
   -3.8064    0.6190   -0.1773 C   0  0  0  0  0  0  0  0  0  0  0  0
   -4.2041    1.8186   -0.4935 N   0  0  0  0  0  0  0  0  0  0  0  0
   -5.5404    2.0593   -0.5796 N   0  0  0  0  0  0  0  0  0  0  0  0
   -6.5258    1.1110   -0.6733 C   0  0  0  0  0  0  0  0  0  0  0  0
   -7.7099    1.4116   -0.7998 O   0  0  0  0  0  0  0  0  0  0  0  0
   -6.0464   -0.3129   -0.6875 C   0  0  0  0  0  0  0  0  0  0  0  0
   -4.7992   -0.4850    0.1680 C   0  0  0  0  0  0  0  0  0  0  0  0
   -5.1276   -0.4405    1.6619 C   0  0  0  0  0  0  0  0  0  0  0  0
   -1.8053   -0.8267    0.4444 C   0  0  0  0  0  0  0  0  0  0  0  0
   -0.4194   -1.0422    0.4769 C   0  0  0  0  0  0  0  0  0  0  0  0
    5.3540    2.6419   -0.2018 H   0  0  0  0  0  0  0  0  0  0  0  0
    5.2995    2.0548   -1.9131 H   0  0  0  0  0  0  0  0  0  0  0  0
    3.9660    2.9970   -1.2375 H   0  0  0  0  0  0  0  0  0  0  0  0
    6.7659    0.8229   -0.6223 H   0  0  0  0  0  0  0  0  0  0  0  0
    8.0139   -1.1339    0.1111 H   0  0  0  0  0  0  0  0  0  0  0  0
    6.8303   -3.1332    0.9798 H   0  0  0  0  0  0  0  0  0  0  0  0
    4.3750   -3.1546    1.1051 H   0  0  0  0  0  0  0  0  0  0  0  0
    2.3892    0.5362   -0.4445 H   0  0  0  0  0  0  0  0  0  0  0  0
    0.5939    1.8332   -1.0199 H   0  0  0  0  0  0  0  0  0  0  0  0
   -1.8181    2.2122   -1.0811 H   0  0  0  0  0  0  0  0  0  0  0  0
   -5.8224    3.0300   -0.6749 H   0  0  0  0  0  0  0  0  0  0  0  0
   -6.8516   -0.9662   -0.3347 H   0  0  0  0  0  0  0  0  0  0  0  0
   -5.8308   -0.5717   -1.7314 H   0  0  0  0  0  0  0  0  0  0  0  0
   -4.3763   -1.4658   -0.0721 H   0  0  0  0  0  0  0  0  0  0  0  0
   -5.8446   -1.2251    1.9250 H   0  0  0  0  0  0  0  0  0  0  0  0
   -4.2290   -0.5921    2.2684 H   0  0  0  0  0  0  0  0  0  0  0  0
   -5.5558    0.5236    1.9580 H   0  0  0  0  0  0  0  0  0  0  0  0
   -2.4384   -1.5923    0.8814 H   0  0  0  0  0  0  0  0  0  0  0  0
   -0.0614   -1.9636    0.9267 H   0  0  0  0  0  0  0  0  0  0  0  0
  1  2  1  0
  2  3  1  0
  3  4  2  0
  4  5  1  0
  5  6  2  0
  6  7  1  0
  7  8  2  0
  8  9  1  0
  9 10  2  0
  9 11  1  0
 11 12  1  0
 12 13  2  0
 13 14  1  0
 14 15  2  0
 15 16  1  0
 16 17  2  0
 17 18  1  0
 18 19  1  0
 19 20  2  0
 19 21  1  0
 21 22  1  0
 22 23  1  0
 15 24  1  0
 24 25  2  0
  8  3  1  0
 25 12  1  0
 22 16  1  0
  1 26  1  0
  1 27  1  0
  1 28  1  0
  4 29  1  0
  5 30  1  0
  6 31  1  0
  7 32  1  0
 11 33  1  0
 13 34  1  0
 14 35  1  0
 18 36  1  0
 21 37  1  0
 21 38  1  0
 22 39  1  0
 23 40  1  0
 23 41  1  0
 23 42  1  0
 24 43  1  0
 25 44  1  0
M  END
$$$$
