
     RDKit          3D

 45 46  0  0  0  0  0  0  0  0999 V2000
    5.8212   -0.7535   -3.3606 C   0  0  0  0  0  0  0  0  0  0  0  0
    4.6126   -0.0856   -3.0267 O   0  0  0  0  0  0  0  0  0  0  0  0
    4.0904   -0.3086   -1.7783 C   0  0  0  0  0  0  0  0  0  0  0  0
    4.7203   -1.0457   -0.7733 C   0  0  0  0  0  0  0  0  0  0  0  0
    4.1024   -1.2153    0.4668 C   0  0  0  0  0  0  0  0  0  0  0  0
    2.8449   -0.6606    0.7099 C   0  0  0  0  0  0  0  0  0  0  0  0
    2.1791    0.0723   -0.2827 C   0  0  0  0  0  0  0  0  0  0  0  0
    0.8594    0.6267    0.0654 C   0  0  0  0  0  0  0  0  0  0  0  0
   -0.1864    0.6727   -0.7732 C   0  0  0  0  0  0  0  0  0  0  0  0
   -1.4584    1.2646   -0.3105 C   0  0  0  0  0  0  0  0  0  0  0  0
   -1.7803    2.3804   -0.7082 O   0  0  0  0  0  0  0  0  0  0  0  0
   -2.2238    0.5063    0.5525 N   0  0  0  0  0  0  0  0  0  0  0  0
   -3.4455    1.0950    1.0978 C   0  0  0  0  0  0  0  0  0  0  0  0
   -3.9264    0.3334    2.3406 C   0  0  0  0  0  0  0  0  0  0  0  0
   -5.2027    0.9456    2.9001 C   0  0  0  0  0  0  0  0  0  0  0  0
   -4.1978   -1.0476    2.0558 O   0  0  0  0  0  0  0  0  0  0  0  0
   -3.2410   -1.6873    1.1949 C   0  0  0  0  0  0  0  0  0  0  0  0
   -3.9472   -2.0476   -0.1100 C   0  0  0  0  0  0  0  0  0  0  0  0
   -1.9510   -0.8792    0.9469 C   0  0  0  0  0  0  0  0  0  0  0  0
    2.8319    0.2698   -1.5157 C   0  0  0  0  0  0  0  0  0  0  0  0
    2.2093    0.9918   -2.5105 O   0  0  0  0  0  0  0  0  0  0  0  0
    2.6504    2.3497   -2.4808 C   0  0  0  0  0  0  0  0  0  0  0  0
    6.6503   -0.4000   -2.7389 H   0  0  0  0  0  0  0  0  0  0  0  0
    6.0602   -0.5120   -4.4008 H   0  0  0  0  0  0  0  0  0  0  0  0
    5.7074   -1.8404   -3.2893 H   0  0  0  0  0  0  0  0  0  0  0  0
    5.6950   -1.4985   -0.9207 H   0  0  0  0  0  0  0  0  0  0  0  0
    4.6012   -1.7868    1.2462 H   0  0  0  0  0  0  0  0  0  0  0  0
    2.3843   -0.8169    1.6832 H   0  0  0  0  0  0  0  0  0  0  0  0
    0.7538    0.9980    1.0826 H   0  0  0  0  0  0  0  0  0  0  0  0
   -0.1560    0.3468   -1.8046 H   0  0  0  0  0  0  0  0  0  0  0  0
   -4.1985    1.0520    0.3019 H   0  0  0  0  0  0  0  0  0  0  0  0
   -3.2649    2.1501    1.3329 H   0  0  0  0  0  0  0  0  0  0  0  0
   -3.1540    0.3637    3.1193 H   0  0  0  0  0  0  0  0  0  0  0  0
   -5.5344    0.3946    3.7869 H   0  0  0  0  0  0  0  0  0  0  0  0
   -5.0540    1.9939    3.1761 H   0  0  0  0  0  0  0  0  0  0  0  0
   -6.0175    0.8862    2.1701 H   0  0  0  0  0  0  0  0  0  0  0  0
   -2.9637   -2.6270    1.6868 H   0  0  0  0  0  0  0  0  0  0  0  0
   -3.2839   -2.6039   -0.7794 H   0  0  0  0  0  0  0  0  0  0  0  0
   -4.3049   -1.1566   -0.6353 H   0  0  0  0  0  0  0  0  0  0  0  0
   -4.8300   -2.6633    0.0944 H   0  0  0  0  0  0  0  0  0  0  0  0
   -1.3242   -1.3844    0.2059 H   0  0  0  0  0  0  0  0  0  0  0  0
   -1.3788   -0.8175    1.8807 H   0  0  0  0  0  0  0  0  0  0  0  0
    2.0851    2.9001   -3.2387 H   0  0  0  0  0  0  0  0  0  0  0  0
    2.4523    2.8142   -1.5086 H   0  0  0  0  0  0  0  0  0  0  0  0
    3.7139    2.4307   -2.7288 H   0  0  0  0  0  0  0  0  0  0  0  0
  1  2  1  0
  2  3  1  0
  3  4  2  0
  4  5  1  0
  5  6  2  0
  6  7  1  0
  7  8  1  0
  8  9  2  3
  9 10  1  0
 10 11  2  0
 10 12  1  0
 12 13  1  0
 13 14  1  0
 14 15  1  0
 14 16  1  0
 16 17  1  0
 17 18  1  0
 17 19  1  0
  7 20  2  0
 20 21  1  0
 21 22  1  0
 20  3  1  0
 19 12  1  0
  1 23  1  0
  1 24  1  0
  1 25  1  0
  4 26  1  0
  5 27  1  0
  6 28  1  0
  8 29  1  0
  9 30  1  0
 13 31  1  0
 13 32  1  0
 14 33  1  0
 15 34  1  0
 15 35  1  0
 15 36  1  0
 17 37  1  0
 18 38  1  0
 18 39  1  0
 18 40  1  0
 19 41  1  0
 19 42  1  0
 22 43  1  0
 22 44  1  0
 22 45  1  0
M  END
$$$$
