
     RDKit          3D

 53 56  0  0  0  0  0  0  0  0999 V2000
   -0.7185   -4.1395   -1.5119 C   0  0  0  0  0  0  0  0  0  0  0  0
   -0.0546   -3.4055   -0.3531 C   0  0  0  0  0  0  0  0  0  0  0  0
   -0.2878   -1.9571   -0.4242 N   0  0  0  0  0  0  0  0  0  0  0  0
    0.5993   -1.2022   -1.2107 C   0  0  0  0  0  0  0  0  0  0  0  0
    1.3628   -1.7526   -2.0126 O   0  0  0  0  0  0  0  0  0  0  0  0
    0.5957    0.3238   -1.0404 C   0  0  0  0  0  0  0  0  0  0  0  0
    2.2808    1.0067   -1.1881 S   0  0  0  0  0  0  0  0  0  0  0  0
    3.0088    0.3140    0.2205 C   0  0  0  0  0  0  0  0  0  0  0  0
    2.3781   -0.0411    1.3177 N   0  0  0  0  0  0  0  0  0  0  0  0
    3.3133   -0.5392    2.1983 N   0  0  0  0  0  0  0  0  0  0  0  0
    4.4900   -0.4774    1.6123 C   0  0  0  0  0  0  0  0  0  0  0  0
    5.7959   -0.8474    2.0364 C   0  0  0  0  0  0  0  0  0  0  0  0
    6.8412   -0.6670    1.2051 C   0  0  0  0  0  0  0  0  0  0  0  0
    6.6675   -0.1005   -0.1246 C   0  0  0  0  0  0  0  0  0  0  0  0
    5.4342    0.2511   -0.5284 C   0  0  0  0  0  0  0  0  0  0  0  0
    4.3549    0.0634    0.3382 N   0  0  0  0  0  0  0  0  0  0  0  0
   -1.3930   -1.4192    0.2455 C   0  0  0  0  0  0  0  0  0  0  0  0
   -2.3309   -0.6582   -0.3774 C   0  0  0  0  0  0  0  0  0  0  0  0
   -2.3150   -0.5312   -1.7683 N   0  0  0  0  0  0  0  0  0  0  0  0
   -3.3243   -0.0303    0.3724 N   0  0  0  0  0  0  0  0  0  0  0  0
   -4.1009    1.0802   -0.1945 C   0  0  0  0  0  0  0  0  0  0  0  0
   -3.3334    2.3868   -0.1766 C   0  0  0  0  0  0  0  0  0  0  0  0
   -3.2936    3.1722    0.9850 C   0  0  0  0  0  0  0  0  0  0  0  0
   -2.5607    4.3597    1.0151 C   0  0  0  0  0  0  0  0  0  0  0  0
   -1.8571    4.7747   -0.1134 C   0  0  0  0  0  0  0  0  0  0  0  0
   -1.8860    4.0034   -1.2731 C   0  0  0  0  0  0  0  0  0  0  0  0
   -2.6197    2.8162   -1.3051 C   0  0  0  0  0  0  0  0  0  0  0  0
   -3.5044   -0.2762    1.7280 C   0  0  0  0  0  0  0  0  0  0  0  0
   -4.3226    0.3020    2.4410 O   0  0  0  0  0  0  0  0  0  0  0  0
   -2.7034   -1.2298    2.2751 N   0  0  0  0  0  0  0  0  0  0  0  0
   -1.5602   -1.6949    1.7070 C   0  0  0  0  0  0  0  0  0  0  0  0
   -0.7302   -2.3001    2.3778 O   0  0  0  0  0  0  0  0  0  0  0  0
   -0.5195   -5.2135   -1.4437 H   0  0  0  0  0  0  0  0  0  0  0  0
   -1.8033   -3.9915   -1.4978 H   0  0  0  0  0  0  0  0  0  0  0  0
   -0.3467   -3.7848   -2.4781 H   0  0  0  0  0  0  0  0  0  0  0  0
    1.0257   -3.5924   -0.3743 H   0  0  0  0  0  0  0  0  0  0  0  0
   -0.4297   -3.8216    0.5852 H   0  0  0  0  0  0  0  0  0  0  0  0
   -0.0032    0.7602   -1.8437 H   0  0  0  0  0  0  0  0  0  0  0  0
    0.1819    0.6358   -0.0790 H   0  0  0  0  0  0  0  0  0  0  0  0
    5.9206   -1.2706    3.0267 H   0  0  0  0  0  0  0  0  0  0  0  0
    7.8459   -0.9447    1.5106 H   0  0  0  0  0  0  0  0  0  0  0  0
    7.5370    0.0227   -0.7619 H   0  0  0  0  0  0  0  0  0  0  0  0
    5.2327    0.6738   -1.5046 H   0  0  0  0  0  0  0  0  0  0  0  0
   -1.7656   -1.2729   -2.2064 H   0  0  0  0  0  0  0  0  0  0  0  0
   -3.2563   -0.5517   -2.1520 H   0  0  0  0  0  0  0  0  0  0  0  0
   -4.4290    0.8384   -1.2115 H   0  0  0  0  0  0  0  0  0  0  0  0
   -5.0333    1.2135    0.3693 H   0  0  0  0  0  0  0  0  0  0  0  0
   -3.8316    2.8604    1.8789 H   0  0  0  0  0  0  0  0  0  0  0  0
   -2.5355    4.9577    1.9226 H   0  0  0  0  0  0  0  0  0  0  0  0
   -1.2832    5.6972   -0.0870 H   0  0  0  0  0  0  0  0  0  0  0  0
   -1.3328    4.3241   -2.1519 H   0  0  0  0  0  0  0  0  0  0  0  0
   -2.6211    2.2230   -2.2165 H   0  0  0  0  0  0  0  0  0  0  0  0
   -2.7792   -1.3479    3.2740 H   0  0  0  0  0  0  0  0  0  0  0  0
  1  2  1  0
  2  3  1  0
  3  4  1  0
  4  5  2  0
  4  6  1  0
  6  7  1  0
  7  8  1  0
  8  9  2  0
  9 10  1  0
 10 11  2  0
 11 12  1  0
 12 13  2  0
 13 14  1  0
 14 15  2  0
 15 16  1  0
  3 17  1  0
 17 18  2  0
 18 19  1  0
 18 20  1  0
 20 21  1  0
 21 22  1  0
 22 23  2  0
 23 24  1  0
 24 25  2  0
 25 26  1  0
 26 27  2  0
 20 28  1  0
 28 29  2  0
 28 30  1  0
 30 31  1  0
 31 32  2  0
 16  8  1  0
 31 17  1  0
 16 11  1  0
 27 22  1  0
  1 33  1  0
  1 34  1  0
  1 35  1  0
  2 36  1  0
  2 37  1  0
  6 38  1  0
  6 39  1  0
 12 40  1  0
 13 41  1  0
 14 42  1  0
 15 43  1  0
 19 44  1  0
 19 45  1  0
 21 46  1  0
 21 47  1  0
 23 48  1  0
 24 49  1  0
 25 50  1  0
 26 51  1  0
 27 52  1  0
 30 53  1  0
M  END
$$$$
