
     RDKit          3D

 36 37  0  0  0  0  0  0  0  0999 V2000
    2.3137    2.2236   -1.4477 C   0  0  0  0  0  0  0  0  0  0  0  0
    1.4271    1.5189   -0.4184 C   0  0  0  0  0  0  0  0  0  0  0  0
    0.0731    1.4576   -0.9797 N   0  0  0  0  0  0  0  0  0  0  0  0
   -0.9363    1.1861   -0.2284 C   0  0  0  0  0  0  0  0  0  0  0  0
   -2.2880    1.1728   -0.9298 C   0  0  0  0  0  0  0  0  0  0  0  0
   -2.7475   -0.2616   -1.1692 C   0  0  0  0  0  0  0  0  0  0  0  0
   -3.3574   -0.9228    0.0670 C   0  0  0  0  0  0  0  0  0  0  0  0
   -2.4099   -1.0547    1.2613 C   0  0  0  0  0  0  0  0  0  0  0  0
   -1.9908    0.2877    1.8535 C   0  0  0  0  0  0  0  0  0  0  0  0
   -0.8978    0.8815    1.1116 N   0  0  0  0  0  0  0  0  0  0  0  0
    2.0154    0.1583   -0.0796 C   0  0  0  0  0  0  0  0  0  0  0  0
    2.8558    0.0148    1.0355 C   0  0  0  0  0  0  0  0  0  0  0  0
    3.4006   -1.2294    1.3586 C   0  0  0  0  0  0  0  0  0  0  0  0
    3.1165   -2.3423    0.5695 C   0  0  0  0  0  0  0  0  0  0  0  0
    2.2917   -2.2121   -0.5459 C   0  0  0  0  0  0  0  0  0  0  0  0
    1.7474   -0.9689   -0.8708 C   0  0  0  0  0  0  0  0  0  0  0  0
    3.3382    2.3396   -1.0774 H   0  0  0  0  0  0  0  0  0  0  0  0
    2.3583    1.6654   -2.3903 H   0  0  0  0  0  0  0  0  0  0  0  0
    1.9213    3.2210   -1.6759 H   0  0  0  0  0  0  0  0  0  0  0  0
    1.4125    2.1456    0.4836 H   0  0  0  0  0  0  0  0  0  0  0  0
   -3.0195    1.7424   -0.3471 H   0  0  0  0  0  0  0  0  0  0  0  0
   -2.1821    1.6810   -1.8963 H   0  0  0  0  0  0  0  0  0  0  0  0
   -1.9151   -0.8736   -1.5380 H   0  0  0  0  0  0  0  0  0  0  0  0
   -3.5099   -0.2552   -1.9578 H   0  0  0  0  0  0  0  0  0  0  0  0
   -3.6978   -1.9269   -0.2147 H   0  0  0  0  0  0  0  0  0  0  0  0
   -4.2539   -0.3685    0.3719 H   0  0  0  0  0  0  0  0  0  0  0  0
   -1.5309   -1.6475    0.9799 H   0  0  0  0  0  0  0  0  0  0  0  0
   -2.9381   -1.6206    2.0388 H   0  0  0  0  0  0  0  0  0  0  0  0
   -2.8373    0.9805    1.9157 H   0  0  0  0  0  0  0  0  0  0  0  0
   -1.6455    0.1277    2.8815 H   0  0  0  0  0  0  0  0  0  0  0  0
    0.0159    0.5968    1.4481 H   0  0  0  0  0  0  0  0  0  0  0  0
    3.0949    0.8751    1.6567 H   0  0  0  0  0  0  0  0  0  0  0  0
    4.0519   -1.3293    2.2230 H   0  0  0  0  0  0  0  0  0  0  0  0
    3.5433   -3.3099    0.8191 H   0  0  0  0  0  0  0  0  0  0  0  0
    2.0735   -3.0767   -1.1670 H   0  0  0  0  0  0  0  0  0  0  0  0
    1.1069   -0.8764   -1.7461 H   0  0  0  0  0  0  0  0  0  0  0  0
  1  2  1  0
  2  3  1  0
  3  4  2  3
  4  5  1  0
  5  6  1  0
  6  7  1  0
  7  8  1  0
  8  9  1  0
  9 10  1  0
  2 11  1  0
 11 12  2  0
 12 13  1  0
 13 14  2  0
 14 15  1  0
 15 16  2  0
 10  4  1  0
 16 11  1  0
  1 17  1  0
  1 18  1  0
  1 19  1  0
  2 20  1  0
  5 21  1  0
  5 22  1  0
  6 23  1  0
  6 24  1  0
  7 25  1  0
  7 26  1  0
  8 27  1  0
  8 28  1  0
  9 29  1  0
  9 30  1  0
 10 31  1  0
 12 32  1  0
 13 33  1  0
 14 34  1  0
 15 35  1  0
 16 36  1  0
M  END
$$$$
