
     RDKit          3D

 52 55  0  0  0  0  0  0  0  0999 V2000
    7.7604   -0.4476    2.4660 C   0  0  0  0  0  0  0  0  0  0  0  0
    6.3254   -0.5971    2.0481 C   0  0  0  0  0  0  0  0  0  0  0  0
    5.3710   -1.0576    2.9670 C   0  0  0  0  0  0  0  0  0  0  0  0
    4.0329   -1.2414    2.6011 C   0  0  0  0  0  0  0  0  0  0  0  0
    3.7038   -0.9527    1.2799 C   0  0  0  0  0  0  0  0  0  0  0  0
    2.4662   -1.0744    0.7362 O   0  0  0  0  0  0  0  0  0  0  0  0
    2.5467   -0.6879   -0.5752 C   0  0  0  0  0  0  0  0  0  0  0  0
    1.3733   -0.7689   -1.4367 C   0  0  0  0  0  0  0  0  0  0  0  0
    1.5010   -1.0118   -2.6396 O   0  0  0  0  0  0  0  0  0  0  0  0
    0.0906   -0.5488   -0.8970 N   0  0  0  0  0  0  0  0  0  0  0  0
   -0.1674   -0.2042    0.4991 C   0  0  0  0  0  0  0  0  0  0  0  0
   -1.4303    0.6409    0.6610 C   0  0  0  0  0  0  0  0  0  0  0  0
   -2.6548    0.0017   -0.0141 C   0  0  0  0  0  0  0  0  0  0  0  0
   -2.8949   -1.2504    0.6468 O   0  0  0  0  0  0  0  0  0  0  0  0
   -3.9475    0.8202    0.0855 C   0  0  0  0  0  0  0  0  0  0  0  0
   -3.9839    2.1489    0.5337 C   0  0  0  0  0  0  0  0  0  0  0  0
   -5.1885    2.8551    0.6002 C   0  0  0  0  0  0  0  0  0  0  0  0
   -6.3836    2.2478    0.2218 C   0  0  0  0  0  0  0  0  0  0  0  0
   -6.3898    0.9213   -0.2229 C   0  0  0  0  0  0  0  0  0  0  0  0
   -7.6724    0.2543   -0.6560 C   0  0  0  0  0  0  0  0  0  0  0  0
   -8.7886    0.8550   -0.1560 F   0  0  0  0  0  0  0  0  0  0  0  0
   -7.7481   -1.0490   -0.2663 F   0  0  0  0  0  0  0  0  0  0  0  0
   -7.8238    0.2504   -2.0088 F   0  0  0  0  0  0  0  0  0  0  0  0
   -5.1703    0.2251   -0.2923 C   0  0  0  0  0  0  0  0  0  0  0  0
   -2.3118   -0.2764   -1.4866 C   0  0  0  0  0  0  0  0  0  0  0  0
   -1.0415   -1.1071   -1.6307 C   0  0  0  0  0  0  0  0  0  0  0  0
    3.8625   -0.3491   -0.8800 C   0  0  0  0  0  0  0  0  0  0  0  0
    4.3774    0.0807   -2.2054 C   0  0  0  0  0  0  0  0  0  0  0  0
    4.6080   -0.5061    0.3285 C   0  0  0  0  0  0  0  0  0  0  0  0
    5.9510   -0.3319    0.7166 C   0  0  0  0  0  0  0  0  0  0  0  0
    7.8310   -0.1511    3.5179 H   0  0  0  0  0  0  0  0  0  0  0  0
    8.2901   -1.3951    2.3278 H   0  0  0  0  0  0  0  0  0  0  0  0
    8.2611    0.3273    1.8763 H   0  0  0  0  0  0  0  0  0  0  0  0
    5.6675   -1.2828    3.9903 H   0  0  0  0  0  0  0  0  0  0  0  0
    3.2892   -1.5974    3.3031 H   0  0  0  0  0  0  0  0  0  0  0  0
    0.6630    0.3813    0.9026 H   0  0  0  0  0  0  0  0  0  0  0  0
   -0.2397   -1.1375    1.0690 H   0  0  0  0  0  0  0  0  0  0  0  0
   -1.6123    0.7851    1.7334 H   0  0  0  0  0  0  0  0  0  0  0  0
   -1.2303    1.6275    0.2229 H   0  0  0  0  0  0  0  0  0  0  0  0
   -3.4414   -1.0667    1.4316 H   0  0  0  0  0  0  0  0  0  0  0  0
   -3.0807    2.6720    0.8369 H   0  0  0  0  0  0  0  0  0  0  0  0
   -5.1917    3.8867    0.9461 H   0  0  0  0  0  0  0  0  0  0  0  0
   -7.3116    2.8153    0.2757 H   0  0  0  0  0  0  0  0  0  0  0  0
   -5.1748   -0.8079   -0.6465 H   0  0  0  0  0  0  0  0  0  0  0  0
   -3.1235   -0.8210   -1.9843 H   0  0  0  0  0  0  0  0  0  0  0  0
   -2.1853    0.6735   -2.0231 H   0  0  0  0  0  0  0  0  0  0  0  0
   -0.8058   -1.2075   -2.6954 H   0  0  0  0  0  0  0  0  0  0  0  0
   -1.2007   -2.1232   -1.2490 H   0  0  0  0  0  0  0  0  0  0  0  0
    4.4336   -0.7744   -2.8865 H   0  0  0  0  0  0  0  0  0  0  0  0
    5.3781    0.5161   -2.1246 H   0  0  0  0  0  0  0  0  0  0  0  0
    3.7228    0.8375   -2.6500 H   0  0  0  0  0  0  0  0  0  0  0  0
    6.6885    0.0033   -0.0073 H   0  0  0  0  0  0  0  0  0  0  0  0
  1  2  1  0
  2  3  2  0
  3  4  1  0
  4  5  2  0
  5  6  1  0
  6  7  1  0
  7  8  1  0
  8  9  2  0
  8 10  1  0
 10 11  1  0
 11 12  1  0
 12 13  1  0
 13 14  1  0
 13 15  1  0
 15 16  2  0
 16 17  1  0
 17 18  2  0
 18 19  1  0
 19 20  1  0
 20 21  1  0
 20 22  1  0
 20 23  1  0
 19 24  2  0
 13 25  1  0
 25 26  1  0
  7 27  2  0
 27 28  1  0
 27 29  1  0
 29 30  2  0
 30  2  1  0
 29  5  1  0
 26 10  1  0
 24 15  1  0
  1 31  1  0
  1 32  1  0
  1 33  1  0
  3 34  1  0
  4 35  1  0
 11 36  1  0
 11 37  1  0
 12 38  1  0
 12 39  1  0
 14 40  1  0
 16 41  1  0
 17 42  1  0
 18 43  1  0
 24 44  1  0
 25 45  1  0
 25 46  1  0
 26 47  1  0
 26 48  1  0
 28 49  1  0
 28 50  1  0
 28 51  1  0
 30 52  1  0
M  END
$$$$
