
     RDKit          3D

 48 50  0  0  0  0  0  0  0  0999 V2000
    7.1478   -1.2462   -0.2010 C   0  0  0  0  0  0  0  0  0  0  0  0
    7.0525    0.2600   -0.0145 C   0  0  0  0  0  0  0  0  0  0  0  0
    6.5436    0.6726    1.3702 C   0  0  0  0  0  0  0  0  0  0  0  0
    5.1223    0.2068    1.6881 C   0  0  0  0  0  0  0  0  0  0  0  0
    4.2334    0.7241    0.7001 O   0  0  0  0  0  0  0  0  0  0  0  0
    2.9183    0.3663    0.7947 C   0  0  0  0  0  0  0  0  0  0  0  0
    2.1091    0.8297   -0.2414 C   0  0  0  0  0  0  0  0  0  0  0  0
    0.7403    0.5365   -0.2691 C   0  0  0  0  0  0  0  0  0  0  0  0
    0.1492   -0.2407    0.7300 C   0  0  0  0  0  0  0  0  0  0  0  0
   -1.2302   -0.5260    0.7812 N   0  0  0  0  0  0  0  0  0  0  0  0
   -2.1289   -0.5256   -0.2534 C   0  0  0  0  0  0  0  0  0  0  0  0
   -1.8710   -0.3585   -1.5050 N   0  0  0  0  0  0  0  0  0  0  0  0
   -2.8922   -0.4750   -2.3913 C   0  0  0  0  0  0  0  0  0  0  0  0
   -2.5432   -0.5468   -3.6991 N   0  0  0  0  0  0  0  0  0  0  0  0
   -4.1431   -0.4874   -2.0898 N   0  0  0  0  0  0  0  0  0  0  0  0
   -4.4571   -0.3815   -0.6779 C   0  0  0  0  0  0  0  0  0  0  0  0
   -5.6762   -1.2814   -0.3859 C   0  0  0  0  0  0  0  0  0  0  0  0
   -6.8750   -0.3431   -0.3921 C   0  0  0  0  0  0  0  0  0  0  0  0
   -6.3208    0.9179    0.2426 C   0  0  0  0  0  0  0  0  0  0  0  0
   -4.9423    1.0614   -0.3925 C   0  0  0  0  0  0  0  0  0  0  0  0
   -3.3864   -0.7420    0.2151 N   0  0  0  0  0  0  0  0  0  0  0  0
    0.9698   -0.6760    1.7832 C   0  0  0  0  0  0  0  0  0  0  0  0
    2.3411   -0.3851    1.8140 C   0  0  0  0  0  0  0  0  0  0  0  0
    7.7571   -1.7022    0.5857 H   0  0  0  0  0  0  0  0  0  0  0  0
    6.1593   -1.7146   -0.1901 H   0  0  0  0  0  0  0  0  0  0  0  0
    7.6121   -1.4764   -1.1654 H   0  0  0  0  0  0  0  0  0  0  0  0
    8.0496    0.6932   -0.1588 H   0  0  0  0  0  0  0  0  0  0  0  0
    6.4118    0.6835   -0.7963 H   0  0  0  0  0  0  0  0  0  0  0  0
    7.2269    0.2981    2.1414 H   0  0  0  0  0  0  0  0  0  0  0  0
    6.5708    1.7684    1.4191 H   0  0  0  0  0  0  0  0  0  0  0  0
    5.0837   -0.8884    1.7071 H   0  0  0  0  0  0  0  0  0  0  0  0
    4.8441    0.5945    2.6757 H   0  0  0  0  0  0  0  0  0  0  0  0
    2.5427    1.4298   -1.0375 H   0  0  0  0  0  0  0  0  0  0  0  0
    0.1477    0.9386   -1.0854 H   0  0  0  0  0  0  0  0  0  0  0  0
   -1.4695   -1.1845    1.5090 H   0  0  0  0  0  0  0  0  0  0  0  0
   -3.2855   -0.2371   -4.3099 H   0  0  0  0  0  0  0  0  0  0  0  0
   -1.6414   -0.1266   -3.8748 H   0  0  0  0  0  0  0  0  0  0  0  0
   -5.5968   -1.7481    0.6049 H   0  0  0  0  0  0  0  0  0  0  0  0
   -5.7991   -2.0895   -1.1154 H   0  0  0  0  0  0  0  0  0  0  0  0
   -7.1990   -0.1445   -1.4204 H   0  0  0  0  0  0  0  0  0  0  0  0
   -7.7239   -0.7513    0.1637 H   0  0  0  0  0  0  0  0  0  0  0  0
   -6.2237    0.7866    1.3269 H   0  0  0  0  0  0  0  0  0  0  0  0
   -6.9540    1.7907    0.0597 H   0  0  0  0  0  0  0  0  0  0  0  0
   -4.2694    1.6258    0.2628 H   0  0  0  0  0  0  0  0  0  0  0  0
   -5.0377    1.6352   -1.3235 H   0  0  0  0  0  0  0  0  0  0  0  0
   -3.5388   -0.4286    1.1644 H   0  0  0  0  0  0  0  0  0  0  0  0
    0.5499   -1.2584    2.5997 H   0  0  0  0  0  0  0  0  0  0  0  0
    2.9222   -0.7566    2.6509 H   0  0  0  0  0  0  0  0  0  0  0  0
  1  2  1  0
  2  3  1  0
  3  4  1  0
  4  5  1  0
  5  6  1  0
  6  7  2  0
  7  8  1  0
  8  9  2  0
  9 10  1  0
 10 11  1  0
 11 12  2  0
 12 13  1  0
 13 14  1  0
 13 15  2  0
 15 16  1  0
 16 17  1  0
 17 18  1  0
 18 19  1  0
 19 20  1  0
 16 21  1  0
  9 22  1  0
 22 23  2  0
 23  6  1  0
 21 11  1  0
 20 16  1  0
  1 24  1  0
  1 25  1  0
  1 26  1  0
  2 27  1  0
  2 28  1  0
  3 29  1  0
  3 30  1  0
  4 31  1  0
  4 32  1  0
  7 33  1  0
  8 34  1  0
 10 35  1  0
 14 36  1  0
 14 37  1  0
 17 38  1  0
 17 39  1  0
 18 40  1  0
 18 41  1  0
 19 42  1  0
 19 43  1  0
 20 44  1  0
 20 45  1  0
 21 46  1  0
 22 47  1  0
 23 48  1  0
M  END
$$$$
