
     RDKit          3D

 61 65  0  0  0  0  0  0  0  0999 V2000
   -8.6601    1.6495   -0.5908 C   0  0  0  0  0  0  0  0  0  0  0  0
   -7.6361    0.6363   -0.1729 C   0  0  0  0  0  0  0  0  0  0  0  0
   -6.6261    0.9901    0.7290 C   0  0  0  0  0  0  0  0  0  0  0  0
   -5.6791    0.0487    1.1386 C   0  0  0  0  0  0  0  0  0  0  0  0
   -5.7339   -1.2686    0.6628 C   0  0  0  0  0  0  0  0  0  0  0  0
   -4.7061   -2.2840    1.0934 C   0  0  0  0  0  0  0  0  0  0  0  0
   -3.6092   -2.3598    0.1518 N   0  0  0  0  0  0  0  0  0  0  0  0
   -3.6202   -3.2638   -0.8603 N   0  0  0  0  0  0  0  0  0  0  0  0
   -2.4857   -3.1206   -1.5458 N   0  0  0  0  0  0  0  0  0  0  0  0
   -1.7683   -2.1380   -0.9381 C   0  0  0  0  0  0  0  0  0  0  0  0
   -0.4760   -1.5884   -1.2448 C   0  0  0  0  0  0  0  0  0  0  0  0
    0.2755   -1.9616   -2.1387 O   0  0  0  0  0  0  0  0  0  0  0  0
   -0.1265   -0.5765   -0.3636 N   0  0  0  0  0  0  0  0  0  0  0  0
   -0.8798   -0.1896    0.7368 C   0  0  0  0  0  0  0  0  0  0  0  0
   -0.2539    0.8670    1.6458 C   0  0  0  0  0  0  0  0  0  0  0  0
    0.8823    0.2605    2.4768 C   0  0  0  0  0  0  0  0  0  0  0  0
    2.1505   -0.0539    1.6735 C   0  0  0  0  0  0  0  0  0  0  0  0
    2.2076    0.7511    0.4070 N   0  0  0  0  0  0  0  0  0  0  0  0
    3.7723    0.7264   -0.3633 S   0  0  0  0  0  6  0  0  0  0  0  0
    4.7105    1.0940    0.6763 O   0  0  0  0  0  0  0  0  0  0  0  0
    3.6221    1.5369   -1.5543 O   0  0  0  0  0  0  0  0  0  0  0  0
    3.9947   -0.9202   -0.8482 C   0  0  0  0  0  0  0  0  0  0  0  0
    5.1817   -1.4149   -1.2318 C   0  0  0  0  0  0  0  0  0  0  0  0
    6.4511   -0.6902   -1.3159 C   0  0  0  0  0  0  0  0  0  0  0  0
    6.6616    0.2812   -2.3004 C   0  0  0  0  0  0  0  0  0  0  0  0
    7.8828    0.9535   -2.3748 C   0  0  0  0  0  0  0  0  0  0  0  0
    8.9009    0.6541   -1.4712 C   0  0  0  0  0  0  0  0  0  0  0  0
    8.6995   -0.3171   -0.4921 C   0  0  0  0  0  0  0  0  0  0  0  0
    7.4783   -0.9899   -0.4152 C   0  0  0  0  0  0  0  0  0  0  0  0
    1.7246    2.1450    0.6458 C   0  0  0  0  0  0  0  0  0  0  0  0
    0.2111    2.1064    0.8659 C   0  0  0  0  0  0  0  0  0  0  0  0
   -2.0421   -0.7006    1.0401 N   0  0  0  0  0  0  0  0  0  0  0  0
   -2.4417   -1.6511    0.1575 C   0  0  0  0  0  0  0  0  0  0  0  0
   -6.7463   -1.6204   -0.2406 C   0  0  0  0  0  0  0  0  0  0  0  0
   -7.6925   -0.6778   -0.6491 C   0  0  0  0  0  0  0  0  0  0  0  0
   -8.1761    2.5950   -0.8574 H   0  0  0  0  0  0  0  0  0  0  0  0
   -9.2216    1.3106   -1.4677 H   0  0  0  0  0  0  0  0  0  0  0  0
   -9.3674    1.8257    0.2255 H   0  0  0  0  0  0  0  0  0  0  0  0
   -6.5687    2.0062    1.1140 H   0  0  0  0  0  0  0  0  0  0  0  0
   -4.8944    0.3534    1.8289 H   0  0  0  0  0  0  0  0  0  0  0  0
   -4.2943   -2.0354    2.0785 H   0  0  0  0  0  0  0  0  0  0  0  0
   -5.1540   -3.2811    1.1792 H   0  0  0  0  0  0  0  0  0  0  0  0
    0.7739   -0.1375   -0.5305 H   0  0  0  0  0  0  0  0  0  0  0  0
   -1.0496    1.1841    2.3338 H   0  0  0  0  0  0  0  0  0  0  0  0
    1.1447    0.9755    3.2683 H   0  0  0  0  0  0  0  0  0  0  0  0
    0.5474   -0.6481    2.9921 H   0  0  0  0  0  0  0  0  0  0  0  0
    3.0264    0.1274    2.3049 H   0  0  0  0  0  0  0  0  0  0  0  0
    2.1447   -1.1155    1.4024 H   0  0  0  0  0  0  0  0  0  0  0  0
    3.1162   -1.5495   -0.8633 H   0  0  0  0  0  0  0  0  0  0  0  0
    5.2443   -2.4609   -1.5248 H   0  0  0  0  0  0  0  0  0  0  0  0
    5.8784    0.5267   -3.0147 H   0  0  0  0  0  0  0  0  0  0  0  0
    8.0366    1.7135   -3.1365 H   0  0  0  0  0  0  0  0  0  0  0  0
    9.8498    1.1808   -1.5281 H   0  0  0  0  0  0  0  0  0  0  0  0
    9.4920   -0.5483    0.2146 H   0  0  0  0  0  0  0  0  0  0  0  0
    7.3346   -1.7404    0.3579 H   0  0  0  0  0  0  0  0  0  0  0  0
    1.9311    2.7958   -0.2095 H   0  0  0  0  0  0  0  0  0  0  0  0
    2.2322    2.5706    1.5199 H   0  0  0  0  0  0  0  0  0  0  0  0
   -0.3038    2.1659   -0.1010 H   0  0  0  0  0  0  0  0  0  0  0  0
   -0.0746    3.0130    1.4133 H   0  0  0  0  0  0  0  0  0  0  0  0
   -6.8012   -2.6322   -0.6397 H   0  0  0  0  0  0  0  0  0  0  0  0
   -8.4699   -0.9771   -1.3489 H   0  0  0  0  0  0  0  0  0  0  0  0
  1  2  1  0
  2  3  2  0
  3  4  1  0
  4  5  2  0
  5  6  1  0
  6  7  1  0
  7  8  1  0
  8  9  2  0
  9 10  1  0
 10 11  1  0
 11 12  2  0
 11 13  1  0
 13 14  1  0
 14 15  1  0
 15 16  1  0
 16 17  1  0
 17 18  1  0
 18 19  1  0
 19 20  2  0
 19 21  2  0
 19 22  1  0
 22 23  2  3
 23 24  1  0
 24 25  2  0
 25 26  1  0
 26 27  2  0
 27 28  1  0
 28 29  2  0
 18 30  1  0
 30 31  1  0
 14 32  2  0
 32 33  1  0
  5 34  1  0
 34 35  2  0
 35  2  1  0
 33  7  1  0
 33 10  2  0
 31 15  1  0
 29 24  1  0
  1 36  1  0
  1 37  1  0
  1 38  1  0
  3 39  1  0
  4 40  1  0
  6 41  1  0
  6 42  1  0
 13 43  1  0
 15 44  1  0
 16 45  1  0
 16 46  1  0
 17 47  1  0
 17 48  1  0
 22 49  1  0
 23 50  1  0
 25 51  1  0
 26 52  1  0
 27 53  1  0
 28 54  1  0
 29 55  1  0
 30 56  1  0
 30 57  1  0
 31 58  1  0
 31 59  1  0
 34 60  1  0
 35 61  1  0
M  END
$$$$
