
     RDKit          3D

 57 58  0  0  0  0  0  0  0  0999 V2000
    5.0499   -0.5983   -2.6427 C   0  0  0  0  0  0  0  0  0  0  0  0
    5.6384    0.4462   -1.7341 C   0  0  0  0  0  0  0  0  0  0  0  0
    6.9825    0.8234   -1.8891 C   0  0  0  0  0  0  0  0  0  0  0  0
    7.5438    1.7998   -1.0676 C   0  0  0  0  0  0  0  0  0  0  0  0
    6.7666    2.4108   -0.0886 C   0  0  0  0  0  0  0  0  0  0  0  0
    5.4262    2.0476    0.0727 C   0  0  0  0  0  0  0  0  0  0  0  0
    4.8539    1.0664   -0.7440 C   0  0  0  0  0  0  0  0  0  0  0  0
    3.5523    0.6429   -0.6668 O   0  0  0  0  0  0  0  0  0  0  0  0
    2.7358    1.2053    0.3601 C   0  0  0  0  0  0  0  0  0  0  0  0
    1.3736    0.5424    0.2820 C   0  0  0  0  0  0  0  0  0  0  0  0
    0.5045    1.0556    1.3897 C   0  0  0  0  0  0  0  0  0  0  0  0
    0.0228    2.1783    1.4228 O   0  0  0  0  0  0  0  0  0  0  0  0
    0.3394    0.1094    2.3527 O   0  0  0  0  0  0  0  0  0  0  0  0
   -0.4762    0.5085    3.4574 C   0  0  0  0  0  0  0  0  0  0  0  0
   -1.9734    0.5454    3.1559 C   0  0  0  0  0  0  0  0  0  0  0  0
   -2.7208    1.3744    3.6832 O   0  0  0  0  0  0  0  0  0  0  0  0
   -2.5209   -0.4497    2.1868 C   0  0  0  0  0  0  0  0  0  0  0  0
   -3.3686   -0.0510    1.2140 C   0  0  0  0  0  0  0  0  0  0  0  0
   -3.7900    1.2726    1.1194 N   0  0  0  0  0  0  0  0  0  0  0  0
   -3.8073   -0.9895    0.2785 N   0  0  0  0  0  0  0  0  0  0  0  0
   -4.6399   -0.5863   -0.8695 C   0  0  0  0  0  0  0  0  0  0  0  0
   -3.8375   -0.3816   -2.1743 C   0  0  0  0  0  0  0  0  0  0  0  0
   -2.8506    0.7834   -2.0826 C   0  0  0  0  0  0  0  0  0  0  0  0
   -4.8008   -0.1498   -3.3407 C   0  0  0  0  0  0  0  0  0  0  0  0
   -3.4150   -2.3317    0.2924 C   0  0  0  0  0  0  0  0  0  0  0  0
   -3.8297   -3.1473   -0.5340 O   0  0  0  0  0  0  0  0  0  0  0  0
   -2.5267   -2.7015    1.2863 N   0  0  0  0  0  0  0  0  0  0  0  0
   -2.1126   -4.0928    1.3354 C   0  0  0  0  0  0  0  0  0  0  0  0
   -2.1119   -1.8612    2.2915 C   0  0  0  0  0  0  0  0  0  0  0  0
   -1.4477   -2.2330    3.2589 O   0  0  0  0  0  0  0  0  0  0  0  0
    4.5879   -1.4011   -2.0572 H   0  0  0  0  0  0  0  0  0  0  0  0
    5.8170   -1.0561   -3.2769 H   0  0  0  0  0  0  0  0  0  0  0  0
    4.2973   -0.1461   -3.2987 H   0  0  0  0  0  0  0  0  0  0  0  0
    7.6007    0.3572   -2.6536 H   0  0  0  0  0  0  0  0  0  0  0  0
    8.5856    2.0849   -1.1938 H   0  0  0  0  0  0  0  0  0  0  0  0
    7.2019    3.1751    0.5504 H   0  0  0  0  0  0  0  0  0  0  0  0
    4.8581    2.5553    0.8438 H   0  0  0  0  0  0  0  0  0  0  0  0
    2.6319    2.2875    0.2094 H   0  0  0  0  0  0  0  0  0  0  0  0
    3.1804    1.0137    1.3453 H   0  0  0  0  0  0  0  0  0  0  0  0
    0.8825    0.7448   -0.6769 H   0  0  0  0  0  0  0  0  0  0  0  0
    1.4665   -0.5489    0.3418 H   0  0  0  0  0  0  0  0  0  0  0  0
   -0.1601    1.4973    3.8127 H   0  0  0  0  0  0  0  0  0  0  0  0
   -0.3038   -0.1911    4.2817 H   0  0  0  0  0  0  0  0  0  0  0  0
   -4.7894    1.3459    0.9545 H   0  0  0  0  0  0  0  0  0  0  0  0
   -3.5723    1.8191    1.9627 H   0  0  0  0  0  0  0  0  0  0  0  0
   -5.3791   -1.3828   -1.0328 H   0  0  0  0  0  0  0  0  0  0  0  0
   -5.2374    0.3017   -0.6415 H   0  0  0  0  0  0  0  0  0  0  0  0
   -3.2608   -1.2898   -2.3909 H   0  0  0  0  0  0  0  0  0  0  0  0
   -2.3246    0.9216   -3.0332 H   0  0  0  0  0  0  0  0  0  0  0  0
   -2.0893    0.5990   -1.3190 H   0  0  0  0  0  0  0  0  0  0  0  0
   -3.3625    1.7218   -1.8419 H   0  0  0  0  0  0  0  0  0  0  0  0
   -5.4781   -1.0011   -3.4611 H   0  0  0  0  0  0  0  0  0  0  0  0
   -4.2537   -0.0241   -4.2813 H   0  0  0  0  0  0  0  0  0  0  0  0
   -5.4108    0.7473   -3.1803 H   0  0  0  0  0  0  0  0  0  0  0  0
   -1.1904   -4.2175    1.9111 H   0  0  0  0  0  0  0  0  0  0  0  0
   -1.9472   -4.4780    0.3244 H   0  0  0  0  0  0  0  0  0  0  0  0
   -2.9107   -4.6744    1.8095 H   0  0  0  0  0  0  0  0  0  0  0  0
  1  2  1  0
  2  3  2  0
  3  4  1  0
  4  5  2  0
  5  6  1  0
  6  7  2  0
  7  8  1  0
  8  9  1  0
  9 10  1  0
 10 11  1  0
 11 12  2  0
 11 13  1  0
 13 14  1  0
 14 15  1  0
 15 16  2  0
 15 17  1  0
 17 18  2  0
 18 19  1  0
 18 20  1  0
 20 21  1  0
 21 22  1  0
 22 23  1  0
 22 24  1  0
 20 25  1  0
 25 26  2  0
 25 27  1  0
 27 28  1  0
 27 29  1  0
 29 30  2  0
  7  2  1  0
 29 17  1  0
  1 31  1  0
  1 32  1  0
  1 33  1  0
  3 34  1  0
  4 35  1  0
  5 36  1  0
  6 37  1  0
  9 38  1  0
  9 39  1  0
 10 40  1  0
 10 41  1  0
 14 42  1  0
 14 43  1  0
 19 44  1  0
 19 45  1  0
 21 46  1  0
 21 47  1  0
 22 48  1  0
 23 49  1  0
 23 50  1  0
 23 51  1  0
 24 52  1  0
 24 53  1  0
 24 54  1  0
 28 55  1  0
 28 56  1  0
 28 57  1  0
M  END
$$$$
