
     RDKit          3D

 47 49  0  0  0  0  0  0  0  0999 V2000
    4.5463    0.4683    3.0298 C   0  0  0  0  0  0  0  0  0  0  0  0
    3.9146    0.3214    1.7640 O   0  0  0  0  0  0  0  0  0  0  0  0
    4.7370    0.2011    0.6660 C   0  0  0  0  0  0  0  0  0  0  0  0
    6.1336    0.1512    0.7144 C   0  0  0  0  0  0  0  0  0  0  0  0
    6.8715    0.0233   -0.4642 C   0  0  0  0  0  0  0  0  0  0  0  0
    6.2196   -0.0590   -1.6919 C   0  0  0  0  0  0  0  0  0  0  0  0
    4.8255   -0.0118   -1.7505 C   0  0  0  0  0  0  0  0  0  0  0  0
    4.0765    0.1244   -0.5798 C   0  0  0  0  0  0  0  0  0  0  0  0
    2.6648    0.1679   -0.5594 N   0  0  0  0  0  0  0  0  0  0  0  0
    1.7996    0.3113   -1.6160 C   0  0  0  0  0  0  0  0  0  0  0  0
    2.1387    0.5385   -2.7751 O   0  0  0  0  0  0  0  0  0  0  0  0
    0.4530    0.1892   -1.2698 N   0  0  0  0  0  0  0  0  0  0  0  0
   -0.0361   -0.3807   -0.0124 C   0  0  0  0  0  0  0  0  0  0  0  0
   -1.3666   -1.1071   -0.1961 C   0  0  0  0  0  0  0  0  0  0  0  0
   -2.4512   -0.1893   -0.7787 C   0  0  0  0  0  0  0  0  0  0  0  0
   -3.2675    0.4053    0.3661 C   0  0  0  0  0  0  0  0  0  0  0  0
   -2.8286    1.3131    1.0709 O   0  0  0  0  0  0  0  0  0  0  0  0
   -4.6255   -0.1376    0.6641 C   0  0  0  0  0  0  0  0  0  0  0  0
   -5.5366    0.6951    1.3332 C   0  0  0  0  0  0  0  0  0  0  0  0
   -6.8180    0.2342    1.6413 C   0  0  0  0  0  0  0  0  0  0  0  0
   -7.1823   -1.0589    1.2876 C   0  0  0  0  0  0  0  0  0  0  0  0
   -8.4100   -1.5038    1.5833 F   0  0  0  0  0  0  0  0  0  0  0  0
   -6.2877   -1.9014    0.6364 C   0  0  0  0  0  0  0  0  0  0  0  0
   -5.0036   -1.4441    0.3256 C   0  0  0  0  0  0  0  0  0  0  0  0
   -1.8693    0.9298   -1.6592 C   0  0  0  0  0  0  0  0  0  0  0  0
   -0.5418    0.5212   -2.2848 C   0  0  0  0  0  0  0  0  0  0  0  0
    5.1266   -0.4241    3.2863 H   0  0  0  0  0  0  0  0  0  0  0  0
    5.1675    1.3694    3.0603 H   0  0  0  0  0  0  0  0  0  0  0  0
    3.7607    0.5810    3.7831 H   0  0  0  0  0  0  0  0  0  0  0  0
    6.6792    0.2075    1.6498 H   0  0  0  0  0  0  0  0  0  0  0  0
    7.9573   -0.0142   -0.4247 H   0  0  0  0  0  0  0  0  0  0  0  0
    6.7935   -0.1617   -2.6096 H   0  0  0  0  0  0  0  0  0  0  0  0
    4.3488   -0.0893   -2.7227 H   0  0  0  0  0  0  0  0  0  0  0  0
    2.2839    0.3128    0.3654 H   0  0  0  0  0  0  0  0  0  0  0  0
   -0.1362    0.4429    0.7034 H   0  0  0  0  0  0  0  0  0  0  0  0
    0.6992   -1.0867    0.3877 H   0  0  0  0  0  0  0  0  0  0  0  0
   -1.2124   -1.9469   -0.8867 H   0  0  0  0  0  0  0  0  0  0  0  0
   -1.6832   -1.5430    0.7588 H   0  0  0  0  0  0  0  0  0  0  0  0
   -3.1078   -0.7895   -1.4180 H   0  0  0  0  0  0  0  0  0  0  0  0
   -5.2500    1.7069    1.6162 H   0  0  0  0  0  0  0  0  0  0  0  0
   -7.5287    0.8735    2.1559 H   0  0  0  0  0  0  0  0  0  0  0  0
   -6.5946   -2.9115    0.3816 H   0  0  0  0  0  0  0  0  0  0  0  0
   -4.3161   -2.1307   -0.1593 H   0  0  0  0  0  0  0  0  0  0  0  0
   -1.7165    1.8508   -1.0828 H   0  0  0  0  0  0  0  0  0  0  0  0
   -2.5893    1.1829   -2.4470 H   0  0  0  0  0  0  0  0  0  0  0  0
   -0.1675    1.3326   -2.9192 H   0  0  0  0  0  0  0  0  0  0  0  0
   -0.6704   -0.3612   -2.9233 H   0  0  0  0  0  0  0  0  0  0  0  0
  1  2  1  0
  2  3  1  0
  3  4  2  0
  4  5  1  0
  5  6  2  0
  6  7  1  0
  7  8  2  0
  8  9  1  0
  9 10  1  0
 10 11  2  0
 10 12  1  0
 12 13  1  0
 13 14  1  0
 14 15  1  0
 15 16  1  0
 16 17  2  0
 16 18  1  0
 18 19  2  0
 19 20  1  0
 20 21  2  0
 21 22  1  0
 21 23  1  0
 23 24  2  0
 15 25  1  0
 25 26  1  0
  8  3  1  0
 26 12  1  0
 24 18  1  0
  1 27  1  0
  1 28  1  0
  1 29  1  0
  4 30  1  0
  5 31  1  0
  6 32  1  0
  7 33  1  0
  9 34  1  0
 13 35  1  0
 13 36  1  0
 14 37  1  0
 14 38  1  0
 15 39  1  0
 19 40  1  0
 20 41  1  0
 23 42  1  0
 24 43  1  0
 25 44  1  0
 25 45  1  0
 26 46  1  0
 26 47  1  0
M  END
$$$$
