
     RDKit          3D

 43 44  0  0  0  0  0  0  0  0999 V2000
    5.8893   -2.0730   -3.1995 C   0  0  0  0  0  0  0  0  0  0  0  0
    4.9713   -2.1496   -2.1174 O   0  0  0  0  0  0  0  0  0  0  0  0
    3.8813   -1.3224   -2.1661 C   0  0  0  0  0  0  0  0  0  0  0  0
    3.5933   -0.4137   -3.1844 C   0  0  0  0  0  0  0  0  0  0  0  0
    2.4428    0.3721   -3.1114 C   0  0  0  0  0  0  0  0  0  0  0  0
    1.5802    0.2511   -2.0212 C   0  0  0  0  0  0  0  0  0  0  0  0
    1.8569   -0.6547   -0.9912 C   0  0  0  0  0  0  0  0  0  0  0  0
    0.9317   -0.7128    0.0698 N   0  0  0  0  0  0  0  0  0  0  0  0
    0.9964   -1.4817    1.2130 C   0  0  0  0  0  0  0  0  0  0  0  0
    1.8991   -2.2495    1.5339 O   0  0  0  0  0  0  0  0  0  0  0  0
   -0.1950   -1.2901    2.1233 C   0  0  0  0  0  0  0  0  0  0  0  0
   -0.1180   -0.0197    2.9425 C   0  0  0  0  0  0  0  0  0  0  0  0
    1.1487    0.2017    3.7422 C   0  0  0  0  0  0  0  0  0  0  0  0
   -1.0599    0.8705    3.0820 N   0  0  0  0  0  0  0  0  0  0  0  0
   -2.2089    0.7615    2.3489 N   0  0  0  0  0  0  0  0  0  0  0  0
   -2.1910    0.9728    0.9737 C   0  0  0  0  0  0  0  0  0  0  0  0
   -1.2070    0.9272    0.2432 O   0  0  0  0  0  0  0  0  0  0  0  0
   -3.5092    1.2859    0.3962 C   0  0  0  0  0  0  0  0  0  0  0  0
   -4.0694    2.5430    0.6620 C   0  0  0  0  0  0  0  0  0  0  0  0
   -5.3120    2.8733    0.1215 C   0  0  0  0  0  0  0  0  0  0  0  0
   -5.9888    1.9550   -0.6820 C   0  0  0  0  0  0  0  0  0  0  0  0
   -5.4250    0.7043   -0.9493 C   0  0  0  0  0  0  0  0  0  0  0  0
   -4.1804    0.3653   -0.4126 C   0  0  0  0  0  0  0  0  0  0  0  0
   -3.5469   -1.2038   -0.7495 Cl  0  0  0  0  0  0  0  0  0  0  0  0
    3.0097   -1.4379   -1.0743 C   0  0  0  0  0  0  0  0  0  0  0  0
    6.6939   -2.7892   -3.0069 H   0  0  0  0  0  0  0  0  0  0  0  0
    5.4115   -2.3554   -4.1435 H   0  0  0  0  0  0  0  0  0  0  0  0
    6.3396   -1.0770   -3.2660 H   0  0  0  0  0  0  0  0  0  0  0  0
    4.2409   -0.2935   -4.0458 H   0  0  0  0  0  0  0  0  0  0  0  0
    2.2165    1.0804   -3.9040 H   0  0  0  0  0  0  0  0  0  0  0  0
    0.6891    0.8742   -1.9841 H   0  0  0  0  0  0  0  0  0  0  0  0
    0.1339   -0.0732   -0.0023 H   0  0  0  0  0  0  0  0  0  0  0  0
   -0.2157   -2.1294    2.8300 H   0  0  0  0  0  0  0  0  0  0  0  0
   -1.1148   -1.3733    1.5419 H   0  0  0  0  0  0  0  0  0  0  0  0
    1.0342    1.0533    4.4188 H   0  0  0  0  0  0  0  0  0  0  0  0
    1.3687   -0.6922    4.3321 H   0  0  0  0  0  0  0  0  0  0  0  0
    1.9809    0.4017    3.0623 H   0  0  0  0  0  0  0  0  0  0  0  0
   -3.0229    1.1228    2.8410 H   0  0  0  0  0  0  0  0  0  0  0  0
   -3.5351    3.2701    1.2704 H   0  0  0  0  0  0  0  0  0  0  0  0
   -5.7505    3.8496    0.3180 H   0  0  0  0  0  0  0  0  0  0  0  0
   -6.9568    2.2144   -1.1064 H   0  0  0  0  0  0  0  0  0  0  0  0
   -5.9635   -0.0014   -1.5781 H   0  0  0  0  0  0  0  0  0  0  0  0
    3.2609   -2.1567   -0.3007 H   0  0  0  0  0  0  0  0  0  0  0  0
  1  2  1  0
  2  3  1  0
  3  4  2  0
  4  5  1  0
  5  6  2  0
  6  7  1  0
  7  8  1  0
  8  9  1  0
  9 10  2  0
  9 11  1  0
 11 12  1  0
 12 13  1  0
 12 14  2  3
 14 15  1  0
 15 16  1  0
 16 17  2  0
 16 18  1  0
 18 19  2  0
 19 20  1  0
 20 21  2  0
 21 22  1  0
 22 23  2  0
 23 24  1  0
  7 25  2  0
 25  3  1  0
 23 18  1  0
  1 26  1  0
  1 27  1  0
  1 28  1  0
  4 29  1  0
  5 30  1  0
  6 31  1  0
  8 32  1  0
 11 33  1  0
 11 34  1  0
 13 35  1  0
 13 36  1  0
 13 37  1  0
 15 38  1  0
 19 39  1  0
 20 40  1  0
 21 41  1  0
 22 42  1  0
 25 43  1  0
M  END
$$$$
