
     RDKit          3D

 40 42  0  0  0  0  0  0  0  0999 V2000
    4.2145   -3.5162   -1.2131 C   0  0  0  0  0  0  0  0  0  0  0  0
    3.0111   -2.7283   -0.7965 C   0  0  0  0  0  0  0  0  0  0  0  0
    1.8538   -3.0794   -0.9766 O   0  0  0  0  0  0  0  0  0  0  0  0
    3.3934   -1.5637   -0.2063 O   0  0  0  0  0  0  0  0  0  0  0  0
    2.3197   -0.7380    0.2809 C   0  0  0  0  0  0  0  0  0  0  0  0
    1.6587    0.0500   -0.8549 C   0  0  0  0  0  0  0  0  0  0  0  0
    0.5948    0.9278   -0.3534 N   0  0  0  0  0  0  0  0  0  0  0  0
    0.8937    2.2197    0.0623 C   0  0  0  0  0  0  0  0  0  0  0  0
    2.0960    2.7107    0.0519 N   0  0  0  0  0  0  0  0  0  0  0  0
    2.3544    3.9864    0.4697 C   0  0  0  0  0  0  0  0  0  0  0  0
    3.4767    4.3448    0.8099 O   0  0  0  0  0  0  0  0  0  0  0  0
    1.3360    4.8919    0.5258 N   0  0  0  0  0  0  0  0  0  0  0  0
    0.0824    4.5186    0.9009 C   0  0  0  0  0  0  0  0  0  0  0  0
   -0.6870    5.2416    1.5110 O   0  0  0  0  0  0  0  0  0  0  0  0
   -0.2381    3.0900    0.5539 C   0  0  0  0  0  0  0  0  0  0  0  0
   -1.4523    2.6478    0.6727 N   0  0  0  0  0  0  0  0  0  0  0  0
   -1.7105    1.3063    0.3329 C   0  0  0  0  0  0  0  0  0  0  0  0
   -3.0212    0.8522    0.5216 C   0  0  0  0  0  0  0  0  0  0  0  0
   -3.3926   -0.4640    0.2222 C   0  0  0  0  0  0  0  0  0  0  0  0
   -4.8140   -0.8997    0.4468 C   0  0  0  0  0  0  0  0  0  0  0  0
   -2.4198   -1.3444   -0.2762 C   0  0  0  0  0  0  0  0  0  0  0  0
   -2.7554   -2.7736   -0.6110 C   0  0  0  0  0  0  0  0  0  0  0  0
   -1.1019   -0.8845   -0.4687 C   0  0  0  0  0  0  0  0  0  0  0  0
   -0.7177    0.4356   -0.1749 C   0  0  0  0  0  0  0  0  0  0  0  0
    3.8922   -4.4646   -1.6523 H   0  0  0  0  0  0  0  0  0  0  0  0
    4.8367   -3.7322   -0.3409 H   0  0  0  0  0  0  0  0  0  0  0  0
    4.7814   -2.9578   -1.9621 H   0  0  0  0  0  0  0  0  0  0  0  0
    2.7608   -0.0472    1.0081 H   0  0  0  0  0  0  0  0  0  0  0  0
    1.5975   -1.3484    0.8363 H   0  0  0  0  0  0  0  0  0  0  0  0
    2.4330    0.6423   -1.3612 H   0  0  0  0  0  0  0  0  0  0  0  0
    1.3000   -0.6077   -1.6542 H   0  0  0  0  0  0  0  0  0  0  0  0
    1.6230    5.7872    0.8943 H   0  0  0  0  0  0  0  0  0  0  0  0
   -3.7574    1.5523    0.9130 H   0  0  0  0  0  0  0  0  0  0  0  0
   -5.2588   -1.2468   -0.4912 H   0  0  0  0  0  0  0  0  0  0  0  0
   -5.4333   -0.0766    0.8188 H   0  0  0  0  0  0  0  0  0  0  0  0
   -4.8522   -1.7032    1.1891 H   0  0  0  0  0  0  0  0  0  0  0  0
   -3.1258   -3.2951    0.2772 H   0  0  0  0  0  0  0  0  0  0  0  0
   -1.8780   -3.3214   -0.9710 H   0  0  0  0  0  0  0  0  0  0  0  0
   -3.5133   -2.8104   -1.3999 H   0  0  0  0  0  0  0  0  0  0  0  0
   -0.3806   -1.6019   -0.8512 H   0  0  0  0  0  0  0  0  0  0  0  0
  1  2  1  0
  2  3  2  0
  2  4  1  0
  4  5  1  0
  5  6  1  0
  6  7  1  0
  7  8  1  0
  8  9  2  0
  9 10  1  0
 10 11  2  0
 10 12  1  0
 12 13  1  0
 13 14  2  0
 13 15  1  0
 15 16  2  0
 16 17  1  0
 17 18  2  0
 18 19  1  0
 19 20  1  0
 19 21  2  0
 21 22  1  0
 21 23  1  0
 23 24  2  0
 24  7  1  0
 15  8  1  0
 24 17  1  0
  1 25  1  0
  1 26  1  0
  1 27  1  0
  5 28  1  0
  5 29  1  0
  6 30  1  0
  6 31  1  0
 12 32  1  0
 18 33  1  0
 20 34  1  0
 20 35  1  0
 20 36  1  0
 22 37  1  0
 22 38  1  0
 22 39  1  0
 23 40  1  0
M  END
$$$$
