
     RDKit          3D

 50 52  0  0  0  0  0  0  0  0999 V2000
   -2.7566   -2.6716   -1.8778 C   0  0  0  0  0  0  0  0  0  0  0  0
   -3.6471   -2.0402   -0.9681 O   0  0  0  0  0  0  0  0  0  0  0  0
   -3.2854   -0.8146   -0.4741 C   0  0  0  0  0  0  0  0  0  0  0  0
   -2.1159   -0.1351   -0.8083 C   0  0  0  0  0  0  0  0  0  0  0  0
   -1.8398    1.1037   -0.2143 C   0  0  0  0  0  0  0  0  0  0  0  0
   -0.6027    1.8322   -0.5685 C   0  0  0  0  0  0  0  0  0  0  0  0
   -0.7201    2.9766   -0.9982 O   0  0  0  0  0  0  0  0  0  0  0  0
    0.6208    1.1777   -0.4282 N   0  0  0  0  0  0  0  0  0  0  0  0
    1.8215    1.9357   -0.8084 C   0  0  0  0  0  0  0  0  0  0  0  0
    3.0191    1.0225   -1.1326 C   0  0  0  0  0  0  0  0  0  0  0  0
    3.2417    0.0722   -0.0212 N   0  0  0  0  0  0  0  0  0  0  0  0
    4.4550   -0.6359   -0.0872 C   0  0  0  0  0  0  0  0  0  0  0  0
    5.3913   -0.3268    0.9182 C   0  0  0  0  0  0  0  0  0  0  0  0
    6.6351   -0.9559    0.9719 C   0  0  0  0  0  0  0  0  0  0  0  0
    7.7480   -0.5487    2.2191 Cl  0  0  0  0  0  0  0  0  0  0  0  0
    6.9807   -1.9111    0.0235 C   0  0  0  0  0  0  0  0  0  0  0  0
    6.0730   -2.2361   -0.9838 C   0  0  0  0  0  0  0  0  0  0  0  0
    4.8199   -1.6080   -1.0442 C   0  0  0  0  0  0  0  0  0  0  0  0
    3.7846   -2.0982   -2.3411 Cl  0  0  0  0  0  0  0  0  0  0  0  0
    2.0541   -0.7540    0.2770 C   0  0  0  0  0  0  0  0  0  0  0  0
    0.8566    0.1570    0.6112 C   0  0  0  0  0  0  0  0  0  0  0  0
   -2.7390    1.7026    0.6750 C   0  0  0  0  0  0  0  0  0  0  0  0
   -3.9150    1.0381    1.0172 C   0  0  0  0  0  0  0  0  0  0  0  0
   -4.8591    1.5137    1.8901 O   0  0  0  0  0  0  0  0  0  0  0  0
   -4.6334    2.7917    2.4688 C   0  0  0  0  0  0  0  0  0  0  0  0
   -4.1805   -0.2163    0.4337 C   0  0  0  0  0  0  0  0  0  0  0  0
   -5.3145   -0.9019    0.8139 O   0  0  0  0  0  0  0  0  0  0  0  0
   -6.3863   -0.5976   -0.0774 C   0  0  0  0  0  0  0  0  0  0  0  0
   -2.6458   -2.0820   -2.7939 H   0  0  0  0  0  0  0  0  0  0  0  0
   -3.1897   -3.6372   -2.1535 H   0  0  0  0  0  0  0  0  0  0  0  0
   -1.7853   -2.8637   -1.4107 H   0  0  0  0  0  0  0  0  0  0  0  0
   -1.4037   -0.5366   -1.5213 H   0  0  0  0  0  0  0  0  0  0  0  0
    2.0655    2.5963    0.0331 H   0  0  0  0  0  0  0  0  0  0  0  0
    1.6029    2.5698   -1.6749 H   0  0  0  0  0  0  0  0  0  0  0  0
    3.9081    1.6456   -1.2883 H   0  0  0  0  0  0  0  0  0  0  0  0
    2.8086    0.4914   -2.0666 H   0  0  0  0  0  0  0  0  0  0  0  0
    5.1337    0.4197    1.6672 H   0  0  0  0  0  0  0  0  0  0  0  0
    7.9487   -2.4038    0.0610 H   0  0  0  0  0  0  0  0  0  0  0  0
    6.3477   -2.9838   -1.7247 H   0  0  0  0  0  0  0  0  0  0  0  0
    2.2492   -1.4101    1.1340 H   0  0  0  0  0  0  0  0  0  0  0  0
    1.7831   -1.3817   -0.5784 H   0  0  0  0  0  0  0  0  0  0  0  0
    1.0489    0.7009    1.5447 H   0  0  0  0  0  0  0  0  0  0  0  0
   -0.0300   -0.4571    0.7799 H   0  0  0  0  0  0  0  0  0  0  0  0
   -2.4893    2.6780    1.0806 H   0  0  0  0  0  0  0  0  0  0  0  0
   -4.5874    3.5709    1.7011 H   0  0  0  0  0  0  0  0  0  0  0  0
   -5.4830    3.0175    3.1206 H   0  0  0  0  0  0  0  0  0  0  0  0
   -3.7300    2.7911    3.0881 H   0  0  0  0  0  0  0  0  0  0  0  0
   -7.2847   -1.1002    0.2949 H   0  0  0  0  0  0  0  0  0  0  0  0
   -6.5913    0.4777   -0.1105 H   0  0  0  0  0  0  0  0  0  0  0  0
   -6.1821   -0.9745   -1.0853 H   0  0  0  0  0  0  0  0  0  0  0  0
  1  2  1  0
  2  3  1  0
  3  4  2  0
  4  5  1  0
  5  6  1  0
  6  7  2  0
  6  8  1  0
  8  9  1  0
  9 10  1  0
 10 11  1  0
 11 12  1  0
 12 13  2  0
 13 14  1  0
 14 15  1  0
 14 16  2  0
 16 17  1  0
 17 18  2  0
 18 19  1  0
 11 20  1  0
 20 21  1  0
  5 22  2  0
 22 23  1  0
 23 24  1  0
 24 25  1  0
 23 26  2  0
 26 27  1  0
 27 28  1  0
 26  3  1  0
 21  8  1  0
 18 12  1  0
  1 29  1  0
  1 30  1  0
  1 31  1  0
  4 32  1  0
  9 33  1  0
  9 34  1  0
 10 35  1  0
 10 36  1  0
 13 37  1  0
 16 38  1  0
 17 39  1  0
 20 40  1  0
 20 41  1  0
 21 42  1  0
 21 43  1  0
 22 44  1  0
 25 45  1  0
 25 46  1  0
 25 47  1  0
 28 48  1  0
 28 49  1  0
 28 50  1  0
M  END
$$$$
