
     RDKit          3D

 46 48  0  0  0  0  0  0  0  0999 V2000
   -3.3988    0.7719    2.8932 C   0  0  0  0  0  0  0  0  0  0  0  0
   -2.5592    0.6600    1.7492 O   0  0  0  0  0  0  0  0  0  0  0  0
   -2.9046   -0.2908    0.8144 C   0  0  0  0  0  0  0  0  0  0  0  0
   -4.0007   -1.1505    0.9132 C   0  0  0  0  0  0  0  0  0  0  0  0
   -4.2550   -2.0814   -0.0974 C   0  0  0  0  0  0  0  0  0  0  0  0
   -3.4128   -2.1721   -1.2096 C   0  0  0  0  0  0  0  0  0  0  0  0
   -3.7058   -3.1503   -2.3095 C   0  0  0  0  0  0  0  0  0  0  0  0
   -2.3205   -1.2992   -1.3159 C   0  0  0  0  0  0  0  0  0  0  0  0
   -2.0586   -0.3623   -0.3133 C   0  0  0  0  0  0  0  0  0  0  0  0
   -0.9697    0.5389   -0.3446 N   0  0  0  0  0  0  0  0  0  0  0  0
   -0.0376    0.7228   -1.3434 C   0  0  0  0  0  0  0  0  0  0  0  0
   -0.0201    0.1491   -2.4269 O   0  0  0  0  0  0  0  0  0  0  0  0
    1.0443    1.7217   -0.9591 C   0  0  0  0  0  0  0  0  0  0  0  0
    1.7859    2.2660   -2.1683 C   0  0  0  0  0  0  0  0  0  0  0  0
    3.1272    2.5927   -1.6020 C   0  0  0  0  0  0  0  0  0  0  0  0
    3.9669    3.3014   -2.1312 O   0  0  0  0  0  0  0  0  0  0  0  0
    3.2932    1.9805   -0.3976 O   0  0  0  0  0  0  0  0  0  0  0  0
    2.1692    1.1167   -0.1101 C   0  0  0  0  0  0  0  0  0  0  0  0
    2.5808   -0.3166   -0.4973 C   0  0  0  0  0  0  0  0  0  0  0  0
    3.8443   -0.7833    0.2361 C   0  0  0  0  0  0  0  0  0  0  0  0
    3.9954   -0.1937    1.6382 C   0  0  0  0  0  0  0  0  0  0  0  0
    2.6520    0.1795    2.2455 C   0  0  0  0  0  0  0  0  0  0  0  0
    1.8927    1.2155    1.4055 C   0  0  0  0  0  0  0  0  0  0  0  0
   -3.3909   -0.1524    3.4802 H   0  0  0  0  0  0  0  0  0  0  0  0
   -4.4175    1.0553    2.6093 H   0  0  0  0  0  0  0  0  0  0  0  0
   -2.9969    1.5703    3.5244 H   0  0  0  0  0  0  0  0  0  0  0  0
   -4.6796   -1.1247    1.7587 H   0  0  0  0  0  0  0  0  0  0  0  0
   -5.1176   -2.7394   -0.0092 H   0  0  0  0  0  0  0  0  0  0  0  0
   -2.7794   -3.5016   -2.7763 H   0  0  0  0  0  0  0  0  0  0  0  0
   -4.3311   -2.6776   -3.0731 H   0  0  0  0  0  0  0  0  0  0  0  0
   -4.2275   -4.0315   -1.9213 H   0  0  0  0  0  0  0  0  0  0  0  0
   -1.6857   -1.3733   -2.1938 H   0  0  0  0  0  0  0  0  0  0  0  0
   -0.9525    1.1542    0.4633 H   0  0  0  0  0  0  0  0  0  0  0  0
    0.5836    2.5717   -0.4370 H   0  0  0  0  0  0  0  0  0  0  0  0
    1.9150    1.5409   -2.9765 H   0  0  0  0  0  0  0  0  0  0  0  0
    1.3024    3.1692   -2.5511 H   0  0  0  0  0  0  0  0  0  0  0  0
    2.7687   -0.3977   -1.5749 H   0  0  0  0  0  0  0  0  0  0  0  0
    1.7640   -1.0118   -0.2654 H   0  0  0  0  0  0  0  0  0  0  0  0
    3.8281   -1.8787    0.2950 H   0  0  0  0  0  0  0  0  0  0  0  0
    4.7336   -0.5254   -0.3524 H   0  0  0  0  0  0  0  0  0  0  0  0
    4.5173   -0.9102    2.2827 H   0  0  0  0  0  0  0  0  0  0  0  0
    4.6316    0.6991    1.5937 H   0  0  0  0  0  0  0  0  0  0  0  0
    2.7907    0.5649    3.2621 H   0  0  0  0  0  0  0  0  0  0  0  0
    2.0387   -0.7260    2.3395 H   0  0  0  0  0  0  0  0  0  0  0  0
    0.8285    1.0902    1.6279 H   0  0  0  0  0  0  0  0  0  0  0  0
    2.1682    2.2179    1.7590 H   0  0  0  0  0  0  0  0  0  0  0  0
  1  2  1  0
  2  3  1  0
  3  4  2  0
  4  5  1  0
  5  6  2  0
  6  7  1  0
  6  8  1  0
  8  9  2  0
  9 10  1  0
 10 11  1  0
 11 12  2  0
 11 13  1  0
 13 14  1  0
 14 15  1  0
 15 16  2  0
 15 17  1  0
 17 18  1  0
 18 19  1  0
 19 20  1  0
 20 21  1  0
 21 22  1  0
 22 23  1  0
  9  3  1  0
 18 13  1  0
 23 18  1  0
  1 24  1  0
  1 25  1  0
  1 26  1  0
  4 27  1  0
  5 28  1  0
  7 29  1  0
  7 30  1  0
  7 31  1  0
  8 32  1  0
 10 33  1  0
 13 34  1  0
 14 35  1  0
 14 36  1  0
 19 37  1  0
 19 38  1  0
 20 39  1  0
 20 40  1  0
 21 41  1  0
 21 42  1  0
 22 43  1  0
 22 44  1  0
 23 45  1  0
 23 46  1  0
M  END
$$$$
