
     RDKit          3D

 46 49  0  0  0  0  0  0  0  0999 V2000
    6.6789   -0.5732    1.6255 O   0  0  0  0  0  0  0  0  0  0  0  0
    5.8028   -0.1145    0.8780 N   0  0  0  0  0  4  0  0  0  0  0  0
    5.7000    1.0819    0.5700 O   0  0  0  0  0  1  0  0  0  0  0  0
    4.8207   -1.0522    0.3198 C   0  0  0  0  0  0  0  0  0  0  0  0
    4.8704   -2.4044    0.6810 C   0  0  0  0  0  0  0  0  0  0  0  0
    3.9290   -3.2891    0.1549 C   0  0  0  0  0  0  0  0  0  0  0  0
    2.9476   -2.8284   -0.7262 C   0  0  0  0  0  0  0  0  0  0  0  0
    2.8963   -1.4769   -1.0994 C   0  0  0  0  0  0  0  0  0  0  0  0
    1.8176   -0.9744   -2.0347 C   0  0  0  0  0  0  0  0  0  0  0  0
    0.6706   -0.3423   -1.3105 C   0  0  0  0  0  0  0  0  0  0  0  0
   -0.6012   -1.3031   -0.5882 S   0  0  0  0  0  0  0  0  0  0  0  0
   -1.4934    0.1763   -0.0719 C   0  0  0  0  0  0  0  0  0  0  0  0
   -2.6144    0.1566    0.5832 N   0  0  0  0  0  0  0  0  0  0  0  0
   -3.2227   -1.0522    0.9385 C   0  0  0  0  0  0  0  0  0  0  0  0
   -2.9523   -1.6395    2.1773 C   0  0  0  0  0  0  0  0  0  0  0  0
   -3.5794   -2.8309    2.5475 C   0  0  0  0  0  0  0  0  0  0  0  0
   -4.4931   -3.4339    1.6839 C   0  0  0  0  0  0  0  0  0  0  0  0
   -4.7850   -2.8427    0.4553 C   0  0  0  0  0  0  0  0  0  0  0  0
   -4.1562   -1.6512    0.0881 C   0  0  0  0  0  0  0  0  0  0  0  0
   -0.7552    1.2974   -0.4866 N   0  0  0  0  0  0  0  0  0  0  0  0
   -1.0992    2.6147   -0.0657 C   0  0  0  0  0  0  0  0  0  0  0  0
   -0.1306    3.4872    0.4648 C   0  0  0  0  0  0  0  0  0  0  0  0
   -0.4646    4.7850    0.8615 C   0  0  0  0  0  0  0  0  0  0  0  0
   -1.7762    5.2339    0.7401 C   0  0  0  0  0  0  0  0  0  0  0  0
   -2.7537    4.3846    0.2293 C   0  0  0  0  0  0  0  0  0  0  0  0
   -2.4177    3.0868   -0.1671 C   0  0  0  0  0  0  0  0  0  0  0  0
    0.4157    0.9713   -1.1793 C   0  0  0  0  0  0  0  0  0  0  0  0
    1.2189    1.9229   -1.7609 O   0  0  0  0  0  0  0  0  0  0  0  0
    3.8399   -0.5846   -0.5659 C   0  0  0  0  0  0  0  0  0  0  0  0
    5.6253   -2.7800    1.3683 H   0  0  0  0  0  0  0  0  0  0  0  0
    3.9544   -4.3400    0.4351 H   0  0  0  0  0  0  0  0  0  0  0  0
    2.2142   -3.5329   -1.1162 H   0  0  0  0  0  0  0  0  0  0  0  0
    1.4569   -1.7978   -2.6651 H   0  0  0  0  0  0  0  0  0  0  0  0
    2.2723   -0.2654   -2.7389 H   0  0  0  0  0  0  0  0  0  0  0  0
   -2.2498   -1.1636    2.8556 H   0  0  0  0  0  0  0  0  0  0  0  0
   -3.3582   -3.2833    3.5103 H   0  0  0  0  0  0  0  0  0  0  0  0
   -4.9836   -4.3600    1.9720 H   0  0  0  0  0  0  0  0  0  0  0  0
   -5.5048   -3.3049   -0.2147 H   0  0  0  0  0  0  0  0  0  0  0  0
   -4.3932   -1.1857   -0.8640 H   0  0  0  0  0  0  0  0  0  0  0  0
    0.8958    3.1518    0.6039 H   0  0  0  0  0  0  0  0  0  0  0  0
    0.2979    5.4391    1.2776 H   0  0  0  0  0  0  0  0  0  0  0  0
   -2.0399    6.2406    1.0546 H   0  0  0  0  0  0  0  0  0  0  0  0
   -3.7822    4.7264    0.1434 H   0  0  0  0  0  0  0  0  0  0  0  0
   -3.2023    2.4457   -0.5643 H   0  0  0  0  0  0  0  0  0  0  0  0
    0.6874    2.7368   -1.8162 H   0  0  0  0  0  0  0  0  0  0  0  0
    3.7963    0.4681   -0.8433 H   0  0  0  0  0  0  0  0  0  0  0  0
  1  2  2  0
  2  3  1  0
  2  4  1  0
  4  5  2  0
  5  6  1  0
  6  7  2  0
  7  8  1  0
  8  9  1  0
  9 10  1  0
 10 11  1  0
 11 12  1  0
 12 13  2  3
 13 14  1  0
 14 15  2  0
 15 16  1  0
 16 17  2  0
 17 18  1  0
 18 19  2  0
 12 20  1  0
 20 21  1  0
 21 22  2  0
 22 23  1  0
 23 24  2  0
 24 25  1  0
 25 26  2  0
 20 27  1  0
 27 28  1  0
  8 29  2  0
 29  4  1  0
 27 10  2  0
 19 14  1  0
 26 21  1  0
  5 30  1  0
  6 31  1  0
  7 32  1  0
  9 33  1  0
  9 34  1  0
 15 35  1  0
 16 36  1  0
 17 37  1  0
 18 38  1  0
 19 39  1  0
 22 40  1  0
 23 41  1  0
 24 42  1  0
 25 43  1  0
 26 44  1  0
 28 45  1  0
 29 46  1  0
M  CHG  2   2   1   3  -1
M  END
$$$$
