
     RDKit          3D

 40 42  0  0  0  0  0  0  0  0999 V2000
    2.8499    3.5197    1.2601 C   0  0  0  0  0  0  0  0  0  0  0  0
    3.5148    2.2057    0.8993 C   0  0  0  0  0  0  0  0  0  0  0  0
    2.4961    1.2927    0.4807 O   0  0  0  0  0  0  0  0  0  0  0  0
    2.9503    0.0559    0.1331 C   0  0  0  0  0  0  0  0  0  0  0  0
    4.1233   -0.2911    0.1596 O   0  0  0  0  0  0  0  0  0  0  0  0
    1.8000   -0.8213   -0.2828 C   0  0  0  0  0  0  0  0  0  0  0  0
    0.5681   -0.2866   -0.2931 N   0  0  0  0  0  0  0  0  0  0  0  0
   -0.4448   -1.0886   -0.6567 C   0  0  0  0  0  0  0  0  0  0  0  0
   -1.7661   -0.5549   -0.6964 N   0  0  0  0  0  0  0  0  0  0  0  0
   -2.1234    0.7443   -0.2502 C   0  0  0  0  0  0  0  0  0  0  0  0
   -2.5909    1.6766   -1.1937 C   0  0  0  0  0  0  0  0  0  0  0  0
   -2.9150    2.9812   -0.8185 C   0  0  0  0  0  0  0  0  0  0  0  0
   -2.7705    3.3766    0.5061 C   0  0  0  0  0  0  0  0  0  0  0  0
   -2.3107    2.4654    1.4556 C   0  0  0  0  0  0  0  0  0  0  0  0
   -1.9967    1.1424    1.0963 C   0  0  0  0  0  0  0  0  0  0  0  0
   -1.5153    0.2077    2.1720 C   0  0  0  0  0  0  0  0  0  0  0  0
   -0.2440   -2.4397   -1.0003 C   0  0  0  0  0  0  0  0  0  0  0  0
   -1.2691   -3.3537   -1.3580 C   0  0  0  0  0  0  0  0  0  0  0  0
   -0.9676   -4.6727   -1.6898 C   0  0  0  0  0  0  0  0  0  0  0  0
    0.3537   -5.0958   -1.6650 C   0  0  0  0  0  0  0  0  0  0  0  0
    1.3619   -4.1992   -1.3015 C   0  0  0  0  0  0  0  0  0  0  0  0
    1.0862   -2.8800   -0.9641 C   0  0  0  0  0  0  0  0  0  0  0  0
    2.1014   -2.0894   -0.6162 N   0  0  0  0  0  0  0  0  0  0  0  0
    2.3058    3.9252    0.4005 H   0  0  0  0  0  0  0  0  0  0  0  0
    2.1166    3.3737    2.0602 H   0  0  0  0  0  0  0  0  0  0  0  0
    3.5901    4.2546    1.5886 H   0  0  0  0  0  0  0  0  0  0  0  0
    4.2285    2.3633    0.0830 H   0  0  0  0  0  0  0  0  0  0  0  0
    4.0371    1.8028    1.7742 H   0  0  0  0  0  0  0  0  0  0  0  0
   -2.1377   -0.7240   -1.6262 H   0  0  0  0  0  0  0  0  0  0  0  0
   -2.6891    1.3996   -2.2398 H   0  0  0  0  0  0  0  0  0  0  0  0
   -3.2674    3.6900   -1.5628 H   0  0  0  0  0  0  0  0  0  0  0  0
   -3.0112    4.3942    0.8017 H   0  0  0  0  0  0  0  0  0  0  0  0
   -2.1990    2.7906    2.4877 H   0  0  0  0  0  0  0  0  0  0  0  0
   -0.4242    0.2385    2.2428 H   0  0  0  0  0  0  0  0  0  0  0  0
   -1.8406   -0.8205    1.9852 H   0  0  0  0  0  0  0  0  0  0  0  0
   -1.9297    0.4910    3.1460 H   0  0  0  0  0  0  0  0  0  0  0  0
   -2.3115   -3.0424   -1.3621 H   0  0  0  0  0  0  0  0  0  0  0  0
   -1.7605   -5.3661   -1.9594 H   0  0  0  0  0  0  0  0  0  0  0  0
    0.6067   -6.1222   -1.9192 H   0  0  0  0  0  0  0  0  0  0  0  0
    2.3945   -4.5435   -1.2769 H   0  0  0  0  0  0  0  0  0  0  0  0
  1  2  1  0
  2  3  1  0
  3  4  1  0
  4  5  2  0
  4  6  1  0
  6  7  2  0
  7  8  1  0
  8  9  1  0
  9 10  1  0
 10 11  2  0
 11 12  1  0
 12 13  2  0
 13 14  1  0
 14 15  2  0
 15 16  1  0
  8 17  2  0
 17 18  1  0
 18 19  2  0
 19 20  1  0
 20 21  2  0
 21 22  1  0
 22 23  2  0
 23  6  1  0
 15 10  1  0
 22 17  1  0
  1 24  1  0
  1 25  1  0
  1 26  1  0
  2 27  1  0
  2 28  1  0
  9 29  1  0
 11 30  1  0
 12 31  1  0
 13 32  1  0
 14 33  1  0
 16 34  1  0
 16 35  1  0
 16 36  1  0
 18 37  1  0
 19 38  1  0
 20 39  1  0
 21 40  1  0
M  END
$$$$
