
     RDKit          3D

 50 50  0  0  0  0  0  0  0  0999 V2000
    7.5847    3.0656   -0.3631 C   0  0  0  0  0  0  0  0  0  0  0  0
    6.7856    2.2780    0.3793 C   0  0  0  0  0  0  0  0  0  0  0  0
    5.4378    2.7554    0.8469 C   0  0  0  0  0  0  0  0  0  0  0  0
    7.2175    0.9023    0.8303 C   0  0  0  0  0  0  0  0  0  0  0  0
    6.7034   -0.3648   -0.3592 S   0  0  0  0  0  0  0  0  0  0  0  0
    5.1096   -0.7467    0.2111 C   0  0  0  0  0  0  0  0  0  0  0  0
    4.6861   -0.6091    1.4532 N   0  0  0  0  0  0  0  0  0  0  0  0
    3.3763   -1.0393    1.4788 N   0  0  0  0  0  0  0  0  0  0  0  0
    3.0906   -1.4115    0.2507 C   0  0  0  0  0  0  0  0  0  0  0  0
    1.8265   -1.9450   -0.3072 C   0  0  0  0  0  0  0  0  0  0  0  0
    0.7898   -0.8348   -0.4762 C   0  0  0  0  0  0  0  0  0  0  0  0
   -0.4560   -1.2773   -1.2476 C   0  0  0  0  0  0  0  0  0  0  0  0
   -1.2391   -2.4469   -0.6367 C   0  0  0  0  0  0  0  0  0  0  0  0
   -1.7398   -2.2174    0.7916 C   0  0  0  0  0  0  0  0  0  0  0  0
   -2.5667   -1.0432    0.9204 N   0  0  0  0  0  0  0  0  0  0  0  0
   -3.8525   -0.9845    0.4784 C   0  0  0  0  0  0  0  0  0  0  0  0
   -4.4580   -1.9080   -0.0403 O   0  0  0  0  0  0  0  0  0  0  0  0
   -4.3246    0.2634    0.6989 O   0  0  0  0  0  0  0  0  0  0  0  0
   -5.6702    0.6284    0.2991 C   0  0  0  0  0  0  0  0  0  0  0  0
   -5.8131    2.1001    0.7178 C   0  0  0  0  0  0  0  0  0  0  0  0
   -6.7211   -0.1988    1.0472 C   0  0  0  0  0  0  0  0  0  0  0  0
   -5.8427    0.5333   -1.2212 C   0  0  0  0  0  0  0  0  0  0  0  0
    4.1379   -1.2558   -0.6113 O   0  0  0  0  0  0  0  0  0  0  0  0
    7.2760    4.0611   -0.6705 H   0  0  0  0  0  0  0  0  0  0  0  0
    8.5641    2.7306   -0.6964 H   0  0  0  0  0  0  0  0  0  0  0  0
    4.6355    2.1318    0.4407 H   0  0  0  0  0  0  0  0  0  0  0  0
    5.3765    2.7282    1.9403 H   0  0  0  0  0  0  0  0  0  0  0  0
    5.2410    3.7878    0.5355 H   0  0  0  0  0  0  0  0  0  0  0  0
    6.8699    0.6870    1.8463 H   0  0  0  0  0  0  0  0  0  0  0  0
    8.3118    0.8606    0.8795 H   0  0  0  0  0  0  0  0  0  0  0  0
    1.4458   -2.7183    0.3686 H   0  0  0  0  0  0  0  0  0  0  0  0
    2.0217   -2.4285   -1.2715 H   0  0  0  0  0  0  0  0  0  0  0  0
    0.5042   -0.4386    0.5047 H   0  0  0  0  0  0  0  0  0  0  0  0
    1.2397    0.0060   -1.0182 H   0  0  0  0  0  0  0  0  0  0  0  0
   -1.1225   -0.4115   -1.3570 H   0  0  0  0  0  0  0  0  0  0  0  0
   -0.1574   -1.5589   -2.2668 H   0  0  0  0  0  0  0  0  0  0  0  0
   -0.6219   -3.3533   -0.6543 H   0  0  0  0  0  0  0  0  0  0  0  0
   -2.0962   -2.6539   -1.2902 H   0  0  0  0  0  0  0  0  0  0  0  0
   -0.9042   -2.1086    1.4899 H   0  0  0  0  0  0  0  0  0  0  0  0
   -2.3261   -3.0872    1.1101 H   0  0  0  0  0  0  0  0  0  0  0  0
   -2.1895   -0.1825    1.2946 H   0  0  0  0  0  0  0  0  0  0  0  0
   -6.8002    2.5019    0.4654 H   0  0  0  0  0  0  0  0  0  0  0  0
   -5.6583    2.2136    1.7967 H   0  0  0  0  0  0  0  0  0  0  0  0
   -5.0517    2.7196    0.2304 H   0  0  0  0  0  0  0  0  0  0  0  0
   -6.5296   -0.1871    2.1256 H   0  0  0  0  0  0  0  0  0  0  0  0
   -7.7315    0.1850    0.8678 H   0  0  0  0  0  0  0  0  0  0  0  0
   -6.7112   -1.2479    0.7386 H   0  0  0  0  0  0  0  0  0  0  0  0
   -5.8132   -0.5028   -1.5720 H   0  0  0  0  0  0  0  0  0  0  0  0
   -6.7997    0.9587   -1.5405 H   0  0  0  0  0  0  0  0  0  0  0  0
   -5.0351    1.0635   -1.7379 H   0  0  0  0  0  0  0  0  0  0  0  0
  1  2  2  0
  2  3  1  0
  2  4  1  0
  4  5  1  0
  5  6  1  0
  6  7  2  0
  7  8  1  0
  8  9  2  0
  9 10  1  0
 10 11  1  0
 11 12  1  0
 12 13  1  0
 13 14  1  0
 14 15  1  0
 15 16  1  0
 16 17  2  0
 16 18  1  0
 18 19  1  0
 19 20  1  0
 19 21  1  0
 19 22  1  0
  9 23  1  0
 23  6  1  0
  1 24  1  0
  1 25  1  0
  3 26  1  0
  3 27  1  0
  3 28  1  0
  4 29  1  0
  4 30  1  0
 10 31  1  0
 10 32  1  0
 11 33  1  0
 11 34  1  0
 12 35  1  0
 12 36  1  0
 13 37  1  0
 13 38  1  0
 14 39  1  0
 14 40  1  0
 15 41  1  0
 20 42  1  0
 20 43  1  0
 20 44  1  0
 21 45  1  0
 21 46  1  0
 21 47  1  0
 22 48  1  0
 22 49  1  0
 22 50  1  0
M  END
$$$$
