
     RDKit          3D

 57 61  0  0  0  0  0  0  0  0999 V2000
   -6.1747    3.1070    1.5326 C   0  0  0  0  0  0  0  0  0  0  0  0
   -6.6448    2.0449    0.7669 C   0  0  0  0  0  0  0  0  0  0  0  0
   -5.7439    1.2078    0.1051 C   0  0  0  0  0  0  0  0  0  0  0  0
   -4.3532    1.4190    0.1878 C   0  0  0  0  0  0  0  0  0  0  0  0
   -3.4354    0.4444   -0.5422 C   0  0  0  0  0  0  0  0  0  0  0  0
   -2.8712   -0.7296    0.2473 C   0  0  0  0  0  0  0  0  0  0  0  0
   -2.5156   -1.9066   -0.4411 C   0  0  0  0  0  0  0  0  0  0  0  0
   -1.9839   -3.0063    0.2358 C   0  0  0  0  0  0  0  0  0  0  0  0
   -1.7972   -2.9507    1.6137 C   0  0  0  0  0  0  0  0  0  0  0  0
   -2.1402   -1.7974    2.3128 C   0  0  0  0  0  0  0  0  0  0  0  0
   -2.6714   -0.6953    1.6369 C   0  0  0  0  0  0  0  0  0  0  0  0
   -2.2639    1.1842   -1.1220 C   0  0  0  0  0  0  0  0  0  0  0  0
   -2.1676    1.4236   -2.4403 N   0  0  0  0  0  0  0  0  0  0  0  0
   -0.9229    2.0366   -2.5730 O   0  0  0  0  0  0  0  0  0  0  0  0
   -0.3846    2.1033   -1.3226 C   0  0  0  0  0  0  0  0  0  0  0  0
    0.9911    2.6763   -1.2149 C   0  0  0  0  0  0  0  0  0  0  0  0
    2.0752    1.7066   -0.9509 N   0  0  0  0  0  0  0  0  0  0  0  0
    2.0558    1.1976    0.4280 C   0  0  0  0  0  0  0  0  0  0  0  0
    2.7428   -0.1653    0.5921 C   0  0  0  0  0  0  0  0  0  0  0  0
    3.9361   -0.2951   -0.3620 C   0  0  0  0  0  0  0  0  0  0  0  0
    4.7074   -1.5873   -0.1764 C   0  0  0  0  0  0  0  0  0  0  0  0
    4.0831   -2.8384   -0.2338 C   0  0  0  0  0  0  0  0  0  0  0  0
    4.8533   -3.9799   -0.0638 C   0  0  0  0  0  0  0  0  0  0  0  0
    6.1851   -3.9660    0.1510 N   0  0  0  0  0  0  0  0  0  0  0  0
    6.7723   -2.7520    0.1995 C   0  0  0  0  0  0  0  0  0  0  0  0
    6.0887   -1.5551    0.0415 C   0  0  0  0  0  0  0  0  0  0  0  0
    3.4899   -0.1006   -1.8247 C   0  0  0  0  0  0  0  0  0  0  0  0
    2.1551    0.6423   -1.9481 C   0  0  0  0  0  0  0  0  0  0  0  0
   -1.1718    1.6111   -0.3937 N   0  0  0  0  0  0  0  0  0  0  0  0
   -3.9030    2.4896    0.9812 C   0  0  0  0  0  0  0  0  0  0  0  0
   -4.8052    3.3278    1.6416 C   0  0  0  0  0  0  0  0  0  0  0  0
   -6.8743    3.7586    2.0479 H   0  0  0  0  0  0  0  0  0  0  0  0
   -7.7133    1.8644    0.6847 H   0  0  0  0  0  0  0  0  0  0  0  0
   -6.1401    0.3797   -0.4805 H   0  0  0  0  0  0  0  0  0  0  0  0
   -4.0143    0.0274   -1.3798 H   0  0  0  0  0  0  0  0  0  0  0  0
   -2.6492   -1.9726   -1.5200 H   0  0  0  0  0  0  0  0  0  0  0  0
   -1.7189   -3.9056   -0.3125 H   0  0  0  0  0  0  0  0  0  0  0  0
   -1.3861   -3.8061    2.1433 H   0  0  0  0  0  0  0  0  0  0  0  0
   -1.9968   -1.7529    3.3891 H   0  0  0  0  0  0  0  0  0  0  0  0
   -2.9246    0.1877    2.2171 H   0  0  0  0  0  0  0  0  0  0  0  0
    0.9934    3.4433   -0.4305 H   0  0  0  0  0  0  0  0  0  0  0  0
    1.2302    3.2124   -2.1425 H   0  0  0  0  0  0  0  0  0  0  0  0
    2.5699    1.9320    1.0598 H   0  0  0  0  0  0  0  0  0  0  0  0
    1.0406    1.1011    0.8281 H   0  0  0  0  0  0  0  0  0  0  0  0
    3.0653   -0.2873    1.6331 H   0  0  0  0  0  0  0  0  0  0  0  0
    2.0086   -0.9579    0.3981 H   0  0  0  0  0  0  0  0  0  0  0  0
    4.6161    0.5345   -0.1180 H   0  0  0  0  0  0  0  0  0  0  0  0
    3.0176   -2.9341   -0.4099 H   0  0  0  0  0  0  0  0  0  0  0  0
    4.4023   -4.9662   -0.0973 H   0  0  0  0  0  0  0  0  0  0  0  0
    7.8447   -2.7637    0.3725 H   0  0  0  0  0  0  0  0  0  0  0  0
    6.6323   -0.6171    0.0884 H   0  0  0  0  0  0  0  0  0  0  0  0
    3.3971   -1.0566   -2.3547 H   0  0  0  0  0  0  0  0  0  0  0  0
    4.2734    0.4589   -2.3532 H   0  0  0  0  0  0  0  0  0  0  0  0
    2.0917    1.0536   -2.9627 H   0  0  0  0  0  0  0  0  0  0  0  0
    1.3239   -0.0664   -1.8389 H   0  0  0  0  0  0  0  0  0  0  0  0
   -2.8405    2.6845    1.1083 H   0  0  0  0  0  0  0  0  0  0  0  0
   -4.4342    4.1516    2.2457 H   0  0  0  0  0  0  0  0  0  0  0  0
  1  2  2  0
  2  3  1  0
  3  4  2  0
  4  5  1  0
  5  6  1  0
  6  7  2  0
  7  8  1  0
  8  9  2  0
  9 10  1  0
 10 11  2  0
  5 12  1  0
 12 13  2  0
 13 14  1  0
 14 15  1  0
 15 16  1  0
 16 17  1  0
 17 18  1  0
 18 19  1  0
 19 20  1  0
 20 21  1  0
 21 22  2  0
 22 23  1  0
 23 24  2  0
 24 25  1  0
 25 26  2  0
 20 27  1  0
 27 28  1  0
 15 29  2  0
  4 30  1  0
 30 31  2  0
 31  1  1  0
 11  6  1  0
 29 12  1  0
 28 17  1  0
 26 21  1  0
  1 32  1  0
  2 33  1  0
  3 34  1  0
  5 35  1  0
  7 36  1  0
  8 37  1  0
  9 38  1  0
 10 39  1  0
 11 40  1  0
 16 41  1  0
 16 42  1  0
 18 43  1  0
 18 44  1  0
 19 45  1  0
 19 46  1  0
 20 47  1  0
 22 48  1  0
 23 49  1  0
 25 50  1  0
 26 51  1  0
 27 52  1  0
 27 53  1  0
 28 54  1  0
 28 55  1  0
 30 56  1  0
 31 57  1  0
M  END
$$$$
