
     RDKit          3D

 46 48  0  0  0  0  0  0  0  0999 V2000
   -3.8643   -1.1759   -0.5887 C   0  0  0  0  0  0  0  0  0  0  0  0
   -3.6096    0.0384    0.2682 C   0  0  0  0  0  0  0  0  0  0  0  0
   -4.6008    0.8780    0.6417 C   0  0  0  0  0  0  0  0  0  0  0  0
   -6.0155    0.7417    0.2844 C   0  0  0  0  0  0  0  0  0  0  0  0
   -6.5044    1.3291   -0.8871 C   0  0  0  0  0  0  0  0  0  0  0  0
   -7.8516    1.1960   -1.2282 C   0  0  0  0  0  0  0  0  0  0  0  0
   -8.7133    0.4765   -0.4008 C   0  0  0  0  0  0  0  0  0  0  0  0
   -8.2301   -0.1110    0.7680 C   0  0  0  0  0  0  0  0  0  0  0  0
   -6.8833    0.0208    1.1112 C   0  0  0  0  0  0  0  0  0  0  0  0
   -2.2490    0.3461    0.7259 C   0  0  0  0  0  0  0  0  0  0  0  0
   -1.0678   -0.2647    0.5402 C   0  0  0  0  0  0  0  0  0  0  0  0
   -0.6760   -1.6961   -0.3356 S   0  0  0  0  0  0  0  0  0  0  0  0
    1.0424   -1.5934    0.0280 C   0  0  0  0  0  0  0  0  0  0  0  0
    2.1628   -2.7113   -0.4910 S   0  0  0  0  0  0  0  0  0  0  0  0
    1.2536   -0.4822    0.8112 N   0  0  0  0  0  0  0  0  0  0  0  0
    2.6411   -0.0214    1.2299 N   0  0  0  0  0  0  0  0  0  0  0  0
    3.3024    1.1406    0.1590 S   0  0  0  0  0  6  0  0  0  0  0  0
    3.4451    2.3626    0.9188 O   0  0  0  0  0  0  0  0  0  0  0  0
    2.5538    1.0935   -1.0797 O   0  0  0  0  0  0  0  0  0  0  0  0
    4.9209    0.4764   -0.1217 C   0  0  0  0  0  0  0  0  0  0  0  0
    5.1775   -0.2696   -1.2736 C   0  0  0  0  0  0  0  0  0  0  0  0
    6.4606   -0.7727   -1.4955 C   0  0  0  0  0  0  0  0  0  0  0  0
    7.4938   -0.5133   -0.5848 C   0  0  0  0  0  0  0  0  0  0  0  0
    8.8634   -1.0836   -0.8117 C   0  0  0  0  0  0  0  0  0  0  0  0
    7.2227    0.2408    0.5651 C   0  0  0  0  0  0  0  0  0  0  0  0
    5.9414    0.7452    0.7945 C   0  0  0  0  0  0  0  0  0  0  0  0
    0.1702    0.3055    1.1518 C   0  0  0  0  0  0  0  0  0  0  0  0
    0.2145    1.2960    1.8691 O   0  0  0  0  0  0  0  0  0  0  0  0
   -3.5834   -2.0902   -0.0562 H   0  0  0  0  0  0  0  0  0  0  0  0
   -3.3084   -1.1085   -1.5293 H   0  0  0  0  0  0  0  0  0  0  0  0
   -4.9153   -1.2987   -0.8664 H   0  0  0  0  0  0  0  0  0  0  0  0
   -4.4014    1.7520    1.2597 H   0  0  0  0  0  0  0  0  0  0  0  0
   -5.8399    1.8902   -1.5398 H   0  0  0  0  0  0  0  0  0  0  0  0
   -8.2281    1.6532   -2.1396 H   0  0  0  0  0  0  0  0  0  0  0  0
   -9.7621    0.3733   -0.6674 H   0  0  0  0  0  0  0  0  0  0  0  0
   -8.9018   -0.6723    1.4122 H   0  0  0  0  0  0  0  0  0  0  0  0
   -6.5156   -0.4428    2.0233 H   0  0  0  0  0  0  0  0  0  0  0  0
   -2.2069    1.2556    1.3339 H   0  0  0  0  0  0  0  0  0  0  0  0
    2.6089    0.4276    2.1543 H   0  0  0  0  0  0  0  0  0  0  0  0
    4.3916   -0.4701   -1.9984 H   0  0  0  0  0  0  0  0  0  0  0  0
    6.6509   -1.3672   -2.3871 H   0  0  0  0  0  0  0  0  0  0  0  0
    9.6329   -0.4358   -0.3789 H   0  0  0  0  0  0  0  0  0  0  0  0
    8.9361   -2.0748   -0.3536 H   0  0  0  0  0  0  0  0  0  0  0  0
    9.0776   -1.1712   -1.8821 H   0  0  0  0  0  0  0  0  0  0  0  0
    8.0124    0.4437    1.2858 H   0  0  0  0  0  0  0  0  0  0  0  0
    5.7522    1.3440    1.6824 H   0  0  0  0  0  0  0  0  0  0  0  0
  1  2  1  0
  2  3  2  3
  3  4  1  0
  4  5  2  0
  5  6  1  0
  6  7  2  0
  7  8  1  0
  8  9  2  0
  2 10  1  0
 10 11  2  3
 11 12  1  0
 12 13  1  0
 13 14  2  0
 13 15  1  0
 15 16  1  0
 16 17  1  0
 17 18  2  0
 17 19  2  0
 17 20  1  0
 20 21  2  0
 21 22  1  0
 22 23  2  0
 23 24  1  0
 23 25  1  0
 25 26  2  0
 15 27  1  0
 27 28  2  0
  9  4  1  0
 27 11  1  0
 26 20  1  0
  1 29  1  0
  1 30  1  0
  1 31  1  0
  3 32  1  0
  5 33  1  0
  6 34  1  0
  7 35  1  0
  8 36  1  0
  9 37  1  0
 10 38  1  0
 16 39  1  0
 21 40  1  0
 22 41  1  0
 24 42  1  0
 24 43  1  0
 24 44  1  0
 25 45  1  0
 26 46  1  0
M  END
$$$$
