
     RDKit          3D

 38 40  0  0  0  0  0  0  0  0999 V2000
   -7.1246    0.4123    1.8965 C   0  0  0  0  0  0  0  0  0  0  0  0
   -6.4469    1.4949    1.2709 O   0  0  0  0  0  0  0  0  0  0  0  0
   -5.1420    1.2856    0.9226 C   0  0  0  0  0  0  0  0  0  0  0  0
   -4.4091    0.1221    1.1363 C   0  0  0  0  0  0  0  0  0  0  0  0
   -3.0702    0.0406    0.7227 C   0  0  0  0  0  0  0  0  0  0  0  0
   -2.4333    1.1128    0.0904 C   0  0  0  0  0  0  0  0  0  0  0  0
   -1.0988    1.0934   -0.3540 N   0  0  0  0  0  0  0  0  0  0  0  0
   -0.1893    0.0906   -0.3138 C   0  0  0  0  0  0  0  0  0  0  0  0
   -0.3526   -1.1326    0.1378 N   0  0  0  0  0  0  0  0  0  0  0  0
    0.8006   -1.8503    0.0006 C   0  0  0  0  0  0  0  0  0  0  0  0
    0.7869   -3.1293    0.4047 N   0  0  0  0  0  0  0  0  0  0  0  0
    1.8814   -1.1898   -0.5367 C   0  0  0  0  0  0  0  0  0  0  0  0
    3.1980   -1.7148   -0.8275 C   0  0  0  0  0  0  0  0  0  0  0  0
    3.4045   -2.9025   -1.0823 O   0  0  0  0  0  0  0  0  0  0  0  0
    4.3874   -0.8214   -0.8229 C   0  0  0  0  0  0  0  0  0  0  0  0
    4.6014    0.1031    0.2104 C   0  0  0  0  0  0  0  0  0  0  0  0
    5.7377    0.9146    0.1891 C   0  0  0  0  0  0  0  0  0  0  0  0
    6.6551    0.7882   -0.8495 C   0  0  0  0  0  0  0  0  0  0  0  0
    7.7430    1.5691   -0.8659 F   0  0  0  0  0  0  0  0  0  0  0  0
    6.4649   -0.1408   -1.8670 C   0  0  0  0  0  0  0  0  0  0  0  0
    5.3313   -0.9549   -1.8519 C   0  0  0  0  0  0  0  0  0  0  0  0
    1.3988    0.4058   -0.9328 S   0  0  0  0  0  0  0  0  0  0  0  0
   -3.1872    2.2791   -0.1152 C   0  0  0  0  0  0  0  0  0  0  0  0
   -4.5221    2.3643    0.2956 C   0  0  0  0  0  0  0  0  0  0  0  0
   -8.1517    0.7322    2.0968 H   0  0  0  0  0  0  0  0  0  0  0  0
   -7.1714   -0.4594    1.2353 H   0  0  0  0  0  0  0  0  0  0  0  0
   -6.6613    0.1578    2.8554 H   0  0  0  0  0  0  0  0  0  0  0  0
   -4.8400   -0.7469    1.6219 H   0  0  0  0  0  0  0  0  0  0  0  0
   -2.5417   -0.8888    0.9143 H   0  0  0  0  0  0  0  0  0  0  0  0
   -0.7886    1.9650   -0.7629 H   0  0  0  0  0  0  0  0  0  0  0  0
    1.4814   -3.7713    0.0234 H   0  0  0  0  0  0  0  0  0  0  0  0
   -0.1238   -3.5591    0.5299 H   0  0  0  0  0  0  0  0  0  0  0  0
    3.9036    0.1894    1.0402 H   0  0  0  0  0  0  0  0  0  0  0  0
    5.9188    1.6381    0.9782 H   0  0  0  0  0  0  0  0  0  0  0  0
    7.2012   -0.2287   -2.6606 H   0  0  0  0  0  0  0  0  0  0  0  0
    5.1849   -1.6926   -2.6389 H   0  0  0  0  0  0  0  0  0  0  0  0
   -2.7448    3.1441   -0.6026 H   0  0  0  0  0  0  0  0  0  0  0  0
   -5.0817    3.2802    0.1222 H   0  0  0  0  0  0  0  0  0  0  0  0
  1  2  1  0
  2  3  1  0
  3  4  2  0
  4  5  1  0
  5  6  2  0
  6  7  1  0
  7  8  1  0
  8  9  2  0
  9 10  1  0
 10 11  1  0
 10 12  2  0
 12 13  1  0
 13 14  2  0
 13 15  1  0
 15 16  2  0
 16 17  1  0
 17 18  2  0
 18 19  1  0
 18 20  1  0
 20 21  2  0
 12 22  1  0
  6 23  1  0
 23 24  2  0
 24  3  1  0
 22  8  1  0
 21 15  1  0
  1 25  1  0
  1 26  1  0
  1 27  1  0
  4 28  1  0
  5 29  1  0
  7 30  1  0
 11 31  1  0
 11 32  1  0
 16 33  1  0
 17 34  1  0
 20 35  1  0
 21 36  1  0
 23 37  1  0
 24 38  1  0
M  END
$$$$
