
     RDKit          3D

 42 44  0  0  0  0  0  0  0  0999 V2000
    5.8544    0.8389    0.2359 C   0  0  0  0  0  0  0  0  0  0  0  0
    5.0802   -0.2934    0.8931 C   0  0  0  0  0  0  0  0  0  0  0  0
    3.6084   -0.2245    0.5751 C   0  0  0  0  0  0  0  0  0  0  0  0
    2.7396    0.5088    1.3910 C   0  0  0  0  0  0  0  0  0  0  0  0
    1.3785    0.5873    1.0882 C   0  0  0  0  0  0  0  0  0  0  0  0
    0.8574   -0.0648   -0.0405 C   0  0  0  0  0  0  0  0  0  0  0  0
   -0.6318   -0.0032   -0.3818 C   0  0  0  0  0  0  0  0  0  0  0  0
   -1.4748   -0.6476    0.7458 C   0  0  0  0  0  0  0  0  0  0  0  0
   -1.0832   -2.1047    0.9035 C   0  0  0  0  0  0  0  0  0  0  0  0
   -0.8634   -2.6718    1.9636 O   0  0  0  0  0  0  0  0  0  0  0  0
   -1.0671   -2.8090   -0.2460 O   0  0  0  0  0  0  0  0  0  0  0  0
   -2.9606   -0.4595    0.5099 C   0  0  0  0  0  0  0  0  0  0  0  0
   -3.9152   -1.3020    1.1099 C   0  0  0  0  0  0  0  0  0  0  0  0
   -5.2807   -1.0978    0.9034 C   0  0  0  0  0  0  0  0  0  0  0  0
   -5.7159   -0.0393    0.1134 C   0  0  0  0  0  0  0  0  0  0  0  0
   -4.7838    0.8242   -0.4591 C   0  0  0  0  0  0  0  0  0  0  0  0
   -3.4089    0.6253   -0.2578 C   0  0  0  0  0  0  0  0  0  0  0  0
   -2.4584    1.6118   -0.8449 C   0  0  0  0  0  0  0  0  0  0  0  0
   -2.9092    2.6006   -1.4183 O   0  0  0  0  0  0  0  0  0  0  0  0
   -1.0874    1.3659   -0.7060 N   0  0  0  0  0  0  0  0  0  0  0  0
   -0.2040    2.2320   -1.4821 C   0  0  0  0  0  0  0  0  0  0  0  0
    1.7343   -0.7894   -0.8619 C   0  0  0  0  0  0  0  0  0  0  0  0
    3.0953   -0.8667   -0.5575 C   0  0  0  0  0  0  0  0  0  0  0  0
    5.7568    0.8064   -0.8546 H   0  0  0  0  0  0  0  0  0  0  0  0
    5.4949    1.8160    0.5762 H   0  0  0  0  0  0  0  0  0  0  0  0
    6.9179    0.7638    0.4836 H   0  0  0  0  0  0  0  0  0  0  0  0
    5.2248   -0.2596    1.9799 H   0  0  0  0  0  0  0  0  0  0  0  0
    5.4839   -1.2586    0.5638 H   0  0  0  0  0  0  0  0  0  0  0  0
    3.1191    1.0290    2.2681 H   0  0  0  0  0  0  0  0  0  0  0  0
    0.7307    1.1777    1.7335 H   0  0  0  0  0  0  0  0  0  0  0  0
   -0.7962   -0.5637   -1.3140 H   0  0  0  0  0  0  0  0  0  0  0  0
   -1.2534   -0.1515    1.7008 H   0  0  0  0  0  0  0  0  0  0  0  0
   -0.8385   -3.7204    0.0377 H   0  0  0  0  0  0  0  0  0  0  0  0
   -3.6119   -2.1264    1.7537 H   0  0  0  0  0  0  0  0  0  0  0  0
   -6.0057   -1.7623    1.3679 H   0  0  0  0  0  0  0  0  0  0  0  0
   -6.7786    0.1252   -0.0453 H   0  0  0  0  0  0  0  0  0  0  0  0
   -5.1338    1.6644   -1.0567 H   0  0  0  0  0  0  0  0  0  0  0  0
    0.7404    2.3892   -0.9575 H   0  0  0  0  0  0  0  0  0  0  0  0
   -0.6529    3.2163   -1.6453 H   0  0  0  0  0  0  0  0  0  0  0  0
   -0.0216    1.7670   -2.4558 H   0  0  0  0  0  0  0  0  0  0  0  0
    1.3651   -1.3017   -1.7483 H   0  0  0  0  0  0  0  0  0  0  0  0
    3.7553   -1.4318   -1.2124 H   0  0  0  0  0  0  0  0  0  0  0  0
  1  2  1  0
  2  3  1  0
  3  4  2  0
  4  5  1  0
  5  6  2  0
  6  7  1  0
  7  8  1  0
  8  9  1  0
  9 10  2  0
  9 11  1  0
  8 12  1  0
 12 13  2  0
 13 14  1  0
 14 15  2  0
 15 16  1  0
 16 17  2  0
 17 18  1  0
 18 19  2  0
 18 20  1  0
 20 21  1  0
  6 22  1  0
 22 23  2  0
 23  3  1  0
 20  7  1  0
 17 12  1  0
  1 24  1  0
  1 25  1  0
  1 26  1  0
  2 27  1  0
  2 28  1  0
  4 29  1  0
  5 30  1  0
  7 31  1  0
  8 32  1  0
 11 33  1  0
 13 34  1  0
 14 35  1  0
 15 36  1  0
 16 37  1  0
 21 38  1  0
 21 39  1  0
 21 40  1  0
 22 41  1  0
 23 42  1  0
M  END
$$$$
