
     RDKit          3D

 53 55  0  0  0  0  0  0  0  0999 V2000
   -2.1712   -2.7702   -1.2008 O   0  0  0  0  0  0  0  0  0  0  0  0
   -1.8474   -1.7930   -0.5358 C   0  0  0  0  0  0  0  0  0  0  0  0
   -2.6408   -1.2658    0.4522 N   0  0  0  0  0  0  0  0  0  0  0  0
   -3.9785   -1.7883    0.7400 C   0  0  0  0  0  0  0  0  0  0  0  0
   -5.0282   -1.3595   -0.2994 C   0  0  0  0  0  0  0  0  0  0  0  0
   -5.1459    0.1379   -0.4923 C   0  0  0  0  0  0  0  0  0  0  0  0
   -6.0147    0.8976    0.3023 C   0  0  0  0  0  0  0  0  0  0  0  0
   -6.0990    2.2808    0.1341 C   0  0  0  0  0  0  0  0  0  0  0  0
   -5.3197    2.9168   -0.8305 C   0  0  0  0  0  0  0  0  0  0  0  0
   -4.4579    2.1706   -1.6313 C   0  0  0  0  0  0  0  0  0  0  0  0
   -4.3721    0.7881   -1.4645 C   0  0  0  0  0  0  0  0  0  0  0  0
   -4.3653   -1.3606    2.1532 C   0  0  0  0  0  0  0  0  0  0  0  0
   -3.7152   -0.6295    2.8880 O   0  0  0  0  0  0  0  0  0  0  0  0
   -5.5236   -1.8990    2.5846 O   0  0  0  0  0  0  0  0  0  0  0  0
   -0.5358   -1.1257   -0.7647 C   0  0  0  0  0  0  0  0  0  0  0  0
    0.5073   -1.8859   -1.3136 C   0  0  0  0  0  0  0  0  0  0  0  0
    1.7534   -1.3034   -1.5527 C   0  0  0  0  0  0  0  0  0  0  0  0
    1.9515    0.0453   -1.2437 C   0  0  0  0  0  0  0  0  0  0  0  0
    3.5416    0.7745   -1.5571 S   0  0  0  0  0  6  0  0  0  0  0  0
    3.9387    0.3690   -2.8883 O   0  0  0  0  0  0  0  0  0  0  0  0
    3.4854    2.1723   -1.1831 O   0  0  0  0  0  0  0  0  0  0  0  0
    4.5498   -0.0178   -0.4255 N   0  0  0  0  0  0  0  0  0  0  0  0
    4.1726    0.1636    1.0051 C   0  0  0  0  0  0  0  0  0  0  0  0
    5.2676   -0.3754    1.9175 C   0  0  0  0  0  0  0  0  0  0  0  0
    6.5719    0.3981    1.7372 C   0  0  0  0  0  0  0  0  0  0  0  0
    6.7045    0.9890    0.3356 C   0  0  0  0  0  0  0  0  0  0  0  0
    6.0104    0.1223   -0.7060 C   0  0  0  0  0  0  0  0  0  0  0  0
    0.9134    0.8211   -0.7202 C   0  0  0  0  0  0  0  0  0  0  0  0
   -0.3328    0.2340   -0.4827 C   0  0  0  0  0  0  0  0  0  0  0  0
   -2.3135   -0.5147    1.0496 H   0  0  0  0  0  0  0  0  0  0  0  0
   -3.9023   -2.8829    0.7474 H   0  0  0  0  0  0  0  0  0  0  0  0
   -4.7905   -1.8154   -1.2695 H   0  0  0  0  0  0  0  0  0  0  0  0
   -6.0143   -1.7578   -0.0272 H   0  0  0  0  0  0  0  0  0  0  0  0
   -6.6373    0.4190    1.0547 H   0  0  0  0  0  0  0  0  0  0  0  0
   -6.7762    2.8627    0.7539 H   0  0  0  0  0  0  0  0  0  0  0  0
   -5.3891    3.9932   -0.9627 H   0  0  0  0  0  0  0  0  0  0  0  0
   -3.8558    2.6641   -2.3899 H   0  0  0  0  0  0  0  0  0  0  0  0
   -3.6988    0.2173   -2.1016 H   0  0  0  0  0  0  0  0  0  0  0  0
   -5.6163   -1.5650    3.5021 H   0  0  0  0  0  0  0  0  0  0  0  0
    0.3483   -2.9352   -1.5577 H   0  0  0  0  0  0  0  0  0  0  0  0
    2.5592   -1.8970   -1.9800 H   0  0  0  0  0  0  0  0  0  0  0  0
    3.2519   -0.3945    1.2032 H   0  0  0  0  0  0  0  0  0  0  0  0
    3.9894    1.2205    1.2284 H   0  0  0  0  0  0  0  0  0  0  0  0
    5.4414   -1.4351    1.6904 H   0  0  0  0  0  0  0  0  0  0  0  0
    4.9509   -0.3258    2.9653 H   0  0  0  0  0  0  0  0  0  0  0  0
    6.6333    1.2094    2.4722 H   0  0  0  0  0  0  0  0  0  0  0  0
    7.4150   -0.2714    1.9460 H   0  0  0  0  0  0  0  0  0  0  0  0
    6.2641    1.9942    0.3231 H   0  0  0  0  0  0  0  0  0  0  0  0
    7.7648    1.1085    0.0862 H   0  0  0  0  0  0  0  0  0  0  0  0
    6.1876    0.5461   -1.7001 H   0  0  0  0  0  0  0  0  0  0  0  0
    6.4463   -0.8841   -0.7187 H   0  0  0  0  0  0  0  0  0  0  0  0
    1.0607    1.8780   -0.5069 H   0  0  0  0  0  0  0  0  0  0  0  0
   -1.1394    0.8591   -0.1079 H   0  0  0  0  0  0  0  0  0  0  0  0
  1  2  2  0
  2  3  1  0
  3  4  1  0
  4  5  1  0
  5  6  1  0
  6  7  2  0
  7  8  1  0
  8  9  2  0
  9 10  1  0
 10 11  2  0
  4 12  1  0
 12 13  2  0
 12 14  1  0
  2 15  1  0
 15 16  2  0
 16 17  1  0
 17 18  2  0
 18 19  1  0
 19 20  2  0
 19 21  2  0
 19 22  1  0
 22 23  1  0
 23 24  1  0
 24 25  1  0
 25 26  1  0
 26 27  1  0
 18 28  1  0
 28 29  2  0
 11  6  1  0
 29 15  1  0
 27 22  1  0
  3 30  1  0
  4 31  1  0
  5 32  1  0
  5 33  1  0
  7 34  1  0
  8 35  1  0
  9 36  1  0
 10 37  1  0
 11 38  1  0
 14 39  1  0
 16 40  1  0
 17 41  1  0
 23 42  1  0
 23 43  1  0
 24 44  1  0
 24 45  1  0
 25 46  1  0
 25 47  1  0
 26 48  1  0
 26 49  1  0
 27 50  1  0
 27 51  1  0
 28 52  1  0
 29 53  1  0
M  END
$$$$
