
     RDKit          3D

 46 49  0  0  0  0  0  0  0  0999 V2000
    6.3998   -1.5944    1.3071 N   0  0  0  0  0  0  0  0  0  0  0  0
    5.7221   -0.1892    1.9287 S   0  0  0  0  0  6  0  0  0  0  0  0
    6.4475    0.8997    1.3164 O   0  0  0  0  0  0  0  0  0  0  0  0
    5.6675   -0.3747    3.3599 O   0  0  0  0  0  0  0  0  0  0  0  0
    4.0855   -0.2483    1.2668 C   0  0  0  0  0  0  0  0  0  0  0  0
    3.7901    0.4193    0.0799 C   0  0  0  0  0  0  0  0  0  0  0  0
    2.4838    0.3886   -0.4258 C   0  0  0  0  0  0  0  0  0  0  0  0
    1.4495   -0.2938    0.2373 C   0  0  0  0  0  0  0  0  0  0  0  0
    0.1445   -0.3328   -0.2512 N   0  0  0  0  0  0  0  0  0  0  0  0
   -0.8257   -1.0398    0.4003 N   0  0  0  0  0  0  0  0  0  0  0  0
   -1.8735   -1.0518   -0.3663 C   0  0  0  0  0  0  0  0  0  0  0  0
   -3.1460   -1.7087    0.0148 C   0  0  0  0  0  0  0  0  0  0  0  0
   -3.2651   -2.2626    1.2967 C   0  0  0  0  0  0  0  0  0  0  0  0
   -4.4513   -2.8885    1.6885 C   0  0  0  0  0  0  0  0  0  0  0  0
   -5.5192   -2.9616    0.7971 C   0  0  0  0  0  0  0  0  0  0  0  0
   -7.1252   -3.8076    1.3229 Br  0  0  0  0  0  0  0  0  0  0  0  0
   -5.4114   -2.4157   -0.4814 C   0  0  0  0  0  0  0  0  0  0  0  0
   -4.2242   -1.7888   -0.8744 C   0  0  0  0  0  0  0  0  0  0  0  0
   -1.6961   -0.3758   -1.6977 C   0  0  0  0  0  0  0  0  0  0  0  0
   -0.3297    0.2818   -1.4927 C   0  0  0  0  0  0  0  0  0  0  0  0
   -0.4636    1.7971   -1.4064 C   0  0  0  0  0  0  0  0  0  0  0  0
   -0.2583    2.5742   -2.5614 C   0  0  0  0  0  0  0  0  0  0  0  0
   -0.3980    3.9627   -2.5171 C   0  0  0  0  0  0  0  0  0  0  0  0
   -0.7482    4.5800   -1.3228 C   0  0  0  0  0  0  0  0  0  0  0  0
   -0.8830    5.9119   -1.2843 F   0  0  0  0  0  0  0  0  0  0  0  0
   -0.9634    3.8356   -0.1708 C   0  0  0  0  0  0  0  0  0  0  0  0
   -0.8255    2.4472   -0.2123 C   0  0  0  0  0  0  0  0  0  0  0  0
    1.7850   -0.9441    1.4402 C   0  0  0  0  0  0  0  0  0  0  0  0
    3.0842   -0.9236    1.9594 C   0  0  0  0  0  0  0  0  0  0  0  0
    6.6473   -2.2242    2.0705 H   0  0  0  0  0  0  0  0  0  0  0  0
    7.1808   -1.3587    0.6949 H   0  0  0  0  0  0  0  0  0  0  0  0
    4.5604    0.9675   -0.4575 H   0  0  0  0  0  0  0  0  0  0  0  0
    2.2935    0.9237   -1.3513 H   0  0  0  0  0  0  0  0  0  0  0  0
   -2.4352   -2.2096    1.9993 H   0  0  0  0  0  0  0  0  0  0  0  0
   -4.5285   -3.3126    2.6864 H   0  0  0  0  0  0  0  0  0  0  0  0
   -6.2440   -2.4735   -1.1783 H   0  0  0  0  0  0  0  0  0  0  0  0
   -4.1666   -1.3762   -1.8772 H   0  0  0  0  0  0  0  0  0  0  0  0
   -1.6488   -1.1437   -2.4773 H   0  0  0  0  0  0  0  0  0  0  0  0
   -2.5048    0.3275   -1.9140 H   0  0  0  0  0  0  0  0  0  0  0  0
    0.3300    0.0135   -2.3278 H   0  0  0  0  0  0  0  0  0  0  0  0
    0.0147    2.1036   -3.5037 H   0  0  0  0  0  0  0  0  0  0  0  0
   -0.2360    4.5669   -3.4041 H   0  0  0  0  0  0  0  0  0  0  0  0
   -1.2337    4.3371    0.7529 H   0  0  0  0  0  0  0  0  0  0  0  0
   -0.9913    1.8729    0.6986 H   0  0  0  0  0  0  0  0  0  0  0  0
    1.0143   -1.4780    1.9932 H   0  0  0  0  0  0  0  0  0  0  0  0
    3.2956   -1.4325    2.8964 H   0  0  0  0  0  0  0  0  0  0  0  0
  1  2  1  0
  2  3  2  0
  2  4  2  0
  2  5  1  0
  5  6  2  0
  6  7  1  0
  7  8  2  0
  8  9  1  0
  9 10  1  0
 10 11  2  0
 11 12  1  0
 12 13  2  0
 13 14  1  0
 14 15  2  0
 15 16  1  0
 15 17  1  0
 17 18  2  0
 11 19  1  0
 19 20  1  0
 20 21  1  0
 21 22  2  0
 22 23  1  0
 23 24  2  0
 24 25  1  0
 24 26  1  0
 26 27  2  0
  8 28  1  0
 28 29  2  0
 29  5  1  0
 20  9  1  0
 27 21  1  0
 18 12  1  0
  1 30  1  0
  1 31  1  0
  6 32  1  0
  7 33  1  0
 13 34  1  0
 14 35  1  0
 17 36  1  0
 18 37  1  0
 19 38  1  0
 19 39  1  0
 20 40  1  0
 22 41  1  0
 23 42  1  0
 26 43  1  0
 27 44  1  0
 28 45  1  0
 29 46  1  0
M  END
$$$$
