
     RDKit          3D

 52 55  0  0  0  0  0  0  0  0999 V2000
    0.2135    1.1804   -4.7228 C   0  0  0  0  0  0  0  0  0  0  0  0
    1.2884    0.8673   -3.7114 C   0  0  0  0  0  0  0  0  0  0  0  0
    2.4718    0.9545   -4.0152 O   0  0  0  0  0  0  0  0  0  0  0  0
    0.7386    0.5167   -2.4947 N   0  0  0  0  0  0  0  0  0  0  0  0
    1.3947    0.1342   -1.3375 C   0  0  0  0  0  0  0  0  0  0  0  0
    3.0807   -0.0024   -1.2805 S   0  0  0  0  0  0  0  0  0  0  0  0
    3.0492   -0.5663    0.3151 C   0  0  0  0  0  0  0  0  0  0  0  0
    1.7697   -0.6286    0.8332 C   0  0  0  0  0  0  0  0  0  0  0  0
    0.7740   -0.1928   -0.1324 C   0  0  0  0  0  0  0  0  0  0  0  0
   -0.7332   -0.1464    0.1589 C   0  0  0  0  0  0  0  0  0  0  0  0
   -0.9509    1.2332    0.7933 C   0  0  0  0  0  0  0  0  0  0  0  0
   -0.7539    2.4377    0.0921 C   0  0  0  0  0  0  0  0  0  0  0  0
   -0.9756    3.6740    0.7063 C   0  0  0  0  0  0  0  0  0  0  0  0
   -1.4060    3.7238    2.0282 C   0  0  0  0  0  0  0  0  0  0  0  0
   -1.6818    5.2446    2.7832 Cl  0  0  0  0  0  0  0  0  0  0  0  0
   -1.6193    2.5484    2.7417 C   0  0  0  0  0  0  0  0  0  0  0  0
   -1.3959    1.3129    2.1275 C   0  0  0  0  0  0  0  0  0  0  0  0
   -1.5364   -0.3955   -1.0776 N   0  0  0  0  0  0  0  0  0  0  0  0
   -1.4228   -1.8359   -1.4691 C   0  0  0  0  0  0  0  0  0  0  0  0
   -2.5888   -2.7450   -1.0274 C   0  0  0  0  0  0  0  0  0  0  0  0
   -3.1046   -2.3347    0.2388 O   0  0  0  0  0  0  0  0  0  0  0  0
   -3.6685   -1.0177    0.1695 C   0  0  0  0  0  0  0  0  0  0  0  0
   -2.9758   -0.1109   -0.8686 C   0  0  0  0  0  0  0  0  0  0  0  0
    1.5212   -1.1311    2.2288 C   0  0  0  0  0  0  0  0  0  0  0  0
    2.8025   -1.1557    3.0762 C   0  0  0  0  0  0  0  0  0  0  0  0
    3.9856   -1.7459    2.2993 C   0  0  0  0  0  0  0  0  0  0  0  0
    4.3066   -0.9158    1.0489 C   0  0  0  0  0  0  0  0  0  0  0  0
   -0.3196    2.0876   -4.4248 H   0  0  0  0  0  0  0  0  0  0  0  0
   -0.4879    0.3443   -4.7985 H   0  0  0  0  0  0  0  0  0  0  0  0
    0.6681    1.3419   -5.7048 H   0  0  0  0  0  0  0  0  0  0  0  0
   -0.2765    0.4811   -2.4128 H   0  0  0  0  0  0  0  0  0  0  0  0
   -0.9626   -0.9190    0.9046 H   0  0  0  0  0  0  0  0  0  0  0  0
   -0.4194    2.4290   -0.9413 H   0  0  0  0  0  0  0  0  0  0  0  0
   -0.8056    4.5901    0.1470 H   0  0  0  0  0  0  0  0  0  0  0  0
   -1.9558    2.5854    3.7745 H   0  0  0  0  0  0  0  0  0  0  0  0
   -1.5716    0.4060    2.7038 H   0  0  0  0  0  0  0  0  0  0  0  0
   -0.4859   -2.2754   -1.1065 H   0  0  0  0  0  0  0  0  0  0  0  0
   -1.3537   -1.8845   -2.5631 H   0  0  0  0  0  0  0  0  0  0  0  0
   -2.2407   -3.7788   -0.9351 H   0  0  0  0  0  0  0  0  0  0  0  0
   -3.4004   -2.7357   -1.7654 H   0  0  0  0  0  0  0  0  0  0  0  0
   -4.7339   -1.1116   -0.0675 H   0  0  0  0  0  0  0  0  0  0  0  0
   -3.5921   -0.5861    1.1719 H   0  0  0  0  0  0  0  0  0  0  0  0
   -3.4750   -0.2531   -1.8376 H   0  0  0  0  0  0  0  0  0  0  0  0
   -3.1620    0.9423   -0.6318 H   0  0  0  0  0  0  0  0  0  0  0  0
    0.7770   -0.5124    2.7377 H   0  0  0  0  0  0  0  0  0  0  0  0
    1.1122   -2.1468    2.1608 H   0  0  0  0  0  0  0  0  0  0  0  0
    2.6255   -1.7368    3.9881 H   0  0  0  0  0  0  0  0  0  0  0  0
    3.0535   -0.1345    3.3908 H   0  0  0  0  0  0  0  0  0  0  0  0
    4.8710   -1.7944    2.9431 H   0  0  0  0  0  0  0  0  0  0  0  0
    3.7449   -2.7760    2.0065 H   0  0  0  0  0  0  0  0  0  0  0  0
    4.9963   -1.4767    0.4080 H   0  0  0  0  0  0  0  0  0  0  0  0
    4.8115    0.0109    1.3485 H   0  0  0  0  0  0  0  0  0  0  0  0
  1  2  1  0
  2  3  2  0
  2  4  1  0
  4  5  1  0
  5  6  1  0
  6  7  1  0
  7  8  2  0
  8  9  1  0
  9 10  1  0
 10 11  1  0
 11 12  2  0
 12 13  1  0
 13 14  2  0
 14 15  1  0
 14 16  1  0
 16 17  2  0
 10 18  1  0
 18 19  1  0
 19 20  1  0
 20 21  1  0
 21 22  1  0
 22 23  1  0
  8 24  1  0
 24 25  1  0
 25 26  1  0
 26 27  1  0
  9  5  2  0
 17 11  1  0
 23 18  1  0
 27  7  1  0
  1 28  1  0
  1 29  1  0
  1 30  1  0
  4 31  1  0
 10 32  1  0
 12 33  1  0
 13 34  1  0
 16 35  1  0
 17 36  1  0
 19 37  1  0
 19 38  1  0
 20 39  1  0
 20 40  1  0
 22 41  1  0
 22 42  1  0
 23 43  1  0
 23 44  1  0
 24 45  1  0
 24 46  1  0
 25 47  1  0
 25 48  1  0
 26 49  1  0
 26 50  1  0
 27 51  1  0
 27 52  1  0
M  END
$$$$
