
     RDKit          3D

 43 45  0  0  0  0  0  0  0  0999 V2000
   -7.5111   -0.5120    0.1596 C   0  0  0  0  0  0  0  0  0  0  0  0
   -6.4302   -1.0687    0.7222 C   0  0  0  0  0  0  0  0  0  0  0  0
   -5.5730   -0.4029    1.7631 C   0  0  0  0  0  0  0  0  0  0  0  0
   -4.3108   -0.0140    1.1554 N   0  0  0  0  0  0  0  0  0  0  0  0
   -4.1995    1.2777    0.6613 C   0  0  0  0  0  0  0  0  0  0  0  0
   -5.0864    2.1264    0.7265 O   0  0  0  0  0  0  0  0  0  0  0  0
   -3.0118    1.6035    0.0805 N   0  0  0  0  0  0  0  0  0  0  0  0
   -1.9442    0.7335   -0.0358 C   0  0  0  0  0  0  0  0  0  0  0  0
   -0.8297    1.1969   -0.6367 N   0  0  0  0  0  0  0  0  0  0  0  0
    0.2017    0.3301   -0.7424 C   0  0  0  0  0  0  0  0  0  0  0  0
    1.3792    0.7378   -1.3499 C   0  0  0  0  0  0  0  0  0  0  0  0
    2.4833   -0.1129   -1.4623 C   0  0  0  0  0  0  0  0  0  0  0  0
    3.6254    0.3471   -2.1189 N   0  0  0  0  0  0  0  0  0  0  0  0
    4.6393    0.8307   -1.4828 C   0  0  0  0  0  0  0  0  0  0  0  0
    4.9638    1.0862   -0.1606 N   0  0  0  0  0  0  0  0  0  0  0  0
    6.2339    1.7410    0.1386 C   0  0  0  0  0  0  0  0  0  0  0  0
    3.9672    1.1677    0.8954 C   0  0  0  0  0  0  0  0  0  0  0  0
    2.3836   -1.4319   -0.9996 C   0  0  0  0  0  0  0  0  0  0  0  0
    3.5320   -2.3908   -1.1375 C   0  0  0  0  0  0  0  0  0  0  0  0
    1.1968   -1.8458   -0.3766 C   0  0  0  0  0  0  0  0  0  0  0  0
    0.1109   -0.9930   -0.2384 C   0  0  0  0  0  0  0  0  0  0  0  0
   -1.0042   -1.4382    0.3680 N   0  0  0  0  0  0  0  0  0  0  0  0
   -2.0283   -0.5527    0.4556 C   0  0  0  0  0  0  0  0  0  0  0  0
   -3.2892   -0.9689    1.1069 C   0  0  0  0  0  0  0  0  0  0  0  0
   -3.3993   -2.1016    1.5723 O   0  0  0  0  0  0  0  0  0  0  0  0
   -8.0941   -1.0518   -0.5803 H   0  0  0  0  0  0  0  0  0  0  0  0
   -7.8304    0.4950    0.4141 H   0  0  0  0  0  0  0  0  0  0  0  0
   -6.1456   -2.0804    0.4381 H   0  0  0  0  0  0  0  0  0  0  0  0
   -6.0772    0.4729    2.1875 H   0  0  0  0  0  0  0  0  0  0  0  0
   -5.3979   -1.1026    2.5881 H   0  0  0  0  0  0  0  0  0  0  0  0
   -2.9058    2.5360   -0.2941 H   0  0  0  0  0  0  0  0  0  0  0  0
    1.4499    1.7465   -1.7489 H   0  0  0  0  0  0  0  0  0  0  0  0
    5.4789    1.1134   -2.1440 H   0  0  0  0  0  0  0  0  0  0  0  0
    7.0298    1.3800   -0.5220 H   0  0  0  0  0  0  0  0  0  0  0  0
    6.5537    1.5328    1.1652 H   0  0  0  0  0  0  0  0  0  0  0  0
    6.1402    2.8245    0.0128 H   0  0  0  0  0  0  0  0  0  0  0  0
    4.4115    1.4766    1.8485 H   0  0  0  0  0  0  0  0  0  0  0  0
    3.1975    1.9044    0.6461 H   0  0  0  0  0  0  0  0  0  0  0  0
    3.5053    0.1939    1.0746 H   0  0  0  0  0  0  0  0  0  0  0  0
    4.3432   -2.1090   -0.4590 H   0  0  0  0  0  0  0  0  0  0  0  0
    3.2281   -3.4144   -0.8940 H   0  0  0  0  0  0  0  0  0  0  0  0
    3.9051   -2.4013   -2.1667 H   0  0  0  0  0  0  0  0  0  0  0  0
    1.1082   -2.8614    0.0051 H   0  0  0  0  0  0  0  0  0  0  0  0
  1  2  2  0
  2  3  1  0
  3  4  1  0
  4  5  1  0
  5  6  2  0
  5  7  1  0
  7  8  1  0
  8  9  2  0
  9 10  1  0
 10 11  2  0
 11 12  1  0
 12 13  1  0
 13 14  2  3
 14 15  1  0
 15 16  1  0
 15 17  1  0
 12 18  2  0
 18 19  1  0
 18 20  1  0
 20 21  2  0
 21 22  1  0
 22 23  2  0
 23 24  1  0
 24 25  2  0
 24  4  1  0
 23  8  1  0
 21 10  1  0
  1 26  1  0
  1 27  1  0
  2 28  1  0
  3 29  1  0
  3 30  1  0
  7 31  1  0
 11 32  1  0
 14 33  1  0
 16 34  1  0
 16 35  1  0
 16 36  1  0
 17 37  1  0
 17 38  1  0
 17 39  1  0
 19 40  1  0
 19 41  1  0
 19 42  1  0
 20 43  1  0
M  END
$$$$
