
     RDKit          3D

 41 43  0  0  0  0  0  0  0  0999 V2000
   -3.7749    0.0741   -2.0940 O   0  0  0  0  0  0  0  0  0  0  0  0
   -4.3188   -0.1811   -1.0304 C   0  0  0  0  0  0  0  0  0  0  0  0
   -3.7182   -0.3090    0.2084 O   0  0  0  0  0  0  0  0  0  0  0  0
   -2.3330   -0.1094    0.2202 C   0  0  0  0  0  0  0  0  0  0  0  0
   -1.5276   -1.1850    0.5910 C   0  0  0  0  0  0  0  0  0  0  0  0
   -0.1455   -1.0087    0.6682 C   0  0  0  0  0  0  0  0  0  0  0  0
    0.4141    0.2437    0.3876 C   0  0  0  0  0  0  0  0  0  0  0  0
    1.8753    0.4581    0.4656 C   0  0  0  0  0  0  0  0  0  0  0  0
    2.6810   -0.4966    0.8063 N   0  0  0  0  0  0  0  0  0  0  0  0
    4.0268   -0.2457    0.8209 N   0  0  0  0  0  0  0  0  0  0  0  0
    4.7244    0.6433    0.0126 C   0  0  0  0  0  0  0  0  0  0  0  0
    4.2497    1.4686   -0.7611 O   0  0  0  0  0  0  0  0  0  0  0  0
    6.2112    0.5014    0.1468 C   0  0  0  0  0  0  0  0  0  0  0  0
    7.0573    1.3325   -0.5777 C   0  0  0  0  0  0  0  0  0  0  0  0
    8.4303    1.1642   -0.4266 C   0  0  0  0  0  0  0  0  0  0  0  0
    8.9067    0.1799    0.4344 C   0  0  0  0  0  0  0  0  0  0  0  0
    7.9886   -0.6047    1.1161 C   0  0  0  0  0  0  0  0  0  0  0  0
    6.6497   -0.4723    0.9963 N   0  0  0  0  0  0  0  0  0  0  0  0
   -0.4049    1.3222    0.0322 C   0  0  0  0  0  0  0  0  0  0  0  0
   -1.7879    1.1477   -0.0434 C   0  0  0  0  0  0  0  0  0  0  0  0
   -5.7864   -0.4092   -0.9035 C   0  0  0  0  0  0  0  0  0  0  0  0
   -6.4113   -0.6671    0.3258 C   0  0  0  0  0  0  0  0  0  0  0  0
   -7.7939   -0.8721    0.3831 C   0  0  0  0  0  0  0  0  0  0  0  0
   -8.5529   -0.8196   -0.7852 C   0  0  0  0  0  0  0  0  0  0  0  0
  -10.4205   -1.0971   -0.7033 Br  0  0  0  0  0  0  0  0  0  0  0  0
   -7.9446   -0.5637   -2.0123 C   0  0  0  0  0  0  0  0  0  0  0  0
   -6.5633   -0.3586   -2.0709 C   0  0  0  0  0  0  0  0  0  0  0  0
   -1.9666   -2.1526    0.8143 H   0  0  0  0  0  0  0  0  0  0  0  0
    0.4901   -1.8457    0.9472 H   0  0  0  0  0  0  0  0  0  0  0  0
    2.2152    1.4836    0.2479 H   0  0  0  0  0  0  0  0  0  0  0  0
    4.5957   -0.9639    1.2707 H   0  0  0  0  0  0  0  0  0  0  0  0
    6.6577    2.0906   -1.2439 H   0  0  0  0  0  0  0  0  0  0  0  0
    9.1228    1.7953   -0.9773 H   0  0  0  0  0  0  0  0  0  0  0  0
    9.9722    0.0268    0.5706 H   0  0  0  0  0  0  0  0  0  0  0  0
    8.3200   -1.3844    1.7970 H   0  0  0  0  0  0  0  0  0  0  0  0
    0.0232    2.2966   -0.1889 H   0  0  0  0  0  0  0  0  0  0  0  0
   -2.4270    1.9822   -0.3162 H   0  0  0  0  0  0  0  0  0  0  0  0
   -5.8410   -0.7118    1.2507 H   0  0  0  0  0  0  0  0  0  0  0  0
   -8.2669   -1.0713    1.3418 H   0  0  0  0  0  0  0  0  0  0  0  0
   -8.5319   -0.5217   -2.9264 H   0  0  0  0  0  0  0  0  0  0  0  0
   -6.0949   -0.1594   -3.0339 H   0  0  0  0  0  0  0  0  0  0  0  0
  1  2  2  0
  2  3  1  0
  3  4  1  0
  4  5  2  0
  5  6  1  0
  6  7  2  0
  7  8  1  0
  8  9  2  3
  9 10  1  0
 10 11  1  0
 11 12  2  0
 11 13  1  0
 13 14  2  0
 14 15  1  0
 15 16  2  0
 16 17  1  0
 17 18  2  0
  7 19  1  0
 19 20  2  0
  2 21  1  0
 21 22  2  0
 22 23  1  0
 23 24  2  0
 24 25  1  0
 24 26  1  0
 26 27  2  0
 20  4  1  0
 27 21  1  0
 18 13  1  0
  5 28  1  0
  6 29  1  0
  8 30  1  0
 10 31  1  0
 14 32  1  0
 15 33  1  0
 16 34  1  0
 17 35  1  0
 19 36  1  0
 20 37  1  0
 22 38  1  0
 23 39  1  0
 26 40  1  0
 27 41  1  0
M  END
$$$$
