
     RDKit          3D

 44 47  0  0  0  0  0  0  0  0999 V2000
   -7.2404    0.1857   -0.8756 C   0  0  0  0  0  0  0  0  0  0  0  0
   -6.1721    1.0840   -0.2712 C   0  0  0  0  0  0  0  0  0  0  0  0
   -4.8505    0.3724   -0.1395 C   0  0  0  0  0  0  0  0  0  0  0  0
   -3.9204    0.3969   -1.1832 C   0  0  0  0  0  0  0  0  0  0  0  0
   -2.7026   -0.2793   -1.0614 C   0  0  0  0  0  0  0  0  0  0  0  0
   -2.3936   -0.9959    0.1010 C   0  0  0  0  0  0  0  0  0  0  0  0
   -1.1443   -1.6450    0.1379 N   0  0  0  0  0  0  0  0  0  0  0  0
   -0.6060   -2.4051    1.1651 C   0  0  0  0  0  0  0  0  0  0  0  0
   -1.1620   -2.6878    2.2240 O   0  0  0  0  0  0  0  0  0  0  0  0
    0.7859   -2.9552    0.8422 C   0  0  0  0  0  0  0  0  0  0  0  0
    1.7834   -1.8921    0.7459 N   0  0  0  0  0  0  0  0  0  0  0  0
    2.5854   -1.6930    1.8694 N   0  0  0  0  0  0  0  0  0  0  0  0
    3.5033   -0.7730    1.8272 C   0  0  0  0  0  0  0  0  0  0  0  0
    3.7037   -0.0012    0.6910 N   0  0  0  0  0  0  0  0  0  0  0  0
    2.9402   -0.1731   -0.4308 C   0  0  0  0  0  0  0  0  0  0  0  0
    3.3676    0.7243   -1.3843 C   0  0  0  0  0  0  0  0  0  0  0  0
    4.4365    1.4714   -0.8182 C   0  0  0  0  0  0  0  0  0  0  0  0
    5.2569    2.5096   -1.3002 C   0  0  0  0  0  0  0  0  0  0  0  0
    6.2458    3.0470   -0.4700 C   0  0  0  0  0  0  0  0  0  0  0  0
    6.4242    2.5656    0.8236 C   0  0  0  0  0  0  0  0  0  0  0  0
    5.6233    1.5358    1.3267 C   0  0  0  0  0  0  0  0  0  0  0  0
    4.6325    1.0017    0.4859 C   0  0  0  0  0  0  0  0  0  0  0  0
    1.9013   -1.1624   -0.4470 C   0  0  0  0  0  0  0  0  0  0  0  0
    1.1532   -1.3450   -1.4069 O   0  0  0  0  0  0  0  0  0  0  0  0
   -3.3231   -1.0250    1.1397 C   0  0  0  0  0  0  0  0  0  0  0  0
   -4.5430   -0.3487    1.0196 C   0  0  0  0  0  0  0  0  0  0  0  0
   -6.9542   -0.1539   -1.8768 H   0  0  0  0  0  0  0  0  0  0  0  0
   -8.1876    0.7279   -0.9593 H   0  0  0  0  0  0  0  0  0  0  0  0
   -7.4108   -0.7013   -0.2561 H   0  0  0  0  0  0  0  0  0  0  0  0
   -6.0480    1.9807   -0.8906 H   0  0  0  0  0  0  0  0  0  0  0  0
   -6.4998    1.4390    0.7135 H   0  0  0  0  0  0  0  0  0  0  0  0
   -4.1365    0.9417   -2.0993 H   0  0  0  0  0  0  0  0  0  0  0  0
   -1.9997   -0.2375   -1.8901 H   0  0  0  0  0  0  0  0  0  0  0  0
   -0.5628   -1.5309   -0.6930 H   0  0  0  0  0  0  0  0  0  0  0  0
    0.7384   -3.5049   -0.1047 H   0  0  0  0  0  0  0  0  0  0  0  0
    1.0845   -3.6601    1.6260 H   0  0  0  0  0  0  0  0  0  0  0  0
    4.1425   -0.5979    2.7061 H   0  0  0  0  0  0  0  0  0  0  0  0
    2.9547    0.8310   -2.3799 H   0  0  0  0  0  0  0  0  0  0  0  0
    5.1251    2.8929   -2.3084 H   0  0  0  0  0  0  0  0  0  0  0  0
    6.8798    3.8491   -0.8409 H   0  0  0  0  0  0  0  0  0  0  0  0
    7.1989    2.9980    1.4538 H   0  0  0  0  0  0  0  0  0  0  0  0
    5.7753    1.1729    2.3386 H   0  0  0  0  0  0  0  0  0  0  0  0
   -3.1333   -1.5662    2.0609 H   0  0  0  0  0  0  0  0  0  0  0  0
   -5.2515   -0.3927    1.8440 H   0  0  0  0  0  0  0  0  0  0  0  0
  1  2  1  0
  2  3  1  0
  3  4  2  0
  4  5  1  0
  5  6  2  0
  6  7  1  0
  7  8  1  0
  8  9  2  0
  8 10  1  0
 10 11  1  0
 11 12  1  0
 12 13  2  0
 13 14  1  0
 14 15  1  0
 15 16  2  0
 16 17  1  0
 17 18  2  0
 18 19  1  0
 19 20  2  0
 20 21  1  0
 21 22  2  0
 15 23  1  0
 23 24  2  0
  6 25  1  0
 25 26  2  0
 26  3  1  0
 23 11  1  0
 22 14  1  0
 22 17  1  0
  1 27  1  0
  1 28  1  0
  1 29  1  0
  2 30  1  0
  2 31  1  0
  4 32  1  0
  5 33  1  0
  7 34  1  0
 10 35  1  0
 10 36  1  0
 13 37  1  0
 16 38  1  0
 18 39  1  0
 19 40  1  0
 20 41  1  0
 21 42  1  0
 25 43  1  0
 26 44  1  0
M  END
$$$$
