
     RDKit          3D

 35 37  0  0  0  0  0  0  0  0999 V2000
   -2.1470   -2.6877   -0.4197 C   0  0  0  0  0  0  0  0  0  0  0  0
   -1.2530   -1.5061   -0.2485 C   0  0  0  0  0  0  0  0  0  0  0  0
    0.0429   -1.6162   -0.1116 N   0  0  0  0  0  0  0  0  0  0  0  0
    0.5300   -0.3219   -0.0380 N   0  0  0  0  0  0  0  0  0  0  0  0
    1.8763   -0.0567    0.0934 C   0  0  0  0  0  0  0  0  0  0  0  0
    2.8633   -0.9269    0.1802 N   0  0  0  0  0  0  0  0  0  0  0  0
    4.0103   -0.1816    0.2974 C   0  0  0  0  0  0  0  0  0  0  0  0
    5.3431   -0.5993    0.4213 C   0  0  0  0  0  0  0  0  0  0  0  0
    6.3451    0.3741    0.5268 C   0  0  0  0  0  0  0  0  0  0  0  0
    6.0262    1.7347    0.5091 C   0  0  0  0  0  0  0  0  0  0  0  0
    4.7015    2.1706    0.3861 C   0  0  0  0  0  0  0  0  0  0  0  0
    3.7249    1.1783    0.2830 C   0  0  0  0  0  0  0  0  0  0  0  0
    2.3631    1.2292    0.1525 N   0  0  0  0  0  0  0  0  0  0  0  0
   -0.4390    0.6775   -0.1264 C   0  0  0  0  0  0  0  0  0  0  0  0
   -0.3223    1.8917   -0.1079 O   0  0  0  0  0  0  0  0  0  0  0  0
   -1.6943   -0.1014   -0.2324 C   0  0  0  0  0  0  0  0  0  0  0  0
   -2.8946    0.4829   -0.3042 C   0  0  0  0  0  0  0  0  0  0  0  0
   -4.1771   -0.0598   -0.3363 N   0  0  0  0  0  0  0  0  0  0  0  0
   -4.6678   -0.8232    0.8228 C   0  0  0  0  0  0  0  0  0  0  0  0
   -5.2514    0.7145   -0.9790 C   0  0  0  0  0  0  0  0  0  0  0  0
   -2.4661   -3.0491    0.5608 H   0  0  0  0  0  0  0  0  0  0  0  0
   -3.0180   -2.4415   -1.0296 H   0  0  0  0  0  0  0  0  0  0  0  0
   -1.5972   -3.4894   -0.9222 H   0  0  0  0  0  0  0  0  0  0  0  0
    5.5816   -1.6568    0.4340 H   0  0  0  0  0  0  0  0  0  0  0  0
    7.3828    0.0637    0.6232 H   0  0  0  0  0  0  0  0  0  0  0  0
    6.8236    2.4705    0.5924 H   0  0  0  0  0  0  0  0  0  0  0  0
    4.4538    3.2263    0.3721 H   0  0  0  0  0  0  0  0  0  0  0  0
    1.7882    2.0599    0.1038 H   0  0  0  0  0  0  0  0  0  0  0  0
   -2.9253    1.5728   -0.3685 H   0  0  0  0  0  0  0  0  0  0  0  0
   -5.1513   -0.1540    1.5434 H   0  0  0  0  0  0  0  0  0  0  0  0
   -5.3961   -1.5731    0.4971 H   0  0  0  0  0  0  0  0  0  0  0  0
   -3.8604   -1.3426    1.3462 H   0  0  0  0  0  0  0  0  0  0  0  0
   -6.1280    0.0824   -1.1564 H   0  0  0  0  0  0  0  0  0  0  0  0
   -5.5485    1.5608   -0.3501 H   0  0  0  0  0  0  0  0  0  0  0  0
   -4.9192    1.0974   -1.9502 H   0  0  0  0  0  0  0  0  0  0  0  0
  1  2  1  0
  2  3  2  0
  3  4  1  0
  4  5  1  0
  5  6  2  0
  6  7  1  0
  7  8  2  0
  8  9  1  0
  9 10  2  0
 10 11  1  0
 11 12  2  0
 12 13  1  0
  4 14  1  0
 14 15  2  0
 14 16  1  0
 16 17  2  3
 17 18  1  0
 18 19  1  0
 18 20  1  0
 16  2  1  0
 13  5  1  0
 12  7  1  0
  1 21  1  0
  1 22  1  0
  1 23  1  0
  8 24  1  0
  9 25  1  0
 10 26  1  0
 11 27  1  0
 13 28  1  0
 17 29  1  0
 19 30  1  0
 19 31  1  0
 19 32  1  0
 20 33  1  0
 20 34  1  0
 20 35  1  0
M  END
$$$$
