
     RDKit          3D

 49 52  0  0  0  0  0  0  0  0999 V2000
   -3.5653    3.6657    1.6412 C   0  0  0  0  0  0  0  0  0  0  0  0
   -3.1725    2.2128    1.8242 C   0  0  0  0  0  0  0  0  0  0  0  0
   -2.3971    1.7662    0.7033 O   0  0  0  0  0  0  0  0  0  0  0  0
   -3.1005    1.2762   -0.3533 C   0  0  0  0  0  0  0  0  0  0  0  0
   -4.3223    1.2514   -0.4340 O   0  0  0  0  0  0  0  0  0  0  0  0
   -2.1807    0.8459   -1.4738 C   0  0  0  0  0  0  0  0  0  0  0  0
   -1.0072   -0.0091   -1.0368 C   0  0  0  0  0  0  0  0  0  0  0  0
    0.2167    0.6915   -0.9366 C   0  0  0  0  0  0  0  0  0  0  0  0
    1.3690    0.0411   -0.5415 C   0  0  0  0  0  0  0  0  0  0  0  0
    2.6864    0.7022   -0.4125 C   0  0  0  0  0  0  0  0  0  0  0  0
    3.0384    1.8404   -1.1570 C   0  0  0  0  0  0  0  0  0  0  0  0
    4.2919    2.4494   -1.0102 C   0  0  0  0  0  0  0  0  0  0  0  0
    5.2348    1.9367   -0.1210 C   0  0  0  0  0  0  0  0  0  0  0  0
    6.4144    2.6259   -0.0734 O   0  0  0  0  0  0  0  0  0  0  0  0
    7.4353    2.0878    0.7596 C   0  0  0  0  0  0  0  0  0  0  0  0
    4.9126    0.8059    0.6224 C   0  0  0  0  0  0  0  0  0  0  0  0
    3.6570    0.1997    0.4734 C   0  0  0  0  0  0  0  0  0  0  0  0
    1.3332   -1.2668   -0.2322 N   0  0  0  0  0  0  0  0  0  0  0  0
    0.1833   -1.9489   -0.3143 C   0  0  0  0  0  0  0  0  0  0  0  0
    0.3079   -3.2751    0.0333 C   0  0  0  0  0  0  0  0  0  0  0  0
   -0.7681   -4.1480    0.0139 C   0  0  0  0  0  0  0  0  0  0  0  0
   -2.0263   -3.7028   -0.3650 C   0  0  0  0  0  0  0  0  0  0  0  0
   -3.0747   -4.6400   -0.3659 C   0  0  0  0  0  0  0  0  0  0  0  0
   -4.3623   -4.2780   -0.7337 C   0  0  0  0  0  0  0  0  0  0  0  0
   -4.6072   -2.9701   -1.1030 C   0  0  0  0  0  0  0  0  0  0  0  0
   -3.5637   -2.0337   -1.1021 C   0  0  0  0  0  0  0  0  0  0  0  0
   -2.2242   -2.3426   -0.7366 C   0  0  0  0  0  0  0  0  0  0  0  0
   -1.0721   -1.4141   -0.7126 C   0  0  0  0  0  0  0  0  0  0  0  0
   -4.0970    4.0359    2.5228 H   0  0  0  0  0  0  0  0  0  0  0  0
   -4.2091    3.7898    0.7654 H   0  0  0  0  0  0  0  0  0  0  0  0
   -2.6779    4.2869    1.4762 H   0  0  0  0  0  0  0  0  0  0  0  0
   -4.0513    1.5762    1.9794 H   0  0  0  0  0  0  0  0  0  0  0  0
   -2.5398    2.1095    2.7117 H   0  0  0  0  0  0  0  0  0  0  0  0
   -2.7340    0.3475   -2.2731 H   0  0  0  0  0  0  0  0  0  0  0  0
   -1.8271    1.7723   -1.9472 H   0  0  0  0  0  0  0  0  0  0  0  0
    0.2470    1.7567   -1.1461 H   0  0  0  0  0  0  0  0  0  0  0  0
    2.3515    2.2680   -1.8819 H   0  0  0  0  0  0  0  0  0  0  0  0
    4.5354    3.3286   -1.6037 H   0  0  0  0  0  0  0  0  0  0  0  0
    7.1281    2.0841    1.8118 H   0  0  0  0  0  0  0  0  0  0  0  0
    7.7260    1.0847    0.4277 H   0  0  0  0  0  0  0  0  0  0  0  0
    8.3129    2.7349    0.6724 H   0  0  0  0  0  0  0  0  0  0  0  0
    5.6073    0.3656    1.3298 H   0  0  0  0  0  0  0  0  0  0  0  0
    3.4335   -0.6850    1.0683 H   0  0  0  0  0  0  0  0  0  0  0  0
    1.2842   -3.6527    0.3329 H   0  0  0  0  0  0  0  0  0  0  0  0
   -0.5991   -5.1841    0.2998 H   0  0  0  0  0  0  0  0  0  0  0  0
   -2.8928   -5.6742   -0.0760 H   0  0  0  0  0  0  0  0  0  0  0  0
   -5.1637   -5.0109   -0.7305 H   0  0  0  0  0  0  0  0  0  0  0  0
   -5.6091   -2.6615   -1.3937 H   0  0  0  0  0  0  0  0  0  0  0  0
   -3.8618   -1.0421   -1.4052 H   0  0  0  0  0  0  0  0  0  0  0  0
  1  2  1  0
  2  3  1  0
  3  4  1  0
  4  5  2  0
  4  6  1  0
  6  7  1  0
  7  8  2  0
  8  9  1  0
  9 10  1  0
 10 11  2  0
 11 12  1  0
 12 13  2  0
 13 14  1  0
 14 15  1  0
 13 16  1  0
 16 17  2  0
  9 18  2  0
 18 19  1  0
 19 20  2  0
 20 21  1  0
 21 22  2  0
 22 23  1  0
 23 24  2  0
 24 25  1  0
 25 26  2  0
 26 27  1  0
 27 28  2  0
 28  7  1  0
 17 10  1  0
 28 19  1  0
 27 22  1  0
  1 29  1  0
  1 30  1  0
  1 31  1  0
  2 32  1  0
  2 33  1  0
  6 34  1  0
  6 35  1  0
  8 36  1  0
 11 37  1  0
 12 38  1  0
 15 39  1  0
 15 40  1  0
 15 41  1  0
 16 42  1  0
 17 43  1  0
 20 44  1  0
 21 45  1  0
 23 46  1  0
 24 47  1  0
 25 48  1  0
 26 49  1  0
M  END
$$$$
