
     RDKit          3D

 42 45  0  0  0  0  0  0  0  0999 V2000
    6.1603    0.6623   -0.5891 C   0  0  0  0  0  0  0  0  0  0  0  0
    5.6214    0.0981    0.6386 N   0  0  0  0  0  0  0  0  0  0  0  0
    5.4472    1.0247    1.7461 C   0  0  0  0  0  0  0  0  0  0  0  0
    5.0836   -1.1874    0.7447 C   0  0  0  0  0  0  0  0  0  0  0  0
    4.6295   -1.6060    1.8127 O   0  0  0  0  0  0  0  0  0  0  0  0
    5.1339   -2.0598   -0.5100 C   0  0  0  0  0  0  0  0  0  0  0  0
    3.9464   -3.4340   -0.4537 S   0  0  0  0  0  0  0  0  0  0  0  0
    2.4429   -2.5355   -0.4337 C   0  0  0  0  0  0  0  0  0  0  0  0
    2.3679   -1.3093   -0.8985 N   0  0  0  0  0  0  0  0  0  0  0  0
    1.0736   -0.8424   -0.7576 C   0  0  0  0  0  0  0  0  0  0  0  0
    0.6081    0.4293   -1.1223 C   0  0  0  0  0  0  0  0  0  0  0  0
   -0.7429    0.7638   -0.9258 C   0  0  0  0  0  0  0  0  0  0  0  0
   -1.6671   -0.1352   -0.3725 C   0  0  0  0  0  0  0  0  0  0  0  0
   -3.0440    0.2257   -0.1934 N   0  0  0  0  0  0  0  0  0  0  0  0
   -4.0320   -0.6195    0.2780 C   0  0  0  0  0  0  0  0  0  0  0  0
   -4.0091   -1.7822    0.6420 O   0  0  0  0  0  0  0  0  0  0  0  0
   -5.2811    0.1340    0.2884 C   0  0  0  0  0  0  0  0  0  0  0  0
   -6.5558   -0.2515    0.6594 C   0  0  0  0  0  0  0  0  0  0  0  0
   -7.5723    0.7032    0.5554 C   0  0  0  0  0  0  0  0  0  0  0  0
   -7.2936    2.0034    0.0911 C   0  0  0  0  0  0  0  0  0  0  0  0
   -5.9946    2.3665   -0.2762 C   0  0  0  0  0  0  0  0  0  0  0  0
   -5.0091    1.4026   -0.1654 C   0  0  0  0  0  0  0  0  0  0  0  0
   -3.5838    1.4688   -0.4681 C   0  0  0  0  0  0  0  0  0  0  0  0
   -3.0875    2.5033   -0.8738 O   0  0  0  0  0  0  0  0  0  0  0  0
   -1.1918   -1.4089   -0.0059 C   0  0  0  0  0  0  0  0  0  0  0  0
    0.1654   -1.7402   -0.2030 C   0  0  0  0  0  0  0  0  0  0  0  0
    0.9863   -3.2115    0.1551 S   0  0  0  0  0  0  0  0  0  0  0  0
    6.9112    1.4207   -0.3472 H   0  0  0  0  0  0  0  0  0  0  0  0
    6.6345   -0.1050   -1.2048 H   0  0  0  0  0  0  0  0  0  0  0  0
    5.3404    1.1261   -1.1483 H   0  0  0  0  0  0  0  0  0  0  0  0
    4.9905    0.5538    2.6193 H   0  0  0  0  0  0  0  0  0  0  0  0
    6.4275    1.4181    2.0315 H   0  0  0  0  0  0  0  0  0  0  0  0
    4.8066    1.8477    1.4175 H   0  0  0  0  0  0  0  0  0  0  0  0
    6.1422   -2.4778   -0.5896 H   0  0  0  0  0  0  0  0  0  0  0  0
    4.9266   -1.4754   -1.4096 H   0  0  0  0  0  0  0  0  0  0  0  0
    1.2941    1.1498   -1.5569 H   0  0  0  0  0  0  0  0  0  0  0  0
   -1.0305    1.7637   -1.2374 H   0  0  0  0  0  0  0  0  0  0  0  0
   -6.7555   -1.2569    1.0151 H   0  0  0  0  0  0  0  0  0  0  0  0
   -8.5910    0.4411    0.8355 H   0  0  0  0  0  0  0  0  0  0  0  0
   -8.1002    2.7311    0.0173 H   0  0  0  0  0  0  0  0  0  0  0  0
   -5.7656    3.3644   -0.6351 H   0  0  0  0  0  0  0  0  0  0  0  0
   -1.8328   -2.1635    0.4356 H   0  0  0  0  0  0  0  0  0  0  0  0
  1  2  1  0
  2  3  1  0
  2  4  1  0
  4  5  2  0
  4  6  1  0
  6  7  1  0
  7  8  1  0
  8  9  2  0
  9 10  1  0
 10 11  2  0
 11 12  1  0
 12 13  2  0
 13 14  1  0
 14 15  1  0
 15 16  2  0
 15 17  1  0
 17 18  2  0
 18 19  1  0
 19 20  2  0
 20 21  1  0
 21 22  2  0
 22 23  1  0
 23 24  2  0
 13 25  1  0
 25 26  2  0
 26 27  1  0
 27  8  1  0
 26 10  1  0
 23 14  1  0
 22 17  1  0
  1 28  1  0
  1 29  1  0
  1 30  1  0
  3 31  1  0
  3 32  1  0
  3 33  1  0
  6 34  1  0
  6 35  1  0
 11 36  1  0
 12 37  1  0
 18 38  1  0
 19 39  1  0
 20 40  1  0
 21 41  1  0
 25 42  1  0
M  END
$$$$
