
     RDKit          3D

 42 45  0  0  0  0  0  0  0  0999 V2000
    4.8679   -1.4349   -1.3643 O   0  0  0  0  0  0  0  0  0  0  0  0
    5.8093   -0.6863   -1.5611 C   0  0  0  0  0  0  0  0  0  0  0  0
    6.8178   -1.0484   -2.3755 O   0  0  0  0  0  0  0  0  0  0  0  0
    6.0356    0.6623   -0.9461 C   0  0  0  0  0  0  0  0  0  0  0  0
    4.7246    1.2709   -0.4401 C   0  0  0  0  0  0  0  0  0  0  0  0
    4.9123    2.7379   -0.0557 C   0  0  0  0  0  0  0  0  0  0  0  0
    5.5959    3.5497   -0.6609 O   0  0  0  0  0  0  0  0  0  0  0  0
    4.2020    3.1332    1.0207 O   0  0  0  0  0  0  0  0  0  0  0  0
    3.9915    0.5151    0.6032 N   0  0  0  0  0  0  0  0  0  0  0  0
    2.6337    0.3023    0.3932 C   0  0  0  0  0  0  0  0  0  0  0  0
    1.9973    0.7562   -0.5476 O   0  0  0  0  0  0  0  0  0  0  0  0
    2.0407   -0.5017    1.4989 C   0  0  0  0  0  0  0  0  0  0  0  0
    0.8057   -1.0037    1.6367 C   0  0  0  0  0  0  0  0  0  0  0  0
   -0.2522   -0.9377    0.6913 C   0  0  0  0  0  0  0  0  0  0  0  0
   -0.2700   -1.0503   -0.6916 C   0  0  0  0  0  0  0  0  0  0  0  0
   -1.6141   -0.9486   -1.1202 C   0  0  0  0  0  0  0  0  0  0  0  0
   -2.3909   -0.8012    0.0120 C   0  0  0  0  0  0  0  0  0  0  0  0
   -3.8197   -0.6645    0.0941 C   0  0  0  0  0  0  0  0  0  0  0  0
   -4.5894   -0.6783   -0.9740 N   0  0  0  0  0  0  0  0  0  0  0  0
   -5.9142   -0.5278   -0.6001 C   0  0  0  0  0  0  0  0  0  0  0  0
   -7.0204   -0.4944   -1.4734 C   0  0  0  0  0  0  0  0  0  0  0  0
   -8.3108   -0.3363   -0.9571 C   0  0  0  0  0  0  0  0  0  0  0  0
   -8.5105   -0.2117    0.4142 C   0  0  0  0  0  0  0  0  0  0  0  0
   -7.4303   -0.2417    1.3018 C   0  0  0  0  0  0  0  0  0  0  0  0
   -6.1388   -0.4008    0.7720 C   0  0  0  0  0  0  0  0  0  0  0  0
   -4.6286   -0.4752    1.5941 S   0  0  0  0  0  0  0  0  0  0  0  0
   -1.5609   -0.8137    1.1023 O   0  0  0  0  0  0  0  0  0  0  0  0
    3.2293   -0.7142    2.7366 S   0  0  0  0  0  0  0  0  0  0  0  0
    4.4796    0.1273    1.8324 C   0  0  0  0  0  0  0  0  0  0  0  0
    5.9909    0.3725    2.4955 S   0  0  0  0  0  0  0  0  0  0  0  0
    6.5767   -1.9432   -2.6969 H   0  0  0  0  0  0  0  0  0  0  0  0
    6.4466    1.3135   -1.7286 H   0  0  0  0  0  0  0  0  0  0  0  0
    6.8033    0.5738   -0.1772 H   0  0  0  0  0  0  0  0  0  0  0  0
    4.0667    1.3254   -1.3185 H   0  0  0  0  0  0  0  0  0  0  0  0
    4.3995    4.0906    1.1091 H   0  0  0  0  0  0  0  0  0  0  0  0
    0.5440   -1.5062    2.5657 H   0  0  0  0  0  0  0  0  0  0  0  0
    0.5932   -1.1903   -1.3284 H   0  0  0  0  0  0  0  0  0  0  0  0
   -1.9852   -0.9839   -2.1357 H   0  0  0  0  0  0  0  0  0  0  0  0
   -6.8602   -0.5917   -2.5426 H   0  0  0  0  0  0  0  0  0  0  0  0
   -9.1611   -0.3109   -1.6347 H   0  0  0  0  0  0  0  0  0  0  0  0
   -9.5194   -0.0891    0.8028 H   0  0  0  0  0  0  0  0  0  0  0  0
   -7.5872   -0.1442    2.3717 H   0  0  0  0  0  0  0  0  0  0  0  0
  1  2  2  0
  2  3  1  0
  2  4  1  0
  4  5  1  0
  5  6  1  0
  6  7  2  0
  6  8  1  0
  5  9  1  0
  9 10  1  0
 10 11  2  0
 10 12  1  0
 12 13  2  3
 13 14  1  0
 14 15  2  0
 15 16  1  0
 16 17  2  0
 17 18  1  0
 18 19  2  0
 19 20  1  0
 20 21  2  0
 21 22  1  0
 22 23  2  0
 23 24  1  0
 24 25  2  0
 25 26  1  0
 17 27  1  0
 12 28  1  0
 28 29  1  0
 29 30  2  0
 29  9  1  0
 27 14  1  0
 26 18  1  0
 25 20  1  0
  3 31  1  0
  4 32  1  0
  4 33  1  0
  5 34  1  0
  8 35  1  0
 13 36  1  0
 15 37  1  0
 16 38  1  0
 21 39  1  0
 22 40  1  0
 23 41  1  0
 24 42  1  0
M  END
$$$$
