
     RDKit          3D

 42 46  0  0  0  0  0  0  0  0999 V2000
   -3.0924    1.3424   -2.0795 O   0  0  0  0  0  0  0  0  0  0  0  0
   -2.2789    0.8078   -1.3170 C   0  0  0  0  0  0  0  0  0  0  0  0
   -2.5219   -0.6126   -0.9305 C   0  0  0  0  0  0  0  0  0  0  0  0
   -3.1471   -1.4529   -1.8624 C   0  0  0  0  0  0  0  0  0  0  0  0
   -3.4144   -2.7853   -1.5426 C   0  0  0  0  0  0  0  0  0  0  0  0
   -3.0683   -3.2824   -0.2873 C   0  0  0  0  0  0  0  0  0  0  0  0
   -2.4617   -2.4479    0.6509 C   0  0  0  0  0  0  0  0  0  0  0  0
   -2.1936   -1.1136    0.3344 C   0  0  0  0  0  0  0  0  0  0  0  0
   -1.1217    1.6065   -0.6922 C   0  0  0  0  0  0  0  0  0  0  0  0
   -1.6644    2.1932    0.5101 O   0  0  0  0  0  0  0  0  0  0  0  0
   -0.8050    2.5058    1.5299 C   0  0  0  0  0  0  0  0  0  0  0  0
   -1.3775    3.1306    2.6376 C   0  0  0  0  0  0  0  0  0  0  0  0
   -0.5867    3.4749    3.7334 C   0  0  0  0  0  0  0  0  0  0  0  0
    0.7789    3.1958    3.7217 C   0  0  0  0  0  0  0  0  0  0  0  0
    1.3558    2.5684    2.6163 C   0  0  0  0  0  0  0  0  0  0  0  0
    0.5641    2.2071    1.5183 C   0  0  0  0  0  0  0  0  0  0  0  0
    1.1344    1.5731    0.2966 C   0  0  0  0  0  0  0  0  0  0  0  0
    2.1901    0.4920    0.4380 C   0  0  0  0  0  0  0  0  0  0  0  0
    1.8044   -0.3423   -0.7635 C   0  0  0  0  0  0  0  0  0  0  0  0
    2.6546   -1.3474   -1.3534 C   0  0  0  0  0  0  0  0  0  0  0  0
    2.3763   -2.1474   -2.4466 C   0  0  0  0  0  0  0  0  0  0  0  0
    3.4423   -3.0392   -2.7598 C   0  0  0  0  0  0  0  0  0  0  0  0
    4.5016   -2.8948   -1.8933 C   0  0  0  0  0  0  0  0  0  0  0  0
    4.2042   -1.6935   -0.7144 S   0  0  0  0  0  0  0  0  0  0  0  0
    0.6058   -0.0989   -1.2216 N   0  0  0  0  0  0  0  0  0  0  0  0
    0.0868    0.8661   -0.3994 N   0  0  0  0  0  0  0  0  0  0  0  0
   -3.4265   -1.0697   -2.8417 H   0  0  0  0  0  0  0  0  0  0  0  0
   -3.8953   -3.4318   -2.2721 H   0  0  0  0  0  0  0  0  0  0  0  0
   -3.2771   -4.3196   -0.0374 H   0  0  0  0  0  0  0  0  0  0  0  0
   -2.2000   -2.8341    1.6327 H   0  0  0  0  0  0  0  0  0  0  0  0
   -1.7348   -0.4815    1.0887 H   0  0  0  0  0  0  0  0  0  0  0  0
   -0.8579    2.4106   -1.3907 H   0  0  0  0  0  0  0  0  0  0  0  0
   -2.4421    3.3499    2.6461 H   0  0  0  0  0  0  0  0  0  0  0  0
   -1.0365    3.9634    4.5940 H   0  0  0  0  0  0  0  0  0  0  0  0
    1.3949    3.4712    4.5744 H   0  0  0  0  0  0  0  0  0  0  0  0
    2.4249    2.3697    2.6216 H   0  0  0  0  0  0  0  0  0  0  0  0
    1.4994    2.3646   -0.3736 H   0  0  0  0  0  0  0  0  0  0  0  0
    3.2032    0.8955    0.3772 H   0  0  0  0  0  0  0  0  0  0  0  0
    2.0740   -0.1122    1.3441 H   0  0  0  0  0  0  0  0  0  0  0  0
    1.4421   -2.0924   -2.9951 H   0  0  0  0  0  0  0  0  0  0  0  0
    3.4296   -3.7501   -3.5770 H   0  0  0  0  0  0  0  0  0  0  0  0
    5.4364   -3.4389   -1.8940 H   0  0  0  0  0  0  0  0  0  0  0  0
  1  2  2  0
  2  3  1  0
  3  4  2  0
  4  5  1  0
  5  6  2  0
  6  7  1  0
  7  8  2  0
  2  9  1  0
  9 10  1  0
 10 11  1  0
 11 12  2  0
 12 13  1  0
 13 14  2  0
 14 15  1  0
 15 16  2  0
 16 17  1  0
 17 18  1  0
 18 19  1  0
 19 20  1  0
 20 21  2  0
 21 22  1  0
 22 23  2  0
 23 24  1  0
 19 25  2  0
 25 26  1  0
  8  3  1  0
 26  9  1  0
 16 11  1  0
 26 17  1  0
 24 20  1  0
  4 27  1  0
  5 28  1  0
  6 29  1  0
  7 30  1  0
  8 31  1  0
  9 32  1  0
 12 33  1  0
 13 34  1  0
 14 35  1  0
 15 36  1  0
 17 37  1  0
 18 38  1  0
 18 39  1  0
 21 40  1  0
 22 41  1  0
 23 42  1  0
M  END
$$$$
