
     RDKit          3D

 37 39  0  0  0  0  0  0  0  0999 V2000
   -3.0363   -1.2512   -2.8735 O   0  0  0  0  0  0  0  0  0  0  0  0
   -1.8776   -1.1552   -2.5030 C   0  0  0  0  0  0  0  0  0  0  0  0
   -1.0992   -2.2515   -2.4391 O   0  0  0  0  0  0  0  0  0  0  0  0
   -1.1613    0.1202   -2.1747 C   0  0  0  0  0  0  0  0  0  0  0  0
   -0.3497    0.0434   -0.8716 C   0  0  0  0  0  0  0  0  0  0  0  0
   -1.2831   -0.0099    0.3365 C   0  0  0  0  0  0  0  0  0  0  0  0
   -1.8149   -1.2285    0.7840 C   0  0  0  0  0  0  0  0  0  0  0  0
   -2.7200   -1.2590    1.8456 C   0  0  0  0  0  0  0  0  0  0  0  0
   -3.1043   -0.0750    2.4709 C   0  0  0  0  0  0  0  0  0  0  0  0
   -2.5721    1.1418    2.0489 C   0  0  0  0  0  0  0  0  0  0  0  0
   -1.6509    1.1756    0.9967 C   0  0  0  0  0  0  0  0  0  0  0  0
   -1.0199    2.4644    0.5494 C   0  0  0  0  0  0  0  0  0  0  0  0
    0.4501    2.1981    0.2335 C   0  0  0  0  0  0  0  0  0  0  0  0
    0.5920    1.2139   -0.8647 N   0  0  0  0  0  0  0  0  0  0  0  0
    2.1709    0.9038   -1.4082 S   0  0  0  0  0  6  0  0  0  0  0  0
    2.9154    2.1441   -1.4073 O   0  0  0  0  0  0  0  0  0  0  0  0
    2.0695    0.0910   -2.6029 O   0  0  0  0  0  0  0  0  0  0  0  0
    2.9743   -0.1722   -0.2290 C   0  0  0  0  0  0  0  0  0  0  0  0
    3.1703   -1.5421   -0.2285 C   0  0  0  0  0  0  0  0  0  0  0  0
    3.8625   -1.9942    0.9312 C   0  0  0  0  0  0  0  0  0  0  0  0
    4.1772   -0.9546    1.7773 C   0  0  0  0  0  0  0  0  0  0  0  0
    3.6411    0.5520    1.1701 S   0  0  0  0  0  0  0  0  0  0  0  0
   -1.6795   -2.9679   -2.7762 H   0  0  0  0  0  0  0  0  0  0  0  0
   -1.9083    0.9218   -2.1149 H   0  0  0  0  0  0  0  0  0  0  0  0
   -0.5227    0.3529   -3.0345 H   0  0  0  0  0  0  0  0  0  0  0  0
    0.2463   -0.8763   -0.8409 H   0  0  0  0  0  0  0  0  0  0  0  0
   -1.5356   -2.1652    0.3066 H   0  0  0  0  0  0  0  0  0  0  0  0
   -3.1332   -2.2073    2.1804 H   0  0  0  0  0  0  0  0  0  0  0  0
   -3.8162   -0.1009    3.2921 H   0  0  0  0  0  0  0  0  0  0  0  0
   -2.8716    2.0581    2.5522 H   0  0  0  0  0  0  0  0  0  0  0  0
   -1.5523    2.8440   -0.3304 H   0  0  0  0  0  0  0  0  0  0  0  0
   -1.0866    3.2209    1.3395 H   0  0  0  0  0  0  0  0  0  0  0  0
    0.9126    3.1445   -0.0664 H   0  0  0  0  0  0  0  0  0  0  0  0
    0.9592    1.8339    1.1316 H   0  0  0  0  0  0  0  0  0  0  0  0
    2.8306   -2.1818   -1.0353 H   0  0  0  0  0  0  0  0  0  0  0  0
    4.1214   -3.0270    1.1322 H   0  0  0  0  0  0  0  0  0  0  0  0
    4.7016   -1.0043    2.7222 H   0  0  0  0  0  0  0  0  0  0  0  0
  1  2  2  0
  2  3  1  0
  2  4  1  0
  4  5  1  0
  5  6  1  0
  6  7  2  0
  7  8  1  0
  8  9  2  0
  9 10  1  0
 10 11  2  0
 11 12  1  0
 12 13  1  0
 13 14  1  0
 14 15  1  0
 15 16  2  0
 15 17  2  0
 15 18  1  0
 18 19  2  0
 19 20  1  0
 20 21  2  0
 21 22  1  0
 14  5  1  0
 22 18  1  0
 11  6  1  0
  3 23  1  0
  4 24  1  0
  4 25  1  0
  5 26  1  0
  7 27  1  0
  8 28  1  0
  9 29  1  0
 10 30  1  0
 12 31  1  0
 12 32  1  0
 13 33  1  0
 13 34  1  0
 19 35  1  0
 20 36  1  0
 21 37  1  0
M  END
$$$$
