
     RDKit          3D

 67 70  0  0  0  0  0  0  0  0999 V2000
   -1.8541    3.0040    2.8643 C   0  0  0  0  0  0  0  0  0  0  0  0
   -1.2597    1.9588    2.1060 O   0  0  0  0  0  0  0  0  0  0  0  0
   -1.3366    2.0205    0.7375 C   0  0  0  0  0  0  0  0  0  0  0  0
   -1.9087    3.0949    0.0369 C   0  0  0  0  0  0  0  0  0  0  0  0
   -1.9532    3.1071   -1.3631 C   0  0  0  0  0  0  0  0  0  0  0  0
   -2.4970    4.1217   -2.1117 O   0  0  0  0  0  0  0  0  0  0  0  0
   -3.1624    5.1737   -1.4237 C   0  0  0  0  0  0  0  0  0  0  0  0
   -1.4048    2.0319   -2.0778 C   0  0  0  0  0  0  0  0  0  0  0  0
   -1.4141    1.9735   -3.5393 C   0  0  0  0  0  0  0  0  0  0  0  0
   -0.8810    0.9325   -4.1836 C   0  0  0  0  0  0  0  0  0  0  0  0
   -0.2585   -0.1893   -3.4696 C   0  0  0  0  0  0  0  0  0  0  0  0
    0.2502   -1.1228   -4.0783 O   0  0  0  0  0  0  0  0  0  0  0  0
   -0.2689   -0.1166   -2.0865 O   0  0  0  0  0  0  0  0  0  0  0  0
   -0.8325    0.9682   -1.3708 C   0  0  0  0  0  0  0  0  0  0  0  0
   -0.7863    0.9270    0.0365 C   0  0  0  0  0  0  0  0  0  0  0  0
   -0.1818   -0.2643    0.7933 C   0  0  0  0  0  0  0  0  0  0  0  0
    1.3387   -0.4421    0.5369 C   0  0  0  0  0  0  0  0  0  0  0  0
    2.1522    0.7838    0.9873 C   0  0  0  0  0  0  0  0  0  0  0  0
    3.6115    0.5603    0.9397 N   0  0  0  0  0  0  0  0  0  0  0  0
    4.1057    0.4390   -0.4424 C   0  0  0  0  0  0  0  0  0  0  0  0
    5.6153    0.1891   -0.4790 C   0  0  0  0  0  0  0  0  0  0  0  0
    6.3795    1.2717    0.2713 C   0  0  0  0  0  0  0  0  0  0  0  0
    5.8159    1.4360    1.6762 C   0  0  0  0  0  0  0  0  0  0  0  0
    4.3032    1.6542    1.6437 C   0  0  0  0  0  0  0  0  0  0  0  0
   -1.0201   -1.5321    0.6132 C   0  0  0  0  0  0  0  0  0  0  0  0
   -0.6459   -2.5925   -0.2131 C   0  0  0  0  0  0  0  0  0  0  0  0
   -1.4679   -3.7228   -0.3560 C   0  0  0  0  0  0  0  0  0  0  0  0
   -2.6897   -3.8615    0.3236 C   0  0  0  0  0  0  0  0  0  0  0  0
   -3.5132   -4.9841    0.1643 N   0  0  0  0  0  0  0  0  0  0  0  0
   -2.9737   -6.1677   -0.5016 C   0  0  0  0  0  0  0  0  0  0  0  0
   -4.5509   -5.2385    1.1613 C   0  0  0  0  0  0  0  0  0  0  0  0
   -3.0552   -2.7767    1.1369 C   0  0  0  0  0  0  0  0  0  0  0  0
   -2.2440   -1.6409    1.2836 C   0  0  0  0  0  0  0  0  0  0  0  0
   -1.3566    3.9605    2.6740 H   0  0  0  0  0  0  0  0  0  0  0  0
   -1.7193    2.7653    3.9231 H   0  0  0  0  0  0  0  0  0  0  0  0
   -2.9301    3.0690    2.6725 H   0  0  0  0  0  0  0  0  0  0  0  0
   -2.3196    3.9308    0.5875 H   0  0  0  0  0  0  0  0  0  0  0  0
   -2.4596    5.7496   -0.8134 H   0  0  0  0  0  0  0  0  0  0  0  0
   -3.5817    5.8507   -2.1742 H   0  0  0  0  0  0  0  0  0  0  0  0
   -3.9920    4.7911   -0.8206 H   0  0  0  0  0  0  0  0  0  0  0  0
   -1.8671    2.7901   -4.0920 H   0  0  0  0  0  0  0  0  0  0  0  0
   -0.8793    0.8679   -5.2646 H   0  0  0  0  0  0  0  0  0  0  0  0
   -0.2391   -0.0693    1.8729 H   0  0  0  0  0  0  0  0  0  0  0  0
    1.5329   -0.6493   -0.5189 H   0  0  0  0  0  0  0  0  0  0  0  0
    1.6912   -1.3201    1.0956 H   0  0  0  0  0  0  0  0  0  0  0  0
    1.8663    1.0031    2.0243 H   0  0  0  0  0  0  0  0  0  0  0  0
    1.8856    1.6640    0.3890 H   0  0  0  0  0  0  0  0  0  0  0  0
    3.8687    1.3421   -1.0198 H   0  0  0  0  0  0  0  0  0  0  0  0
    3.6292   -0.4062   -0.9492 H   0  0  0  0  0  0  0  0  0  0  0  0
    5.9579    0.1496   -1.5193 H   0  0  0  0  0  0  0  0  0  0  0  0
    5.8354   -0.7894   -0.0333 H   0  0  0  0  0  0  0  0  0  0  0  0
    7.4440    1.0175    0.3186 H   0  0  0  0  0  0  0  0  0  0  0  0
    6.2977    2.2216   -0.2708 H   0  0  0  0  0  0  0  0  0  0  0  0
    6.0462    0.5427    2.2707 H   0  0  0  0  0  0  0  0  0  0  0  0
    6.3014    2.2837    2.1728 H   0  0  0  0  0  0  0  0  0  0  0  0
    4.0810    2.6210    1.1726 H   0  0  0  0  0  0  0  0  0  0  0  0
    3.9507    1.7093    2.6810 H   0  0  0  0  0  0  0  0  0  0  0  0
    0.2806   -2.5626   -0.7811 H   0  0  0  0  0  0  0  0  0  0  0  0
   -1.1118   -4.4948   -1.0313 H   0  0  0  0  0  0  0  0  0  0  0  0
   -3.7284   -6.9590   -0.5743 H   0  0  0  0  0  0  0  0  0  0  0  0
   -2.6768   -5.9435   -1.5316 H   0  0  0  0  0  0  0  0  0  0  0  0
   -2.1191   -6.5751    0.0494 H   0  0  0  0  0  0  0  0  0  0  0  0
   -5.3032   -4.4425    1.1633 H   0  0  0  0  0  0  0  0  0  0  0  0
   -5.0956   -6.1639    0.9420 H   0  0  0  0  0  0  0  0  0  0  0  0
   -4.1192   -5.3403    2.1632 H   0  0  0  0  0  0  0  0  0  0  0  0
   -3.9955   -2.7764    1.6786 H   0  0  0  0  0  0  0  0  0  0  0  0
   -2.5868   -0.8332    1.9274 H   0  0  0  0  0  0  0  0  0  0  0  0
  1  2  1  0
  2  3  1  0
  3  4  2  0
  4  5  1  0
  5  6  1  0
  6  7  1  0
  5  8  2  0
  8  9  1  0
  9 10  2  0
 10 11  1  0
 11 12  2  0
 11 13  1  0
 13 14  1  0
 14 15  2  0
 15 16  1  0
 16 17  1  0
 17 18  1  0
 18 19  1  0
 19 20  1  0
 20 21  1  0
 21 22  1  0
 22 23  1  0
 23 24  1  0
 16 25  1  0
 25 26  2  0
 26 27  1  0
 27 28  2  0
 28 29  1  0
 29 30  1  0
 29 31  1  0
 28 32  1  0
 32 33  2  0
 15  3  1  0
 24 19  1  0
 33 25  1  0
 14  8  1  0
  1 34  1  0
  1 35  1  0
  1 36  1  0
  4 37  1  0
  7 38  1  0
  7 39  1  0
  7 40  1  0
  9 41  1  0
 10 42  1  0
 16 43  1  0
 17 44  1  0
 17 45  1  0
 18 46  1  0
 18 47  1  0
 20 48  1  0
 20 49  1  0
 21 50  1  0
 21 51  1  0
 22 52  1  0
 22 53  1  0
 23 54  1  0
 23 55  1  0
 24 56  1  0
 24 57  1  0
 26 58  1  0
 27 59  1  0
 30 60  1  0
 30 61  1  0
 30 62  1  0
 31 63  1  0
 31 64  1  0
 31 65  1  0
 32 66  1  0
 33 67  1  0
M  END
$$$$
