
     RDKit          3D

 45 47  0  0  0  0  0  0  0  0999 V2000
   -4.5172   -2.3311    0.6266 C   0  0  0  0  0  0  0  0  0  0  0  0
   -3.2337   -2.0458   -0.1483 C   0  0  0  0  0  0  0  0  0  0  0  0
   -2.6823   -0.6880   -0.0256 N   0  0  0  0  0  0  0  0  0  0  0  0
   -3.5853    0.3779   -0.4878 C   0  0  0  0  0  0  0  0  0  0  0  0
   -4.0096    0.2316   -1.9464 C   0  0  0  0  0  0  0  0  0  0  0  0
   -2.2056   -0.4267    1.3494 C   0  0  0  0  0  0  0  0  0  0  0  0
   -1.1895    0.6964    1.4302 C   0  0  0  0  0  0  0  0  0  0  0  0
   -1.5126    1.9298    2.0183 C   0  0  0  0  0  0  0  0  0  0  0  0
   -2.7656    2.1138    2.5345 O   0  0  0  0  0  0  0  0  0  0  0  0
   -0.5849    2.9709    2.0845 C   0  0  0  0  0  0  0  0  0  0  0  0
    0.6926    2.7906    1.5580 C   0  0  0  0  0  0  0  0  0  0  0  0
    1.0364    1.5684    0.9720 C   0  0  0  0  0  0  0  0  0  0  0  0
    2.3886    1.3713    0.4157 C   0  0  0  0  0  0  0  0  0  0  0  0
    3.2168    2.2742    0.4634 O   0  0  0  0  0  0  0  0  0  0  0  0
    2.6778    0.0414   -0.1880 C   0  0  0  0  0  0  0  0  0  0  0  0
    3.9762   -0.2856   -0.8069 C   0  0  0  0  0  0  0  0  0  0  0  0
    4.6540   -1.4717   -0.4819 C   0  0  0  0  0  0  0  0  0  0  0  0
    5.8798   -1.7801   -1.0778 C   0  0  0  0  0  0  0  0  0  0  0  0
    6.4452   -0.9058   -2.0029 C   0  0  0  0  0  0  0  0  0  0  0  0
    5.7885    0.2783   -2.3297 C   0  0  0  0  0  0  0  0  0  0  0  0
    4.5626    0.5868   -1.7344 C   0  0  0  0  0  0  0  0  0  0  0  0
    1.6809   -0.8562   -0.1743 C   0  0  0  0  0  0  0  0  0  0  0  0
    0.4260   -0.6885    0.3541 O   0  0  0  0  0  0  0  0  0  0  0  0
    0.1086    0.5278    0.9103 C   0  0  0  0  0  0  0  0  0  0  0  0
   -4.3847   -2.1786    1.7018 H   0  0  0  0  0  0  0  0  0  0  0  0
   -5.3462   -1.7042    0.2853 H   0  0  0  0  0  0  0  0  0  0  0  0
   -4.8134   -3.3749    0.4772 H   0  0  0  0  0  0  0  0  0  0  0  0
   -2.4687   -2.7669    0.1684 H   0  0  0  0  0  0  0  0  0  0  0  0
   -3.3993   -2.2791   -1.2066 H   0  0  0  0  0  0  0  0  0  0  0  0
   -3.0727    1.3442   -0.4169 H   0  0  0  0  0  0  0  0  0  0  0  0
   -4.4771    0.4507    0.1461 H   0  0  0  0  0  0  0  0  0  0  0  0
   -4.6756   -0.6236   -2.0947 H   0  0  0  0  0  0  0  0  0  0  0  0
   -3.1395    0.1160   -2.6011 H   0  0  0  0  0  0  0  0  0  0  0  0
   -4.5524    1.1271   -2.2671 H   0  0  0  0  0  0  0  0  0  0  0  0
   -3.0500   -0.2465    2.0258 H   0  0  0  0  0  0  0  0  0  0  0  0
   -1.7076   -1.3197    1.7528 H   0  0  0  0  0  0  0  0  0  0  0  0
   -2.8352    3.0164    2.8874 H   0  0  0  0  0  0  0  0  0  0  0  0
   -0.8373    3.9249    2.5380 H   0  0  0  0  0  0  0  0  0  0  0  0
    1.4188    3.5996    1.6054 H   0  0  0  0  0  0  0  0  0  0  0  0
    4.2405   -2.1635    0.2486 H   0  0  0  0  0  0  0  0  0  0  0  0
    6.3953   -2.7001   -0.8147 H   0  0  0  0  0  0  0  0  0  0  0  0
    7.4005   -1.1427   -2.4638 H   0  0  0  0  0  0  0  0  0  0  0  0
    6.2310    0.9679   -3.0438 H   0  0  0  0  0  0  0  0  0  0  0  0
    4.0715    1.5217   -1.9985 H   0  0  0  0  0  0  0  0  0  0  0  0
    1.7542   -1.8487   -0.6031 H   0  0  0  0  0  0  0  0  0  0  0  0
  1  2  1  0
  2  3  1  0
  3  4  1  0
  4  5  1  0
  3  6  1  0
  6  7  1  0
  7  8  2  0
  8  9  1  0
  8 10  1  0
 10 11  2  0
 11 12  1  0
 12 13  1  0
 13 14  2  0
 13 15  1  0
 15 16  1  0
 16 17  2  0
 17 18  1  0
 18 19  2  0
 19 20  1  0
 20 21  2  0
 15 22  2  0
 22 23  1  0
 23 24  1  0
 24  7  1  0
 24 12  2  0
 21 16  1  0
  1 25  1  0
  1 26  1  0
  1 27  1  0
  2 28  1  0
  2 29  1  0
  4 30  1  0
  4 31  1  0
  5 32  1  0
  5 33  1  0
  5 34  1  0
  6 35  1  0
  6 36  1  0
  9 37  1  0
 10 38  1  0
 11 39  1  0
 17 40  1  0
 18 41  1  0
 19 42  1  0
 20 43  1  0
 21 44  1  0
 22 45  1  0
M  END
$$$$
