
     RDKit          3D

 48 51  0  0  0  0  0  0  0  0999 V2000
    4.5121   -2.8192    2.6764 O   0  0  0  0  0  0  0  0  0  0  0  0
    5.2756   -1.7675    2.0429 S   0  0  0  0  0  6  0  0  0  0  0  0
    6.7001   -1.6339    2.2639 O   0  0  0  0  0  0  0  0  0  0  0  0
    4.6018   -0.2666    2.4138 N   0  0  0  0  0  0  0  0  0  0  0  0
    3.2666    0.0243    2.0259 C   0  0  0  0  0  0  0  0  0  0  0  0
    2.1958   -0.7087    2.5247 C   0  0  0  0  0  0  0  0  0  0  0  0
    0.8956   -0.4314    2.0881 C   0  0  0  0  0  0  0  0  0  0  0  0
    0.6313    0.5856    1.1506 C   0  0  0  0  0  0  0  0  0  0  0  0
   -0.7486    0.8557    0.7024 C   0  0  0  0  0  0  0  0  0  0  0  0
   -1.2034    2.0944    0.2779 C   0  0  0  0  0  0  0  0  0  0  0  0
   -2.5337    2.2383   -0.1284 C   0  0  0  0  0  0  0  0  0  0  0  0
   -3.3988    1.1513   -0.1147 C   0  0  0  0  0  0  0  0  0  0  0  0
   -4.7326    1.2835   -0.4943 N   0  0  0  0  0  0  0  0  0  0  0  0
   -5.5705    0.0883   -0.2897 C   0  0  0  0  0  0  0  0  0  0  0  0
   -7.0110    0.3982   -0.7264 C   0  0  0  0  0  0  0  0  0  0  0  0
   -7.1351    0.7732   -2.1083 O   0  0  0  0  0  0  0  0  0  0  0  0
   -5.9099    1.2496   -2.6802 C   0  0  0  0  0  0  0  0  0  0  0  0
   -5.0510    2.0685   -1.7009 C   0  0  0  0  0  0  0  0  0  0  0  0
   -2.9256   -0.0292    0.3321 N   0  0  0  0  0  0  0  0  0  0  0  0
   -1.6053   -0.1840    0.7313 N   0  0  0  0  0  0  0  0  0  0  0  0
    1.7347    1.3118    0.6647 C   0  0  0  0  0  0  0  0  0  0  0  0
    3.0381    1.0381    1.0988 C   0  0  0  0  0  0  0  0  0  0  0  0
    5.0258   -1.8928    0.2841 C   0  0  0  0  0  0  0  0  0  0  0  0
    5.9779   -1.3552   -0.5867 C   0  0  0  0  0  0  0  0  0  0  0  0
    5.7827   -1.4599   -1.9650 C   0  0  0  0  0  0  0  0  0  0  0  0
    4.6471   -2.1050   -2.4694 C   0  0  0  0  0  0  0  0  0  0  0  0
    4.4688   -2.1847   -4.1859 Cl  0  0  0  0  0  0  0  0  0  0  0  0
    3.7067   -2.6575   -1.5893 C   0  0  0  0  0  0  0  0  0  0  0  0
    2.2868   -3.4683   -2.1454 Cl  0  0  0  0  0  0  0  0  0  0  0  0
    3.8999   -2.5598   -0.2093 C   0  0  0  0  0  0  0  0  0  0  0  0
    5.2881    0.4854    2.3944 H   0  0  0  0  0  0  0  0  0  0  0  0
    2.3512   -1.4970    3.2578 H   0  0  0  0  0  0  0  0  0  0  0  0
    0.0755   -1.0237    2.4954 H   0  0  0  0  0  0  0  0  0  0  0  0
   -0.5562    2.9643    0.2783 H   0  0  0  0  0  0  0  0  0  0  0  0
   -2.8889    3.2197   -0.4245 H   0  0  0  0  0  0  0  0  0  0  0  0
   -5.1855   -0.7518   -0.8821 H   0  0  0  0  0  0  0  0  0  0  0  0
   -5.5745   -0.1983    0.7686 H   0  0  0  0  0  0  0  0  0  0  0  0
   -7.6519   -0.4743   -0.5641 H   0  0  0  0  0  0  0  0  0  0  0  0
   -7.4192    1.2213   -0.1283 H   0  0  0  0  0  0  0  0  0  0  0  0
   -6.1706    1.8613   -3.5499 H   0  0  0  0  0  0  0  0  0  0  0  0
   -5.3498    0.3826   -3.0503 H   0  0  0  0  0  0  0  0  0  0  0  0
   -5.6106    2.9555   -1.3824 H   0  0  0  0  0  0  0  0  0  0  0  0
   -4.1552    2.4067   -2.2339 H   0  0  0  0  0  0  0  0  0  0  0  0
    1.5986    2.0928   -0.0806 H   0  0  0  0  0  0  0  0  0  0  0  0
    3.8628    1.6152    0.6899 H   0  0  0  0  0  0  0  0  0  0  0  0
    6.8699   -0.8622   -0.2046 H   0  0  0  0  0  0  0  0  0  0  0  0
    6.5222   -1.0410   -2.6445 H   0  0  0  0  0  0  0  0  0  0  0  0
    3.1725   -2.9936    0.4747 H   0  0  0  0  0  0  0  0  0  0  0  0
  1  2  2  0
  2  3  2  0
  2  4  1  0
  4  5  1  0
  5  6  2  0
  6  7  1  0
  7  8  2  0
  8  9  1  0
  9 10  2  0
 10 11  1  0
 11 12  2  0
 12 13  1  0
 13 14  1  0
 14 15  1  0
 15 16  1  0
 16 17  1  0
 17 18  1  0
 12 19  1  0
 19 20  2  0
  8 21  1  0
 21 22  2  0
  2 23  1  0
 23 24  2  0
 24 25  1  0
 25 26  2  0
 26 27  1  0
 26 28  1  0
 28 29  1  0
 28 30  2  0
 22  5  1  0
 30 23  1  0
 20  9  1  0
 18 13  1  0
  4 31  1  0
  6 32  1  0
  7 33  1  0
 10 34  1  0
 11 35  1  0
 14 36  1  0
 14 37  1  0
 15 38  1  0
 15 39  1  0
 17 40  1  0
 17 41  1  0
 18 42  1  0
 18 43  1  0
 21 44  1  0
 22 45  1  0
 24 46  1  0
 25 47  1  0
 30 48  1  0
M  END
$$$$
