
     RDKit          3D

 37 40  0  0  0  0  0  0  0  0999 V2000
   -2.8697    3.7087   -1.1435 C   0  0  0  0  0  0  0  0  0  0  0  0
   -2.0933    2.9821   -0.1996 O   0  0  0  0  0  0  0  0  0  0  0  0
   -2.2497    1.6252   -0.1820 C   0  0  0  0  0  0  0  0  0  0  0  0
   -3.1073    0.8892   -0.9863 C   0  0  0  0  0  0  0  0  0  0  0  0
   -3.1622   -0.5020   -0.8500 C   0  0  0  0  0  0  0  0  0  0  0  0
   -2.3816   -1.1876    0.0695 C   0  0  0  0  0  0  0  0  0  0  0  0
   -2.5114   -2.5226    0.1294 N   0  0  0  0  0  0  0  0  0  0  0  0
   -1.7736   -3.2149    1.0228 C   0  0  0  0  0  0  0  0  0  0  0  0
   -1.9588   -4.7019    1.0624 C   0  0  0  0  0  0  0  0  0  0  0  0
   -0.8756   -2.6006    1.8771 C   0  0  0  0  0  0  0  0  0  0  0  0
   -0.7217   -1.2137    1.8082 C   0  0  0  0  0  0  0  0  0  0  0  0
    0.4672   -0.4856    2.9433 S   0  0  0  0  0  0  0  0  0  0  0  0
    1.7324   -0.1338    1.7783 C   0  0  0  0  0  0  0  0  0  0  0  0
    2.0226    1.1077    1.4682 N   0  0  0  0  0  0  0  0  0  0  0  0
    3.0419    1.1267    0.5322 C   0  0  0  0  0  0  0  0  0  0  0  0
    3.6055    2.2792   -0.0516 C   0  0  0  0  0  0  0  0  0  0  0  0
    4.6366    2.1519   -0.9881 C   0  0  0  0  0  0  0  0  0  0  0  0
    5.1110    0.8942   -1.3473 C   0  0  0  0  0  0  0  0  0  0  0  0
    4.5697   -0.2650   -0.7826 C   0  0  0  0  0  0  0  0  0  0  0  0
    3.5339   -0.1254    0.1562 C   0  0  0  0  0  0  0  0  0  0  0  0
    2.6746   -1.3441    1.0172 S   0  0  0  0  0  0  0  0  0  0  0  0
   -1.4991   -0.4604    0.8922 C   0  0  0  0  0  0  0  0  0  0  0  0
   -1.4551    0.9519    0.7488 C   0  0  0  0  0  0  0  0  0  0  0  0
   -3.9405    3.5939   -0.9452 H   0  0  0  0  0  0  0  0  0  0  0  0
   -2.6232    3.4132   -2.1687 H   0  0  0  0  0  0  0  0  0  0  0  0
   -2.6227    4.7691   -1.0342 H   0  0  0  0  0  0  0  0  0  0  0  0
   -3.7487    1.3553   -1.7261 H   0  0  0  0  0  0  0  0  0  0  0  0
   -3.8408   -1.0698   -1.4834 H   0  0  0  0  0  0  0  0  0  0  0  0
   -2.3043   -5.0138    2.0529 H   0  0  0  0  0  0  0  0  0  0  0  0
   -2.7026   -5.0221    0.3256 H   0  0  0  0  0  0  0  0  0  0  0  0
   -1.0147   -5.2067    0.8349 H   0  0  0  0  0  0  0  0  0  0  0  0
   -0.3021   -3.1958    2.5813 H   0  0  0  0  0  0  0  0  0  0  0  0
    3.2314    3.2584    0.2312 H   0  0  0  0  0  0  0  0  0  0  0  0
    5.0676    3.0441   -1.4365 H   0  0  0  0  0  0  0  0  0  0  0  0
    5.9136    0.8098   -2.0773 H   0  0  0  0  0  0  0  0  0  0  0  0
    4.9410   -1.2456   -1.0643 H   0  0  0  0  0  0  0  0  0  0  0  0
   -0.7902    1.5505    1.3692 H   0  0  0  0  0  0  0  0  0  0  0  0
  1  2  1  0
  2  3  1  0
  3  4  2  0
  4  5  1  0
  5  6  2  0
  6  7  1  0
  7  8  2  0
  8  9  1  0
  8 10  1  0
 10 11  2  0
 11 12  1  0
 12 13  1  0
 13 14  2  0
 14 15  1  0
 15 16  2  0
 16 17  1  0
 17 18  2  0
 18 19  1  0
 19 20  2  0
 20 21  1  0
 11 22  1  0
 22 23  2  0
 23  3  1  0
 22  6  1  0
 21 13  1  0
 20 15  1  0
  1 24  1  0
  1 25  1  0
  1 26  1  0
  4 27  1  0
  5 28  1  0
  9 29  1  0
  9 30  1  0
  9 31  1  0
 10 32  1  0
 16 33  1  0
 17 34  1  0
 18 35  1  0
 19 36  1  0
 23 37  1  0
M  END
$$$$
