
     RDKit          3D

 63 68  0  0  0  0  0  0  0  0999 V2000
   -4.8458    3.8473    3.7781 C   0  0  0  0  0  0  0  0  0  0  0  0
   -3.7477    3.0802    4.2548 O   0  0  0  0  0  0  0  0  0  0  0  0
   -3.2190    2.1594    3.3925 C   0  0  0  0  0  0  0  0  0  0  0  0
   -3.6411    1.9215    2.0854 C   0  0  0  0  0  0  0  0  0  0  0  0
   -3.0090    0.9443    1.3072 C   0  0  0  0  0  0  0  0  0  0  0  0
   -1.9473    0.1831    1.8246 C   0  0  0  0  0  0  0  0  0  0  0  0
   -1.2460   -0.8925    0.9896 C   0  0  0  0  0  0  0  0  0  0  0  0
   -2.2324   -1.9288    0.4783 C   0  0  0  0  0  0  0  0  0  0  0  0
   -2.8579   -2.8197    1.3589 C   0  0  0  0  0  0  0  0  0  0  0  0
   -3.7904   -3.7419    0.8836 C   0  0  0  0  0  0  0  0  0  0  0  0
   -4.1225   -3.7940   -0.4783 C   0  0  0  0  0  0  0  0  0  0  0  0
   -5.0669   -4.7203   -0.9516 C   0  0  0  0  0  0  0  0  0  0  0  0
   -5.4008   -4.7754   -2.3050 C   0  0  0  0  0  0  0  0  0  0  0  0
   -4.7947   -3.9056   -3.2036 C   0  0  0  0  0  0  0  0  0  0  0  0
   -3.8544   -2.9796   -2.7485 C   0  0  0  0  0  0  0  0  0  0  0  0
   -3.5000   -2.9029   -1.3841 C   0  0  0  0  0  0  0  0  0  0  0  0
   -2.5510   -1.9797   -0.8849 C   0  0  0  0  0  0  0  0  0  0  0  0
   -1.9612   -1.1214   -1.7907 O   0  0  0  0  0  0  0  0  0  0  0  0
   -0.8204   -0.4097   -1.4281 C   0  0  0  0  0  0  0  0  0  0  0  0
   -0.1472    0.1629   -2.4914 N   0  0  0  0  0  0  0  0  0  0  0  0
    0.9174    0.8348   -2.2012 C   0  0  0  0  0  0  0  0  0  0  0  0
    1.4524    1.0160   -0.9463 N   0  0  0  0  0  0  0  0  0  0  0  0
    2.7125    1.7521   -0.8221 C   0  0  0  0  0  0  0  0  0  0  0  0
    3.9117    0.7823   -0.8793 C   0  0  0  0  0  0  0  0  0  0  0  0
    5.2036    1.4641   -0.6993 N   0  0  0  0  0  0  0  0  0  0  0  0
    5.6456    2.2156   -1.8966 C   0  0  0  0  0  0  0  0  0  0  0  0
    6.7569    1.5147   -2.6967 C   0  0  0  0  0  0  0  0  0  0  0  0
    7.9343    1.2613   -1.9217 O   0  0  0  0  0  0  0  0  0  0  0  0
    7.6598    1.0473   -0.5306 C   0  0  0  0  0  0  0  0  0  0  0  0
    6.2473    0.4988   -0.2821 C   0  0  0  0  0  0  0  0  0  0  0  0
    0.8351    0.4129    0.1403 C   0  0  0  0  0  0  0  0  0  0  0  0
    1.2890    0.3953    1.3554 N   0  0  0  0  0  0  0  0  0  0  0  0
   -0.4503   -0.2999   -0.1357 C   0  0  0  0  0  0  0  0  0  0  0  0
   -1.5263    0.4374    3.1374 C   0  0  0  0  0  0  0  0  0  0  0  0
   -2.1581    1.4149    3.9105 C   0  0  0  0  0  0  0  0  0  0  0  0
   -5.6992    3.2064    3.5331 H   0  0  0  0  0  0  0  0  0  0  0  0
   -5.1565    4.5216    4.5821 H   0  0  0  0  0  0  0  0  0  0  0  0
   -4.5542    4.4638    2.9213 H   0  0  0  0  0  0  0  0  0  0  0  0
   -4.4580    2.4761    1.6367 H   0  0  0  0  0  0  0  0  0  0  0  0
   -3.3592    0.7803    0.2897 H   0  0  0  0  0  0  0  0  0  0  0  0
   -0.5489   -1.4500    1.6319 H   0  0  0  0  0  0  0  0  0  0  0  0
   -2.6313   -2.7903    2.4228 H   0  0  0  0  0  0  0  0  0  0  0  0
   -4.2643   -4.4188    1.5916 H   0  0  0  0  0  0  0  0  0  0  0  0
   -5.5526   -5.4098   -0.2645 H   0  0  0  0  0  0  0  0  0  0  0  0
   -6.1333   -5.4976   -2.6553 H   0  0  0  0  0  0  0  0  0  0  0  0
   -5.0502   -3.9444   -4.2591 H   0  0  0  0  0  0  0  0  0  0  0  0
   -3.3917   -2.3096   -3.4713 H   0  0  0  0  0  0  0  0  0  0  0  0
    1.4890    1.3156   -3.0129 H   0  0  0  0  0  0  0  0  0  0  0  0
    2.7838    2.4983   -1.6225 H   0  0  0  0  0  0  0  0  0  0  0  0
    2.7305    2.3311    0.1091 H   0  0  0  0  0  0  0  0  0  0  0  0
    3.8996    0.2120   -1.8175 H   0  0  0  0  0  0  0  0  0  0  0  0
    3.7803    0.0480   -0.0736 H   0  0  0  0  0  0  0  0  0  0  0  0
    6.0372    3.1754   -1.5371 H   0  0  0  0  0  0  0  0  0  0  0  0
    4.8115    2.4531   -2.5654 H   0  0  0  0  0  0  0  0  0  0  0  0
    6.3996    0.5603   -3.1009 H   0  0  0  0  0  0  0  0  0  0  0  0
    7.0537    2.1357   -3.5481 H   0  0  0  0  0  0  0  0  0  0  0  0
    7.8091    1.9962   -0.0022 H   0  0  0  0  0  0  0  0  0  0  0  0
    8.4092    0.3438   -0.1537 H   0  0  0  0  0  0  0  0  0  0  0  0
    6.1226    0.2773    0.7836 H   0  0  0  0  0  0  0  0  0  0  0  0
    6.1393   -0.4419   -0.8384 H   0  0  0  0  0  0  0  0  0  0  0  0
    2.1648    0.9072    1.4489 H   0  0  0  0  0  0  0  0  0  0  0  0
   -0.6908   -0.1146    3.5630 H   0  0  0  0  0  0  0  0  0  0  0  0
   -1.8156    1.6001    4.9255 H   0  0  0  0  0  0  0  0  0  0  0  0
  1  2  1  0
  2  3  1  0
  3  4  2  0
  4  5  1  0
  5  6  2  0
  6  7  1  0
  7  8  1  0
  8  9  2  0
  9 10  1  0
 10 11  2  0
 11 12  1  0
 12 13  2  0
 13 14  1  0
 14 15  2  0
 15 16  1  0
 16 17  2  0
 17 18  1  0
 18 19  1  0
 19 20  1  0
 20 21  2  0
 21 22  1  0
 22 23  1  0
 23 24  1  0
 24 25  1  0
 25 26  1  0
 26 27  1  0
 27 28  1  0
 28 29  1  0
 29 30  1  0
 22 31  1  0
 31 32  2  3
 31 33  1  0
  6 34  1  0
 34 35  2  0
 35  3  1  0
 33  7  1  0
 17  8  1  0
 33 19  2  0
 16 11  1  0
 30 25  1  0
  1 36  1  0
  1 37  1  0
  1 38  1  0
  4 39  1  0
  5 40  1  0
  7 41  1  0
  9 42  1  0
 10 43  1  0
 12 44  1  0
 13 45  1  0
 14 46  1  0
 15 47  1  0
 21 48  1  0
 23 49  1  0
 23 50  1  0
 24 51  1  0
 24 52  1  0
 26 53  1  0
 26 54  1  0
 27 55  1  0
 27 56  1  0
 29 57  1  0
 29 58  1  0
 30 59  1  0
 30 60  1  0
 32 61  1  0
 34 62  1  0
 35 63  1  0
M  END
$$$$
