
     RDKit          3D

 33 35  0  0  0  0  0  0  0  0999 V2000
   -0.0609   -2.4213    1.1085 O   0  0  0  0  0  0  0  0  0  0  0  0
   -0.0704   -1.7777    0.0700 C   0  0  0  0  0  0  0  0  0  0  0  0
    1.1125   -1.0384   -0.4607 C   0  0  0  0  0  0  0  0  0  0  0  0
    2.2550   -1.0026    0.2390 C   0  0  0  0  0  0  0  0  0  0  0  0
    3.4360   -0.3060   -0.1483 C   0  0  0  0  0  0  0  0  0  0  0  0
    4.0764   -0.1994   -1.3719 C   0  0  0  0  0  0  0  0  0  0  0  0
    5.2562    0.5996   -1.3196 C   0  0  0  0  0  0  0  0  0  0  0  0
    5.5004    1.0720   -0.0521 C   0  0  0  0  0  0  0  0  0  0  0  0
    4.3209    0.5469    1.0641 S   0  0  0  0  0  0  0  0  0  0  0  0
    0.7177   -0.2689   -1.9532 S   0  0  0  0  0  0  0  0  0  0  0  0
   -0.9349   -0.8556   -1.9393 C   0  0  0  0  0  0  0  0  0  0  0  0
   -2.0432   -0.5613   -3.1483 S   0  0  0  0  0  0  0  0  0  0  0  0
   -1.1399   -1.5904   -0.7915 N   0  0  0  0  0  0  0  0  0  0  0  0
   -2.4822   -2.2142   -0.4873 N   0  0  0  0  0  0  0  0  0  0  0  0
   -3.4049   -1.5578    0.7873 S   0  0  0  0  0  6  0  0  0  0  0  0
   -3.1441   -2.3136    1.9903 O   0  0  0  0  0  0  0  0  0  0  0  0
   -4.7469   -1.4228    0.2601 O   0  0  0  0  0  0  0  0  0  0  0  0
   -2.7566    0.0830    1.0035 C   0  0  0  0  0  0  0  0  0  0  0  0
   -3.2191    1.1218    0.1899 C   0  0  0  0  0  0  0  0  0  0  0  0
   -2.6867    2.4012    0.3451 C   0  0  0  0  0  0  0  0  0  0  0  0
   -1.7138    2.6408    1.3173 C   0  0  0  0  0  0  0  0  0  0  0  0
   -1.2781    1.6071    2.1476 C   0  0  0  0  0  0  0  0  0  0  0  0
   -1.8058    0.3252    2.0001 C   0  0  0  0  0  0  0  0  0  0  0  0
    2.2887   -1.5111    1.2034 H   0  0  0  0  0  0  0  0  0  0  0  0
    3.7254   -0.6793   -2.2775 H   0  0  0  0  0  0  0  0  0  0  0  0
    5.8953    0.8096   -2.1686 H   0  0  0  0  0  0  0  0  0  0  0  0
    6.3215    1.6946    0.2762 H   0  0  0  0  0  0  0  0  0  0  0  0
   -3.0893   -2.3138   -1.3084 H   0  0  0  0  0  0  0  0  0  0  0  0
   -3.9872    0.9470   -0.5608 H   0  0  0  0  0  0  0  0  0  0  0  0
   -3.0356    3.2162   -0.2855 H   0  0  0  0  0  0  0  0  0  0  0  0
   -1.3048    3.6417    1.4390 H   0  0  0  0  0  0  0  0  0  0  0  0
   -0.5333    1.8037    2.9159 H   0  0  0  0  0  0  0  0  0  0  0  0
   -1.4682   -0.4763    2.6564 H   0  0  0  0  0  0  0  0  0  0  0  0
  1  2  2  0
  2  3  1  0
  3  4  2  3
  4  5  1  0
  5  6  2  0
  6  7  1  0
  7  8  2  0
  8  9  1  0
  3 10  1  0
 10 11  1  0
 11 12  2  0
 11 13  1  0
 13 14  1  0
 14 15  1  0
 15 16  2  0
 15 17  2  0
 15 18  1  0
 18 19  2  0
 19 20  1  0
 20 21  2  0
 21 22  1  0
 22 23  2  0
 13  2  1  0
 23 18  1  0
  9  5  1  0
  4 24  1  0
  6 25  1  0
  7 26  1  0
  8 27  1  0
 14 28  1  0
 19 29  1  0
 20 30  1  0
 21 31  1  0
 22 32  1  0
 23 33  1  0
M  END
$$$$
