
     RDKit          3D

 32 33  0  0  0  0  0  0  0  0999 V2000
   -5.6909   -0.6467    0.1903 C   0  0  0  0  0  0  0  0  0  0  0  0
   -4.8197    0.5395    0.5585 C   0  0  0  0  0  0  0  0  0  0  0  0
   -3.5432    0.4355   -0.0892 O   0  0  0  0  0  0  0  0  0  0  0  0
   -2.6028   -0.2838    0.5732 C   0  0  0  0  0  0  0  0  0  0  0  0
   -2.7524   -0.8396    1.6498 O   0  0  0  0  0  0  0  0  0  0  0  0
   -1.3302   -0.3174   -0.1984 C   0  0  0  0  0  0  0  0  0  0  0  0
   -1.1730    0.3474   -1.4211 C   0  0  0  0  0  0  0  0  0  0  0  0
    0.0460    0.2871   -2.1037 C   0  0  0  0  0  0  0  0  0  0  0  0
    1.1249   -0.4396   -1.5782 C   0  0  0  0  0  0  0  0  0  0  0  0
    2.4468   -0.4876   -2.3078 C   0  0  0  0  0  0  0  0  0  0  0  0
    3.4295    1.0216   -2.0714 S   0  0  0  0  0  0  0  0  0  0  0  0
    4.0007    0.7837   -0.4378 C   0  0  0  0  0  0  0  0  0  0  0  0
    4.2649   -0.4058    0.0557 N   0  0  0  0  0  0  0  0  0  0  0  0
    4.6912   -0.3351    1.3677 N   0  0  0  0  0  0  0  0  0  0  0  0
    4.7504    0.9015    1.8089 C   0  0  0  0  0  0  0  0  0  0  0  0
    5.1282    1.2511    3.0538 N   0  0  0  0  0  0  0  0  0  0  0  0
    4.2761    2.0768    0.6489 S   0  0  0  0  0  0  0  0  0  0  0  0
    0.9622   -1.1022   -0.3536 C   0  0  0  0  0  0  0  0  0  0  0  0
   -0.2549   -1.0419    0.3305 C   0  0  0  0  0  0  0  0  0  0  0  0
   -5.2457   -1.5842    0.5381 H   0  0  0  0  0  0  0  0  0  0  0  0
   -5.7921   -0.7263   -0.8971 H   0  0  0  0  0  0  0  0  0  0  0  0
   -6.6868   -0.5483    0.6314 H   0  0  0  0  0  0  0  0  0  0  0  0
   -4.7096    0.6350    1.6448 H   0  0  0  0  0  0  0  0  0  0  0  0
   -5.2854    1.4634    0.2002 H   0  0  0  0  0  0  0  0  0  0  0  0
   -1.9889    0.9201   -1.8550 H   0  0  0  0  0  0  0  0  0  0  0  0
    0.1496    0.8166   -3.0493 H   0  0  0  0  0  0  0  0  0  0  0  0
    2.2509   -0.5944   -3.3814 H   0  0  0  0  0  0  0  0  0  0  0  0
    3.0220   -1.3760   -2.0235 H   0  0  0  0  0  0  0  0  0  0  0  0
    5.1098    0.5033    3.7398 H   0  0  0  0  0  0  0  0  0  0  0  0
    4.7949    2.1381    3.4124 H   0  0  0  0  0  0  0  0  0  0  0  0
    1.7854   -1.6673    0.0827 H   0  0  0  0  0  0  0  0  0  0  0  0
   -0.3577   -1.5626    1.2811 H   0  0  0  0  0  0  0  0  0  0  0  0
  1  2  1  0
  2  3  1  0
  3  4  1  0
  4  5  2  0
  4  6  1  0
  6  7  2  0
  7  8  1  0
  8  9  2  0
  9 10  1  0
 10 11  1  0
 11 12  1  0
 12 13  2  0
 13 14  1  0
 14 15  2  0
 15 16  1  0
 15 17  1  0
  9 18  1  0
 18 19  2  0
 19  6  1  0
 17 12  1  0
  1 20  1  0
  1 21  1  0
  1 22  1  0
  2 23  1  0
  2 24  1  0
  7 25  1  0
  8 26  1  0
 10 27  1  0
 10 28  1  0
 16 29  1  0
 16 30  1  0
 18 31  1  0
 19 32  1  0
M  END
$$$$
