
     RDKit          3D

 39 41  0  0  0  0  0  0  0  0999 V2000
   -6.3234    2.1251    0.4011 C   0  0  0  0  0  0  0  0  0  0  0  0
   -6.0807    0.6266    0.3525 C   0  0  0  0  0  0  0  0  0  0  0  0
   -5.4065    0.2613   -0.8509 O   0  0  0  0  0  0  0  0  0  0  0  0
   -4.0385    0.2507   -0.8691 C   0  0  0  0  0  0  0  0  0  0  0  0
   -3.4895   -0.2527   -2.0490 C   0  0  0  0  0  0  0  0  0  0  0  0
   -2.1037   -0.3289   -2.2315 C   0  0  0  0  0  0  0  0  0  0  0  0
   -1.2457    0.1134   -1.2083 C   0  0  0  0  0  0  0  0  0  0  0  0
    0.1384    0.1023   -1.2431 N   0  0  0  0  0  0  0  0  0  0  0  0
    0.6126    0.5820   -0.1193 C   0  0  0  0  0  0  0  0  0  0  0  0
    1.9660    0.6744    0.0848 N   0  0  0  0  0  0  0  0  0  0  0  0
    2.6087    1.0985    1.2235 C   0  0  0  0  0  0  0  0  0  0  0  0
    2.0969    1.4516    2.2809 O   0  0  0  0  0  0  0  0  0  0  0  0
    4.1184    1.0794    1.0933 C   0  0  0  0  0  0  0  0  0  0  0  0
    4.6822   -0.2715    1.5085 C   0  0  0  0  0  0  0  0  0  0  0  0
    4.4453   -1.3019    0.5104 N   0  0  0  0  0  0  0  0  0  0  0  0
    5.1353   -1.4316   -0.6661 C   0  0  0  0  0  0  0  0  0  0  0  0
    4.5869   -2.4858   -1.3631 C   0  0  0  0  0  0  0  0  0  0  0  0
    3.5379   -3.0137   -0.5738 C   0  0  0  0  0  0  0  0  0  0  0  0
    3.4784   -2.2682    0.5833 C   0  0  0  0  0  0  0  0  0  0  0  0
   -0.5373    1.0868    1.0258 S   0  0  0  0  0  0  0  0  0  0  0  0
   -1.8085    0.6195   -0.0367 C   0  0  0  0  0  0  0  0  0  0  0  0
   -3.2013    0.6998    0.1561 C   0  0  0  0  0  0  0  0  0  0  0  0
   -6.8709    2.4531   -0.4888 H   0  0  0  0  0  0  0  0  0  0  0  0
   -6.9029    2.3940    1.2889 H   0  0  0  0  0  0  0  0  0  0  0  0
   -5.3827    2.6834    0.4172 H   0  0  0  0  0  0  0  0  0  0  0  0
   -7.0526    0.1206    0.3275 H   0  0  0  0  0  0  0  0  0  0  0  0
   -5.5731    0.2547    1.2492 H   0  0  0  0  0  0  0  0  0  0  0  0
   -4.1489   -0.5952   -2.8440 H   0  0  0  0  0  0  0  0  0  0  0  0
   -1.6876   -0.7245   -3.1524 H   0  0  0  0  0  0  0  0  0  0  0  0
    2.5012    0.3037   -0.6913 H   0  0  0  0  0  0  0  0  0  0  0  0
    4.4089    1.3499    0.0714 H   0  0  0  0  0  0  0  0  0  0  0  0
    4.5139    1.8636    1.7498 H   0  0  0  0  0  0  0  0  0  0  0  0
    5.7685   -0.2060    1.6391 H   0  0  0  0  0  0  0  0  0  0  0  0
    4.2513   -0.6158    2.4557 H   0  0  0  0  0  0  0  0  0  0  0  0
    5.9563   -0.7717   -0.9163 H   0  0  0  0  0  0  0  0  0  0  0  0
    4.9107   -2.8409   -2.3332 H   0  0  0  0  0  0  0  0  0  0  0  0
    2.8964   -3.8505   -0.8195 H   0  0  0  0  0  0  0  0  0  0  0  0
    2.8198   -2.3480    1.4395 H   0  0  0  0  0  0  0  0  0  0  0  0
   -3.5805    1.1124    1.0826 H   0  0  0  0  0  0  0  0  0  0  0  0
  1  2  1  0
  2  3  1  0
  3  4  1  0
  4  5  2  0
  5  6  1  0
  6  7  2  0
  7  8  1  0
  8  9  2  0
  9 10  1  0
 10 11  1  0
 11 12  2  0
 11 13  1  0
 13 14  1  0
 14 15  1  0
 15 16  1  0
 16 17  2  0
 17 18  1  0
 18 19  2  0
  9 20  1  0
 20 21  1  0
 21 22  2  0
 22  4  1  0
 21  7  1  0
 19 15  1  0
  1 23  1  0
  1 24  1  0
  1 25  1  0
  2 26  1  0
  2 27  1  0
  5 28  1  0
  6 29  1  0
 10 30  1  0
 13 31  1  0
 13 32  1  0
 14 33  1  0
 14 34  1  0
 16 35  1  0
 17 36  1  0
 18 37  1  0
 19 38  1  0
 22 39  1  0
M  END
$$$$
