
     RDKit          3D

 67 72  0  0  0  0  0  0  0  0999 V2000
    2.1665   -1.1639   -2.2814 O   0  0  0  0  0  0  0  0  0  0  0  0
    2.2903   -0.9237   -1.0783 C   0  0  0  0  0  0  0  0  0  0  0  0
    1.0694   -0.6387   -0.2040 C   0  0  0  0  0  0  0  0  0  0  0  0
    0.7942   -1.8087    0.7619 C   0  0  0  0  0  0  0  0  0  0  0  0
   -0.5215   -2.5176    0.4568 C   0  0  0  0  0  0  0  0  0  0  0  0
   -1.6997   -1.5394    0.4382 C   0  0  0  0  0  0  0  0  0  0  0  0
   -1.3511   -0.2964   -0.2544 N   0  0  0  0  0  0  0  0  0  0  0  0
   -2.4074    0.5277   -0.6567 C   0  0  0  0  0  0  0  0  0  0  0  0
   -2.1850    1.4637   -1.6306 N   0  0  0  0  0  0  0  0  0  0  0  0
   -3.1834    2.2798   -2.0235 C   0  0  0  0  0  0  0  0  0  0  0  0
   -4.4471    2.3241   -1.5717 N   0  0  0  0  0  0  0  0  0  0  0  0
   -4.6393    1.4095   -0.6089 C   0  0  0  0  0  0  0  0  0  0  0  0
   -3.7168    0.5049   -0.1040 C   0  0  0  0  0  0  0  0  0  0  0  0
   -4.3092   -0.2712    0.8802 N   0  0  0  0  0  0  0  0  0  0  0  0
   -5.5584    0.1438    0.9644 C   0  0  0  0  0  0  0  0  0  0  0  0
   -5.7947    1.1702    0.0827 N   0  0  0  0  0  0  0  0  0  0  0  0
   -7.0520    1.8636   -0.0935 C   0  0  0  0  0  0  0  0  0  0  0  0
   -8.1772    0.9453   -0.5650 C   0  0  0  0  0  0  0  0  0  0  0  0
   -8.7511    0.0495    0.5355 C   0  0  0  0  0  0  0  0  0  0  0  0
   -7.7848   -1.0029    1.0853 C   0  0  0  0  0  0  0  0  0  0  0  0
   -6.6068   -0.4165    1.8633 C   0  0  0  0  0  0  0  0  0  0  0  0
   -0.1467   -0.3095   -1.0885 C   0  0  0  0  0  0  0  0  0  0  0  0
    3.5427   -0.9558   -0.4619 N   0  0  0  0  0  0  0  0  0  0  0  0
    3.8281   -0.2761    0.8150 C   0  0  0  0  0  0  0  0  0  0  0  0
    5.1010   -0.7999    1.5100 C   0  0  0  0  0  0  0  0  0  0  0  0
    6.2534   -0.7941    0.5817 N   0  0  0  0  0  0  0  0  0  0  0  0
    7.0044    0.3817    0.5055 C   0  0  0  0  0  0  0  0  0  0  0  0
    7.3982    0.9726   -0.7054 C   0  0  0  0  0  0  0  0  0  0  0  0
    8.1613    2.1475   -0.7441 C   0  0  0  0  0  0  0  0  0  0  0  0
    8.5716    2.7559    0.4355 C   0  0  0  0  0  0  0  0  0  0  0  0
    8.2260    2.1817    1.6512 C   0  0  0  0  0  0  0  0  0  0  0  0
    7.4595    1.0098    1.6798 C   0  0  0  0  0  0  0  0  0  0  0  0
    5.9741   -1.5944   -0.6287 C   0  0  0  0  0  0  0  0  0  0  0  0
    4.7040   -1.1123   -1.3524 C   0  0  0  0  0  0  0  0  0  0  0  0
    1.2803    0.2634    0.3847 H   0  0  0  0  0  0  0  0  0  0  0  0
    1.6083   -2.5433    0.7536 H   0  0  0  0  0  0  0  0  0  0  0  0
    0.7449   -1.4146    1.7858 H   0  0  0  0  0  0  0  0  0  0  0  0
   -0.7085   -3.3036    1.1970 H   0  0  0  0  0  0  0  0  0  0  0  0
   -0.4429   -3.0200   -0.5161 H   0  0  0  0  0  0  0  0  0  0  0  0
   -1.9773   -1.3081    1.4737 H   0  0  0  0  0  0  0  0  0  0  0  0
   -2.5446   -2.0463   -0.0450 H   0  0  0  0  0  0  0  0  0  0  0  0
   -2.9303    2.9900   -2.8051 H   0  0  0  0  0  0  0  0  0  0  0  0
   -6.9015    2.6565   -0.8338 H   0  0  0  0  0  0  0  0  0  0  0  0
   -7.2974    2.3494    0.8573 H   0  0  0  0  0  0  0  0  0  0  0  0
   -7.8408    0.3290   -1.4090 H   0  0  0  0  0  0  0  0  0  0  0  0
   -8.9942    1.5748   -0.9389 H   0  0  0  0  0  0  0  0  0  0  0  0
   -9.6227   -0.4743    0.1231 H   0  0  0  0  0  0  0  0  0  0  0  0
   -9.1266    0.6713    1.3577 H   0  0  0  0  0  0  0  0  0  0  0  0
   -8.3529   -1.6496    1.7661 H   0  0  0  0  0  0  0  0  0  0  0  0
   -7.4275   -1.6427    0.2677 H   0  0  0  0  0  0  0  0  0  0  0  0
   -6.1533   -1.2161    2.4620 H   0  0  0  0  0  0  0  0  0  0  0  0
   -6.9482    0.3489    2.5704 H   0  0  0  0  0  0  0  0  0  0  0  0
    0.0521    0.6624   -1.5568 H   0  0  0  0  0  0  0  0  0  0  0  0
   -0.2776   -1.0314   -1.9043 H   0  0  0  0  0  0  0  0  0  0  0  0
    2.9910   -0.3922    1.5052 H   0  0  0  0  0  0  0  0  0  0  0  0
    3.9262    0.7927    0.5913 H   0  0  0  0  0  0  0  0  0  0  0  0
    5.2769   -0.2320    2.4289 H   0  0  0  0  0  0  0  0  0  0  0  0
    4.9282   -1.8374    1.8256 H   0  0  0  0  0  0  0  0  0  0  0  0
    7.1136    0.5450   -1.6610 H   0  0  0  0  0  0  0  0  0  0  0  0
    8.4386    2.5784   -1.7031 H   0  0  0  0  0  0  0  0  0  0  0  0
    9.1724    3.6614    0.4053 H   0  0  0  0  0  0  0  0  0  0  0  0
    8.5629    2.6315    2.5817 H   0  0  0  0  0  0  0  0  0  0  0  0
    7.2573    0.5648    2.6498 H   0  0  0  0  0  0  0  0  0  0  0  0
    6.8319   -1.6275   -1.3099 H   0  0  0  0  0  0  0  0  0  0  0  0
    5.8150   -2.6327   -0.3079 H   0  0  0  0  0  0  0  0  0  0  0  0
    4.4629   -1.8207   -2.1531 H   0  0  0  0  0  0  0  0  0  0  0  0
    4.8714   -0.1370   -1.8233 H   0  0  0  0  0  0  0  0  0  0  0  0
  1  2  2  0
  2  3  1  0
  3  4  1  0
  4  5  1  0
  5  6  1  0
  6  7  1  0
  7  8  1  0
  8  9  2  0
  9 10  1  0
 10 11  2  0
 11 12  1  0
 12 13  2  0
 13 14  1  0
 14 15  2  0
 15 16  1  0
 16 17  1  0
 17 18  1  0
 18 19  1  0
 19 20  1  0
 20 21  1  0
  7 22  1  0
  2 23  1  0
 23 24  1  0
 24 25  1  0
 25 26  1  0
 26 27  1  0
 27 28  2  0
 28 29  1  0
 29 30  2  0
 30 31  1  0
 31 32  2  0
 26 33  1  0
 33 34  1  0
 22  3  1  0
 34 23  1  0
 13  8  1  0
 21 15  1  0
 32 27  1  0
 16 12  1  0
  3 35  1  0
  4 36  1  0
  4 37  1  0
  5 38  1  0
  5 39  1  0
  6 40  1  0
  6 41  1  0
 10 42  1  0
 17 43  1  0
 17 44  1  0
 18 45  1  0
 18 46  1  0
 19 47  1  0
 19 48  1  0
 20 49  1  0
 20 50  1  0
 21 51  1  0
 21 52  1  0
 22 53  1  0
 22 54  1  0
 24 55  1  0
 24 56  1  0
 25 57  1  0
 25 58  1  0
 28 59  1  0
 29 60  1  0
 30 61  1  0
 31 62  1  0
 32 63  1  0
 33 64  1  0
 33 65  1  0
 34 66  1  0
 34 67  1  0
M  END
$$$$
