
     RDKit          3D

 33 35  0  0  0  0  0  0  0  0999 V2000
    1.0746   -1.7525    1.7040 O   0  0  0  0  0  0  0  0  0  0  0  0
    1.1164   -1.1663    0.6311 C   0  0  0  0  0  0  0  0  0  0  0  0
    2.3586   -0.7126   -0.0526 C   0  0  0  0  0  0  0  0  0  0  0  0
    3.5565   -0.9299    0.5073 C   0  0  0  0  0  0  0  0  0  0  0  0
    4.8103   -0.5571   -0.0581 C   0  0  0  0  0  0  0  0  0  0  0  0
    5.2139    0.5966   -0.7098 C   0  0  0  0  0  0  0  0  0  0  0  0
    6.5813    0.5645   -1.1127 C   0  0  0  0  0  0  0  0  0  0  0  0
    7.1976   -0.6072   -0.7435 C   0  0  0  0  0  0  0  0  0  0  0  0
    6.1368   -1.6523    0.0902 S   0  0  0  0  0  0  0  0  0  0  0  0
    1.9677    0.0143   -1.5689 S   0  0  0  0  0  0  0  0  0  0  0  0
    0.2346   -0.2156   -1.3582 C   0  0  0  0  0  0  0  0  0  0  0  0
   -0.8998    0.2490   -2.4858 S   0  0  0  0  0  0  0  0  0  0  0  0
    0.0234   -0.8482   -0.1534 N   0  0  0  0  0  0  0  0  0  0  0  0
   -1.3665   -1.1028    0.4090 N   0  0  0  0  0  0  0  0  0  0  0  0
   -1.8926    0.1456    1.4576 S   0  0  0  0  0  6  0  0  0  0  0  0
   -1.0597    1.3083    1.2301 O   0  0  0  0  0  0  0  0  0  0  0  0
   -2.0294   -0.4508    2.7677 O   0  0  0  0  0  0  0  0  0  0  0  0
   -3.5174    0.4698    0.8290 C   0  0  0  0  0  0  0  0  0  0  0  0
   -4.5875   -0.3268    1.2499 C   0  0  0  0  0  0  0  0  0  0  0  0
   -5.8711   -0.0595    0.7738 C   0  0  0  0  0  0  0  0  0  0  0  0
   -6.0821    1.0018   -0.1080 C   0  0  0  0  0  0  0  0  0  0  0  0
   -5.0134    1.8039   -0.5119 C   0  0  0  0  0  0  0  0  0  0  0  0
   -3.7270    1.5448   -0.0389 C   0  0  0  0  0  0  0  0  0  0  0  0
    3.5947   -1.4610    1.4591 H   0  0  0  0  0  0  0  0  0  0  0  0
    4.5628    1.4438   -0.8898 H   0  0  0  0  0  0  0  0  0  0  0  0
    7.0859    1.3649   -1.6400 H   0  0  0  0  0  0  0  0  0  0  0  0
    8.2250   -0.8979   -0.9150 H   0  0  0  0  0  0  0  0  0  0  0  0
   -1.3799   -1.9681    0.9642 H   0  0  0  0  0  0  0  0  0  0  0  0
   -4.4335   -1.1473    1.9469 H   0  0  0  0  0  0  0  0  0  0  0  0
   -6.7096   -0.6740    1.0930 H   0  0  0  0  0  0  0  0  0  0  0  0
   -7.0839    1.2087   -0.4775 H   0  0  0  0  0  0  0  0  0  0  0  0
   -5.1843    2.6334   -1.1942 H   0  0  0  0  0  0  0  0  0  0  0  0
   -2.9025    2.1806   -0.3534 H   0  0  0  0  0  0  0  0  0  0  0  0
  1  2  2  0
  2  3  1  0
  3  4  2  3
  4  5  1  0
  5  6  2  0
  6  7  1  0
  7  8  2  0
  8  9  1  0
  3 10  1  0
 10 11  1  0
 11 12  2  0
 11 13  1  0
 13 14  1  0
 14 15  1  0
 15 16  2  0
 15 17  2  0
 15 18  1  0
 18 19  2  0
 19 20  1  0
 20 21  2  0
 21 22  1  0
 22 23  2  0
 13  2  1  0
 23 18  1  0
  9  5  1  0
  4 24  1  0
  6 25  1  0
  7 26  1  0
  8 27  1  0
 14 28  1  0
 19 29  1  0
 20 30  1  0
 21 31  1  0
 22 32  1  0
 23 33  1  0
M  END
$$$$
