
     RDKit          3D

 47 49  0  0  0  0  0  0  0  0999 V2000
    7.5236   -0.5191   -1.0307 C   0  0  0  0  0  0  0  0  0  0  0  0
    6.9773   -0.3519    0.3764 C   0  0  0  0  0  0  0  0  0  0  0  0
    5.8540   -1.2050    0.5888 O   0  0  0  0  0  0  0  0  0  0  0  0
    4.6047   -0.7417    0.2888 C   0  0  0  0  0  0  0  0  0  0  0  0
    3.5669   -1.6098    0.6346 C   0  0  0  0  0  0  0  0  0  0  0  0
    2.2322   -1.2737    0.3853 C   0  0  0  0  0  0  0  0  0  0  0  0
    1.9170   -0.0487   -0.2095 C   0  0  0  0  0  0  0  0  0  0  0  0
    0.5551    0.3125   -0.4610 N   0  0  0  0  0  0  0  0  0  0  0  0
    0.0312    1.6112   -0.4806 C   0  0  0  0  0  0  0  0  0  0  0  0
    0.6916    2.7005   -0.0830 O   0  0  0  0  0  0  0  0  0  0  0  0
   -1.2754    1.5457   -0.9148 C   0  0  0  0  0  0  0  0  0  0  0  0
   -1.6219    0.1867   -1.0311 C   0  0  0  0  0  0  0  0  0  0  0  0
   -2.8361   -0.3419   -1.3742 N   0  0  0  0  0  0  0  0  0  0  0  0
   -3.7332    0.4651   -2.2060 C   0  0  0  0  0  0  0  0  0  0  0  0
   -3.5204   -1.2210   -0.4020 C   0  0  0  0  0  0  0  0  0  0  0  0
   -4.3379   -0.4594    0.6211 C   0  0  0  0  0  0  0  0  0  0  0  0
   -5.7352   -0.3890    0.5110 C   0  0  0  0  0  0  0  0  0  0  0  0
   -6.4867    0.3162    1.4530 C   0  0  0  0  0  0  0  0  0  0  0  0
   -5.8512    0.9588    2.5136 C   0  0  0  0  0  0  0  0  0  0  0  0
   -4.4645    0.8975    2.6340 C   0  0  0  0  0  0  0  0  0  0  0  0
   -3.7118    0.1922    1.6939 C   0  0  0  0  0  0  0  0  0  0  0  0
   -0.4897   -0.5587   -0.7701 C   0  0  0  0  0  0  0  0  0  0  0  0
   -0.3260   -1.8768   -0.8961 O   0  0  0  0  0  0  0  0  0  0  0  0
    2.9593    0.8151   -0.5756 C   0  0  0  0  0  0  0  0  0  0  0  0
    4.2945    0.4691   -0.3263 C   0  0  0  0  0  0  0  0  0  0  0  0
    7.7662   -1.5693   -1.2249 H   0  0  0  0  0  0  0  0  0  0  0  0
    8.4275    0.0812   -1.1680 H   0  0  0  0  0  0  0  0  0  0  0  0
    6.7892   -0.2197   -1.7841 H   0  0  0  0  0  0  0  0  0  0  0  0
    6.7641    0.6943    0.6216 H   0  0  0  0  0  0  0  0  0  0  0  0
    7.7480   -0.6741    1.0860 H   0  0  0  0  0  0  0  0  0  0  0  0
    3.7980   -2.5623    1.1063 H   0  0  0  0  0  0  0  0  0  0  0  0
    1.4602   -1.9745    0.6920 H   0  0  0  0  0  0  0  0  0  0  0  0
    1.3971    2.4269    0.5303 H   0  0  0  0  0  0  0  0  0  0  0  0
   -1.9232    2.4025   -1.0356 H   0  0  0  0  0  0  0  0  0  0  0  0
   -4.5637   -0.1449   -2.5783 H   0  0  0  0  0  0  0  0  0  0  0  0
   -3.2030    0.8503   -3.0846 H   0  0  0  0  0  0  0  0  0  0  0  0
   -4.1484    1.3128   -1.6501 H   0  0  0  0  0  0  0  0  0  0  0  0
   -2.8116   -1.8689    0.1292 H   0  0  0  0  0  0  0  0  0  0  0  0
   -4.1716   -1.9107   -0.9547 H   0  0  0  0  0  0  0  0  0  0  0  0
   -6.2476   -0.8819   -0.3119 H   0  0  0  0  0  0  0  0  0  0  0  0
   -7.5683    0.3658    1.3587 H   0  0  0  0  0  0  0  0  0  0  0  0
   -6.4360    1.5094    3.2457 H   0  0  0  0  0  0  0  0  0  0  0  0
   -3.9665    1.4017    3.4581 H   0  0  0  0  0  0  0  0  0  0  0  0
   -2.6291    0.1575    1.7970 H   0  0  0  0  0  0  0  0  0  0  0  0
   -1.1278   -2.1732   -1.3678 H   0  0  0  0  0  0  0  0  0  0  0  0
    2.7648    1.7420   -1.1119 H   0  0  0  0  0  0  0  0  0  0  0  0
    5.0642    1.1615   -0.6495 H   0  0  0  0  0  0  0  0  0  0  0  0
  1  2  1  0
  2  3  1  0
  3  4  1  0
  4  5  2  0
  5  6  1  0
  6  7  2  0
  7  8  1  0
  8  9  1  0
  9 10  1  0
  9 11  2  0
 11 12  1  0
 12 13  1  0
 13 14  1  0
 13 15  1  0
 15 16  1  0
 16 17  2  0
 17 18  1  0
 18 19  2  0
 19 20  1  0
 20 21  2  0
 12 22  2  0
 22 23  1  0
  7 24  1  0
 24 25  2  0
 25  4  1  0
 22  8  1  0
 21 16  1  0
  1 26  1  0
  1 27  1  0
  1 28  1  0
  2 29  1  0
  2 30  1  0
  5 31  1  0
  6 32  1  0
 10 33  1  0
 11 34  1  0
 14 35  1  0
 14 36  1  0
 14 37  1  0
 15 38  1  0
 15 39  1  0
 17 40  1  0
 18 41  1  0
 19 42  1  0
 20 43  1  0
 21 44  1  0
 23 45  1  0
 24 46  1  0
 25 47  1  0
M  END
$$$$
