
     RDKit          3D

 47 50  0  0  0  0  0  0  0  0999 V2000
   -2.6895    2.0113   -0.4058 O   0  0  0  0  0  0  0  0  0  0  0  0
   -3.1109    0.9196   -0.0056 C   0  0  0  0  0  0  0  0  0  0  0  0
   -4.4462    0.8056    0.7874 C   0  0  0  0  0  0  0  0  0  0  0  0
   -4.3593    0.8530    2.3394 C   0  0  0  0  0  0  0  0  0  0  0  0
   -5.6883    1.6298    2.3291 C   0  0  0  0  0  0  0  0  0  0  0  0
   -5.3293    2.0837    0.9027 C   0  0  0  0  0  0  0  0  0  0  0  0
   -2.4354   -0.2779   -0.2227 N   0  0  0  0  0  0  0  0  0  0  0  0
   -2.8748   -1.6039    0.2416 C   0  0  0  0  0  0  0  0  0  0  0  0
   -1.7704   -2.6086   -0.1074 C   0  0  0  0  0  0  0  0  0  0  0  0
   -0.8383   -1.7743   -0.9251 C   0  0  0  0  0  0  0  0  0  0  0  0
    0.3149   -2.1971   -1.5706 C   0  0  0  0  0  0  0  0  0  0  0  0
    1.0603   -1.2399   -2.2643 C   0  0  0  0  0  0  0  0  0  0  0  0
    2.5644   -1.7128   -3.0813 S   0  0  0  0  0  6  0  0  0  0  0  0
    2.8521   -3.0934   -2.7619 O   0  0  0  0  0  0  0  0  0  0  0  0
    2.4824   -1.2394   -4.4438 O   0  0  0  0  0  0  0  0  0  0  0  0
    3.6860   -0.7619   -2.3001 N   0  0  0  0  0  0  0  0  0  0  0  0
    4.1926   -1.1975   -0.9986 C   0  0  0  0  0  0  0  0  0  0  0  0
    4.6675   -0.0206   -0.1737 C   0  0  0  0  0  0  0  0  0  0  0  0
    3.7434    0.7790    0.4983 C   0  0  0  0  0  0  0  0  0  0  0  0
    4.2033    1.8793    1.2158 C   0  0  0  0  0  0  0  0  0  0  0  0
    5.5645    2.1568    1.2378 C   0  0  0  0  0  0  0  0  0  0  0  0
    6.4141    1.3211    0.5333 C   0  0  0  0  0  0  0  0  0  0  0  0
    5.9983    0.2470   -0.1735 N   0  0  0  0  0  0  0  0  0  0  0  0
    0.6553    0.1052   -2.3110 C   0  0  0  0  0  0  0  0  0  0  0  0
   -0.5058    0.5121   -1.6458 C   0  0  0  0  0  0  0  0  0  0  0  0
   -1.2438   -0.4368   -0.9552 C   0  0  0  0  0  0  0  0  0  0  0  0
   -5.0601   -0.0360    0.4349 H   0  0  0  0  0  0  0  0  0  0  0  0
   -3.5107    1.4306    2.7245 H   0  0  0  0  0  0  0  0  0  0  0  0
   -4.3900   -0.1137    2.8486 H   0  0  0  0  0  0  0  0  0  0  0  0
   -6.5750    0.9874    2.3775 H   0  0  0  0  0  0  0  0  0  0  0  0
   -5.7815    2.4245    3.0732 H   0  0  0  0  0  0  0  0  0  0  0  0
   -4.7767    3.0299    0.8727 H   0  0  0  0  0  0  0  0  0  0  0  0
   -6.1686    2.1429    0.2045 H   0  0  0  0  0  0  0  0  0  0  0  0
   -3.8099   -1.8566   -0.2714 H   0  0  0  0  0  0  0  0  0  0  0  0
   -3.0696   -1.5787    1.3183 H   0  0  0  0  0  0  0  0  0  0  0  0
   -2.1673   -3.4564   -0.6736 H   0  0  0  0  0  0  0  0  0  0  0  0
   -1.2704   -2.9701    0.7968 H   0  0  0  0  0  0  0  0  0  0  0  0
    0.6255   -3.2375   -1.5331 H   0  0  0  0  0  0  0  0  0  0  0  0
    4.3305   -0.2587   -2.9081 H   0  0  0  0  0  0  0  0  0  0  0  0
    5.0314   -1.8846   -1.1578 H   0  0  0  0  0  0  0  0  0  0  0  0
    3.4271   -1.7356   -0.4286 H   0  0  0  0  0  0  0  0  0  0  0  0
    2.6812    0.5575    0.4576 H   0  0  0  0  0  0  0  0  0  0  0  0
    3.5035    2.5181    1.7474 H   0  0  0  0  0  0  0  0  0  0  0  0
    5.9537    3.0075    1.7857 H   0  0  0  0  0  0  0  0  0  0  0  0
    7.4856    1.4999    0.5158 H   0  0  0  0  0  0  0  0  0  0  0  0
    1.2422    0.8370   -2.8628 H   0  0  0  0  0  0  0  0  0  0  0  0
   -0.8079    1.5533   -1.6912 H   0  0  0  0  0  0  0  0  0  0  0  0
  1  2  2  0
  2  3  1  0
  3  4  1  0
  4  5  1  0
  5  6  1  0
  2  7  1  0
  7  8  1  0
  8  9  1  0
  9 10  1  0
 10 11  2  0
 11 12  1  0
 12 13  1  0
 13 14  2  0
 13 15  2  0
 13 16  1  0
 16 17  1  0
 17 18  1  0
 18 19  2  0
 19 20  1  0
 20 21  2  0
 21 22  1  0
 22 23  2  0
 12 24  2  0
 24 25  1  0
 25 26  2  0
  6  3  1  0
 26  7  1  0
 26 10  1  0
 23 18  1  0
  3 27  1  0
  4 28  1  0
  4 29  1  0
  5 30  1  0
  5 31  1  0
  6 32  1  0
  6 33  1  0
  8 34  1  0
  8 35  1  0
  9 36  1  0
  9 37  1  0
 11 38  1  0
 16 39  1  0
 17 40  1  0
 17 41  1  0
 19 42  1  0
 20 43  1  0
 21 44  1  0
 22 45  1  0
 24 46  1  0
 25 47  1  0
M  END
$$$$
