
     RDKit          3D

 61 65  0  0  0  0  0  0  0  0999 V2000
   -4.3900   -3.4783   -2.0783 C   0  0  0  0  0  0  0  0  0  0  0  0
   -3.4271   -3.0676   -1.0513 N   0  0  0  0  0  0  0  0  0  0  0  0
   -2.1075   -3.6189   -1.3735 C   0  0  0  0  0  0  0  0  0  0  0  0
   -3.4027   -1.5945   -0.9418 C   0  0  0  0  0  0  0  0  0  0  0  0
   -2.7161   -1.0844    0.3460 C   0  0  0  0  0  0  0  0  0  0  0  0
   -2.7070    0.3942    0.4077 N   0  0  0  0  0  0  0  0  0  0  0  0
   -1.7152    1.1204   -0.2586 C   0  0  0  0  0  0  0  0  0  0  0  0
   -1.8628    2.1803   -0.8606 O   0  0  0  0  0  0  0  0  0  0  0  0
   -0.3390    0.5628   -0.2533 C   0  0  0  0  0  0  0  0  0  0  0  0
    0.3631    0.4677   -1.4598 C   0  0  0  0  0  0  0  0  0  0  0  0
    1.6629   -0.0384   -1.4645 C   0  0  0  0  0  0  0  0  0  0  0  0
    2.2545   -0.4303   -0.2572 C   0  0  0  0  0  0  0  0  0  0  0  0
    3.9092   -1.0964   -0.2832 S   0  0  0  0  0  6  0  0  0  0  0  0
    3.9831   -1.9466   -1.4532 O   0  0  0  0  0  0  0  0  0  0  0  0
    4.1878   -1.6175    1.0398 O   0  0  0  0  0  0  0  0  0  0  0  0
    4.8427    0.3070   -0.5226 N   0  0  0  0  0  0  0  0  0  0  0  0
    4.7049    1.3785    0.5241 C   0  0  0  0  0  0  0  0  0  0  0  0
    6.0457    2.1295    0.5558 C   0  0  0  0  0  0  0  0  0  0  0  0
    6.9650    1.1565   -0.1029 C   0  0  0  0  0  0  0  0  0  0  0  0
    8.3457    1.2347   -0.1988 C   0  0  0  0  0  0  0  0  0  0  0  0
    9.0153    0.2559   -0.9339 C   0  0  0  0  0  0  0  0  0  0  0  0
    8.2997   -0.7655   -1.5760 C   0  0  0  0  0  0  0  0  0  0  0  0
    6.9057   -0.8266   -1.4799 C   0  0  0  0  0  0  0  0  0  0  0  0
    6.2538    0.1221   -0.7104 C   0  0  0  0  0  0  0  0  0  0  0  0
    1.5609   -0.3284    0.9531 C   0  0  0  0  0  0  0  0  0  0  0  0
    0.2645    0.1842    0.9556 C   0  0  0  0  0  0  0  0  0  0  0  0
   -3.8602    1.0344    0.8804 C   0  0  0  0  0  0  0  0  0  0  0  0
   -4.9194    0.3755    1.2997 N   0  0  0  0  0  0  0  0  0  0  0  0
   -5.8732    1.2490    1.7840 C   0  0  0  0  0  0  0  0  0  0  0  0
   -7.1367    0.8930    2.3024 C   0  0  0  0  0  0  0  0  0  0  0  0
   -8.0012    1.8912    2.7623 C   0  0  0  0  0  0  0  0  0  0  0  0
   -7.6151    3.2229    2.7041 C   0  0  0  0  0  0  0  0  0  0  0  0
   -8.4576    4.1649    3.1488 F   0  0  0  0  0  0  0  0  0  0  0  0
   -6.3755    3.6092    2.1987 C   0  0  0  0  0  0  0  0  0  0  0  0
   -5.5148    2.5988    1.7460 C   0  0  0  0  0  0  0  0  0  0  0  0
   -3.9297    2.7297    1.0994 S   0  0  0  0  0  0  0  0  0  0  0  0
   -4.4608   -4.5708   -2.1265 H   0  0  0  0  0  0  0  0  0  0  0  0
   -4.1142   -3.1075   -3.0707 H   0  0  0  0  0  0  0  0  0  0  0  0
   -5.3940   -3.1129   -1.8371 H   0  0  0  0  0  0  0  0  0  0  0  0
   -1.7209   -3.2426   -2.3277 H   0  0  0  0  0  0  0  0  0  0  0  0
   -2.1500   -4.7123   -1.4288 H   0  0  0  0  0  0  0  0  0  0  0  0
   -1.3771   -3.3892   -0.5908 H   0  0  0  0  0  0  0  0  0  0  0  0
   -2.9290   -1.1477   -1.8271 H   0  0  0  0  0  0  0  0  0  0  0  0
   -4.4354   -1.2193   -0.9287 H   0  0  0  0  0  0  0  0  0  0  0  0
   -3.2200   -1.4785    1.2373 H   0  0  0  0  0  0  0  0  0  0  0  0
   -1.6932   -1.4612    0.3864 H   0  0  0  0  0  0  0  0  0  0  0  0
   -0.1004    0.7878   -2.3916 H   0  0  0  0  0  0  0  0  0  0  0  0
    2.2067   -0.1264   -2.4013 H   0  0  0  0  0  0  0  0  0  0  0  0
    4.5138    0.9384    1.5098 H   0  0  0  0  0  0  0  0  0  0  0  0
    3.8818    2.0564    0.2782 H   0  0  0  0  0  0  0  0  0  0  0  0
    6.3469    2.3675    1.5806 H   0  0  0  0  0  0  0  0  0  0  0  0
    5.9893    3.0516   -0.0343 H   0  0  0  0  0  0  0  0  0  0  0  0
    8.8959    2.0428    0.2736 H   0  0  0  0  0  0  0  0  0  0  0  0
   10.0983    0.2938   -1.0252 H   0  0  0  0  0  0  0  0  0  0  0  0
    8.8312   -1.5108   -2.1629 H   0  0  0  0  0  0  0  0  0  0  0  0
    6.3676   -1.6055   -2.0089 H   0  0  0  0  0  0  0  0  0  0  0  0
    2.0201   -0.6414    1.8874 H   0  0  0  0  0  0  0  0  0  0  0  0
   -0.2744    0.2840    1.8962 H   0  0  0  0  0  0  0  0  0  0  0  0
   -7.4246   -0.1518    2.3363 H   0  0  0  0  0  0  0  0  0  0  0  0
   -8.9764    1.6310    3.1624 H   0  0  0  0  0  0  0  0  0  0  0  0
   -6.0950    4.6557    2.1654 H   0  0  0  0  0  0  0  0  0  0  0  0
  1  2  1  0
  2  3  1  0
  2  4  1  0
  4  5  1  0
  5  6  1  0
  6  7  1  0
  7  8  2  0
  7  9  1  0
  9 10  2  0
 10 11  1  0
 11 12  2  0
 12 13  1  0
 13 14  2  0
 13 15  2  0
 13 16  1  0
 16 17  1  0
 17 18  1  0
 18 19  1  0
 19 20  2  0
 20 21  1  0
 21 22  2  0
 22 23  1  0
 23 24  2  0
 12 25  1  0
 25 26  2  0
  6 27  1  0
 27 28  2  0
 28 29  1  0
 29 30  2  0
 30 31  1  0
 31 32  2  0
 32 33  1  0
 32 34  1  0
 34 35  2  0
 35 36  1  0
 26  9  1  0
 36 27  1  0
 24 16  1  0
 35 29  1  0
 24 19  1  0
  1 37  1  0
  1 38  1  0
  1 39  1  0
  3 40  1  0
  3 41  1  0
  3 42  1  0
  4 43  1  0
  4 44  1  0
  5 45  1  0
  5 46  1  0
 10 47  1  0
 11 48  1  0
 17 49  1  0
 17 50  1  0
 18 51  1  0
 18 52  1  0
 20 53  1  0
 21 54  1  0
 22 55  1  0
 23 56  1  0
 25 57  1  0
 26 58  1  0
 30 59  1  0
 31 60  1  0
 34 61  1  0
M  END
$$$$
