
     RDKit          3D

 49 51  0  0  0  0  0  0  0  0999 V2000
    6.3585   -1.9265   -1.5805 C   0  0  0  0  0  0  0  0  0  0  0  0
    5.9694   -0.8953   -0.5612 C   0  0  0  0  0  0  0  0  0  0  0  0
    6.9438   -0.3046    0.2529 C   0  0  0  0  0  0  0  0  0  0  0  0
    6.5950    0.6927    1.1644 C   0  0  0  0  0  0  0  0  0  0  0  0
    5.2706    1.1061    1.2673 C   0  0  0  0  0  0  0  0  0  0  0  0
    5.0120    2.1101    2.1618 O   0  0  0  0  0  0  0  0  0  0  0  0
    4.2752    0.5119    0.4801 C   0  0  0  0  0  0  0  0  0  0  0  0
    2.8676    0.9606    0.6272 C   0  0  0  0  0  0  0  0  0  0  0  0
    2.6517    2.1116    1.0067 O   0  0  0  0  0  0  0  0  0  0  0  0
    1.7162    0.0766    0.3589 C   0  0  0  0  0  0  0  0  0  0  0  0
    1.7272   -1.2747    0.6753 C   0  0  0  0  0  0  0  0  0  0  0  0
    0.6860   -2.1090    0.4407 N   0  0  0  0  0  0  0  0  0  0  0  0
   -0.4259   -1.5621   -0.0930 C   0  0  0  0  0  0  0  0  0  0  0  0
   -0.5481   -0.2233   -0.4160 C   0  0  0  0  0  0  0  0  0  0  0  0
    0.5479    0.6130   -0.1845 C   0  0  0  0  0  0  0  0  0  0  0  0
   -1.8035    0.2653   -1.0527 C   0  0  0  0  0  0  0  0  0  0  0  0
   -2.9104   -0.6735   -0.9811 N   0  0  0  0  0  0  0  0  0  0  0  0
   -4.2228   -0.2091   -1.4228 C   0  0  0  0  0  0  0  0  0  0  0  0
   -5.2332   -0.0810   -0.2756 C   0  0  0  0  0  0  0  0  0  0  0  0
   -4.8876    0.9831    0.7836 C   0  0  0  0  0  0  0  0  0  0  0  0
   -5.8679    0.8830    1.9560 C   0  0  0  0  0  0  0  0  0  0  0  0
   -4.9196    2.4012    0.2113 C   0  0  0  0  0  0  0  0  0  0  0  0
   -2.7278   -2.0177   -0.7319 C   0  0  0  0  0  0  0  0  0  0  0  0
   -3.6222   -2.8541   -0.8430 O   0  0  0  0  0  0  0  0  0  0  0  0
   -1.4938   -2.4049   -0.3188 N   0  0  0  0  0  0  0  0  0  0  0  0
    4.6369   -0.4681   -0.4565 C   0  0  0  0  0  0  0  0  0  0  0  0
    6.5929   -1.4410   -2.5328 H   0  0  0  0  0  0  0  0  0  0  0  0
    5.5464   -2.6440   -1.7379 H   0  0  0  0  0  0  0  0  0  0  0  0
    7.2335   -2.4948   -1.2478 H   0  0  0  0  0  0  0  0  0  0  0  0
    7.9859   -0.6085    0.1748 H   0  0  0  0  0  0  0  0  0  0  0  0
    7.3572    1.1568    1.7851 H   0  0  0  0  0  0  0  0  0  0  0  0
    4.1062    2.4474    1.9799 H   0  0  0  0  0  0  0  0  0  0  0  0
    2.5821   -1.7504    1.1483 H   0  0  0  0  0  0  0  0  0  0  0  0
    0.4959    1.6726   -0.4268 H   0  0  0  0  0  0  0  0  0  0  0  0
   -2.1182    1.1933   -0.5639 H   0  0  0  0  0  0  0  0  0  0  0  0
   -1.6160    0.4711   -2.1130 H   0  0  0  0  0  0  0  0  0  0  0  0
   -4.1123    0.7370   -1.9631 H   0  0  0  0  0  0  0  0  0  0  0  0
   -4.6115   -0.9351   -2.1478 H   0  0  0  0  0  0  0  0  0  0  0  0
   -6.2163    0.1472   -0.7073 H   0  0  0  0  0  0  0  0  0  0  0  0
   -5.3340   -1.0547    0.2201 H   0  0  0  0  0  0  0  0  0  0  0  0
   -3.8829    0.7890    1.1777 H   0  0  0  0  0  0  0  0  0  0  0  0
   -5.6204    1.6132    2.7339 H   0  0  0  0  0  0  0  0  0  0  0  0
   -5.8301   -0.1124    2.4111 H   0  0  0  0  0  0  0  0  0  0  0  0
   -6.8973    1.0691    1.6312 H   0  0  0  0  0  0  0  0  0  0  0  0
   -4.7134    3.1390    0.9944 H   0  0  0  0  0  0  0  0  0  0  0  0
   -5.8996    2.6329   -0.2194 H   0  0  0  0  0  0  0  0  0  0  0  0
   -4.1660    2.5384   -0.5690 H   0  0  0  0  0  0  0  0  0  0  0  0
   -1.3735   -3.3771   -0.0780 H   0  0  0  0  0  0  0  0  0  0  0  0
    3.8963   -0.9001   -1.1260 H   0  0  0  0  0  0  0  0  0  0  0  0
  1  2  1  0
  2  3  2  0
  3  4  1  0
  4  5  2  0
  5  6  1  0
  5  7  1  0
  7  8  1  0
  8  9  2  0
  8 10  1  0
 10 11  2  0
 11 12  1  0
 12 13  2  0
 13 14  1  0
 14 15  2  0
 14 16  1  0
 16 17  1  0
 17 18  1  0
 18 19  1  0
 19 20  1  0
 20 21  1  0
 20 22  1  0
 17 23  1  0
 23 24  2  0
 23 25  1  0
  7 26  2  0
 26  2  1  0
 15 10  1  0
 25 13  1  0
  1 27  1  0
  1 28  1  0
  1 29  1  0
  3 30  1  0
  4 31  1  0
  6 32  1  0
 11 33  1  0
 15 34  1  0
 16 35  1  0
 16 36  1  0
 18 37  1  0
 18 38  1  0
 19 39  1  0
 19 40  1  0
 20 41  1  0
 21 42  1  0
 21 43  1  0
 21 44  1  0
 22 45  1  0
 22 46  1  0
 22 47  1  0
 25 48  1  0
 26 49  1  0
M  END
$$$$
