
     RDKit          3D

 40 42  0  0  0  0  0  0  0  0999 V2000
    0.6609   -4.3671    0.0782 C   0  0  0  0  0  0  0  0  0  0  0  0
    0.0326   -3.0848    0.0762 O   0  0  0  0  0  0  0  0  0  0  0  0
    0.8982   -2.0358    0.1673 C   0  0  0  0  0  0  0  0  0  0  0  0
    2.1169   -2.1628    0.2442 O   0  0  0  0  0  0  0  0  0  0  0  0
    0.2351   -0.7267    0.1460 C   0  0  0  0  0  0  0  0  0  0  0  0
    0.9621    0.4605    0.1092 C   0  0  0  0  0  0  0  0  0  0  0  0
    2.3439    0.5755    0.1141 N   0  0  0  0  0  0  0  0  0  0  0  0
    3.1123    1.7256    0.0779 C   0  0  0  0  0  0  0  0  0  0  0  0
    2.6969    2.8784    0.0316 O   0  0  0  0  0  0  0  0  0  0  0  0
    4.5369    1.4352    0.1013 C   0  0  0  0  0  0  0  0  0  0  0  0
    5.6367    2.2727    0.0792 C   0  0  0  0  0  0  0  0  0  0  0  0
    6.7832    1.4437    0.1209 C   0  0  0  0  0  0  0  0  0  0  0  0
    6.3185    0.1510    0.1657 C   0  0  0  0  0  0  0  0  0  0  0  0
    4.9610    0.1313    0.1542 O   0  0  0  0  0  0  0  0  0  0  0  0
   -0.0308    1.8347    0.0426 S   0  0  0  0  0  0  0  0  0  0  0  0
   -1.4481    0.9069    0.0681 C   0  0  0  0  0  0  0  0  0  0  0  0
   -1.1874   -0.4478    0.1554 C   0  0  0  0  0  0  0  0  0  0  0  0
   -2.3304   -1.4207    0.2120 C   0  0  0  0  0  0  0  0  0  0  0  0
   -3.6328   -0.7226    0.6342 C   0  0  0  0  0  0  0  0  0  0  0  0
   -3.8537    0.5390   -0.0865 N   0  0  0  0  0  0  0  0  0  0  0  0
   -5.1545    0.8557   -0.4595 C   0  0  0  0  0  0  0  0  0  0  0  0
   -5.3869    2.2199   -1.0606 C   0  0  0  0  0  0  0  0  0  0  0  0
   -6.0949    0.0716   -0.3306 O   0  0  0  0  0  0  0  0  0  0  0  0
   -2.7970    1.5558    0.0174 C   0  0  0  0  0  0  0  0  0  0  0  0
    1.2106   -4.5238    1.0115 H   0  0  0  0  0  0  0  0  0  0  0  0
    1.3243   -4.4702   -0.7863 H   0  0  0  0  0  0  0  0  0  0  0  0
   -0.1217   -5.1273    0.0061 H   0  0  0  0  0  0  0  0  0  0  0  0
    2.8657   -0.3017    0.1569 H   0  0  0  0  0  0  0  0  0  0  0  0
    5.5992    3.3532    0.0376 H   0  0  0  0  0  0  0  0  0  0  0  0
    7.8198    1.7503    0.1185 H   0  0  0  0  0  0  0  0  0  0  0  0
    6.7996   -0.8168    0.2068 H   0  0  0  0  0  0  0  0  0  0  0  0
   -2.1268   -2.2274    0.9232 H   0  0  0  0  0  0  0  0  0  0  0  0
   -2.4586   -1.8638   -0.7830 H   0  0  0  0  0  0  0  0  0  0  0  0
   -4.4698   -1.4132    0.4872 H   0  0  0  0  0  0  0  0  0  0  0  0
   -3.6044   -0.4749    1.7032 H   0  0  0  0  0  0  0  0  0  0  0  0
   -6.4503    2.3360   -1.2922 H   0  0  0  0  0  0  0  0  0  0  0  0
   -5.1080    3.0031   -0.3511 H   0  0  0  0  0  0  0  0  0  0  0  0
   -4.8227    2.3221   -1.9911 H   0  0  0  0  0  0  0  0  0  0  0  0
   -2.8540    2.2381   -0.8359 H   0  0  0  0  0  0  0  0  0  0  0  0
   -2.9817    2.1269    0.9347 H   0  0  0  0  0  0  0  0  0  0  0  0
  1  2  1  0
  2  3  1  0
  3  4  2  0
  3  5  1  0
  5  6  2  0
  6  7  1  0
  7  8  1  0
  8  9  2  0
  8 10  1  0
 10 11  2  0
 11 12  1  0
 12 13  2  0
 13 14  1  0
  6 15  1  0
 15 16  1  0
 16 17  2  0
 17 18  1  0
 18 19  1  0
 19 20  1  0
 20 21  1  0
 21 22  1  0
 21 23  2  0
 20 24  1  0
 17  5  1  0
 14 10  1  0
 24 16  1  0
  1 25  1  0
  1 26  1  0
  1 27  1  0
  7 28  1  0
 11 29  1  0
 12 30  1  0
 13 31  1  0
 18 32  1  0
 18 33  1  0
 19 34  1  0
 19 35  1  0
 22 36  1  0
 22 37  1  0
 22 38  1  0
 24 39  1  0
 24 40  1  0
M  END
$$$$
