
     RDKit          3D

 47 49  0  0  0  0  0  0  0  0999 V2000
   -8.4662    1.6776   -0.5821 C   0  0  0  0  0  0  0  0  0  0  0  0
   -7.5882    1.4770    0.6451 C   0  0  0  0  0  0  0  0  0  0  0  0
   -7.2369    0.0074    0.8750 C   0  0  0  0  0  0  0  0  0  0  0  0
   -6.5544   -0.5575   -0.2435 O   0  0  0  0  0  0  0  0  0  0  0  0
   -5.1967   -0.4380   -0.3268 C   0  0  0  0  0  0  0  0  0  0  0  0
   -4.3679    0.2484    0.5615 C   0  0  0  0  0  0  0  0  0  0  0  0
   -2.9837    0.2896    0.3486 C   0  0  0  0  0  0  0  0  0  0  0  0
   -2.4208   -0.3633   -0.7549 C   0  0  0  0  0  0  0  0  0  0  0  0
   -0.9540   -0.3398   -1.0156 C   0  0  0  0  0  0  0  0  0  0  0  0
   -0.5731   -0.2814   -2.1777 O   0  0  0  0  0  0  0  0  0  0  0  0
   -0.1650   -0.4279    0.1174 N   0  0  0  0  0  0  0  0  0  0  0  0
    1.2431   -0.3877    0.1832 C   0  0  0  0  0  0  0  0  0  0  0  0
    1.8324   -0.5887    1.4351 C   0  0  0  0  0  0  0  0  0  0  0  0
    3.2243   -0.5578    1.5829 C   0  0  0  0  0  0  0  0  0  0  0  0
    4.0552   -0.3216    0.4828 C   0  0  0  0  0  0  0  0  0  0  0  0
    5.4429   -0.3074    0.7193 N   0  0  0  0  0  0  0  0  0  0  0  0
    6.4703   -0.0938   -0.1855 C   0  0  0  0  0  0  0  0  0  0  0  0
    6.3084    0.1285   -1.3817 O   0  0  0  0  0  0  0  0  0  0  0  0
    7.8141   -0.1502    0.3953 C   0  0  0  0  0  0  0  0  0  0  0  0
    9.0099    0.0269   -0.2793 C   0  0  0  0  0  0  0  0  0  0  0  0
   10.1469   -0.0896    0.5708 C   0  0  0  0  0  0  0  0  0  0  0  0
    9.7879   -0.3528    1.8728 C   0  0  0  0  0  0  0  0  0  0  0  0
    8.0925   -0.4569    2.0615 S   0  0  0  0  0  0  0  0  0  0  0  0
    3.4668   -0.1174   -0.7638 C   0  0  0  0  0  0  0  0  0  0  0  0
    2.0714   -0.1495   -0.9120 C   0  0  0  0  0  0  0  0  0  0  0  0
   -3.2516   -1.0310   -1.6582 C   0  0  0  0  0  0  0  0  0  0  0  0
   -4.6304   -1.0703   -1.4379 C   0  0  0  0  0  0  0  0  0  0  0  0
   -8.7260    2.7353   -0.6908 H   0  0  0  0  0  0  0  0  0  0  0  0
   -7.9520    1.3623   -1.4954 H   0  0  0  0  0  0  0  0  0  0  0  0
   -9.3964    1.1071   -0.4958 H   0  0  0  0  0  0  0  0  0  0  0  0
   -6.6774    2.0711    0.5157 H   0  0  0  0  0  0  0  0  0  0  0  0
   -8.1089    1.8638    1.5282 H   0  0  0  0  0  0  0  0  0  0  0  0
   -6.6860   -0.1402    1.8107 H   0  0  0  0  0  0  0  0  0  0  0  0
   -8.1663   -0.5632    0.9899 H   0  0  0  0  0  0  0  0  0  0  0  0
   -4.7645    0.7787    1.4205 H   0  0  0  0  0  0  0  0  0  0  0  0
   -2.3649    0.8635    1.0334 H   0  0  0  0  0  0  0  0  0  0  0  0
   -0.6395   -0.6124    0.9910 H   0  0  0  0  0  0  0  0  0  0  0  0
    1.2221   -0.7757    2.3145 H   0  0  0  0  0  0  0  0  0  0  0  0
    3.6442   -0.7214    2.5721 H   0  0  0  0  0  0  0  0  0  0  0  0
    5.7402   -0.4748    1.6723 H   0  0  0  0  0  0  0  0  0  0  0  0
    9.0570    0.2320   -1.3437 H   0  0  0  0  0  0  0  0  0  0  0  0
   11.1739    0.0143    0.2421 H   0  0  0  0  0  0  0  0  0  0  0  0
   10.4413   -0.4893    2.7241 H   0  0  0  0  0  0  0  0  0  0  0  0
    4.0582    0.0714   -1.6545 H   0  0  0  0  0  0  0  0  0  0  0  0
    1.6684    0.0216   -1.9059 H   0  0  0  0  0  0  0  0  0  0  0  0
   -2.8297   -1.5217   -2.5330 H   0  0  0  0  0  0  0  0  0  0  0  0
   -5.2709   -1.5953   -2.1434 H   0  0  0  0  0  0  0  0  0  0  0  0
  1  2  1  0
  2  3  1  0
  3  4  1  0
  4  5  1  0
  5  6  2  0
  6  7  1  0
  7  8  2  0
  8  9  1  0
  9 10  2  0
  9 11  1  0
 11 12  1  0
 12 13  2  0
 13 14  1  0
 14 15  2  0
 15 16  1  0
 16 17  1  0
 17 18  2  0
 17 19  1  0
 19 20  2  0
 20 21  1  0
 21 22  2  0
 22 23  1  0
 15 24  1  0
 24 25  2  0
  8 26  1  0
 26 27  2  0
 27  5  1  0
 25 12  1  0
 23 19  1  0
  1 28  1  0
  1 29  1  0
  1 30  1  0
  2 31  1  0
  2 32  1  0
  3 33  1  0
  3 34  1  0
  6 35  1  0
  7 36  1  0
 11 37  1  0
 13 38  1  0
 14 39  1  0
 16 40  1  0
 20 41  1  0
 21 42  1  0
 22 43  1  0
 24 44  1  0
 25 45  1  0
 26 46  1  0
 27 47  1  0
M  END
$$$$
