
     RDKit          3D

 52 55  0  0  0  0  0  0  0  0999 V2000
    8.4419   -0.2458    0.4647 C   0  0  0  0  0  0  0  0  0  0  0  0
    7.6585   -1.3014    1.2241 C   0  0  0  0  0  0  0  0  0  0  0  0
    6.2491   -1.0481    1.1339 O   0  0  0  0  0  0  0  0  0  0  0  0
    5.6266   -1.5146    0.0122 C   0  0  0  0  0  0  0  0  0  0  0  0
    6.2099   -2.0916   -0.8984 O   0  0  0  0  0  0  0  0  0  0  0  0
    4.2066   -1.1928    0.0555 C   0  0  0  0  0  0  0  0  0  0  0  0
    3.3604   -1.1840   -1.4404 S   0  0  0  0  0  0  0  0  0  0  0  0
    1.9078   -0.7032   -0.7082 C   0  0  0  0  0  0  0  0  0  0  0  0
    0.7943   -0.5062   -1.4474 N   0  0  0  0  0  0  0  0  0  0  0  0
   -0.2776   -0.1740   -0.7874 C   0  0  0  0  0  0  0  0  0  0  0  0
   -1.5905    0.0355   -1.5148 C   0  0  0  0  0  0  0  0  0  0  0  0
   -1.6771   -0.1962   -3.2316 S   0  0  0  0  0  0  0  0  0  0  0  0
   -1.2686   -1.9633   -3.3887 C   0  0  0  0  0  0  0  0  0  0  0  0
   -2.2339   -2.8126   -2.6049 C   0  0  0  0  0  0  0  0  0  0  0  0
   -2.1537   -3.0917   -1.4178 O   0  0  0  0  0  0  0  0  0  0  0  0
   -3.2982   -3.2247   -3.3306 O   0  0  0  0  0  0  0  0  0  0  0  0
   -2.6801    0.4128   -0.8295 C   0  0  0  0  0  0  0  0  0  0  0  0
   -2.6324    0.6012    0.5992 C   0  0  0  0  0  0  0  0  0  0  0  0
   -3.8308    0.9455    1.4175 C   0  0  0  0  0  0  0  0  0  0  0  0
   -4.0581    0.3654    2.4785 O   0  0  0  0  0  0  0  0  0  0  0  0
   -4.7977    1.9647    0.9359 C   0  0  0  0  0  0  0  0  0  0  0  0
   -4.4020    3.0227    0.1045 C   0  0  0  0  0  0  0  0  0  0  0  0
   -5.3419    3.9574   -0.3368 C   0  0  0  0  0  0  0  0  0  0  0  0
   -6.6756    3.8492    0.0575 C   0  0  0  0  0  0  0  0  0  0  0  0
   -7.0717    2.8176    0.9082 C   0  0  0  0  0  0  0  0  0  0  0  0
   -6.1354    1.8893    1.3535 C   0  0  0  0  0  0  0  0  0  0  0  0
   -6.5995    0.9243    2.2053 O   0  0  0  0  0  0  0  0  0  0  0  0
   -1.4869    0.3805    1.2586 C   0  0  0  0  0  0  0  0  0  0  0  0
   -0.3083    0.0125    0.6091 N   0  0  0  0  0  0  0  0  0  0  0  0
    0.8543   -0.1379    1.3909 C   0  0  0  0  0  0  0  0  0  0  0  0
    0.8989    0.0986    2.5973 O   0  0  0  0  0  0  0  0  0  0  0  0
    2.0336   -0.5647    0.6516 C   0  0  0  0  0  0  0  0  0  0  0  0
    3.3646   -0.8832    1.1236 C   0  0  0  0  0  0  0  0  0  0  0  0
    3.7696   -0.8789    2.5674 C   0  0  0  0  0  0  0  0  0  0  0  0
    8.1798    0.7582    0.8171 H   0  0  0  0  0  0  0  0  0  0  0  0
    8.2120   -0.2762   -0.6053 H   0  0  0  0  0  0  0  0  0  0  0  0
    9.5178   -0.3958    0.5945 H   0  0  0  0  0  0  0  0  0  0  0  0
    7.9012   -2.3147    0.8799 H   0  0  0  0  0  0  0  0  0  0  0  0
    7.9199   -1.2526    2.2865 H   0  0  0  0  0  0  0  0  0  0  0  0
   -0.2476   -2.1848   -3.0655 H   0  0  0  0  0  0  0  0  0  0  0  0
   -1.3231   -2.2460   -4.4453 H   0  0  0  0  0  0  0  0  0  0  0  0
   -3.8419   -3.7428   -2.6992 H   0  0  0  0  0  0  0  0  0  0  0  0
   -3.6331    0.5478   -1.3344 H   0  0  0  0  0  0  0  0  0  0  0  0
   -3.3662    3.1503   -0.2004 H   0  0  0  0  0  0  0  0  0  0  0  0
   -5.0345    4.7791   -0.9823 H   0  0  0  0  0  0  0  0  0  0  0  0
   -7.4059    4.5784   -0.2839 H   0  0  0  0  0  0  0  0  0  0  0  0
   -8.1068    2.7413    1.2334 H   0  0  0  0  0  0  0  0  0  0  0  0
   -5.8236    0.4650    2.5997 H   0  0  0  0  0  0  0  0  0  0  0  0
   -1.4337    0.4842    2.3428 H   0  0  0  0  0  0  0  0  0  0  0  0
    4.4834   -1.6819    2.7793 H   0  0  0  0  0  0  0  0  0  0  0  0
    4.2269    0.0807    2.8281 H   0  0  0  0  0  0  0  0  0  0  0  0
    2.9195   -1.0530    3.2328 H   0  0  0  0  0  0  0  0  0  0  0  0
  1  2  1  0
  2  3  1  0
  3  4  1  0
  4  5  2  0
  4  6  1  0
  6  7  1  0
  7  8  1  0
  8  9  1  0
  9 10  2  0
 10 11  1  0
 11 12  1  0
 12 13  1  0
 13 14  1  0
 14 15  2  0
 14 16  1  0
 11 17  2  0
 17 18  1  0
 18 19  1  0
 19 20  2  0
 19 21  1  0
 21 22  2  0
 22 23  1  0
 23 24  2  0
 24 25  1  0
 25 26  2  0
 26 27  1  0
 18 28  2  0
 28 29  1  0
 29 30  1  0
 30 31  2  0
 30 32  1  0
 32 33  1  0
 33 34  1  0
 33  6  2  0
 32  8  2  0
 29 10  1  0
 26 21  1  0
  1 35  1  0
  1 36  1  0
  1 37  1  0
  2 38  1  0
  2 39  1  0
 13 40  1  0
 13 41  1  0
 16 42  1  0
 17 43  1  0
 22 44  1  0
 23 45  1  0
 24 46  1  0
 25 47  1  0
 27 48  1  0
 28 49  1  0
 34 50  1  0
 34 51  1  0
 34 52  1  0
M  END
$$$$
