
     RDKit          3D

 55 58  0  0  0  0  0  0  0  0999 V2000
   -4.3373   -4.6011    1.7433 C   0  0  0  0  0  0  0  0  0  0  0  0
   -4.1468   -3.3234    2.4307 N   0  0  0  0  0  0  0  0  0  0  0  0
   -4.0503   -3.4069    3.8876 C   0  0  0  0  0  0  0  0  0  0  0  0
   -3.4618   -2.3007    1.7621 C   0  0  0  0  0  0  0  0  0  0  0  0
   -2.9005   -1.2048    2.4399 C   0  0  0  0  0  0  0  0  0  0  0  0
   -2.2336   -0.1688    1.7688 C   0  0  0  0  0  0  0  0  0  0  0  0
   -2.1173   -0.1763    0.3793 C   0  0  0  0  0  0  0  0  0  0  0  0
   -1.4705    0.8951   -0.2729 N   0  0  0  0  0  0  0  0  0  0  0  0
   -0.3529    0.6381   -1.0699 C   0  0  0  0  0  0  0  0  0  0  0  0
    0.4311   -0.3840   -0.9669 N   0  0  0  0  0  0  0  0  0  0  0  0
    1.4565   -0.5253   -1.8618 C   0  0  0  0  0  0  0  0  0  0  0  0
    1.2943   -0.9014   -3.0176 O   0  0  0  0  0  0  0  0  0  0  0  0
    2.8213   -0.2487   -1.2660 C   0  0  0  0  0  0  0  0  0  0  0  0
    3.8969   -0.1775   -2.3446 C   0  0  0  0  0  0  0  0  0  0  0  0
    5.2439    0.1645   -1.7579 C   0  0  0  0  0  0  0  0  0  0  0  0
    5.6664    1.4981   -1.6780 C   0  0  0  0  0  0  0  0  0  0  0  0
    6.9038    1.8147   -1.1153 C   0  0  0  0  0  0  0  0  0  0  0  0
    7.7271    0.8031   -0.6244 C   0  0  0  0  0  0  0  0  0  0  0  0
    7.3139   -0.5260   -0.6949 C   0  0  0  0  0  0  0  0  0  0  0  0
    6.0770   -0.8449   -1.2573 C   0  0  0  0  0  0  0  0  0  0  0  0
   -0.1267    1.9625   -2.2400 S   0  0  0  0  0  0  0  0  0  0  0  0
   -1.4895    2.9300   -1.5324 C   0  0  0  0  0  0  0  0  0  0  0  0
   -0.9871    3.8523   -0.4310 C   0  0  0  0  0  0  0  0  0  0  0  0
   -2.3802    4.0254    0.6580 S   0  0  0  0  0  6  0  0  0  0  0  0
   -3.1044    5.2194    0.2742 O   0  0  0  0  0  0  0  0  0  0  0  0
   -1.9440    3.7891    2.0172 O   0  0  0  0  0  0  0  0  0  0  0  0
   -3.3029    2.6178    0.0919 C   0  0  0  0  0  0  0  0  0  0  0  0
   -2.3951    1.8771   -0.8791 C   0  0  0  0  0  0  0  0  0  0  0  0
   -2.6679   -1.2509   -0.3186 C   0  0  0  0  0  0  0  0  0  0  0  0
   -3.3302   -2.2837    0.3624 C   0  0  0  0  0  0  0  0  0  0  0  0
   -4.9793   -4.4864    0.8636 H   0  0  0  0  0  0  0  0  0  0  0  0
   -3.3768   -5.0362    1.4456 H   0  0  0  0  0  0  0  0  0  0  0  0
   -4.8423   -5.3284    2.3891 H   0  0  0  0  0  0  0  0  0  0  0  0
   -3.0151   -3.5740    4.2052 H   0  0  0  0  0  0  0  0  0  0  0  0
   -4.6547   -4.2342    4.2767 H   0  0  0  0  0  0  0  0  0  0  0  0
   -4.4420   -2.5018    4.3644 H   0  0  0  0  0  0  0  0  0  0  0  0
   -2.9592   -1.1238    3.5210 H   0  0  0  0  0  0  0  0  0  0  0  0
   -1.8062    0.6457    2.3506 H   0  0  0  0  0  0  0  0  0  0  0  0
    2.7745    0.6995   -0.7166 H   0  0  0  0  0  0  0  0  0  0  0  0
    3.0458   -1.0449   -0.5466 H   0  0  0  0  0  0  0  0  0  0  0  0
    3.9664   -1.1326   -2.8814 H   0  0  0  0  0  0  0  0  0  0  0  0
    3.6276    0.5681   -3.1041 H   0  0  0  0  0  0  0  0  0  0  0  0
    5.0346    2.2987   -2.0558 H   0  0  0  0  0  0  0  0  0  0  0  0
    7.2257    2.8513   -1.0602 H   0  0  0  0  0  0  0  0  0  0  0  0
    8.6907    1.0503   -0.1870 H   0  0  0  0  0  0  0  0  0  0  0  0
    7.9552   -1.3153   -0.3116 H   0  0  0  0  0  0  0  0  0  0  0  0
    5.7672   -1.8866   -1.3039 H   0  0  0  0  0  0  0  0  0  0  0  0
   -2.0253    3.4917   -2.3051 H   0  0  0  0  0  0  0  0  0  0  0  0
   -0.6953    4.8352   -0.8092 H   0  0  0  0  0  0  0  0  0  0  0  0
   -0.1673    3.4295    0.1591 H   0  0  0  0  0  0  0  0  0  0  0  0
   -4.1761    3.0099   -0.4406 H   0  0  0  0  0  0  0  0  0  0  0  0
   -3.6469    2.0391    0.9490 H   0  0  0  0  0  0  0  0  0  0  0  0
   -3.0066    1.3724   -1.6408 H   0  0  0  0  0  0  0  0  0  0  0  0
   -2.5842   -1.3083   -1.4012 H   0  0  0  0  0  0  0  0  0  0  0  0
   -3.7437   -3.0815   -0.2471 H   0  0  0  0  0  0  0  0  0  0  0  0
  1  2  1  0
  2  3  1  0
  2  4  1  0
  4  5  2  0
  5  6  1  0
  6  7  2  0
  7  8  1  0
  8  9  1  0
  9 10  2  3
 10 11  1  0
 11 12  2  0
 11 13  1  0
 13 14  1  0
 14 15  1  0
 15 16  2  0
 16 17  1  0
 17 18  2  0
 18 19  1  0
 19 20  2  0
  9 21  1  0
 21 22  1  0
 22 23  1  0
 23 24  1  0
 24 25  2  0
 24 26  2  0
 24 27  1  0
 27 28  1  0
  7 29  1  0
 29 30  2  0
 30  4  1  0
 28  8  1  0
 20 15  1  0
 28 22  1  0
  1 31  1  0
  1 32  1  0
  1 33  1  0
  3 34  1  0
  3 35  1  0
  3 36  1  0
  5 37  1  0
  6 38  1  0
 13 39  1  0
 13 40  1  0
 14 41  1  0
 14 42  1  0
 16 43  1  0
 17 44  1  0
 18 45  1  0
 19 46  1  0
 20 47  1  0
 22 48  1  0
 23 49  1  0
 23 50  1  0
 27 51  1  0
 27 52  1  0
 28 53  1  0
 29 54  1  0
 30 55  1  0
M  END
$$$$
