
     RDKit          3D

 48 50  0  0  0  0  0  0  0  0999 V2000
   -1.3077    0.0291    1.5361 O   0  0  0  0  0  0  0  0  0  0  0  0
   -1.2570   -0.1943    0.3243 C   0  0  0  0  0  0  0  0  0  0  0  0
    0.0698   -0.2761   -0.4318 C   0  0  0  0  0  0  0  0  0  0  0  0
    1.1910    0.2638    0.3877 N   0  0  0  0  0  0  0  0  0  0  0  0
    1.4794    1.6571    0.1901 C   0  0  0  0  0  0  0  0  0  0  0  0
    0.8560    2.5769    1.0306 C   0  0  0  0  0  0  0  0  0  0  0  0
    1.0483    3.9446    0.8354 C   0  0  0  0  0  0  0  0  0  0  0  0
    1.8491    4.4006   -0.2164 C   0  0  0  0  0  0  0  0  0  0  0  0
    2.0325    6.1075   -0.3936 Cl  0  0  0  0  0  0  0  0  0  0  0  0
    2.4599    3.4918   -1.0898 C   0  0  0  0  0  0  0  0  0  0  0  0
    3.3114    3.9579   -2.2393 C   0  0  0  0  0  0  0  0  0  0  0  0
    2.6244    4.7320   -3.1246 F   0  0  0  0  0  0  0  0  0  0  0  0
    3.8138    2.9293   -2.9826 F   0  0  0  0  0  0  0  0  0  0  0  0
    4.3932    4.6839   -1.8484 F   0  0  0  0  0  0  0  0  0  0  0  0
    2.2557    2.1128   -0.8802 C   0  0  0  0  0  0  0  0  0  0  0  0
    2.5493   -0.7536    0.5364 S   0  0  0  0  0  6  0  0  0  0  0  0
    2.9037   -1.1784   -0.8049 O   0  0  0  0  0  0  0  0  0  0  0  0
    3.5240   -0.1340    1.4082 O   0  0  0  0  0  0  0  0  0  0  0  0
    1.8991   -2.1621    1.4021 C   0  0  0  0  0  0  0  0  0  0  0  0
    1.2105   -1.9654    2.6024 C   0  0  0  0  0  0  0  0  0  0  0  0
    0.6763   -3.0648    3.2730 C   0  0  0  0  0  0  0  0  0  0  0  0
    0.8362   -4.3487    2.7483 C   0  0  0  0  0  0  0  0  0  0  0  0
    1.5300   -4.5395    1.5516 C   0  0  0  0  0  0  0  0  0  0  0  0
    2.0644   -3.4449    0.8720 C   0  0  0  0  0  0  0  0  0  0  0  0
   -2.4138   -0.3945   -0.4189 N   0  0  0  0  0  0  0  0  0  0  0  0
   -2.4571   -0.7455   -1.8422 C   0  0  0  0  0  0  0  0  0  0  0  0
   -3.7793   -1.4292   -2.2057 C   0  0  0  0  0  0  0  0  0  0  0  0
   -4.9305   -0.6308   -1.9088 O   0  0  0  0  0  0  0  0  0  0  0  0
   -4.7813    0.2158   -0.7596 C   0  0  0  0  0  0  0  0  0  0  0  0
   -3.7190   -0.2632    0.2341 C   0  0  0  0  0  0  0  0  0  0  0  0
    0.2300   -1.3310   -0.6770 H   0  0  0  0  0  0  0  0  0  0  0  0
   -0.0047    0.2781   -1.3741 H   0  0  0  0  0  0  0  0  0  0  0  0
    0.2295    2.2320    1.8509 H   0  0  0  0  0  0  0  0  0  0  0  0
    0.5688    4.6503    1.5104 H   0  0  0  0  0  0  0  0  0  0  0  0
    2.7150    1.3955   -1.5599 H   0  0  0  0  0  0  0  0  0  0  0  0
    1.0798   -0.9653    3.0114 H   0  0  0  0  0  0  0  0  0  0  0  0
    0.1348   -2.9202    4.2049 H   0  0  0  0  0  0  0  0  0  0  0  0
    0.4218   -5.2040    3.2772 H   0  0  0  0  0  0  0  0  0  0  0  0
    1.6570   -5.5431    1.1527 H   0  0  0  0  0  0  0  0  0  0  0  0
    2.6086   -3.6006   -0.0567 H   0  0  0  0  0  0  0  0  0  0  0  0
   -1.6145   -1.3949   -2.0949 H   0  0  0  0  0  0  0  0  0  0  0  0
   -2.3530    0.1936   -2.3975 H   0  0  0  0  0  0  0  0  0  0  0  0
   -3.8809   -2.3764   -1.6631 H   0  0  0  0  0  0  0  0  0  0  0  0
   -3.8040   -1.6607   -3.2751 H   0  0  0  0  0  0  0  0  0  0  0  0
   -4.5285    1.2177   -1.1256 H   0  0  0  0  0  0  0  0  0  0  0  0
   -5.7577    0.2830   -0.2696 H   0  0  0  0  0  0  0  0  0  0  0  0
   -3.6556    0.4250    1.0830 H   0  0  0  0  0  0  0  0  0  0  0  0
   -3.9785   -1.2568    0.6176 H   0  0  0  0  0  0  0  0  0  0  0  0
  1  2  2  0
  2  3  1  0
  3  4  1  0
  4  5  1  0
  5  6  2  0
  6  7  1  0
  7  8  2  0
  8  9  1  0
  8 10  1  0
 10 11  1  0
 11 12  1  0
 11 13  1  0
 11 14  1  0
 10 15  2  0
  4 16  1  0
 16 17  2  0
 16 18  2  0
 16 19  1  0
 19 20  2  0
 20 21  1  0
 21 22  2  0
 22 23  1  0
 23 24  2  0
  2 25  1  0
 25 26  1  0
 26 27  1  0
 27 28  1  0
 28 29  1  0
 29 30  1  0
 15  5  1  0
 24 19  1  0
 30 25  1  0
  3 31  1  0
  3 32  1  0
  6 33  1  0
  7 34  1  0
 15 35  1  0
 20 36  1  0
 21 37  1  0
 22 38  1  0
 23 39  1  0
 24 40  1  0
 26 41  1  0
 26 42  1  0
 27 43  1  0
 27 44  1  0
 29 45  1  0
 29 46  1  0
 30 47  1  0
 30 48  1  0
M  END
$$$$
