
     RDKit          3D

 39 39  0  0  0  0  0  0  0  0999 V2000
   -2.2872   -3.6725   -2.7220 C   0  0  0  0  0  0  0  0  0  0  0  0
   -2.1439   -2.6513   -1.7335 O   0  0  0  0  0  0  0  0  0  0  0  0
   -1.3038   -1.6420   -2.0967 C   0  0  0  0  0  0  0  0  0  0  0  0
   -0.7099   -1.5689   -3.1673 O   0  0  0  0  0  0  0  0  0  0  0  0
   -1.2177   -0.5880   -0.9914 C   0  0  0  0  0  0  0  0  0  0  0  0
   -2.2846    0.4979   -1.1901 C   0  0  0  0  0  0  0  0  0  0  0  0
   -3.6774    0.0056   -0.8008 C   0  0  0  0  0  0  0  0  0  0  0  0
   -4.9451    1.3006   -1.0080 S   0  0  0  0  0  0  0  0  0  0  0  0
   -4.5357    2.3552    0.4069 C   0  0  0  0  0  0  0  0  0  0  0  0
    0.1297   -0.0196   -1.0470 N   0  0  0  0  0  0  0  0  0  0  0  0
    0.6569    0.6778    0.0010 C   0  0  0  0  0  0  0  0  0  0  0  0
    0.0792    0.8409    1.0674 O   0  0  0  0  0  0  0  0  0  0  0  0
    1.8947    1.1739   -0.2955 N   0  0  0  0  0  0  0  0  0  0  0  0
    2.6822    1.8289    0.7304 C   0  0  0  0  0  0  0  0  0  0  0  0
    3.5094    0.8332    1.5107 C   0  0  0  0  0  0  0  0  0  0  0  0
    3.0393    0.3138    2.7149 C   0  0  0  0  0  0  0  0  0  0  0  0
    3.8119   -0.6280    3.3879 C   0  0  0  0  0  0  0  0  0  0  0  0
    5.0234   -1.0316    2.8406 C   0  0  0  0  0  0  0  0  0  0  0  0
    5.4117   -0.4786    1.6322 C   0  0  0  0  0  0  0  0  0  0  0  0
    4.6835    0.4350    0.9531 N   0  0  0  0  0  0  0  0  0  0  0  0
   -1.3226   -4.1485   -2.9244 H   0  0  0  0  0  0  0  0  0  0  0  0
   -2.9716   -4.4297   -2.3297 H   0  0  0  0  0  0  0  0  0  0  0  0
   -2.7170   -3.2589   -3.6397 H   0  0  0  0  0  0  0  0  0  0  0  0
   -1.3219   -1.0740   -0.0141 H   0  0  0  0  0  0  0  0  0  0  0  0
   -2.0229    1.3728   -0.5845 H   0  0  0  0  0  0  0  0  0  0  0  0
   -2.2835    0.8306   -2.2367 H   0  0  0  0  0  0  0  0  0  0  0  0
   -3.9790   -0.8265   -1.4436 H   0  0  0  0  0  0  0  0  0  0  0  0
   -3.6976   -0.3550    0.2329 H   0  0  0  0  0  0  0  0  0  0  0  0
   -4.5203    1.7701    1.3300 H   0  0  0  0  0  0  0  0  0  0  0  0
   -3.5702    2.8447    0.2611 H   0  0  0  0  0  0  0  0  0  0  0  0
   -5.2998    3.1313    0.5032 H   0  0  0  0  0  0  0  0  0  0  0  0
    0.5241    0.1412   -1.9660 H   0  0  0  0  0  0  0  0  0  0  0  0
    2.4374    0.6234   -0.9458 H   0  0  0  0  0  0  0  0  0  0  0  0
    3.3519    2.5302    0.2207 H   0  0  0  0  0  0  0  0  0  0  0  0
    2.0357    2.4112    1.3964 H   0  0  0  0  0  0  0  0  0  0  0  0
    2.0796    0.6269    3.1165 H   0  0  0  0  0  0  0  0  0  0  0  0
    3.4660   -1.0471    4.3285 H   0  0  0  0  0  0  0  0  0  0  0  0
    5.6472   -1.7638    3.3404 H   0  0  0  0  0  0  0  0  0  0  0  0
    6.3478   -0.7662    1.1620 H   0  0  0  0  0  0  0  0  0  0  0  0
  1  2  1  0
  2  3  1  0
  3  4  2  0
  3  5  1  0
  5  6  1  0
  6  7  1  0
  7  8  1  0
  8  9  1  0
  5 10  1  0
 10 11  1  0
 11 12  2  0
 11 13  1  0
 13 14  1  0
 14 15  1  0
 15 16  2  0
 16 17  1  0
 17 18  2  0
 18 19  1  0
 19 20  2  0
 20 15  1  0
  1 21  1  0
  1 22  1  0
  1 23  1  0
  5 24  1  0
  6 25  1  0
  6 26  1  0
  7 27  1  0
  7 28  1  0
  9 29  1  0
  9 30  1  0
  9 31  1  0
 10 32  1  0
 13 33  1  0
 14 34  1  0
 14 35  1  0
 16 36  1  0
 17 37  1  0
 18 38  1  0
 19 39  1  0
M  END
$$$$
