
     RDKit          3D

 32 34  0  0  0  0  0  0  0  0999 V2000
    6.7372   -0.6942   -1.0451 C   0  0  0  0  0  0  0  0  0  0  0  0
    5.5860    0.0915   -1.3281 O   0  0  0  0  0  0  0  0  0  0  0  0
    4.3990   -0.3229   -0.7859 C   0  0  0  0  0  0  0  0  0  0  0  0
    4.2199   -1.4460    0.0183 C   0  0  0  0  0  0  0  0  0  0  0  0
    2.9504   -1.7711    0.5178 C   0  0  0  0  0  0  0  0  0  0  0  0
    1.8425   -0.9589    0.2073 C   0  0  0  0  0  0  0  0  0  0  0  0
    0.5388   -1.1599    0.6298 N   0  0  0  0  0  0  0  0  0  0  0  0
   -0.2303   -0.2111    0.1520 C   0  0  0  0  0  0  0  0  0  0  0  0
   -1.5710   -0.2000    0.4381 N   0  0  0  0  0  0  0  0  0  0  0  0
   -2.5078    0.7150    0.0201 C   0  0  0  0  0  0  0  0  0  0  0  0
   -2.2937    1.6894   -0.6906 O   0  0  0  0  0  0  0  0  0  0  0  0
   -3.8611    0.4315    0.5095 C   0  0  0  0  0  0  0  0  0  0  0  0
   -4.3557   -0.6255    1.3379 C   0  0  0  0  0  0  0  0  0  0  0  0
   -5.7055   -0.4154    1.4904 C   0  0  0  0  0  0  0  0  0  0  0  0
   -6.0885    0.6945    0.8183 O   0  0  0  0  0  0  0  0  0  0  0  0
   -4.9764    1.2089    0.2243 C   0  0  0  0  0  0  0  0  0  0  0  0
   -5.1821    2.4415   -0.5702 C   0  0  0  0  0  0  0  0  0  0  0  0
    0.5335    0.9604   -0.8133 S   0  0  0  0  0  0  0  0  0  0  0  0
    2.0412    0.1614   -0.5993 C   0  0  0  0  0  0  0  0  0  0  0  0
    3.3079    0.4954   -1.1043 C   0  0  0  0  0  0  0  0  0  0  0  0
    6.9510   -0.7082    0.0287 H   0  0  0  0  0  0  0  0  0  0  0  0
    7.5907   -0.2298   -1.5484 H   0  0  0  0  0  0  0  0  0  0  0  0
    6.6291   -1.7094   -1.4410 H   0  0  0  0  0  0  0  0  0  0  0  0
    5.0462   -2.0986    0.2819 H   0  0  0  0  0  0  0  0  0  0  0  0
    2.8127   -2.6468    1.1445 H   0  0  0  0  0  0  0  0  0  0  0  0
   -1.8440   -0.9719    1.0237 H   0  0  0  0  0  0  0  0  0  0  0  0
   -3.8122   -1.4482    1.7792 H   0  0  0  0  0  0  0  0  0  0  0  0
   -6.4919   -0.9373    2.0182 H   0  0  0  0  0  0  0  0  0  0  0  0
   -6.2310    2.7543   -0.5535 H   0  0  0  0  0  0  0  0  0  0  0  0
   -4.5802    3.2620   -0.1678 H   0  0  0  0  0  0  0  0  0  0  0  0
   -4.8969    2.2771   -1.6137 H   0  0  0  0  0  0  0  0  0  0  0  0
    3.4420    1.3724   -1.7310 H   0  0  0  0  0  0  0  0  0  0  0  0
  1  2  1  0
  2  3  1  0
  3  4  2  0
  4  5  1  0
  5  6  2  0
  6  7  1  0
  7  8  2  0
  8  9  1  0
  9 10  1  0
 10 11  2  0
 10 12  1  0
 12 13  1  0
 13 14  2  0
 14 15  1  0
 15 16  1  0
 16 17  1  0
  8 18  1  0
 18 19  1  0
 19 20  2  0
 20  3  1  0
 19  6  1  0
 16 12  2  0
  1 21  1  0
  1 22  1  0
  1 23  1  0
  4 24  1  0
  5 25  1  0
  9 26  1  0
 13 27  1  0
 14 28  1  0
 17 29  1  0
 17 30  1  0
 17 31  1  0
 20 32  1  0
M  END
$$$$
