
     RDKit          3D

 35 37  0  0  0  0  0  0  0  0999 V2000
    5.4723    0.7261    1.2289 C   0  0  0  0  0  0  0  0  0  0  0  0
    4.5753    1.3188    0.1501 C   0  0  0  0  0  0  0  0  0  0  0  0
    4.3460    0.3858   -1.0405 C   0  0  0  0  0  0  0  0  0  0  0  0
    3.3997   -1.1157   -0.6273 S   0  0  0  0  0  0  0  0  0  0  0  0
    1.7870   -0.4944   -0.5360 C   0  0  0  0  0  0  0  0  0  0  0  0
    1.4186    0.7309   -0.8192 N   0  0  0  0  0  0  0  0  0  0  0  0
    0.0640    0.8104   -0.6257 N   0  0  0  0  0  0  0  0  0  0  0  0
   -0.3775   -0.3725   -0.2394 C   0  0  0  0  0  0  0  0  0  0  0  0
   -1.8930   -0.6508    0.0573 C   0  0  0  0  0  0  0  0  0  0  0  0
   -2.4565   -1.8461    0.4472 C   0  0  0  0  0  0  0  0  0  0  0  0
   -3.8066   -1.6484    0.5968 N   0  0  0  0  0  0  0  0  0  0  0  0
   -4.1343   -0.3448    0.3097 C   0  0  0  0  0  0  0  0  0  0  0  0
   -5.3800    0.2952    0.3295 C   0  0  0  0  0  0  0  0  0  0  0  0
   -5.4194    1.6497   -0.0118 C   0  0  0  0  0  0  0  0  0  0  0  0
   -4.2582    2.3348   -0.3574 C   0  0  0  0  0  0  0  0  0  0  0  0
   -3.0216    1.6788   -0.3720 C   0  0  0  0  0  0  0  0  0  0  0  0
   -2.9499    0.3101   -0.0334 C   0  0  0  0  0  0  0  0  0  0  0  0
    0.6958   -1.2329   -0.1631 N   0  0  0  0  0  0  0  0  0  0  0  0
    0.6588   -2.6129    0.2354 C   0  0  0  0  0  0  0  0  0  0  0  0
    5.6510    1.4650    2.0168 H   0  0  0  0  0  0  0  0  0  0  0  0
    6.4421    0.4356    0.8132 H   0  0  0  0  0  0  0  0  0  0  0  0
    5.0202   -0.1536    1.6957 H   0  0  0  0  0  0  0  0  0  0  0  0
    5.0522    2.2341   -0.2215 H   0  0  0  0  0  0  0  0  0  0  0  0
    3.6225    1.6273    0.5951 H   0  0  0  0  0  0  0  0  0  0  0  0
    3.8406    0.9230   -1.8505 H   0  0  0  0  0  0  0  0  0  0  0  0
    5.3135    0.0612   -1.4395 H   0  0  0  0  0  0  0  0  0  0  0  0
   -2.0463   -2.8258    0.6359 H   0  0  0  0  0  0  0  0  0  0  0  0
   -4.4722   -2.3531    0.8826 H   0  0  0  0  0  0  0  0  0  0  0  0
   -6.2874   -0.2348    0.5993 H   0  0  0  0  0  0  0  0  0  0  0  0
   -6.3709    2.1771   -0.0067 H   0  0  0  0  0  0  0  0  0  0  0  0
   -4.3063    3.3886   -0.6198 H   0  0  0  0  0  0  0  0  0  0  0  0
   -2.1217    2.2254   -0.6433 H   0  0  0  0  0  0  0  0  0  0  0  0
    0.2392   -2.6754    1.2427 H   0  0  0  0  0  0  0  0  0  0  0  0
    0.0459   -3.1646   -0.4821 H   0  0  0  0  0  0  0  0  0  0  0  0
    1.6573   -3.0521    0.2520 H   0  0  0  0  0  0  0  0  0  0  0  0
  1  2  1  0
  2  3  1  0
  3  4  1  0
  4  5  1  0
  5  6  2  0
  6  7  1  0
  7  8  2  0
  8  9  1  0
  9 10  2  0
 10 11  1  0
 11 12  1  0
 12 13  2  0
 13 14  1  0
 14 15  2  0
 15 16  1  0
 16 17  2  0
  8 18  1  0
 18 19  1  0
 18  5  1  0
 17  9  1  0
 17 12  1  0
  1 20  1  0
  1 21  1  0
  1 22  1  0
  2 23  1  0
  2 24  1  0
  3 25  1  0
  3 26  1  0
 10 27  1  0
 11 28  1  0
 13 29  1  0
 14 30  1  0
 15 31  1  0
 16 32  1  0
 19 33  1  0
 19 34  1  0
 19 35  1  0
M  END
$$$$
