
     RDKit          3D

 48 50  0  0  0  0  0  0  0  0999 V2000
   -3.6539   -1.9996   -0.2170 C   0  0  0  0  0  0  0  0  0  0  0  0
   -2.2205   -2.1492   -0.6903 C   0  0  0  0  0  0  0  0  0  0  0  0
   -1.5901   -0.8627   -0.7650 O   0  0  0  0  0  0  0  0  0  0  0  0
   -0.9826   -0.4260    0.3688 C   0  0  0  0  0  0  0  0  0  0  0  0
   -0.9782   -1.0105    1.4448 O   0  0  0  0  0  0  0  0  0  0  0  0
   -0.3216    0.9095    0.1407 C   0  0  0  0  0  0  0  0  0  0  0  0
    0.9536    1.1094    0.9438 C   0  0  0  0  0  0  0  0  0  0  0  0
    1.9262   -0.0304    1.1506 C   0  0  0  0  0  0  0  0  0  0  0  0
    2.5320   -0.6200   -0.4046 S   0  0  0  0  0  6  0  0  0  0  0  0
    3.0888    0.4890   -1.1523 O   0  0  0  0  0  0  0  0  0  0  0  0
    1.4969   -1.4482   -0.9945 O   0  0  0  0  0  0  0  0  0  0  0  0
    3.8784   -1.6834    0.0536 C   0  0  0  0  0  0  0  0  0  0  0  0
    3.6926   -3.0684    0.0799 C   0  0  0  0  0  0  0  0  0  0  0  0
    4.7589   -3.8943    0.4344 C   0  0  0  0  0  0  0  0  0  0  0  0
    5.9999   -3.3365    0.7535 C   0  0  0  0  0  0  0  0  0  0  0  0
    6.1826   -1.9522    0.7121 C   0  0  0  0  0  0  0  0  0  0  0  0
    5.1232   -1.1190    0.3547 C   0  0  0  0  0  0  0  0  0  0  0  0
    1.3016    2.2493    1.4591 N   0  0  0  0  0  0  0  0  0  0  0  0
    0.5731    3.3854    1.2575 C   0  0  0  0  0  0  0  0  0  0  0  0
    0.9683    4.4975    1.5841 O   0  0  0  0  0  0  0  0  0  0  0  0
   -0.6432    3.2607    0.6618 N   0  0  0  0  0  0  0  0  0  0  0  0
   -1.3050    1.9852    0.5968 C   0  0  0  0  0  0  0  0  0  0  0  0
   -2.5452    2.1079   -0.2689 C   0  0  0  0  0  0  0  0  0  0  0  0
   -2.4558    2.4577   -1.6265 C   0  0  0  0  0  0  0  0  0  0  0  0
   -3.6065    2.5666   -2.4105 C   0  0  0  0  0  0  0  0  0  0  0  0
   -4.8590    2.3315   -1.8477 C   0  0  0  0  0  0  0  0  0  0  0  0
   -4.9639    1.9888   -0.5010 C   0  0  0  0  0  0  0  0  0  0  0  0
   -3.8147    1.8788    0.2853 C   0  0  0  0  0  0  0  0  0  0  0  0
   -3.6971   -1.5353    0.7743 H   0  0  0  0  0  0  0  0  0  0  0  0
   -4.1516   -2.9736   -0.1755 H   0  0  0  0  0  0  0  0  0  0  0  0
   -4.2148   -1.3489   -0.8964 H   0  0  0  0  0  0  0  0  0  0  0  0
   -2.2079   -2.5736   -1.6991 H   0  0  0  0  0  0  0  0  0  0  0  0
   -1.6547   -2.8333   -0.0469 H   0  0  0  0  0  0  0  0  0  0  0  0
   -0.0440    1.0099   -0.9153 H   0  0  0  0  0  0  0  0  0  0  0  0
    2.7869    0.3271    1.7255 H   0  0  0  0  0  0  0  0  0  0  0  0
    1.4644   -0.8581    1.6900 H   0  0  0  0  0  0  0  0  0  0  0  0
    2.7325   -3.5138   -0.1767 H   0  0  0  0  0  0  0  0  0  0  0  0
    4.6273   -4.9755    0.4562 H   0  0  0  0  0  0  0  0  0  0  0  0
    6.8313   -3.9845    1.0250 H   0  0  0  0  0  0  0  0  0  0  0  0
    7.1556   -1.5247    0.9502 H   0  0  0  0  0  0  0  0  0  0  0  0
    5.2770   -0.0424    0.3079 H   0  0  0  0  0  0  0  0  0  0  0  0
   -1.1882    4.1135    0.6809 H   0  0  0  0  0  0  0  0  0  0  0  0
   -1.6184    1.7676    1.6290 H   0  0  0  0  0  0  0  0  0  0  0  0
   -1.4889    2.6533   -2.0861 H   0  0  0  0  0  0  0  0  0  0  0  0
   -3.5255    2.8353   -3.4611 H   0  0  0  0  0  0  0  0  0  0  0  0
   -5.7533    2.4200   -2.4591 H   0  0  0  0  0  0  0  0  0  0  0  0
   -5.9427    1.8083   -0.0608 H   0  0  0  0  0  0  0  0  0  0  0  0
   -3.9234    1.6119    1.3349 H   0  0  0  0  0  0  0  0  0  0  0  0
  1  2  1  0
  2  3  1  0
  3  4  1  0
  4  5  2  0
  4  6  1  0
  6  7  1  0
  7  8  1  0
  8  9  1  0
  9 10  2  0
  9 11  2  0
  9 12  1  0
 12 13  2  0
 13 14  1  0
 14 15  2  0
 15 16  1  0
 16 17  2  0
  7 18  2  0
 18 19  1  0
 19 20  2  0
 19 21  1  0
 21 22  1  0
 22 23  1  0
 23 24  2  0
 24 25  1  0
 25 26  2  0
 26 27  1  0
 27 28  2  0
 22  6  1  0
 28 23  1  0
 17 12  1  0
  1 29  1  0
  1 30  1  0
  1 31  1  0
  2 32  1  0
  2 33  1  0
  6 34  1  0
  8 35  1  0
  8 36  1  0
 13 37  1  0
 14 38  1  0
 15 39  1  0
 16 40  1  0
 17 41  1  0
 21 42  1  0
 22 43  1  0
 24 44  1  0
 25 45  1  0
 26 46  1  0
 27 47  1  0
 28 48  1  0
M  END
$$$$
