
     RDKit          3D

 46 49  0  0  0  0  0  0  0  0999 V2000
   -3.6572   -1.3673    2.0379 C   0  0  0  0  0  0  0  0  0  0  0  0
   -2.4667   -1.3576    1.0900 C   0  0  0  0  0  0  0  0  0  0  0  0
   -2.5890   -0.4233   -0.1369 C   0  0  0  0  0  0  0  0  0  0  0  0
   -3.6669   -0.8929   -1.1377 C   0  0  0  0  0  0  0  0  0  0  0  0
   -4.6413    0.1990   -1.5556 C   0  0  0  0  0  0  0  0  0  0  0  0
   -5.1442    0.9181   -0.3193 C   0  0  0  0  0  0  0  0  0  0  0  0
   -4.0034    1.6158    0.4078 C   0  0  0  0  0  0  0  0  0  0  0  0
   -2.6860    1.0036    0.2358 N   0  0  0  0  0  0  0  0  0  0  0  0
   -1.6033    1.7559    0.7371 C   0  0  0  0  0  0  0  0  0  0  0  0
   -1.7966    2.7977    1.3652 O   0  0  0  0  0  0  0  0  0  0  0  0
   -0.2548    1.2728    0.5098 C   0  0  0  0  0  0  0  0  0  0  0  0
    0.6718    0.8740    1.4524 C   0  0  0  0  0  0  0  0  0  0  0  0
    1.9170    0.5203    0.8539 C   0  0  0  0  0  0  0  0  0  0  0  0
    3.1256    0.0290    1.4821 C   0  0  0  0  0  0  0  0  0  0  0  0
    3.1781   -0.1625    2.6959 O   0  0  0  0  0  0  0  0  0  0  0  0
    4.1861   -0.2048    0.5886 N   0  0  0  0  0  0  0  0  0  0  0  0
    5.3893   -0.6736    1.1059 C   0  0  0  0  0  0  0  0  0  0  0  0
    6.4460   -0.9265    0.3277 C   0  0  0  0  0  0  0  0  0  0  0  0
    6.3614   -0.7158   -1.0900 C   0  0  0  0  0  0  0  0  0  0  0  0
    5.2335   -0.2655   -1.6604 C   0  0  0  0  0  0  0  0  0  0  0  0
    5.0964   -0.0283   -3.1321 C   0  0  0  0  0  0  0  0  0  0  0  0
    4.0355    0.0231   -0.7930 C   0  0  0  0  0  0  0  0  0  0  0  0
    2.9417    0.4593   -1.3526 N   0  0  0  0  0  0  0  0  0  0  0  0
    1.9149    0.7008   -0.5070 C   0  0  0  0  0  0  0  0  0  0  0  0
    0.4222    1.3105   -1.0645 S   0  0  0  0  0  0  0  0  0  0  0  0
   -3.4826   -2.0896    2.8425 H   0  0  0  0  0  0  0  0  0  0  0  0
   -4.5809   -1.6579    1.5314 H   0  0  0  0  0  0  0  0  0  0  0  0
   -3.8044   -0.3903    2.5052 H   0  0  0  0  0  0  0  0  0  0  0  0
   -1.5779   -1.0882    1.6713 H   0  0  0  0  0  0  0  0  0  0  0  0
   -2.2985   -2.3822    0.7346 H   0  0  0  0  0  0  0  0  0  0  0  0
   -1.6417   -0.5484   -0.6689 H   0  0  0  0  0  0  0  0  0  0  0  0
   -4.2323   -1.7388   -0.7290 H   0  0  0  0  0  0  0  0  0  0  0  0
   -3.1763   -1.2877   -2.0368 H   0  0  0  0  0  0  0  0  0  0  0  0
   -4.1498    0.9071   -2.2337 H   0  0  0  0  0  0  0  0  0  0  0  0
   -5.4797   -0.2439   -2.1044 H   0  0  0  0  0  0  0  0  0  0  0  0
   -5.6241    0.1969    0.3528 H   0  0  0  0  0  0  0  0  0  0  0  0
   -5.9158    1.6496   -0.5847 H   0  0  0  0  0  0  0  0  0  0  0  0
   -3.9316    2.6482    0.0413 H   0  0  0  0  0  0  0  0  0  0  0  0
   -4.2242    1.6835    1.4795 H   0  0  0  0  0  0  0  0  0  0  0  0
    0.4650    0.8315    2.5161 H   0  0  0  0  0  0  0  0  0  0  0  0
    5.4399   -0.8284    2.1813 H   0  0  0  0  0  0  0  0  0  0  0  0
    7.3782   -1.2912    0.7476 H   0  0  0  0  0  0  0  0  0  0  0  0
    7.2449   -0.9334   -1.6833 H   0  0  0  0  0  0  0  0  0  0  0  0
    4.3012   -0.6538   -3.5508 H   0  0  0  0  0  0  0  0  0  0  0  0
    6.0205   -0.2666   -3.6697 H   0  0  0  0  0  0  0  0  0  0  0  0
    4.8601    1.0218   -3.3328 H   0  0  0  0  0  0  0  0  0  0  0  0
  1  2  1  0
  2  3  1  0
  3  4  1  0
  4  5  1  0
  5  6  1  0
  6  7  1  0
  7  8  1  0
  8  9  1  0
  9 10  2  0
  9 11  1  0
 11 12  2  0
 12 13  1  0
 13 14  1  0
 14 15  2  0
 14 16  1  0
 16 17  1  0
 17 18  2  0
 18 19  1  0
 19 20  2  0
 20 21  1  0
 20 22  1  0
 22 23  2  0
 23 24  1  0
 24 25  1  0
  8  3  1  0
 25 11  1  0
 24 13  2  0
 22 16  1  0
  1 26  1  0
  1 27  1  0
  1 28  1  0
  2 29  1  0
  2 30  1  0
  3 31  1  0
  4 32  1  0
  4 33  1  0
  5 34  1  0
  5 35  1  0
  6 36  1  0
  6 37  1  0
  7 38  1  0
  7 39  1  0
 12 40  1  0
 17 41  1  0
 18 42  1  0
 19 43  1  0
 21 44  1  0
 21 45  1  0
 21 46  1  0
M  END
$$$$
