
     RDKit          3D

 41 41  0  0  0  0  0  0  0  0999 V2000
    4.7408   -0.4493    2.0101 C   0  0  0  0  0  0  0  0  0  0  0  0
    3.3802   -1.0237    2.3717 C   0  0  0  0  0  0  0  0  0  0  0  0
    2.2535   -0.3052    1.6275 C   0  0  0  0  0  0  0  0  0  0  0  0
    0.8894   -0.8922    1.9879 C   0  0  0  0  0  0  0  0  0  0  0  0
   -0.3065   -0.1287    1.4001 C   0  0  0  0  0  0  0  0  0  0  0  0
   -0.3805   -0.1526   -0.1502 C   0  0  0  0  0  0  0  0  0  0  0  0
    0.2073    1.1295   -0.7660 C   0  0  0  0  0  0  0  0  0  0  0  0
   -0.6826    2.3457   -0.5533 C   0  0  0  0  0  0  0  0  0  0  0  0
   -0.2481    3.5734   -0.5052 N   0  0  0  0  0  0  0  0  0  0  0  0
    1.1382    3.6440   -0.6724 O   0  0  0  0  0  0  0  0  0  0  0  0
   -2.1485    2.1301   -0.4368 C   0  0  0  0  0  0  0  0  0  0  0  0
   -2.6812    0.8985   -0.4958 C   0  0  0  0  0  0  0  0  0  0  0  0
   -4.1687    0.6927   -0.4242 C   0  0  0  0  0  0  0  0  0  0  0  0
   -1.8377   -0.3560   -0.6355 C   0  0  0  0  0  0  0  0  0  0  0  0
   -1.8472   -0.8640   -2.0840 C   0  0  0  0  0  0  0  0  0  0  0  0
   -2.1298   -0.2016   -3.0731 O   0  0  0  0  0  0  0  0  0  0  0  0
   -1.4772   -2.1791   -2.1115 O   0  0  0  0  0  0  0  0  0  0  0  0
   -1.4406   -2.7439   -3.4229 C   0  0  0  0  0  0  0  0  0  0  0  0
    4.7997    0.6125    2.2697 H   0  0  0  0  0  0  0  0  0  0  0  0
    4.9380   -0.5527    0.9383 H   0  0  0  0  0  0  0  0  0  0  0  0
    5.5313   -0.9763    2.5534 H   0  0  0  0  0  0  0  0  0  0  0  0
    3.2290   -0.9344    3.4537 H   0  0  0  0  0  0  0  0  0  0  0  0
    3.3646   -2.0926    2.1286 H   0  0  0  0  0  0  0  0  0  0  0  0
    2.4262   -0.3980    0.5497 H   0  0  0  0  0  0  0  0  0  0  0  0
    2.2736    0.7626    1.8760 H   0  0  0  0  0  0  0  0  0  0  0  0
    0.8439   -1.9404    1.6672 H   0  0  0  0  0  0  0  0  0  0  0  0
    0.7805   -0.8966    3.0799 H   0  0  0  0  0  0  0  0  0  0  0  0
   -0.2963    0.9004    1.7785 H   0  0  0  0  0  0  0  0  0  0  0  0
   -1.2062   -0.5958    1.8204 H   0  0  0  0  0  0  0  0  0  0  0  0
    0.2236   -0.9977   -0.5056 H   0  0  0  0  0  0  0  0  0  0  0  0
    1.1989    1.3167   -0.3475 H   0  0  0  0  0  0  0  0  0  0  0  0
    0.3351    1.0071   -1.8485 H   0  0  0  0  0  0  0  0  0  0  0  0
    1.3024    4.6047   -0.6394 H   0  0  0  0  0  0  0  0  0  0  0  0
   -2.7540    3.0245   -0.3350 H   0  0  0  0  0  0  0  0  0  0  0  0
   -4.7112    1.6394   -0.3297 H   0  0  0  0  0  0  0  0  0  0  0  0
   -4.5312    0.1915   -1.3272 H   0  0  0  0  0  0  0  0  0  0  0  0
   -4.4245    0.0755    0.4432 H   0  0  0  0  0  0  0  0  0  0  0  0
   -2.3086   -1.1451   -0.0325 H   0  0  0  0  0  0  0  0  0  0  0  0
   -2.4336   -2.7116   -3.8821 H   0  0  0  0  0  0  0  0  0  0  0  0
   -0.7071   -2.2213   -4.0448 H   0  0  0  0  0  0  0  0  0  0  0  0
   -1.1350   -3.7899   -3.3325 H   0  0  0  0  0  0  0  0  0  0  0  0
  1  2  1  0
  2  3  1  0
  3  4  1  0
  4  5  1  0
  5  6  1  0
  6  7  1  0
  7  8  1  0
  8  9  2  3
  9 10  1  0
  8 11  1  0
 11 12  2  0
 12 13  1  0
 12 14  1  0
 14 15  1  0
 15 16  2  0
 15 17  1  0
 17 18  1  0
 14  6  1  0
  1 19  1  0
  1 20  1  0
  1 21  1  0
  2 22  1  0
  2 23  1  0
  3 24  1  0
  3 25  1  0
  4 26  1  0
  4 27  1  0
  5 28  1  0
  5 29  1  0
  6 30  1  0
  7 31  1  0
  7 32  1  0
 10 33  1  0
 11 34  1  0
 13 35  1  0
 13 36  1  0
 13 37  1  0
 14 38  1  0
 18 39  1  0
 18 40  1  0
 18 41  1  0
M  END
$$$$
