
     RDKit          3D

 53 56  0  0  0  0  0  0  0  0999 V2000
   -6.8909    3.0461    1.1780 C   0  0  0  0  0  0  0  0  0  0  0  0
   -5.5521    2.3705    1.1499 C   0  0  0  0  0  0  0  0  0  0  0  0
   -5.4294    1.0255    1.5135 C   0  0  0  0  0  0  0  0  0  0  0  0
   -4.1896    0.3839    1.4604 C   0  0  0  0  0  0  0  0  0  0  0  0
   -3.0526    1.0759    1.0460 C   0  0  0  0  0  0  0  0  0  0  0  0
   -1.7799    0.4816    0.9276 N   0  0  0  0  0  0  0  0  0  0  0  0
   -1.2435   -0.6164    1.5840 C   0  0  0  0  0  0  0  0  0  0  0  0
   -1.6626   -1.0134    3.1712 S   0  0  0  0  0  0  0  0  0  0  0  0
   -0.2706   -1.3089    0.8151 N   0  0  0  0  0  0  0  0  0  0  0  0
    0.4181   -2.5126    1.3309 C   0  0  0  0  0  0  0  0  0  0  0  0
   -0.1509   -3.7679    0.7213 C   0  0  0  0  0  0  0  0  0  0  0  0
    0.3922   -4.5604   -0.2759 C   0  0  0  0  0  0  0  0  0  0  0  0
   -0.4437   -5.6625   -0.6163 C   0  0  0  0  0  0  0  0  0  0  0  0
   -1.5913   -5.6919    0.1457 C   0  0  0  0  0  0  0  0  0  0  0  0
   -1.6430   -4.4120    1.2756 S   0  0  0  0  0  0  0  0  0  0  0  0
    0.0101   -0.9702   -0.5968 C   0  0  0  0  0  0  0  0  0  0  0  0
    1.3234   -0.2484   -0.7263 C   0  0  0  0  0  0  0  0  0  0  0  0
    2.4719   -0.8549   -1.0762 C   0  0  0  0  0  0  0  0  0  0  0  0
    3.7198   -0.1015   -1.2126 C   0  0  0  0  0  0  0  0  0  0  0  0
    4.9086   -0.7412   -1.5652 C   0  0  0  0  0  0  0  0  0  0  0  0
    6.0843   -0.0025   -1.6945 C   0  0  0  0  0  0  0  0  0  0  0  0
    6.0778    1.3729   -1.4673 C   0  0  0  0  0  0  0  0  0  0  0  0
    4.8947    2.0364   -1.1100 C   0  0  0  0  0  0  0  0  0  0  0  0
    4.9230    3.5217   -0.8814 C   0  0  0  0  0  0  0  0  0  0  0  0
    3.7153    1.2831   -0.9889 C   0  0  0  0  0  0  0  0  0  0  0  0
    2.4994    1.8948   -0.6516 N   0  0  0  0  0  0  0  0  0  0  0  0
    1.3120    1.2300   -0.5297 C   0  0  0  0  0  0  0  0  0  0  0  0
    0.2752    1.8355   -0.2707 O   0  0  0  0  0  0  0  0  0  0  0  0
   -3.1828    2.4066    0.6367 C   0  0  0  0  0  0  0  0  0  0  0  0
   -4.4206    3.0514    0.6928 C   0  0  0  0  0  0  0  0  0  0  0  0
   -6.7821    4.1277    1.3126 H   0  0  0  0  0  0  0  0  0  0  0  0
   -7.4975    2.6753    2.0111 H   0  0  0  0  0  0  0  0  0  0  0  0
   -7.4229    2.8573    0.2379 H   0  0  0  0  0  0  0  0  0  0  0  0
   -6.3006    0.4612    1.8369 H   0  0  0  0  0  0  0  0  0  0  0  0
   -4.1474   -0.6689    1.7170 H   0  0  0  0  0  0  0  0  0  0  0  0
   -1.0804    1.0785    0.4831 H   0  0  0  0  0  0  0  0  0  0  0  0
    1.4812   -2.4285    1.0806 H   0  0  0  0  0  0  0  0  0  0  0  0
    0.3837   -2.5751    2.4214 H   0  0  0  0  0  0  0  0  0  0  0  0
    1.3421   -4.3511   -0.7560 H   0  0  0  0  0  0  0  0  0  0  0  0
   -0.2223   -6.3933   -1.3846 H   0  0  0  0  0  0  0  0  0  0  0  0
   -2.4010   -6.4029    0.0962 H   0  0  0  0  0  0  0  0  0  0  0  0
    0.0261   -1.8947   -1.1831 H   0  0  0  0  0  0  0  0  0  0  0  0
   -0.7986   -0.3840   -1.0439 H   0  0  0  0  0  0  0  0  0  0  0  0
    2.5080   -1.9222   -1.2582 H   0  0  0  0  0  0  0  0  0  0  0  0
    4.9337   -1.8131   -1.7453 H   0  0  0  0  0  0  0  0  0  0  0  0
    7.0097   -0.5009   -1.9747 H   0  0  0  0  0  0  0  0  0  0  0  0
    7.0087    1.9292   -1.5761 H   0  0  0  0  0  0  0  0  0  0  0  0
    5.9350    3.9269   -0.9843 H   0  0  0  0  0  0  0  0  0  0  0  0
    4.5783    3.7565    0.1291 H   0  0  0  0  0  0  0  0  0  0  0  0
    4.2870    4.0299   -1.6129 H   0  0  0  0  0  0  0  0  0  0  0  0
    2.4500    2.8937   -0.5101 H   0  0  0  0  0  0  0  0  0  0  0  0
   -2.3183    2.9597    0.2774 H   0  0  0  0  0  0  0  0  0  0  0  0
   -4.4948    4.0877    0.3715 H   0  0  0  0  0  0  0  0  0  0  0  0
  1  2  1  0
  2  3  2  0
  3  4  1  0
  4  5  2  0
  5  6  1  0
  6  7  1  0
  7  8  2  0
  7  9  1  0
  9 10  1  0
 10 11  1  0
 11 12  2  0
 12 13  1  0
 13 14  2  0
 14 15  1  0
  9 16  1  0
 16 17  1  0
 17 18  2  0
 18 19  1  0
 19 20  2  0
 20 21  1  0
 21 22  2  0
 22 23  1  0
 23 24  1  0
 23 25  2  0
 25 26  1  0
 26 27  1  0
 27 28  2  0
  5 29  1  0
 29 30  2  0
 30  2  1  0
 15 11  1  0
 27 17  1  0
 25 19  1  0
  1 31  1  0
  1 32  1  0
  1 33  1  0
  3 34  1  0
  4 35  1  0
  6 36  1  0
 10 37  1  0
 10 38  1  0
 12 39  1  0
 13 40  1  0
 14 41  1  0
 16 42  1  0
 16 43  1  0
 18 44  1  0
 20 45  1  0
 21 46  1  0
 22 47  1  0
 24 48  1  0
 24 49  1  0
 24 50  1  0
 26 51  1  0
 29 52  1  0
 30 53  1  0
M  END
$$$$
