
     RDKit          3D

 41 42  0  0  0  0  0  0  0  0999 V2000
    4.4840   -2.3775    1.1481 C   0  0  0  0  0  0  0  0  0  0  0  0
    3.3465   -1.5849    0.8239 O   0  0  0  0  0  0  0  0  0  0  0  0
    3.5673   -0.4273    0.1116 C   0  0  0  0  0  0  0  0  0  0  0  0
    4.8252    0.0437   -0.2754 C   0  0  0  0  0  0  0  0  0  0  0  0
    4.9209    1.2425   -0.9976 C   0  0  0  0  0  0  0  0  0  0  0  0
    6.2420    1.7395   -1.4044 N   0  0  0  0  0  4  0  0  0  0  0  0
    7.2309    1.0561   -1.1016 O   0  0  0  0  0  0  0  0  0  0  0  0
    6.2917    2.8113   -2.0233 O   0  0  0  0  0  1  0  0  0  0  0  0
    3.7752    1.9716   -1.3314 C   0  0  0  0  0  0  0  0  0  0  0  0
    2.5195    1.4985   -0.9422 C   0  0  0  0  0  0  0  0  0  0  0  0
    2.4048    0.3025   -0.2276 C   0  0  0  0  0  0  0  0  0  0  0  0
    1.1703   -0.2298    0.2020 N   0  0  0  0  0  0  0  0  0  0  0  0
   -0.1045    0.1967   -0.1213 C   0  0  0  0  0  0  0  0  0  0  0  0
   -0.3815    1.0941   -0.9083 O   0  0  0  0  0  0  0  0  0  0  0  0
   -1.0552   -0.5547    0.5787 N   0  0  0  0  0  0  0  0  0  0  0  0
   -2.4226   -0.2456    0.4238 N   0  0  0  0  0  0  0  0  0  0  0  0
   -2.9299    0.6528    1.4648 C   0  0  0  0  0  0  0  0  0  0  0  0
   -4.3892    1.0979    1.1894 C   0  0  0  0  0  0  0  0  0  0  0  0
   -5.2573    0.1262    0.4848 N   0  0  0  0  0  0  0  0  0  0  0  0
   -5.3500    0.4545   -0.9407 C   0  0  0  0  0  0  0  0  0  0  0  0
   -4.7401   -1.2405    0.6729 C   0  0  0  0  0  0  0  0  0  0  0  0
   -3.2520   -1.4538    0.2947 C   0  0  0  0  0  0  0  0  0  0  0  0
    5.1670   -1.8336    1.8087 H   0  0  0  0  0  0  0  0  0  0  0  0
    4.1311   -3.2608    1.6890 H   0  0  0  0  0  0  0  0  0  0  0  0
    4.9952   -2.7232    0.2436 H   0  0  0  0  0  0  0  0  0  0  0  0
    5.7297   -0.5014   -0.0253 H   0  0  0  0  0  0  0  0  0  0  0  0
    3.8356    2.9042   -1.8896 H   0  0  0  0  0  0  0  0  0  0  0  0
    1.6464    2.0882   -1.2084 H   0  0  0  0  0  0  0  0  0  0  0  0
    1.2478   -1.1204    0.6764 H   0  0  0  0  0  0  0  0  0  0  0  0
   -0.7566   -0.9289    1.4717 H   0  0  0  0  0  0  0  0  0  0  0  0
   -2.3034    1.5506    1.5341 H   0  0  0  0  0  0  0  0  0  0  0  0
   -2.8814    0.1528    2.4416 H   0  0  0  0  0  0  0  0  0  0  0  0
   -4.8574    1.3130    2.1583 H   0  0  0  0  0  0  0  0  0  0  0  0
   -4.3777    2.0569    0.6545 H   0  0  0  0  0  0  0  0  0  0  0  0
   -5.9895   -0.2688   -1.4590 H   0  0  0  0  0  0  0  0  0  0  0  0
   -4.3781    0.4763   -1.4448 H   0  0  0  0  0  0  0  0  0  0  0  0
   -5.8235    1.4341   -1.0725 H   0  0  0  0  0  0  0  0  0  0  0  0
   -4.8629   -1.4906    1.7357 H   0  0  0  0  0  0  0  0  0  0  0  0
   -5.3646   -1.9635    0.1334 H   0  0  0  0  0  0  0  0  0  0  0  0
   -3.1921   -1.7923   -0.7466 H   0  0  0  0  0  0  0  0  0  0  0  0
   -2.8614   -2.2662    0.9217 H   0  0  0  0  0  0  0  0  0  0  0  0
  1  2  1  0
  2  3  1  0
  3  4  2  0
  4  5  1  0
  5  6  1  0
  6  7  2  0
  6  8  1  0
  5  9  2  0
  9 10  1  0
 10 11  2  0
 11 12  1  0
 12 13  1  0
 13 14  2  0
 13 15  1  0
 15 16  1  0
 16 17  1  0
 17 18  1  0
 18 19  1  0
 19 20  1  0
 19 21  1  0
 21 22  1  0
 11  3  1  0
 22 16  1  0
  1 23  1  0
  1 24  1  0
  1 25  1  0
  4 26  1  0
  9 27  1  0
 10 28  1  0
 12 29  1  0
 15 30  1  0
 17 31  1  0
 17 32  1  0
 18 33  1  0
 18 34  1  0
 20 35  1  0
 20 36  1  0
 20 37  1  0
 21 38  1  0
 21 39  1  0
 22 40  1  0
 22 41  1  0
M  CHG  2   6   1   8  -1
M  END
$$$$
