
     RDKit          3D

 50 53  0  0  0  0  0  0  0  0999 V2000
   -4.0669    3.0810   -3.5416 C   0  0  0  0  0  0  0  0  0  0  0  0
   -4.7644    2.3887   -2.4435 C   0  0  0  0  0  0  0  0  0  0  0  0
   -4.8390    1.0806   -2.0296 C   0  0  0  0  0  0  0  0  0  0  0  0
   -5.7085    1.1150   -0.9212 C   0  0  0  0  0  0  0  0  0  0  0  0
   -6.1539    0.0798   -0.1238 N   0  0  0  0  0  0  0  0  0  0  0  0
   -5.5791   -1.4778   -0.1264 S   0  0  0  0  0  6  0  0  0  0  0  0
   -5.4708   -1.9428   -1.4925 O   0  0  0  0  0  0  0  0  0  0  0  0
   -6.3412   -2.2130    0.8618 O   0  0  0  0  0  0  0  0  0  0  0  0
   -3.9389   -1.2880    0.5299 C   0  0  0  0  0  0  0  0  0  0  0  0
   -3.7785   -0.8720    1.8533 C   0  0  0  0  0  0  0  0  0  0  0  0
   -2.4904   -0.7362    2.3780 C   0  0  0  0  0  0  0  0  0  0  0  0
   -1.3616   -1.0290    1.5973 C   0  0  0  0  0  0  0  0  0  0  0  0
   -0.1014   -0.8892    2.2155 N   0  0  0  0  0  0  0  0  0  0  0  0
    1.1450   -1.1702    1.6729 C   0  0  0  0  0  0  0  0  0  0  0  0
    1.3698   -1.5431    0.5285 O   0  0  0  0  0  0  0  0  0  0  0  0
    2.2546   -0.9323    2.6827 C   0  0  0  0  0  0  0  0  0  0  0  0
    3.6030   -1.5018    2.2386 C   0  0  0  0  0  0  0  0  0  0  0  0
    4.2199   -0.8202    1.1110 N   0  0  0  0  0  0  0  0  0  0  0  0
    4.8033   -1.4861    0.0612 C   0  0  0  0  0  0  0  0  0  0  0  0
    4.8951   -2.6842   -0.1406 O   0  0  0  0  0  0  0  0  0  0  0  0
    5.4055   -0.4673   -0.7986 C   0  0  0  0  0  0  0  0  0  0  0  0
    6.0853   -0.5898   -1.9963 C   0  0  0  0  0  0  0  0  0  0  0  0
    6.5823    0.5848   -2.5733 C   0  0  0  0  0  0  0  0  0  0  0  0
    6.3932    1.8354   -1.9445 C   0  0  0  0  0  0  0  0  0  0  0  0
    5.7063    1.9314   -0.7287 C   0  0  0  0  0  0  0  0  0  0  0  0
    5.2223    0.7578   -0.1819 C   0  0  0  0  0  0  0  0  0  0  0  0
    4.5004    0.5194    1.0680 C   0  0  0  0  0  0  0  0  0  0  0  0
    4.2607    1.3828    1.8910 O   0  0  0  0  0  0  0  0  0  0  0  0
   -1.5420   -1.4519    0.2773 C   0  0  0  0  0  0  0  0  0  0  0  0
   -2.8272   -1.5827   -0.2595 C   0  0  0  0  0  0  0  0  0  0  0  0
   -6.1324    2.3576   -0.6734 N   0  0  0  0  0  0  0  0  0  0  0  0
   -5.5313    3.1606   -1.6277 O   0  0  0  0  0  0  0  0  0  0  0  0
   -4.7876    3.5318   -4.2302 H   0  0  0  0  0  0  0  0  0  0  0  0
   -3.4418    2.3853   -4.1095 H   0  0  0  0  0  0  0  0  0  0  0  0
   -3.4204    3.8730   -3.1517 H   0  0  0  0  0  0  0  0  0  0  0  0
   -4.3533    0.2326   -2.4890 H   0  0  0  0  0  0  0  0  0  0  0  0
   -6.8337    0.3074    0.5965 H   0  0  0  0  0  0  0  0  0  0  0  0
   -4.6433   -0.6662    2.4809 H   0  0  0  0  0  0  0  0  0  0  0  0
   -2.3845   -0.4149    3.4122 H   0  0  0  0  0  0  0  0  0  0  0  0
   -0.1144   -0.5634    3.1747 H   0  0  0  0  0  0  0  0  0  0  0  0
    2.3152    0.1461    2.8691 H   0  0  0  0  0  0  0  0  0  0  0  0
    1.9684   -1.4180    3.6257 H   0  0  0  0  0  0  0  0  0  0  0  0
    4.3064   -1.4139    3.0754 H   0  0  0  0  0  0  0  0  0  0  0  0
    3.5049   -2.5709    2.0062 H   0  0  0  0  0  0  0  0  0  0  0  0
    6.2283   -1.5594   -2.4634 H   0  0  0  0  0  0  0  0  0  0  0  0
    7.1245    0.5341   -3.5171 H   0  0  0  0  0  0  0  0  0  0  0  0
    6.7923    2.7354   -2.4113 H   0  0  0  0  0  0  0  0  0  0  0  0
    5.5607    2.8843   -0.2306 H   0  0  0  0  0  0  0  0  0  0  0  0
   -0.7008   -1.6947   -0.3651 H   0  0  0  0  0  0  0  0  0  0  0  0
   -2.9403   -1.9258   -1.2865 H   0  0  0  0  0  0  0  0  0  0  0  0
  1  2  1  0
  2  3  2  0
  3  4  1  0
  4  5  1  0
  5  6  1  0
  6  7  2  0
  6  8  2  0
  6  9  1  0
  9 10  2  0
 10 11  1  0
 11 12  2  0
 12 13  1  0
 13 14  1  0
 14 15  2  0
 14 16  1  0
 16 17  1  0
 17 18  1  0
 18 19  1  0
 19 20  2  0
 19 21  1  0
 21 22  2  0
 22 23  1  0
 23 24  2  0
 24 25  1  0
 25 26  2  0
 26 27  1  0
 27 28  2  0
 12 29  1  0
 29 30  2  0
  4 31  2  0
 31 32  1  0
 32  2  1  0
 30  9  1  0
 27 18  1  0
 26 21  1  0
  1 33  1  0
  1 34  1  0
  1 35  1  0
  3 36  1  0
  5 37  1  0
 10 38  1  0
 11 39  1  0
 13 40  1  0
 16 41  1  0
 16 42  1  0
 17 43  1  0
 17 44  1  0
 22 45  1  0
 23 46  1  0
 24 47  1  0
 25 48  1  0
 29 49  1  0
 30 50  1  0
M  END
$$$$
