
     RDKit          3D

 55 56  0  0  0  0  0  0  0  0999 V2000
   -0.5927   -0.7294    1.8781 C   0  0  0  0  0  0  0  0  0  0  0  0
   -1.8077   -0.1106    1.1881 C   0  0  0  0  0  0  0  0  0  0  0  0
   -1.3956    1.0224    0.3741 N   0  0  0  0  0  0  0  0  0  0  0  0
   -1.8183    1.1764   -0.9272 C   0  0  0  0  0  0  0  0  0  0  0  0
   -2.4292    0.3130   -1.5491 O   0  0  0  0  0  0  0  0  0  0  0  0
   -1.5048    2.5402   -1.5036 C   0  0  0  0  0  0  0  0  0  0  0  0
   -1.3338    2.5155   -3.0175 C   0  0  0  0  0  0  0  0  0  0  0  0
    0.3839    2.1042   -3.4945 S   0  0  0  0  0  0  0  0  0  0  0  0
    0.1268    0.5176   -4.3736 C   0  0  0  0  0  0  0  0  0  0  0  0
    0.3048   -0.6869   -3.4601 C   0  0  0  0  0  0  0  0  0  0  0  0
    1.7587   -0.9249   -3.1097 C   0  0  0  0  0  0  0  0  0  0  0  0
    2.6557   -0.8955   -3.9462 O   0  0  0  0  0  0  0  0  0  0  0  0
    1.9711   -1.2232   -1.7840 N   0  0  0  0  0  0  0  0  0  0  0  0
    3.3038   -1.4495   -1.2493 C   0  0  0  0  0  0  0  0  0  0  0  0
    3.7957   -2.8597   -1.5923 C   0  0  0  0  0  0  0  0  0  0  0  0
    3.3042   -1.1268    0.2367 C   0  0  0  0  0  0  0  0  0  0  0  0
    3.0650   -2.0928    1.2267 C   0  0  0  0  0  0  0  0  0  0  0  0
    3.0510   -1.7388    2.5790 C   0  0  0  0  0  0  0  0  0  0  0  0
    3.2615   -0.4132    2.9608 C   0  0  0  0  0  0  0  0  0  0  0  0
    3.4820    0.5610    1.9913 C   0  0  0  0  0  0  0  0  0  0  0  0
    3.4978    0.2080    0.6397 C   0  0  0  0  0  0  0  0  0  0  0  0
   -2.9000    0.3394    2.1430 C   0  0  0  0  0  0  0  0  0  0  0  0
   -2.6197    0.9762    3.3623 C   0  0  0  0  0  0  0  0  0  0  0  0
   -3.6552    1.4067    4.1952 C   0  0  0  0  0  0  0  0  0  0  0  0
   -4.9828    1.2170    3.8181 C   0  0  0  0  0  0  0  0  0  0  0  0
   -5.2783    0.6002    2.6052 C   0  0  0  0  0  0  0  0  0  0  0  0
   -4.2450    0.1705    1.7712 C   0  0  0  0  0  0  0  0  0  0  0  0
   -0.8881   -1.5491    2.5421 H   0  0  0  0  0  0  0  0  0  0  0  0
   -0.0314    0.0039    2.4676 H   0  0  0  0  0  0  0  0  0  0  0  0
    0.0971   -1.1324    1.1292 H   0  0  0  0  0  0  0  0  0  0  0  0
   -2.2221   -0.8897    0.5357 H   0  0  0  0  0  0  0  0  0  0  0  0
   -1.0699    1.8409    0.8706 H   0  0  0  0  0  0  0  0  0  0  0  0
   -0.6371    2.9879   -1.0059 H   0  0  0  0  0  0  0  0  0  0  0  0
   -2.3709    3.1686   -1.2605 H   0  0  0  0  0  0  0  0  0  0  0  0
   -2.0541    1.8557   -3.5097 H   0  0  0  0  0  0  0  0  0  0  0  0
   -1.5135    3.5257   -3.4022 H   0  0  0  0  0  0  0  0  0  0  0  0
    0.8468    0.4855   -5.1980 H   0  0  0  0  0  0  0  0  0  0  0  0
   -0.8694    0.5078   -4.8267 H   0  0  0  0  0  0  0  0  0  0  0  0
   -0.0364   -1.5887   -3.9823 H   0  0  0  0  0  0  0  0  0  0  0  0
   -0.3037   -0.5995   -2.5587 H   0  0  0  0  0  0  0  0  0  0  0  0
    1.1977   -1.1850   -1.1328 H   0  0  0  0  0  0  0  0  0  0  0  0
    3.9895   -0.7506   -1.7479 H   0  0  0  0  0  0  0  0  0  0  0  0
    4.7777   -3.0546   -1.1471 H   0  0  0  0  0  0  0  0  0  0  0  0
    3.0997   -3.6319   -1.2455 H   0  0  0  0  0  0  0  0  0  0  0  0
    3.8901   -2.9852   -2.6769 H   0  0  0  0  0  0  0  0  0  0  0  0
    2.8822   -3.1325    0.9631 H   0  0  0  0  0  0  0  0  0  0  0  0
    2.8731   -2.4992    3.3350 H   0  0  0  0  0  0  0  0  0  0  0  0
    3.2523   -0.1405    4.0140 H   0  0  0  0  0  0  0  0  0  0  0  0
    3.6419    1.5979    2.2844 H   0  0  0  0  0  0  0  0  0  0  0  0
    3.6638    0.9847   -0.1061 H   0  0  0  0  0  0  0  0  0  0  0  0
   -1.5948    1.1499    3.6795 H   0  0  0  0  0  0  0  0  0  0  0  0
   -3.4249    1.8961    5.1384 H   0  0  0  0  0  0  0  0  0  0  0  0
   -5.7871    1.5544    4.4663 H   0  0  0  0  0  0  0  0  0  0  0  0
   -6.3134    0.4579    2.3039 H   0  0  0  0  0  0  0  0  0  0  0  0
   -4.4942   -0.2951    0.8182 H   0  0  0  0  0  0  0  0  0  0  0  0
  1  2  1  0
  2  3  1  0
  3  4  1  0
  4  5  2  0
  4  6  1  0
  6  7  1  0
  7  8  1  0
  8  9  1  0
  9 10  1  0
 10 11  1  0
 11 12  2  0
 11 13  1  0
 13 14  1  0
 14 15  1  0
 14 16  1  0
 16 17  2  0
 17 18  1  0
 18 19  2  0
 19 20  1  0
 20 21  2  0
  2 22  1  0
 22 23  2  0
 23 24  1  0
 24 25  2  0
 25 26  1  0
 26 27  2  0
 21 16  1  0
 27 22  1  0
  1 28  1  0
  1 29  1  0
  1 30  1  0
  2 31  1  0
  3 32  1  0
  6 33  1  0
  6 34  1  0
  7 35  1  0
  7 36  1  0
  9 37  1  0
  9 38  1  0
 10 39  1  0
 10 40  1  0
 13 41  1  0
 14 42  1  0
 15 43  1  0
 15 44  1  0
 15 45  1  0
 17 46  1  0
 18 47  1  0
 19 48  1  0
 20 49  1  0
 21 50  1  0
 23 51  1  0
 24 52  1  0
 25 53  1  0
 26 54  1  0
 27 55  1  0
M  END
$$$$
