
     RDKit          3D

 32 35  0  0  0  0  0  0  0  0999 V2000
   -3.5092    2.9633   -0.2946 C   0  0  0  0  0  0  0  0  0  0  0  0
   -4.6578    2.1371   -0.1639 O   0  0  0  0  0  0  0  0  0  0  0  0
   -4.4197    0.7770    0.0139 C   0  0  0  0  0  0  0  0  0  0  0  0
   -5.5977    0.0216    0.1330 C   0  0  0  0  0  0  0  0  0  0  0  0
   -5.5538   -1.3554    0.3160 C   0  0  0  0  0  0  0  0  0  0  0  0
   -4.3305   -2.0204    0.3859 C   0  0  0  0  0  0  0  0  0  0  0  0
   -3.1510   -1.2652    0.2668 C   0  0  0  0  0  0  0  0  0  0  0  0
   -1.5265   -1.8222    0.3153 S   0  0  0  0  0  0  0  0  0  0  0  0
   -0.9447   -0.2203    0.0925 C   0  0  0  0  0  0  0  0  0  0  0  0
    0.3562    0.1400    0.0231 N   0  0  0  0  0  0  0  0  0  0  0  0
    1.4633   -0.6128    0.1025 C   0  0  0  0  0  0  0  0  0  0  0  0
    1.6550   -1.9022    0.2670 N   0  0  0  0  0  0  0  0  0  0  0  0
    3.0187   -2.1048    0.2702 N   0  0  0  0  0  0  0  0  0  0  0  0
    3.5836   -0.9231    0.1073 C   0  0  0  0  0  0  0  0  0  0  0  0
    4.9966   -0.6776    0.0520 C   0  0  0  0  0  0  0  0  0  0  0  0
    5.6190    0.5473   -0.1054 C   0  0  0  0  0  0  0  0  0  0  0  0
    7.0415    0.4412   -0.1191 C   0  0  0  0  0  0  0  0  0  0  0  0
    7.4601   -0.8618    0.0279 C   0  0  0  0  0  0  0  0  0  0  0  0
    6.1449   -1.9434    0.1817 S   0  0  0  0  0  0  0  0  0  0  0  0
    2.6406    0.0743   -0.0061 O   0  0  0  0  0  0  0  0  0  0  0  0
   -1.8904    0.6857   -0.0125 N   0  0  0  0  0  0  0  0  0  0  0  0
   -3.1601    0.1196    0.0823 C   0  0  0  0  0  0  0  0  0  0  0  0
   -2.8993    2.9422    0.6139 H   0  0  0  0  0  0  0  0  0  0  0  0
   -2.9290    2.6991   -1.1843 H   0  0  0  0  0  0  0  0  0  0  0  0
   -3.8570    3.9927   -0.4280 H   0  0  0  0  0  0  0  0  0  0  0  0
   -6.5604    0.5264    0.0811 H   0  0  0  0  0  0  0  0  0  0  0  0
   -6.4803   -1.9184    0.4059 H   0  0  0  0  0  0  0  0  0  0  0  0
   -4.2916   -3.0966    0.5289 H   0  0  0  0  0  0  0  0  0  0  0  0
    0.5022    1.1315   -0.1102 H   0  0  0  0  0  0  0  0  0  0  0  0
    5.0808    1.4827   -0.2063 H   0  0  0  0  0  0  0  0  0  0  0  0
    7.7215    1.2771   -0.2311 H   0  0  0  0  0  0  0  0  0  0  0  0
    8.4753   -1.2344    0.0529 H   0  0  0  0  0  0  0  0  0  0  0  0
  1  2  1  0
  2  3  1  0
  3  4  2  0
  4  5  1  0
  5  6  2  0
  6  7  1  0
  7  8  1  0
  8  9  1  0
  9 10  1  0
 10 11  1  0
 11 12  2  0
 12 13  1  0
 13 14  2  0
 14 15  1  0
 15 16  2  0
 16 17  1  0
 17 18  2  0
 18 19  1  0
 14 20  1  0
  9 21  2  0
 21 22  1  0
 22  3  1  0
 22  7  2  0
 20 11  1  0
 19 15  1  0
  1 23  1  0
  1 24  1  0
  1 25  1  0
  4 26  1  0
  5 27  1  0
  6 28  1  0
 10 29  1  0
 16 30  1  0
 17 31  1  0
 18 32  1  0
M  END
$$$$
