
     RDKit          3D

 45 47  0  0  0  0  0  0  0  0999 V2000
   -5.2893   -2.7422    0.2550 N   0  0  0  0  0  0  0  0  0  0  0  0
   -5.7917   -1.5161   -0.7758 S   0  0  0  0  0  6  0  0  0  0  0  0
   -7.0642   -1.0642   -0.2637 O   0  0  0  0  0  0  0  0  0  0  0  0
   -5.6327   -2.0312   -2.1153 O   0  0  0  0  0  0  0  0  0  0  0  0
   -4.5704   -0.2710   -0.4817 C   0  0  0  0  0  0  0  0  0  0  0  0
   -3.4036   -0.2527   -1.2482 C   0  0  0  0  0  0  0  0  0  0  0  0
   -2.4504    0.7471   -1.0321 C   0  0  0  0  0  0  0  0  0  0  0  0
   -2.6545    1.7224   -0.0512 C   0  0  0  0  0  0  0  0  0  0  0  0
   -1.7486    2.7771    0.1980 N   0  0  0  0  0  0  0  0  0  0  0  0
   -0.5004    2.9811   -0.3240 C   0  0  0  0  0  0  0  0  0  0  0  0
   -0.1219    4.5626   -0.7459 S   0  0  0  0  0  0  0  0  0  0  0  0
    0.3760    1.9103   -0.3925 N   0  0  0  0  0  0  0  0  0  0  0  0
    0.3492    0.8377    0.6238 C   0  0  0  0  0  0  0  0  0  0  0  0
    1.7546    0.4263    1.1087 C   0  0  0  0  0  0  0  0  0  0  0  0
    2.5994   -0.0014   -0.0185 N   0  0  0  0  0  0  0  0  0  0  0  0
    3.6696   -0.8638    0.1592 C   0  0  0  0  0  0  0  0  0  0  0  0
    4.2438   -1.0886    1.4214 C   0  0  0  0  0  0  0  0  0  0  0  0
    5.3242   -1.9617    1.6026 C   0  0  0  0  0  0  0  0  0  0  0  0
    5.8611   -2.6415    0.5168 C   0  0  0  0  0  0  0  0  0  0  0  0
    5.3157   -2.4456   -0.7454 C   0  0  0  0  0  0  0  0  0  0  0  0
    4.2366   -1.5690   -0.9160 C   0  0  0  0  0  0  0  0  0  0  0  0
    2.3246    0.6142   -1.3286 C   0  0  0  0  0  0  0  0  0  0  0  0
    1.6251    1.9776   -1.1745 C   0  0  0  0  0  0  0  0  0  0  0  0
   -3.8472    1.7147    0.6832 C   0  0  0  0  0  0  0  0  0  0  0  0
   -4.8049    0.7184    0.4748 C   0  0  0  0  0  0  0  0  0  0  0  0
   -5.0374   -3.5684   -0.2885 H   0  0  0  0  0  0  0  0  0  0  0  0
   -6.0072   -2.9174    0.9587 H   0  0  0  0  0  0  0  0  0  0  0  0
   -3.2322   -1.0005   -2.0195 H   0  0  0  0  0  0  0  0  0  0  0  0
   -1.5672    0.7634   -1.6645 H   0  0  0  0  0  0  0  0  0  0  0  0
   -2.1850    3.6321    0.5282 H   0  0  0  0  0  0  0  0  0  0  0  0
   -0.1249   -0.0344    0.1610 H   0  0  0  0  0  0  0  0  0  0  0  0
   -0.2525    1.1441    1.4855 H   0  0  0  0  0  0  0  0  0  0  0  0
    2.2333    1.2699    1.6205 H   0  0  0  0  0  0  0  0  0  0  0  0
    1.6254   -0.3883    1.8313 H   0  0  0  0  0  0  0  0  0  0  0  0
    3.8749   -0.5642    2.2980 H   0  0  0  0  0  0  0  0  0  0  0  0
    5.7446   -2.1020    2.5948 H   0  0  0  0  0  0  0  0  0  0  0  0
    6.6986   -3.3195    0.6535 H   0  0  0  0  0  0  0  0  0  0  0  0
    5.7218   -2.9756   -1.6026 H   0  0  0  0  0  0  0  0  0  0  0  0
    3.8289   -1.4678   -1.9178 H   0  0  0  0  0  0  0  0  0  0  0  0
    3.2524    0.7835   -1.8881 H   0  0  0  0  0  0  0  0  0  0  0  0
    1.6891   -0.0624   -1.9126 H   0  0  0  0  0  0  0  0  0  0  0  0
    1.4013    2.3917   -2.1639 H   0  0  0  0  0  0  0  0  0  0  0  0
    2.2996    2.6734   -0.6594 H   0  0  0  0  0  0  0  0  0  0  0  0
   -4.0394    2.4774    1.4344 H   0  0  0  0  0  0  0  0  0  0  0  0
   -5.7241    0.7241    1.0565 H   0  0  0  0  0  0  0  0  0  0  0  0
  1  2  1  0
  2  3  2  0
  2  4  2  0
  2  5  1  0
  5  6  2  0
  6  7  1  0
  7  8  2  0
  8  9  1  0
  9 10  1  0
 10 11  2  0
 10 12  1  0
 12 13  1  0
 13 14  1  0
 14 15  1  0
 15 16  1  0
 16 17  2  0
 17 18  1  0
 18 19  2  0
 19 20  1  0
 20 21  2  0
 15 22  1  0
 22 23  1  0
  8 24  1  0
 24 25  2  0
 25  5  1  0
 23 12  1  0
 21 16  1  0
  1 26  1  0
  1 27  1  0
  6 28  1  0
  7 29  1  0
  9 30  1  0
 13 31  1  0
 13 32  1  0
 14 33  1  0
 14 34  1  0
 17 35  1  0
 18 36  1  0
 19 37  1  0
 20 38  1  0
 21 39  1  0
 22 40  1  0
 22 41  1  0
 23 42  1  0
 23 43  1  0
 24 44  1  0
 25 45  1  0
M  END
$$$$
