
     RDKit          3D

 37 38  0  0  0  0  0  0  0  0999 V2000
    3.0746   -2.3279    2.5716 C   0  0  0  0  0  0  0  0  0  0  0  0
    2.2951   -1.1579    2.2673 N   0  0  0  0  0  0  0  0  0  0  0  0
    1.9563   -0.8491    0.9730 C   0  0  0  0  0  0  0  0  0  0  0  0
    2.4091   -1.4311   -0.0070 O   0  0  0  0  0  0  0  0  0  0  0  0
    1.0701    0.2008    0.8830 N   0  0  0  0  0  0  0  0  0  0  0  0
    0.4695    0.6588    2.0788 O   0  0  0  0  0  0  0  0  0  0  0  0
    0.3864    0.5496   -0.3818 C   0  0  0  0  0  0  0  0  0  0  0  0
   -1.0188    0.9439   -0.1957 N   0  0  0  0  0  0  0  0  0  0  0  0
   -2.0447   -0.0536   -0.2522 C   0  0  0  0  0  0  0  0  0  0  0  0
   -1.7689   -1.3931    0.0673 C   0  0  0  0  0  0  0  0  0  0  0  0
   -2.7567   -2.3811   -0.0172 C   0  0  0  0  0  0  0  0  0  0  0  0
   -4.0395   -2.0518   -0.4379 C   0  0  0  0  0  0  0  0  0  0  0  0
   -4.3301   -0.7366   -0.7802 C   0  0  0  0  0  0  0  0  0  0  0  0
   -3.3400    0.2495   -0.6937 C   0  0  0  0  0  0  0  0  0  0  0  0
   -1.1824    2.3086    0.0619 C   0  0  0  0  0  0  0  0  0  0  0  0
   -2.4741    3.1424    0.7146 S   0  0  0  0  0  0  0  0  0  0  0  0
    0.3140    3.1779   -0.3353 S   0  0  0  0  0  0  0  0  0  0  0  0
    1.0806    1.7200   -1.1242 C   0  0  0  0  0  0  0  0  0  0  0  0
    0.7160    1.7230   -2.6182 C   0  0  0  0  0  0  0  0  0  0  0  0
    2.6014    1.7931   -0.9743 C   0  0  0  0  0  0  0  0  0  0  0  0
    2.4549   -3.2152    2.4168 H   0  0  0  0  0  0  0  0  0  0  0  0
    3.9483   -2.3772    1.9162 H   0  0  0  0  0  0  0  0  0  0  0  0
    3.3918   -2.2732    3.6153 H   0  0  0  0  0  0  0  0  0  0  0  0
    1.6007   -0.8440    2.9362 H   0  0  0  0  0  0  0  0  0  0  0  0
    0.9107    1.5217    2.2015 H   0  0  0  0  0  0  0  0  0  0  0  0
    0.4351   -0.3280   -1.0399 H   0  0  0  0  0  0  0  0  0  0  0  0
   -0.7923   -1.7036    0.4252 H   0  0  0  0  0  0  0  0  0  0  0  0
   -2.5199   -3.4074    0.2525 H   0  0  0  0  0  0  0  0  0  0  0  0
   -4.8082   -2.8170   -0.5034 H   0  0  0  0  0  0  0  0  0  0  0  0
   -5.3265   -0.4716   -1.1255 H   0  0  0  0  0  0  0  0  0  0  0  0
   -3.6084    1.2469   -1.0277 H   0  0  0  0  0  0  0  0  0  0  0  0
    1.1361    0.8404   -3.1147 H   0  0  0  0  0  0  0  0  0  0  0  0
    1.1178    2.6057   -3.1296 H   0  0  0  0  0  0  0  0  0  0  0  0
   -0.3665    1.7027   -2.7888 H   0  0  0  0  0  0  0  0  0  0  0  0
    2.9194    1.8865    0.0700 H   0  0  0  0  0  0  0  0  0  0  0  0
    3.0738    0.8952   -1.3878 H   0  0  0  0  0  0  0  0  0  0  0  0
    3.0151    2.6523   -1.5161 H   0  0  0  0  0  0  0  0  0  0  0  0
  1  2  1  0
  2  3  1  0
  3  4  2  0
  3  5  1  0
  5  6  1  0
  5  7  1  0
  7  8  1  0
  8  9  1  0
  9 10  2  0
 10 11  1  0
 11 12  2  0
 12 13  1  0
 13 14  2  0
  8 15  1  0
 15 16  2  0
 15 17  1  0
 17 18  1  0
 18 19  1  0
 18 20  1  0
 18  7  1  0
 14  9  1  0
  1 21  1  0
  1 22  1  0
  1 23  1  0
  2 24  1  0
  6 25  1  0
  7 26  1  0
 10 27  1  0
 11 28  1  0
 12 29  1  0
 13 30  1  0
 14 31  1  0
 19 32  1  0
 19 33  1  0
 19 34  1  0
 20 35  1  0
 20 36  1  0
 20 37  1  0
M  END
$$$$
