
     RDKit          3D

 54 57  0  0  0  0  0  0  0  0999 V2000
   -0.2407    4.0539   -0.2699 C   0  0  0  0  0  0  0  0  0  0  0  0
   -1.0015    2.8746   -0.6496 N   0  0  0  0  0  0  0  0  0  0  0  0
   -0.6896    1.6610   -0.0524 C   0  0  0  0  0  0  0  0  0  0  0  0
    0.2752    1.5176    0.6949 O   0  0  0  0  0  0  0  0  0  0  0  0
   -1.5369    0.5142   -0.4045 C   0  0  0  0  0  0  0  0  0  0  0  0
   -1.5067   -0.7296    0.2076 C   0  0  0  0  0  0  0  0  0  0  0  0
   -0.5803   -1.1405    1.6698 S   0  0  0  0  0  0  0  0  0  0  0  0
    0.9913   -1.6097    0.8792 C   0  0  0  0  0  0  0  0  0  0  0  0
    2.1519   -1.2480    1.7892 C   0  0  0  0  0  0  0  0  0  0  0  0
    2.9440   -2.0875    2.2090 O   0  0  0  0  0  0  0  0  0  0  0  0
    2.2756    0.0988    2.0404 N   0  0  0  0  0  0  0  0  0  0  0  0
    3.2636    0.6444    2.9507 C   0  0  0  0  0  0  0  0  0  0  0  0
    4.3176    1.5068    2.2392 C   0  0  0  0  0  0  0  0  0  0  0  0
    5.3097    0.7051    1.4071 C   0  0  0  0  0  0  0  0  0  0  0  0
    6.3870    0.3757    2.4076 C   0  0  0  0  0  0  0  0  0  0  0  0
    6.4201    1.6268    3.2582 C   0  0  0  0  0  0  0  0  0  0  0  0
    5.1015    2.1917    3.2376 O   0  0  0  0  0  0  0  0  0  0  0  0
   -2.2605   -1.7632   -0.2195 N   0  0  0  0  0  0  0  0  0  0  0  0
   -3.0641   -1.5538   -1.2654 C   0  0  0  0  0  0  0  0  0  0  0  0
   -3.8956   -2.6629   -1.7301 C   0  0  0  0  0  0  0  0  0  0  0  0
   -5.2923   -2.4903   -1.8202 C   0  0  0  0  0  0  0  0  0  0  0  0
   -6.1302   -3.5298   -2.2325 C   0  0  0  0  0  0  0  0  0  0  0  0
   -5.5888   -4.7610   -2.5775 C   0  0  0  0  0  0  0  0  0  0  0  0
   -4.2101   -4.9547   -2.5099 C   0  0  0  0  0  0  0  0  0  0  0  0
   -3.3685   -3.9163   -2.0899 C   0  0  0  0  0  0  0  0  0  0  0  0
   -1.6668   -4.2457   -2.0809 Cl  0  0  0  0  0  0  0  0  0  0  0  0
   -3.2036   -0.3699   -1.8768 N   0  0  0  0  0  0  0  0  0  0  0  0
   -2.4332    0.6508   -1.4409 C   0  0  0  0  0  0  0  0  0  0  0  0
   -2.5822    1.8960   -2.0899 N   0  0  0  0  0  0  0  0  0  0  0  0
   -3.5399    1.9750   -3.1851 C   0  0  0  0  0  0  0  0  0  0  0  0
   -1.9041    3.0311   -1.6937 C   0  0  0  0  0  0  0  0  0  0  0  0
   -2.0753    4.1222   -2.2386 O   0  0  0  0  0  0  0  0  0  0  0  0
    0.4852    3.8486    0.5226 H   0  0  0  0  0  0  0  0  0  0  0  0
    0.2903    4.4385   -1.1502 H   0  0  0  0  0  0  0  0  0  0  0  0
   -0.9373    4.8240    0.0805 H   0  0  0  0  0  0  0  0  0  0  0  0
    0.9952   -2.6879    0.7000 H   0  0  0  0  0  0  0  0  0  0  0  0
    1.1356   -1.1003   -0.0797 H   0  0  0  0  0  0  0  0  0  0  0  0
    1.5520    0.7228    1.6805 H   0  0  0  0  0  0  0  0  0  0  0  0
    2.7204    1.2555    3.6813 H   0  0  0  0  0  0  0  0  0  0  0  0
    3.7383   -0.1622    3.5253 H   0  0  0  0  0  0  0  0  0  0  0  0
    3.8155    2.2613    1.6225 H   0  0  0  0  0  0  0  0  0  0  0  0
    4.8836   -0.1728    0.9207 H   0  0  0  0  0  0  0  0  0  0  0  0
    5.7327    1.3474    0.6270 H   0  0  0  0  0  0  0  0  0  0  0  0
    6.0861   -0.4869    3.0156 H   0  0  0  0  0  0  0  0  0  0  0  0
    7.3543    0.1459    1.9503 H   0  0  0  0  0  0  0  0  0  0  0  0
    6.7159    1.4251    4.2904 H   0  0  0  0  0  0  0  0  0  0  0  0
    7.1057    2.3703    2.8415 H   0  0  0  0  0  0  0  0  0  0  0  0
   -5.7367   -1.5319   -1.5518 H   0  0  0  0  0  0  0  0  0  0  0  0
   -7.2059   -3.3734   -2.2878 H   0  0  0  0  0  0  0  0  0  0  0  0
   -6.2375   -5.5718   -2.9002 H   0  0  0  0  0  0  0  0  0  0  0  0
   -3.7919   -5.9168   -2.7975 H   0  0  0  0  0  0  0  0  0  0  0  0
   -3.3023    1.2171   -3.9389 H   0  0  0  0  0  0  0  0  0  0  0  0
   -4.5488    1.8131   -2.7919 H   0  0  0  0  0  0  0  0  0  0  0  0
   -3.5166    2.9519   -3.6750 H   0  0  0  0  0  0  0  0  0  0  0  0
  1  2  1  0
  2  3  1  0
  3  4  2  0
  3  5  1  0
  5  6  2  0
  6  7  1  0
  7  8  1  0
  8  9  1  0
  9 10  2  0
  9 11  1  0
 11 12  1  0
 12 13  1  0
 13 14  1  0
 14 15  1  0
 15 16  1  0
 16 17  1  0
  6 18  1  0
 18 19  2  0
 19 20  1  0
 20 21  2  0
 21 22  1  0
 22 23  2  0
 23 24  1  0
 24 25  2  0
 25 26  1  0
 19 27  1  0
 27 28  2  0
 28 29  1  0
 29 30  1  0
 29 31  1  0
 31 32  2  0
 31  2  1  0
 28  5  1  0
 17 13  1  0
 25 20  1  0
  1 33  1  0
  1 34  1  0
  1 35  1  0
  8 36  1  0
  8 37  1  0
 11 38  1  0
 12 39  1  0
 12 40  1  0
 13 41  1  0
 14 42  1  0
 14 43  1  0
 15 44  1  0
 15 45  1  0
 16 46  1  0
 16 47  1  0
 21 48  1  0
 22 49  1  0
 23 50  1  0
 24 51  1  0
 30 52  1  0
 30 53  1  0
 30 54  1  0
M  END
$$$$
