
     RDKit          3D

 61 65  0  0  0  0  0  0  0  0999 V2000
   -5.8779   -0.7200   -2.4918 C   0  0  0  0  0  0  0  0  0  0  0  0
   -5.1292   -0.2806   -1.3676 O   0  0  0  0  0  0  0  0  0  0  0  0
   -4.5887   -1.2413   -0.5496 C   0  0  0  0  0  0  0  0  0  0  0  0
   -4.6446   -2.6173   -0.8020 C   0  0  0  0  0  0  0  0  0  0  0  0
   -4.0506   -3.5260    0.0789 C   0  0  0  0  0  0  0  0  0  0  0  0
   -3.3935   -3.0716    1.2183 C   0  0  0  0  0  0  0  0  0  0  0  0
   -3.3299   -1.7046    1.4812 C   0  0  0  0  0  0  0  0  0  0  0  0
   -3.9260   -0.7808    0.6070 C   0  0  0  0  0  0  0  0  0  0  0  0
   -3.8238    0.6505    0.9203 C   0  0  0  0  0  0  0  0  0  0  0  0
   -5.1024    1.3852    1.7841 S   0  0  0  0  0  0  0  0  0  0  0  0
   -4.3279    2.9195    1.7969 C   0  0  0  0  0  0  0  0  0  0  0  0
   -4.8200    4.1085    2.3720 C   0  0  0  0  0  0  0  0  0  0  0  0
   -4.0533    5.2721    2.2866 C   0  0  0  0  0  0  0  0  0  0  0  0
   -2.8245    5.2590    1.6439 C   0  0  0  0  0  0  0  0  0  0  0  0
   -2.3400    4.0770    1.0759 C   0  0  0  0  0  0  0  0  0  0  0  0
   -3.0923    2.8753    1.1472 C   0  0  0  0  0  0  0  0  0  0  0  0
   -2.8076    1.5498    0.6447 C   0  0  0  0  0  0  0  0  0  0  0  0
   -1.6003    1.1448   -0.0646 C   0  0  0  0  0  0  0  0  0  0  0  0
   -0.3940    1.0101    0.6295 C   0  0  0  0  0  0  0  0  0  0  0  0
    0.7712    0.6259   -0.0441 C   0  0  0  0  0  0  0  0  0  0  0  0
    0.7398    0.3794   -1.4171 C   0  0  0  0  0  0  0  0  0  0  0  0
    1.7940   -0.0056   -2.1970 O   0  0  0  0  0  0  0  0  0  0  0  0
    3.0940   -0.0885   -1.6049 C   0  0  0  0  0  0  0  0  0  0  0  0
    3.3243   -1.4772   -0.9807 C   0  0  0  0  0  0  0  0  0  0  0  0
    4.6137   -1.7190   -0.3124 N   0  0  0  0  0  0  0  0  0  0  0  0
    5.7571   -1.6110   -1.2244 C   0  0  0  0  0  0  0  0  0  0  0  0
    7.0471   -2.0535   -0.5309 C   0  0  0  0  0  0  0  0  0  0  0  0
    7.2862   -1.2645    0.7520 C   0  0  0  0  0  0  0  0  0  0  0  0
    6.0534   -1.3140    1.6481 C   0  0  0  0  0  0  0  0  0  0  0  0
    4.7945   -0.8947    0.8868 C   0  0  0  0  0  0  0  0  0  0  0  0
   -0.4686    0.5162   -2.1068 C   0  0  0  0  0  0  0  0  0  0  0  0
   -1.6339    0.8994   -1.4388 C   0  0  0  0  0  0  0  0  0  0  0  0
   -6.7335   -1.3305   -2.1850 H   0  0  0  0  0  0  0  0  0  0  0  0
   -5.2416   -1.2566   -3.2028 H   0  0  0  0  0  0  0  0  0  0  0  0
   -6.2681    0.1667   -3.0004 H   0  0  0  0  0  0  0  0  0  0  0  0
   -5.1388   -3.0178   -1.6807 H   0  0  0  0  0  0  0  0  0  0  0  0
   -4.0990   -4.5922   -0.1292 H   0  0  0  0  0  0  0  0  0  0  0  0
   -2.9290   -3.7787    1.9003 H   0  0  0  0  0  0  0  0  0  0  0  0
   -2.8122   -1.3562    2.3720 H   0  0  0  0  0  0  0  0  0  0  0  0
   -5.7838    4.1210    2.8730 H   0  0  0  0  0  0  0  0  0  0  0  0
   -4.4265    6.1943    2.7255 H   0  0  0  0  0  0  0  0  0  0  0  0
   -2.2348    6.1697    1.5770 H   0  0  0  0  0  0  0  0  0  0  0  0
   -1.3778    4.0825    0.5692 H   0  0  0  0  0  0  0  0  0  0  0  0
   -0.3556    1.1959    1.7005 H   0  0  0  0  0  0  0  0  0  0  0  0
    1.6784    0.5210    0.5401 H   0  0  0  0  0  0  0  0  0  0  0  0
    3.2727    0.7379   -0.9094 H   0  0  0  0  0  0  0  0  0  0  0  0
    3.8033    0.0557   -2.4275 H   0  0  0  0  0  0  0  0  0  0  0  0
    2.5183   -1.7001   -0.2707 H   0  0  0  0  0  0  0  0  0  0  0  0
    3.1895   -2.2325   -1.7670 H   0  0  0  0  0  0  0  0  0  0  0  0
    5.6014   -2.2533   -2.0991 H   0  0  0  0  0  0  0  0  0  0  0  0
    5.8781   -0.5836   -1.5884 H   0  0  0  0  0  0  0  0  0  0  0  0
    6.9896   -3.1238   -0.2961 H   0  0  0  0  0  0  0  0  0  0  0  0
    7.8967   -1.9209   -1.2102 H   0  0  0  0  0  0  0  0  0  0  0  0
    8.1546   -1.6670    1.2846 H   0  0  0  0  0  0  0  0  0  0  0  0
    7.5153   -0.2214    0.5028 H   0  0  0  0  0  0  0  0  0  0  0  0
    5.9255   -2.3322    2.0367 H   0  0  0  0  0  0  0  0  0  0  0  0
    6.1986   -0.6577    2.5134 H   0  0  0  0  0  0  0  0  0  0  0  0
    4.8652    0.1694    0.6310 H   0  0  0  0  0  0  0  0  0  0  0  0
    3.9346   -1.0136    1.5570 H   0  0  0  0  0  0  0  0  0  0  0  0
   -0.5042    0.3216   -3.1759 H   0  0  0  0  0  0  0  0  0  0  0  0
   -2.5635    1.0001   -1.9942 H   0  0  0  0  0  0  0  0  0  0  0  0
  1  2  1  0
  2  3  1  0
  3  4  2  0
  4  5  1  0
  5  6  2  0
  6  7  1  0
  7  8  2  0
  8  9  1  0
  9 10  1  0
 10 11  1  0
 11 12  2  0
 12 13  1  0
 13 14  2  0
 14 15  1  0
 15 16  2  0
 16 17  1  0
 17 18  1  0
 18 19  2  0
 19 20  1  0
 20 21  2  0
 21 22  1  0
 22 23  1  0
 23 24  1  0
 24 25  1  0
 25 26  1  0
 26 27  1  0
 27 28  1  0
 28 29  1  0
 29 30  1  0
 21 31  1  0
 31 32  2  0
  8  3  1  0
 17  9  2  0
 32 18  1  0
 16 11  1  0
 30 25  1  0
  1 33  1  0
  1 34  1  0
  1 35  1  0
  4 36  1  0
  5 37  1  0
  6 38  1  0
  7 39  1  0
 12 40  1  0
 13 41  1  0
 14 42  1  0
 15 43  1  0
 19 44  1  0
 20 45  1  0
 23 46  1  0
 23 47  1  0
 24 48  1  0
 24 49  1  0
 26 50  1  0
 26 51  1  0
 27 52  1  0
 27 53  1  0
 28 54  1  0
 28 55  1  0
 29 56  1  0
 29 57  1  0
 30 58  1  0
 30 59  1  0
 31 60  1  0
 32 61  1  0
M  END
$$$$
