
     RDKit          3D

 37 39  0  0  0  0  0  0  0  0999 V2000
   -0.6802   -2.1764   -0.8090 O   0  0  0  0  0  0  0  0  0  0  0  0
   -0.4452   -1.4029    0.1101 C   0  0  0  0  0  0  0  0  0  0  0  0
    0.7681   -0.5468    0.1693 C   0  0  0  0  0  0  0  0  0  0  0  0
    1.6608   -0.5186   -0.8290 C   0  0  0  0  0  0  0  0  0  0  0  0
    2.8707    0.3138   -0.8804 C   0  0  0  0  0  0  0  0  0  0  0  0
    3.9303    0.0784    0.0057 C   0  0  0  0  0  0  0  0  0  0  0  0
    5.0806    0.8772   -0.0592 C   0  0  0  0  0  0  0  0  0  0  0  0
    6.1879    0.6323    0.8738 N   0  0  0  0  0  4  0  0  0  0  0  0
    7.1746    1.3787    0.8039 O   0  0  0  0  0  0  0  0  0  0  0  0
    6.0719   -0.3074    1.6729 O   0  0  0  0  0  1  0  0  0  0  0  0
    5.1873    1.9045   -1.0071 C   0  0  0  0  0  0  0  0  0  0  0  0
    4.1369    2.1318   -1.8986 C   0  0  0  0  0  0  0  0  0  0  0  0
    2.9911    1.3374   -1.8333 C   0  0  0  0  0  0  0  0  0  0  0  0
    1.9606    1.5542   -2.7067 O   0  0  0  0  0  0  0  0  0  0  0  0
    0.7869    0.3523    1.6301 S   0  0  0  0  0  0  0  0  0  0  0  0
   -0.7418   -0.3281    2.1782 C   0  0  0  0  0  0  0  0  0  0  0  0
   -1.4010    0.0852    3.6542 S   0  0  0  0  0  0  0  0  0  0  0  0
   -1.2295   -1.2062    1.2333 N   0  0  0  0  0  0  0  0  0  0  0  0
   -2.4897   -1.9379    1.3444 C   0  0  0  0  0  0  0  0  0  0  0  0
   -3.6591   -1.1600    0.7752 C   0  0  0  0  0  0  0  0  0  0  0  0
   -4.5734   -0.5152    1.6221 C   0  0  0  0  0  0  0  0  0  0  0  0
   -5.6418    0.2139    1.0927 C   0  0  0  0  0  0  0  0  0  0  0  0
   -5.8055    0.3015   -0.2873 C   0  0  0  0  0  0  0  0  0  0  0  0
   -7.1205    1.1996   -0.9380 Cl  0  0  0  0  0  0  0  0  0  0  0  0
   -4.9112   -0.3359   -1.1428 C   0  0  0  0  0  0  0  0  0  0  0  0
   -3.8427   -1.0642   -0.6137 C   0  0  0  0  0  0  0  0  0  0  0  0
    1.4891   -1.1149   -1.7243 H   0  0  0  0  0  0  0  0  0  0  0  0
    3.8533   -0.7230    0.7385 H   0  0  0  0  0  0  0  0  0  0  0  0
    6.0767    2.5294   -1.0649 H   0  0  0  0  0  0  0  0  0  0  0  0
    4.2289    2.9271   -2.6330 H   0  0  0  0  0  0  0  0  0  0  0  0
    2.1779    2.3048   -3.2840 H   0  0  0  0  0  0  0  0  0  0  0  0
   -2.6809   -2.1943    2.3922 H   0  0  0  0  0  0  0  0  0  0  0  0
   -2.4106   -2.8937    0.8113 H   0  0  0  0  0  0  0  0  0  0  0  0
   -4.4660   -0.5731    2.7036 H   0  0  0  0  0  0  0  0  0  0  0  0
   -6.3398    0.7098    1.7622 H   0  0  0  0  0  0  0  0  0  0  0  0
   -5.0382   -0.2722   -2.2203 H   0  0  0  0  0  0  0  0  0  0  0  0
   -3.1565   -1.5610   -1.2983 H   0  0  0  0  0  0  0  0  0  0  0  0
  1  2  2  0
  2  3  1  0
  3  4  2  3
  4  5  1  0
  5  6  2  0
  6  7  1  0
  7  8  1  0
  8  9  2  0
  8 10  1  0
  7 11  2  0
 11 12  1  0
 12 13  2  0
 13 14  1  0
  3 15  1  0
 15 16  1  0
 16 17  2  0
 16 18  1  0
 18 19  1  0
 19 20  1  0
 20 21  2  0
 21 22  1  0
 22 23  2  0
 23 24  1  0
 23 25  1  0
 25 26  2  0
 18  2  1  0
 26 20  1  0
 13  5  1  0
  4 27  1  0
  6 28  1  0
 11 29  1  0
 12 30  1  0
 14 31  1  0
 19 32  1  0
 19 33  1  0
 21 34  1  0
 22 35  1  0
 25 36  1  0
 26 37  1  0
M  CHG  2   8   1  10  -1
M  END
$$$$
