
     RDKit          3D

 60 64  0  0  0  0  0  0  0  0999 V2000
   -2.3170   -2.1778    0.1004 O   0  0  0  0  0  0  0  0  0  0  0  0
   -2.3218   -1.5304    1.1463 C   0  0  0  0  0  0  0  0  0  0  0  0
   -1.1775   -1.6165    2.1382 C   0  0  0  0  0  0  0  0  0  0  0  0
   -0.0167   -2.4890    1.6481 C   0  0  0  0  0  0  0  0  0  0  0  0
    0.6658   -1.9793    0.4557 N   0  0  0  0  0  0  0  0  0  0  0  0
    0.8059   -2.8503   -0.6161 C   0  0  0  0  0  0  0  0  0  0  0  0
    0.5450   -4.0513   -0.5780 O   0  0  0  0  0  0  0  0  0  0  0  0
    1.3488   -2.2784   -1.8552 C   0  0  0  0  0  0  0  0  0  0  0  0
    1.2929   -3.0301   -3.0399 C   0  0  0  0  0  0  0  0  0  0  0  0
    1.8002   -2.5047   -4.2237 C   0  0  0  0  0  0  0  0  0  0  0  0
    2.3614   -1.2329   -4.2204 C   0  0  0  0  0  0  0  0  0  0  0  0
    2.4197   -0.4912   -3.0337 C   0  0  0  0  0  0  0  0  0  0  0  0
    1.9157   -1.0052   -1.8281 C   0  0  0  0  0  0  0  0  0  0  0  0
    1.9692   -0.2944   -0.5946 N   0  0  0  0  0  0  0  0  0  0  0  0
    2.7142    0.9641   -0.4796 C   0  0  0  0  0  0  0  0  0  0  0  0
    4.2087    0.7561   -0.3137 C   0  0  0  0  0  0  0  0  0  0  0  0
    4.7164    0.1280    0.8368 C   0  0  0  0  0  0  0  0  0  0  0  0
    6.0883   -0.0800    0.9997 C   0  0  0  0  0  0  0  0  0  0  0  0
    6.9821    0.3401    0.0156 C   0  0  0  0  0  0  0  0  0  0  0  0
    6.4898    0.9771   -1.1290 C   0  0  0  0  0  0  0  0  0  0  0  0
    7.4239    1.4178   -2.1730 N   0  0  0  0  0  4  0  0  0  0  0  0
    6.9441    1.9293   -3.1951 O   0  0  0  0  0  0  0  0  0  0  0  0
    8.6354    1.2499   -1.9732 O   0  0  0  0  0  1  0  0  0  0  0  0
    5.1128    1.1955   -1.2941 C   0  0  0  0  0  0  0  0  0  0  0  0
    1.3605   -0.7831    0.5598 C   0  0  0  0  0  0  0  0  0  0  0  0
    1.4469   -0.1858    1.6375 O   0  0  0  0  0  0  0  0  0  0  0  0
   -3.3672   -0.6709    1.4668 N   0  0  0  0  0  0  0  0  0  0  0  0
   -3.6102   -0.1106    2.7957 C   0  0  0  0  0  0  0  0  0  0  0  0
   -4.0695    1.3409    2.7029 C   0  0  0  0  0  0  0  0  0  0  0  0
   -5.2264    1.4913    1.7516 C   0  0  0  0  0  0  0  0  0  0  0  0
   -6.0876    2.5896    1.8628 C   0  0  0  0  0  0  0  0  0  0  0  0
   -7.1453    2.7486    0.9698 C   0  0  0  0  0  0  0  0  0  0  0  0
   -7.3472    1.8174   -0.0448 C   0  0  0  0  0  0  0  0  0  0  0  0
   -6.4868    0.7273   -0.1705 C   0  0  0  0  0  0  0  0  0  0  0  0
   -5.4132    0.5579    0.7166 C   0  0  0  0  0  0  0  0  0  0  0  0
   -4.4973   -0.6331    0.5415 C   0  0  0  0  0  0  0  0  0  0  0  0
   -1.5662   -2.0600    3.0621 H   0  0  0  0  0  0  0  0  0  0  0  0
   -0.8339   -0.6023    2.3588 H   0  0  0  0  0  0  0  0  0  0  0  0
    0.7322   -2.5567    2.4471 H   0  0  0  0  0  0  0  0  0  0  0  0
   -0.3876   -3.5056    1.4781 H   0  0  0  0  0  0  0  0  0  0  0  0
    0.8452   -4.0221   -3.0382 H   0  0  0  0  0  0  0  0  0  0  0  0
    1.7521   -3.0836   -5.1425 H   0  0  0  0  0  0  0  0  0  0  0  0
    2.7542   -0.8109   -5.1441 H   0  0  0  0  0  0  0  0  0  0  0  0
    2.8591    0.4970   -3.1022 H   0  0  0  0  0  0  0  0  0  0  0  0
    2.3624    1.5387    0.3871 H   0  0  0  0  0  0  0  0  0  0  0  0
    2.4875    1.6085   -1.3368 H   0  0  0  0  0  0  0  0  0  0  0  0
    4.0408   -0.2047    1.6246 H   0  0  0  0  0  0  0  0  0  0  0  0
    6.4574   -0.5727    1.8967 H   0  0  0  0  0  0  0  0  0  0  0  0
    8.0465    0.1661    0.1564 H   0  0  0  0  0  0  0  0  0  0  0  0
    4.7426    1.7035   -2.1833 H   0  0  0  0  0  0  0  0  0  0  0  0
   -4.3788   -0.7312    3.2693 H   0  0  0  0  0  0  0  0  0  0  0  0
   -2.7244   -0.1644    3.4289 H   0  0  0  0  0  0  0  0  0  0  0  0
   -3.2464    1.9686    2.3433 H   0  0  0  0  0  0  0  0  0  0  0  0
   -4.3505    1.6899    3.7028 H   0  0  0  0  0  0  0  0  0  0  0  0
   -5.9376    3.3273    2.6469 H   0  0  0  0  0  0  0  0  0  0  0  0
   -7.8098    3.6029    1.0625 H   0  0  0  0  0  0  0  0  0  0  0  0
   -8.1715    1.9410   -0.7406 H   0  0  0  0  0  0  0  0  0  0  0  0
   -6.6522    0.0093   -0.9716 H   0  0  0  0  0  0  0  0  0  0  0  0
   -5.0717   -1.5546    0.6976 H   0  0  0  0  0  0  0  0  0  0  0  0
   -4.1136   -0.6383   -0.4864 H   0  0  0  0  0  0  0  0  0  0  0  0
  1  2  2  0
  2  3  1  0
  3  4  1  0
  4  5  1  0
  5  6  1  0
  6  7  2  0
  6  8  1  0
  8  9  2  0
  9 10  1  0
 10 11  2  0
 11 12  1  0
 12 13  2  0
 13 14  1  0
 14 15  1  0
 15 16  1  0
 16 17  2  0
 17 18  1  0
 18 19  2  0
 19 20  1  0
 20 21  1  0
 21 22  2  0
 21 23  1  0
 20 24  2  0
 14 25  1  0
 25 26  2  0
  2 27  1  0
 27 28  1  0
 28 29  1  0
 29 30  1  0
 30 31  2  0
 31 32  1  0
 32 33  2  0
 33 34  1  0
 34 35  2  0
 35 36  1  0
 25  5  1  0
 36 27  1  0
 13  8  1  0
 24 16  1  0
 35 30  1  0
  3 37  1  0
  3 38  1  0
  4 39  1  0
  4 40  1  0
  9 41  1  0
 10 42  1  0
 11 43  1  0
 12 44  1  0
 15 45  1  0
 15 46  1  0
 17 47  1  0
 18 48  1  0
 19 49  1  0
 24 50  1  0
 28 51  1  0
 28 52  1  0
 29 53  1  0
 29 54  1  0
 31 55  1  0
 32 56  1  0
 33 57  1  0
 34 58  1  0
 36 59  1  0
 36 60  1  0
M  CHG  2  21   1  23  -1
M  END
$$$$
