
     RDKit          3D

 46 49  0  0  0  0  0  0  0  0999 V2000
    0.2536   -3.4541   -3.6521 C   0  0  0  0  0  0  0  0  0  0  0  0
   -0.5451   -2.8393   -2.6424 O   0  0  0  0  0  0  0  0  0  0  0  0
   -0.0092   -1.6931   -2.1220 C   0  0  0  0  0  0  0  0  0  0  0  0
    1.0575   -1.2131   -2.4908 O   0  0  0  0  0  0  0  0  0  0  0  0
   -0.8611   -1.0823   -1.1049 C   0  0  0  0  0  0  0  0  0  0  0  0
   -2.1727   -1.3656   -0.9646 N   0  0  0  0  0  0  0  0  0  0  0  0
   -2.5565   -0.5398    0.0424 N   0  0  0  0  0  0  0  0  0  0  0  0
   -3.8947   -0.5004    0.5138 C   0  0  0  0  0  0  0  0  0  0  0  0
   -4.2497    0.3739    1.5517 C   0  0  0  0  0  0  0  0  0  0  0  0
   -5.5680    0.4109    2.0107 C   0  0  0  0  0  0  0  0  0  0  0  0
   -6.5316   -0.4198    1.4392 C   0  0  0  0  0  0  0  0  0  0  0  0
   -6.1825   -1.2910    0.4076 C   0  0  0  0  0  0  0  0  0  0  0  0
   -4.8666   -1.3347   -0.0577 C   0  0  0  0  0  0  0  0  0  0  0  0
   -1.5889    0.2576    0.5618 N   0  0  0  0  0  0  0  0  0  0  0  0
   -0.5178   -0.0980   -0.1566 C   0  0  0  0  0  0  0  0  0  0  0  0
    0.8154    0.4390    0.0837 C   0  0  0  0  0  0  0  0  0  0  0  0
    1.8681   -0.3381    0.3600 N   0  0  0  0  0  0  0  0  0  0  0  0
    2.8450    0.5769    0.5844 N   0  0  0  0  0  0  0  0  0  0  0  0
    4.1737    0.1948    0.9064 C   0  0  0  0  0  0  0  0  0  0  0  0
    4.5166   -1.1630    0.9844 C   0  0  0  0  0  0  0  0  0  0  0  0
    5.8250   -1.5338    1.3016 C   0  0  0  0  0  0  0  0  0  0  0  0
    6.7911   -0.5567    1.5407 C   0  0  0  0  0  0  0  0  0  0  0  0
    6.4543    0.7946    1.4636 C   0  0  0  0  0  0  0  0  0  0  0  0
    5.1484    1.1744    1.1469 C   0  0  0  0  0  0  0  0  0  0  0  0
    2.4740    1.8790    0.4943 N   0  0  0  0  0  0  0  0  0  0  0  0
    1.1710    1.8024    0.1547 C   0  0  0  0  0  0  0  0  0  0  0  0
    0.3584    2.9923   -0.0902 C   0  0  0  0  0  0  0  0  0  0  0  0
    0.6235    4.1054    0.3531 O   0  0  0  0  0  0  0  0  0  0  0  0
   -0.7089    2.7435   -0.9090 O   0  0  0  0  0  0  0  0  0  0  0  0
   -1.5287    3.8840   -1.1643 C   0  0  0  0  0  0  0  0  0  0  0  0
    1.2293   -3.7417   -3.2481 H   0  0  0  0  0  0  0  0  0  0  0  0
    0.3702   -2.7841   -4.5097 H   0  0  0  0  0  0  0  0  0  0  0  0
   -0.2614   -4.3585   -3.9878 H   0  0  0  0  0  0  0  0  0  0  0  0
   -3.5139    1.0293    2.0137 H   0  0  0  0  0  0  0  0  0  0  0  0
   -5.8431    1.0875    2.8163 H   0  0  0  0  0  0  0  0  0  0  0  0
   -7.5570   -0.3892    1.7998 H   0  0  0  0  0  0  0  0  0  0  0  0
   -6.9358   -1.9383   -0.0349 H   0  0  0  0  0  0  0  0  0  0  0  0
   -4.6157   -2.0228   -0.8628 H   0  0  0  0  0  0  0  0  0  0  0  0
    3.7789   -1.9413    0.7996 H   0  0  0  0  0  0  0  0  0  0  0  0
    6.0909   -2.5863    1.3616 H   0  0  0  0  0  0  0  0  0  0  0  0
    7.8089   -0.8486    1.7874 H   0  0  0  0  0  0  0  0  0  0  0  0
    7.2091    1.5546    1.6504 H   0  0  0  0  0  0  0  0  0  0  0  0
    4.9065    2.2344    1.0925 H   0  0  0  0  0  0  0  0  0  0  0  0
   -1.9416    4.2778   -0.2302 H   0  0  0  0  0  0  0  0  0  0  0  0
   -2.3589    3.5673   -1.8016 H   0  0  0  0  0  0  0  0  0  0  0  0
   -0.9595    4.6540   -1.6942 H   0  0  0  0  0  0  0  0  0  0  0  0
  1  2  1  0
  2  3  1  0
  3  4  2  0
  3  5  1  0
  5  6  2  0
  6  7  1  0
  7  8  1  0
  8  9  2  0
  9 10  1  0
 10 11  2  0
 11 12  1  0
 12 13  2  0
  7 14  1  0
 14 15  2  0
 15 16  1  0
 16 17  2  0
 17 18  1  0
 18 19  1  0
 19 20  2  0
 20 21  1  0
 21 22  2  0
 22 23  1  0
 23 24  2  0
 18 25  1  0
 25 26  2  0
 26 27  1  0
 27 28  2  0
 27 29  1  0
 29 30  1  0
 15  5  1  0
 26 16  1  0
 13  8  1  0
 24 19  1  0
  1 31  1  0
  1 32  1  0
  1 33  1  0
  9 34  1  0
 10 35  1  0
 11 36  1  0
 12 37  1  0
 13 38  1  0
 20 39  1  0
 21 40  1  0
 22 41  1  0
 23 42  1  0
 24 43  1  0
 30 44  1  0
 30 45  1  0
 30 46  1  0
M  END
$$$$
