
     RDKit          3D

 44 46  0  0  0  0  0  0  0  0999 V2000
   -0.4191    0.4704    1.8250 O   0  0  0  0  0  0  0  0  0  0  0  0
   -0.7352   -0.7129    1.9049 C   0  0  0  0  0  0  0  0  0  0  0  0
    0.1412   -1.8116    2.4998 C   0  0  0  0  0  0  0  0  0  0  0  0
    1.6989   -1.1742    3.1860 S   0  0  0  0  0  0  0  0  0  0  0  0
    2.4722   -0.6691    1.6682 C   0  0  0  0  0  0  0  0  0  0  0  0
    2.9988    0.6008    1.5354 C   0  0  0  0  0  0  0  0  0  0  0  0
    3.5969    0.9574    0.3286 C   0  0  0  0  0  0  0  0  0  0  0  0
    3.6639    0.0263   -0.7004 C   0  0  0  0  0  0  0  0  0  0  0  0
    4.2892    0.3037   -2.0044 C   0  0  0  0  0  0  0  0  0  0  0  0
    4.1785    1.5601   -2.6286 C   0  0  0  0  0  0  0  0  0  0  0  0
    4.7944    1.8163   -3.8582 C   0  0  0  0  0  0  0  0  0  0  0  0
    5.5332    0.8192   -4.4914 C   0  0  0  0  0  0  0  0  0  0  0  0
    5.6470   -0.4360   -3.9022 C   0  0  0  0  0  0  0  0  0  0  0  0
    5.0275   -0.6908   -2.6745 C   0  0  0  0  0  0  0  0  0  0  0  0
    3.1568   -1.2167   -0.5237 N   0  0  0  0  0  0  0  0  0  0  0  0
    2.5539   -1.5652    0.6644 N   0  0  0  0  0  0  0  0  0  0  0  0
   -1.9569   -1.1885    1.4551 N   0  0  0  0  0  0  0  0  0  0  0  0
   -2.9781   -0.2939    0.9264 C   0  0  0  0  0  0  0  0  0  0  0  0
   -3.6981    0.4505    2.0599 C   0  0  0  0  0  0  0  0  0  0  0  0
   -4.8205    1.3404    1.5292 C   0  0  0  0  0  0  0  0  0  0  0  0
   -5.8039    0.5559    0.6661 C   0  0  0  0  0  0  0  0  0  0  0  0
   -5.0932   -0.1839   -0.4635 C   0  0  0  0  0  0  0  0  0  0  0  0
   -3.9758   -1.0798    0.0670 C   0  0  0  0  0  0  0  0  0  0  0  0
   -0.4119   -2.2841    3.3195 H   0  0  0  0  0  0  0  0  0  0  0  0
    0.3354   -2.5738    1.7386 H   0  0  0  0  0  0  0  0  0  0  0  0
    2.9389    1.3163    2.3475 H   0  0  0  0  0  0  0  0  0  0  0  0
    4.0166    1.9502    0.2137 H   0  0  0  0  0  0  0  0  0  0  0  0
    3.5927    2.3562   -2.1694 H   0  0  0  0  0  0  0  0  0  0  0  0
    4.6936    2.7934   -4.3211 H   0  0  0  0  0  0  0  0  0  0  0  0
    6.0143    1.0170   -5.4464 H   0  0  0  0  0  0  0  0  0  0  0  0
    6.2180   -1.2206   -4.3944 H   0  0  0  0  0  0  0  0  0  0  0  0
    5.1312   -1.6813   -2.2323 H   0  0  0  0  0  0  0  0  0  0  0  0
   -2.2317   -2.1291    1.7087 H   0  0  0  0  0  0  0  0  0  0  0  0
   -2.4725    0.4446    0.2907 H   0  0  0  0  0  0  0  0  0  0  0  0
   -2.9873    1.0675    2.6240 H   0  0  0  0  0  0  0  0  0  0  0  0
   -4.1114   -0.2724    2.7756 H   0  0  0  0  0  0  0  0  0  0  0  0
   -4.3887    2.1564    0.9398 H   0  0  0  0  0  0  0  0  0  0  0  0
   -5.3531    1.8011    2.3679 H   0  0  0  0  0  0  0  0  0  0  0  0
   -6.3420   -0.1657    1.2926 H   0  0  0  0  0  0  0  0  0  0  0  0
   -6.5538    1.2384    0.2471 H   0  0  0  0  0  0  0  0  0  0  0  0
   -5.8178   -0.7882   -1.0222 H   0  0  0  0  0  0  0  0  0  0  0  0
   -4.6731    0.5433   -1.1690 H   0  0  0  0  0  0  0  0  0  0  0  0
   -3.4541   -1.5527   -0.7727 H   0  0  0  0  0  0  0  0  0  0  0  0
   -4.4147   -1.8946    0.6560 H   0  0  0  0  0  0  0  0  0  0  0  0
  1  2  2  0
  2  3  1  0
  3  4  1  0
  4  5  1  0
  5  6  2  0
  6  7  1  0
  7  8  2  0
  8  9  1  0
  9 10  2  0
 10 11  1  0
 11 12  2  0
 12 13  1  0
 13 14  2  0
  8 15  1  0
 15 16  2  0
  2 17  1  0
 17 18  1  0
 18 19  1  0
 19 20  1  0
 20 21  1  0
 21 22  1  0
 22 23  1  0
 16  5  1  0
 23 18  1  0
 14  9  1  0
  3 24  1  0
  3 25  1  0
  6 26  1  0
  7 27  1  0
 10 28  1  0
 11 29  1  0
 12 30  1  0
 13 31  1  0
 14 32  1  0
 17 33  1  0
 18 34  1  0
 19 35  1  0
 19 36  1  0
 20 37  1  0
 20 38  1  0
 21 39  1  0
 21 40  1  0
 22 41  1  0
 22 42  1  0
 23 43  1  0
 23 44  1  0
M  END
$$$$
