
     RDKit          3D

 47 49  0  0  0  0  0  0  0  0999 V2000
    2.8459    4.0203   -0.0109 C   0  0  0  0  0  0  0  0  0  0  0  0
    2.2896    2.7117   -0.5006 C   0  0  0  0  0  0  0  0  0  0  0  0
    1.2744    2.7159   -1.4662 C   0  0  0  0  0  0  0  0  0  0  0  0
    0.7343    1.5198   -1.9409 C   0  0  0  0  0  0  0  0  0  0  0  0
    1.1986    0.2841   -1.4700 C   0  0  0  0  0  0  0  0  0  0  0  0
    0.5539   -0.9902   -1.9875 C   0  0  0  0  0  0  0  0  0  0  0  0
    1.5093   -2.1787   -2.1096 C   0  0  0  0  0  0  0  0  0  0  0  0
   -0.5630   -1.3403   -1.1261 N   0  0  0  0  0  0  0  0  0  0  0  0
   -1.8679   -1.0812   -1.4761 C   0  0  0  0  0  0  0  0  0  0  0  0
   -2.1891   -0.6961   -2.5963 O   0  0  0  0  0  0  0  0  0  0  0  0
   -2.8570   -1.3434   -0.4495 C   0  0  0  0  0  0  0  0  0  0  0  0
   -2.8045   -1.2804    0.9777 C   0  0  0  0  0  0  0  0  0  0  0  0
   -1.7149   -0.8501    1.8474 C   0  0  0  0  0  0  0  0  0  0  0  0
   -1.3114   -1.6556    2.9208 C   0  0  0  0  0  0  0  0  0  0  0  0
   -0.2583   -1.2561    3.7465 C   0  0  0  0  0  0  0  0  0  0  0  0
    0.3928   -0.0465    3.5103 C   0  0  0  0  0  0  0  0  0  0  0  0
   -0.0121    0.7679    2.4544 C   0  0  0  0  0  0  0  0  0  0  0  0
   -1.0632    0.3702    1.6258 C   0  0  0  0  0  0  0  0  0  0  0  0
   -3.9711   -1.6741    1.5140 N   0  0  0  0  0  0  0  0  0  0  0  0
   -4.8157   -1.9314    0.4582 O   0  0  0  0  0  0  0  0  0  0  0  0
   -4.1592   -1.7238   -0.7092 C   0  0  0  0  0  0  0  0  0  0  0  0
   -4.9325   -1.9584   -1.9448 C   0  0  0  0  0  0  0  0  0  0  0  0
    2.2036    0.2828   -0.4907 C   0  0  0  0  0  0  0  0  0  0  0  0
    2.7591    1.4806   -0.0052 C   0  0  0  0  0  0  0  0  0  0  0  0
    3.8344    1.4188    1.0456 C   0  0  0  0  0  0  0  0  0  0  0  0
    2.6697    4.1295    1.0639 H   0  0  0  0  0  0  0  0  0  0  0  0
    2.3718    4.8716   -0.5111 H   0  0  0  0  0  0  0  0  0  0  0  0
    3.9201    4.0771   -0.2135 H   0  0  0  0  0  0  0  0  0  0  0  0
    0.8908    3.6557   -1.8583 H   0  0  0  0  0  0  0  0  0  0  0  0
   -0.0623    1.5580   -2.6831 H   0  0  0  0  0  0  0  0  0  0  0  0
    0.1802   -0.7921   -3.0002 H   0  0  0  0  0  0  0  0  0  0  0  0
    2.3875   -1.9204   -2.7109 H   0  0  0  0  0  0  0  0  0  0  0  0
    1.8542   -2.5352   -1.1329 H   0  0  0  0  0  0  0  0  0  0  0  0
    1.0040   -3.0227   -2.5930 H   0  0  0  0  0  0  0  0  0  0  0  0
   -0.3419   -1.5941   -0.1740 H   0  0  0  0  0  0  0  0  0  0  0  0
   -1.8191   -2.5974    3.1219 H   0  0  0  0  0  0  0  0  0  0  0  0
    0.0472   -1.8855    4.5786 H   0  0  0  0  0  0  0  0  0  0  0  0
    1.2094    0.2673    4.1557 H   0  0  0  0  0  0  0  0  0  0  0  0
    0.4893    1.7156    2.2723 H   0  0  0  0  0  0  0  0  0  0  0  0
   -1.3659    1.0269    0.8123 H   0  0  0  0  0  0  0  0  0  0  0  0
   -5.9076   -2.4048   -1.7257 H   0  0  0  0  0  0  0  0  0  0  0  0
   -5.1029   -1.0153   -2.4730 H   0  0  0  0  0  0  0  0  0  0  0  0
   -4.3949   -2.6382   -2.6130 H   0  0  0  0  0  0  0  0  0  0  0  0
    2.5607   -0.6599   -0.0824 H   0  0  0  0  0  0  0  0  0  0  0  0
    4.7493    1.8977    0.6831 H   0  0  0  0  0  0  0  0  0  0  0  0
    4.0857    0.3848    1.3049 H   0  0  0  0  0  0  0  0  0  0  0  0
    3.4988    1.9156    1.9614 H   0  0  0  0  0  0  0  0  0  0  0  0
  1  2  1  0
  2  3  2  0
  3  4  1  0
  4  5  2  0
  5  6  1  0
  6  7  1  0
  6  8  1  0
  8  9  1  0
  9 10  2  0
  9 11  1  0
 11 12  1  0
 12 13  1  0
 13 14  2  0
 14 15  1  0
 15 16  2  0
 16 17  1  0
 17 18  2  0
 12 19  2  0
 19 20  1  0
 20 21  1  0
 21 22  1  0
  5 23  1  0
 23 24  2  0
 24 25  1  0
 24  2  1  0
 21 11  2  0
 18 13  1  0
  1 26  1  0
  1 27  1  0
  1 28  1  0
  3 29  1  0
  4 30  1  0
  6 31  1  0
  7 32  1  0
  7 33  1  0
  7 34  1  0
  8 35  1  0
 14 36  1  0
 15 37  1  0
 16 38  1  0
 17 39  1  0
 18 40  1  0
 22 41  1  0
 22 42  1  0
 22 43  1  0
 23 44  1  0
 25 45  1  0
 25 46  1  0
 25 47  1  0
M  END
$$$$
