
     RDKit          3D

 37 40  0  0  0  0  0  0  0  0999 V2000
   -0.3993    0.9600   -0.0829 C   0  0  0  0  0  0  0  0  0  0  0  0
   -0.3770   -0.5393    0.1186 C   0  0  0  0  0  0  0  0  0  0  0  0
   -1.5905   -1.2740    0.1885 C   0  0  0  0  0  0  0  0  0  0  0  0
   -2.8154   -0.5922    0.0211 N   0  0  0  0  0  0  0  0  0  0  0  0
   -4.1117   -1.0850    0.0771 C   0  0  0  0  0  0  0  0  0  0  0  0
   -4.4404   -2.2421    0.3152 O   0  0  0  0  0  0  0  0  0  0  0  0
   -5.1069   -0.0157   -0.1877 C   0  0  0  0  0  0  0  0  0  0  0  0
   -6.4745   -0.2119   -0.1987 N   0  0  0  0  0  0  0  0  0  0  0  0
   -6.9583    0.9745   -0.4710 C   0  0  0  0  0  0  0  0  0  0  0  0
   -5.9388    1.8562   -0.6191 N   0  0  0  0  0  0  0  0  0  0  0  0
   -4.7445    1.2637   -0.4444 N   0  0  0  0  0  0  0  0  0  0  0  0
   -1.5446   -2.6563    0.4038 C   0  0  0  0  0  0  0  0  0  0  0  0
   -0.3284   -3.3255    0.5206 C   0  0  0  0  0  0  0  0  0  0  0  0
    0.8640   -2.6205    0.4147 C   0  0  0  0  0  0  0  0  0  0  0  0
    0.8606   -1.2300    0.2130 C   0  0  0  0  0  0  0  0  0  0  0  0
    2.1504   -0.5390    0.0636 C   0  0  0  0  0  0  0  0  0  0  0  0
    2.5019    0.1645   -0.9921 N   0  0  0  0  0  0  0  0  0  0  0  0
    3.7690    0.6921   -0.8112 C   0  0  0  0  0  0  0  0  0  0  0  0
    4.4710    1.4902   -1.7372 C   0  0  0  0  0  0  0  0  0  0  0  0
    5.7501    1.9607   -1.4222 C   0  0  0  0  0  0  0  0  0  0  0  0
    6.3345    1.6466   -0.1993 C   0  0  0  0  0  0  0  0  0  0  0  0
    5.6589    0.8571    0.7366 C   0  0  0  0  0  0  0  0  0  0  0  0
    4.3752    0.3895    0.4090 C   0  0  0  0  0  0  0  0  0  0  0  0
    3.3057   -0.5880    1.3373 S   0  0  0  0  0  0  0  0  0  0  0  0
   -1.1586    1.4270    0.5534 H   0  0  0  0  0  0  0  0  0  0  0  0
   -0.6069    1.1931   -1.1318 H   0  0  0  0  0  0  0  0  0  0  0  0
    0.5385    1.4435    0.2030 H   0  0  0  0  0  0  0  0  0  0  0  0
   -2.7886    0.4003   -0.1923 H   0  0  0  0  0  0  0  0  0  0  0  0
   -8.0007    1.2422   -0.5693 H   0  0  0  0  0  0  0  0  0  0  0  0
   -5.9790    2.8468   -0.8329 H   0  0  0  0  0  0  0  0  0  0  0  0
   -2.4471   -3.2559    0.4717 H   0  0  0  0  0  0  0  0  0  0  0  0
   -0.3165   -4.4015    0.6752 H   0  0  0  0  0  0  0  0  0  0  0  0
    1.8022   -3.1691    0.4741 H   0  0  0  0  0  0  0  0  0  0  0  0
    4.0109    1.7318   -2.6902 H   0  0  0  0  0  0  0  0  0  0  0  0
    6.2883    2.5751   -2.1402 H   0  0  0  0  0  0  0  0  0  0  0  0
    7.3303    2.0186    0.0333 H   0  0  0  0  0  0  0  0  0  0  0  0
    6.1162    0.6125    1.6905 H   0  0  0  0  0  0  0  0  0  0  0  0
  1  2  1  0
  2  3  2  0
  3  4  1  0
  4  5  1  0
  5  6  2  0
  5  7  1  0
  7  8  1  0
  8  9  2  0
  9 10  1  0
 10 11  1  0
  3 12  1  0
 12 13  2  0
 13 14  1  0
 14 15  2  0
 15 16  1  0
 16 17  2  0
 17 18  1  0
 18 19  2  0
 19 20  1  0
 20 21  2  0
 21 22  1  0
 22 23  2  0
 23 24  1  0
 15  2  1  0
 24 16  1  0
 11  7  2  0
 23 18  1  0
  1 25  1  0
  1 26  1  0
  1 27  1  0
  4 28  1  0
  9 29  1  0
 10 30  1  0
 12 31  1  0
 13 32  1  0
 14 33  1  0
 19 34  1  0
 20 35  1  0
 21 36  1  0
 22 37  1  0
M  END
$$$$
