
     RDKit          3D

 67 71  0  0  0  0  0  0  0  0999 V2000
    0.3332   -0.4456    1.6347 C   0  0  0  0  0  0  0  0  0  0  0  0
    0.0518    0.6074    0.6613 N   0  0  0  0  0  0  0  0  0  0  0  0
    1.0409    0.6706   -0.4139 C   0  0  0  0  0  0  0  0  0  0  0  0
    0.9787   -0.4631   -1.3953 C   0  0  0  0  0  0  0  0  0  0  0  0
    2.0385   -1.0102   -2.0251 C   0  0  0  0  0  0  0  0  0  0  0  0
    3.4212   -0.5550   -1.8696 C   0  0  0  0  0  0  0  0  0  0  0  0
    3.8395    0.6680   -2.3960 C   0  0  0  0  0  0  0  0  0  0  0  0
    5.1629    1.0973   -2.2278 C   0  0  0  0  0  0  0  0  0  0  0  0
    6.1053    0.3147   -1.5463 C   0  0  0  0  0  0  0  0  0  0  0  0
    7.4382    0.7039   -1.3425 N   0  0  0  0  0  0  0  0  0  0  0  0
    7.7918    2.1235   -1.5588 C   0  0  0  0  0  0  0  0  0  0  0  0
    9.2281    2.3790   -1.0753 C   0  0  0  0  0  0  0  0  0  0  0  0
   10.1650    1.5251   -1.7522 O   0  0  0  0  0  0  0  0  0  0  0  0
    9.8450    0.1478   -1.4980 C   0  0  0  0  0  0  0  0  0  0  0  0
    8.4256   -0.2077   -1.9732 C   0  0  0  0  0  0  0  0  0  0  0  0
    5.6594   -0.9109   -1.0228 C   0  0  0  0  0  0  0  0  0  0  0  0
    4.3388   -1.3467   -1.1830 C   0  0  0  0  0  0  0  0  0  0  0  0
   -0.3594   -1.0630   -1.6923 C   0  0  0  0  0  0  0  0  0  0  0  0
   -0.5059   -1.8842   -2.5958 O   0  0  0  0  0  0  0  0  0  0  0  0
   -1.5103   -0.6293   -0.8411 C   0  0  0  0  0  0  0  0  0  0  0  0
   -2.6579   -1.3258   -0.9744 C   0  0  0  0  0  0  0  0  0  0  0  0
   -3.8896   -1.0433   -0.2357 C   0  0  0  0  0  0  0  0  0  0  0  0
   -4.6434    0.0996   -0.5036 C   0  0  0  0  0  0  0  0  0  0  0  0
   -5.8151    0.3620    0.2197 C   0  0  0  0  0  0  0  0  0  0  0  0
   -6.2628   -0.5002    1.2309 C   0  0  0  0  0  0  0  0  0  0  0  0
   -7.4308   -0.2814    1.9786 N   0  0  0  0  0  0  0  0  0  0  0  0
   -8.3804    0.7493    1.5042 C   0  0  0  0  0  0  0  0  0  0  0  0
   -9.6761    0.6865    2.3279 C   0  0  0  0  0  0  0  0  0  0  0  0
   -9.4123    0.8559    3.7304 O   0  0  0  0  0  0  0  0  0  0  0  0
   -8.5377   -0.1862    4.1919 C   0  0  0  0  0  0  0  0  0  0  0  0
   -7.1954   -0.1782    3.4411 C   0  0  0  0  0  0  0  0  0  0  0  0
   -5.5008   -1.6581    1.4627 C   0  0  0  0  0  0  0  0  0  0  0  0
   -4.3301   -1.9297    0.7446 C   0  0  0  0  0  0  0  0  0  0  0  0
   -1.2946    0.5203    0.0980 C   0  0  0  0  0  0  0  0  0  0  0  0
    0.3090   -1.4530    1.2050 H   0  0  0  0  0  0  0  0  0  0  0  0
    1.3199   -0.2924    2.0858 H   0  0  0  0  0  0  0  0  0  0  0  0
   -0.3918   -0.4097    2.4554 H   0  0  0  0  0  0  0  0  0  0  0  0
    2.0352    0.7565    0.0394 H   0  0  0  0  0  0  0  0  0  0  0  0
    0.8944    1.6086   -0.9663 H   0  0  0  0  0  0  0  0  0  0  0  0
    1.9155   -1.8528   -2.7048 H   0  0  0  0  0  0  0  0  0  0  0  0
    3.1445    1.2986   -2.9455 H   0  0  0  0  0  0  0  0  0  0  0  0
    5.4378    2.0528   -2.6633 H   0  0  0  0  0  0  0  0  0  0  0  0
    7.7309    2.3630   -2.6279 H   0  0  0  0  0  0  0  0  0  0  0  0
    7.1127    2.7806   -1.0034 H   0  0  0  0  0  0  0  0  0  0  0  0
    9.3155    2.2197    0.0059 H   0  0  0  0  0  0  0  0  0  0  0  0
    9.5129    3.4144   -1.2855 H   0  0  0  0  0  0  0  0  0  0  0  0
   10.5778   -0.4657   -2.0311 H   0  0  0  0  0  0  0  0  0  0  0  0
    9.9597   -0.0509   -0.4259 H   0  0  0  0  0  0  0  0  0  0  0  0
    8.2347   -1.2573   -1.7256 H   0  0  0  0  0  0  0  0  0  0  0  0
    8.3684   -0.0961   -3.0636 H   0  0  0  0  0  0  0  0  0  0  0  0
    6.3435   -1.5330   -0.4509 H   0  0  0  0  0  0  0  0  0  0  0  0
    4.0369   -2.3001   -0.7562 H   0  0  0  0  0  0  0  0  0  0  0  0
   -2.7261   -2.1711   -1.6571 H   0  0  0  0  0  0  0  0  0  0  0  0
   -4.3327    0.7971   -1.2779 H   0  0  0  0  0  0  0  0  0  0  0  0
   -6.3572    1.2702   -0.0238 H   0  0  0  0  0  0  0  0  0  0  0  0
   -8.6305    0.5902    0.4487 H   0  0  0  0  0  0  0  0  0  0  0  0
   -7.9344    1.7448    1.6227 H   0  0  0  0  0  0  0  0  0  0  0  0
  -10.1970   -0.2663    2.1741 H   0  0  0  0  0  0  0  0  0  0  0  0
  -10.3515    1.4910    2.0201 H   0  0  0  0  0  0  0  0  0  0  0  0
   -8.3650   -0.0236    5.2605 H   0  0  0  0  0  0  0  0  0  0  0  0
   -9.0446   -1.1520    4.0783 H   0  0  0  0  0  0  0  0  0  0  0  0
   -6.5874   -1.0053    3.8224 H   0  0  0  0  0  0  0  0  0  0  0  0
   -6.6678    0.7611    3.6513 H   0  0  0  0  0  0  0  0  0  0  0  0
   -5.8333   -2.3862    2.1987 H   0  0  0  0  0  0  0  0  0  0  0  0
   -3.7747   -2.8394    0.9592 H   0  0  0  0  0  0  0  0  0  0  0  0
   -2.0131    0.5054    0.9260 H   0  0  0  0  0  0  0  0  0  0  0  0
   -1.5034    1.4505   -0.4478 H   0  0  0  0  0  0  0  0  0  0  0  0
  1  2  1  0
  2  3  1  0
  3  4  1  0
  4  5  2  3
  5  6  1  0
  6  7  2  0
  7  8  1  0
  8  9  2  0
  9 10  1  0
 10 11  1  0
 11 12  1  0
 12 13  1  0
 13 14  1  0
 14 15  1  0
  9 16  1  0
 16 17  2  0
  4 18  1  0
 18 19  2  0
 18 20  1  0
 20 21  2  3
 21 22  1  0
 22 23  2  0
 23 24  1  0
 24 25  2  0
 25 26  1  0
 26 27  1  0
 27 28  1  0
 28 29  1  0
 29 30  1  0
 30 31  1  0
 25 32  1  0
 32 33  2  0
 20 34  1  0
 34  2  1  0
 17  6  1  0
 33 22  1  0
 15 10  1  0
 31 26  1  0
  1 35  1  0
  1 36  1  0
  1 37  1  0
  3 38  1  0
  3 39  1  0
  5 40  1  0
  7 41  1  0
  8 42  1  0
 11 43  1  0
 11 44  1  0
 12 45  1  0
 12 46  1  0
 14 47  1  0
 14 48  1  0
 15 49  1  0
 15 50  1  0
 16 51  1  0
 17 52  1  0
 21 53  1  0
 23 54  1  0
 24 55  1  0
 27 56  1  0
 27 57  1  0
 28 58  1  0
 28 59  1  0
 30 60  1  0
 30 61  1  0
 31 62  1  0
 31 63  1  0
 32 64  1  0
 33 65  1  0
 34 66  1  0
 34 67  1  0
M  END
$$$$
