
     RDKit          3D

 36 38  0  0  0  0  0  0  0  0999 V2000
   -0.6603    3.9162   -0.1389 C   0  0  0  0  0  0  0  0  0  0  0  0
   -1.4838    2.6724    0.0094 C   0  0  0  0  0  0  0  0  0  0  0  0
   -2.7762    2.7380    0.5227 C   0  0  0  0  0  0  0  0  0  0  0  0
   -3.5313    1.5708    0.6683 C   0  0  0  0  0  0  0  0  0  0  0  0
   -3.0304    0.3209    0.3282 C   0  0  0  0  0  0  0  0  0  0  0  0
   -3.8280   -0.7412    0.4811 N   0  0  0  0  0  0  0  0  0  0  0  0
   -3.3539   -1.9606    0.1480 C   0  0  0  0  0  0  0  0  0  0  0  0
   -4.2867   -3.1774    0.2608 C   0  0  0  0  0  0  0  0  0  0  0  0
   -4.9972   -3.5348   -1.3528 Cl  0  0  0  0  0  0  0  0  0  0  0  0
   -3.3900   -4.6381    0.8229 Cl  0  0  0  0  0  0  0  0  0  0  0  0
   -5.6352   -2.9118    1.4237 Cl  0  0  0  0  0  0  0  0  0  0  0  0
   -2.1138   -2.1498   -0.3518 N   0  0  0  0  0  0  0  0  0  0  0  0
   -1.3062   -1.0764   -0.4713 C   0  0  0  0  0  0  0  0  0  0  0  0
   -0.0155   -1.3812   -0.9646 N   0  0  0  0  0  0  0  0  0  0  0  0
    1.0456   -0.8667   -0.2720 N   0  0  0  0  0  0  0  0  0  0  0  0
    2.1989   -1.2776   -0.6960 C   0  0  0  0  0  0  0  0  0  0  0  0
    3.4567   -0.8316   -0.0704 C   0  0  0  0  0  0  0  0  0  0  0  0
    3.4419    0.0325    1.0217 C   0  0  0  0  0  0  0  0  0  0  0  0
    4.6590    0.4099    1.5564 C   0  0  0  0  0  0  0  0  0  0  0  0
    5.8505   -0.0124    1.0786 N   0  0  0  0  0  0  0  0  0  0  0  0
    5.8282   -0.8492    0.0186 C   0  0  0  0  0  0  0  0  0  0  0  0
    4.6657   -1.2874   -0.5892 C   0  0  0  0  0  0  0  0  0  0  0  0
   -1.7260    0.2286   -0.1624 C   0  0  0  0  0  0  0  0  0  0  0  0
   -0.9645    1.4184   -0.3265 C   0  0  0  0  0  0  0  0  0  0  0  0
   -0.3195    4.2588    0.8430 H   0  0  0  0  0  0  0  0  0  0  0  0
   -1.2482    4.7093   -0.6131 H   0  0  0  0  0  0  0  0  0  0  0  0
    0.2189    3.7399   -0.7674 H   0  0  0  0  0  0  0  0  0  0  0  0
   -3.2108    3.6932    0.8086 H   0  0  0  0  0  0  0  0  0  0  0  0
   -4.5445    1.6429    1.0591 H   0  0  0  0  0  0  0  0  0  0  0  0
   -0.0151   -2.3970   -1.0835 H   0  0  0  0  0  0  0  0  0  0  0  0
    2.2830   -1.9734   -1.5512 H   0  0  0  0  0  0  0  0  0  0  0  0
    2.5146    0.4026    1.4457 H   0  0  0  0  0  0  0  0  0  0  0  0
    4.7126    1.0825    2.4079 H   0  0  0  0  0  0  0  0  0  0  0  0
    6.8040   -1.1664   -0.3391 H   0  0  0  0  0  0  0  0  0  0  0  0
    4.7134   -1.9578   -1.4393 H   0  0  0  0  0  0  0  0  0  0  0  0
    0.0441    1.3541   -0.7297 H   0  0  0  0  0  0  0  0  0  0  0  0
  1  2  1  0
  2  3  2  0
  3  4  1  0
  4  5  2  0
  5  6  1  0
  6  7  2  0
  7  8  1  0
  8  9  1  0
  8 10  1  0
  8 11  1  0
  7 12  1  0
 12 13  2  0
 13 14  1  0
 14 15  1  0
 15 16  2  3
 16 17  1  0
 17 18  2  0
 18 19  1  0
 19 20  2  0
 20 21  1  0
 21 22  2  0
 13 23  1  0
 23 24  2  0
 24  2  1  0
 23  5  1  0
 22 17  1  0
  1 25  1  0
  1 26  1  0
  1 27  1  0
  3 28  1  0
  4 29  1  0
 14 30  1  0
 16 31  1  0
 18 32  1  0
 19 33  1  0
 21 34  1  0
 22 35  1  0
 24 36  1  0
M  END
$$$$
