
     RDKit          3D

 36 38  0  0  0  0  0  0  0  0999 V2000
    5.3795    1.5128    1.3881 C   0  0  0  0  0  0  0  0  0  0  0  0
    4.2462    0.8344    0.6748 C   0  0  0  0  0  0  0  0  0  0  0  0
    3.4624    1.5460   -0.2443 C   0  0  0  0  0  0  0  0  0  0  0  0
    2.3905    0.9262   -0.8874 C   0  0  0  0  0  0  0  0  0  0  0  0
    2.0920   -0.4071   -0.5960 C   0  0  0  0  0  0  0  0  0  0  0  0
    0.7249   -1.1816   -1.4179 S   0  0  0  0  0  6  0  0  0  0  0  0
    0.7731   -0.7899   -2.8100 O   0  0  0  0  0  0  0  0  0  0  0  0
    0.6780   -2.5763   -1.0343 O   0  0  0  0  0  0  0  0  0  0  0  0
   -0.6215   -0.4175   -0.7100 N   0  0  0  0  0  0  0  0  0  0  0  0
   -0.7468   -0.6008    0.7726 C   0  0  0  0  0  0  0  0  0  0  0  0
   -2.1146   -0.3574    1.4095 C   0  0  0  0  0  0  0  0  0  0  0  0
   -2.2872   -0.5117    2.6192 O   0  0  0  0  0  0  0  0  0  0  0  0
   -3.1445   -0.0119    0.5749 N   0  0  0  0  0  0  0  0  0  0  0  0
   -4.5328   -0.0479    0.9422 C   0  0  0  0  0  0  0  0  0  0  0  0
   -5.2238    0.3114   -0.3565 C   0  0  0  0  0  0  0  0  0  0  0  0
   -4.2935   -0.0947   -1.3833 O   0  0  0  0  0  0  0  0  0  0  0  0
   -2.9944    0.1731   -0.8411 C   0  0  0  0  0  0  0  0  0  0  0  0
   -1.9025   -0.7234   -1.4220 C   0  0  0  0  0  0  0  0  0  0  0  0
    2.8609   -1.1290    0.3190 C   0  0  0  0  0  0  0  0  0  0  0  0
    3.9313   -0.5021    0.9588 C   0  0  0  0  0  0  0  0  0  0  0  0
    6.1709    0.7968    1.6335 H   0  0  0  0  0  0  0  0  0  0  0  0
    5.0174    1.9716    2.3132 H   0  0  0  0  0  0  0  0  0  0  0  0
    5.8280    2.2891    0.7593 H   0  0  0  0  0  0  0  0  0  0  0  0
    3.6881    2.5868   -0.4679 H   0  0  0  0  0  0  0  0  0  0  0  0
    1.7953    1.4816   -1.6089 H   0  0  0  0  0  0  0  0  0  0  0  0
   -0.4740   -1.6274    1.0420 H   0  0  0  0  0  0  0  0  0  0  0  0
   -0.0515    0.0927    1.2581 H   0  0  0  0  0  0  0  0  0  0  0  0
   -4.7513    0.6391    1.7641 H   0  0  0  0  0  0  0  0  0  0  0  0
   -4.7739   -1.0695    1.2550 H   0  0  0  0  0  0  0  0  0  0  0  0
   -6.1810   -0.1990   -0.4905 H   0  0  0  0  0  0  0  0  0  0  0  0
   -5.3775    1.3928   -0.4456 H   0  0  0  0  0  0  0  0  0  0  0  0
   -2.7551    1.2303   -1.0145 H   0  0  0  0  0  0  0  0  0  0  0  0
   -1.8123   -0.5210   -2.4943 H   0  0  0  0  0  0  0  0  0  0  0  0
   -2.1627   -1.7819   -1.3002 H   0  0  0  0  0  0  0  0  0  0  0  0
    2.6377   -2.1703    0.5401 H   0  0  0  0  0  0  0  0  0  0  0  0
    4.5245   -1.0641    1.6778 H   0  0  0  0  0  0  0  0  0  0  0  0
  1  2  1  0
  2  3  2  0
  3  4  1  0
  4  5  2  0
  5  6  1  0
  6  7  2  0
  6  8  2  0
  6  9  1  0
  9 10  1  0
 10 11  1  0
 11 12  2  0
 11 13  1  0
 13 14  1  0
 14 15  1  0
 15 16  1  0
 16 17  1  0
 17 18  1  0
  5 19  1  0
 19 20  2  0
 20  2  1  0
 18  9  1  0
 17 13  1  0
  1 21  1  0
  1 22  1  0
  1 23  1  0
  3 24  1  0
  4 25  1  0
 10 26  1  0
 10 27  1  0
 14 28  1  0
 14 29  1  0
 15 30  1  0
 15 31  1  0
 17 32  1  0
 18 33  1  0
 18 34  1  0
 19 35  1  0
 20 36  1  0
M  END
$$$$
