
     RDKit          3D

 68 72  0  0  0  0  0  0  0  0999 V2000
    9.2310    2.0481   -1.1221 C   0  0  0  0  0  0  0  0  0  0  0  0
    8.1255    2.3382   -1.9678 O   0  0  0  0  0  0  0  0  0  0  0  0
    6.8873    2.0001   -1.4998 C   0  0  0  0  0  0  0  0  0  0  0  0
    5.8341    2.2802   -2.3648 C   0  0  0  0  0  0  0  0  0  0  0  0
    4.5126    1.9810   -2.0055 C   0  0  0  0  0  0  0  0  0  0  0  0
    4.1933    1.3911   -0.7739 C   0  0  0  0  0  0  0  0  0  0  0  0
    2.8894    1.0922   -0.4200 N   0  0  0  0  0  0  0  0  0  0  0  0
    1.7410    1.7195   -1.0919 C   0  0  0  0  0  0  0  0  0  0  0  0
    0.4965    1.7224   -0.1739 C   0  0  0  0  0  0  0  0  0  0  0  0
    0.0609    0.3999    0.3270 N   0  0  0  0  0  0  0  0  0  0  0  0
   -1.0335   -0.1447   -0.4978 C   0  0  0  0  0  0  0  0  0  0  0  0
   -1.6360   -1.3825    0.1072 C   0  0  0  0  0  0  0  0  0  0  0  0
   -1.4478   -2.6142   -0.3461 N   0  0  0  0  0  0  0  0  0  0  0  0
   -2.0516   -3.4209    0.5622 C   0  0  0  0  0  0  0  0  0  0  0  0
   -2.6330   -2.7092    1.5707 C   0  0  0  0  0  0  0  0  0  0  0  0
   -3.2734   -3.3415    2.6722 C   0  0  0  0  0  0  0  0  0  0  0  0
   -3.7606   -2.7669    3.6387 O   0  0  0  0  0  0  0  0  0  0  0  0
   -3.2830   -4.7141    2.5613 N   0  0  0  0  0  0  0  0  0  0  0  0
   -2.6983   -5.4793    1.5691 C   0  0  0  0  0  0  0  0  0  0  0  0
   -2.7534   -6.7061    1.6553 O   0  0  0  0  0  0  0  0  0  0  0  0
   -2.0735   -4.7989    0.5310 N   0  0  0  0  0  0  0  0  0  0  0  0
   -1.4175   -5.5226   -0.5402 C   0  0  0  0  0  0  0  0  0  0  0  0
   -2.4236   -1.3933    1.2487 N   0  0  0  0  0  0  0  0  0  0  0  0
   -2.8739   -0.2442    2.0118 C   0  0  0  0  0  0  0  0  0  0  0  0
   -4.3902   -0.0088    1.9906 C   0  0  0  0  0  0  0  0  0  0  0  0
   -5.0099    0.2018    0.6030 C   0  0  0  0  0  0  0  0  0  0  0  0
   -4.5259    1.3923   -0.1901 C   0  0  0  0  0  0  0  0  0  0  0  0
   -4.2533    2.6309    0.4059 C   0  0  0  0  0  0  0  0  0  0  0  0
   -3.8240    3.7135   -0.3660 C   0  0  0  0  0  0  0  0  0  0  0  0
   -3.6816    3.5781   -1.7446 C   0  0  0  0  0  0  0  0  0  0  0  0
   -3.9754    2.3621   -2.3551 C   0  0  0  0  0  0  0  0  0  0  0  0
   -4.4022    1.2791   -1.5843 C   0  0  0  0  0  0  0  0  0  0  0  0
    1.2024   -0.5485    0.3761 C   0  0  0  0  0  0  0  0  0  0  0  0
    2.5761    0.1131    0.6341 C   0  0  0  0  0  0  0  0  0  0  0  0
    5.2748    1.1223    0.0801 C   0  0  0  0  0  0  0  0  0  0  0  0
    6.6019    1.4195   -0.2701 C   0  0  0  0  0  0  0  0  0  0  0  0
   10.1406    2.3667   -1.6404 H   0  0  0  0  0  0  0  0  0  0  0  0
    9.1682    2.6097   -0.1842 H   0  0  0  0  0  0  0  0  0  0  0  0
    9.3137    0.9722   -0.9348 H   0  0  0  0  0  0  0  0  0  0  0  0
    6.0369    2.7305   -3.3330 H   0  0  0  0  0  0  0  0  0  0  0  0
    3.7366    2.2016   -2.7325 H   0  0  0  0  0  0  0  0  0  0  0  0
    1.5189    1.1828   -2.0222 H   0  0  0  0  0  0  0  0  0  0  0  0
    1.9618    2.7645   -1.3420 H   0  0  0  0  0  0  0  0  0  0  0  0
   -0.3250    2.2529   -0.6716 H   0  0  0  0  0  0  0  0  0  0  0  0
    0.7355    2.3283    0.7110 H   0  0  0  0  0  0  0  0  0  0  0  0
   -1.8244    0.6018   -0.5993 H   0  0  0  0  0  0  0  0  0  0  0  0
   -0.6875   -0.3654   -1.5159 H   0  0  0  0  0  0  0  0  0  0  0  0
   -3.7081   -5.2253    3.3179 H   0  0  0  0  0  0  0  0  0  0  0  0
   -1.5955   -6.5987   -0.4665 H   0  0  0  0  0  0  0  0  0  0  0  0
   -0.3399   -5.3399   -0.4835 H   0  0  0  0  0  0  0  0  0  0  0  0
   -1.8000   -5.1696   -1.5030 H   0  0  0  0  0  0  0  0  0  0  0  0
   -2.3499    0.6477    1.6606 H   0  0  0  0  0  0  0  0  0  0  0  0
   -2.5406   -0.4046    3.0441 H   0  0  0  0  0  0  0  0  0  0  0  0
   -4.9019   -0.8636    2.4466 H   0  0  0  0  0  0  0  0  0  0  0  0
   -4.6168    0.8466    2.6380 H   0  0  0  0  0  0  0  0  0  0  0  0
   -4.8623   -0.7136    0.0157 H   0  0  0  0  0  0  0  0  0  0  0  0
   -6.0956    0.3126    0.7232 H   0  0  0  0  0  0  0  0  0  0  0  0
   -4.3759    2.7765    1.4757 H   0  0  0  0  0  0  0  0  0  0  0  0
   -3.6100    4.6672    0.1095 H   0  0  0  0  0  0  0  0  0  0  0  0
   -3.3551    4.4237   -2.3442 H   0  0  0  0  0  0  0  0  0  0  0  0
   -3.8795    2.2570   -3.4329 H   0  0  0  0  0  0  0  0  0  0  0  0
   -4.6346    0.3392   -2.0823 H   0  0  0  0  0  0  0  0  0  0  0  0
    1.0159   -1.2842    1.1671 H   0  0  0  0  0  0  0  0  0  0  0  0
    1.2833   -1.1013   -0.5704 H   0  0  0  0  0  0  0  0  0  0  0  0
    2.5792    0.6103    1.6118 H   0  0  0  0  0  0  0  0  0  0  0  0
    3.3223   -0.6906    0.6576 H   0  0  0  0  0  0  0  0  0  0  0  0
    5.1049    0.6901    1.0623 H   0  0  0  0  0  0  0  0  0  0  0  0
    7.3797    1.1850    0.4483 H   0  0  0  0  0  0  0  0  0  0  0  0
  1  2  1  0
  2  3  1  0
  3  4  2  0
  4  5  1  0
  5  6  2  0
  6  7  1  0
  7  8  1  0
  8  9  1  0
  9 10  1  0
 10 11  1  0
 11 12  1  0
 12 13  2  0
 13 14  1  0
 14 15  2  0
 15 16  1  0
 16 17  2  0
 16 18  1  0
 18 19  1  0
 19 20  2  0
 19 21  1  0
 21 22  1  0
 15 23  1  0
 23 24  1  0
 24 25  1  0
 25 26  1  0
 26 27  1  0
 27 28  2  0
 28 29  1  0
 29 30  2  0
 30 31  1  0
 31 32  2  0
 10 33  1  0
 33 34  1  0
  6 35  1  0
 35 36  2  0
 36  3  1  0
 34  7  1  0
 23 12  1  0
 32 27  1  0
 21 14  1  0
  1 37  1  0
  1 38  1  0
  1 39  1  0
  4 40  1  0
  5 41  1  0
  8 42  1  0
  8 43  1  0
  9 44  1  0
  9 45  1  0
 11 46  1  0
 11 47  1  0
 18 48  1  0
 22 49  1  0
 22 50  1  0
 22 51  1  0
 24 52  1  0
 24 53  1  0
 25 54  1  0
 25 55  1  0
 26 56  1  0
 26 57  1  0
 28 58  1  0
 29 59  1  0
 30 60  1  0
 31 61  1  0
 32 62  1  0
 33 63  1  0
 33 64  1  0
 34 65  1  0
 34 66  1  0
 35 67  1  0
 36 68  1  0
M  END
$$$$
