
     RDKit          3D

 61 64  0  0  0  0  0  0  0  0999 V2000
   -6.5250   -5.1206   -0.1082 C   0  0  0  0  0  0  0  0  0  0  0  0
   -5.9299   -3.8372   -0.3063 O   0  0  0  0  0  0  0  0  0  0  0  0
   -4.6026   -3.8824   -0.6002 C   0  0  0  0  0  0  0  0  0  0  0  0
   -3.9265   -4.8993   -0.6797 O   0  0  0  0  0  0  0  0  0  0  0  0
   -4.0517   -2.4943   -0.7758 C   0  0  0  0  0  0  0  0  0  0  0  0
   -3.4617   -2.0071    0.5391 C   0  0  0  0  0  0  0  0  0  0  0  0
   -2.8141   -0.6575    0.3831 C   0  0  0  0  0  0  0  0  0  0  0  0
   -1.5105   -0.3503    0.1874 C   0  0  0  0  0  0  0  0  0  0  0  0
   -0.5218   -1.4316    0.0172 C   0  0  0  0  0  0  0  0  0  0  0  0
    0.7677   -1.1985   -0.3066 C   0  0  0  0  0  0  0  0  0  0  0  0
    1.7453   -2.3241   -0.4886 C   0  0  0  0  0  0  0  0  0  0  0  0
    3.1235   -1.8300   -0.1102 C   0  0  0  0  0  0  0  0  0  0  0  0
    3.7380   -2.3201    0.8376 O   0  0  0  0  0  0  0  0  0  0  0  0
    3.6409   -0.6360   -0.9268 C   0  0  0  0  0  0  0  0  0  0  0  0
    3.7198   -0.9377   -2.4315 C   0  0  0  0  0  0  0  0  0  0  0  0
    4.8951   -0.1410   -0.4220 O   0  0  0  0  0  0  0  0  0  0  0  0
    5.9918   -0.9456   -0.5128 C   0  0  0  0  0  0  0  0  0  0  0  0
    5.9961   -2.0331   -1.0766 O   0  0  0  0  0  0  0  0  0  0  0  0
    7.1221   -0.2951    0.1230 C   0  0  0  0  0  0  0  0  0  0  0  0
    7.1918    0.9378    0.7498 C   0  0  0  0  0  0  0  0  0  0  0  0
    8.4945    1.2246    1.2529 C   0  0  0  0  0  0  0  0  0  0  0  0
    9.3805    0.2037    0.9953 C   0  0  0  0  0  0  0  0  0  0  0  0
    8.6434   -1.0877    0.1521 S   0  0  0  0  0  0  0  0  0  0  0  0
    2.6521    0.5268   -0.7715 C   0  0  0  0  0  0  0  0  0  0  0  0
    2.9892    1.7018   -0.9314 O   0  0  0  0  0  0  0  0  0  0  0  0
    1.2243    0.1777   -0.4650 C   0  0  0  0  0  0  0  0  0  0  0  0
    0.3400    1.1720   -0.2780 C   0  0  0  0  0  0  0  0  0  0  0  0
   -1.0047    0.9730    0.0571 N   0  0  0  0  0  0  0  0  0  0  0  0
   -1.7906    2.1294    0.3624 C   0  0  0  0  0  0  0  0  0  0  0  0
   -2.3555    2.3047    1.6355 C   0  0  0  0  0  0  0  0  0  0  0  0
   -3.1103    3.4444    1.9402 C   0  0  0  0  0  0  0  0  0  0  0  0
   -3.3073    4.4315    0.9756 C   0  0  0  0  0  0  0  0  0  0  0  0
   -4.0199    5.5868    1.1398 O   0  0  0  0  0  0  0  0  0  0  0  0
   -4.5888    5.8149    2.4230 C   0  0  0  0  0  0  0  0  0  0  0  0
   -2.7420    4.2697   -0.2910 C   0  0  0  0  0  0  0  0  0  0  0  0
   -1.9866    3.1338   -0.5958 C   0  0  0  0  0  0  0  0  0  0  0  0
   -6.0630   -5.6294    0.7436 H   0  0  0  0  0  0  0  0  0  0  0  0
   -6.4403   -5.7268   -1.0156 H   0  0  0  0  0  0  0  0  0  0  0  0
   -7.5858   -4.9718    0.1108 H   0  0  0  0  0  0  0  0  0  0  0  0
   -3.2951   -2.5336   -1.5687 H   0  0  0  0  0  0  0  0  0  0  0  0
   -4.8431   -1.8258   -1.1355 H   0  0  0  0  0  0  0  0  0  0  0  0
   -2.7706   -2.7477    0.9551 H   0  0  0  0  0  0  0  0  0  0  0  0
   -4.2584   -1.9186    1.2897 H   0  0  0  0  0  0  0  0  0  0  0  0
   -3.5356    0.1567    0.4288 H   0  0  0  0  0  0  0  0  0  0  0  0
   -0.8521   -2.4593    0.1286 H   0  0  0  0  0  0  0  0  0  0  0  0
    1.4950   -3.1808    0.1475 H   0  0  0  0  0  0  0  0  0  0  0  0
    1.7595   -2.6722   -1.5261 H   0  0  0  0  0  0  0  0  0  0  0  0
    2.7361   -0.8950   -2.9132 H   0  0  0  0  0  0  0  0  0  0  0  0
    4.1172   -1.9393   -2.6255 H   0  0  0  0  0  0  0  0  0  0  0  0
    4.3714   -0.2195   -2.9422 H   0  0  0  0  0  0  0  0  0  0  0  0
    6.3443    1.6079    0.8439 H   0  0  0  0  0  0  0  0  0  0  0  0
    8.7657    2.1330    1.7769 H   0  0  0  0  0  0  0  0  0  0  0  0
   10.4276    0.1512    1.2610 H   0  0  0  0  0  0  0  0  0  0  0  0
    0.6389    2.2165   -0.3433 H   0  0  0  0  0  0  0  0  0  0  0  0
   -2.1945    1.5539    2.4059 H   0  0  0  0  0  0  0  0  0  0  0  0
   -3.5223    3.5291    2.9399 H   0  0  0  0  0  0  0  0  0  0  0  0
   -5.1088    6.7771    2.3920 H   0  0  0  0  0  0  0  0  0  0  0  0
   -3.8130    5.8806    3.1931 H   0  0  0  0  0  0  0  0  0  0  0  0
   -5.3274    5.0450    2.6695 H   0  0  0  0  0  0  0  0  0  0  0  0
   -2.8892    5.0360   -1.0482 H   0  0  0  0  0  0  0  0  0  0  0  0
   -1.5630    3.0293   -1.5914 H   0  0  0  0  0  0  0  0  0  0  0  0
  1  2  1  0
  2  3  1  0
  3  4  2  0
  3  5  1  0
  5  6  1  0
  6  7  1  0
  7  8  2  3
  8  9  1  0
  9 10  2  0
 10 11  1  0
 11 12  1  0
 12 13  2  0
 12 14  1  0
 14 15  1  0
 14 16  1  0
 16 17  1  0
 17 18  2  0
 17 19  1  0
 19 20  2  0
 20 21  1  0
 21 22  2  0
 22 23  1  0
 14 24  1  0
 24 25  2  0
 24 26  1  0
 26 27  2  0
 27 28  1  0
 28 29  1  0
 29 30  2  0
 30 31  1  0
 31 32  2  0
 32 33  1  0
 33 34  1  0
 32 35  1  0
 35 36  2  0
 28  8  1  0
 36 29  1  0
 26 10  1  0
 23 19  1  0
  1 37  1  0
  1 38  1  0
  1 39  1  0
  5 40  1  0
  5 41  1  0
  6 42  1  0
  6 43  1  0
  7 44  1  0
  9 45  1  0
 11 46  1  0
 11 47  1  0
 15 48  1  0
 15 49  1  0
 15 50  1  0
 20 51  1  0
 21 52  1  0
 22 53  1  0
 27 54  1  0
 30 55  1  0
 31 56  1  0
 34 57  1  0
 34 58  1  0
 34 59  1  0
 35 60  1  0
 36 61  1  0
M  END
$$$$
