
     RDKit          3D

 50 53  0  0  0  0  0  0  0  0999 V2000
   -1.0070   -3.1090   -2.8904 C   0  0  0  0  0  0  0  0  0  0  0  0
   -0.6018   -2.2381   -1.8358 O   0  0  0  0  0  0  0  0  0  0  0  0
   -1.3835   -2.3042   -0.7333 C   0  0  0  0  0  0  0  0  0  0  0  0
   -2.3590   -3.0164   -0.5573 O   0  0  0  0  0  0  0  0  0  0  0  0
   -0.8699   -1.3767    0.2864 C   0  0  0  0  0  0  0  0  0  0  0  0
   -1.1495   -0.0503    0.2936 C   0  0  0  0  0  0  0  0  0  0  0  0
   -1.9942    0.6210   -0.7107 C   0  0  0  0  0  0  0  0  0  0  0  0
   -1.4770    1.6745   -1.4746 C   0  0  0  0  0  0  0  0  0  0  0  0
   -2.2720    2.3262   -2.4196 C   0  0  0  0  0  0  0  0  0  0  0  0
   -3.5943    1.9300   -2.6117 C   0  0  0  0  0  0  0  0  0  0  0  0
   -4.1256    0.8828   -1.8547 C   0  0  0  0  0  0  0  0  0  0  0  0
   -5.4892    0.4841   -2.0429 C   0  0  0  0  0  0  0  0  0  0  0  0
   -6.5980    0.1774   -2.1952 N   0  0  0  0  0  0  0  0  0  0  0  0
   -3.3275    0.2336   -0.9049 C   0  0  0  0  0  0  0  0  0  0  0  0
   -0.5437    0.8340    1.3835 C   0  0  0  0  0  0  0  0  0  0  0  0
    0.1980    0.0030    2.4653 C   0  0  0  0  0  0  0  0  0  0  0  0
   -0.7828   -0.8303    3.3131 C   0  0  0  0  0  0  0  0  0  0  0  0
   -0.8294   -2.2117    2.6282 C   0  0  0  0  0  0  0  0  0  0  0  0
   -0.0061   -2.0266    1.3504 C   0  0  0  0  0  0  0  0  0  0  0  0
    0.9669   -1.0305    1.7801 N   0  0  0  0  0  0  0  0  0  0  0  0
    2.1374   -0.8584    1.0774 C   0  0  0  0  0  0  0  0  0  0  0  0
    2.5035   -1.6296    0.1969 O   0  0  0  0  0  0  0  0  0  0  0  0
    2.8428    0.2612    1.4347 N   0  0  0  0  0  0  0  0  0  0  0  0
    4.0794    0.5951    0.7660 C   0  0  0  0  0  0  0  0  0  0  0  0
    3.7807    1.2931   -0.5248 C   0  0  0  0  0  0  0  0  0  0  0  0
    3.3135    2.7279   -0.5343 C   0  0  0  0  0  0  0  0  0  0  0  0
    4.6874    2.3825   -1.0376 C   0  0  0  0  0  0  0  0  0  0  0  0
   -0.2135   -3.1201   -3.6435 H   0  0  0  0  0  0  0  0  0  0  0  0
   -1.1553   -4.1323   -2.5281 H   0  0  0  0  0  0  0  0  0  0  0  0
   -1.9218   -2.7279   -3.3569 H   0  0  0  0  0  0  0  0  0  0  0  0
   -0.4441    1.9909   -1.3491 H   0  0  0  0  0  0  0  0  0  0  0  0
   -1.8574    3.1420   -3.0052 H   0  0  0  0  0  0  0  0  0  0  0  0
   -4.2060    2.4431   -3.3516 H   0  0  0  0  0  0  0  0  0  0  0  0
   -3.7531   -0.5748   -0.3109 H   0  0  0  0  0  0  0  0  0  0  0  0
    0.1762    1.5202    0.9208 H   0  0  0  0  0  0  0  0  0  0  0  0
   -1.3216    1.4442    1.8572 H   0  0  0  0  0  0  0  0  0  0  0  0
    0.8206    0.6517    3.0875 H   0  0  0  0  0  0  0  0  0  0  0  0
   -1.7737   -0.3711    3.3886 H   0  0  0  0  0  0  0  0  0  0  0  0
   -0.3973   -0.9492    4.3327 H   0  0  0  0  0  0  0  0  0  0  0  0
   -1.8548   -2.5515    2.4483 H   0  0  0  0  0  0  0  0  0  0  0  0
   -0.3453   -2.9490    3.2808 H   0  0  0  0  0  0  0  0  0  0  0  0
    0.4787   -2.9443    1.0042 H   0  0  0  0  0  0  0  0  0  0  0  0
    2.8072    0.4668    2.4200 H   0  0  0  0  0  0  0  0  0  0  0  0
    4.6665   -0.3124    0.5878 H   0  0  0  0  0  0  0  0  0  0  0  0
    4.6465    1.2422    1.4456 H   0  0  0  0  0  0  0  0  0  0  0  0
    3.3486    0.6167   -1.2561 H   0  0  0  0  0  0  0  0  0  0  0  0
    2.5608    3.0049   -1.2644 H   0  0  0  0  0  0  0  0  0  0  0  0
    3.2372    3.2543    0.4091 H   0  0  0  0  0  0  0  0  0  0  0  0
    4.8632    2.4316   -2.1070 H   0  0  0  0  0  0  0  0  0  0  0  0
    5.5391    2.6795   -0.4360 H   0  0  0  0  0  0  0  0  0  0  0  0
  1  2  1  0
  2  3  1  0
  3  4  2  0
  3  5  1  0
  5  6  2  0
  6  7  1  0
  7  8  2  0
  8  9  1  0
  9 10  2  0
 10 11  1  0
 11 12  1  0
 12 13  3  0
 11 14  2  0
  6 15  1  0
 15 16  1  0
 16 17  1  0
 17 18  1  0
 18 19  1  0
 19 20  1  0
 20 21  1  0
 21 22  2  0
 21 23  1  0
 23 24  1  0
 24 25  1  0
 25 26  1  0
 26 27  1  0
 19  5  1  0
 27 25  1  0
 14  7  1  0
 20 16  1  0
  1 28  1  0
  1 29  1  0
  1 30  1  0
  8 31  1  0
  9 32  1  0
 10 33  1  0
 14 34  1  0
 15 35  1  0
 15 36  1  0
 16 37  1  0
 17 38  1  0
 17 39  1  0
 18 40  1  0
 18 41  1  0
 19 42  1  0
 23 43  1  0
 24 44  1  0
 24 45  1  0
 25 46  1  0
 26 47  1  0
 26 48  1  0
 27 49  1  0
 27 50  1  0
M  END
$$$$
