
     RDKit          3D

 59 62  0  0  0  0  0  0  0  0999 V2000
    3.9523    3.4420   -2.2204 C   0  0  0  0  0  0  0  0  0  0  0  0
    3.6946    2.0161   -2.6069 C   0  0  0  0  0  0  0  0  0  0  0  0
    4.0397    0.9741   -1.7396 C   0  0  0  0  0  0  0  0  0  0  0  0
    3.8316   -0.3555   -2.1128 C   0  0  0  0  0  0  0  0  0  0  0  0
    3.2877   -0.6693   -3.3658 C   0  0  0  0  0  0  0  0  0  0  0  0
    3.0561   -2.1074   -3.7544 C   0  0  0  0  0  0  0  0  0  0  0  0
    1.8948   -2.6433   -3.0802 N   0  0  0  0  0  0  0  0  0  0  0  0
    2.0145   -3.4323   -1.9583 C   0  0  0  0  0  0  0  0  0  0  0  0
    3.0850   -3.8613   -1.5403 O   0  0  0  0  0  0  0  0  0  0  0  0
    0.6811   -3.7719   -1.3192 C   0  0  0  0  0  0  0  0  0  0  0  0
    0.8178   -4.1761    0.1489 C   0  0  0  0  0  0  0  0  0  0  0  0
    1.3609   -3.0617    1.0492 C   0  0  0  0  0  0  0  0  0  0  0  0
    0.4608   -1.9159    1.1376 N   0  0  0  0  0  0  0  0  0  0  0  0
    0.6822   -0.8964    0.2041 N   0  0  0  0  0  0  0  0  0  0  0  0
   -0.0558    0.1780    0.1915 C   0  0  0  0  0  0  0  0  0  0  0  0
    0.2238    1.2251   -0.8480 C   0  0  0  0  0  0  0  0  0  0  0  0
   -1.1106    0.3226    1.1640 C   0  0  0  0  0  0  0  0  0  0  0  0
   -1.9925    1.3407    1.4868 C   0  0  0  0  0  0  0  0  0  0  0  0
   -2.0424    2.7439    1.0010 C   0  0  0  0  0  0  0  0  0  0  0  0
   -2.8389    0.8025    2.4645 N   0  0  0  0  0  0  0  0  0  0  0  0
   -4.0549    1.3058    3.0241 C   0  0  0  0  0  0  0  0  0  0  0  0
   -4.8122    2.3053    2.4015 C   0  0  0  0  0  0  0  0  0  0  0  0
   -6.0006    2.7587    2.9855 C   0  0  0  0  0  0  0  0  0  0  0  0
   -6.4495    2.2119    4.1853 C   0  0  0  0  0  0  0  0  0  0  0  0
   -5.7189    1.1999    4.8006 C   0  0  0  0  0  0  0  0  0  0  0  0
   -4.5328    0.7431    4.2211 C   0  0  0  0  0  0  0  0  0  0  0  0
   -2.3704   -0.3976    2.9031 N   0  0  0  0  0  0  0  0  0  0  0  0
   -1.3675   -0.7042    2.0779 C   0  0  0  0  0  0  0  0  0  0  0  0
   -0.5731   -1.9259    2.0980 C   0  0  0  0  0  0  0  0  0  0  0  0
   -0.7801   -2.8617    2.8677 O   0  0  0  0  0  0  0  0  0  0  0  0
    2.9503    0.3752   -4.2360 C   0  0  0  0  0  0  0  0  0  0  0  0
    3.1597    1.7057   -3.8624 C   0  0  0  0  0  0  0  0  0  0  0  0
    3.2246    4.1115   -2.6905 H   0  0  0  0  0  0  0  0  0  0  0  0
    4.9588    3.7383   -2.5316 H   0  0  0  0  0  0  0  0  0  0  0  0
    3.8626    3.5750   -1.1372 H   0  0  0  0  0  0  0  0  0  0  0  0
    4.4724    1.1872   -0.7646 H   0  0  0  0  0  0  0  0  0  0  0  0
    4.0960   -1.1525   -1.4187 H   0  0  0  0  0  0  0  0  0  0  0  0
    2.8654   -2.1870   -4.8303 H   0  0  0  0  0  0  0  0  0  0  0  0
    3.9489   -2.7043   -3.5374 H   0  0  0  0  0  0  0  0  0  0  0  0
    1.0141   -2.1762   -3.2437 H   0  0  0  0  0  0  0  0  0  0  0  0
   -0.0140   -2.9326   -1.4240 H   0  0  0  0  0  0  0  0  0  0  0  0
    0.2595   -4.6124   -1.8834 H   0  0  0  0  0  0  0  0  0  0  0  0
    1.4844   -5.0436    0.2285 H   0  0  0  0  0  0  0  0  0  0  0  0
   -0.1646   -4.4980    0.5150 H   0  0  0  0  0  0  0  0  0  0  0  0
    1.5058   -3.4657    2.0581 H   0  0  0  0  0  0  0  0  0  0  0  0
    2.3407   -2.7074    0.7110 H   0  0  0  0  0  0  0  0  0  0  0  0
    0.7864    2.0464   -0.3963 H   0  0  0  0  0  0  0  0  0  0  0  0
   -0.7096    1.6047   -1.2710 H   0  0  0  0  0  0  0  0  0  0  0  0
    0.8160    0.7973   -1.6608 H   0  0  0  0  0  0  0  0  0  0  0  0
   -2.6868    2.8281    0.1211 H   0  0  0  0  0  0  0  0  0  0  0  0
   -1.0449    3.0947    0.7205 H   0  0  0  0  0  0  0  0  0  0  0  0
   -2.3868    3.4341    1.7768 H   0  0  0  0  0  0  0  0  0  0  0  0
   -4.5431    2.7255    1.4405 H   0  0  0  0  0  0  0  0  0  0  0  0
   -6.5858    3.5322    2.4937 H   0  0  0  0  0  0  0  0  0  0  0  0
   -7.3747    2.5644    4.6339 H   0  0  0  0  0  0  0  0  0  0  0  0
   -6.0701    0.7600    5.7306 H   0  0  0  0  0  0  0  0  0  0  0  0
   -3.9828   -0.0511    4.7250 H   0  0  0  0  0  0  0  0  0  0  0  0
    2.5299    0.1615   -5.2160 H   0  0  0  0  0  0  0  0  0  0  0  0
    2.9045    2.4997   -4.5607 H   0  0  0  0  0  0  0  0  0  0  0  0
  1  2  1  0
  2  3  2  0
  3  4  1  0
  4  5  2  0
  5  6  1  0
  6  7  1  0
  7  8  1  0
  8  9  2  0
  8 10  1  0
 10 11  1  0
 11 12  1  0
 12 13  1  0
 13 14  1  0
 14 15  2  0
 15 16  1  0
 15 17  1  0
 17 18  2  0
 18 19  1  0
 18 20  1  0
 20 21  1  0
 21 22  2  0
 22 23  1  0
 23 24  2  0
 24 25  1  0
 25 26  2  0
 20 27  1  0
 27 28  2  0
 28 29  1  0
 29 30  2  0
  5 31  1  0
 31 32  2  0
 32  2  1  0
 29 13  1  0
 28 17  1  0
 26 21  1  0
  1 33  1  0
  1 34  1  0
  1 35  1  0
  3 36  1  0
  4 37  1  0
  6 38  1  0
  6 39  1  0
  7 40  1  0
 10 41  1  0
 10 42  1  0
 11 43  1  0
 11 44  1  0
 12 45  1  0
 12 46  1  0
 16 47  1  0
 16 48  1  0
 16 49  1  0
 19 50  1  0
 19 51  1  0
 19 52  1  0
 22 53  1  0
 23 54  1  0
 24 55  1  0
 25 56  1  0
 26 57  1  0
 31 58  1  0
 32 59  1  0
M  END
$$$$
