
     RDKit          3D

 40 41  0  0  0  0  0  0  0  0999 V2000
   -4.1751    2.6570    0.3038 C   0  0  0  0  0  0  0  0  0  0  0  0
   -3.8958    1.2339    0.7888 C   0  0  0  0  0  0  0  0  0  0  0  0
   -2.4852    1.1111    1.3917 C   0  0  0  0  0  0  0  0  0  0  0  0
   -1.4695    0.5561    0.3958 C   0  0  0  0  0  0  0  0  0  0  0  0
   -1.8768   -0.7527   -0.1256 N   0  0  0  0  0  0  0  0  0  0  0  0
   -1.0019   -1.8068   -0.3845 C   0  0  0  0  0  0  0  0  0  0  0  0
   -1.3715   -2.9706   -0.5268 O   0  0  0  0  0  0  0  0  0  0  0  0
    0.4501   -1.5327   -0.4985 C   0  0  0  0  0  0  0  0  0  0  0  0
    0.9332   -0.5333   -1.3491 C   0  0  0  0  0  0  0  0  0  0  0  0
    2.3094   -0.3164   -1.4538 C   0  0  0  0  0  0  0  0  0  0  0  0
    3.2008   -1.1064   -0.7262 C   0  0  0  0  0  0  0  0  0  0  0  0
    4.6048   -0.8951   -0.8081 N   0  0  0  0  0  0  0  0  0  0  0  0
    5.2631    0.5686   -0.2991 S   0  0  0  0  0  6  0  0  0  0  0  0
    4.8414    0.5928    1.4325 C   0  0  0  0  0  0  0  0  0  0  0  0
    4.5881    1.6682   -0.9518 O   0  0  0  0  0  0  0  0  0  0  0  0
    6.6986    0.4060   -0.3911 O   0  0  0  0  0  0  0  0  0  0  0  0
    2.7202   -2.1287    0.0953 C   0  0  0  0  0  0  0  0  0  0  0  0
    1.3445   -2.3455    0.2064 C   0  0  0  0  0  0  0  0  0  0  0  0
   -3.3089   -1.0416   -0.1572 C   0  0  0  0  0  0  0  0  0  0  0  0
   -4.1305    0.2268   -0.3496 C   0  0  0  0  0  0  0  0  0  0  0  0
   -4.0937    3.3716    1.1297 H   0  0  0  0  0  0  0  0  0  0  0  0
   -3.4670    2.9589   -0.4752 H   0  0  0  0  0  0  0  0  0  0  0  0
   -5.1874    2.7353   -0.1068 H   0  0  0  0  0  0  0  0  0  0  0  0
   -4.6138    1.0201    1.5918 H   0  0  0  0  0  0  0  0  0  0  0  0
   -2.1395    2.0734    1.7862 H   0  0  0  0  0  0  0  0  0  0  0  0
   -2.5345    0.4265    2.2493 H   0  0  0  0  0  0  0  0  0  0  0  0
   -1.3716    1.2342   -0.4595 H   0  0  0  0  0  0  0  0  0  0  0  0
   -0.4937    0.4800    0.8849 H   0  0  0  0  0  0  0  0  0  0  0  0
    0.2491    0.0641   -1.9460 H   0  0  0  0  0  0  0  0  0  0  0  0
    2.6763    0.4567   -2.1257 H   0  0  0  0  0  0  0  0  0  0  0  0
    5.2147   -1.6884   -0.6115 H   0  0  0  0  0  0  0  0  0  0  0  0
    3.7583    0.6668    1.5413 H   0  0  0  0  0  0  0  0  0  0  0  0
    5.3151    1.4704    1.8784 H   0  0  0  0  0  0  0  0  0  0  0  0
    5.2265   -0.3131    1.9043 H   0  0  0  0  0  0  0  0  0  0  0  0
    3.4014   -2.7674    0.6505 H   0  0  0  0  0  0  0  0  0  0  0  0
    0.9671   -3.1503    0.8342 H   0  0  0  0  0  0  0  0  0  0  0  0
   -3.5178   -1.7499   -0.9670 H   0  0  0  0  0  0  0  0  0  0  0  0
   -3.5706   -1.5349    0.7867 H   0  0  0  0  0  0  0  0  0  0  0  0
   -3.8614    0.6768   -1.3144 H   0  0  0  0  0  0  0  0  0  0  0  0
   -5.1968   -0.0213   -0.4063 H   0  0  0  0  0  0  0  0  0  0  0  0
  1  2  1  0
  2  3  1  0
  3  4  1  0
  4  5  1  0
  5  6  1  0
  6  7  2  0
  6  8  1  0
  8  9  2  0
  9 10  1  0
 10 11  2  0
 11 12  1  0
 12 13  1  0
 13 14  1  0
 13 15  2  0
 13 16  2  0
 11 17  1  0
 17 18  2  0
  5 19  1  0
 19 20  1  0
 20  2  1  0
 18  8  1  0
  1 21  1  0
  1 22  1  0
  1 23  1  0
  2 24  1  0
  3 25  1  0
  3 26  1  0
  4 27  1  0
  4 28  1  0
  9 29  1  0
 10 30  1  0
 12 31  1  0
 14 32  1  0
 14 33  1  0
 14 34  1  0
 17 35  1  0
 18 36  1  0
 19 37  1  0
 19 38  1  0
 20 39  1  0
 20 40  1  0
M  END
$$$$
