
     RDKit          3D

 52 55  0  0  0  0  0  0  0  0999 V2000
    6.0055    1.5572    5.9896 N   0  0  0  0  0  0  0  0  0  0  0  0
    6.8790    1.1781    4.5994 S   0  0  0  0  0  6  0  0  0  0  0  0
    7.4945   -0.1020    4.8632 O   0  0  0  0  0  0  0  0  0  0  0  0
    7.6404    2.3450    4.2230 O   0  0  0  0  0  0  0  0  0  0  0  0
    5.5769    0.9468    3.4190 C   0  0  0  0  0  0  0  0  0  0  0  0
    5.0332   -0.3250    3.2268 C   0  0  0  0  0  0  0  0  0  0  0  0
    4.0116   -0.4990    2.2923 C   0  0  0  0  0  0  0  0  0  0  0  0
    3.5414    0.5885    1.5402 C   0  0  0  0  0  0  0  0  0  0  0  0
    2.4281    0.3903    0.5405 C   0  0  0  0  0  0  0  0  0  0  0  0
    1.0504    0.5378    1.1907 C   0  0  0  0  0  0  0  0  0  0  0  0
   -0.0284    0.3346    0.2422 N   0  0  0  0  0  0  0  0  0  0  0  0
   -0.4004   -0.9350   -0.1507 C   0  0  0  0  0  0  0  0  0  0  0  0
    0.0968   -1.9617    0.2908 O   0  0  0  0  0  0  0  0  0  0  0  0
   -1.4624   -0.9826   -1.1826 C   0  0  0  0  0  0  0  0  0  0  0  0
   -2.6524   -0.3022   -0.9114 C   0  0  0  0  0  0  0  0  0  0  0  0
   -3.6621   -0.3283   -1.8581 C   0  0  0  0  0  0  0  0  0  0  0  0
   -4.9619    0.3521   -1.6723 C   0  0  0  0  0  0  0  0  0  0  0  0
   -5.0913    1.5343   -0.9188 C   0  0  0  0  0  0  0  0  0  0  0  0
   -6.3320    2.1595   -0.7508 C   0  0  0  0  0  0  0  0  0  0  0  0
   -7.4723    1.6181   -1.3362 C   0  0  0  0  0  0  0  0  0  0  0  0
   -7.3729    0.4559   -2.0937 C   0  0  0  0  0  0  0  0  0  0  0  0
   -6.1317   -0.1658   -2.2603 C   0  0  0  0  0  0  0  0  0  0  0  0
   -3.5122   -1.0023   -3.0248 N   0  0  0  0  0  0  0  0  0  0  0  0
   -2.3711   -1.6649   -3.2814 C   0  0  0  0  0  0  0  0  0  0  0  0
   -2.2613   -2.3399   -4.4901 C   0  0  0  0  0  0  0  0  0  0  0  0
   -1.1095   -3.0471   -4.8419 C   0  0  0  0  0  0  0  0  0  0  0  0
   -0.0342   -3.0852   -3.9671 C   0  0  0  0  0  0  0  0  0  0  0  0
   -0.1192   -2.4156   -2.7480 C   0  0  0  0  0  0  0  0  0  0  0  0
   -1.2881   -1.6979   -2.3857 C   0  0  0  0  0  0  0  0  0  0  0  0
    4.1029    1.8579    1.7400 C   0  0  0  0  0  0  0  0  0  0  0  0
    5.1234    2.0388    2.6746 C   0  0  0  0  0  0  0  0  0  0  0  0
    5.0141    1.7111    5.8103 H   0  0  0  0  0  0  0  0  0  0  0  0
    6.1578    0.8220    6.6824 H   0  0  0  0  0  0  0  0  0  0  0  0
    5.3984   -1.1813    3.7899 H   0  0  0  0  0  0  0  0  0  0  0  0
    3.5868   -1.4915    2.1445 H   0  0  0  0  0  0  0  0  0  0  0  0
    2.5340    1.1122   -0.2796 H   0  0  0  0  0  0  0  0  0  0  0  0
    2.5319   -0.5973    0.0733 H   0  0  0  0  0  0  0  0  0  0  0  0
    0.9243    1.5425    1.6090 H   0  0  0  0  0  0  0  0  0  0  0  0
    0.9320   -0.1812    2.0100 H   0  0  0  0  0  0  0  0  0  0  0  0
   -0.3698    1.1333   -0.2780 H   0  0  0  0  0  0  0  0  0  0  0  0
   -2.7893    0.2009    0.0398 H   0  0  0  0  0  0  0  0  0  0  0  0
   -4.2218    2.0007   -0.4624 H   0  0  0  0  0  0  0  0  0  0  0  0
   -6.4051    3.0732   -0.1662 H   0  0  0  0  0  0  0  0  0  0  0  0
   -8.4359    2.1038   -1.2075 H   0  0  0  0  0  0  0  0  0  0  0  0
   -8.2577    0.0294   -2.5588 H   0  0  0  0  0  0  0  0  0  0  0  0
   -6.0788   -1.0745   -2.8591 H   0  0  0  0  0  0  0  0  0  0  0  0
   -3.1006   -2.3142   -5.1821 H   0  0  0  0  0  0  0  0  0  0  0  0
   -1.0602   -3.5656   -5.7959 H   0  0  0  0  0  0  0  0  0  0  0  0
    0.8666   -3.6359   -4.2263 H   0  0  0  0  0  0  0  0  0  0  0  0
    0.7343   -2.4651   -2.0739 H   0  0  0  0  0  0  0  0  0  0  0  0
    3.7560    2.7116    1.1610 H   0  0  0  0  0  0  0  0  0  0  0  0
    5.5623    3.0256    2.8113 H   0  0  0  0  0  0  0  0  0  0  0  0
  1  2  1  0
  2  3  2  0
  2  4  2  0
  2  5  1  0
  5  6  2  0
  6  7  1  0
  7  8  2  0
  8  9  1  0
  9 10  1  0
 10 11  1  0
 11 12  1  0
 12 13  2  0
 12 14  1  0
 14 15  2  0
 15 16  1  0
 16 17  1  0
 17 18  2  0
 18 19  1  0
 19 20  2  0
 20 21  1  0
 21 22  2  0
 16 23  2  0
 23 24  1  0
 24 25  2  0
 25 26  1  0
 26 27  2  0
 27 28  1  0
 28 29  2  0
  8 30  1  0
 30 31  2  0
 31  5  1  0
 29 14  1  0
 22 17  1  0
 29 24  1  0
  1 32  1  0
  1 33  1  0
  6 34  1  0
  7 35  1  0
  9 36  1  0
  9 37  1  0
 10 38  1  0
 10 39  1  0
 11 40  1  0
 15 41  1  0
 18 42  1  0
 19 43  1  0
 20 44  1  0
 21 45  1  0
 22 46  1  0
 25 47  1  0
 26 48  1  0
 27 49  1  0
 28 50  1  0
 30 51  1  0
 31 52  1  0
M  END
$$$$
