
     RDKit          3D

 53 55  0  0  0  0  0  0  0  0999 V2000
   -7.1817   -0.7713    0.7608 C   0  0  0  0  0  0  0  0  0  0  0  0
   -6.1110    0.0218    1.4926 C   0  0  0  0  0  0  0  0  0  0  0  0
   -4.8888    0.3384    0.6288 C   0  0  0  0  0  0  0  0  0  0  0  0
   -4.0967   -0.9065    0.2218 C   0  0  0  0  0  0  0  0  0  0  0  0
   -2.8872   -0.5380   -0.4833 N   0  0  0  0  0  0  0  0  0  0  0  0
   -1.6684   -0.1422    0.0656 C   0  0  0  0  0  0  0  0  0  0  0  0
   -1.3239   -0.1458    1.3079 N   0  0  0  0  0  0  0  0  0  0  0  0
   -0.8494    0.2819   -0.9824 N   0  0  0  0  0  0  0  0  0  0  0  0
    0.4409    0.9430   -0.8453 C   0  0  0  0  0  0  0  0  0  0  0  0
    1.4616    0.0430   -0.1153 C   0  0  0  0  0  0  0  0  0  0  0  0
    1.3177    0.1989    1.3061 O   0  0  0  0  0  0  0  0  0  0  0  0
    2.8977    0.4257   -0.5053 C   0  0  0  0  0  0  0  0  0  0  0  0
    3.8011   -0.6455   -0.1886 O   0  0  0  0  0  0  0  0  0  0  0  0
    4.7875   -0.3618    0.7140 C   0  0  0  0  0  0  0  0  0  0  0  0
    6.0253   -0.9564    0.4672 C   0  0  0  0  0  0  0  0  0  0  0  0
    7.0962   -0.7541    1.3426 C   0  0  0  0  0  0  0  0  0  0  0  0
    6.9292    0.0228    2.4937 C   0  0  0  0  0  0  0  0  0  0  0  0
    8.0835    0.2614    3.4220 C   0  0  0  0  0  0  0  0  0  0  0  0
    5.6804    0.6057    2.7433 C   0  0  0  0  0  0  0  0  0  0  0  0
    4.6117    0.4048    1.8639 C   0  0  0  0  0  0  0  0  0  0  0  0
   -1.5916    0.2617   -2.1656 C   0  0  0  0  0  0  0  0  0  0  0  0
   -1.2748    0.6389   -3.4551 C   0  0  0  0  0  0  0  0  0  0  0  0
   -2.2535    0.4922   -4.4440 C   0  0  0  0  0  0  0  0  0  0  0  0
   -3.5229   -0.0237   -4.1328 C   0  0  0  0  0  0  0  0  0  0  0  0
   -3.8395   -0.4041   -2.8252 C   0  0  0  0  0  0  0  0  0  0  0  0
   -2.8692   -0.2568   -1.8544 C   0  0  0  0  0  0  0  0  0  0  0  0
   -7.4860   -0.2666   -0.1608 H   0  0  0  0  0  0  0  0  0  0  0  0
   -8.0668   -0.8791    1.3961 H   0  0  0  0  0  0  0  0  0  0  0  0
   -6.8323   -1.7766    0.5053 H   0  0  0  0  0  0  0  0  0  0  0  0
   -5.8012   -0.5258    2.3899 H   0  0  0  0  0  0  0  0  0  0  0  0
   -6.5498    0.9673    1.8343 H   0  0  0  0  0  0  0  0  0  0  0  0
   -4.2355    1.0146    1.1944 H   0  0  0  0  0  0  0  0  0  0  0  0
   -5.2045    0.8926   -0.2638 H   0  0  0  0  0  0  0  0  0  0  0  0
   -3.8393   -1.4879    1.1144 H   0  0  0  0  0  0  0  0  0  0  0  0
   -4.7103   -1.5733   -0.3940 H   0  0  0  0  0  0  0  0  0  0  0  0
   -2.1053   -0.4992    1.8645 H   0  0  0  0  0  0  0  0  0  0  0  0
    0.3021    1.8837   -0.2982 H   0  0  0  0  0  0  0  0  0  0  0  0
    0.8356    1.2006   -1.8329 H   0  0  0  0  0  0  0  0  0  0  0  0
    1.2916   -1.0157   -0.3458 H   0  0  0  0  0  0  0  0  0  0  0  0
    0.3645    0.0193    1.4964 H   0  0  0  0  0  0  0  0  0  0  0  0
    2.9657    0.5434   -1.5929 H   0  0  0  0  0  0  0  0  0  0  0  0
    3.1933    1.3846   -0.0640 H   0  0  0  0  0  0  0  0  0  0  0  0
    6.1583   -1.5779   -0.4138 H   0  0  0  0  0  0  0  0  0  0  0  0
    8.0564   -1.2161    1.1239 H   0  0  0  0  0  0  0  0  0  0  0  0
    7.7345    0.4618    4.4407 H   0  0  0  0  0  0  0  0  0  0  0  0
    8.6702    1.1180    3.0752 H   0  0  0  0  0  0  0  0  0  0  0  0
    8.7332   -0.6193    3.4697 H   0  0  0  0  0  0  0  0  0  0  0  0
    5.5230    1.2087    3.6344 H   0  0  0  0  0  0  0  0  0  0  0  0
    3.6437    0.8312    2.1110 H   0  0  0  0  0  0  0  0  0  0  0  0
   -0.3008    1.0331   -3.7178 H   0  0  0  0  0  0  0  0  0  0  0  0
   -2.0285    0.7783   -5.4690 H   0  0  0  0  0  0  0  0  0  0  0  0
   -4.2660   -0.1307   -4.9208 H   0  0  0  0  0  0  0  0  0  0  0  0
   -4.8201   -0.8029   -2.5983 H   0  0  0  0  0  0  0  0  0  0  0  0
  1  2  1  0
  2  3  1  0
  3  4  1  0
  4  5  1  0
  5  6  1  0
  6  7  2  3
  6  8  1  0
  8  9  1  0
  9 10  1  0
 10 11  1  0
 10 12  1  0
 12 13  1  0
 13 14  1  0
 14 15  2  0
 15 16  1  0
 16 17  2  0
 17 18  1  0
 17 19  1  0
 19 20  2  0
  8 21  1  0
 21 22  2  0
 22 23  1  0
 23 24  2  0
 24 25  1  0
 25 26  2  0
 26  5  1  0
 20 14  1  0
 26 21  1  0
  1 27  1  0
  1 28  1  0
  1 29  1  0
  2 30  1  0
  2 31  1  0
  3 32  1  0
  3 33  1  0
  4 34  1  0
  4 35  1  0
  7 36  1  0
  9 37  1  0
  9 38  1  0
 10 39  1  0
 11 40  1  0
 12 41  1  0
 12 42  1  0
 15 43  1  0
 16 44  1  0
 18 45  1  0
 18 46  1  0
 18 47  1  0
 19 48  1  0
 20 49  1  0
 22 50  1  0
 23 51  1  0
 24 52  1  0
 25 53  1  0
M  END
$$$$
