
     RDKit          3D

 43 45  0  0  0  0  0  0  0  0999 V2000
    6.8639    1.4924   -0.1980 C   0  0  0  0  0  0  0  0  0  0  0  0
    5.5337    1.4421   -0.6955 O   0  0  0  0  0  0  0  0  0  0  0  0
    4.7173    0.4640   -0.1928 C   0  0  0  0  0  0  0  0  0  0  0  0
    5.0787   -0.4926    0.7540 C   0  0  0  0  0  0  0  0  0  0  0  0
    4.1609   -1.4521    1.2011 C   0  0  0  0  0  0  0  0  0  0  0  0
    2.8688   -1.4206    0.6657 C   0  0  0  0  0  0  0  0  0  0  0  0
    1.7861   -2.2258    0.9225 N   0  0  0  0  0  0  0  0  0  0  0  0
    0.7161   -1.8346    0.1646 C   0  0  0  0  0  0  0  0  0  0  0  0
    1.0911   -0.7451   -0.6038 C   0  0  0  0  0  0  0  0  0  0  0  0
    0.2378   -0.0145   -1.5504 C   0  0  0  0  0  0  0  0  0  0  0  0
    0.6453    0.9932   -2.1353 O   0  0  0  0  0  0  0  0  0  0  0  0
   -1.1837   -0.5207   -1.8241 C   0  0  0  0  0  0  0  0  0  0  0  0
   -2.1017   -0.2471   -0.6972 N   0  0  0  0  0  0  0  0  0  0  0  0
   -3.4103   -0.8592   -0.9219 C   0  0  0  0  0  0  0  0  0  0  0  0
   -4.2532   -0.8063    0.3595 C   0  0  0  0  0  0  0  0  0  0  0  0
   -4.0216    0.4710    1.1863 C   0  0  0  0  0  0  0  0  0  0  0  0
   -5.2821    0.8763    1.9446 C   0  0  0  0  0  0  0  0  0  0  0  0
   -3.5209    1.5978    0.2825 C   0  0  0  0  0  0  0  0  0  0  0  0
   -2.2224    1.2011   -0.4379 C   0  0  0  0  0  0  0  0  0  0  0  0
    2.4667   -0.4805   -0.2834 C   0  0  0  0  0  0  0  0  0  0  0  0
    3.4154    0.4734   -0.7126 C   0  0  0  0  0  0  0  0  0  0  0  0
    7.4111    0.5754   -0.4402 H   0  0  0  0  0  0  0  0  0  0  0  0
    7.3746    2.3244   -0.6924 H   0  0  0  0  0  0  0  0  0  0  0  0
    6.8758    1.6881    0.8794 H   0  0  0  0  0  0  0  0  0  0  0  0
    6.0789   -0.5238    1.1738 H   0  0  0  0  0  0  0  0  0  0  0  0
    4.4511   -2.1921    1.9400 H   0  0  0  0  0  0  0  0  0  0  0  0
    1.7848   -2.9914    1.5825 H   0  0  0  0  0  0  0  0  0  0  0  0
   -0.2290   -2.3550    0.2513 H   0  0  0  0  0  0  0  0  0  0  0  0
   -1.5462   -0.0538   -2.7491 H   0  0  0  0  0  0  0  0  0  0  0  0
   -1.1199   -1.5979   -2.0219 H   0  0  0  0  0  0  0  0  0  0  0  0
   -3.9383   -0.3585   -1.7442 H   0  0  0  0  0  0  0  0  0  0  0  0
   -3.3046   -1.9125   -1.2100 H   0  0  0  0  0  0  0  0  0  0  0  0
   -5.3093   -0.9054    0.0795 H   0  0  0  0  0  0  0  0  0  0  0  0
   -4.0194   -1.6733    0.9909 H   0  0  0  0  0  0  0  0  0  0  0  0
   -3.2409    0.2604    1.9303 H   0  0  0  0  0  0  0  0  0  0  0  0
   -6.0990    1.1219    1.2576 H   0  0  0  0  0  0  0  0  0  0  0  0
   -5.0923    1.7545    2.5706 H   0  0  0  0  0  0  0  0  0  0  0  0
   -5.6193    0.0644    2.5976 H   0  0  0  0  0  0  0  0  0  0  0  0
   -4.2910    1.8368   -0.4630 H   0  0  0  0  0  0  0  0  0  0  0  0
   -3.3493    2.5118    0.8633 H   0  0  0  0  0  0  0  0  0  0  0  0
   -1.3719    1.5084    0.1825 H   0  0  0  0  0  0  0  0  0  0  0  0
   -2.1691    1.7826   -1.3675 H   0  0  0  0  0  0  0  0  0  0  0  0
    3.1371    1.2226   -1.4501 H   0  0  0  0  0  0  0  0  0  0  0  0
  1  2  1  0
  2  3  1  0
  3  4  2  0
  4  5  1  0
  5  6  2  0
  6  7  1  0
  7  8  1  0
  8  9  2  0
  9 10  1  0
 10 11  2  0
 10 12  1  0
 12 13  1  0
 13 14  1  0
 14 15  1  0
 15 16  1  0
 16 17  1  0
 16 18  1  0
 18 19  1  0
  9 20  1  0
 20 21  2  0
 21  3  1  0
 20  6  1  0
 19 13  1  0
  1 22  1  0
  1 23  1  0
  1 24  1  0
  4 25  1  0
  5 26  1  0
  7 27  1  0
  8 28  1  0
 12 29  1  0
 12 30  1  0
 14 31  1  0
 14 32  1  0
 15 33  1  0
 15 34  1  0
 16 35  1  0
 17 36  1  0
 17 37  1  0
 17 38  1  0
 18 39  1  0
 18 40  1  0
 19 41  1  0
 19 42  1  0
 21 43  1  0
M  END
$$$$
