
     RDKit          3D

 39 41  0  0  0  0  0  0  0  0999 V2000
   -3.4422    2.6842    0.1322 F   0  0  0  0  0  0  0  0  0  0  0  0
   -3.9892    1.5181   -0.2415 C   0  0  0  0  0  0  0  0  0  0  0  0
   -5.1200    1.5427   -1.0541 C   0  0  0  0  0  0  0  0  0  0  0  0
   -5.7114    0.3452   -1.4520 C   0  0  0  0  0  0  0  0  0  0  0  0
   -5.1690   -0.8689   -1.0315 C   0  0  0  0  0  0  0  0  0  0  0  0
   -4.0347   -0.8861   -0.2156 C   0  0  0  0  0  0  0  0  0  0  0  0
   -3.4226    0.3128    0.1822 C   0  0  0  0  0  0  0  0  0  0  0  0
   -2.2138    0.3135    1.0889 C   0  0  0  0  0  0  0  0  0  0  0  0
   -1.1584   -0.6216    0.6610 N   0  0  0  0  0  0  0  0  0  0  0  0
   -0.4639   -0.1670   -0.5658 C   0  0  0  0  0  0  0  0  0  0  0  0
    0.8788    0.5711   -0.3484 C   0  0  0  0  0  0  0  0  0  0  0  0
    1.8161   -0.2450    0.4432 N   0  0  0  0  0  0  0  0  0  0  0  0
    3.1865   -0.1178    0.2984 C   0  0  0  0  0  0  0  0  0  0  0  0
    3.7686    1.0546   -0.2147 C   0  0  0  0  0  0  0  0  0  0  0  0
    5.1550    1.1953   -0.3612 C   0  0  0  0  0  0  0  0  0  0  0  0
    5.9959    0.1542    0.0071 C   0  0  0  0  0  0  0  0  0  0  0  0
    7.6982    0.3183   -0.1700 Cl  0  0  0  0  0  0  0  0  0  0  0  0
    5.4601   -1.0194    0.5195 C   0  0  0  0  0  0  0  0  0  0  0  0
    4.0719   -1.1468    0.6625 C   0  0  0  0  0  0  0  0  0  0  0  0
    1.2142   -1.2749    1.3055 C   0  0  0  0  0  0  0  0  0  0  0  0
   -0.1953   -0.8366    1.7646 C   0  0  0  0  0  0  0  0  0  0  0  0
   -5.5329    2.4956   -1.3692 H   0  0  0  0  0  0  0  0  0  0  0  0
   -6.5940    0.3571   -2.0861 H   0  0  0  0  0  0  0  0  0  0  0  0
   -5.6288   -1.8055   -1.3377 H   0  0  0  0  0  0  0  0  0  0  0  0
   -3.6203   -1.8396    0.1069 H   0  0  0  0  0  0  0  0  0  0  0  0
   -2.5812    0.0249    2.0833 H   0  0  0  0  0  0  0  0  0  0  0  0
   -1.8010    1.3255    1.1894 H   0  0  0  0  0  0  0  0  0  0  0  0
   -1.1127    0.4492   -1.1991 H   0  0  0  0  0  0  0  0  0  0  0  0
   -0.2565   -1.0688   -1.1575 H   0  0  0  0  0  0  0  0  0  0  0  0
    1.2931    0.7881   -1.3404 H   0  0  0  0  0  0  0  0  0  0  0  0
    0.7024    1.5242    0.1644 H   0  0  0  0  0  0  0  0  0  0  0  0
    3.1475    1.9022   -0.4918 H   0  0  0  0  0  0  0  0  0  0  0  0
    5.5621    2.1212   -0.7572 H   0  0  0  0  0  0  0  0  0  0  0  0
    6.1074   -1.8429    0.8073 H   0  0  0  0  0  0  0  0  0  0  0  0
    3.6944   -2.0900    1.0477 H   0  0  0  0  0  0  0  0  0  0  0  0
    1.1587   -2.2281    0.7657 H   0  0  0  0  0  0  0  0  0  0  0  0
    1.8181   -1.4269    2.2082 H   0  0  0  0  0  0  0  0  0  0  0  0
   -0.0768    0.0854    2.3514 H   0  0  0  0  0  0  0  0  0  0  0  0
   -0.6043   -1.5974    2.4395 H   0  0  0  0  0  0  0  0  0  0  0  0
  1  2  1  0
  2  3  2  0
  3  4  1  0
  4  5  2  0
  5  6  1  0
  6  7  2  0
  7  8  1  0
  8  9  1  0
  9 10  1  0
 10 11  1  0
 11 12  1  0
 12 13  1  0
 13 14  2  0
 14 15  1  0
 15 16  2  0
 16 17  1  0
 16 18  1  0
 18 19  2  0
 12 20  1  0
 20 21  1  0
  7  2  1  0
 21  9  1  0
 19 13  1  0
  3 22  1  0
  4 23  1  0
  5 24  1  0
  6 25  1  0
  8 26  1  0
  8 27  1  0
 10 28  1  0
 10 29  1  0
 11 30  1  0
 11 31  1  0
 14 32  1  0
 15 33  1  0
 18 34  1  0
 19 35  1  0
 20 36  1  0
 20 37  1  0
 21 38  1  0
 21 39  1  0
M  END
$$$$
