
     RDKit          3D

 52 55  0  0  0  0  0  0  0  0999 V2000
    6.8729    2.9675   -1.1223 C   0  0  0  0  0  0  0  0  0  0  0  0
    6.5956    1.4736   -1.0523 C   0  0  0  0  0  0  0  0  0  0  0  0
    5.1177    1.1799   -0.9971 C   0  0  0  0  0  0  0  0  0  0  0  0
    4.4552    1.1042    0.2338 C   0  0  0  0  0  0  0  0  0  0  0  0
    3.0829    0.8476    0.2843 C   0  0  0  0  0  0  0  0  0  0  0  0
    2.3537    0.6666   -0.8962 C   0  0  0  0  0  0  0  0  0  0  0  0
    0.9000    0.3947   -0.8071 C   0  0  0  0  0  0  0  0  0  0  0  0
    0.2420    0.4069    0.3127 N   0  0  0  0  0  0  0  0  0  0  0  0
   -1.0555    0.0922    0.0237 N   0  0  0  0  0  0  0  0  0  0  0  0
   -2.0432    0.1686    1.0036 C   0  0  0  0  0  0  0  0  0  0  0  0
   -1.7144    0.5201    2.3272 C   0  0  0  0  0  0  0  0  0  0  0  0
   -2.6798    0.6077    3.3357 C   0  0  0  0  0  0  0  0  0  0  0  0
   -4.0121    0.3508    3.0254 C   0  0  0  0  0  0  0  0  0  0  0  0
   -5.2502    0.4634    4.2867 S   0  0  0  0  0  6  0  0  0  0  0  0
   -5.7049    2.0817    4.1617 N   0  0  0  0  0  0  0  0  0  0  0  0
   -6.3817   -0.3441    3.8978 O   0  0  0  0  0  0  0  0  0  0  0  0
   -4.6101    0.3378    5.5759 O   0  0  0  0  0  0  0  0  0  0  0  0
   -4.3767   -0.0136    1.7307 C   0  0  0  0  0  0  0  0  0  0  0  0
   -3.3962   -0.0987    0.7342 C   0  0  0  0  0  0  0  0  0  0  0  0
   -1.2539   -0.2882   -1.3765 C   0  0  0  0  0  0  0  0  0  0  0  0
   -1.5252   -1.7752   -1.5680 C   0  0  0  0  0  0  0  0  0  0  0  0
   -2.3594   -2.1944   -2.6207 C   0  0  0  0  0  0  0  0  0  0  0  0
   -2.6059   -3.5521   -2.8338 C   0  0  0  0  0  0  0  0  0  0  0  0
   -2.0170   -4.4959   -2.0018 C   0  0  0  0  0  0  0  0  0  0  0  0
   -2.2541   -5.7975   -2.2103 F   0  0  0  0  0  0  0  0  0  0  0  0
   -1.1841   -4.1091   -0.9606 C   0  0  0  0  0  0  0  0  0  0  0  0
   -0.9351   -2.7526   -0.7458 C   0  0  0  0  0  0  0  0  0  0  0  0
    0.0696    0.1150   -2.0295 C   0  0  0  0  0  0  0  0  0  0  0  0
    3.0086    0.7497   -2.1287 C   0  0  0  0  0  0  0  0  0  0  0  0
    4.3825    1.0068   -2.1767 C   0  0  0  0  0  0  0  0  0  0  0  0
    6.4203    3.4143   -2.0140 H   0  0  0  0  0  0  0  0  0  0  0  0
    7.9513    3.1507   -1.1614 H   0  0  0  0  0  0  0  0  0  0  0  0
    6.4719    3.4876   -0.2458 H   0  0  0  0  0  0  0  0  0  0  0  0
    7.0387    0.9731   -1.9219 H   0  0  0  0  0  0  0  0  0  0  0  0
    7.0900    1.0455   -0.1718 H   0  0  0  0  0  0  0  0  0  0  0  0
    5.0027    1.2449    1.1635 H   0  0  0  0  0  0  0  0  0  0  0  0
    2.5887    0.7900    1.2521 H   0  0  0  0  0  0  0  0  0  0  0  0
   -0.6759    0.7236    2.5837 H   0  0  0  0  0  0  0  0  0  0  0  0
   -2.3764    0.8698    4.3463 H   0  0  0  0  0  0  0  0  0  0  0  0
   -5.4526    2.5589    5.0288 H   0  0  0  0  0  0  0  0  0  0  0  0
   -5.3078    2.5446    3.3448 H   0  0  0  0  0  0  0  0  0  0  0  0
   -5.4130   -0.2385    1.4861 H   0  0  0  0  0  0  0  0  0  0  0  0
   -3.7182   -0.3902   -0.2613 H   0  0  0  0  0  0  0  0  0  0  0  0
   -2.0691    0.2986   -1.8186 H   0  0  0  0  0  0  0  0  0  0  0  0
   -2.8254   -1.4662   -3.2815 H   0  0  0  0  0  0  0  0  0  0  0  0
   -3.2523   -3.8803   -3.6416 H   0  0  0  0  0  0  0  0  0  0  0  0
   -0.7355   -4.8619   -0.3203 H   0  0  0  0  0  0  0  0  0  0  0  0
   -0.2838   -2.4595    0.0770 H   0  0  0  0  0  0  0  0  0  0  0  0
    0.5125   -0.6597   -2.6613 H   0  0  0  0  0  0  0  0  0  0  0  0
   -0.0409    1.0446   -2.5981 H   0  0  0  0  0  0  0  0  0  0  0  0
    2.4757    0.6238   -3.0660 H   0  0  0  0  0  0  0  0  0  0  0  0
    4.8779    1.0729   -3.1435 H   0  0  0  0  0  0  0  0  0  0  0  0
  1  2  1  0
  2  3  1  0
  3  4  2  0
  4  5  1  0
  5  6  2  0
  6  7  1  0
  7  8  2  0
  8  9  1  0
  9 10  1  0
 10 11  2  0
 11 12  1  0
 12 13  2  0
 13 14  1  0
 14 15  1  0
 14 16  2  0
 14 17  2  0
 13 18  1  0
 18 19  2  0
  9 20  1  0
 20 21  1  0
 21 22  2  0
 22 23  1  0
 23 24  2  0
 24 25  1  0
 24 26  1  0
 26 27  2  0
 20 28  1  0
  6 29  1  0
 29 30  2  0
 30  3  1  0
 28  7  1  0
 19 10  1  0
 27 21  1  0
  1 31  1  0
  1 32  1  0
  1 33  1  0
  2 34  1  0
  2 35  1  0
  4 36  1  0
  5 37  1  0
 11 38  1  0
 12 39  1  0
 15 40  1  0
 15 41  1  0
 18 42  1  0
 19 43  1  0
 20 44  1  0
 22 45  1  0
 23 46  1  0
 26 47  1  0
 27 48  1  0
 28 49  1  0
 28 50  1  0
 29 51  1  0
 30 52  1  0
M  END
$$$$
