
     RDKit          3D

 51 53  0  0  0  0  0  0  0  0999 V2000
   -5.0380   -3.3441    2.6535 C   0  0  0  0  0  0  0  0  0  0  0  0
   -4.1431   -2.6989    1.7567 O   0  0  0  0  0  0  0  0  0  0  0  0
   -4.7616   -1.5991    1.0933 C   0  0  0  0  0  0  0  0  0  0  0  0
   -3.7904   -1.0390    0.0593 C   0  0  0  0  0  0  0  0  0  0  0  0
   -2.4814   -0.5754    0.6967 C   0  0  0  0  0  0  0  0  0  0  0  0
   -1.5595   -0.0371   -0.2848 N   0  0  0  0  0  0  0  0  0  0  0  0
   -0.5396   -0.7229   -0.9062 C   0  0  0  0  0  0  0  0  0  0  0  0
   -0.0631   -2.3373   -0.5092 S   0  0  0  0  0  0  0  0  0  0  0  0
    1.1184   -2.6976   -1.8395 C   0  0  0  0  0  0  0  0  0  0  0  0
    2.3619   -1.8363   -1.8441 C   0  0  0  0  0  0  0  0  0  0  0  0
    2.9844   -1.5848   -2.8739 O   0  0  0  0  0  0  0  0  0  0  0  0
    2.7596   -1.4732   -0.5931 O   0  0  0  0  0  0  0  0  0  0  0  0
    3.8960   -0.5968   -0.5184 C   0  0  0  0  0  0  0  0  0  0  0  0
    4.5479   -0.8015    0.8492 C   0  0  0  0  0  0  0  0  0  0  0  0
    5.7017    0.1719    1.0715 C   0  0  0  0  0  0  0  0  0  0  0  0
    5.2555    1.6210    0.8907 C   0  0  0  0  0  0  0  0  0  0  0  0
    4.5769    1.8379   -0.4590 C   0  0  0  0  0  0  0  0  0  0  0  0
    3.4350    0.8546   -0.6830 C   0  0  0  0  0  0  0  0  0  0  0  0
   -0.0108    0.0144   -1.8500 N   0  0  0  0  0  0  0  0  0  0  0  0
   -0.6665    1.2114   -1.8594 N   0  0  0  0  0  0  0  0  0  0  0  0
   -1.5865    1.2000   -0.9004 C   0  0  0  0  0  0  0  0  0  0  0  0
   -2.4559    2.3263   -0.6850 C   0  0  0  0  0  0  0  0  0  0  0  0
   -2.7824    3.2614   -1.6546 C   0  0  0  0  0  0  0  0  0  0  0  0
   -3.6242    4.3010   -1.1664 C   0  0  0  0  0  0  0  0  0  0  0  0
   -3.9121    4.1390    0.1694 C   0  0  0  0  0  0  0  0  0  0  0  0
   -3.1555    2.7523    0.8184 S   0  0  0  0  0  0  0  0  0  0  0  0
   -5.4102   -2.6367    3.4061 H   0  0  0  0  0  0  0  0  0  0  0  0
   -4.4925   -4.1457    3.1609 H   0  0  0  0  0  0  0  0  0  0  0  0
   -5.8778   -3.7847    2.1008 H   0  0  0  0  0  0  0  0  0  0  0  0
   -5.0250   -0.8258    1.8304 H   0  0  0  0  0  0  0  0  0  0  0  0
   -5.6781   -1.9362    0.5902 H   0  0  0  0  0  0  0  0  0  0  0  0
   -3.5694   -1.8171   -0.6835 H   0  0  0  0  0  0  0  0  0  0  0  0
   -4.2710   -0.2125   -0.4747 H   0  0  0  0  0  0  0  0  0  0  0  0
   -2.6508    0.1777    1.4683 H   0  0  0  0  0  0  0  0  0  0  0  0
   -1.9892   -1.4029    1.2169 H   0  0  0  0  0  0  0  0  0  0  0  0
    0.6095   -2.5810   -2.8026 H   0  0  0  0  0  0  0  0  0  0  0  0
    1.4358   -3.7408   -1.7445 H   0  0  0  0  0  0  0  0  0  0  0  0
    4.6312   -0.8532   -1.2902 H   0  0  0  0  0  0  0  0  0  0  0  0
    4.9037   -1.8356    0.9363 H   0  0  0  0  0  0  0  0  0  0  0  0
    3.7983   -0.6771    1.6427 H   0  0  0  0  0  0  0  0  0  0  0  0
    6.5090   -0.0528    0.3648 H   0  0  0  0  0  0  0  0  0  0  0  0
    6.1104    0.0358    2.0776 H   0  0  0  0  0  0  0  0  0  0  0  0
    4.5578    1.8908    1.6958 H   0  0  0  0  0  0  0  0  0  0  0  0
    6.1219    2.2890    0.9804 H   0  0  0  0  0  0  0  0  0  0  0  0
    4.1967    2.8643   -0.5176 H   0  0  0  0  0  0  0  0  0  0  0  0
    5.3156    1.7231   -1.2609 H   0  0  0  0  0  0  0  0  0  0  0  0
    3.0105    1.0037   -1.6796 H   0  0  0  0  0  0  0  0  0  0  0  0
    2.6193    1.0627    0.0178 H   0  0  0  0  0  0  0  0  0  0  0  0
   -2.4178    3.2018   -2.6760 H   0  0  0  0  0  0  0  0  0  0  0  0
   -3.9889    5.1275   -1.7643 H   0  0  0  0  0  0  0  0  0  0  0  0
   -4.5159    4.7784    0.8030 H   0  0  0  0  0  0  0  0  0  0  0  0
  1  2  1  0
  2  3  1  0
  3  4  1  0
  4  5  1  0
  5  6  1  0
  6  7  1  0
  7  8  1  0
  8  9  1  0
  9 10  1  0
 10 11  2  0
 10 12  1  0
 12 13  1  0
 13 14  1  0
 14 15  1  0
 15 16  1  0
 16 17  1  0
 17 18  1  0
  7 19  2  0
 19 20  1  0
 20 21  2  0
 21 22  1  0
 22 23  2  0
 23 24  1  0
 24 25  2  0
 25 26  1  0
 21  6  1  0
 26 22  1  0
 18 13  1  0
  1 27  1  0
  1 28  1  0
  1 29  1  0
  3 30  1  0
  3 31  1  0
  4 32  1  0
  4 33  1  0
  5 34  1  0
  5 35  1  0
  9 36  1  0
  9 37  1  0
 13 38  1  0
 14 39  1  0
 14 40  1  0
 15 41  1  0
 15 42  1  0
 16 43  1  0
 16 44  1  0
 17 45  1  0
 17 46  1  0
 18 47  1  0
 18 48  1  0
 23 49  1  0
 24 50  1  0
 25 51  1  0
M  END
$$$$
