
     RDKit          3D

 46 48  0  0  0  0  0  0  0  0999 V2000
   -1.2047   -1.2387   -3.6829 N   0  0  0  0  0  0  0  0  0  0  0  0
   -0.2925   -1.3584   -2.7014 C   0  0  0  0  0  0  0  0  0  0  0  0
    0.8190   -2.0164   -2.8611 N   0  0  0  0  0  0  0  0  0  0  0  0
    1.4730   -1.9254   -1.5239 C   0  0  0  0  0  0  0  0  0  0  0  0
    0.7380   -0.8046   -0.7532 C   0  0  0  0  0  0  0  0  0  0  0  0
    1.5077    0.5290   -0.8169 C   0  0  0  0  0  0  0  0  0  0  0  0
    2.7418    0.5468    0.0574 C   0  0  0  0  0  0  0  0  0  0  0  0
    2.6233    0.6009    1.4548 C   0  0  0  0  0  0  0  0  0  0  0  0
    3.7617    0.6126    2.2641 C   0  0  0  0  0  0  0  0  0  0  0  0
    5.0205    0.5722    1.6744 C   0  0  0  0  0  0  0  0  0  0  0  0
    6.1581    0.5815    2.4258 O   0  0  0  0  0  0  0  0  0  0  0  0
    5.1575    0.5224    0.2930 C   0  0  0  0  0  0  0  0  0  0  0  0
    4.0203    0.5116   -0.5159 C   0  0  0  0  0  0  0  0  0  0  0  0
   -0.5274   -0.7631   -1.4997 N   0  0  0  0  0  0  0  0  0  0  0  0
   -1.5152    0.2797   -1.2545 C   0  0  0  0  0  0  0  0  0  0  0  0
   -1.9480    0.3475    0.2231 C   0  0  0  0  0  0  0  0  0  0  0  0
   -2.6528   -0.9465    0.6664 C   0  0  0  0  0  0  0  0  0  0  0  0
   -3.1444   -0.8569    2.1095 C   0  0  0  0  0  0  0  0  0  0  0  0
   -4.0442    0.3552    2.3247 C   0  0  0  0  0  0  0  0  0  0  0  0
   -3.3591    1.6452    1.8866 C   0  0  0  0  0  0  0  0  0  0  0  0
   -2.8692    1.5596    0.4432 C   0  0  0  0  0  0  0  0  0  0  0  0
   -2.1401   -1.4611   -3.3703 H   0  0  0  0  0  0  0  0  0  0  0  0
   -0.9442   -1.8376   -4.4603 H   0  0  0  0  0  0  0  0  0  0  0  0
    1.3463   -2.8883   -1.0148 H   0  0  0  0  0  0  0  0  0  0  0  0
    2.5442   -1.7441   -1.6433 H   0  0  0  0  0  0  0  0  0  0  0  0
    0.5702   -1.1167    0.2835 H   0  0  0  0  0  0  0  0  0  0  0  0
    1.7743    0.7679   -1.8550 H   0  0  0  0  0  0  0  0  0  0  0  0
    0.8718    1.3586   -0.4846 H   0  0  0  0  0  0  0  0  0  0  0  0
    1.6418    0.6392    1.9225 H   0  0  0  0  0  0  0  0  0  0  0  0
    3.6469    0.6552    3.3424 H   0  0  0  0  0  0  0  0  0  0  0  0
    5.9098    0.6203    3.3635 H   0  0  0  0  0  0  0  0  0  0  0  0
    6.1469    0.4924   -0.1546 H   0  0  0  0  0  0  0  0  0  0  0  0
    4.1412    0.4717   -1.5967 H   0  0  0  0  0  0  0  0  0  0  0  0
   -1.1150    1.2469   -1.5807 H   0  0  0  0  0  0  0  0  0  0  0  0
   -2.4124    0.1037   -1.8602 H   0  0  0  0  0  0  0  0  0  0  0  0
   -1.0626    0.4887    0.8559 H   0  0  0  0  0  0  0  0  0  0  0  0
   -3.5061   -1.1502    0.0068 H   0  0  0  0  0  0  0  0  0  0  0  0
   -1.9729   -1.8015    0.5778 H   0  0  0  0  0  0  0  0  0  0  0  0
   -3.6900   -1.7710    2.3697 H   0  0  0  0  0  0  0  0  0  0  0  0
   -2.2820   -0.7966    2.7848 H   0  0  0  0  0  0  0  0  0  0  0  0
   -4.9741    0.2249    1.7575 H   0  0  0  0  0  0  0  0  0  0  0  0
   -4.3222    0.4256    3.3823 H   0  0  0  0  0  0  0  0  0  0  0  0
   -2.5090    1.8508    2.5488 H   0  0  0  0  0  0  0  0  0  0  0  0
   -4.0549    2.4854    1.9902 H   0  0  0  0  0  0  0  0  0  0  0  0
   -3.7350    1.4976   -0.2285 H   0  0  0  0  0  0  0  0  0  0  0  0
   -2.3359    2.4838    0.1898 H   0  0  0  0  0  0  0  0  0  0  0  0
  1  2  1  0
  2  3  2  0
  3  4  1  0
  4  5  1  0
  5  6  1  0
  6  7  1  0
  7  8  2  0
  8  9  1  0
  9 10  2  0
 10 11  1  0
 10 12  1  0
 12 13  2  0
  5 14  1  0
 14 15  1  0
 15 16  1  0
 16 17  1  0
 17 18  1  0
 18 19  1  0
 19 20  1  0
 20 21  1  0
 14  2  1  0
 21 16  1  0
 13  7  1  0
  1 22  1  0
  1 23  1  0
  4 24  1  0
  4 25  1  0
  5 26  1  0
  6 27  1  0
  6 28  1  0
  8 29  1  0
  9 30  1  0
 11 31  1  0
 12 32  1  0
 13 33  1  0
 15 34  1  0
 15 35  1  0
 16 36  1  0
 17 37  1  0
 17 38  1  0
 18 39  1  0
 18 40  1  0
 19 41  1  0
 19 42  1  0
 20 43  1  0
 20 44  1  0
 21 45  1  0
 21 46  1  0
M  END
$$$$
