
     RDKit          3D

 43 45  0  0  0  0  0  0  0  0999 V2000
   -3.2683   -1.3832   -2.4301 C   0  0  0  0  0  0  0  0  0  0  0  0
   -2.9377   -2.4674   -1.4074 C   0  0  0  0  0  0  0  0  0  0  0  0
   -3.7545   -3.7277   -1.6893 C   0  0  0  0  0  0  0  0  0  0  0  0
   -1.1576   -2.9109   -1.4894 S   0  0  0  0  0  0  0  0  0  0  0  0
   -0.3917   -1.5410   -0.6312 C   0  0  0  0  0  0  0  0  0  0  0  0
    0.9836   -1.4484   -0.6457 C   0  0  0  0  0  0  0  0  0  0  0  0
    1.5603   -0.3875    0.0228 C   0  0  0  0  0  0  0  0  0  0  0  0
    2.9408   -0.2318    0.0690 N   0  0  0  0  0  0  0  0  0  0  0  0
    3.4554    0.8458    0.9308 C   0  0  0  0  0  0  0  0  0  0  0  0
    4.9914    0.8055    0.9333 C   0  0  0  0  0  0  0  0  0  0  0  0
    5.5817    0.9861   -0.3639 O   0  0  0  0  0  0  0  0  0  0  0  0
    4.6967    0.6555   -1.4423 C   0  0  0  0  0  0  0  0  0  0  0  0
    3.7497   -0.5164   -1.1302 C   0  0  0  0  0  0  0  0  0  0  0  0
    0.7905    0.4920    0.6851 N   0  0  0  0  0  0  0  0  0  0  0  0
   -0.5450    0.3296    0.6542 C   0  0  0  0  0  0  0  0  0  0  0  0
   -1.3758    1.3168    1.3760 C   0  0  0  0  0  0  0  0  0  0  0  0
   -2.7825    1.2228    1.3944 C   0  0  0  0  0  0  0  0  0  0  0  0
   -3.5716    2.1570    2.0762 C   0  0  0  0  0  0  0  0  0  0  0  0
   -2.9656    3.2082    2.7558 C   0  0  0  0  0  0  0  0  0  0  0  0
   -3.9318    4.3577    3.5940 Cl  0  0  0  0  0  0  0  0  0  0  0  0
   -1.5805    3.3322    2.7593 C   0  0  0  0  0  0  0  0  0  0  0  0
   -0.7967    2.3949    2.0758 C   0  0  0  0  0  0  0  0  0  0  0  0
   -1.1733   -0.6631    0.0090 N   0  0  0  0  0  0  0  0  0  0  0  0
   -4.3343   -1.1333   -2.3860 H   0  0  0  0  0  0  0  0  0  0  0  0
   -3.0502   -1.7100   -3.4533 H   0  0  0  0  0  0  0  0  0  0  0  0
   -2.7133   -0.4586   -2.2426 H   0  0  0  0  0  0  0  0  0  0  0  0
   -3.1895   -2.1242   -0.3985 H   0  0  0  0  0  0  0  0  0  0  0  0
   -3.5558   -4.1307   -2.6890 H   0  0  0  0  0  0  0  0  0  0  0  0
   -4.8264   -3.5070   -1.6313 H   0  0  0  0  0  0  0  0  0  0  0  0
   -3.5447   -4.5118   -0.9531 H   0  0  0  0  0  0  0  0  0  0  0  0
    1.5841   -2.1976   -1.1439 H   0  0  0  0  0  0  0  0  0  0  0  0
    3.0981    0.7180    1.9596 H   0  0  0  0  0  0  0  0  0  0  0  0
    3.1170    1.8207    0.5573 H   0  0  0  0  0  0  0  0  0  0  0  0
    5.3448   -0.1570    1.3215 H   0  0  0  0  0  0  0  0  0  0  0  0
    5.3893    1.5883    1.5868 H   0  0  0  0  0  0  0  0  0  0  0  0
    5.3160    0.4143   -2.3122 H   0  0  0  0  0  0  0  0  0  0  0  0
    4.1220    1.5550   -1.6932 H   0  0  0  0  0  0  0  0  0  0  0  0
    3.1344   -0.6998   -2.0183 H   0  0  0  0  0  0  0  0  0  0  0  0
    4.3389   -1.4189   -0.9309 H   0  0  0  0  0  0  0  0  0  0  0  0
   -3.2803    0.4081    0.8701 H   0  0  0  0  0  0  0  0  0  0  0  0
   -4.6534    2.0540    2.0699 H   0  0  0  0  0  0  0  0  0  0  0  0
   -1.1005    4.1510    3.2885 H   0  0  0  0  0  0  0  0  0  0  0  0
    0.2862    2.5126    2.0927 H   0  0  0  0  0  0  0  0  0  0  0  0
  1  2  1  0
  2  3  1  0
  2  4  1  0
  4  5  1  0
  5  6  2  0
  6  7  1  0
  7  8  1  0
  8  9  1  0
  9 10  1  0
 10 11  1  0
 11 12  1  0
 12 13  1  0
  7 14  2  0
 14 15  1  0
 15 16  1  0
 16 17  2  0
 17 18  1  0
 18 19  2  0
 19 20  1  0
 19 21  1  0
 21 22  2  0
 15 23  2  0
 23  5  1  0
 13  8  1  0
 22 16  1  0
  1 24  1  0
  1 25  1  0
  1 26  1  0
  2 27  1  0
  3 28  1  0
  3 29  1  0
  3 30  1  0
  6 31  1  0
  9 32  1  0
  9 33  1  0
 10 34  1  0
 10 35  1  0
 12 36  1  0
 12 37  1  0
 13 38  1  0
 13 39  1  0
 17 40  1  0
 18 41  1  0
 21 42  1  0
 22 43  1  0
M  END
$$$$
