
     RDKit          3D

 42 43  0  0  0  0  0  0  0  0999 V2000
   -7.5347    3.1505   -1.0989 C   0  0  0  0  0  0  0  0  0  0  0  0
   -6.1571    2.8281   -0.6017 C   0  0  0  0  0  0  0  0  0  0  0  0
   -5.5431    3.6135    0.3774 C   0  0  0  0  0  0  0  0  0  0  0  0
   -4.2634    3.2926    0.8363 C   0  0  0  0  0  0  0  0  0  0  0  0
   -3.5801    2.1843    0.3306 C   0  0  0  0  0  0  0  0  0  0  0  0
   -2.3379    1.9889    0.8655 O   0  0  0  0  0  0  0  0  0  0  0  0
   -1.6017    0.8681    0.4018 C   0  0  0  0  0  0  0  0  0  0  0  0
   -0.2303    0.7978    1.0714 C   0  0  0  0  0  0  0  0  0  0  0  0
    0.2160    1.6269    1.8642 O   0  0  0  0  0  0  0  0  0  0  0  0
    0.5064   -0.3170    0.6888 N   0  0  0  0  0  0  0  0  0  0  0  0
    1.6652   -0.5866    1.4512 N   0  0  0  0  0  0  0  0  0  0  0  0
    1.7756   -1.8645    1.9737 C   0  0  0  0  0  0  0  0  0  0  0  0
    1.0339   -2.7772    1.6066 O   0  0  0  0  0  0  0  0  0  0  0  0
    2.8619   -2.0229    3.0227 C   0  0  0  0  0  0  0  0  0  0  0  0
    4.0152   -3.3561    2.5879 S   0  0  0  0  0  0  0  0  0  0  0  0
    4.6547   -2.7161    1.0637 C   0  0  0  0  0  0  0  0  0  0  0  0
    4.7387   -1.3841    0.9111 N   0  0  0  0  0  0  0  0  0  0  0  0
    5.2497   -0.9530   -0.2620 C   0  0  0  0  0  0  0  0  0  0  0  0
    5.6840   -1.7962   -1.2617 C   0  0  0  0  0  0  0  0  0  0  0  0
    6.2189   -1.2802   -2.4754 C   0  0  0  0  0  0  0  0  0  0  0  0
    6.6793   -0.8452   -3.4492 N   0  0  0  0  0  0  0  0  0  0  0  0
    5.5717   -3.1486   -0.9988 C   0  0  0  0  0  0  0  0  0  0  0  0
    5.9278   -4.1297   -1.9233 N   0  0  0  0  0  0  0  0  0  0  0  0
    5.0577   -3.6158    0.1512 N   0  0  0  0  0  0  0  0  0  0  0  0
   -4.1934    1.3909   -0.6388 C   0  0  0  0  0  0  0  0  0  0  0  0
   -5.4746    1.7122   -1.1020 C   0  0  0  0  0  0  0  0  0  0  0  0
   -8.2442    2.3878   -0.7619 H   0  0  0  0  0  0  0  0  0  0  0  0
   -7.8781    4.1221   -0.7282 H   0  0  0  0  0  0  0  0  0  0  0  0
   -7.5425    3.1917   -2.1938 H   0  0  0  0  0  0  0  0  0  0  0  0
   -6.0510    4.4822    0.7907 H   0  0  0  0  0  0  0  0  0  0  0  0
   -3.7940    3.9127    1.5976 H   0  0  0  0  0  0  0  0  0  0  0  0
   -1.4316    0.9442   -0.6783 H   0  0  0  0  0  0  0  0  0  0  0  0
   -2.1346   -0.0563    0.6472 H   0  0  0  0  0  0  0  0  0  0  0  0
    0.0229   -1.1551    0.3589 H   0  0  0  0  0  0  0  0  0  0  0  0
    2.0319    0.2170    1.9662 H   0  0  0  0  0  0  0  0  0  0  0  0
    2.3732   -2.2750    3.9698 H   0  0  0  0  0  0  0  0  0  0  0  0
    3.4068   -1.0879    3.1799 H   0  0  0  0  0  0  0  0  0  0  0  0
    5.2980    0.1288   -0.3679 H   0  0  0  0  0  0  0  0  0  0  0  0
    5.7825   -5.0434   -1.4960 H   0  0  0  0  0  0  0  0  0  0  0  0
    6.8690   -4.0318   -2.2902 H   0  0  0  0  0  0  0  0  0  0  0  0
   -3.7091    0.5172   -1.0608 H   0  0  0  0  0  0  0  0  0  0  0  0
   -5.9395    1.0853   -1.8611 H   0  0  0  0  0  0  0  0  0  0  0  0
  1  2  1  0
  2  3  2  0
  3  4  1  0
  4  5  2  0
  5  6  1  0
  6  7  1  0
  7  8  1  0
  8  9  2  0
  8 10  1  0
 10 11  1  0
 11 12  1  0
 12 13  2  0
 12 14  1  0
 14 15  1  0
 15 16  1  0
 16 17  2  0
 17 18  1  0
 18 19  2  0
 19 20  1  0
 20 21  3  0
 19 22  1  0
 22 23  1  0
 22 24  2  0
  5 25  1  0
 25 26  2  0
 26  2  1  0
 24 16  1  0
  1 27  1  0
  1 28  1  0
  1 29  1  0
  3 30  1  0
  4 31  1  0
  7 32  1  0
  7 33  1  0
 10 34  1  0
 11 35  1  0
 14 36  1  0
 14 37  1  0
 18 38  1  0
 23 39  1  0
 23 40  1  0
 25 41  1  0
 26 42  1  0
M  END
$$$$
