
     RDKit          3D

 49 51  0  0  0  0  0  0  0  0999 V2000
   -1.2200    0.9058    2.8789 O   0  0  0  0  0  0  0  0  0  0  0  0
   -0.8780    0.4027    1.8153 C   0  0  0  0  0  0  0  0  0  0  0  0
   -1.8761   -0.1654    0.8196 C   0  0  0  0  0  0  0  0  0  0  0  0
   -3.3193    0.0183    1.2983 C   0  0  0  0  0  0  0  0  0  0  0  0
   -4.3612   -0.4891    0.3945 N   0  0  0  0  0  0  0  0  0  0  0  0
   -4.4326   -1.9506    0.3392 C   0  0  0  0  0  0  0  0  0  0  0  0
   -5.4008   -2.4174   -0.7458 C   0  0  0  0  0  0  0  0  0  0  0  0
   -4.9552   -1.9564   -2.1337 C   0  0  0  0  0  0  0  0  0  0  0  0
   -4.0689   -0.7127   -2.0809 C   0  0  0  0  0  0  0  0  0  0  0  0
   -4.4315    0.1887   -0.9023 C   0  0  0  0  0  0  0  0  0  0  0  0
    0.4195    0.2763    1.3528 N   0  0  0  0  0  0  0  0  0  0  0  0
    1.6296    0.6177    2.0033 C   0  0  0  0  0  0  0  0  0  0  0  0
    1.6668    1.0771    3.3249 C   0  0  0  0  0  0  0  0  0  0  0  0
    2.8845    1.3617    3.9517 C   0  0  0  0  0  0  0  0  0  0  0  0
    4.0788    1.1806    3.2637 C   0  0  0  0  0  0  0  0  0  0  0  0
    5.7226    1.5443    4.1221 Br  0  0  0  0  0  0  0  0  0  0  0  0
    4.0725    0.7338    1.9455 C   0  0  0  0  0  0  0  0  0  0  0  0
    2.8512    0.4748    1.3021 C   0  0  0  0  0  0  0  0  0  0  0  0
    2.8548    0.0303   -0.1231 C   0  0  0  0  0  0  0  0  0  0  0  0
    1.9715   -0.7272   -0.5231 O   0  0  0  0  0  0  0  0  0  0  0  0
    3.8796    0.5007   -1.0872 C   0  0  0  0  0  0  0  0  0  0  0  0
    4.3530   -0.3987   -2.0490 C   0  0  0  0  0  0  0  0  0  0  0  0
    5.3082    0.0140   -2.9786 C   0  0  0  0  0  0  0  0  0  0  0  0
    5.7806    1.3263   -2.9570 C   0  0  0  0  0  0  0  0  0  0  0  0
    5.2922    2.2318   -2.0146 C   0  0  0  0  0  0  0  0  0  0  0  0
    4.3362    1.8243   -1.0823 C   0  0  0  0  0  0  0  0  0  0  0  0
   -1.7208    0.3423   -0.1389 H   0  0  0  0  0  0  0  0  0  0  0  0
   -1.6435   -1.2279    0.6885 H   0  0  0  0  0  0  0  0  0  0  0  0
   -3.4435   -0.4561    2.2810 H   0  0  0  0  0  0  0  0  0  0  0  0
   -3.5088    1.0853    1.4766 H   0  0  0  0  0  0  0  0  0  0  0  0
   -3.4509   -2.3971    0.1427 H   0  0  0  0  0  0  0  0  0  0  0  0
   -4.7739   -2.3325    1.3085 H   0  0  0  0  0  0  0  0  0  0  0  0
   -6.4027   -2.0208   -0.5348 H   0  0  0  0  0  0  0  0  0  0  0  0
   -5.4917   -3.5097   -0.7302 H   0  0  0  0  0  0  0  0  0  0  0  0
   -4.4078   -2.7611   -2.6389 H   0  0  0  0  0  0  0  0  0  0  0  0
   -5.8441   -1.7586   -2.7448 H   0  0  0  0  0  0  0  0  0  0  0  0
   -3.0181   -1.0179   -1.9968 H   0  0  0  0  0  0  0  0  0  0  0  0
   -4.1562   -0.1588   -3.0226 H   0  0  0  0  0  0  0  0  0  0  0  0
   -5.4632    0.5382   -1.0373 H   0  0  0  0  0  0  0  0  0  0  0  0
   -3.8131    1.0940   -0.9261 H   0  0  0  0  0  0  0  0  0  0  0  0
    0.5407   -0.1639    0.4364 H   0  0  0  0  0  0  0  0  0  0  0  0
    0.7603    1.2107    3.9084 H   0  0  0  0  0  0  0  0  0  0  0  0
    2.8816    1.7110    4.9818 H   0  0  0  0  0  0  0  0  0  0  0  0
    5.0176    0.5797    1.4310 H   0  0  0  0  0  0  0  0  0  0  0  0
    3.9795   -1.4203   -2.0765 H   0  0  0  0  0  0  0  0  0  0  0  0
    5.6798   -0.6861   -3.7231 H   0  0  0  0  0  0  0  0  0  0  0  0
    6.5223    1.6474   -3.6849 H   0  0  0  0  0  0  0  0  0  0  0  0
    5.6502    3.2589   -2.0140 H   0  0  0  0  0  0  0  0  0  0  0  0
    3.9482    2.5521   -0.3743 H   0  0  0  0  0  0  0  0  0  0  0  0
  1  2  2  0
  2  3  1  0
  3  4  1  0
  4  5  1  0
  5  6  1  0
  6  7  1  0
  7  8  1  0
  8  9  1  0
  9 10  1  0
  2 11  1  0
 11 12  1  0
 12 13  2  0
 13 14  1  0
 14 15  2  0
 15 16  1  0
 15 17  1  0
 17 18  2  0
 18 19  1  0
 19 20  2  0
 19 21  1  0
 21 22  2  0
 22 23  1  0
 23 24  2  0
 24 25  1  0
 25 26  2  0
 10  5  1  0
 18 12  1  0
 26 21  1  0
  3 27  1  0
  3 28  1  0
  4 29  1  0
  4 30  1  0
  6 31  1  0
  6 32  1  0
  7 33  1  0
  7 34  1  0
  8 35  1  0
  8 36  1  0
  9 37  1  0
  9 38  1  0
 10 39  1  0
 10 40  1  0
 11 41  1  0
 13 42  1  0
 14 43  1  0
 17 44  1  0
 22 45  1  0
 23 46  1  0
 24 47  1  0
 25 48  1  0
 26 49  1  0
M  END
$$$$
