
     RDKit          3D

 36 37  0  0  0  0  0  0  0  0999 V2000
    5.0750    1.1830    2.9193 C   0  0  0  0  0  0  0  0  0  0  0  0
    5.0983    0.4455    1.7037 O   0  0  0  0  0  0  0  0  0  0  0  0
    3.8990   -0.0177    1.2370 C   0  0  0  0  0  0  0  0  0  0  0  0
    2.6539    0.1744    1.8405 C   0  0  0  0  0  0  0  0  0  0  0  0
    1.4998   -0.3561    1.2547 C   0  0  0  0  0  0  0  0  0  0  0  0
    1.5938   -1.0692    0.0564 C   0  0  0  0  0  0  0  0  0  0  0  0
    0.1294   -1.7739   -0.6659 S   0  0  0  0  0  6  0  0  0  0  0  0
    0.5431   -2.8427   -1.5515 O   0  0  0  0  0  0  0  0  0  0  0  0
   -0.8280   -1.9953    0.3985 O   0  0  0  0  0  0  0  0  0  0  0  0
   -0.4316   -0.4977   -1.6670 N   0  0  0  0  0  0  0  0  0  0  0  0
   -0.6236    0.8453   -1.0550 N   0  0  0  0  0  0  0  0  0  0  0  0
   -1.8307    1.1179   -0.6522 C   0  0  0  0  0  0  0  0  0  0  0  0
   -2.0523    2.4221    0.0750 C   0  0  0  0  0  0  0  0  0  0  0  0
   -3.0202    0.2625   -0.8531 C   0  0  0  0  0  0  0  0  0  0  0  0
   -3.6922   -0.2573    0.2485 C   0  0  0  0  0  0  0  0  0  0  0  0
   -4.8124   -1.0285    0.0024 C   0  0  0  0  0  0  0  0  0  0  0  0
   -5.2916   -1.2836   -1.2357 N   0  0  0  0  0  0  0  0  0  0  0  0
   -4.6075   -0.7675   -2.2803 C   0  0  0  0  0  0  0  0  0  0  0  0
   -3.4733    0.0099   -2.1448 C   0  0  0  0  0  0  0  0  0  0  0  0
    2.8349   -1.2808   -0.5464 C   0  0  0  0  0  0  0  0  0  0  0  0
    3.9815   -0.7477    0.0460 C   0  0  0  0  0  0  0  0  0  0  0  0
    4.4851    2.0994    2.8137 H   0  0  0  0  0  0  0  0  0  0  0  0
    6.1035    1.4744    3.1532 H   0  0  0  0  0  0  0  0  0  0  0  0
    4.7068    0.5681    3.7472 H   0  0  0  0  0  0  0  0  0  0  0  0
    2.5464    0.7290    2.7668 H   0  0  0  0  0  0  0  0  0  0  0  0
    0.5344   -0.2055    1.7324 H   0  0  0  0  0  0  0  0  0  0  0  0
    0.0841   -0.5133   -2.5511 H   0  0  0  0  0  0  0  0  0  0  0  0
   -1.6128    3.2393   -0.5048 H   0  0  0  0  0  0  0  0  0  0  0  0
   -1.5614    2.3752    1.0515 H   0  0  0  0  0  0  0  0  0  0  0  0
   -3.1159    2.6303    0.2184 H   0  0  0  0  0  0  0  0  0  0  0  0
   -3.3441   -0.0961    1.2616 H   0  0  0  0  0  0  0  0  0  0  0  0
   -5.3728   -1.4791    0.8168 H   0  0  0  0  0  0  0  0  0  0  0  0
   -5.0124   -1.0046   -3.2601 H   0  0  0  0  0  0  0  0  0  0  0  0
   -2.9615    0.4034   -3.0146 H   0  0  0  0  0  0  0  0  0  0  0  0
    2.9235   -1.8570   -1.4641 H   0  0  0  0  0  0  0  0  0  0  0  0
    4.9518   -0.9061   -0.4197 H   0  0  0  0  0  0  0  0  0  0  0  0
  1  2  1  0
  2  3  1  0
  3  4  2  0
  4  5  1  0
  5  6  2  0
  6  7  1  0
  7  8  2  0
  7  9  2  0
  7 10  1  0
 10 11  1  0
 11 12  2  3
 12 13  1  0
 12 14  1  0
 14 15  2  0
 15 16  1  0
 16 17  2  0
 17 18  1  0
 18 19  2  0
  6 20  1  0
 20 21  2  0
 21  3  1  0
 19 14  1  0
  1 22  1  0
  1 23  1  0
  1 24  1  0
  4 25  1  0
  5 26  1  0
 10 27  1  0
 13 28  1  0
 13 29  1  0
 13 30  1  0
 15 31  1  0
 16 32  1  0
 18 33  1  0
 19 34  1  0
 20 35  1  0
 21 36  1  0
M  END
$$$$
