
     RDKit          3D

 34 34  0  0  0  0  0  0  0  0999 V2000
    4.8990   -1.9615    0.6516 C   0  0  0  0  0  0  0  0  0  0  0  0
    4.0687   -0.8342    0.8871 O   0  0  0  0  0  0  0  0  0  0  0  0
    2.9747   -0.6664    0.0743 C   0  0  0  0  0  0  0  0  0  0  0  0
    2.5957   -1.5584   -0.9347 C   0  0  0  0  0  0  0  0  0  0  0  0
    1.4620   -1.3090   -1.7132 C   0  0  0  0  0  0  0  0  0  0  0  0
    0.6939   -0.1604   -1.4996 C   0  0  0  0  0  0  0  0  0  0  0  0
   -0.5437    0.1071   -2.3169 C   0  0  0  0  0  0  0  0  0  0  0  0
   -1.7309   -0.2711   -1.5837 N   0  0  0  0  0  0  0  0  0  0  0  0
   -2.4905    0.6563   -0.9190 C   0  0  0  0  0  0  0  0  0  0  0  0
   -2.3010    1.8647   -0.9550 O   0  0  0  0  0  0  0  0  0  0  0  0
   -3.5801    0.0464   -0.1243 C   0  0  0  0  0  0  0  0  0  0  0  0
   -4.3867    0.8401    0.5939 C   0  0  0  0  0  0  0  0  0  0  0  0
   -5.4908    0.3299    1.4103 C   0  0  0  0  0  0  0  0  0  0  0  0
   -6.2389    1.0240    2.0736 O   0  0  0  0  0  0  0  0  0  0  0  0
   -5.6215   -1.0053    1.3715 O   0  0  0  0  0  0  0  0  0  0  0  0
    1.0710    0.7317   -0.4828 C   0  0  0  0  0  0  0  0  0  0  0  0
    2.2024    0.4891    0.3053 C   0  0  0  0  0  0  0  0  0  0  0  0
    2.6329    1.3122    1.3170 O   0  0  0  0  0  0  0  0  0  0  0  0
    1.8648    2.4763    1.5887 C   0  0  0  0  0  0  0  0  0  0  0  0
    5.3283   -1.9341   -0.3554 H   0  0  0  0  0  0  0  0  0  0  0  0
    5.7269   -1.9224    1.3662 H   0  0  0  0  0  0  0  0  0  0  0  0
    4.3547   -2.8955    0.8255 H   0  0  0  0  0  0  0  0  0  0  0  0
    3.1614   -2.4610   -1.1393 H   0  0  0  0  0  0  0  0  0  0  0  0
    1.1874   -2.0202   -2.4891 H   0  0  0  0  0  0  0  0  0  0  0  0
   -0.5304   -0.4845   -3.2389 H   0  0  0  0  0  0  0  0  0  0  0  0
   -0.5834    1.1625   -2.6093 H   0  0  0  0  0  0  0  0  0  0  0  0
   -1.8738   -1.2562   -1.4138 H   0  0  0  0  0  0  0  0  0  0  0  0
   -3.6991   -1.0289   -0.1447 H   0  0  0  0  0  0  0  0  0  0  0  0
   -4.2653    1.9186    0.6116 H   0  0  0  0  0  0  0  0  0  0  0  0
   -6.3871   -1.1761    1.9599 H   0  0  0  0  0  0  0  0  0  0  0  0
    0.4546    1.6131   -0.3260 H   0  0  0  0  0  0  0  0  0  0  0  0
    0.8479    2.2157    1.9004 H   0  0  0  0  0  0  0  0  0  0  0  0
    2.3413    3.0039    2.4206 H   0  0  0  0  0  0  0  0  0  0  0  0
    1.8559    3.1535    0.7283 H   0  0  0  0  0  0  0  0  0  0  0  0
  1  2  1  0
  2  3  1  0
  3  4  2  0
  4  5  1  0
  5  6  2  0
  6  7  1  0
  7  8  1  0
  8  9  1  0
  9 10  2  0
  9 11  1  0
 11 12  2  3
 12 13  1  0
 13 14  2  0
 13 15  1  0
  6 16  1  0
 16 17  2  0
 17 18  1  0
 18 19  1  0
 17  3  1  0
  1 20  1  0
  1 21  1  0
  1 22  1  0
  4 23  1  0
  5 24  1  0
  7 25  1  0
  7 26  1  0
  8 27  1  0
 11 28  1  0
 12 29  1  0
 15 30  1  0
 16 31  1  0
 19 32  1  0
 19 33  1  0
 19 34  1  0
M  END
$$$$
