
     RDKit          3D

 44 46  0  0  0  0  0  0  0  0999 V2000
    8.4470   -0.9581   -1.1155 C   0  0  0  0  0  0  0  0  0  0  0  0
    6.9502   -0.8640   -1.0699 C   0  0  0  0  0  0  0  0  0  0  0  0
    6.2921    0.2364   -1.6326 C   0  0  0  0  0  0  0  0  0  0  0  0
    4.8960    0.3130   -1.6176 C   0  0  0  0  0  0  0  0  0  0  0  0
    4.1402   -0.7195   -1.0487 C   0  0  0  0  0  0  0  0  0  0  0  0
    2.6535   -0.6906   -1.0064 C   0  0  0  0  0  0  0  0  0  0  0  0
    1.9758   -1.5283   -0.4311 O   0  0  0  0  0  0  0  0  0  0  0  0
    2.1724    0.3637   -1.7119 O   0  0  0  0  0  0  0  0  0  0  0  0
    0.7561    0.5071   -1.6381 C   0  0  0  0  0  0  0  0  0  0  0  0
    0.2819    1.0784   -0.2987 C   0  0  0  0  0  0  0  0  0  0  0  0
    1.0057    1.7373    0.4438 O   0  0  0  0  0  0  0  0  0  0  0  0
   -1.0380    0.8012   -0.0060 N   0  0  0  0  0  0  0  0  0  0  0  0
   -1.6828    1.3704    1.1665 C   0  0  0  0  0  0  0  0  0  0  0  0
   -2.9460    0.5965    1.5493 C   0  0  0  0  0  0  0  0  0  0  0  0
   -3.5632    1.1712    2.8208 C   0  0  0  0  0  0  0  0  0  0  0  0
   -4.7053    0.4039    3.2203 O   0  0  0  0  0  0  0  0  0  0  0  0
   -5.5293    0.1408    2.1567 C   0  0  0  0  0  0  0  0  0  0  0  0
   -6.8134   -0.3103    2.4563 C   0  0  0  0  0  0  0  0  0  0  0  0
   -7.7153   -0.5767    1.4248 C   0  0  0  0  0  0  0  0  0  0  0  0
   -7.3309   -0.3938    0.0955 C   0  0  0  0  0  0  0  0  0  0  0  0
   -6.0402    0.0448   -0.2053 C   0  0  0  0  0  0  0  0  0  0  0  0
   -5.1353    0.2970    0.8243 C   0  0  0  0  0  0  0  0  0  0  0  0
   -3.8790    0.7034    0.4550 O   0  0  0  0  0  0  0  0  0  0  0  0
    4.7969   -1.8254   -0.4946 C   0  0  0  0  0  0  0  0  0  0  0  0
    6.1922   -1.8997   -0.5114 C   0  0  0  0  0  0  0  0  0  0  0  0
    8.8291   -1.5237   -0.2591 H   0  0  0  0  0  0  0  0  0  0  0  0
    8.7625   -1.4557   -2.0376 H   0  0  0  0  0  0  0  0  0  0  0  0
    8.9023    0.0371   -1.0761 H   0  0  0  0  0  0  0  0  0  0  0  0
    6.8630    1.0458   -2.0830 H   0  0  0  0  0  0  0  0  0  0  0  0
    4.4137    1.1866   -2.0490 H   0  0  0  0  0  0  0  0  0  0  0  0
    0.2563   -0.4441   -1.8575 H   0  0  0  0  0  0  0  0  0  0  0  0
    0.4600    1.2179   -2.4171 H   0  0  0  0  0  0  0  0  0  0  0  0
   -1.6429    0.4552   -0.7423 H   0  0  0  0  0  0  0  0  0  0  0  0
   -1.9261    2.4082    0.9105 H   0  0  0  0  0  0  0  0  0  0  0  0
   -0.9668    1.3795    1.9957 H   0  0  0  0  0  0  0  0  0  0  0  0
   -2.7068   -0.4679    1.6806 H   0  0  0  0  0  0  0  0  0  0  0  0
   -3.8784    2.2139    2.6850 H   0  0  0  0  0  0  0  0  0  0  0  0
   -2.8455    1.1401    3.6473 H   0  0  0  0  0  0  0  0  0  0  0  0
   -7.1142   -0.4440    3.4917 H   0  0  0  0  0  0  0  0  0  0  0  0
   -8.7191   -0.9227    1.6585 H   0  0  0  0  0  0  0  0  0  0  0  0
   -8.0358   -0.5973   -0.7067 H   0  0  0  0  0  0  0  0  0  0  0  0
   -5.7394    0.1791   -1.2402 H   0  0  0  0  0  0  0  0  0  0  0  0
    4.2242   -2.6360   -0.0477 H   0  0  0  0  0  0  0  0  0  0  0  0
    6.6826   -2.7707   -0.0816 H   0  0  0  0  0  0  0  0  0  0  0  0
  1  2  1  0
  2  3  2  0
  3  4  1  0
  4  5  2  0
  5  6  1  0
  6  7  2  0
  6  8  1  0
  8  9  1  0
  9 10  1  0
 10 11  2  0
 10 12  1  0
 12 13  1  0
 13 14  1  0
 14 15  1  0
 15 16  1  0
 16 17  1  0
 17 18  2  0
 18 19  1  0
 19 20  2  0
 20 21  1  0
 21 22  2  0
 22 23  1  0
  5 24  1  0
 24 25  2  0
 25  2  1  0
 23 14  1  0
 22 17  1  0
  1 26  1  0
  1 27  1  0
  1 28  1  0
  3 29  1  0
  4 30  1  0
  9 31  1  0
  9 32  1  0
 12 33  1  0
 13 34  1  0
 13 35  1  0
 14 36  1  0
 15 37  1  0
 15 38  1  0
 18 39  1  0
 19 40  1  0
 20 41  1  0
 21 42  1  0
 24 43  1  0
 25 44  1  0
M  END
$$$$
