
     RDKit          3D

 47 49  0  0  0  0  0  0  0  0999 V2000
   -7.6839    2.6242   -0.2426 C   0  0  0  0  0  0  0  0  0  0  0  0
   -7.0353    1.6806   -1.0827 O   0  0  0  0  0  0  0  0  0  0  0  0
   -5.8909    1.0874   -0.6101 C   0  0  0  0  0  0  0  0  0  0  0  0
   -5.3386    1.3292    0.6518 C   0  0  0  0  0  0  0  0  0  0  0  0
   -4.1679    0.6772    1.0481 C   0  0  0  0  0  0  0  0  0  0  0  0
   -3.5316   -0.2179    0.1855 C   0  0  0  0  0  0  0  0  0  0  0  0
   -2.3106   -0.9243    0.5881 C   0  0  0  0  0  0  0  0  0  0  0  0
   -1.1198   -0.3632    0.8385 C   0  0  0  0  0  0  0  0  0  0  0  0
   -0.6869    1.2951    0.7488 S   0  0  0  0  0  0  0  0  0  0  0  0
    0.9838    0.9823    1.2034 C   0  0  0  0  0  0  0  0  0  0  0  0
    2.1184    2.2017    1.2948 S   0  0  0  0  0  0  0  0  0  0  0  0
    1.1592   -0.3657    1.4406 N   0  0  0  0  0  0  0  0  0  0  0  0
    2.4309   -0.9890    1.8225 C   0  0  0  0  0  0  0  0  0  0  0  0
    3.2306   -1.4319    0.6030 C   0  0  0  0  0  0  0  0  0  0  0  0
    4.5908   -1.9419    1.0244 C   0  0  0  0  0  0  0  0  0  0  0  0
    4.7972   -2.4191    2.1350 O   0  0  0  0  0  0  0  0  0  0  0  0
    5.5334   -1.8909    0.0316 N   0  0  0  0  0  0  0  0  0  0  0  0
    6.3846   -0.9230    0.0660 C   0  0  0  0  0  0  0  0  0  0  0  0
    7.3836   -0.7787   -0.8523 N   0  0  0  0  0  0  0  0  0  0  0  0
    7.9850    0.5355   -0.9209 C   0  0  0  0  0  0  0  0  0  0  0  0
    7.9512    1.0906    0.4993 C   0  0  0  0  0  0  0  0  0  0  0  0
    6.4096    0.4217    1.2030 S   0  0  0  0  0  0  0  0  0  0  0  0
    0.0612   -1.1800    1.2224 C   0  0  0  0  0  0  0  0  0  0  0  0
    0.0432   -2.4005    1.3018 O   0  0  0  0  0  0  0  0  0  0  0  0
   -4.0868   -0.4726   -1.0746 C   0  0  0  0  0  0  0  0  0  0  0  0
   -5.2603    0.1755   -1.4810 C   0  0  0  0  0  0  0  0  0  0  0  0
   -5.8677   -0.0113   -2.6989 O   0  0  0  0  0  0  0  0  0  0  0  0
   -5.2640   -0.9211   -3.6067 C   0  0  0  0  0  0  0  0  0  0  0  0
   -8.0379    2.1534    0.6803 H   0  0  0  0  0  0  0  0  0  0  0  0
   -8.5595    3.0029   -0.7787 H   0  0  0  0  0  0  0  0  0  0  0  0
   -7.0317    3.4773   -0.0281 H   0  0  0  0  0  0  0  0  0  0  0  0
   -5.7956    2.0183    1.3537 H   0  0  0  0  0  0  0  0  0  0  0  0
   -3.7626    0.8762    2.0378 H   0  0  0  0  0  0  0  0  0  0  0  0
   -2.4197   -2.0061    0.6595 H   0  0  0  0  0  0  0  0  0  0  0  0
    3.0126   -0.2909    2.4340 H   0  0  0  0  0  0  0  0  0  0  0  0
    2.2151   -1.8559    2.4597 H   0  0  0  0  0  0  0  0  0  0  0  0
    3.3596   -0.5941   -0.0913 H   0  0  0  0  0  0  0  0  0  0  0  0
    2.7129   -2.2328    0.0639 H   0  0  0  0  0  0  0  0  0  0  0  0
    7.2783   -1.3170   -1.7037 H   0  0  0  0  0  0  0  0  0  0  0  0
    9.0099    0.4806   -1.3001 H   0  0  0  0  0  0  0  0  0  0  0  0
    7.4054    1.1717   -1.6003 H   0  0  0  0  0  0  0  0  0  0  0  0
    7.9657    2.1833    0.5185 H   0  0  0  0  0  0  0  0  0  0  0  0
    8.7929    0.7092    1.0861 H   0  0  0  0  0  0  0  0  0  0  0  0
   -3.5838   -1.1786   -1.7273 H   0  0  0  0  0  0  0  0  0  0  0  0
   -4.2604   -0.5882   -3.8911 H   0  0  0  0  0  0  0  0  0  0  0  0
   -5.8754   -0.9435   -4.5140 H   0  0  0  0  0  0  0  0  0  0  0  0
   -5.2440   -1.9355   -3.1951 H   0  0  0  0  0  0  0  0  0  0  0  0
  1  2  1  0
  2  3  1  0
  3  4  2  0
  4  5  1  0
  5  6  2  0
  6  7  1  0
  7  8  2  3
  8  9  1  0
  9 10  1  0
 10 11  2  0
 10 12  1  0
 12 13  1  0
 13 14  1  0
 14 15  1  0
 15 16  2  0
 15 17  1  0
 17 18  2  3
 18 19  1  0
 19 20  1  0
 20 21  1  0
 21 22  1  0
 12 23  1  0
 23 24  2  0
  6 25  1  0
 25 26  2  0
 26 27  1  0
 27 28  1  0
 26  3  1  0
 23  8  1  0
 22 18  1  0
  1 29  1  0
  1 30  1  0
  1 31  1  0
  4 32  1  0
  5 33  1  0
  7 34  1  0
 13 35  1  0
 13 36  1  0
 14 37  1  0
 14 38  1  0
 19 39  1  0
 20 40  1  0
 20 41  1  0
 21 42  1  0
 21 43  1  0
 25 44  1  0
 28 45  1  0
 28 46  1  0
 28 47  1  0
M  END
$$$$
