
     RDKit          3D

 46 48  0  0  0  0  0  0  0  0999 V2000
   -1.2735   -3.2944   -2.4211 C   0  0  0  0  0  0  0  0  0  0  0  0
   -1.0075   -2.0303   -1.8238 O   0  0  0  0  0  0  0  0  0  0  0  0
   -2.0501   -1.4249   -1.1573 C   0  0  0  0  0  0  0  0  0  0  0  0
   -3.3369   -1.9525   -1.0337 C   0  0  0  0  0  0  0  0  0  0  0  0
   -4.3172   -1.2493   -0.3293 C   0  0  0  0  0  0  0  0  0  0  0  0
   -4.0212   -0.0193    0.2661 C   0  0  0  0  0  0  0  0  0  0  0  0
   -5.0850    0.7503    0.9934 C   0  0  0  0  0  0  0  0  0  0  0  0
   -2.7331    0.5178    0.1284 C   0  0  0  0  0  0  0  0  0  0  0  0
   -1.7448   -0.1770   -0.5722 C   0  0  0  0  0  0  0  0  0  0  0  0
   -0.4209    0.2923   -0.7485 N   0  0  0  0  0  0  0  0  0  0  0  0
    0.1570    1.4323   -0.2415 C   0  0  0  0  0  0  0  0  0  0  0  0
   -0.4000    2.2420    0.4971 O   0  0  0  0  0  0  0  0  0  0  0  0
    1.6134    1.6683   -0.6172 C   0  0  0  0  0  0  0  0  0  0  0  0
    1.9417    1.4155   -2.0783 C   0  0  0  0  0  0  0  0  0  0  0  0
    3.4105    1.1576   -2.0373 C   0  0  0  0  0  0  0  0  0  0  0  0
    4.1460    1.1269   -3.0097 O   0  0  0  0  0  0  0  0  0  0  0  0
    3.8184    0.9285   -0.7611 O   0  0  0  0  0  0  0  0  0  0  0  0
    2.6917    0.8949    0.1536 C   0  0  0  0  0  0  0  0  0  0  0  0
    3.1579    1.6223    1.4293 C   0  0  0  0  0  0  0  0  0  0  0  0
    2.2596    1.3796    2.6354 C   0  0  0  0  0  0  0  0  0  0  0  0
    2.1118   -0.1102    2.9175 C   0  0  0  0  0  0  0  0  0  0  0  0
    1.5889   -0.8618    1.6998 C   0  0  0  0  0  0  0  0  0  0  0  0
    2.4306   -0.5955    0.4521 C   0  0  0  0  0  0  0  0  0  0  0  0
   -0.3512   -3.6368   -2.9001 H   0  0  0  0  0  0  0  0  0  0  0  0
   -1.5516   -4.0371   -1.6662 H   0  0  0  0  0  0  0  0  0  0  0  0
   -2.0402   -3.2098   -3.1983 H   0  0  0  0  0  0  0  0  0  0  0  0
   -3.6145   -2.9045   -1.4730 H   0  0  0  0  0  0  0  0  0  0  0  0
   -5.3176   -1.6698   -0.2475 H   0  0  0  0  0  0  0  0  0  0  0  0
   -5.8304    0.0748    1.4260 H   0  0  0  0  0  0  0  0  0  0  0  0
   -5.5875    1.4360    0.3044 H   0  0  0  0  0  0  0  0  0  0  0  0
   -4.6537    1.3275    1.8181 H   0  0  0  0  0  0  0  0  0  0  0  0
   -2.5281    1.4848    0.5774 H   0  0  0  0  0  0  0  0  0  0  0  0
    0.1362   -0.3598   -1.2894 H   0  0  0  0  0  0  0  0  0  0  0  0
    1.7827    2.7459   -0.4650 H   0  0  0  0  0  0  0  0  0  0  0  0
    1.7289    2.3000   -2.6857 H   0  0  0  0  0  0  0  0  0  0  0  0
    1.4525    0.5437   -2.5165 H   0  0  0  0  0  0  0  0  0  0  0  0
    3.2538    2.6998    1.2464 H   0  0  0  0  0  0  0  0  0  0  0  0
    4.1758    1.2897    1.6775 H   0  0  0  0  0  0  0  0  0  0  0  0
    1.2748    1.8289    2.4731 H   0  0  0  0  0  0  0  0  0  0  0  0
    2.6889    1.8745    3.5142 H   0  0  0  0  0  0  0  0  0  0  0  0
    1.4323   -0.2608    3.7640 H   0  0  0  0  0  0  0  0  0  0  0  0
    3.0837   -0.5248    3.2123 H   0  0  0  0  0  0  0  0  0  0  0  0
    0.5453   -0.5845    1.5338 H   0  0  0  0  0  0  0  0  0  0  0  0
    1.5878   -1.9378    1.9106 H   0  0  0  0  0  0  0  0  0  0  0  0
    3.4012   -1.0930    0.5933 H   0  0  0  0  0  0  0  0  0  0  0  0
    1.9937   -1.0998   -0.4169 H   0  0  0  0  0  0  0  0  0  0  0  0
  1  2  1  0
  2  3  1  0
  3  4  2  0
  4  5  1  0
  5  6  2  0
  6  7  1  0
  6  8  1  0
  8  9  2  0
  9 10  1  0
 10 11  1  0
 11 12  2  0
 11 13  1  0
 13 14  1  0
 14 15  1  0
 15 16  2  0
 15 17  1  0
 17 18  1  0
 18 19  1  0
 19 20  1  0
 20 21  1  0
 21 22  1  0
 22 23  1  0
  9  3  1  0
 18 13  1  0
 23 18  1  0
  1 24  1  0
  1 25  1  0
  1 26  1  0
  4 27  1  0
  5 28  1  0
  7 29  1  0
  7 30  1  0
  7 31  1  0
  8 32  1  0
 10 33  1  0
 13 34  1  0
 14 35  1  0
 14 36  1  0
 19 37  1  0
 19 38  1  0
 20 39  1  0
 20 40  1  0
 21 41  1  0
 21 42  1  0
 22 43  1  0
 22 44  1  0
 23 45  1  0
 23 46  1  0
M  END
$$$$
