
     RDKit          3D

 44 47  0  0  0  0  0  0  0  0999 V2000
   -5.9643    1.9075   -1.6213 C   0  0  0  0  0  0  0  0  0  0  0  0
   -5.9356    0.4142   -1.3337 C   0  0  0  0  0  0  0  0  0  0  0  0
   -4.6934    0.0122   -0.5815 C   0  0  0  0  0  0  0  0  0  0  0  0
   -4.6734    0.0264    0.8175 C   0  0  0  0  0  0  0  0  0  0  0  0
   -3.5167   -0.3303    1.5203 C   0  0  0  0  0  0  0  0  0  0  0  0
   -2.3610   -0.7039    0.8359 C   0  0  0  0  0  0  0  0  0  0  0  0
   -1.1590   -1.0696    1.4660 N   0  0  0  0  0  0  0  0  0  0  0  0
   -0.8971   -1.1865    2.8203 C   0  0  0  0  0  0  0  0  0  0  0  0
   -1.7211   -1.0896    3.7267 O   0  0  0  0  0  0  0  0  0  0  0  0
    0.5387   -1.6296    3.1152 C   0  0  0  0  0  0  0  0  0  0  0  0
    1.4831   -1.1952    2.0830 N   0  0  0  0  0  0  0  0  0  0  0  0
    1.5940   -2.0078    0.9493 N   0  0  0  0  0  0  0  0  0  0  0  0
    2.4446   -1.6688    0.0237 C   0  0  0  0  0  0  0  0  0  0  0  0
    3.2068   -0.5138    0.1250 N   0  0  0  0  0  0  0  0  0  0  0  0
    3.0914    0.3234    1.1991 C   0  0  0  0  0  0  0  0  0  0  0  0
    3.9501    1.3841    1.0103 C   0  0  0  0  0  0  0  0  0  0  0  0
    4.6164    1.1796   -0.2284 C   0  0  0  0  0  0  0  0  0  0  0  0
    5.5877    1.9097   -0.9399 C   0  0  0  0  0  0  0  0  0  0  0  0
    6.0513    1.4241   -2.1667 C   0  0  0  0  0  0  0  0  0  0  0  0
    5.5619    0.2297   -2.6872 C   0  0  0  0  0  0  0  0  0  0  0  0
    4.5971   -0.5144   -2.0012 C   0  0  0  0  0  0  0  0  0  0  0  0
    4.1369   -0.0191   -0.7695 C   0  0  0  0  0  0  0  0  0  0  0  0
    2.1833    0.0113    2.2679 C   0  0  0  0  0  0  0  0  0  0  0  0
    2.0374    0.7315    3.2500 O   0  0  0  0  0  0  0  0  0  0  0  0
   -2.3764   -0.7096   -0.5637 C   0  0  0  0  0  0  0  0  0  0  0  0
   -3.5311   -0.3537   -1.2675 C   0  0  0  0  0  0  0  0  0  0  0  0
   -5.1051    2.2118   -2.2287 H   0  0  0  0  0  0  0  0  0  0  0  0
   -5.9439    2.4911   -0.6946 H   0  0  0  0  0  0  0  0  0  0  0  0
   -6.8758    2.1702   -2.1675 H   0  0  0  0  0  0  0  0  0  0  0  0
   -6.8243    0.1306   -0.7569 H   0  0  0  0  0  0  0  0  0  0  0  0
   -5.9941   -0.1457   -2.2751 H   0  0  0  0  0  0  0  0  0  0  0  0
   -5.5594    0.3181    1.3775 H   0  0  0  0  0  0  0  0  0  0  0  0
   -3.5521   -0.2993    2.6048 H   0  0  0  0  0  0  0  0  0  0  0  0
   -0.3731   -1.3103    0.8665 H   0  0  0  0  0  0  0  0  0  0  0  0
    0.8347   -1.2172    4.0851 H   0  0  0  0  0  0  0  0  0  0  0  0
    0.5624   -2.7230    3.1746 H   0  0  0  0  0  0  0  0  0  0  0  0
    2.5622   -2.3037   -0.8681 H   0  0  0  0  0  0  0  0  0  0  0  0
    4.0823    2.2147    1.6933 H   0  0  0  0  0  0  0  0  0  0  0  0
    5.9760    2.8432   -0.5415 H   0  0  0  0  0  0  0  0  0  0  0  0
    6.8018    1.9871   -2.7169 H   0  0  0  0  0  0  0  0  0  0  0  0
    5.9368   -0.1306   -3.6433 H   0  0  0  0  0  0  0  0  0  0  0  0
    4.2277   -1.4443   -2.4220 H   0  0  0  0  0  0  0  0  0  0  0  0
   -1.4915   -0.9913   -1.1274 H   0  0  0  0  0  0  0  0  0  0  0  0
   -3.5163   -0.3630   -2.3549 H   0  0  0  0  0  0  0  0  0  0  0  0
  1  2  1  0
  2  3  1  0
  3  4  2  0
  4  5  1  0
  5  6  2  0
  6  7  1  0
  7  8  1  0
  8  9  2  0
  8 10  1  0
 10 11  1  0
 11 12  1  0
 12 13  2  0
 13 14  1  0
 14 15  1  0
 15 16  2  0
 16 17  1  0
 17 18  2  0
 18 19  1  0
 19 20  2  0
 20 21  1  0
 21 22  2  0
 15 23  1  0
 23 24  2  0
  6 25  1  0
 25 26  2  0
 26  3  1  0
 23 11  1  0
 22 14  1  0
 22 17  1  0
  1 27  1  0
  1 28  1  0
  1 29  1  0
  2 30  1  0
  2 31  1  0
  4 32  1  0
  5 33  1  0
  7 34  1  0
 10 35  1  0
 10 36  1  0
 13 37  1  0
 16 38  1  0
 18 39  1  0
 19 40  1  0
 20 41  1  0
 21 42  1  0
 25 43  1  0
 26 44  1  0
M  END
$$$$
