
     RDKit          3D

 38 41  0  0  0  0  0  0  0  0999 V2000
    6.3121    1.2135   -1.1518 C   0  0  0  0  0  0  0  0  0  0  0  0
    5.1899    0.7123   -1.9136 N   0  0  0  0  0  0  0  0  0  0  0  0
    4.0228    0.4766   -1.2736 C   0  0  0  0  0  0  0  0  0  0  0  0
    3.6978    0.9495   -0.0883 N   0  0  0  0  0  0  0  0  0  0  0  0
    2.4461    0.5158    0.2285 C   0  0  0  0  0  0  0  0  0  0  0  0
    1.8283    0.8476    1.4068 N   0  0  0  0  0  0  0  0  0  0  0  0
    0.5690    0.3888    1.7077 C   0  0  0  0  0  0  0  0  0  0  0  0
    0.0258    0.6401    2.7785 O   0  0  0  0  0  0  0  0  0  0  0  0
   -0.1224   -0.4581    0.6710 C   0  0  0  0  0  0  0  0  0  0  0  0
    0.5072   -0.8007   -0.4659 C   0  0  0  0  0  0  0  0  0  0  0  0
    1.8046   -0.2900   -0.6818 C   0  0  0  0  0  0  0  0  0  0  0  0
    2.8210   -0.5228   -2.0238 S   0  0  0  0  0  0  0  0  0  0  0  0
   -0.0641   -1.5852   -1.4751 O   0  0  0  0  0  0  0  0  0  0  0  0
   -1.2671   -2.1719   -1.2578 C   0  0  0  0  0  0  0  0  0  0  0  0
   -1.8851   -2.6658   -2.2798 N   0  0  0  0  0  0  0  0  0  0  0  0
   -1.8020   -2.2426    0.1536 C   0  0  0  0  0  0  0  0  0  0  0  0
   -1.2123   -3.4215    0.8088 C   0  0  0  0  0  0  0  0  0  0  0  0
   -0.7493   -4.3412    1.3427 N   0  0  0  0  0  0  0  0  0  0  0  0
   -1.5056   -0.9633    0.9588 C   0  0  0  0  0  0  0  0  0  0  0  0
   -2.5707    0.1093    0.7332 C   0  0  0  0  0  0  0  0  0  0  0  0
   -2.8335    0.6604   -0.5323 C   0  0  0  0  0  0  0  0  0  0  0  0
   -3.8249    1.6316   -0.6944 C   0  0  0  0  0  0  0  0  0  0  0  0
   -4.5616    2.0716    0.4018 C   0  0  0  0  0  0  0  0  0  0  0  0
   -4.3048    1.5457    1.6643 C   0  0  0  0  0  0  0  0  0  0  0  0
   -3.3161    0.5740    1.8299 C   0  0  0  0  0  0  0  0  0  0  0  0
    7.1432    1.4345   -1.8294 H   0  0  0  0  0  0  0  0  0  0  0  0
    6.6562    0.4696   -0.4261 H   0  0  0  0  0  0  0  0  0  0  0  0
    6.0601    2.1401   -0.6253 H   0  0  0  0  0  0  0  0  0  0  0  0
    5.4265    0.0835   -2.6735 H   0  0  0  0  0  0  0  0  0  0  0  0
    2.3268    1.4255    2.0686 H   0  0  0  0  0  0  0  0  0  0  0  0
   -2.7748   -3.1042   -2.0215 H   0  0  0  0  0  0  0  0  0  0  0  0
   -2.8883   -2.3976    0.0994 H   0  0  0  0  0  0  0  0  0  0  0  0
   -1.5446   -1.2418    2.0228 H   0  0  0  0  0  0  0  0  0  0  0  0
   -2.2729    0.3620   -1.4150 H   0  0  0  0  0  0  0  0  0  0  0  0
   -4.0174    2.0518   -1.6789 H   0  0  0  0  0  0  0  0  0  0  0  0
   -5.3282    2.8317    0.2740 H   0  0  0  0  0  0  0  0  0  0  0  0
   -4.8680    1.8982    2.5247 H   0  0  0  0  0  0  0  0  0  0  0  0
   -3.1235    0.1949    2.8328 H   0  0  0  0  0  0  0  0  0  0  0  0
  1  2  1  0
  2  3  1  0
  3  4  2  0
  4  5  1  0
  5  6  1  0
  6  7  1  0
  7  8  2  0
  7  9  1  0
  9 10  2  0
 10 11  1  0
 11 12  1  0
 10 13  1  0
 13 14  1  0
 14 15  2  3
 14 16  1  0
 16 17  1  0
 17 18  3  0
 16 19  1  0
 19 20  1  0
 20 21  2  0
 21 22  1  0
 22 23  2  0
 23 24  1  0
 24 25  2  0
 12  3  1  0
 25 20  1  0
 11  5  2  0
 19  9  1  0
  1 26  1  0
  1 27  1  0
  1 28  1  0
  2 29  1  0
  6 30  1  0
 15 31  1  0
 16 32  1  0
 19 33  1  0
 21 34  1  0
 22 35  1  0
 23 36  1  0
 24 37  1  0
 25 38  1  0
M  END
$$$$
