
     RDKit          3D

 46 49  0  0  0  0  0  0  0  0999 V2000
   -2.7463   -1.4186   -2.8801 C   0  0  0  0  0  0  0  0  0  0  0  0
   -2.3578   -1.1954   -1.4970 N   0  0  0  0  0  0  0  0  0  0  0  0
   -3.3660   -0.6196   -0.6225 C   0  0  0  0  0  0  0  0  0  0  0  0
   -1.0612   -0.6497   -1.3316 N   0  0  0  0  0  0  0  0  0  0  0  0
   -0.7502    0.6122   -1.8731 C   0  0  0  0  0  0  0  0  0  0  0  0
   -1.5772    1.4898   -2.3547 N   0  0  0  0  0  0  0  0  0  0  0  0
    0.7282    1.0060   -1.9273 C   0  0  0  0  0  0  0  0  0  0  0  0
    1.2836    0.4682   -3.1841 C   0  0  0  0  0  0  0  0  0  0  0  0
    1.7395    0.0211   -4.1539 N   0  0  0  0  0  0  0  0  0  0  0  0
    1.5159    0.4632   -0.7183 C   0  0  0  0  0  0  0  0  0  0  0  0
    1.4423    1.3838    0.5055 C   0  0  0  0  0  0  0  0  0  0  0  0
    2.6495    1.7845    1.1334 C   0  0  0  0  0  0  0  0  0  0  0  0
    2.6478    2.6134    2.2605 C   0  0  0  0  0  0  0  0  0  0  0  0
    1.4300    3.0255    2.7492 C   0  0  0  0  0  0  0  0  0  0  0  0
    0.2511    2.6380    2.1613 C   0  0  0  0  0  0  0  0  0  0  0  0
    0.2205    1.8213    1.0485 C   0  0  0  0  0  0  0  0  0  0  0  0
   -0.8384    3.1424    2.8015 O   0  0  0  0  0  0  0  0  0  0  0  0
   -0.2058    3.9040    3.8517 C   0  0  0  0  0  0  0  0  0  0  0  0
    1.2341    3.8249    3.8308 O   0  0  0  0  0  0  0  0  0  0  0  0
    1.1146   -0.9542   -0.3636 C   0  0  0  0  0  0  0  0  0  0  0  0
   -0.1098   -1.4461   -0.6579 C   0  0  0  0  0  0  0  0  0  0  0  0
   -0.4996   -2.8601   -0.2499 C   0  0  0  0  0  0  0  0  0  0  0  0
    0.3734   -3.4273    0.8641 C   0  0  0  0  0  0  0  0  0  0  0  0
    1.8420   -3.2660    0.5355 C   0  0  0  0  0  0  0  0  0  0  0  0
    2.1676   -1.8216    0.2492 C   0  0  0  0  0  0  0  0  0  0  0  0
    3.2991   -1.3812    0.4449 O   0  0  0  0  0  0  0  0  0  0  0  0
   -3.0190   -0.5040   -3.4135 H   0  0  0  0  0  0  0  0  0  0  0  0
   -3.6100   -2.0916   -2.9196 H   0  0  0  0  0  0  0  0  0  0  0  0
   -1.9415   -1.9124   -3.4366 H   0  0  0  0  0  0  0  0  0  0  0  0
   -4.2515   -1.2647   -0.6012 H   0  0  0  0  0  0  0  0  0  0  0  0
   -3.0002   -0.5608    0.4091 H   0  0  0  0  0  0  0  0  0  0  0  0
   -3.6955    0.3787   -0.9205 H   0  0  0  0  0  0  0  0  0  0  0  0
   -2.5281    1.1297   -2.2867 H   0  0  0  0  0  0  0  0  0  0  0  0
    0.8011    2.1012   -1.9629 H   0  0  0  0  0  0  0  0  0  0  0  0
    2.5697    0.4478   -1.0353 H   0  0  0  0  0  0  0  0  0  0  0  0
    3.6083    1.4344    0.7495 H   0  0  0  0  0  0  0  0  0  0  0  0
    3.5740    2.9142    2.7370 H   0  0  0  0  0  0  0  0  0  0  0  0
   -0.7407    1.5407    0.6347 H   0  0  0  0  0  0  0  0  0  0  0  0
   -0.5013    4.9546    3.7494 H   0  0  0  0  0  0  0  0  0  0  0  0
   -0.5634    3.5309    4.8183 H   0  0  0  0  0  0  0  0  0  0  0  0
   -0.4449   -3.5078   -1.1338 H   0  0  0  0  0  0  0  0  0  0  0  0
   -1.5311   -2.8956    0.1179 H   0  0  0  0  0  0  0  0  0  0  0  0
    0.1369   -4.4859    1.0201 H   0  0  0  0  0  0  0  0  0  0  0  0
    0.1467   -2.9065    1.8038 H   0  0  0  0  0  0  0  0  0  0  0  0
    2.1199   -3.8627   -0.3401 H   0  0  0  0  0  0  0  0  0  0  0  0
    2.4436   -3.5984    1.3883 H   0  0  0  0  0  0  0  0  0  0  0  0
  1  2  1  0
  2  3  1  0
  2  4  1  0
  4  5  1  0
  5  6  2  3
  5  7  1  0
  7  8  1  0
  8  9  3  0
  7 10  1  0
 10 11  1  0
 11 12  2  0
 12 13  1  0
 13 14  2  0
 14 15  1  0
 15 16  2  0
 15 17  1  0
 17 18  1  0
 18 19  1  0
 10 20  1  0
 20 21  2  0
 21 22  1  0
 22 23  1  0
 23 24  1  0
 24 25  1  0
 25 26  2  0
 21  4  1  0
 16 11  1  0
 25 20  1  0
 19 14  1  0
  1 27  1  0
  1 28  1  0
  1 29  1  0
  3 30  1  0
  3 31  1  0
  3 32  1  0
  6 33  1  0
  7 34  1  0
 10 35  1  0
 12 36  1  0
 13 37  1  0
 16 38  1  0
 18 39  1  0
 18 40  1  0
 22 41  1  0
 22 42  1  0
 23 43  1  0
 23 44  1  0
 24 45  1  0
 24 46  1  0
M  END
$$$$
