
     RDKit          3D

 57 60  0  0  0  0  0  0  0  0999 V2000
   -1.6399    5.0546    1.0865 C   0  0  0  0  0  0  0  0  0  0  0  0
   -1.6476    4.8605   -0.4342 C   0  0  0  0  0  0  0  0  0  0  0  0
   -0.3111    4.2806   -0.9430 C   0  0  0  0  0  0  0  0  0  0  0  0
   -0.0397    2.8472   -0.4572 C   0  0  0  0  0  0  0  0  0  0  0  0
   -1.2643    1.9815   -0.5327 C   0  0  0  0  0  0  0  0  0  0  0  0
   -2.5250    2.5241   -0.7075 C   0  0  0  0  0  0  0  0  0  0  0  0
   -3.7488    1.3453   -0.7234 S   0  0  0  0  0  0  0  0  0  0  0  0
   -2.6245    0.0923   -0.4610 C   0  0  0  0  0  0  0  0  0  0  0  0
   -3.0472   -1.1751   -0.3494 N   0  0  0  0  0  0  0  0  0  0  0  0
   -2.0606   -2.0514   -0.1369 C   0  0  0  0  0  0  0  0  0  0  0  0
   -2.4390   -3.5192    0.0674 C   0  0  0  0  0  0  0  0  0  0  0  0
   -2.4713   -3.8058    1.5777 C   0  0  0  0  0  0  0  0  0  0  0  0
   -1.4041   -4.4407   -0.6073 C   0  0  0  0  0  0  0  0  0  0  0  0
   -3.8221   -3.8377   -0.5346 C   0  0  0  0  0  0  0  0  0  0  0  0
   -0.7551   -1.7344   -0.0202 N   0  0  0  0  0  0  0  0  0  0  0  0
   -0.3446   -0.4506   -0.1517 C   0  0  0  0  0  0  0  0  0  0  0  0
    1.0291   -0.1452   -0.0566 N   0  0  0  0  0  0  0  0  0  0  0  0
    1.6647   -0.3674   -1.3761 C   0  0  0  0  0  0  0  0  0  0  0  0
    3.1457    0.0490   -1.3149 C   0  0  0  0  0  0  0  0  0  0  0  0
    3.8774   -0.5653   -0.1961 N   0  0  0  0  0  0  0  0  0  0  0  0
    5.2581   -0.6875   -0.3264 C   0  0  0  0  0  0  0  0  0  0  0  0
    5.8349   -0.4126   -1.3827 O   0  0  0  0  0  0  0  0  0  0  0  0
    6.0656   -1.1698    0.8647 C   0  0  0  0  0  0  0  0  0  0  0  0
    5.8467   -2.9187    1.0653 Cl  0  0  0  0  0  0  0  0  0  0  0  0
    3.1724   -0.5433    1.0978 C   0  0  0  0  0  0  0  0  0  0  0  0
    1.6940   -0.9616    0.9814 C   0  0  0  0  0  0  0  0  0  0  0  0
   -1.3173    0.5441   -0.3807 C   0  0  0  0  0  0  0  0  0  0  0  0
   -2.8336    3.9800   -0.8863 C   0  0  0  0  0  0  0  0  0  0  0  0
   -0.8007    5.6894    1.3898 H   0  0  0  0  0  0  0  0  0  0  0  0
   -1.5598    4.1063    1.6267 H   0  0  0  0  0  0  0  0  0  0  0  0
   -2.5625    5.5446    1.4136 H   0  0  0  0  0  0  0  0  0  0  0  0
   -1.7797    5.8541   -0.8826 H   0  0  0  0  0  0  0  0  0  0  0  0
   -0.3321    4.2814   -2.0412 H   0  0  0  0  0  0  0  0  0  0  0  0
    0.5232    4.9284   -0.6490 H   0  0  0  0  0  0  0  0  0  0  0  0
    0.7674    2.4260   -1.0646 H   0  0  0  0  0  0  0  0  0  0  0  0
    0.3117    2.8709    0.5813 H   0  0  0  0  0  0  0  0  0  0  0  0
   -3.2040   -3.1695    2.0879 H   0  0  0  0  0  0  0  0  0  0  0  0
   -2.7391   -4.8496    1.7774 H   0  0  0  0  0  0  0  0  0  0  0  0
   -1.4966   -3.6190    2.0438 H   0  0  0  0  0  0  0  0  0  0  0  0
   -0.4064   -4.3248   -0.1690 H   0  0  0  0  0  0  0  0  0  0  0  0
   -1.3206   -4.2246   -1.6782 H   0  0  0  0  0  0  0  0  0  0  0  0
   -1.6835   -5.4944   -0.4993 H   0  0  0  0  0  0  0  0  0  0  0  0
   -3.8501   -3.6121   -1.6067 H   0  0  0  0  0  0  0  0  0  0  0  0
   -4.0722   -4.8972   -0.4107 H   0  0  0  0  0  0  0  0  0  0  0  0
   -4.6184   -3.2585   -0.0527 H   0  0  0  0  0  0  0  0  0  0  0  0
    1.1661    0.2227   -2.1548 H   0  0  0  0  0  0  0  0  0  0  0  0
    1.5984   -1.4262   -1.6623 H   0  0  0  0  0  0  0  0  0  0  0  0
    3.6293   -0.1987   -2.2656 H   0  0  0  0  0  0  0  0  0  0  0  0
    3.2219    1.1349   -1.1800 H   0  0  0  0  0  0  0  0  0  0  0  0
    7.1273   -0.9797    0.6795 H   0  0  0  0  0  0  0  0  0  0  0  0
    5.7872   -0.6469    1.7822 H   0  0  0  0  0  0  0  0  0  0  0  0
    3.6664   -1.1930    1.8228 H   0  0  0  0  0  0  0  0  0  0  0  0
    3.2431    0.4844    1.4743 H   0  0  0  0  0  0  0  0  0  0  0  0
    1.2071   -0.8130    1.9535 H   0  0  0  0  0  0  0  0  0  0  0  0
    1.6524   -2.0317    0.7350 H   0  0  0  0  0  0  0  0  0  0  0  0
   -3.7438    4.2608   -0.3433 H   0  0  0  0  0  0  0  0  0  0  0  0
   -3.0246    4.1617   -1.9526 H   0  0  0  0  0  0  0  0  0  0  0  0
  1  2  1  0
  2  3  1  0
  3  4  1  0
  4  5  1  0
  5  6  2  0
  6  7  1  0
  7  8  1  0
  8  9  2  0
  9 10  1  0
 10 11  1  0
 11 12  1  0
 11 13  1  0
 11 14  1  0
 10 15  2  0
 15 16  1  0
 16 17  1  0
 17 18  1  0
 18 19  1  0
 19 20  1  0
 20 21  1  0
 21 22  2  0
 21 23  1  0
 23 24  1  0
 20 25  1  0
 25 26  1  0
 16 27  2  0
  6 28  1  0
 28  2  1  0
 27  5  1  0
 27  8  1  0
 26 17  1  0
  1 29  1  0
  1 30  1  0
  1 31  1  0
  2 32  1  0
  3 33  1  0
  3 34  1  0
  4 35  1  0
  4 36  1  0
 12 37  1  0
 12 38  1  0
 12 39  1  0
 13 40  1  0
 13 41  1  0
 13 42  1  0
 14 43  1  0
 14 44  1  0
 14 45  1  0
 18 46  1  0
 18 47  1  0
 19 48  1  0
 19 49  1  0
 23 50  1  0
 23 51  1  0
 25 52  1  0
 25 53  1  0
 26 54  1  0
 26 55  1  0
 28 56  1  0
 28 57  1  0
M  END
$$$$
