
     RDKit          3D

 56 60  0  0  0  0  0  0  0  0999 V2000
    2.3394    0.3835   -4.3445 C   0  0  0  0  0  0  0  0  0  0  0  0
    2.0655    0.0662   -2.8961 C   0  0  0  0  0  0  0  0  0  0  0  0
    0.7729   -0.3259   -2.4525 C   0  0  0  0  0  0  0  0  0  0  0  0
   -0.3129   -0.3952   -3.3435 C   0  0  0  0  0  0  0  0  0  0  0  0
   -1.5750   -0.7700   -2.9082 C   0  0  0  0  0  0  0  0  0  0  0  0
   -1.7819   -1.0798   -1.6177 N   0  0  0  0  0  4  0  0  0  0  0  0
   -3.1372   -1.4969   -1.1638 C   0  0  0  0  0  0  0  0  0  0  0  0
   -3.8681   -0.3090   -0.5132 C   0  0  0  0  0  0  0  0  0  0  0  0
   -3.3340    0.0401    0.8172 N   0  0  0  0  0  0  0  0  0  0  0  0
   -3.6890    1.4190    1.2057 C   0  0  0  0  0  0  0  0  0  0  0  0
   -5.0804    1.5433    1.8209 C   0  0  0  0  0  0  0  0  0  0  0  0
   -5.2622    0.6299    3.0410 C   0  0  0  0  0  0  0  0  0  0  0  0
   -4.1009   -0.3484    3.1990 C   0  0  0  0  0  0  0  0  0  0  0  0
   -3.7229   -0.9538    1.8429 C   0  0  0  0  0  0  0  0  0  0  0  0
   -0.7650   -1.0221   -0.7305 C   0  0  0  0  0  0  0  0  0  0  0  0
    0.5431   -0.6557   -1.0964 C   0  0  0  0  0  0  0  0  0  0  0  0
    1.6138   -0.6096   -0.1467 C   0  0  0  0  0  0  0  0  0  0  0  0
    1.3928   -1.0325    1.2871 C   0  0  0  0  0  0  0  0  0  0  0  0
    2.8834   -0.1213   -0.5700 C   0  0  0  0  0  0  0  0  0  0  0  0
    3.0722    0.1760   -1.9175 C   0  0  0  0  0  0  0  0  0  0  0  0
    4.3864    0.5748   -2.0587 N   0  0  0  0  0  0  0  0  0  0  0  0
    5.0403    0.5964   -0.8583 C   0  0  0  0  0  0  0  0  0  0  0  0
    6.3597    0.9634   -0.5679 C   0  0  0  0  0  0  0  0  0  0  0  0
    6.7642    0.9240    0.7691 C   0  0  0  0  0  0  0  0  0  0  0  0
    5.8713    0.5357    1.7595 C   0  0  0  0  0  0  0  0  0  0  0  0
    6.2318    0.5114    3.0784 O   0  0  0  0  0  0  0  0  0  0  0  0
    4.5621    0.1648    1.4529 C   0  0  0  0  0  0  0  0  0  0  0  0
    4.1262    0.1821    0.1079 C   0  0  0  0  0  0  0  0  0  0  0  0
    2.0940   -0.4772   -4.9748 H   0  0  0  0  0  0  0  0  0  0  0  0
    1.7511    1.2509   -4.6584 H   0  0  0  0  0  0  0  0  0  0  0  0
    3.3911    0.6187   -4.5267 H   0  0  0  0  0  0  0  0  0  0  0  0
   -0.1940   -0.1505   -4.3969 H   0  0  0  0  0  0  0  0  0  0  0  0
   -2.4202   -0.8215   -3.5882 H   0  0  0  0  0  0  0  0  0  0  0  0
   -3.6902   -1.8470   -2.0425 H   0  0  0  0  0  0  0  0  0  0  0  0
   -3.0191   -2.3542   -0.4911 H   0  0  0  0  0  0  0  0  0  0  0  0
   -4.9430   -0.5304   -0.4493 H   0  0  0  0  0  0  0  0  0  0  0  0
   -3.7704    0.5501   -1.1930 H   0  0  0  0  0  0  0  0  0  0  0  0
   -2.9411    1.7713    1.9300 H   0  0  0  0  0  0  0  0  0  0  0  0
   -3.5928    2.1028    0.3518 H   0  0  0  0  0  0  0  0  0  0  0  0
   -5.2585    2.5876    2.1120 H   0  0  0  0  0  0  0  0  0  0  0  0
   -5.8447    1.3035    1.0653 H   0  0  0  0  0  0  0  0  0  0  0  0
   -5.3722    1.2270    3.9630 H   0  0  0  0  0  0  0  0  0  0  0  0
   -6.2090    0.0674    2.9252 H   0  0  0  0  0  0  0  0  0  0  0  0
   -4.3853   -1.1421    3.9011 H   0  0  0  0  0  0  0  0  0  0  0  0
   -3.2330    0.1604    3.6424 H   0  0  0  0  0  0  0  0  0  0  0  0
   -2.8785   -1.6427    1.9836 H   0  0  0  0  0  0  0  0  0  0  0  0
   -4.5768   -1.5562    1.5032 H   0  0  0  0  0  0  0  0  0  0  0  0
   -1.0327   -1.2663    0.2891 H   0  0  0  0  0  0  0  0  0  0  0  0
    0.6585   -1.8377    1.3692 H   0  0  0  0  0  0  0  0  0  0  0  0
    1.0641   -0.1773    1.8824 H   0  0  0  0  0  0  0  0  0  0  0  0
    2.3037   -1.4541    1.7219 H   0  0  0  0  0  0  0  0  0  0  0  0
    4.8158    0.8484   -2.9304 H   0  0  0  0  0  0  0  0  0  0  0  0
    7.0489    1.2782   -1.3478 H   0  0  0  0  0  0  0  0  0  0  0  0
    7.7805    1.2111    1.0146 H   0  0  0  0  0  0  0  0  0  0  0  0
    7.1592    0.8023    3.1490 H   0  0  0  0  0  0  0  0  0  0  0  0
    3.8991   -0.1129    2.2657 H   0  0  0  0  0  0  0  0  0  0  0  0
  1  2  1  0
  2  3  2  0
  3  4  1  0
  4  5  2  0
  5  6  1  0
  6  7  1  0
  7  8  1  0
  8  9  1  0
  9 10  1  0
 10 11  1  0
 11 12  1  0
 12 13  1  0
 13 14  1  0
  6 15  2  0
 15 16  1  0
 16 17  2  0
 17 18  1  0
 17 19  1  0
 19 20  2  0
 20 21  1  0
 21 22  1  0
 22 23  2  0
 23 24  1  0
 24 25  2  0
 25 26  1  0
 25 27  1  0
 27 28  2  0
 20  2  1  0
 28 22  1  0
 16  3  1  0
 28 19  1  0
 14  9  1  0
  1 29  1  0
  1 30  1  0
  1 31  1  0
  4 32  1  0
  5 33  1  0
  7 34  1  0
  7 35  1  0
  8 36  1  0
  8 37  1  0
 10 38  1  0
 10 39  1  0
 11 40  1  0
 11 41  1  0
 12 42  1  0
 12 43  1  0
 13 44  1  0
 13 45  1  0
 14 46  1  0
 14 47  1  0
 15 48  1  0
 18 49  1  0
 18 50  1  0
 18 51  1  0
 21 52  1  0
 23 53  1  0
 24 54  1  0
 26 55  1  0
 27 56  1  0
M  CHG  1   6   1
M  END
$$$$
