
     RDKit          3D

 39 39  0  0  0  0  0  0  0  0999 V2000
   -1.5156   -3.8184   -1.6526 C   0  0  0  0  0  0  0  0  0  0  0  0
   -1.2774   -2.4580   -1.2927 O   0  0  0  0  0  0  0  0  0  0  0  0
   -2.4093   -1.7541   -0.9944 C   0  0  0  0  0  0  0  0  0  0  0  0
   -3.5473   -2.2004   -1.0948 O   0  0  0  0  0  0  0  0  0  0  0  0
   -2.0927   -0.2961   -0.6129 C   0  0  0  0  0  0  0  0  0  0  0  0
   -2.6349    0.6131   -1.7249 C   0  0  0  0  0  0  0  0  0  0  0  0
   -2.5947    2.1069   -1.4020 C   0  0  0  0  0  0  0  0  0  0  0  0
   -3.6362    2.6211    0.0050 S   0  0  0  0  0  0  0  0  0  0  0  0
   -5.2766    2.2714   -0.6757 C   0  0  0  0  0  0  0  0  0  0  0  0
   -0.6552   -0.0713   -0.4280 N   0  0  0  0  0  0  0  0  0  0  0  0
   -0.0859   -0.3533    0.7872 C   0  0  0  0  0  0  0  0  0  0  0  0
   -0.7070   -0.7019    1.7803 O   0  0  0  0  0  0  0  0  0  0  0  0
    1.2704   -0.2127    0.7399 N   0  0  0  0  0  0  0  0  0  0  0  0
    2.0502   -0.3264    1.9532 C   0  0  0  0  0  0  0  0  0  0  0  0
    3.5162   -0.0469    1.7030 C   0  0  0  0  0  0  0  0  0  0  0  0
    4.4699   -0.4818    2.6203 C   0  0  0  0  0  0  0  0  0  0  0  0
    5.8102   -0.1871    2.3875 C   0  0  0  0  0  0  0  0  0  0  0  0
    6.1623    0.5362    1.2543 C   0  0  0  0  0  0  0  0  0  0  0  0
    5.1541    0.9440    0.3983 C   0  0  0  0  0  0  0  0  0  0  0  0
    3.8444    0.6766    0.5958 N   0  0  0  0  0  0  0  0  0  0  0  0
   -2.1112   -3.8731   -2.5690 H   0  0  0  0  0  0  0  0  0  0  0  0
   -2.0104   -4.3524   -0.8348 H   0  0  0  0  0  0  0  0  0  0  0  0
   -0.5487   -4.2934   -1.8404 H   0  0  0  0  0  0  0  0  0  0  0  0
   -2.6034   -0.1131    0.3389 H   0  0  0  0  0  0  0  0  0  0  0  0
   -3.6584    0.3217   -1.9893 H   0  0  0  0  0  0  0  0  0  0  0  0
   -2.0430    0.4502   -2.6362 H   0  0  0  0  0  0  0  0  0  0  0  0
   -2.9070    2.6817   -2.2809 H   0  0  0  0  0  0  0  0  0  0  0  0
   -1.5677    2.4146   -1.1792 H   0  0  0  0  0  0  0  0  0  0  0  0
   -6.0345    2.6786   -0.0012 H   0  0  0  0  0  0  0  0  0  0  0  0
   -5.4387    1.1944   -0.7591 H   0  0  0  0  0  0  0  0  0  0  0  0
   -5.3967    2.7435   -1.6535 H   0  0  0  0  0  0  0  0  0  0  0  0
   -0.0676   -0.3738   -1.1930 H   0  0  0  0  0  0  0  0  0  0  0  0
    1.6360    0.4631    0.0814 H   0  0  0  0  0  0  0  0  0  0  0  0
    1.9102   -1.3379    2.3493 H   0  0  0  0  0  0  0  0  0  0  0  0
    1.6649    0.3931    2.6836 H   0  0  0  0  0  0  0  0  0  0  0  0
    4.1788   -1.0414    3.5035 H   0  0  0  0  0  0  0  0  0  0  0  0
    6.5737   -0.5175    3.0861 H   0  0  0  0  0  0  0  0  0  0  0  0
    7.1976    0.7811    1.0452 H   0  0  0  0  0  0  0  0  0  0  0  0
    5.3810    1.5146   -0.4981 H   0  0  0  0  0  0  0  0  0  0  0  0
  1  2  1  0
  2  3  1  0
  3  4  2  0
  3  5  1  0
  5  6  1  0
  6  7  1  0
  7  8  1  0
  8  9  1  0
  5 10  1  0
 10 11  1  0
 11 12  2  0
 11 13  1  0
 13 14  1  0
 14 15  1  0
 15 16  2  0
 16 17  1  0
 17 18  2  0
 18 19  1  0
 19 20  2  0
 20 15  1  0
  1 21  1  0
  1 22  1  0
  1 23  1  0
  5 24  1  0
  6 25  1  0
  6 26  1  0
  7 27  1  0
  7 28  1  0
  9 29  1  0
  9 30  1  0
  9 31  1  0
 10 32  1  0
 13 33  1  0
 14 34  1  0
 14 35  1  0
 16 36  1  0
 17 37  1  0
 18 38  1  0
 19 39  1  0
M  END
$$$$
