
     RDKit          3D

 47 49  0  0  0  0  0  0  0  0999 V2000
    6.8173    0.1885    0.4432 C   0  0  0  0  0  0  0  0  0  0  0  0
    5.5901    1.0323    0.7518 C   0  0  0  0  0  0  0  0  0  0  0  0
    4.3443    0.6048   -0.0263 C   0  0  0  0  0  0  0  0  0  0  0  0
    3.8359   -0.7857    0.3642 C   0  0  0  0  0  0  0  0  0  0  0  0
    2.6045   -1.1466   -0.3355 N   0  0  0  0  0  0  0  0  0  0  0  0
    1.3543   -0.6197    0.1843 C   0  0  0  0  0  0  0  0  0  0  0  0
    0.1426   -1.1987   -0.4646 C   0  0  0  0  0  0  0  0  0  0  0  0
   -1.1400   -1.0603    0.0758 C   0  0  0  0  0  0  0  0  0  0  0  0
   -2.2325   -1.5675   -0.6300 C   0  0  0  0  0  0  0  0  0  0  0  0
   -3.6168   -1.4828   -0.1275 C   0  0  0  0  0  0  0  0  0  0  0  0
   -4.3675   -2.4442   -0.2828 O   0  0  0  0  0  0  0  0  0  0  0  0
   -4.1262   -0.2879    0.5900 C   0  0  0  0  0  0  0  0  0  0  0  0
   -3.6514    0.9986    0.2858 C   0  0  0  0  0  0  0  0  0  0  0  0
   -4.1294    2.1049    0.9920 C   0  0  0  0  0  0  0  0  0  0  0  0
   -3.7437    3.4033    0.8058 O   0  0  0  0  0  0  0  0  0  0  0  0
   -2.8616    3.6737   -0.2765 C   0  0  0  0  0  0  0  0  0  0  0  0
   -5.0864    1.9211    1.9944 C   0  0  0  0  0  0  0  0  0  0  0  0
   -5.5860    0.6500    2.2790 C   0  0  0  0  0  0  0  0  0  0  0  0
   -5.1171   -0.4476    1.5674 C   0  0  0  0  0  0  0  0  0  0  0  0
   -5.6691   -1.6610    1.8763 O   0  0  0  0  0  0  0  0  0  0  0  0
   -1.9934   -2.2105   -1.8363 C   0  0  0  0  0  0  0  0  0  0  0  0
   -0.7623   -2.3342   -2.3893 N   0  0  0  0  0  0  0  0  0  0  0  0
    0.2739   -1.8339   -1.6873 C   0  0  0  0  0  0  0  0  0  0  0  0
    1.5321   -1.9731   -2.2358 N   0  0  0  0  0  0  0  0  0  0  0  0
    2.6996   -1.6716   -1.6097 C   0  0  0  0  0  0  0  0  0  0  0  0
    3.7700   -1.8974   -2.1705 O   0  0  0  0  0  0  0  0  0  0  0  0
    7.6945    0.6025    0.9507 H   0  0  0  0  0  0  0  0  0  0  0  0
    6.6928   -0.8423    0.7871 H   0  0  0  0  0  0  0  0  0  0  0  0
    7.0237    0.1732   -0.6316 H   0  0  0  0  0  0  0  0  0  0  0  0
    5.8143    2.0761    0.5014 H   0  0  0  0  0  0  0  0  0  0  0  0
    5.3869    1.0016    1.8286 H   0  0  0  0  0  0  0  0  0  0  0  0
    3.5565    1.3450    0.1588 H   0  0  0  0  0  0  0  0  0  0  0  0
    4.5510    0.6407   -1.1029 H   0  0  0  0  0  0  0  0  0  0  0  0
    3.6478   -0.8424    1.4425 H   0  0  0  0  0  0  0  0  0  0  0  0
    4.5946   -1.5406    0.1306 H   0  0  0  0  0  0  0  0  0  0  0  0
    1.3266   -0.8294    1.2598 H   0  0  0  0  0  0  0  0  0  0  0  0
    1.3550    0.4657    0.0340 H   0  0  0  0  0  0  0  0  0  0  0  0
   -1.2724   -0.5757    1.0399 H   0  0  0  0  0  0  0  0  0  0  0  0
   -2.9247    1.1265   -0.5084 H   0  0  0  0  0  0  0  0  0  0  0  0
   -1.8903    3.1928   -0.1204 H   0  0  0  0  0  0  0  0  0  0  0  0
   -3.3033    3.3718   -1.2319 H   0  0  0  0  0  0  0  0  0  0  0  0
   -2.6965    4.7548   -0.3118 H   0  0  0  0  0  0  0  0  0  0  0  0
   -5.4594    2.7797    2.5489 H   0  0  0  0  0  0  0  0  0  0  0  0
   -6.3453    0.5191    3.0454 H   0  0  0  0  0  0  0  0  0  0  0  0
   -5.4246   -2.2945    1.1646 H   0  0  0  0  0  0  0  0  0  0  0  0
   -2.8034   -2.6494   -2.4146 H   0  0  0  0  0  0  0  0  0  0  0  0
    1.5951   -2.4300   -3.1333 H   0  0  0  0  0  0  0  0  0  0  0  0
  1  2  1  0
  2  3  1  0
  3  4  1  0
  4  5  1  0
  5  6  1  0
  6  7  1  0
  7  8  2  0
  8  9  1  0
  9 10  1  0
 10 11  2  0
 10 12  1  0
 12 13  2  0
 13 14  1  0
 14 15  1  0
 15 16  1  0
 14 17  2  0
 17 18  1  0
 18 19  2  0
 19 20  1  0
  9 21  2  0
 21 22  1  0
 22 23  2  0
 23 24  1  0
 24 25  1  0
 25 26  2  0
 25  5  1  0
 23  7  1  0
 19 12  1  0
  1 27  1  0
  1 28  1  0
  1 29  1  0
  2 30  1  0
  2 31  1  0
  3 32  1  0
  3 33  1  0
  4 34  1  0
  4 35  1  0
  6 36  1  0
  6 37  1  0
  8 38  1  0
 13 39  1  0
 16 40  1  0
 16 41  1  0
 16 42  1  0
 17 43  1  0
 18 44  1  0
 20 45  1  0
 21 46  1  0
 24 47  1  0
M  END
$$$$
