
     RDKit          3D

 40 41  0  0  0  0  0  0  0  0999 V2000
   -5.0275   -0.5196   -1.2710 C   0  0  0  0  0  0  0  0  0  0  0  0
   -4.4188    0.4556   -0.2627 C   0  0  0  0  0  0  0  0  0  0  0  0
   -3.7710    1.6437   -0.9937 C   0  0  0  0  0  0  0  0  0  0  0  0
   -2.6564    2.2730   -0.1677 C   0  0  0  0  0  0  0  0  0  0  0  0
   -1.5941    1.3113    0.1179 N   0  0  0  0  0  0  0  0  0  0  0  0
   -0.3465    1.8192    0.4796 C   0  0  0  0  0  0  0  0  0  0  0  0
   -0.1349    3.0153    0.6665 O   0  0  0  0  0  0  0  0  0  0  0  0
    0.7909    0.8842    0.6470 C   0  0  0  0  0  0  0  0  0  0  0  0
    1.1358   -0.0184   -0.3657 C   0  0  0  0  0  0  0  0  0  0  0  0
    2.2254   -0.8750   -0.1905 C   0  0  0  0  0  0  0  0  0  0  0  0
    2.9672   -0.8236    0.9908 C   0  0  0  0  0  0  0  0  0  0  0  0
    4.1007   -1.6731    1.1551 N   0  0  0  0  0  0  0  0  0  0  0  0
    5.5551   -1.1615    0.4479 S   0  0  0  0  0  6  0  0  0  0  0  0
    5.6686   -2.2758   -0.9337 C   0  0  0  0  0  0  0  0  0  0  0  0
    5.4311    0.1894   -0.0485 O   0  0  0  0  0  0  0  0  0  0  0  0
    6.5877   -1.5316    1.3929 O   0  0  0  0  0  0  0  0  0  0  0  0
    2.6516    0.1064    1.9835 C   0  0  0  0  0  0  0  0  0  0  0  0
    1.5626    0.9639    1.8110 C   0  0  0  0  0  0  0  0  0  0  0  0
   -1.9802   -0.0982    0.2359 C   0  0  0  0  0  0  0  0  0  0  0  0
   -3.4323   -0.2536    0.6818 C   0  0  0  0  0  0  0  0  0  0  0  0
   -5.5650   -1.3238   -0.7575 H   0  0  0  0  0  0  0  0  0  0  0  0
   -5.7403   -0.0065   -1.9254 H   0  0  0  0  0  0  0  0  0  0  0  0
   -4.2557   -0.9765   -1.8996 H   0  0  0  0  0  0  0  0  0  0  0  0
   -5.2432    0.8383    0.3539 H   0  0  0  0  0  0  0  0  0  0  0  0
   -4.5363    2.3937   -1.2254 H   0  0  0  0  0  0  0  0  0  0  0  0
   -3.3534    1.3146   -1.9544 H   0  0  0  0  0  0  0  0  0  0  0  0
   -3.0422    2.6390    0.7915 H   0  0  0  0  0  0  0  0  0  0  0  0
   -2.2336    3.1319   -0.7012 H   0  0  0  0  0  0  0  0  0  0  0  0
    0.5732   -0.0428   -1.2951 H   0  0  0  0  0  0  0  0  0  0  0  0
    2.4858   -1.5756   -0.9775 H   0  0  0  0  0  0  0  0  0  0  0  0
    4.2966   -1.9421    2.1220 H   0  0  0  0  0  0  0  0  0  0  0  0
    6.6222   -2.0933   -1.4340 H   0  0  0  0  0  0  0  0  0  0  0  0
    5.6350   -3.3030   -0.5661 H   0  0  0  0  0  0  0  0  0  0  0  0
    4.8472   -2.0772   -1.6235 H   0  0  0  0  0  0  0  0  0  0  0  0
    3.2544    0.1874    2.8838 H   0  0  0  0  0  0  0  0  0  0  0  0
    1.3224    1.7011    2.5741 H   0  0  0  0  0  0  0  0  0  0  0  0
   -1.3295   -0.6093    0.9518 H   0  0  0  0  0  0  0  0  0  0  0  0
   -1.8364   -0.5607   -0.7470 H   0  0  0  0  0  0  0  0  0  0  0  0
   -3.5334    0.1885    1.6822 H   0  0  0  0  0  0  0  0  0  0  0  0
   -3.6824   -1.3154    0.7886 H   0  0  0  0  0  0  0  0  0  0  0  0
  1  2  1  0
  2  3  1  0
  3  4  1  0
  4  5  1  0
  5  6  1  0
  6  7  2  0
  6  8  1  0
  8  9  2  0
  9 10  1  0
 10 11  2  0
 11 12  1  0
 12 13  1  0
 13 14  1  0
 13 15  2  0
 13 16  2  0
 11 17  1  0
 17 18  2  0
  5 19  1  0
 19 20  1  0
 20  2  1  0
 18  8  1  0
  1 21  1  0
  1 22  1  0
  1 23  1  0
  2 24  1  0
  3 25  1  0
  3 26  1  0
  4 27  1  0
  4 28  1  0
  9 29  1  0
 10 30  1  0
 12 31  1  0
 14 32  1  0
 14 33  1  0
 14 34  1  0
 17 35  1  0
 18 36  1  0
 19 37  1  0
 19 38  1  0
 20 39  1  0
 20 40  1  0
M  END
$$$$
