
     RDKit          3D

 48 52  0  0  0  0  0  0  0  0999 V2000
    5.6729   -0.9497   -0.2575 C   0  0  0  0  0  0  0  0  0  0  0  0
    4.2436   -0.5680   -0.5027 C   0  0  0  0  0  0  0  0  0  0  0  0
    3.6944   -0.6677   -1.7845 C   0  0  0  0  0  0  0  0  0  0  0  0
    2.3529   -0.3458   -2.0085 C   0  0  0  0  0  0  0  0  0  0  0  0
    1.5251    0.0817   -0.9571 C   0  0  0  0  0  0  0  0  0  0  0  0
    0.0791    0.4165   -1.2534 C   0  0  0  0  0  0  0  0  0  0  0  0
   -0.1922    1.7750   -0.7302 C   0  0  0  0  0  0  0  0  0  0  0  0
   -1.2128    1.7492    0.2332 C   0  0  0  0  0  0  0  0  0  0  0  0
   -1.4801    3.0304    0.6302 C   0  0  0  0  0  0  0  0  0  0  0  0
   -2.3936    3.4709    1.4864 O   0  0  0  0  0  0  0  0  0  0  0  0
   -0.5880    3.8418   -0.0598 N   0  0  0  0  0  0  0  0  0  0  0  0
   -0.5071    5.2811    0.0532 C   0  0  0  0  0  0  0  0  0  0  0  0
    0.2149    3.0734   -0.8883 C   0  0  0  0  0  0  0  0  0  0  0  0
    1.1655    3.6185   -1.6360 O   0  0  0  0  0  0  0  0  0  0  0  0
   -1.6996    0.3778    0.4873 C   0  0  0  0  0  0  0  0  0  0  0  0
   -1.3926   -0.1643    1.8796 C   0  0  0  0  0  0  0  0  0  0  0  0
   -0.9389    0.5024    2.8121 O   0  0  0  0  0  0  0  0  0  0  0  0
   -1.7508   -1.4640    2.1410 N   0  0  0  0  0  0  0  0  0  0  0  0
   -2.3297   -2.4119    1.2791 C   0  0  0  0  0  0  0  0  0  0  0  0
   -3.1015   -3.3973    1.9218 C   0  0  0  0  0  0  0  0  0  0  0  0
   -3.7702   -4.3841    1.1958 C   0  0  0  0  0  0  0  0  0  0  0  0
   -3.6605   -4.4169   -0.1872 C   0  0  0  0  0  0  0  0  0  0  0  0
   -2.8630   -3.4754   -0.8366 C   0  0  0  0  0  0  0  0  0  0  0  0
   -2.1846   -2.4689   -0.1186 C   0  0  0  0  0  0  0  0  0  0  0  0
   -1.2327   -1.6469   -0.9203 C   0  0  0  0  0  0  0  0  0  0  0  0
   -0.7724   -2.1193   -1.9592 O   0  0  0  0  0  0  0  0  0  0  0  0
   -0.8938   -0.3917   -0.4863 N   0  0  0  0  0  0  0  0  0  0  0  0
    2.0803    0.1510    0.3323 C   0  0  0  0  0  0  0  0  0  0  0  0
    3.4222   -0.1703    0.5561 C   0  0  0  0  0  0  0  0  0  0  0  0
    6.0735   -0.4305    0.6197 H   0  0  0  0  0  0  0  0  0  0  0  0
    6.3004   -0.6749   -1.1123 H   0  0  0  0  0  0  0  0  0  0  0  0
    5.7488   -2.0292   -0.0932 H   0  0  0  0  0  0  0  0  0  0  0  0
    4.3050   -1.0079   -2.6179 H   0  0  0  0  0  0  0  0  0  0  0  0
    1.9495   -0.4524   -3.0142 H   0  0  0  0  0  0  0  0  0  0  0  0
   -0.1562    0.3542   -2.3222 H   0  0  0  0  0  0  0  0  0  0  0  0
   -2.2363    4.4081    1.6833 H   0  0  0  0  0  0  0  0  0  0  0  0
   -1.4997    5.6981   -0.1361 H   0  0  0  0  0  0  0  0  0  0  0  0
    0.1987    5.6844   -0.6758 H   0  0  0  0  0  0  0  0  0  0  0  0
   -0.1743    5.5249    1.0653 H   0  0  0  0  0  0  0  0  0  0  0  0
    1.7000    2.8866   -1.9969 H   0  0  0  0  0  0  0  0  0  0  0  0
   -2.7664    0.2794    0.2607 H   0  0  0  0  0  0  0  0  0  0  0  0
   -1.7094   -1.6737    3.1318 H   0  0  0  0  0  0  0  0  0  0  0  0
   -3.2148   -3.3930    3.0045 H   0  0  0  0  0  0  0  0  0  0  0  0
   -4.3752   -5.1254    1.7124 H   0  0  0  0  0  0  0  0  0  0  0  0
   -4.1722   -5.1854   -0.7614 H   0  0  0  0  0  0  0  0  0  0  0  0
   -2.7488   -3.5445   -1.9181 H   0  0  0  0  0  0  0  0  0  0  0  0
    1.4729    0.4616    1.1809 H   0  0  0  0  0  0  0  0  0  0  0  0
    3.8179   -0.1075    1.5674 H   0  0  0  0  0  0  0  0  0  0  0  0
  1  2  1  0
  2  3  2  0
  3  4  1  0
  4  5  2  0
  5  6  1  0
  6  7  1  0
  7  8  1  0
  8  9  2  0
  9 10  1  0
  9 11  1  0
 11 12  1  0
 11 13  1  0
 13 14  1  0
  8 15  1  0
 15 16  1  0
 16 17  2  0
 16 18  1  0
 18 19  1  0
 19 20  2  0
 20 21  1  0
 21 22  2  0
 22 23  1  0
 23 24  2  0
 24 25  1  0
 25 26  2  0
 25 27  1  0
  5 28  1  0
 28 29  2  0
 29  2  1  0
 27  6  1  0
 13  7  2  0
 27 15  1  0
 24 19  1  0
  1 30  1  0
  1 31  1  0
  1 32  1  0
  3 33  1  0
  4 34  1  0
  6 35  1  0
 10 36  1  0
 12 37  1  0
 12 38  1  0
 12 39  1  0
 14 40  1  0
 15 41  1  0
 18 42  1  0
 20 43  1  0
 21 44  1  0
 22 45  1  0
 23 46  1  0
 28 47  1  0
 29 48  1  0
M  END
$$$$
