
     RDKit          3D

 42 45  0  0  0  0  0  0  0  0999 V2000
    6.0833   -2.8478   -1.0219 O   0  0  0  0  0  0  0  0  0  0  0  0
    6.3528   -2.8373    0.1661 C   0  0  0  0  0  0  0  0  0  0  0  0
    7.1069   -3.8123    0.7095 O   0  0  0  0  0  0  0  0  0  0  0  0
    5.9427   -1.8132    1.1883 C   0  0  0  0  0  0  0  0  0  0  0  0
    5.0308   -0.7502    0.5815 C   0  0  0  0  0  0  0  0  0  0  0  0
    4.6251    0.2918    1.6251 C   0  0  0  0  0  0  0  0  0  0  0  0
    3.7362    1.3071    1.0570 N   0  0  0  0  0  0  0  0  0  0  0  0
    2.3729    1.0485    1.0269 C   0  0  0  0  0  0  0  0  0  0  0  0
    1.8564    0.0230    1.4464 O   0  0  0  0  0  0  0  0  0  0  0  0
    1.6361    2.1801    0.3918 C   0  0  0  0  0  0  0  0  0  0  0  0
    0.3239    2.3518    0.1797 C   0  0  0  0  0  0  0  0  0  0  0  0
   -0.7295    1.4810    0.5655 C   0  0  0  0  0  0  0  0  0  0  0  0
   -0.9420    0.7189    1.7038 C   0  0  0  0  0  0  0  0  0  0  0  0
   -2.1913    0.0662    1.5666 C   0  0  0  0  0  0  0  0  0  0  0  0
   -2.7305    0.4661    0.3576 C   0  0  0  0  0  0  0  0  0  0  0  0
   -3.9799    0.1102   -0.2659 C   0  0  0  0  0  0  0  0  0  0  0  0
   -4.3516    0.6205   -1.4208 N   0  0  0  0  0  0  0  0  0  0  0  0
   -5.5839    0.1129   -1.7926 C   0  0  0  0  0  0  0  0  0  0  0  0
   -6.2891    0.4341   -2.9701 C   0  0  0  0  0  0  0  0  0  0  0  0
   -7.5320   -0.1566   -3.2202 C   0  0  0  0  0  0  0  0  0  0  0  0
   -8.0777   -1.0600   -2.3136 C   0  0  0  0  0  0  0  0  0  0  0  0
   -7.3982   -1.3953   -1.1382 C   0  0  0  0  0  0  0  0  0  0  0  0
   -6.1506   -0.7957   -0.8978 C   0  0  0  0  0  0  0  0  0  0  0  0
   -5.0854   -1.0002    0.4377 S   0  0  0  0  0  0  0  0  0  0  0  0
   -1.8449    1.3352   -0.2267 O   0  0  0  0  0  0  0  0  0  0  0  0
    2.7805    3.3691   -0.1424 S   0  0  0  0  0  0  0  0  0  0  0  0
    4.1629    2.4748    0.4637 C   0  0  0  0  0  0  0  0  0  0  0  0
    5.7236    3.0417    0.3034 S   0  0  0  0  0  0  0  0  0  0  0  0
    7.3086   -4.4063   -0.0442 H   0  0  0  0  0  0  0  0  0  0  0  0
    5.4199   -2.3293    2.0011 H   0  0  0  0  0  0  0  0  0  0  0  0
    6.8498   -1.3451    1.5859 H   0  0  0  0  0  0  0  0  0  0  0  0
    4.1359   -1.2267    0.1613 H   0  0  0  0  0  0  0  0  0  0  0  0
    5.5372   -0.2620   -0.2603 H   0  0  0  0  0  0  0  0  0  0  0  0
    5.5140    0.7716    2.0473 H   0  0  0  0  0  0  0  0  0  0  0  0
    4.1075   -0.2027    2.4561 H   0  0  0  0  0  0  0  0  0  0  0  0
   -0.0064    3.2273   -0.3765 H   0  0  0  0  0  0  0  0  0  0  0  0
   -0.2710    0.6362    2.5478 H   0  0  0  0  0  0  0  0  0  0  0  0
   -2.6420   -0.6116    2.2780 H   0  0  0  0  0  0  0  0  0  0  0  0
   -5.8584    1.1393   -3.6741 H   0  0  0  0  0  0  0  0  0  0  0  0
   -8.0721    0.0941   -4.1303 H   0  0  0  0  0  0  0  0  0  0  0  0
   -9.0454   -1.5125   -2.5206 H   0  0  0  0  0  0  0  0  0  0  0  0
   -7.8252   -2.1007   -0.4319 H   0  0  0  0  0  0  0  0  0  0  0  0
  1  2  2  0
  2  3  1  0
  2  4  1  0
  4  5  1  0
  5  6  1  0
  6  7  1  0
  7  8  1  0
  8  9  2  0
  8 10  1  0
 10 11  2  3
 11 12  1  0
 12 13  2  0
 13 14  1  0
 14 15  2  0
 15 16  1  0
 16 17  2  0
 17 18  1  0
 18 19  2  0
 19 20  1  0
 20 21  2  0
 21 22  1  0
 22 23  2  0
 23 24  1  0
 15 25  1  0
 10 26  1  0
 26 27  1  0
 27 28  2  0
 27  7  1  0
 25 12  1  0
 24 16  1  0
 23 18  1  0
  3 29  1  0
  4 30  1  0
  4 31  1  0
  5 32  1  0
  5 33  1  0
  6 34  1  0
  6 35  1  0
 11 36  1  0
 13 37  1  0
 14 38  1  0
 19 39  1  0
 20 40  1  0
 21 41  1  0
 22 42  1  0
M  END
$$$$
