
     RDKit          3D

 49 52  0  0  0  0  0  0  0  0999 V2000
   -3.0660   -4.7632   -2.5399 C   0  0  0  0  0  0  0  0  0  0  0  0
   -3.3082   -4.3976   -1.1872 O   0  0  0  0  0  0  0  0  0  0  0  0
   -2.7274   -3.2390   -0.7494 C   0  0  0  0  0  0  0  0  0  0  0  0
   -1.9505   -2.3692   -1.5133 C   0  0  0  0  0  0  0  0  0  0  0  0
   -1.4095   -1.2139   -0.9352 C   0  0  0  0  0  0  0  0  0  0  0  0
   -1.6300   -0.9093    0.4176 C   0  0  0  0  0  0  0  0  0  0  0  0
   -1.0474    0.3523    1.0610 C   0  0  0  0  0  0  0  0  0  0  0  0
    0.4074    0.4244    0.8019 N   0  0  0  0  0  0  0  0  0  0  0  0
    0.8234    1.2978   -0.0479 C   0  0  0  0  0  0  0  0  0  0  0  0
    2.1170    1.4626   -0.4785 N   0  0  0  0  0  0  0  0  0  0  0  0
    3.2687    0.7128   -0.1561 C   0  0  0  0  0  0  0  0  0  0  0  0
    4.4503    0.9674   -0.8746 C   0  0  0  0  0  0  0  0  0  0  0  0
    5.6361    0.2748   -0.6041 C   0  0  0  0  0  0  0  0  0  0  0  0
    5.6735   -0.6942    0.3991 C   0  0  0  0  0  0  0  0  0  0  0  0
    6.9466   -1.4220    0.7127 C   0  0  0  0  0  0  0  0  0  0  0  0
    4.5168   -0.9305    1.1451 C   0  0  0  0  0  0  0  0  0  0  0  0
    3.3325   -0.2340    0.8699 C   0  0  0  0  0  0  0  0  0  0  0  0
   -0.0315    2.1873   -0.6237 N   0  0  0  0  0  0  0  0  0  0  0  0
   -1.3140    2.4026   -0.2369 C   0  0  0  0  0  0  0  0  0  0  0  0
   -1.9726    3.4183   -0.7099 N   0  0  0  0  0  0  0  0  0  0  0  0
   -3.2469    3.6216   -0.2441 C   0  0  0  0  0  0  0  0  0  0  0  0
   -3.9795    4.7812   -0.8561 C   0  0  0  0  0  0  0  0  0  0  0  0
   -3.8162    2.8652    0.7012 C   0  0  0  0  0  0  0  0  0  0  0  0
   -3.0536    1.7362    1.2577 C   0  0  0  0  0  0  0  0  0  0  0  0
   -3.5460    1.0745    2.1671 O   0  0  0  0  0  0  0  0  0  0  0  0
   -1.8170    1.5313    0.6926 N   0  0  0  0  0  0  0  0  0  0  0  0
   -2.4216   -1.7872    1.1726 C   0  0  0  0  0  0  0  0  0  0  0  0
   -2.9626   -2.9384    0.5930 C   0  0  0  0  0  0  0  0  0  0  0  0
   -1.9968   -4.9122   -2.7258 H   0  0  0  0  0  0  0  0  0  0  0  0
   -3.4892   -4.0239   -3.2283 H   0  0  0  0  0  0  0  0  0  0  0  0
   -3.5708   -5.7166   -2.7238 H   0  0  0  0  0  0  0  0  0  0  0  0
   -1.7404   -2.5592   -2.5595 H   0  0  0  0  0  0  0  0  0  0  0  0
   -0.8004   -0.5576   -1.5527 H   0  0  0  0  0  0  0  0  0  0  0  0
   -1.1429    0.2466    2.1498 H   0  0  0  0  0  0  0  0  0  0  0  0
    2.2464    2.0185   -1.3102 H   0  0  0  0  0  0  0  0  0  0  0  0
    4.4657    1.7136   -1.6651 H   0  0  0  0  0  0  0  0  0  0  0  0
    6.5283    0.4991   -1.1839 H   0  0  0  0  0  0  0  0  0  0  0  0
    7.5229   -0.8652    1.4579 H   0  0  0  0  0  0  0  0  0  0  0  0
    7.5574   -1.5451   -0.1883 H   0  0  0  0  0  0  0  0  0  0  0  0
    6.7384   -2.4240    1.1028 H   0  0  0  0  0  0  0  0  0  0  0  0
    4.5208   -1.6606    1.9516 H   0  0  0  0  0  0  0  0  0  0  0  0
    2.4671   -0.4564    1.4870 H   0  0  0  0  0  0  0  0  0  0  0  0
    0.3394    2.9363   -1.1863 H   0  0  0  0  0  0  0  0  0  0  0  0
   -4.0851    4.6353   -1.9362 H   0  0  0  0  0  0  0  0  0  0  0  0
   -3.4286    5.7117   -0.6846 H   0  0  0  0  0  0  0  0  0  0  0  0
   -4.9835    4.9045   -0.4358 H   0  0  0  0  0  0  0  0  0  0  0  0
   -4.8144    3.0259    1.0846 H   0  0  0  0  0  0  0  0  0  0  0  0
   -2.6330   -1.5761    2.2194 H   0  0  0  0  0  0  0  0  0  0  0  0
   -3.5729   -3.6066    1.1964 H   0  0  0  0  0  0  0  0  0  0  0  0
  1  2  1  0
  2  3  1  0
  3  4  2  0
  4  5  1  0
  5  6  2  0
  6  7  1  0
  7  8  1  0
  8  9  2  0
  9 10  1  0
 10 11  1  0
 11 12  2  0
 12 13  1  0
 13 14  2  0
 14 15  1  0
 14 16  1  0
 16 17  2  0
  9 18  1  0
 18 19  1  0
 19 20  2  0
 20 21  1  0
 21 22  1  0
 21 23  2  0
 23 24  1  0
 24 25  2  0
 24 26  1  0
  6 27  1  0
 27 28  2  0
 28  3  1  0
 26  7  1  0
 17 11  1  0
 26 19  1  0
  1 29  1  0
  1 30  1  0
  1 31  1  0
  4 32  1  0
  5 33  1  0
  7 34  1  0
 10 35  1  0
 12 36  1  0
 13 37  1  0
 15 38  1  0
 15 39  1  0
 15 40  1  0
 16 41  1  0
 17 42  1  0
 18 43  1  0
 22 44  1  0
 22 45  1  0
 22 46  1  0
 23 47  1  0
 27 48  1  0
 28 49  1  0
M  END
$$$$
