
     RDKit          3D

 52 54  0  0  0  0  0  0  0  0999 V2000
   -6.0507   -1.7035   -1.1377 C   0  0  0  0  0  0  0  0  0  0  0  0
   -6.2423   -1.7796    0.3768 C   0  0  0  0  0  0  0  0  0  0  0  0
   -7.6029   -1.2078    0.7729 C   0  0  0  0  0  0  0  0  0  0  0  0
   -5.0800   -1.1183    1.1374 C   0  0  0  0  0  0  0  0  0  0  0  0
   -4.9816    0.4011    0.9958 C   0  0  0  0  0  0  0  0  0  0  0  0
   -3.8275    0.8811    1.6925 O   0  0  0  0  0  0  0  0  0  0  0  0
   -2.6855    1.0995    0.9736 C   0  0  0  0  0  0  0  0  0  0  0  0
   -2.4063    0.5941   -0.2992 C   0  0  0  0  0  0  0  0  0  0  0  0
   -1.1892    0.8907   -0.9209 C   0  0  0  0  0  0  0  0  0  0  0  0
   -0.2452    1.6794   -0.2605 C   0  0  0  0  0  0  0  0  0  0  0  0
    1.0241    1.9978   -0.9443 C   0  0  0  0  0  0  0  0  0  0  0  0
    0.9559    2.6618   -1.9756 O   0  0  0  0  0  0  0  0  0  0  0  0
    2.2159    1.5258   -0.4051 N   0  0  0  0  0  0  0  0  0  0  0  0
    3.4732    2.0869   -0.9076 C   0  0  0  0  0  0  0  0  0  0  0  0
    4.6146    1.0582   -0.9583 C   0  0  0  0  0  0  0  0  0  0  0  0
    4.7324    0.3451    0.3238 N   0  0  0  0  0  0  0  0  0  0  0  0
    5.8424   -0.5011    0.3989 C   0  0  0  0  0  0  0  0  0  0  0  0
    6.8974   -0.2674   -0.4018 N   0  0  0  0  0  0  0  0  0  0  0  0
    7.9686   -1.0757   -0.2884 C   0  0  0  0  0  0  0  0  0  0  0  0
    8.0404   -2.1183    0.5969 C   0  0  0  0  0  0  0  0  0  0  0  0
    6.9286   -2.2868    1.3784 C   0  0  0  0  0  0  0  0  0  0  0  0
    5.8357   -1.5040    1.2969 N   0  0  0  0  0  0  0  0  0  0  0  0
    3.4861   -0.2754    0.7941 C   0  0  0  0  0  0  0  0  0  0  0  0
    2.3392    0.7511    0.8383 C   0  0  0  0  0  0  0  0  0  0  0  0
   -0.5196    2.1990    1.0069 C   0  0  0  0  0  0  0  0  0  0  0  0
   -1.7339    1.8932    1.6238 C   0  0  0  0  0  0  0  0  0  0  0  0
   -6.1144   -0.6739   -1.5051 H   0  0  0  0  0  0  0  0  0  0  0  0
   -5.0760   -2.1104   -1.4281 H   0  0  0  0  0  0  0  0  0  0  0  0
   -6.8221   -2.2882   -1.6521 H   0  0  0  0  0  0  0  0  0  0  0  0
   -6.2381   -2.8429    0.6531 H   0  0  0  0  0  0  0  0  0  0  0  0
   -7.7302   -1.2195    1.8599 H   0  0  0  0  0  0  0  0  0  0  0  0
   -7.7285   -0.1783    0.4232 H   0  0  0  0  0  0  0  0  0  0  0  0
   -8.4118   -1.8047    0.3356 H   0  0  0  0  0  0  0  0  0  0  0  0
   -5.1698   -1.3588    2.2054 H   0  0  0  0  0  0  0  0  0  0  0  0
   -4.1360   -1.5824    0.8265 H   0  0  0  0  0  0  0  0  0  0  0  0
   -5.8440    0.8656    1.4882 H   0  0  0  0  0  0  0  0  0  0  0  0
   -5.0103    0.7459   -0.0435 H   0  0  0  0  0  0  0  0  0  0  0  0
   -3.1089   -0.0385   -0.8309 H   0  0  0  0  0  0  0  0  0  0  0  0
   -0.9786    0.5106   -1.9180 H   0  0  0  0  0  0  0  0  0  0  0  0
    3.7416    2.9044   -0.2263 H   0  0  0  0  0  0  0  0  0  0  0  0
    3.3349    2.5265   -1.9008 H   0  0  0  0  0  0  0  0  0  0  0  0
    5.5338    1.6052   -1.1997 H   0  0  0  0  0  0  0  0  0  0  0  0
    4.4184    0.3404   -1.7660 H   0  0  0  0  0  0  0  0  0  0  0  0
    8.7935   -0.8450   -0.9557 H   0  0  0  0  0  0  0  0  0  0  0  0
    8.9089   -2.7550    0.6766 H   0  0  0  0  0  0  0  0  0  0  0  0
    6.8765   -3.0775    2.1213 H   0  0  0  0  0  0  0  0  0  0  0  0
    3.2054   -1.0975    0.1216 H   0  0  0  0  0  0  0  0  0  0  0  0
    3.5939   -0.6826    1.8074 H   0  0  0  0  0  0  0  0  0  0  0  0
    2.5179    1.4745    1.6433 H   0  0  0  0  0  0  0  0  0  0  0  0
    1.4089    0.2218    1.0607 H   0  0  0  0  0  0  0  0  0  0  0  0
    0.1972    2.8431    1.5076 H   0  0  0  0  0  0  0  0  0  0  0  0
   -1.9521    2.2903    2.6128 H   0  0  0  0  0  0  0  0  0  0  0  0
  1  2  1  0
  2  3  1  0
  2  4  1  0
  4  5  1  0
  5  6  1  0
  6  7  1  0
  7  8  2  0
  8  9  1  0
  9 10  2  0
 10 11  1  0
 11 12  2  0
 11 13  1  0
 13 14  1  0
 14 15  1  0
 15 16  1  0
 16 17  1  0
 17 18  2  0
 18 19  1  0
 19 20  2  0
 20 21  1  0
 21 22  2  0
 16 23  1  0
 23 24  1  0
 10 25  1  0
 25 26  2  0
 26  7  1  0
 24 13  1  0
 22 17  1  0
  1 27  1  0
  1 28  1  0
  1 29  1  0
  2 30  1  0
  3 31  1  0
  3 32  1  0
  3 33  1  0
  4 34  1  0
  4 35  1  0
  5 36  1  0
  5 37  1  0
  8 38  1  0
  9 39  1  0
 14 40  1  0
 14 41  1  0
 15 42  1  0
 15 43  1  0
 19 44  1  0
 20 45  1  0
 21 46  1  0
 23 47  1  0
 23 48  1  0
 24 49  1  0
 24 50  1  0
 25 51  1  0
 26 52  1  0
M  END
$$$$
