
     RDKit          3D

 49 52  0  0  0  0  0  0  0  0999 V2000
   -6.8864    2.3316   -1.5562 C   0  0  0  0  0  0  0  0  0  0  0  0
   -5.9848    1.2305   -1.0789 C   0  0  0  0  0  0  0  0  0  0  0  0
   -6.4534    0.2836   -0.1573 C   0  0  0  0  0  0  0  0  0  0  0  0
   -5.6311   -0.7623    0.2643 C   0  0  0  0  0  0  0  0  0  0  0  0
   -4.3335   -0.8596   -0.2413 C   0  0  0  0  0  0  0  0  0  0  0  0
   -3.2708   -2.1735    0.2851 S   0  0  0  0  0  6  0  0  0  0  0  0
   -2.6696   -2.7591   -0.8968 O   0  0  0  0  0  0  0  0  0  0  0  0
   -3.9536   -2.9799    1.2781 O   0  0  0  0  0  0  0  0  0  0  0  0
   -1.9818   -1.3936    1.1496 C   0  0  0  0  0  0  0  0  0  0  0  0
   -0.6822   -1.3546    0.6404 N   0  0  0  0  0  0  0  0  0  0  0  0
    0.1333   -0.7230    1.4606 C   0  0  0  0  0  0  0  0  0  0  0  0
    1.4333   -0.5845    1.1369 N   0  0  0  0  0  0  0  0  0  0  0  0
    2.5749   -0.0324    1.7585 C   0  0  0  0  0  0  0  0  0  0  0  0
    2.6775    0.3186    3.1059 C   0  0  0  0  0  0  0  0  0  0  0  0
    3.8551    0.8794    3.6115 C   0  0  0  0  0  0  0  0  0  0  0  0
    4.9476    1.0969    2.7773 C   0  0  0  0  0  0  0  0  0  0  0  0
    4.8736    0.7466    1.4310 C   0  0  0  0  0  0  0  0  0  0  0  0
    3.7017    0.1791    0.9097 C   0  0  0  0  0  0  0  0  0  0  0  0
    3.5715   -0.2001   -0.4570 N   0  0  0  0  0  0  0  0  0  0  0  0
    4.5783   -1.2060   -0.8748 C   0  0  0  0  0  0  0  0  0  0  0  0
    4.3155   -1.6031   -2.3374 C   0  0  0  0  0  0  0  0  0  0  0  0
    4.3569   -0.4550   -3.2043 O   0  0  0  0  0  0  0  0  0  0  0  0
    3.3626    0.5058   -2.8064 C   0  0  0  0  0  0  0  0  0  0  0  0
    3.5869    0.9770   -1.3595 C   0  0  0  0  0  0  0  0  0  0  0  0
   -0.6546   -0.0825    2.8546 S   0  0  0  0  0  0  0  0  0  0  0  0
   -2.1322   -0.7323    2.3405 C   0  0  0  0  0  0  0  0  0  0  0  0
   -3.5282   -0.4720    3.3020 Cl  0  0  0  0  0  0  0  0  0  0  0  0
   -3.8605    0.0603   -1.1814 C   0  0  0  0  0  0  0  0  0  0  0  0
   -4.6895    1.1020   -1.5988 C   0  0  0  0  0  0  0  0  0  0  0  0
   -6.3072    3.2202   -1.8285 H   0  0  0  0  0  0  0  0  0  0  0  0
   -7.5877    2.6301   -0.7699 H   0  0  0  0  0  0  0  0  0  0  0  0
   -7.4544    1.9976   -2.4298 H   0  0  0  0  0  0  0  0  0  0  0  0
   -7.4659    0.3553    0.2357 H   0  0  0  0  0  0  0  0  0  0  0  0
   -6.0109   -1.4881    0.9804 H   0  0  0  0  0  0  0  0  0  0  0  0
    1.6892   -0.8758    0.1915 H   0  0  0  0  0  0  0  0  0  0  0  0
    1.8711    0.1419    3.8056 H   0  0  0  0  0  0  0  0  0  0  0  0
    3.9175    1.1412    4.6651 H   0  0  0  0  0  0  0  0  0  0  0  0
    5.8590    1.5342    3.1766 H   0  0  0  0  0  0  0  0  0  0  0  0
    5.7353    0.9234    0.7947 H   0  0  0  0  0  0  0  0  0  0  0  0
    4.5123   -2.0965   -0.2391 H   0  0  0  0  0  0  0  0  0  0  0  0
    5.5918   -0.7931   -0.7999 H   0  0  0  0  0  0  0  0  0  0  0  0
    5.0853   -2.3028   -2.6775 H   0  0  0  0  0  0  0  0  0  0  0  0
    3.3414   -2.0949   -2.4449 H   0  0  0  0  0  0  0  0  0  0  0  0
    2.3685    0.0586   -2.9263 H   0  0  0  0  0  0  0  0  0  0  0  0
    3.4325    1.3575   -3.4903 H   0  0  0  0  0  0  0  0  0  0  0  0
    2.7945    1.6819   -1.0819 H   0  0  0  0  0  0  0  0  0  0  0  0
    4.5537    1.4927   -1.2998 H   0  0  0  0  0  0  0  0  0  0  0  0
   -2.8601   -0.0332   -1.6002 H   0  0  0  0  0  0  0  0  0  0  0  0
   -4.3224    1.8120   -2.3376 H   0  0  0  0  0  0  0  0  0  0  0  0
  1  2  1  0
  2  3  2  0
  3  4  1  0
  4  5  2  0
  5  6  1  0
  6  7  2  0
  6  8  2  0
  6  9  1  0
  9 10  1  0
 10 11  2  0
 11 12  1  0
 12 13  1  0
 13 14  2  0
 14 15  1  0
 15 16  2  0
 16 17  1  0
 17 18  2  0
 18 19  1  0
 19 20  1  0
 20 21  1  0
 21 22  1  0
 22 23  1  0
 23 24  1  0
 11 25  1  0
 25 26  1  0
 26 27  1  0
  5 28  1  0
 28 29  2  0
 29  2  1  0
 26  9  2  0
 18 13  1  0
 24 19  1  0
  1 30  1  0
  1 31  1  0
  1 32  1  0
  3 33  1  0
  4 34  1  0
 12 35  1  0
 14 36  1  0
 15 37  1  0
 16 38  1  0
 17 39  1  0
 20 40  1  0
 20 41  1  0
 21 42  1  0
 21 43  1  0
 23 44  1  0
 23 45  1  0
 24 46  1  0
 24 47  1  0
 28 48  1  0
 29 49  1  0
M  END
$$$$
