
     RDKit          3D

 54 56  0  0  0  0  0  0  0  0999 V2000
    6.5888    1.5392   -1.2755 C   0  0  0  0  0  0  0  0  0  0  0  0
    5.4800    1.8761   -0.2812 C   0  0  0  0  0  0  0  0  0  0  0  0
    4.9909    0.7023    0.4568 N   0  0  0  0  0  0  0  0  0  0  0  0
    4.0333    1.0943    1.5198 C   0  0  0  0  0  0  0  0  0  0  0  0
    2.5429    0.8697    1.1747 C   0  0  0  0  0  0  0  0  0  0  0  0
    2.2907   -0.5516    0.8827 N   0  0  0  0  0  0  0  0  0  0  0  0
    0.9779   -0.8971    0.5815 C   0  0  0  0  0  0  0  0  0  0  0  0
    0.6034   -2.2163    0.4282 C   0  0  0  0  0  0  0  0  0  0  0  0
   -0.7180   -2.4757    0.1334 C   0  0  0  0  0  0  0  0  0  0  0  0
   -1.2161   -4.1803   -0.0799 S   0  0  0  0  0  0  0  0  0  0  0  0
   -2.9734   -4.0107   -0.5897 C   0  0  0  0  0  0  0  0  0  0  0  0
   -3.3761   -5.2815   -1.3390 C   0  0  0  0  0  0  0  0  0  0  0  0
   -3.8717   -3.8132    0.6308 C   0  0  0  0  0  0  0  0  0  0  0  0
   -1.6372   -1.5116    0.0019 N   0  0  0  0  0  0  0  0  0  0  0  0
   -1.2114   -0.2559    0.1978 C   0  0  0  0  0  0  0  0  0  0  0  0
   -2.2032    0.8349    0.0901 C   0  0  0  0  0  0  0  0  0  0  0  0
   -1.8509    2.1771    0.3321 C   0  0  0  0  0  0  0  0  0  0  0  0
   -2.7863    3.2180    0.2351 C   0  0  0  0  0  0  0  0  0  0  0  0
   -4.1067    2.9416   -0.1096 C   0  0  0  0  0  0  0  0  0  0  0  0
   -5.1145    3.8556   -0.2375 O   0  0  0  0  0  0  0  0  0  0  0  0
   -4.7792    5.2183   -0.0022 C   0  0  0  0  0  0  0  0  0  0  0  0
   -4.4793    1.6199   -0.3536 C   0  0  0  0  0  0  0  0  0  0  0  0
   -3.5437    0.5830   -0.2555 C   0  0  0  0  0  0  0  0  0  0  0  0
    0.0593    0.0794    0.4854 N   0  0  0  0  0  0  0  0  0  0  0  0
    3.4035   -1.2810    0.2464 C   0  0  0  0  0  0  0  0  0  0  0  0
    4.3943   -0.3113   -0.4448 C   0  0  0  0  0  0  0  0  0  0  0  0
    6.2228    0.9174   -2.0994 H   0  0  0  0  0  0  0  0  0  0  0  0
    7.4145    1.0135   -0.7830 H   0  0  0  0  0  0  0  0  0  0  0  0
    6.9909    2.4591   -1.7125 H   0  0  0  0  0  0  0  0  0  0  0  0
    4.6574    2.3822   -0.8040 H   0  0  0  0  0  0  0  0  0  0  0  0
    5.8997    2.5971    0.4328 H   0  0  0  0  0  0  0  0  0  0  0  0
    4.1835    2.1360    1.8300 H   0  0  0  0  0  0  0  0  0  0  0  0
    4.2745    0.4875    2.4031 H   0  0  0  0  0  0  0  0  0  0  0  0
    1.9389    1.1853    2.0348 H   0  0  0  0  0  0  0  0  0  0  0  0
    2.2724    1.4984    0.3157 H   0  0  0  0  0  0  0  0  0  0  0  0
    1.3117   -3.0242    0.5543 H   0  0  0  0  0  0  0  0  0  0  0  0
   -3.0786   -3.1680   -1.2823 H   0  0  0  0  0  0  0  0  0  0  0  0
   -2.7546   -5.4336   -2.2301 H   0  0  0  0  0  0  0  0  0  0  0  0
   -4.4142   -5.2094   -1.6788 H   0  0  0  0  0  0  0  0  0  0  0  0
   -3.3003   -6.1727   -0.7073 H   0  0  0  0  0  0  0  0  0  0  0  0
   -3.7916   -4.6514    1.3310 H   0  0  0  0  0  0  0  0  0  0  0  0
   -4.9193   -3.7414    0.3182 H   0  0  0  0  0  0  0  0  0  0  0  0
   -3.6354   -2.8912    1.1723 H   0  0  0  0  0  0  0  0  0  0  0  0
   -0.8260    2.4271    0.6068 H   0  0  0  0  0  0  0  0  0  0  0  0
   -2.4439    4.2282    0.4381 H   0  0  0  0  0  0  0  0  0  0  0  0
   -4.0345    5.5727   -0.7245 H   0  0  0  0  0  0  0  0  0  0  0  0
   -5.6864    5.8142   -0.1394 H   0  0  0  0  0  0  0  0  0  0  0  0
   -4.4350    5.3687    1.0275 H   0  0  0  0  0  0  0  0  0  0  0  0
   -5.5070    1.3903   -0.6207 H   0  0  0  0  0  0  0  0  0  0  0  0
   -3.8754   -0.4353   -0.4531 H   0  0  0  0  0  0  0  0  0  0  0  0
    3.9280   -1.8598    1.0173 H   0  0  0  0  0  0  0  0  0  0  0  0
    3.0550   -1.9900   -0.5142 H   0  0  0  0  0  0  0  0  0  0  0  0
    5.2007   -0.9047   -0.8933 H   0  0  0  0  0  0  0  0  0  0  0  0
    3.8549    0.1811   -1.2673 H   0  0  0  0  0  0  0  0  0  0  0  0
  1  2  1  0
  2  3  1  0
  3  4  1  0
  4  5  1  0
  5  6  1  0
  6  7  1  0
  7  8  2  0
  8  9  1  0
  9 10  1  0
 10 11  1  0
 11 12  1  0
 11 13  1  0
  9 14  2  0
 14 15  1  0
 15 16  1  0
 16 17  2  0
 17 18  1  0
 18 19  2  0
 19 20  1  0
 20 21  1  0
 19 22  1  0
 22 23  2  0
 15 24  2  0
  6 25  1  0
 25 26  1  0
 26  3  1  0
 24  7  1  0
 23 16  1  0
  1 27  1  0
  1 28  1  0
  1 29  1  0
  2 30  1  0
  2 31  1  0
  4 32  1  0
  4 33  1  0
  5 34  1  0
  5 35  1  0
  8 36  1  0
 11 37  1  0
 12 38  1  0
 12 39  1  0
 12 40  1  0
 13 41  1  0
 13 42  1  0
 13 43  1  0
 17 44  1  0
 18 45  1  0
 21 46  1  0
 21 47  1  0
 21 48  1  0
 22 49  1  0
 23 50  1  0
 25 51  1  0
 25 52  1  0
 26 53  1  0
 26 54  1  0
M  END
$$$$
