
     RDKit          3D

 46 48  0  0  0  0  0  0  0  0999 V2000
    4.5009   -3.1491    0.2353 C   0  0  0  0  0  0  0  0  0  0  0  0
    3.0500   -2.9662    0.6389 C   0  0  0  0  0  0  0  0  0  0  0  0
    2.3705   -2.1455   -0.3216 O   0  0  0  0  0  0  0  0  0  0  0  0
    2.4605   -0.7942   -0.1369 C   0  0  0  0  0  0  0  0  0  0  0  0
    3.0596   -0.2765    0.8019 O   0  0  0  0  0  0  0  0  0  0  0  0
    1.6796   -0.0182   -1.2187 C   0  0  0  0  0  0  0  0  0  0  0  0
    2.4922   -0.2342   -2.5162 C   0  0  0  0  0  0  0  0  0  0  0  0
    3.7887    0.1427   -2.3802 F   0  0  0  0  0  0  0  0  0  0  0  0
    1.9826    0.4958   -3.5454 F   0  0  0  0  0  0  0  0  0  0  0  0
    2.5007   -1.5244   -2.9331 F   0  0  0  0  0  0  0  0  0  0  0  0
    1.6510    1.4141   -0.8594 N   0  0  0  0  0  0  0  0  0  0  0  0
    0.7121    1.7283   -0.0463 C   0  0  0  0  0  0  0  0  0  0  0  0
    0.5922    3.0606    0.5778 C   0  0  0  0  0  0  0  0  0  0  0  0
   -0.2934    3.3366    1.6236 C   0  0  0  0  0  0  0  0  0  0  0  0
   -0.3461    4.6234    2.1578 C   0  0  0  0  0  0  0  0  0  0  0  0
    0.4902    5.5927    1.6275 C   0  0  0  0  0  0  0  0  0  0  0  0
    1.3589    5.3614    0.6206 N   0  0  0  0  0  0  0  0  0  0  0  0
    1.3959    4.0992    0.1224 C   0  0  0  0  0  0  0  0  0  0  0  0
   -0.3030    0.9267    0.3198 O   0  0  0  0  0  0  0  0  0  0  0  0
   -0.5434   -0.1204   -0.5004 C   0  0  0  0  0  0  0  0  0  0  0  0
   -1.8166   -0.6459   -0.3628 N   0  0  0  0  0  0  0  0  0  0  0  0
   -2.9018    0.1388    0.2388 C   0  0  0  0  0  0  0  0  0  0  0  0
   -3.9490   -0.7737    0.8724 C   0  0  0  0  0  0  0  0  0  0  0  0
   -4.4670   -1.8033   -0.1230 C   0  0  0  0  0  0  0  0  0  0  0  0
   -3.3037   -2.5860   -0.7174 C   0  0  0  0  0  0  0  0  0  0  0  0
   -2.2646   -1.6552   -1.3366 C   0  0  0  0  0  0  0  0  0  0  0  0
    0.3243   -0.5776   -1.3263 N   0  0  0  0  0  0  0  0  0  0  0  0
    4.5689   -3.5633   -0.7761 H   0  0  0  0  0  0  0  0  0  0  0  0
    5.0293   -2.1907    0.2224 H   0  0  0  0  0  0  0  0  0  0  0  0
    5.0144   -3.8219    0.9279 H   0  0  0  0  0  0  0  0  0  0  0  0
    2.9621   -2.5529    1.6501 H   0  0  0  0  0  0  0  0  0  0  0  0
    2.5443   -3.9373    0.6440 H   0  0  0  0  0  0  0  0  0  0  0  0
   -0.9343    2.5647    2.0389 H   0  0  0  0  0  0  0  0  0  0  0  0
   -1.0203    4.8641    2.9726 H   0  0  0  0  0  0  0  0  0  0  0  0
    0.4860    6.6093    2.0113 H   0  0  0  0  0  0  0  0  0  0  0  0
    2.1139    3.9527   -0.6813 H   0  0  0  0  0  0  0  0  0  0  0  0
   -3.3619    0.7702   -0.5310 H   0  0  0  0  0  0  0  0  0  0  0  0
   -2.5315    0.8050    1.0251 H   0  0  0  0  0  0  0  0  0  0  0  0
   -3.5076   -1.2926    1.7327 H   0  0  0  0  0  0  0  0  0  0  0  0
   -4.7827   -0.1727    1.2524 H   0  0  0  0  0  0  0  0  0  0  0  0
   -5.1629   -2.4876    0.3745 H   0  0  0  0  0  0  0  0  0  0  0  0
   -5.0230   -1.2996   -0.9229 H   0  0  0  0  0  0  0  0  0  0  0  0
   -2.8318   -3.1868    0.0704 H   0  0  0  0  0  0  0  0  0  0  0  0
   -3.6746   -3.2842   -1.4760 H   0  0  0  0  0  0  0  0  0  0  0  0
   -2.6805   -1.1502   -2.2171 H   0  0  0  0  0  0  0  0  0  0  0  0
   -1.4290   -2.2762   -1.6799 H   0  0  0  0  0  0  0  0  0  0  0  0
  1  2  1  0
  2  3  1  0
  3  4  1  0
  4  5  2  0
  4  6  1  0
  6  7  1  0
  7  8  1  0
  7  9  1  0
  7 10  1  0
  6 11  1  0
 11 12  2  0
 12 13  1  0
 13 14  2  0
 14 15  1  0
 15 16  2  0
 16 17  1  0
 17 18  2  0
 12 19  1  0
 19 20  1  0
 20 21  1  0
 21 22  1  0
 22 23  1  0
 23 24  1  0
 24 25  1  0
 25 26  1  0
 20 27  2  0
 27  6  1  0
 18 13  1  0
 26 21  1  0
  1 28  1  0
  1 29  1  0
  1 30  1  0
  2 31  1  0
  2 32  1  0
 14 33  1  0
 15 34  1  0
 16 35  1  0
 18 36  1  0
 22 37  1  0
 22 38  1  0
 23 39  1  0
 23 40  1  0
 24 41  1  0
 24 42  1  0
 25 43  1  0
 25 44  1  0
 26 45  1  0
 26 46  1  0
M  END
$$$$
