
     RDKit          3D

 46 48  0  0  0  0  0  0  0  0999 V2000
   -3.8878   -1.2124   -0.6101 C   0  0  0  0  0  0  0  0  0  0  0  0
   -3.6107   -0.0392    0.2956 C   0  0  0  0  0  0  0  0  0  0  0  0
   -4.5830    0.8124    0.6915 C   0  0  0  0  0  0  0  0  0  0  0  0
   -5.9928    0.7487    0.2946 C   0  0  0  0  0  0  0  0  0  0  0  0
   -6.9392    0.2026    1.1678 C   0  0  0  0  0  0  0  0  0  0  0  0
   -8.2836    0.1428    0.7966 C   0  0  0  0  0  0  0  0  0  0  0  0
   -8.6866    0.6284   -0.4473 C   0  0  0  0  0  0  0  0  0  0  0  0
   -7.7470    1.1749   -1.3212 C   0  0  0  0  0  0  0  0  0  0  0  0
   -6.4022    1.2365   -0.9514 C   0  0  0  0  0  0  0  0  0  0  0  0
   -2.2522    0.1981    0.7988 C   0  0  0  0  0  0  0  0  0  0  0  0
   -1.0733   -0.3902    0.5407 C   0  0  0  0  0  0  0  0  0  0  0  0
   -0.6810   -1.6839   -0.5278 S   0  0  0  0  0  0  0  0  0  0  0  0
    1.0379   -1.6310   -0.1543 C   0  0  0  0  0  0  0  0  0  0  0  0
    2.1601   -2.6586   -0.8316 S   0  0  0  0  0  0  0  0  0  0  0  0
    1.2480   -0.6438    0.7808 N   0  0  0  0  0  0  0  0  0  0  0  0
    2.6358   -0.2434    1.2575 N   0  0  0  0  0  0  0  0  0  0  0  0
    3.2853    1.0690    0.3685 S   0  0  0  0  0  6  0  0  0  0  0  0
    2.5295    1.2036   -0.8595 O   0  0  0  0  0  0  0  0  0  0  0  0
    3.4259    2.1648    1.3016 O   0  0  0  0  0  0  0  0  0  0  0  0
    4.9056    0.4641   -0.0170 C   0  0  0  0  0  0  0  0  0  0  0  0
    5.1560   -0.1096   -1.2651 C   0  0  0  0  0  0  0  0  0  0  0  0
    6.4413   -0.5619   -1.5690 C   0  0  0  0  0  0  0  0  0  0  0  0
    7.4779   -0.4397   -0.6338 C   0  0  0  0  0  0  0  0  0  0  0  0
    8.8659   -0.8933   -0.9801 C   0  0  0  0  0  0  0  0  0  0  0  0
    7.2194    0.1676    0.6026 C   0  0  0  0  0  0  0  0  0  0  0  0
    5.9359    0.6196    0.9144 C   0  0  0  0  0  0  0  0  0  0  0  0
    0.1638    0.0871    1.2289 C   0  0  0  0  0  0  0  0  0  0  0  0
    0.2070    0.9657    2.0797 O   0  0  0  0  0  0  0  0  0  0  0  0
   -3.5678   -2.1480   -0.1399 H   0  0  0  0  0  0  0  0  0  0  0  0
   -4.9500   -1.3432   -0.8367 H   0  0  0  0  0  0  0  0  0  0  0  0
   -3.3786   -1.0873   -1.5710 H   0  0  0  0  0  0  0  0  0  0  0  0
   -4.3684    1.6447    1.3601 H   0  0  0  0  0  0  0  0  0  0  0  0
   -6.6352   -0.1813    2.1387 H   0  0  0  0  0  0  0  0  0  0  0  0
   -9.0162   -0.2834    1.4771 H   0  0  0  0  0  0  0  0  0  0  0  0
   -9.7335    0.5802   -0.7363 H   0  0  0  0  0  0  0  0  0  0  0  0
   -8.0608    1.5528   -2.2908 H   0  0  0  0  0  0  0  0  0  0  0  0
   -5.6773    1.6649   -1.6394 H   0  0  0  0  0  0  0  0  0  0  0  0
   -2.2091    1.0237    1.5167 H   0  0  0  0  0  0  0  0  0  0  0  0
    2.6067    0.0625    2.2385 H   0  0  0  0  0  0  0  0  0  0  0  0
    4.3648   -0.2090   -2.0051 H   0  0  0  0  0  0  0  0  0  0  0  0
    6.6304   -1.0091   -2.5432 H   0  0  0  0  0  0  0  0  0  0  0  0
    9.4097   -0.0848   -1.4783 H   0  0  0  0  0  0  0  0  0  0  0  0
    9.4168   -1.1882   -0.0807 H   0  0  0  0  0  0  0  0  0  0  0  0
    8.8381   -1.7644   -1.6431 H   0  0  0  0  0  0  0  0  0  0  0  0
    8.0205    0.2953    1.3282 H   0  0  0  0  0  0  0  0  0  0  0  0
    5.7542    1.0958    1.8752 H   0  0  0  0  0  0  0  0  0  0  0  0
  1  2  1  0
  2  3  2  3
  3  4  1  0
  4  5  2  0
  5  6  1  0
  6  7  2  0
  7  8  1  0
  8  9  2  0
  2 10  1  0
 10 11  2  3
 11 12  1  0
 12 13  1  0
 13 14  2  0
 13 15  1  0
 15 16  1  0
 16 17  1  0
 17 18  2  0
 17 19  2  0
 17 20  1  0
 20 21  2  0
 21 22  1  0
 22 23  2  0
 23 24  1  0
 23 25  1  0
 25 26  2  0
 15 27  1  0
 27 28  2  0
  9  4  1  0
 27 11  1  0
 26 20  1  0
  1 29  1  0
  1 30  1  0
  1 31  1  0
  3 32  1  0
  5 33  1  0
  6 34  1  0
  7 35  1  0
  8 36  1  0
  9 37  1  0
 10 38  1  0
 16 39  1  0
 21 40  1  0
 22 41  1  0
 24 42  1  0
 24 43  1  0
 24 44  1  0
 25 45  1  0
 26 46  1  0
M  END
$$$$
