
     RDKit          3D

 67 72  0  0  0  0  0  0  0  0999 V2000
   -2.7188   -1.9481    1.7383 O   0  0  0  0  0  0  0  0  0  0  0  0
   -2.5281   -0.8248    1.2672 C   0  0  0  0  0  0  0  0  0  0  0  0
   -3.6961    0.0452    0.7578 C   0  0  0  0  0  0  0  0  0  0  0  0
   -5.0199   -0.4160    1.3950 C   0  0  0  0  0  0  0  0  0  0  0  0
   -6.2330    0.2748    0.8105 C   0  0  0  0  0  0  0  0  0  0  0  0
   -6.8081    1.3736    1.4638 C   0  0  0  0  0  0  0  0  0  0  0  0
   -7.9105    2.0265    0.9117 C   0  0  0  0  0  0  0  0  0  0  0  0
   -8.4495    1.5868   -0.2958 C   0  0  0  0  0  0  0  0  0  0  0  0
   -7.8870    0.4935   -0.9521 C   0  0  0  0  0  0  0  0  0  0  0  0
   -6.7828   -0.1602   -0.4031 C   0  0  0  0  0  0  0  0  0  0  0  0
   -3.4493    1.4548    1.0613 N   0  0  0  0  0  0  0  0  0  0  0  0
   -2.2173    1.8957    0.5691 C   0  0  0  0  0  0  0  0  0  0  0  0
   -2.2155    3.1683    0.1481 N   0  0  0  0  0  0  0  0  0  0  0  0
   -1.0367    3.6464   -0.2441 C   0  0  0  0  0  0  0  0  0  0  0  0
    0.1166    2.9737   -0.2567 N   0  0  0  0  0  0  0  0  0  0  0  0
    0.0965    1.6870    0.1616 C   0  0  0  0  0  0  0  0  0  0  0  0
    1.3233    0.9888    0.1013 N   0  0  0  0  0  0  0  0  0  0  0  0
    1.7984    0.9082   -1.3072 C   0  0  0  0  0  0  0  0  0  0  0  0
    3.1230    0.1134   -1.3826 C   0  0  0  0  0  0  0  0  0  0  0  0
    4.1577    0.7179   -0.5063 N   0  0  0  0  0  0  0  0  0  0  0  0
    5.4634    0.2035   -0.5879 C   0  0  0  0  0  0  0  0  0  0  0  0
    6.5316    0.9542   -0.0665 C   0  0  0  0  0  0  0  0  0  0  0  0
    7.8519    0.4970   -0.1250 C   0  0  0  0  0  0  0  0  0  0  0  0
    8.1360   -0.7282   -0.7169 C   0  0  0  0  0  0  0  0  0  0  0  0
    7.1007   -1.4867   -1.2525 C   0  0  0  0  0  0  0  0  0  0  0  0
    5.7808   -1.0219   -1.1920 C   0  0  0  0  0  0  0  0  0  0  0  0
    3.6823    0.8867    0.8937 C   0  0  0  0  0  0  0  0  0  0  0  0
    2.3488    1.6713    0.9339 C   0  0  0  0  0  0  0  0  0  0  0  0
   -1.0855    1.0671    0.5986 C   0  0  0  0  0  0  0  0  0  0  0  0
   -1.2443   -0.2936    1.0599 N   0  0  0  0  0  0  0  0  0  0  0  0
   -0.1103   -1.1365    1.4151 C   0  0  0  0  0  0  0  0  0  0  0  0
    0.4007   -2.0649    0.3278 C   0  0  0  0  0  0  0  0  0  0  0  0
   -0.1840   -2.1677   -0.9427 C   0  0  0  0  0  0  0  0  0  0  0  0
    0.3312   -3.0483   -1.8975 C   0  0  0  0  0  0  0  0  0  0  0  0
    1.4332   -3.8446   -1.5946 C   0  0  0  0  0  0  0  0  0  0  0  0
    2.0218   -3.7625   -0.3357 C   0  0  0  0  0  0  0  0  0  0  0  0
    1.5089   -2.8808    0.6179 C   0  0  0  0  0  0  0  0  0  0  0  0
   -3.7495   -0.0963   -0.3311 H   0  0  0  0  0  0  0  0  0  0  0  0
   -5.1527   -1.4981    1.2637 H   0  0  0  0  0  0  0  0  0  0  0  0
   -4.9936   -0.2542    2.4811 H   0  0  0  0  0  0  0  0  0  0  0  0
   -6.3972    1.7296    2.4068 H   0  0  0  0  0  0  0  0  0  0  0  0
   -8.3497    2.8781    1.4250 H   0  0  0  0  0  0  0  0  0  0  0  0
   -9.3099    2.0945   -0.7238 H   0  0  0  0  0  0  0  0  0  0  0  0
   -8.3106    0.1487   -1.8918 H   0  0  0  0  0  0  0  0  0  0  0  0
   -6.3590   -1.0143   -0.9267 H   0  0  0  0  0  0  0  0  0  0  0  0
   -4.1633    2.1082    0.7470 H   0  0  0  0  0  0  0  0  0  0  0  0
   -1.0095    4.6758   -0.5837 H   0  0  0  0  0  0  0  0  0  0  0  0
    1.9677    1.9107   -1.7239 H   0  0  0  0  0  0  0  0  0  0  0  0
    1.0483    0.4077   -1.9310 H   0  0  0  0  0  0  0  0  0  0  0  0
    2.9355   -0.9213   -1.0799 H   0  0  0  0  0  0  0  0  0  0  0  0
    3.4641    0.1152   -2.4249 H   0  0  0  0  0  0  0  0  0  0  0  0
    6.3414    1.9311    0.3704 H   0  0  0  0  0  0  0  0  0  0  0  0
    8.6540    1.1059    0.2826 H   0  0  0  0  0  0  0  0  0  0  0  0
    9.1604   -1.0866   -0.7679 H   0  0  0  0  0  0  0  0  0  0  0  0
    7.3150   -2.4432   -1.7225 H   0  0  0  0  0  0  0  0  0  0  0  0
    5.0081   -1.6546   -1.6168 H   0  0  0  0  0  0  0  0  0  0  0  0
    4.4087    1.4355    1.5034 H   0  0  0  0  0  0  0  0  0  0  0  0
    3.5392   -0.1016    1.3509 H   0  0  0  0  0  0  0  0  0  0  0  0
    2.0070    1.7284    1.9748 H   0  0  0  0  0  0  0  0  0  0  0  0
    2.5330    2.6945    0.5793 H   0  0  0  0  0  0  0  0  0  0  0  0
    0.6969   -0.5300    1.8342 H   0  0  0  0  0  0  0  0  0  0  0  0
   -0.4203   -1.7811    2.2495 H   0  0  0  0  0  0  0  0  0  0  0  0
   -1.0464   -1.5635   -1.2091 H   0  0  0  0  0  0  0  0  0  0  0  0
   -0.1342   -3.1166   -2.8772 H   0  0  0  0  0  0  0  0  0  0  0  0
    1.8282   -4.5334   -2.3365 H   0  0  0  0  0  0  0  0  0  0  0  0
    2.8783   -4.3859   -0.0926 H   0  0  0  0  0  0  0  0  0  0  0  0
    1.9804   -2.8326    1.5974 H   0  0  0  0  0  0  0  0  0  0  0  0
  1  2  2  0
  2  3  1  0
  3  4  1  0
  4  5  1  0
  5  6  2  0
  6  7  1  0
  7  8  2  0
  8  9  1  0
  9 10  2  0
  3 11  1  0
 11 12  1  0
 12 13  2  0
 13 14  1  0
 14 15  2  0
 15 16  1  0
 16 17  1  0
 17 18  1  0
 18 19  1  0
 19 20  1  0
 20 21  1  0
 21 22  2  0
 22 23  1  0
 23 24  2  0
 24 25  1  0
 25 26  2  0
 20 27  1  0
 27 28  1  0
 16 29  2  0
 29 30  1  0
 30 31  1  0
 31 32  1  0
 32 33  2  0
 33 34  1  0
 34 35  2  0
 35 36  1  0
 36 37  2  0
 30  2  1  0
 37 32  1  0
 10  5  1  0
 29 12  1  0
 28 17  1  0
 26 21  1  0
  3 38  1  0
  4 39  1  0
  4 40  1  0
  6 41  1  0
  7 42  1  0
  8 43  1  0
  9 44  1  0
 10 45  1  0
 11 46  1  0
 14 47  1  0
 18 48  1  0
 18 49  1  0
 19 50  1  0
 19 51  1  0
 22 52  1  0
 23 53  1  0
 24 54  1  0
 25 55  1  0
 26 56  1  0
 27 57  1  0
 27 58  1  0
 28 59  1  0
 28 60  1  0
 31 61  1  0
 31 62  1  0
 33 63  1  0
 34 64  1  0
 35 65  1  0
 36 66  1  0
 37 67  1  0
M  END
$$$$
