
     RDKit          3D

 59 62  0  0  0  0  0  0  0  0999 V2000
    5.5010   -2.5329    1.8059 C   0  0  0  0  0  0  0  0  0  0  0  0
    5.9877   -1.6937    0.7658 O   0  0  0  0  0  0  0  0  0  0  0  0
    5.0564   -1.0682   -0.0241 C   0  0  0  0  0  0  0  0  0  0  0  0
    3.6833   -1.0285    0.2418 C   0  0  0  0  0  0  0  0  0  0  0  0
    2.8050   -0.3695   -0.6250 C   0  0  0  0  0  0  0  0  0  0  0  0
    1.4096   -0.2812   -0.4105 N   0  0  0  0  0  0  0  0  0  0  0  0
    0.6746   -0.8907    0.5916 C   0  0  0  0  0  0  0  0  0  0  0  0
    1.0886   -1.6750    1.4350 O   0  0  0  0  0  0  0  0  0  0  0  0
   -0.7696   -0.5623    0.5897 C   0  0  0  0  0  0  0  0  0  0  0  0
   -1.2406    0.7271    0.3039 C   0  0  0  0  0  0  0  0  0  0  0  0
   -2.6141    0.9831    0.3204 C   0  0  0  0  0  0  0  0  0  0  0  0
   -3.1616    2.3267    0.0296 C   0  0  0  0  0  0  0  0  0  0  0  0
   -2.5977    3.1690   -0.9470 C   0  0  0  0  0  0  0  0  0  0  0  0
   -3.1269    4.4382   -1.2051 C   0  0  0  0  0  0  0  0  0  0  0  0
   -4.2346    4.8907   -0.4945 C   0  0  0  0  0  0  0  0  0  0  0  0
   -4.8174    4.0745    0.4696 C   0  0  0  0  0  0  0  0  0  0  0  0
   -4.2872    2.8066    0.7252 C   0  0  0  0  0  0  0  0  0  0  0  0
   -3.5437    0.0412    0.6135 N   0  0  0  0  0  0  0  0  0  0  0  0
   -3.0463   -1.1761    0.9024 C   0  0  0  0  0  0  0  0  0  0  0  0
   -1.7115   -1.5458    0.9174 C   0  0  0  0  0  0  0  0  0  0  0  0
   -1.7292   -2.9086    1.2816 C   0  0  0  0  0  0  0  0  0  0  0  0
   -2.9662   -3.3799    1.4701 N   0  0  0  0  0  0  0  0  0  0  0  0
   -3.7552   -2.3019    1.2417 N   0  0  0  0  0  0  0  0  0  0  0  0
   -5.2013   -2.4374    1.3705 C   0  0  0  0  0  0  0  0  0  0  0  0
   -5.9206   -2.1974    0.0436 C   0  0  0  0  0  0  0  0  0  0  0  0
   -5.7631   -1.5548    2.4848 C   0  0  0  0  0  0  0  0  0  0  0  0
    3.3124    0.2612   -1.7716 C   0  0  0  0  0  0  0  0  0  0  0  0
    4.6801    0.2331   -2.0574 C   0  0  0  0  0  0  0  0  0  0  0  0
    5.2591    0.8314   -3.1471 O   0  0  0  0  0  0  0  0  0  0  0  0
    4.4094    1.1333   -4.2453 C   0  0  0  0  0  0  0  0  0  0  0  0
    5.5473   -0.4132   -1.1642 C   0  0  0  0  0  0  0  0  0  0  0  0
    6.8910   -0.4739   -1.4615 O   0  0  0  0  0  0  0  0  0  0  0  0
    7.5766    0.6010   -0.8217 C   0  0  0  0  0  0  0  0  0  0  0  0
    5.0098   -1.9433    2.5868 H   0  0  0  0  0  0  0  0  0  0  0  0
    6.3615   -3.0332    2.2606 H   0  0  0  0  0  0  0  0  0  0  0  0
    4.8343   -3.3088    1.4145 H   0  0  0  0  0  0  0  0  0  0  0  0
    3.2998   -1.5045    1.1348 H   0  0  0  0  0  0  0  0  0  0  0  0
    0.8922    0.2261   -1.1164 H   0  0  0  0  0  0  0  0  0  0  0  0
   -0.5405    1.5356    0.1185 H   0  0  0  0  0  0  0  0  0  0  0  0
   -1.7473    2.8406   -1.5390 H   0  0  0  0  0  0  0  0  0  0  0  0
   -2.6778    5.0702   -1.9672 H   0  0  0  0  0  0  0  0  0  0  0  0
   -4.6483    5.8755   -0.6965 H   0  0  0  0  0  0  0  0  0  0  0  0
   -5.6874    4.4191    1.0230 H   0  0  0  0  0  0  0  0  0  0  0  0
   -4.7612    2.1843    1.4832 H   0  0  0  0  0  0  0  0  0  0  0  0
   -0.8867   -3.5768    1.4152 H   0  0  0  0  0  0  0  0  0  0  0  0
   -5.3819   -3.4821    1.6577 H   0  0  0  0  0  0  0  0  0  0  0  0
   -5.5069   -2.8343   -0.7461 H   0  0  0  0  0  0  0  0  0  0  0  0
   -6.9873   -2.4272    0.1374 H   0  0  0  0  0  0  0  0  0  0  0  0
   -5.8324   -1.1575   -0.2874 H   0  0  0  0  0  0  0  0  0  0  0  0
   -5.2369   -1.7347    3.4288 H   0  0  0  0  0  0  0  0  0  0  0  0
   -5.6695   -0.4896    2.2498 H   0  0  0  0  0  0  0  0  0  0  0  0
   -6.8254   -1.7676    2.6451 H   0  0  0  0  0  0  0  0  0  0  0  0
    2.6297    0.7814   -2.4337 H   0  0  0  0  0  0  0  0  0  0  0  0
    5.0434    1.4164   -5.0909 H   0  0  0  0  0  0  0  0  0  0  0  0
    3.8185    0.2621   -4.5481 H   0  0  0  0  0  0  0  0  0  0  0  0
    3.7637    1.9863   -4.0137 H   0  0  0  0  0  0  0  0  0  0  0  0
    8.6310    0.5426   -1.1084 H   0  0  0  0  0  0  0  0  0  0  0  0
    7.1914    1.5729   -1.1500 H   0  0  0  0  0  0  0  0  0  0  0  0
    7.5193    0.5200    0.2692 H   0  0  0  0  0  0  0  0  0  0  0  0
  1  2  1  0
  2  3  1  0
  3  4  2  0
  4  5  1  0
  5  6  1  0
  6  7  1  0
  7  8  2  0
  7  9  1  0
  9 10  2  0
 10 11  1  0
 11 12  1  0
 12 13  2  0
 13 14  1  0
 14 15  2  0
 15 16  1  0
 16 17  2  0
 11 18  2  0
 18 19  1  0
 19 20  2  0
 20 21  1  0
 21 22  2  0
 22 23  1  0
 23 24  1  0
 24 25  1  0
 24 26  1  0
  5 27  2  0
 27 28  1  0
 28 29  1  0
 29 30  1  0
 28 31  2  0
 31 32  1  0
 32 33  1  0
 31  3  1  0
 20  9  1  0
 17 12  1  0
 23 19  1  0
  1 34  1  0
  1 35  1  0
  1 36  1  0
  4 37  1  0
  6 38  1  0
 10 39  1  0
 13 40  1  0
 14 41  1  0
 15 42  1  0
 16 43  1  0
 17 44  1  0
 21 45  1  0
 24 46  1  0
 25 47  1  0
 25 48  1  0
 25 49  1  0
 26 50  1  0
 26 51  1  0
 26 52  1  0
 27 53  1  0
 30 54  1  0
 30 55  1  0
 30 56  1  0
 33 57  1  0
 33 58  1  0
 33 59  1  0
M  END
$$$$
