
     RDKit          3D

 54 54  0  0  0  0  0  0  0  0999 V2000
    7.6582   -1.6136   -1.3505 C   0  0  0  0  0  0  0  0  0  0  0  0
    7.1647   -0.7678   -0.4362 C   0  0  0  0  0  0  0  0  0  0  0  0
    6.6184    0.5922   -0.7372 C   0  0  0  0  0  0  0  0  0  0  0  0
    5.1880    0.5446   -0.5484 N   0  0  0  0  0  0  0  0  0  0  0  0
    4.6268    0.8424    0.6770 C   0  0  0  0  0  0  0  0  0  0  0  0
    5.2710    1.2721    1.6233 O   0  0  0  0  0  0  0  0  0  0  0  0
    3.2610    0.6924    0.6450 N   0  0  0  0  0  0  0  0  0  0  0  0
    2.4441    0.5190    1.7477 C   0  0  0  0  0  0  0  0  0  0  0  0
    2.8144    0.4041    2.9112 O   0  0  0  0  0  0  0  0  0  0  0  0
    0.9608    0.4442    1.3772 C   0  0  0  0  0  0  0  0  0  0  0  0
    0.5361   -0.8459    0.9365 O   0  0  0  0  0  0  0  0  0  0  0  0
    0.8740   -1.1738   -0.3337 C   0  0  0  0  0  0  0  0  0  0  0  0
    1.5870   -0.4974   -1.0653 O   0  0  0  0  0  0  0  0  0  0  0  0
    0.3498   -2.5039   -0.6964 C   0  0  0  0  0  0  0  0  0  0  0  0
    1.2840   -3.4248   -1.2372 C   0  0  0  0  0  0  0  0  0  0  0  0
    2.0381   -4.1878   -1.6798 N   0  0  0  0  0  0  0  0  0  0  0  0
   -0.9493   -2.8356   -0.5766 C   0  0  0  0  0  0  0  0  0  0  0  0
   -2.0127   -1.9952   -0.1366 C   0  0  0  0  0  0  0  0  0  0  0  0
   -2.8376   -2.2478    0.9782 C   0  0  0  0  0  0  0  0  0  0  0  0
   -3.7589   -1.2239    1.0607 C   0  0  0  0  0  0  0  0  0  0  0  0
   -4.8561   -1.0480    2.0525 C   0  0  0  0  0  0  0  0  0  0  0  0
   -3.4966   -0.3422    0.0275 N   0  0  0  0  0  0  0  0  0  0  0  0
   -4.2539    0.8790   -0.2341 C   0  0  0  0  0  0  0  0  0  0  0  0
   -3.8767    2.0642    0.6735 C   0  0  0  0  0  0  0  0  0  0  0  0
   -4.8902    3.1961    0.4915 C   0  0  0  0  0  0  0  0  0  0  0  0
   -2.4669    2.5841    0.3921 C   0  0  0  0  0  0  0  0  0  0  0  0
   -2.4586   -0.8366   -0.7503 C   0  0  0  0  0  0  0  0  0  0  0  0
   -2.0055   -0.1765   -2.0106 C   0  0  0  0  0  0  0  0  0  0  0  0
    8.0461   -2.5834   -1.0531 H   0  0  0  0  0  0  0  0  0  0  0  0
    7.6880   -1.3641   -2.4064 H   0  0  0  0  0  0  0  0  0  0  0  0
    7.1665   -1.0610    0.6127 H   0  0  0  0  0  0  0  0  0  0  0  0
    6.7991    0.8779   -1.7785 H   0  0  0  0  0  0  0  0  0  0  0  0
    7.0769    1.3431   -0.0865 H   0  0  0  0  0  0  0  0  0  0  0  0
    4.6941   -0.1169   -1.1295 H   0  0  0  0  0  0  0  0  0  0  0  0
    2.8491    0.5368   -0.2677 H   0  0  0  0  0  0  0  0  0  0  0  0
    0.3776    0.6959    2.2700 H   0  0  0  0  0  0  0  0  0  0  0  0
    0.7209    1.2093    0.6283 H   0  0  0  0  0  0  0  0  0  0  0  0
   -1.2486   -3.8514   -0.8359 H   0  0  0  0  0  0  0  0  0  0  0  0
   -2.7778   -3.0887    1.6587 H   0  0  0  0  0  0  0  0  0  0  0  0
   -4.6667   -0.1851    2.6967 H   0  0  0  0  0  0  0  0  0  0  0  0
   -5.8210   -0.9161    1.5542 H   0  0  0  0  0  0  0  0  0  0  0  0
   -4.9383   -1.9295    2.6974 H   0  0  0  0  0  0  0  0  0  0  0  0
   -4.1322    1.1484   -1.2879 H   0  0  0  0  0  0  0  0  0  0  0  0
   -5.3124    0.6210   -0.1105 H   0  0  0  0  0  0  0  0  0  0  0  0
   -3.9115    1.7513    1.7230 H   0  0  0  0  0  0  0  0  0  0  0  0
   -4.8980    3.5609   -0.5414 H   0  0  0  0  0  0  0  0  0  0  0  0
   -4.6535    4.0404    1.1476 H   0  0  0  0  0  0  0  0  0  0  0  0
   -5.9014    2.8558    0.7391 H   0  0  0  0  0  0  0  0  0  0  0  0
   -2.2345    3.4409    1.0337 H   0  0  0  0  0  0  0  0  0  0  0  0
   -2.3611    2.9060   -0.6492 H   0  0  0  0  0  0  0  0  0  0  0  0
   -1.7163    1.8144    0.5923 H   0  0  0  0  0  0  0  0  0  0  0  0
   -2.8433   -0.0393   -2.7014 H   0  0  0  0  0  0  0  0  0  0  0  0
   -1.2582   -0.7782   -2.5363 H   0  0  0  0  0  0  0  0  0  0  0  0
   -1.5570    0.7979   -1.7983 H   0  0  0  0  0  0  0  0  0  0  0  0
  1  2  2  0
  2  3  1  0
  3  4  1  0
  4  5  1  0
  5  6  2  0
  5  7  1  0
  7  8  1  0
  8  9  2  0
  8 10  1  0
 10 11  1  0
 11 12  1  0
 12 13  2  0
 12 14  1  0
 14 15  1  0
 15 16  3  0
 14 17  2  3
 17 18  1  0
 18 19  1  0
 19 20  2  0
 20 21  1  0
 20 22  1  0
 22 23  1  0
 23 24  1  0
 24 25  1  0
 24 26  1  0
 22 27  1  0
 27 28  1  0
 27 18  2  0
  1 29  1  0
  1 30  1  0
  2 31  1  0
  3 32  1  0
  3 33  1  0
  4 34  1  0
  7 35  1  0
 10 36  1  0
 10 37  1  0
 17 38  1  0
 19 39  1  0
 21 40  1  0
 21 41  1  0
 21 42  1  0
 23 43  1  0
 23 44  1  0
 24 45  1  0
 25 46  1  0
 25 47  1  0
 25 48  1  0
 26 49  1  0
 26 50  1  0
 26 51  1  0
 28 52  1  0
 28 53  1  0
 28 54  1  0
M  END
$$$$
