
     RDKit          3D

 52 53  0  0  0  0  0  0  0  0999 V2000
    4.9601    3.0752   -1.2128 C   0  0  0  0  0  0  0  0  0  0  0  0
    5.5116    1.7935   -1.4860 O   0  0  0  0  0  0  0  0  0  0  0  0
    4.9151    0.7178   -0.8872 C   0  0  0  0  0  0  0  0  0  0  0  0
    5.4746   -0.5159   -1.2195 C   0  0  0  0  0  0  0  0  0  0  0  0
    4.9597   -1.6926   -0.6793 C   0  0  0  0  0  0  0  0  0  0  0  0
    3.8776   -1.6438    0.2015 C   0  0  0  0  0  0  0  0  0  0  0  0
    3.3072   -0.4184    0.5466 C   0  0  0  0  0  0  0  0  0  0  0  0
    2.2167   -0.2831    1.4267 N   0  0  0  0  0  0  0  0  0  0  0  0
    1.5056   -1.2778    2.0727 C   0  0  0  0  0  0  0  0  0  0  0  0
    1.7130   -2.4863    2.0053 O   0  0  0  0  0  0  0  0  0  0  0  0
    0.3652   -0.7358    2.9509 C   0  0  0  0  0  0  0  0  0  0  0  0
    0.1927    0.7282    2.8880 N   0  0  0  0  0  0  0  0  0  0  0  0
    0.7521    1.4922    3.9930 C   0  0  0  0  0  0  0  0  0  0  0  0
   -0.7133    1.3598    2.0444 C   0  0  0  0  0  0  0  0  0  0  0  0
   -1.0447    2.5354    2.1676 O   0  0  0  0  0  0  0  0  0  0  0  0
   -1.2503    0.5437    0.9306 C   0  0  0  0  0  0  0  0  0  0  0  0
   -2.5220    0.7055    0.5386 C   0  0  0  0  0  0  0  0  0  0  0  0
   -3.1291   -0.0751   -0.5553 C   0  0  0  0  0  0  0  0  0  0  0  0
   -3.8981    0.6392   -1.4934 C   0  0  0  0  0  0  0  0  0  0  0  0
   -4.5187   -0.0175   -2.5556 C   0  0  0  0  0  0  0  0  0  0  0  0
   -5.2803    0.5650   -3.5304 O   0  0  0  0  0  0  0  0  0  0  0  0
   -5.4496    1.9754   -3.4599 C   0  0  0  0  0  0  0  0  0  0  0  0
   -4.3788   -1.3993   -2.6741 C   0  0  0  0  0  0  0  0  0  0  0  0
   -3.6315   -2.1271   -1.7437 C   0  0  0  0  0  0  0  0  0  0  0  0
   -3.0027   -1.4765   -0.6783 C   0  0  0  0  0  0  0  0  0  0  0  0
   -2.2805   -2.1226    0.2943 O   0  0  0  0  0  0  0  0  0  0  0  0
   -1.9466   -3.4868    0.0689 C   0  0  0  0  0  0  0  0  0  0  0  0
    3.8334    0.7622   -0.0033 C   0  0  0  0  0  0  0  0  0  0  0  0
    5.0489    3.3239   -0.1501 H   0  0  0  0  0  0  0  0  0  0  0  0
    5.5368    3.8146   -1.7768 H   0  0  0  0  0  0  0  0  0  0  0  0
    3.9197    3.1376   -1.5486 H   0  0  0  0  0  0  0  0  0  0  0  0
    6.3171   -0.5604   -1.9053 H   0  0  0  0  0  0  0  0  0  0  0  0
    5.4004   -2.6505   -0.9432 H   0  0  0  0  0  0  0  0  0  0  0  0
    3.5066   -2.5819    0.6016 H   0  0  0  0  0  0  0  0  0  0  0  0
    1.8897    0.6605    1.6088 H   0  0  0  0  0  0  0  0  0  0  0  0
   -0.5622   -1.2314    2.6472 H   0  0  0  0  0  0  0  0  0  0  0  0
    0.5738   -1.0198    3.9885 H   0  0  0  0  0  0  0  0  0  0  0  0
    1.7843    1.1736    4.1652 H   0  0  0  0  0  0  0  0  0  0  0  0
    0.7460    2.5649    3.7810 H   0  0  0  0  0  0  0  0  0  0  0  0
    0.1523    1.3025    4.8880 H   0  0  0  0  0  0  0  0  0  0  0  0
   -0.5920   -0.1668    0.4486 H   0  0  0  0  0  0  0  0  0  0  0  0
   -3.1598    1.4453    1.0174 H   0  0  0  0  0  0  0  0  0  0  0  0
   -3.9882    1.7148   -1.3758 H   0  0  0  0  0  0  0  0  0  0  0  0
   -6.0746    2.2796   -4.3050 H   0  0  0  0  0  0  0  0  0  0  0  0
   -5.9691    2.2649   -2.5405 H   0  0  0  0  0  0  0  0  0  0  0  0
   -4.4893    2.4934   -3.5526 H   0  0  0  0  0  0  0  0  0  0  0  0
   -4.8637   -1.9190   -3.4976 H   0  0  0  0  0  0  0  0  0  0  0  0
   -3.5730   -3.2022   -1.8758 H   0  0  0  0  0  0  0  0  0  0  0  0
   -2.8389   -4.1195    0.1110 H   0  0  0  0  0  0  0  0  0  0  0  0
   -1.4121   -3.6153   -0.8782 H   0  0  0  0  0  0  0  0  0  0  0  0
   -1.2765   -3.8027    0.8743 H   0  0  0  0  0  0  0  0  0  0  0  0
    3.3855    1.7119    0.2676 H   0  0  0  0  0  0  0  0  0  0  0  0
  1  2  1  0
  2  3  1  0
  3  4  2  0
  4  5  1  0
  5  6  2  0
  6  7  1  0
  7  8  1  0
  8  9  1  0
  9 10  2  0
  9 11  1  0
 11 12  1  0
 12 13  1  0
 12 14  1  0
 14 15  2  0
 14 16  1  0
 16 17  2  3
 17 18  1  0
 18 19  2  0
 19 20  1  0
 20 21  1  0
 21 22  1  0
 20 23  2  0
 23 24  1  0
 24 25  2  0
 25 26  1  0
 26 27  1  0
  7 28  2  0
 28  3  1  0
 25 18  1  0
  1 29  1  0
  1 30  1  0
  1 31  1  0
  4 32  1  0
  5 33  1  0
  6 34  1  0
  8 35  1  0
 11 36  1  0
 11 37  1  0
 13 38  1  0
 13 39  1  0
 13 40  1  0
 16 41  1  0
 17 42  1  0
 19 43  1  0
 22 44  1  0
 22 45  1  0
 22 46  1  0
 23 47  1  0
 24 48  1  0
 27 49  1  0
 27 50  1  0
 27 51  1  0
 28 52  1  0
M  END
$$$$
