
     RDKit          3D

 71 76  0  0  0  0  0  0  0  0999 V2000
    9.5957   -1.0282    1.4177 C   0  0  0  0  0  0  0  0  0  0  0  0
    9.6603    0.3521    1.0734 O   0  0  0  0  0  0  0  0  0  0  0  0
    8.6656    0.8268    0.2592 C   0  0  0  0  0  0  0  0  0  0  0  0
    8.9071    2.0910   -0.2764 C   0  0  0  0  0  0  0  0  0  0  0  0
    7.9685    2.6841   -1.1161 C   0  0  0  0  0  0  0  0  0  0  0  0
    6.7776    2.0152   -1.4079 C   0  0  0  0  0  0  0  0  0  0  0  0
    6.4837    0.7526   -0.8591 C   0  0  0  0  0  0  0  0  0  0  0  0
    5.2514    0.1342   -1.1643 N   0  0  0  0  0  0  0  0  0  0  0  0
    4.0816    0.9436   -0.7298 C   0  0  0  0  0  0  0  0  0  0  0  0
    2.7630    0.3487   -1.2611 C   0  0  0  0  0  0  0  0  0  0  0  0
    2.6349   -1.0801   -0.9469 N   0  0  0  0  0  0  0  0  0  0  0  0
    1.4650   -1.7357   -0.5871 C   0  0  0  0  0  0  0  0  0  0  0  0
    1.4075   -2.9657   -0.5535 O   0  0  0  0  0  0  0  0  0  0  0  0
    0.2683   -0.8860   -0.1634 C   0  0  0  0  0  0  0  0  0  0  0  0
    0.5400   -0.1862    1.1840 C   0  0  0  0  0  0  0  0  0  0  0  0
   -0.5886   -0.3687    2.1952 C   0  0  0  0  0  0  0  0  0  0  0  0
   -1.9661   -0.1457    1.5715 C   0  0  0  0  0  0  0  0  0  0  0  0
   -2.1190   -0.9099    0.3328 N   0  0  0  0  0  0  0  0  0  0  0  0
   -3.4126   -1.3084   -0.0081 C   0  0  0  0  0  0  0  0  0  0  0  0
   -3.5937   -2.4639   -0.7162 N   0  0  0  0  0  0  0  0  0  0  0  0
   -4.8401   -2.8509   -1.0559 C   0  0  0  0  0  0  0  0  0  0  0  0
   -6.0050   -2.2315   -0.7983 N   0  0  0  0  0  0  0  0  0  0  0  0
   -5.7975   -1.0945   -0.1142 C   0  0  0  0  0  0  0  0  0  0  0  0
   -4.5858   -0.5739    0.3088 C   0  0  0  0  0  0  0  0  0  0  0  0
   -4.7923    0.6194    0.9804 N   0  0  0  0  0  0  0  0  0  0  0  0
   -6.0963    0.8348    0.9574 C   0  0  0  0  0  0  0  0  0  0  0  0
   -6.7411   -0.2014    0.3162 N   0  0  0  0  0  0  0  0  0  0  0  0
   -8.1650   -0.3389    0.1298 C   0  0  0  0  0  0  0  0  0  0  0  0
   -8.7564    0.7273   -0.7884 C   0  0  0  0  0  0  0  0  0  0  0  0
   -8.3960    2.1747   -0.4351 C   0  0  0  0  0  0  0  0  0  0  0  0
   -8.1561    2.4072    1.0564 C   0  0  0  0  0  0  0  0  0  0  0  0
   -6.7454    2.0550    1.5339 C   0  0  0  0  0  0  0  0  0  0  0  0
   -1.0039   -1.7484   -0.1125 C   0  0  0  0  0  0  0  0  0  0  0  0
    3.7904   -1.8762   -1.3773 C   0  0  0  0  0  0  0  0  0  0  0  0
    5.1076   -1.3030   -0.8265 C   0  0  0  0  0  0  0  0  0  0  0  0
    7.4612    0.1698   -0.0315 C   0  0  0  0  0  0  0  0  0  0  0  0
   10.5116   -1.2813    1.9608 H   0  0  0  0  0  0  0  0  0  0  0  0
    9.5499   -1.6622    0.5257 H   0  0  0  0  0  0  0  0  0  0  0  0
    8.7518   -1.2268    2.0859 H   0  0  0  0  0  0  0  0  0  0  0  0
    9.8335    2.6104   -0.0441 H   0  0  0  0  0  0  0  0  0  0  0  0
    8.1655    3.6624   -1.5478 H   0  0  0  0  0  0  0  0  0  0  0  0
    6.0792    2.4885   -2.0932 H   0  0  0  0  0  0  0  0  0  0  0  0
    4.1436    1.9755   -1.0910 H   0  0  0  0  0  0  0  0  0  0  0  0
    4.0497    0.9753    0.3677 H   0  0  0  0  0  0  0  0  0  0  0  0
    2.7291    0.4329   -2.3550 H   0  0  0  0  0  0  0  0  0  0  0  0
    1.9288    0.9308   -0.8704 H   0  0  0  0  0  0  0  0  0  0  0  0
    0.0985   -0.1262   -0.9374 H   0  0  0  0  0  0  0  0  0  0  0  0
    0.6725    0.8902    1.0094 H   0  0  0  0  0  0  0  0  0  0  0  0
    1.4779   -0.5370    1.6366 H   0  0  0  0  0  0  0  0  0  0  0  0
   -0.5366   -1.3838    2.6113 H   0  0  0  0  0  0  0  0  0  0  0  0
   -0.4467    0.3174    3.0380 H   0  0  0  0  0  0  0  0  0  0  0  0
   -2.7115   -0.4393    2.3209 H   0  0  0  0  0  0  0  0  0  0  0  0
   -2.1000    0.9209    1.3560 H   0  0  0  0  0  0  0  0  0  0  0  0
   -4.9067   -3.7862   -1.6043 H   0  0  0  0  0  0  0  0  0  0  0  0
   -8.3767   -1.3310   -0.2837 H   0  0  0  0  0  0  0  0  0  0  0  0
   -8.6253   -0.3147    1.1244 H   0  0  0  0  0  0  0  0  0  0  0  0
   -8.4548    0.5357   -1.8267 H   0  0  0  0  0  0  0  0  0  0  0  0
   -9.8483    0.6205   -0.7621 H   0  0  0  0  0  0  0  0  0  0  0  0
   -9.2168    2.8202   -0.7743 H   0  0  0  0  0  0  0  0  0  0  0  0
   -7.5135    2.4890   -1.0065 H   0  0  0  0  0  0  0  0  0  0  0  0
   -8.9077    1.8727    1.6549 H   0  0  0  0  0  0  0  0  0  0  0  0
   -8.3191    3.4727    1.2702 H   0  0  0  0  0  0  0  0  0  0  0  0
   -6.7494    1.9667    2.6268 H   0  0  0  0  0  0  0  0  0  0  0  0
   -6.0905    2.9069    1.3045 H   0  0  0  0  0  0  0  0  0  0  0  0
   -1.1804   -2.1430   -1.1219 H   0  0  0  0  0  0  0  0  0  0  0  0
   -0.8875   -2.6093    0.5595 H   0  0  0  0  0  0  0  0  0  0  0  0
    3.6914   -2.9188   -1.0609 H   0  0  0  0  0  0  0  0  0  0  0  0
    3.7999   -1.8621   -2.4742 H   0  0  0  0  0  0  0  0  0  0  0  0
    5.9372   -1.8787   -1.2526 H   0  0  0  0  0  0  0  0  0  0  0  0
    5.1126   -1.4298    0.2633 H   0  0  0  0  0  0  0  0  0  0  0  0
    7.2703   -0.7982    0.4152 H   0  0  0  0  0  0  0  0  0  0  0  0
  1  2  1  0
  2  3  1  0
  3  4  2  0
  4  5  1  0
  5  6  2  0
  6  7  1  0
  7  8  1  0
  8  9  1  0
  9 10  1  0
 10 11  1  0
 11 12  1  0
 12 13  2  0
 12 14  1  0
 14 15  1  0
 15 16  1  0
 16 17  1  0
 17 18  1  0
 18 19  1  0
 19 20  2  0
 20 21  1  0
 21 22  2  0
 22 23  1  0
 23 24  2  0
 24 25  1  0
 25 26  2  0
 26 27  1  0
 27 28  1  0
 28 29  1  0
 29 30  1  0
 30 31  1  0
 31 32  1  0
 18 33  1  0
 11 34  1  0
 34 35  1  0
  7 36  2  0
 36  3  1  0
 35  8  1  0
 33 14  1  0
 24 19  1  0
 32 26  1  0
 27 23  1  0
  1 37  1  0
  1 38  1  0
  1 39  1  0
  4 40  1  0
  5 41  1  0
  6 42  1  0
  9 43  1  0
  9 44  1  0
 10 45  1  0
 10 46  1  0
 14 47  1  0
 15 48  1  0
 15 49  1  0
 16 50  1  0
 16 51  1  0
 17 52  1  0
 17 53  1  0
 21 54  1  0
 28 55  1  0
 28 56  1  0
 29 57  1  0
 29 58  1  0
 30 59  1  0
 30 60  1  0
 31 61  1  0
 31 62  1  0
 32 63  1  0
 32 64  1  0
 33 65  1  0
 33 66  1  0
 34 67  1  0
 34 68  1  0
 35 69  1  0
 35 70  1  0
 36 71  1  0
M  END
$$$$
