
     RDKit          3D

 44 47  0  0  0  0  0  0  0  0999 V2000
    4.1152    2.9469   -0.7657 C   0  0  0  0  0  0  0  0  0  0  0  0
    5.3569    2.3061   -0.5013 O   0  0  0  0  0  0  0  0  0  0  0  0
    5.2950    1.0229   -0.1547 C   0  0  0  0  0  0  0  0  0  0  0  0
    6.2747    0.1051    0.1434 C   0  0  0  0  0  0  0  0  0  0  0  0
    5.6082   -1.1075    0.4406 C   0  0  0  0  0  0  0  0  0  0  0  0
    4.2553   -0.8596    0.3074 C   0  0  0  0  0  0  0  0  0  0  0  0
    3.1066   -1.7210    0.4878 C   0  0  0  0  0  0  0  0  0  0  0  0
    3.1854   -2.8984    0.8262 O   0  0  0  0  0  0  0  0  0  0  0  0
    1.9015   -1.0979    0.2544 N   0  0  0  0  0  0  0  0  0  0  0  0
    0.6384   -1.7452    0.5195 C   0  0  0  0  0  0  0  0  0  0  0  0
    0.3122   -1.7222    2.0310 C   0  0  0  0  0  0  0  0  0  0  0  0
   -1.1869   -1.9295    2.3041 C   0  0  0  0  0  0  0  0  0  0  0  0
   -2.0375   -0.8115    1.6686 C   0  0  0  0  0  0  0  0  0  0  0  0
   -1.6234   -0.6019    0.2513 C   0  0  0  0  0  0  0  0  0  0  0  0
   -0.4184   -1.0450   -0.2674 C   0  0  0  0  0  0  0  0  0  0  0  0
   -0.5073   -0.7865   -1.6382 C   0  0  0  0  0  0  0  0  0  0  0  0
   -1.6589   -0.2097   -1.9707 N   0  0  0  0  0  0  0  0  0  0  0  0
   -2.3406   -0.0376   -0.7957 N   0  0  0  0  0  0  0  0  0  0  0  0
   -3.6053    0.6169   -0.8404 C   0  0  0  0  0  0  0  0  0  0  0  0
   -4.2601    0.7272   -2.0838 C   0  0  0  0  0  0  0  0  0  0  0  0
   -5.5107    1.3443   -2.1873 C   0  0  0  0  0  0  0  0  0  0  0  0
   -6.1210    1.8740   -1.0551 C   0  0  0  0  0  0  0  0  0  0  0  0
   -5.4712    1.7966    0.1740 C   0  0  0  0  0  0  0  0  0  0  0  0
   -4.2215    1.1792    0.2762 C   0  0  0  0  0  0  0  0  0  0  0  0
   -3.6280    1.2322    1.4729 F   0  0  0  0  0  0  0  0  0  0  0  0
    4.0634    0.4499   -0.0557 O   0  0  0  0  0  0  0  0  0  0  0  0
    3.5970    2.4682   -1.6038 H   0  0  0  0  0  0  0  0  0  0  0  0
    3.4803    2.9551    0.1269 H   0  0  0  0  0  0  0  0  0  0  0  0
    4.3222    3.9846   -1.0436 H   0  0  0  0  0  0  0  0  0  0  0  0
    7.3381    0.2954    0.1427 H   0  0  0  0  0  0  0  0  0  0  0  0
    6.0480   -2.0557    0.7194 H   0  0  0  0  0  0  0  0  0  0  0  0
    1.9239   -0.0962    0.1019 H   0  0  0  0  0  0  0  0  0  0  0  0
    0.6960   -2.7888    0.1847 H   0  0  0  0  0  0  0  0  0  0  0  0
    0.6180   -0.7620    2.4692 H   0  0  0  0  0  0  0  0  0  0  0  0
    0.8958   -2.4944    2.5464 H   0  0  0  0  0  0  0  0  0  0  0  0
   -1.4952   -2.9041    1.9041 H   0  0  0  0  0  0  0  0  0  0  0  0
   -1.3681   -1.9535    3.3846 H   0  0  0  0  0  0  0  0  0  0  0  0
   -1.8667    0.1087    2.2380 H   0  0  0  0  0  0  0  0  0  0  0  0
   -3.0936   -1.0892    1.7417 H   0  0  0  0  0  0  0  0  0  0  0  0
    0.2108   -1.0131   -2.4166 H   0  0  0  0  0  0  0  0  0  0  0  0
   -3.8119    0.3176   -2.9888 H   0  0  0  0  0  0  0  0  0  0  0  0
   -6.0032    1.4093   -3.1548 H   0  0  0  0  0  0  0  0  0  0  0  0
   -7.0911    2.3580   -1.1322 H   0  0  0  0  0  0  0  0  0  0  0  0
   -5.9223    2.2322    1.0610 H   0  0  0  0  0  0  0  0  0  0  0  0
  1  2  1  0
  2  3  1  0
  3  4  2  0
  4  5  1  0
  5  6  2  0
  6  7  1  0
  7  8  2  0
  7  9  1  0
  9 10  1  0
 10 11  1  0
 11 12  1  0
 12 13  1  0
 13 14  1  0
 14 15  2  0
 15 16  1  0
 16 17  2  0
 17 18  1  0
 18 19  1  0
 19 20  2  0
 20 21  1  0
 21 22  2  0
 22 23  1  0
 23 24  2  0
 24 25  1  0
  6 26  1  0
 26  3  1  0
 15 10  1  0
 24 19  1  0
 18 14  1  0
  1 27  1  0
  1 28  1  0
  1 29  1  0
  4 30  1  0
  5 31  1  0
  9 32  1  0
 10 33  1  0
 11 34  1  0
 11 35  1  0
 12 36  1  0
 12 37  1  0
 13 38  1  0
 13 39  1  0
 16 40  1  0
 20 41  1  0
 21 42  1  0
 22 43  1  0
 23 44  1  0
M  END
$$$$
