
     RDKit          3D

 44 46  0  0  0  0  0  0  0  0999 V2000
    0.2061    1.1473   -0.9985 N   0  0  0  0  0  0  0  0  0  0  0  0
    0.0912    0.5533   -0.0070 C   0  0  0  0  0  0  0  0  0  0  0  0
   -0.1564   -0.2086    1.1665 C   0  0  0  0  0  0  0  0  0  0  0  0
    0.7268   -0.3766    2.1700 C   0  0  0  0  0  0  0  0  0  0  0  0
    2.0361    0.1822    2.2045 C   0  0  0  0  0  0  0  0  0  0  0  0
    2.9954    0.0552    3.2015 C   0  0  0  0  0  0  0  0  0  0  0  0
    4.1424    0.7824    2.8003 C   0  0  0  0  0  0  0  0  0  0  0  0
    3.8467    1.3298    1.5716 C   0  0  0  0  0  0  0  0  0  0  0  0
    4.5691    2.1728    0.6210 C   0  0  0  0  0  0  0  0  0  0  0  0
    3.9784    2.5826   -0.5856 C   0  0  0  0  0  0  0  0  0  0  0  0
    4.6736    3.3896   -1.4926 C   0  0  0  0  0  0  0  0  0  0  0  0
    5.9716    3.7958   -1.1999 C   0  0  0  0  0  0  0  0  0  0  0  0
    6.9149    4.8858   -2.4219 Br  0  0  0  0  0  0  0  0  0  0  0  0
    6.5791    3.4030   -0.0106 C   0  0  0  0  0  0  0  0  0  0  0  0
    5.8798    2.5957    0.8939 C   0  0  0  0  0  0  0  0  0  0  0  0
    2.5812    0.9667    1.2177 O   0  0  0  0  0  0  0  0  0  0  0  0
   -1.4847   -0.8898    1.3339 C   0  0  0  0  0  0  0  0  0  0  0  0
   -1.7360   -1.5684    2.3274 O   0  0  0  0  0  0  0  0  0  0  0  0
   -2.3958   -0.7154    0.3134 N   0  0  0  0  0  0  0  0  0  0  0  0
   -3.6811   -1.4105    0.3048 C   0  0  0  0  0  0  0  0  0  0  0  0
   -4.7076   -0.6338   -0.5376 C   0  0  0  0  0  0  0  0  0  0  0  0
   -4.7358   -1.1152   -1.9840 C   0  0  0  0  0  0  0  0  0  0  0  0
   -5.1218   -2.5926   -2.0839 C   0  0  0  0  0  0  0  0  0  0  0  0
   -4.7424   -3.4081   -0.8466 C   0  0  0  0  0  0  0  0  0  0  0  0
   -3.4900   -2.8612   -0.1746 C   0  0  0  0  0  0  0  0  0  0  0  0
    0.4476   -0.9792    3.0328 H   0  0  0  0  0  0  0  0  0  0  0  0
    2.8762   -0.5040    4.1201 H   0  0  0  0  0  0  0  0  0  0  0  0
    5.0682    0.8893    3.3471 H   0  0  0  0  0  0  0  0  0  0  0  0
    2.9635    2.2770   -0.8359 H   0  0  0  0  0  0  0  0  0  0  0  0
    4.1894    3.6903   -2.4180 H   0  0  0  0  0  0  0  0  0  0  0  0
    7.5928    3.7168    0.2242 H   0  0  0  0  0  0  0  0  0  0  0  0
    6.3771    2.3029    1.8152 H   0  0  0  0  0  0  0  0  0  0  0  0
   -2.1290   -0.2433   -0.5434 H   0  0  0  0  0  0  0  0  0  0  0  0
   -4.0465   -1.4269    1.3396 H   0  0  0  0  0  0  0  0  0  0  0  0
   -4.5064    0.4436   -0.5035 H   0  0  0  0  0  0  0  0  0  0  0  0
   -5.7065   -0.7776   -0.1054 H   0  0  0  0  0  0  0  0  0  0  0  0
   -5.4386   -0.5128   -2.5707 H   0  0  0  0  0  0  0  0  0  0  0  0
   -3.7465   -0.9659   -2.4346 H   0  0  0  0  0  0  0  0  0  0  0  0
   -6.2026   -2.6840   -2.2462 H   0  0  0  0  0  0  0  0  0  0  0  0
   -4.6430   -3.0210   -2.9729 H   0  0  0  0  0  0  0  0  0  0  0  0
   -5.5727   -3.3913   -0.1294 H   0  0  0  0  0  0  0  0  0  0  0  0
   -4.5959   -4.4569   -1.1286 H   0  0  0  0  0  0  0  0  0  0  0  0
   -2.6533   -2.9239   -0.8834 H   0  0  0  0  0  0  0  0  0  0  0  0
   -3.2146   -3.4953    0.6768 H   0  0  0  0  0  0  0  0  0  0  0  0
  1  2  3  0
  2  3  1  0
  3  4  2  3
  4  5  1  0
  5  6  2  0
  6  7  1  0
  7  8  2  0
  8  9  1  0
  9 10  2  0
 10 11  1  0
 11 12  2  0
 12 13  1  0
 12 14  1  0
 14 15  2  0
  8 16  1  0
  3 17  1  0
 17 18  2  0
 17 19  1  0
 19 20  1  0
 20 21  1  0
 21 22  1  0
 22 23  1  0
 23 24  1  0
 24 25  1  0
 16  5  1  0
 25 20  1  0
 15  9  1  0
  4 26  1  0
  6 27  1  0
  7 28  1  0
 10 29  1  0
 11 30  1  0
 14 31  1  0
 15 32  1  0
 19 33  1  0
 20 34  1  0
 21 35  1  0
 21 36  1  0
 22 37  1  0
 22 38  1  0
 23 39  1  0
 23 40  1  0
 24 41  1  0
 24 42  1  0
 25 43  1  0
 25 44  1  0
M  END
$$$$
