
     RDKit          3D

 40 42  0  0  0  0  0  0  0  0999 V2000
    0.5279   -4.1509    0.4205 C   0  0  0  0  0  0  0  0  0  0  0  0
   -0.0373   -2.8449    0.3004 O   0  0  0  0  0  0  0  0  0  0  0  0
    0.8794   -1.8370    0.2710 C   0  0  0  0  0  0  0  0  0  0  0  0
    2.0936   -2.0142    0.3412 O   0  0  0  0  0  0  0  0  0  0  0  0
    0.2821   -0.5040    0.1291 C   0  0  0  0  0  0  0  0  0  0  0  0
    1.0723    0.6345   -0.0107 C   0  0  0  0  0  0  0  0  0  0  0  0
    2.4612    0.6620   -0.0065 N   0  0  0  0  0  0  0  0  0  0  0  0
    3.3005    1.7615   -0.1195 C   0  0  0  0  0  0  0  0  0  0  0  0
    2.9277    2.9238   -0.2416 O   0  0  0  0  0  0  0  0  0  0  0  0
    4.7184    1.4119   -0.0739 C   0  0  0  0  0  0  0  0  0  0  0  0
    5.4101    0.2139    0.0333 C   0  0  0  0  0  0  0  0  0  0  0  0
    6.7923    0.5292    0.0247 C   0  0  0  0  0  0  0  0  0  0  0  0
    6.8704    1.8948   -0.0881 C   0  0  0  0  0  0  0  0  0  0  0  0
    5.6297    2.4364   -0.1485 O   0  0  0  0  0  0  0  0  0  0  0  0
    0.1559    2.0466   -0.2106 S   0  0  0  0  0  0  0  0  0  0  0  0
   -1.3101    1.2020   -0.1078 C   0  0  0  0  0  0  0  0  0  0  0  0
   -1.1224   -0.1505    0.1091 C   0  0  0  0  0  0  0  0  0  0  0  0
   -2.3146   -1.0502    0.2539 C   0  0  0  0  0  0  0  0  0  0  0  0
   -3.5797   -0.2473    0.6008 C   0  0  0  0  0  0  0  0  0  0  0  0
   -3.7319    0.9502   -0.2396 N   0  0  0  0  0  0  0  0  0  0  0  0
   -4.9600    1.4377   -0.6686 C   0  0  0  0  0  0  0  0  0  0  0  0
   -6.1399    0.5024   -0.6004 C   0  0  0  0  0  0  0  0  0  0  0  0
   -5.1041    2.5813   -1.1013 O   0  0  0  0  0  0  0  0  0  0  0  0
   -2.6236    1.9155   -0.2248 C   0  0  0  0  0  0  0  0  0  0  0  0
   -0.2924   -4.8737    0.4424 H   0  0  0  0  0  0  0  0  0  0  0  0
    1.1630   -4.3740   -0.4424 H   0  0  0  0  0  0  0  0  0  0  0  0
    1.0932   -4.2407    1.3533 H   0  0  0  0  0  0  0  0  0  0  0  0
    2.8934   -0.2491    0.1138 H   0  0  0  0  0  0  0  0  0  0  0  0
    4.9846   -0.7773    0.1084 H   0  0  0  0  0  0  0  0  0  0  0  0
    7.6271   -0.1542    0.0920 H   0  0  0  0  0  0  0  0  0  0  0  0
    7.6891    2.5995   -0.1370 H   0  0  0  0  0  0  0  0  0  0  0  0
   -2.1538   -1.7940    1.0408 H   0  0  0  0  0  0  0  0  0  0  0  0
   -2.4670   -1.5805   -0.6940 H   0  0  0  0  0  0  0  0  0  0  0  0
   -3.5364    0.1029    1.6404 H   0  0  0  0  0  0  0  0  0  0  0  0
   -4.4471   -0.9068    0.5247 H   0  0  0  0  0  0  0  0  0  0  0  0
   -5.9163   -0.4329   -1.1206 H   0  0  0  0  0  0  0  0  0  0  0  0
   -6.9975    0.9660   -1.0980 H   0  0  0  0  0  0  0  0  0  0  0  0
   -6.4088    0.3126    0.4419 H   0  0  0  0  0  0  0  0  0  0  0  0
   -2.6544    2.5195   -1.1389 H   0  0  0  0  0  0  0  0  0  0  0  0
   -2.7748    2.5781    0.6359 H   0  0  0  0  0  0  0  0  0  0  0  0
  1  2  1  0
  2  3  1  0
  3  4  2  0
  3  5  1  0
  5  6  2  0
  6  7  1  0
  7  8  1  0
  8  9  2  0
  8 10  1  0
 10 11  2  0
 11 12  1  0
 12 13  2  0
 13 14  1  0
  6 15  1  0
 15 16  1  0
 16 17  2  0
 17 18  1  0
 18 19  1  0
 19 20  1  0
 20 21  1  0
 21 22  1  0
 21 23  2  0
 20 24  1  0
 17  5  1  0
 14 10  1  0
 24 16  1  0
  1 25  1  0
  1 26  1  0
  1 27  1  0
  7 28  1  0
 11 29  1  0
 12 30  1  0
 13 31  1  0
 18 32  1  0
 18 33  1  0
 19 34  1  0
 19 35  1  0
 22 36  1  0
 22 37  1  0
 22 38  1  0
 24 39  1  0
 24 40  1  0
M  END
$$$$
