
     RDKit          3D

 43 45  0  0  0  0  0  0  0  0999 V2000
   -4.6325   -2.4578   -0.7835 C   0  0  0  0  0  0  0  0  0  0  0  0
   -4.8729   -1.2637    0.0213 N   0  0  0  0  0  0  0  0  0  0  0  0
   -4.0914   -1.2812    1.2795 C   0  0  0  0  0  0  0  0  0  0  0  0
   -2.5722   -1.0275    1.1183 C   0  0  0  0  0  0  0  0  0  0  0  0
   -2.3366    0.2219    0.3574 N   0  0  0  0  0  0  0  0  0  0  0  0
   -0.9862    0.5969    0.3231 C   0  0  0  0  0  0  0  0  0  0  0  0
   -0.0763    0.0234   -0.5787 C   0  0  0  0  0  0  0  0  0  0  0  0
    1.2746    0.4014   -0.5927 C   0  0  0  0  0  0  0  0  0  0  0  0
    1.7520    1.3577    0.3118 C   0  0  0  0  0  0  0  0  0  0  0  0
    3.1696    1.7964    0.3112 C   0  0  0  0  0  0  0  0  0  0  0  0
    3.4281    2.9661    0.5795 O   0  0  0  0  0  0  0  0  0  0  0  0
    4.2784    0.8624   -0.0057 C   0  0  0  0  0  0  0  0  0  0  0  0
    4.2521   -0.4770    0.4033 C   0  0  0  0  0  0  0  0  0  0  0  0
    5.3241   -1.3200    0.0965 C   0  0  0  0  0  0  0  0  0  0  0  0
    6.4216   -0.8202   -0.6050 C   0  0  0  0  0  0  0  0  0  0  0  0
    7.8686   -1.9641   -1.0175 Br  0  0  0  0  0  0  0  0  0  0  0  0
    6.4638    0.5172   -0.9963 C   0  0  0  0  0  0  0  0  0  0  0  0
    5.3939    1.3612   -0.6902 C   0  0  0  0  0  0  0  0  0  0  0  0
    0.8715    1.9591    1.2110 C   0  0  0  0  0  0  0  0  0  0  0  0
   -0.4712    1.5626    1.2068 C   0  0  0  0  0  0  0  0  0  0  0  0
   -1.3515    2.1978    2.1618 N   0  0  0  0  0  4  0  0  0  0  0  0
   -1.5180    1.6150    3.2436 O   0  0  0  0  0  0  0  0  0  0  0  0
   -1.8181    3.3026    1.8513 O   0  0  0  0  0  1  0  0  0  0  0  0
   -3.0503    0.2521   -0.9380 C   0  0  0  0  0  0  0  0  0  0  0  0
   -4.5594   -0.0226   -0.7237 C   0  0  0  0  0  0  0  0  0  0  0  0
   -5.2541   -2.4400   -1.6856 H   0  0  0  0  0  0  0  0  0  0  0  0
   -4.9203   -3.3560   -0.2259 H   0  0  0  0  0  0  0  0  0  0  0  0
   -3.5888   -2.5713   -1.0930 H   0  0  0  0  0  0  0  0  0  0  0  0
   -4.2514   -2.2289    1.8081 H   0  0  0  0  0  0  0  0  0  0  0  0
   -4.5031   -0.5026    1.9356 H   0  0  0  0  0  0  0  0  0  0  0  0
   -2.1025   -1.8784    0.6090 H   0  0  0  0  0  0  0  0  0  0  0  0
   -2.1268   -0.9539    2.1179 H   0  0  0  0  0  0  0  0  0  0  0  0
   -0.4065   -0.7347   -1.2852 H   0  0  0  0  0  0  0  0  0  0  0  0
    1.9343   -0.0505   -1.3305 H   0  0  0  0  0  0  0  0  0  0  0  0
    3.4192   -0.8741    0.9777 H   0  0  0  0  0  0  0  0  0  0  0  0
    5.2999   -2.3587    0.4173 H   0  0  0  0  0  0  0  0  0  0  0  0
    7.3233    0.9139   -1.5310 H   0  0  0  0  0  0  0  0  0  0  0  0
    5.4324    2.4089   -0.9839 H   0  0  0  0  0  0  0  0  0  0  0  0
    1.2237    2.7234    1.9014 H   0  0  0  0  0  0  0  0  0  0  0  0
   -2.9377    1.2411   -1.3987 H   0  0  0  0  0  0  0  0  0  0  0  0
   -2.6413   -0.4904   -1.6331 H   0  0  0  0  0  0  0  0  0  0  0  0
   -5.0733   -0.0266   -1.6928 H   0  0  0  0  0  0  0  0  0  0  0  0
   -4.9887    0.8187   -0.1635 H   0  0  0  0  0  0  0  0  0  0  0  0
  1  2  1  0
  2  3  1  0
  3  4  1  0
  4  5  1  0
  5  6  1  0
  6  7  2  0
  7  8  1  0
  8  9  2  0
  9 10  1  0
 10 11  2  0
 10 12  1  0
 12 13  2  0
 13 14  1  0
 14 15  2  0
 15 16  1  0
 15 17  1  0
 17 18  2  0
  9 19  1  0
 19 20  2  0
 20 21  1  0
 21 22  2  0
 21 23  1  0
  5 24  1  0
 24 25  1  0
 25  2  1  0
 20  6  1  0
 18 12  1  0
  1 26  1  0
  1 27  1  0
  1 28  1  0
  3 29  1  0
  3 30  1  0
  4 31  1  0
  4 32  1  0
  7 33  1  0
  8 34  1  0
 13 35  1  0
 14 36  1  0
 17 37  1  0
 18 38  1  0
 19 39  1  0
 24 40  1  0
 24 41  1  0
 25 42  1  0
 25 43  1  0
M  CHG  2  21   1  23  -1
M  END
$$$$
