
     RDKit          3D

 45 49  0  0  0  0  0  0  0  0999 V2000
   -1.5095    2.7377    0.4350 O   0  0  0  0  0  0  0  0  0  0  0  0
   -1.3950    1.5210    0.2798 C   0  0  0  0  0  0  0  0  0  0  0  0
   -0.0235    0.9486    0.2435 C   0  0  0  0  0  0  0  0  0  0  0  0
    1.1478    1.6189    0.6757 C   0  0  0  0  0  0  0  0  0  0  0  0
    2.1910    0.7623    0.4277 C   0  0  0  0  0  0  0  0  0  0  0  0
    3.5308    0.8872    0.6503 N   0  0  0  0  0  0  0  0  0  0  0  0
    4.3029   -0.1056    0.2993 C   0  0  0  0  0  0  0  0  0  0  0  0
    5.7465   -0.0064    0.5106 C   0  0  0  0  0  0  0  0  0  0  0  0
    6.7748   -0.7843    0.0016 C   0  0  0  0  0  0  0  0  0  0  0  0
    8.0632   -0.3663    0.4503 C   0  0  0  0  0  0  0  0  0  0  0  0
    7.9878    0.7197    1.2895 C   0  0  0  0  0  0  0  0  0  0  0  0
    6.3779    1.2312    1.5290 S   0  0  0  0  0  0  0  0  0  0  0  0
    3.7687   -1.3673   -0.3209 C   0  0  0  0  0  0  0  0  0  0  0  0
    2.4380   -1.4404   -0.5217 C   0  0  0  0  0  0  0  0  0  0  0  0
    1.7555   -2.6136   -1.1117 C   0  0  0  0  0  0  0  0  0  0  0  0
    2.6428   -3.6079   -1.3998 F   0  0  0  0  0  0  0  0  0  0  0  0
    0.8410   -3.1660   -0.2757 F   0  0  0  0  0  0  0  0  0  0  0  0
    1.1293   -2.3270   -2.2790 F   0  0  0  0  0  0  0  0  0  0  0  0
    1.6298   -0.3733   -0.1532 N   0  0  0  0  0  0  0  0  0  0  0  0
    0.2872   -0.2551   -0.2720 N   0  0  0  0  0  0  0  0  0  0  0  0
   -2.5002    0.6474    0.1516 N   0  0  0  0  0  0  0  0  0  0  0  0
   -2.3895   -0.7571    0.5631 C   0  0  0  0  0  0  0  0  0  0  0  0
   -3.6517   -1.2768    1.2285 C   0  0  0  0  0  0  0  0  0  0  0  0
   -4.8067   -1.1681    0.2569 C   0  0  0  0  0  0  0  0  0  0  0  0
   -4.8967    0.2216   -0.3134 C   0  0  0  0  0  0  0  0  0  0  0  0
   -6.1340    0.6290   -0.8477 C   0  0  0  0  0  0  0  0  0  0  0  0
   -6.2835    1.8896   -1.4142 C   0  0  0  0  0  0  0  0  0  0  0  0
   -5.1941    2.7470   -1.4654 C   0  0  0  0  0  0  0  0  0  0  0  0
   -3.9567    2.3456   -0.9491 C   0  0  0  0  0  0  0  0  0  0  0  0
   -3.7793    1.0852   -0.3558 C   0  0  0  0  0  0  0  0  0  0  0  0
    1.2153    2.6067    1.1101 H   0  0  0  0  0  0  0  0  0  0  0  0
    6.6349   -1.6162   -0.6767 H   0  0  0  0  0  0  0  0  0  0  0  0
    8.9975   -0.8365    0.1677 H   0  0  0  0  0  0  0  0  0  0  0  0
    8.8015    1.2437    1.7721 H   0  0  0  0  0  0  0  0  0  0  0  0
    4.4407   -2.1761   -0.5732 H   0  0  0  0  0  0  0  0  0  0  0  0
   -1.5777   -0.8693    1.2891 H   0  0  0  0  0  0  0  0  0  0  0  0
   -2.1486   -1.3524   -0.3262 H   0  0  0  0  0  0  0  0  0  0  0  0
   -3.5177   -2.3191    1.5377 H   0  0  0  0  0  0  0  0  0  0  0  0
   -3.8621   -0.6907    2.1327 H   0  0  0  0  0  0  0  0  0  0  0  0
   -5.7353   -1.4276    0.7793 H   0  0  0  0  0  0  0  0  0  0  0  0
   -4.6771   -1.8786   -0.5687 H   0  0  0  0  0  0  0  0  0  0  0  0
   -6.9894   -0.0429   -0.8213 H   0  0  0  0  0  0  0  0  0  0  0  0
   -7.2430    2.1983   -1.8197 H   0  0  0  0  0  0  0  0  0  0  0  0
   -5.2950    3.7319   -1.9143 H   0  0  0  0  0  0  0  0  0  0  0  0
   -3.1390    3.0518   -1.0517 H   0  0  0  0  0  0  0  0  0  0  0  0
  1  2  2  0
  2  3  1  0
  3  4  1  0
  4  5  2  0
  5  6  1  0
  6  7  2  0
  7  8  1  0
  8  9  2  0
  9 10  1  0
 10 11  2  0
 11 12  1  0
  7 13  1  0
 13 14  2  0
 14 15  1  0
 15 16  1  0
 15 17  1  0
 15 18  1  0
 14 19  1  0
 19 20  1  0
  2 21  1  0
 21 22  1  0
 22 23  1  0
 23 24  1  0
 24 25  1  0
 25 26  2  0
 26 27  1  0
 27 28  2  0
 28 29  1  0
 29 30  2  0
 20  3  2  0
 30 21  1  0
 19  5  1  0
 30 25  1  0
 12  8  1  0
  4 31  1  0
  9 32  1  0
 10 33  1  0
 11 34  1  0
 13 35  1  0
 22 36  1  0
 22 37  1  0
 23 38  1  0
 23 39  1  0
 24 40  1  0
 24 41  1  0
 26 42  1  0
 27 43  1  0
 28 44  1  0
 29 45  1  0
M  END
$$$$
