
     RDKit          3D

 44 47  0  0  0  0  0  0  0  0999 V2000
    7.6588   -1.3764   -0.2445 C   0  0  0  0  0  0  0  0  0  0  0  0
    6.9887   -1.7167   -1.4531 O   0  0  0  0  0  0  0  0  0  0  0  0
    5.6896   -1.4330   -1.4989 C   0  0  0  0  0  0  0  0  0  0  0  0
    4.7459   -1.6043   -2.4824 C   0  0  0  0  0  0  0  0  0  0  0  0
    3.5270   -1.1098   -1.9549 C   0  0  0  0  0  0  0  0  0  0  0  0
    3.7958   -0.6651   -0.6703 C   0  0  0  0  0  0  0  0  0  0  0  0
    2.9811   -0.0626    0.3686 C   0  0  0  0  0  0  0  0  0  0  0  0
    3.4301    0.3513    1.4350 O   0  0  0  0  0  0  0  0  0  0  0  0
    1.6311    0.0099    0.0837 N   0  0  0  0  0  0  0  0  0  0  0  0
    0.6806    0.4707    1.0736 C   0  0  0  0  0  0  0  0  0  0  0  0
    0.3671   -0.6447    2.0988 C   0  0  0  0  0  0  0  0  0  0  0  0
   -0.9678   -0.4096    2.8250 C   0  0  0  0  0  0  0  0  0  0  0  0
   -2.1525   -0.3930    1.8385 C   0  0  0  0  0  0  0  0  0  0  0  0
   -1.8384    0.4991    0.6852 C   0  0  0  0  0  0  0  0  0  0  0  0
   -0.5555    0.9043    0.3584 C   0  0  0  0  0  0  0  0  0  0  0  0
   -0.7313    1.8477   -0.6581 C   0  0  0  0  0  0  0  0  0  0  0  0
   -2.0116    2.0142   -0.9779 N   0  0  0  0  0  0  0  0  0  0  0  0
   -2.7088    1.1418   -0.1856 N   0  0  0  0  0  0  0  0  0  0  0  0
   -4.1218    1.0648   -0.3487 C   0  0  0  0  0  0  0  0  0  0  0  0
   -4.7780    2.1143   -1.0229 C   0  0  0  0  0  0  0  0  0  0  0  0
   -6.1653    2.1010   -1.1986 C   0  0  0  0  0  0  0  0  0  0  0  0
   -6.9174    1.0342   -0.7178 C   0  0  0  0  0  0  0  0  0  0  0  0
   -6.2771   -0.0223   -0.0754 C   0  0  0  0  0  0  0  0  0  0  0  0
   -4.8906   -0.0078    0.0999 C   0  0  0  0  0  0  0  0  0  0  0  0
   -4.3472   -1.1029    0.6409 F   0  0  0  0  0  0  0  0  0  0  0  0
    5.1252   -0.8654   -0.4004 O   0  0  0  0  0  0  0  0  0  0  0  0
    8.7101   -1.6603   -0.3501 H   0  0  0  0  0  0  0  0  0  0  0  0
    7.2423   -1.9295    0.6044 H   0  0  0  0  0  0  0  0  0  0  0  0
    7.6162   -0.2971   -0.0624 H   0  0  0  0  0  0  0  0  0  0  0  0
    4.9249   -2.0303   -3.4590 H   0  0  0  0  0  0  0  0  0  0  0  0
    2.5741   -1.0791   -2.4631 H   0  0  0  0  0  0  0  0  0  0  0  0
    1.2692   -0.4909   -0.7142 H   0  0  0  0  0  0  0  0  0  0  0  0
    1.1030    1.3340    1.6033 H   0  0  0  0  0  0  0  0  0  0  0  0
    1.1819   -0.7143    2.8293 H   0  0  0  0  0  0  0  0  0  0  0  0
    0.3230   -1.6199    1.5942 H   0  0  0  0  0  0  0  0  0  0  0  0
   -0.9211    0.5441    3.3665 H   0  0  0  0  0  0  0  0  0  0  0  0
   -1.1282   -1.1958    3.5714 H   0  0  0  0  0  0  0  0  0  0  0  0
   -3.0487   -0.0603    2.3714 H   0  0  0  0  0  0  0  0  0  0  0  0
   -2.3072   -1.4155    1.4772 H   0  0  0  0  0  0  0  0  0  0  0  0
    0.0186    2.4388   -1.1690 H   0  0  0  0  0  0  0  0  0  0  0  0
   -4.2186    2.9673   -1.4062 H   0  0  0  0  0  0  0  0  0  0  0  0
   -6.6531    2.9263   -1.7123 H   0  0  0  0  0  0  0  0  0  0  0  0
   -7.9954    1.0186   -0.8560 H   0  0  0  0  0  0  0  0  0  0  0  0
   -6.8483   -0.8758    0.2785 H   0  0  0  0  0  0  0  0  0  0  0  0
  1  2  1  0
  2  3  1  0
  3  4  2  0
  4  5  1  0
  5  6  2  0
  6  7  1  0
  7  8  2  0
  7  9  1  0
  9 10  1  0
 10 11  1  0
 11 12  1  0
 12 13  1  0
 13 14  1  0
 14 15  2  0
 15 16  1  0
 16 17  2  0
 17 18  1  0
 18 19  1  0
 19 20  2  0
 20 21  1  0
 21 22  2  0
 22 23  1  0
 23 24  2  0
 24 25  1  0
  6 26  1  0
 26  3  1  0
 15 10  1  0
 24 19  1  0
 18 14  1  0
  1 27  1  0
  1 28  1  0
  1 29  1  0
  4 30  1  0
  5 31  1  0
  9 32  1  0
 10 33  1  0
 11 34  1  0
 11 35  1  0
 12 36  1  0
 12 37  1  0
 13 38  1  0
 13 39  1  0
 16 40  1  0
 20 41  1  0
 21 42  1  0
 22 43  1  0
 23 44  1  0
M  END
$$$$
