
     RDKit          3D

 43 45  0  0  0  0  0  0  0  0999 V2000
    1.7437    0.4154    0.1067 O   0  0  0  0  0  0  0  0  0  0  0  0
    1.4576    1.4922   -0.4183 C   0  0  0  0  0  0  0  0  0  0  0  0
    0.7189    2.5833    0.3620 C   0  0  0  0  0  0  0  0  0  0  0  0
   -0.0598    1.9745    1.4297 N   0  0  0  0  0  0  0  0  0  0  0  0
   -1.3886    1.6492    1.2074 C   0  0  0  0  0  0  0  0  0  0  0  0
   -1.9907    2.0254    0.2051 O   0  0  0  0  0  0  0  0  0  0  0  0
   -2.0244    0.8077    2.3198 C   0  0  0  0  0  0  0  0  0  0  0  0
   -2.2630    1.6899    3.5390 C   0  0  0  0  0  0  0  0  0  0  0  0
   -2.7187    0.9035    4.6486 O   0  0  0  0  0  0  0  0  0  0  0  0
   -3.7106    0.0366    4.2656 C   0  0  0  0  0  0  0  0  0  0  0  0
   -4.4620   -0.5476    5.2833 C   0  0  0  0  0  0  0  0  0  0  0  0
   -5.5023   -1.4221    4.9641 C   0  0  0  0  0  0  0  0  0  0  0  0
   -5.7877   -1.7121    3.6285 C   0  0  0  0  0  0  0  0  0  0  0  0
   -5.0259   -1.1376    2.6097 C   0  0  0  0  0  0  0  0  0  0  0  0
   -3.9783   -0.2762    2.9287 C   0  0  0  0  0  0  0  0  0  0  0  0
   -3.2573    0.2331    1.8796 O   0  0  0  0  0  0  0  0  0  0  0  0
    1.7973    1.8952   -1.7078 N   0  0  0  0  0  0  0  0  0  0  0  0
    2.6145    1.1956   -2.5590 N   0  0  0  0  0  0  0  0  0  0  0  0
    2.5048   -0.0965   -2.5744 C   0  0  0  0  0  0  0  0  0  0  0  0
    3.3730   -0.9379   -3.4237 C   0  0  0  0  0  0  0  0  0  0  0  0
    3.1993   -2.3260   -3.3930 C   0  0  0  0  0  0  0  0  0  0  0  0
    4.0065   -3.1426   -4.1871 C   0  0  0  0  0  0  0  0  0  0  0  0
    4.9815   -2.5724   -5.0059 C   0  0  0  0  0  0  0  0  0  0  0  0
    5.1462   -1.1909   -5.0273 C   0  0  0  0  0  0  0  0  0  0  0  0
    6.1129   -0.6808   -5.8430 O   0  0  0  0  0  0  0  0  0  0  0  0
    4.3503   -0.3630   -4.2423 C   0  0  0  0  0  0  0  0  0  0  0  0
    0.0796    3.1724   -0.3018 H   0  0  0  0  0  0  0  0  0  0  0  0
    1.4643    3.2351    0.8271 H   0  0  0  0  0  0  0  0  0  0  0  0
    0.4673    1.3478    2.0304 H   0  0  0  0  0  0  0  0  0  0  0  0
   -1.3389   -0.0179    2.5561 H   0  0  0  0  0  0  0  0  0  0  0  0
   -1.3421    2.1902    3.8566 H   0  0  0  0  0  0  0  0  0  0  0  0
   -3.0075    2.4712    3.3358 H   0  0  0  0  0  0  0  0  0  0  0  0
   -4.2460   -0.3136    6.3218 H   0  0  0  0  0  0  0  0  0  0  0  0
   -6.0942   -1.8729    5.7566 H   0  0  0  0  0  0  0  0  0  0  0  0
   -6.6018   -2.3885    3.3806 H   0  0  0  0  0  0  0  0  0  0  0  0
   -5.2423   -1.3673    1.5699 H   0  0  0  0  0  0  0  0  0  0  0  0
    1.7508    2.8866   -1.9254 H   0  0  0  0  0  0  0  0  0  0  0  0
    1.7437   -0.6357   -1.9842 H   0  0  0  0  0  0  0  0  0  0  0  0
    2.4441   -2.7796   -2.7560 H   0  0  0  0  0  0  0  0  0  0  0  0
    3.8780   -4.2219   -4.1682 H   0  0  0  0  0  0  0  0  0  0  0  0
    5.6129   -3.2033   -5.6259 H   0  0  0  0  0  0  0  0  0  0  0  0
    6.1157    0.2868   -5.7543 H   0  0  0  0  0  0  0  0  0  0  0  0
    4.4790    0.7145   -4.2584 H   0  0  0  0  0  0  0  0  0  0  0  0
  1  2  2  0
  2  3  1  0
  3  4  1  0
  4  5  1  0
  5  6  2  0
  5  7  1  0
  7  8  1  0
  8  9  1  0
  9 10  1  0
 10 11  2  0
 11 12  1  0
 12 13  2  0
 13 14  1  0
 14 15  2  0
 15 16  1  0
  2 17  1  0
 17 18  1  0
 18 19  2  3
 19 20  1  0
 20 21  2  0
 21 22  1  0
 22 23  2  0
 23 24  1  0
 24 25  1  0
 24 26  2  0
 16  7  1  0
 26 20  1  0
 15 10  1  0
  3 27  1  0
  3 28  1  0
  4 29  1  0
  7 30  1  0
  8 31  1  0
  8 32  1  0
 11 33  1  0
 12 34  1  0
 13 35  1  0
 14 36  1  0
 17 37  1  0
 19 38  1  0
 21 39  1  0
 22 40  1  0
 23 41  1  0
 25 42  1  0
 26 43  1  0
M  END
$$$$
