
     RDKit          3D

 50 53  0  0  0  0  0  0  0  0999 V2000
    0.8809   -2.4092    4.3579 O   0  0  0  0  0  0  0  0  0  0  0  0
    1.0526   -1.6825    3.3870 C   0  0  0  0  0  0  0  0  0  0  0  0
    0.1912   -1.5695    2.2971 N   0  0  0  0  0  0  0  0  0  0  0  0
   -1.1519   -1.8434    2.1678 C   0  0  0  0  0  0  0  0  0  0  0  0
   -2.1855   -2.3497    3.3779 S   0  0  0  0  0  0  0  0  0  0  0  0
   -1.6958   -1.6002    0.9346 N   0  0  0  0  0  0  0  0  0  0  0  0
   -1.1319   -1.4084   -0.3468 C   0  0  0  0  0  0  0  0  0  0  0  0
    0.1661   -1.7886   -0.6992 C   0  0  0  0  0  0  0  0  0  0  0  0
    0.6407   -1.5469   -1.9896 C   0  0  0  0  0  0  0  0  0  0  0  0
   -0.1823   -0.9428   -2.9360 C   0  0  0  0  0  0  0  0  0  0  0  0
   -1.4945   -0.6007   -2.6058 C   0  0  0  0  0  0  0  0  0  0  0  0
   -1.9945   -0.8445   -1.3191 C   0  0  0  0  0  0  0  0  0  0  0  0
   -3.3137   -0.5083   -0.9368 N   0  0  0  0  0  0  0  0  0  0  0  0
   -4.3718   -1.1310   -1.7654 C   0  0  0  0  0  0  0  0  0  0  0  0
   -5.7180   -0.4533   -1.4680 C   0  0  0  0  0  0  0  0  0  0  0  0
   -5.7371    0.9420   -1.8145 O   0  0  0  0  0  0  0  0  0  0  0  0
   -4.4421    1.5613   -1.7621 C   0  0  0  0  0  0  0  0  0  0  0  0
   -3.5048    0.9465   -0.7110 C   0  0  0  0  0  0  0  0  0  0  0  0
    2.2566   -0.8930    3.2034 C   0  0  0  0  0  0  0  0  0  0  0  0
    3.3694   -0.7099    3.9972 C   0  0  0  0  0  0  0  0  0  0  0  0
    4.2305    0.1680    3.2915 C   0  0  0  0  0  0  0  0  0  0  0  0
    3.6025    0.4748    2.0996 C   0  0  0  0  0  0  0  0  0  0  0  0
    3.9388    1.2993    0.9401 C   0  0  0  0  0  0  0  0  0  0  0  0
    5.1207    2.0564    0.9208 C   0  0  0  0  0  0  0  0  0  0  0  0
    5.4524    2.8448   -0.1861 C   0  0  0  0  0  0  0  0  0  0  0  0
    4.6064    2.8856   -1.2923 C   0  0  0  0  0  0  0  0  0  0  0  0
    3.4315    2.1394   -1.2855 C   0  0  0  0  0  0  0  0  0  0  0  0
    2.3826    2.1841   -2.6498 Cl  0  0  0  0  0  0  0  0  0  0  0  0
    3.0960    1.3539   -0.1819 C   0  0  0  0  0  0  0  0  0  0  0  0
    2.3985   -0.1692    2.0482 O   0  0  0  0  0  0  0  0  0  0  0  0
    0.5298   -0.9185    1.6016 H   0  0  0  0  0  0  0  0  0  0  0  0
   -2.7127   -1.5191    0.9221 H   0  0  0  0  0  0  0  0  0  0  0  0
    0.8153   -2.3212   -0.0124 H   0  0  0  0  0  0  0  0  0  0  0  0
    1.6518   -1.8423   -2.2609 H   0  0  0  0  0  0  0  0  0  0  0  0
    0.1933   -0.7495   -3.9381 H   0  0  0  0  0  0  0  0  0  0  0  0
   -2.1170   -0.1351   -3.3640 H   0  0  0  0  0  0  0  0  0  0  0  0
   -4.4348   -2.1985   -1.5265 H   0  0  0  0  0  0  0  0  0  0  0  0
   -4.1595   -1.0290   -2.8361 H   0  0  0  0  0  0  0  0  0  0  0  0
   -6.5204   -0.9413   -2.0302 H   0  0  0  0  0  0  0  0  0  0  0  0
   -5.9641   -0.5356   -0.4027 H   0  0  0  0  0  0  0  0  0  0  0  0
   -4.5975    2.6240   -1.5496 H   0  0  0  0  0  0  0  0  0  0  0  0
   -3.9993    1.4922   -2.7621 H   0  0  0  0  0  0  0  0  0  0  0  0
   -3.9622    1.0578    0.2796 H   0  0  0  0  0  0  0  0  0  0  0  0
   -2.5534    1.4924   -0.6890 H   0  0  0  0  0  0  0  0  0  0  0  0
    3.5309   -1.1625    4.9670 H   0  0  0  0  0  0  0  0  0  0  0  0
    5.1968    0.5255    3.6184 H   0  0  0  0  0  0  0  0  0  0  0  0
    5.8009    2.0464    1.7700 H   0  0  0  0  0  0  0  0  0  0  0  0
    6.3714    3.4263   -0.1828 H   0  0  0  0  0  0  0  0  0  0  0  0
    4.8662    3.4991   -2.1506 H   0  0  0  0  0  0  0  0  0  0  0  0
    2.1709    0.7837   -0.2045 H   0  0  0  0  0  0  0  0  0  0  0  0
  1  2  2  0
  2  3  1  0
  3  4  1  0
  4  5  2  0
  4  6  1  0
  6  7  1  0
  7  8  2  0
  8  9  1  0
  9 10  2  0
 10 11  1  0
 11 12  2  0
 12 13  1  0
 13 14  1  0
 14 15  1  0
 15 16  1  0
 16 17  1  0
 17 18  1  0
  2 19  1  0
 19 20  2  0
 20 21  1  0
 21 22  2  0
 22 23  1  0
 23 24  2  0
 24 25  1  0
 25 26  2  0
 26 27  1  0
 27 28  1  0
 27 29  2  0
 22 30  1  0
 12  7  1  0
 18 13  1  0
 30 19  1  0
 29 23  1  0
  3 31  1  0
  6 32  1  0
  8 33  1  0
  9 34  1  0
 10 35  1  0
 11 36  1  0
 14 37  1  0
 14 38  1  0
 15 39  1  0
 15 40  1  0
 17 41  1  0
 17 42  1  0
 18 43  1  0
 18 44  1  0
 20 45  1  0
 21 46  1  0
 24 47  1  0
 25 48  1  0
 26 49  1  0
 29 50  1  0
M  END
$$$$
