
     RDKit          3D

 44 46  0  0  0  0  0  0  0  0999 V2000
    6.0481   -0.2077   -3.6591 C   0  0  0  0  0  0  0  0  0  0  0  0
    5.0797   -0.1920   -2.5121 C   0  0  0  0  0  0  0  0  0  0  0  0
    5.2820   -1.0159   -1.3997 C   0  0  0  0  0  0  0  0  0  0  0  0
    4.3977   -0.9770   -0.3165 C   0  0  0  0  0  0  0  0  0  0  0  0
    3.3059   -0.1003   -0.3296 C   0  0  0  0  0  0  0  0  0  0  0  0
    2.3403   -0.0120    0.7979 C   0  0  0  0  0  0  0  0  0  0  0  0
    1.3398    0.6904    0.7828 O   0  0  0  0  0  0  0  0  0  0  0  0
    2.7252   -0.8032    1.8284 O   0  0  0  0  0  0  0  0  0  0  0  0
    1.8720   -0.7663    2.9709 C   0  0  0  0  0  0  0  0  0  0  0  0
    0.5943   -1.5902    2.8006 C   0  0  0  0  0  0  0  0  0  0  0  0
    0.5070   -2.7551    3.1797 O   0  0  0  0  0  0  0  0  0  0  0  0
   -0.4450   -0.9103    2.2031 N   0  0  0  0  0  0  0  0  0  0  0  0
   -1.6670   -1.5954    1.8148 C   0  0  0  0  0  0  0  0  0  0  0  0
   -2.8390   -0.6241    1.6580 C   0  0  0  0  0  0  0  0  0  0  0  0
   -4.1260   -1.3817    1.3425 C   0  0  0  0  0  0  0  0  0  0  0  0
   -5.2420   -0.4839    1.2796 O   0  0  0  0  0  0  0  0  0  0  0  0
   -4.9399    0.6544    0.5747 C   0  0  0  0  0  0  0  0  0  0  0  0
   -6.0108    1.4715    0.2151 C   0  0  0  0  0  0  0  0  0  0  0  0
   -5.7809    2.6387   -0.5162 C   0  0  0  0  0  0  0  0  0  0  0  0
   -4.4800    2.9867   -0.8867 C   0  0  0  0  0  0  0  0  0  0  0  0
   -3.4063    2.1747   -0.5175 C   0  0  0  0  0  0  0  0  0  0  0  0
   -3.6352    1.0185    0.2268 C   0  0  0  0  0  0  0  0  0  0  0  0
   -2.5338    0.2830    0.5810 O   0  0  0  0  0  0  0  0  0  0  0  0
    3.1069    0.7317   -1.4384 C   0  0  0  0  0  0  0  0  0  0  0  0
    3.9914    0.6894   -2.5196 C   0  0  0  0  0  0  0  0  0  0  0  0
    5.5262   -0.0475   -4.6085 H   0  0  0  0  0  0  0  0  0  0  0  0
    6.7973    0.5781   -3.5271 H   0  0  0  0  0  0  0  0  0  0  0  0
    6.5621   -1.1735   -3.7288 H   0  0  0  0  0  0  0  0  0  0  0  0
    6.1297   -1.6975   -1.3681 H   0  0  0  0  0  0  0  0  0  0  0  0
    4.5776   -1.6369    0.5274 H   0  0  0  0  0  0  0  0  0  0  0  0
    1.6277    0.2666    3.2505 H   0  0  0  0  0  0  0  0  0  0  0  0
    2.4306   -1.1875    3.8145 H   0  0  0  0  0  0  0  0  0  0  0  0
   -0.1860   -0.0911    1.6468 H   0  0  0  0  0  0  0  0  0  0  0  0
   -1.8984   -2.3602    2.5653 H   0  0  0  0  0  0  0  0  0  0  0  0
   -1.4489   -2.1009    0.8656 H   0  0  0  0  0  0  0  0  0  0  0  0
   -2.9538   -0.0297    2.5759 H   0  0  0  0  0  0  0  0  0  0  0  0
   -4.3457   -2.1163    2.1245 H   0  0  0  0  0  0  0  0  0  0  0  0
   -4.0591   -1.9142    0.3849 H   0  0  0  0  0  0  0  0  0  0  0  0
   -7.0236    1.1952    0.4973 H   0  0  0  0  0  0  0  0  0  0  0  0
   -6.6170    3.2750   -0.7970 H   0  0  0  0  0  0  0  0  0  0  0  0
   -4.3023    3.8952   -1.4580 H   0  0  0  0  0  0  0  0  0  0  0  0
   -2.3925    2.4502   -0.7960 H   0  0  0  0  0  0  0  0  0  0  0  0
    2.2661    1.4211   -1.4644 H   0  0  0  0  0  0  0  0  0  0  0  0
    3.8259    1.3501   -3.3684 H   0  0  0  0  0  0  0  0  0  0  0  0
  1  2  1  0
  2  3  2  0
  3  4  1  0
  4  5  2  0
  5  6  1  0
  6  7  2  0
  6  8  1  0
  8  9  1  0
  9 10  1  0
 10 11  2  0
 10 12  1  0
 12 13  1  0
 13 14  1  0
 14 15  1  0
 15 16  1  0
 16 17  1  0
 17 18  2  0
 18 19  1  0
 19 20  2  0
 20 21  1  0
 21 22  2  0
 22 23  1  0
  5 24  1  0
 24 25  2  0
 25  2  1  0
 23 14  1  0
 22 17  1  0
  1 26  1  0
  1 27  1  0
  1 28  1  0
  3 29  1  0
  4 30  1  0
  9 31  1  0
  9 32  1  0
 12 33  1  0
 13 34  1  0
 13 35  1  0
 14 36  1  0
 15 37  1  0
 15 38  1  0
 18 39  1  0
 19 40  1  0
 20 41  1  0
 21 42  1  0
 24 43  1  0
 25 44  1  0
M  END
$$$$
