
     RDKit          3D

 57 59  0  0  0  0  0  0  0  0999 V2000
    1.1178    1.2818    4.4651 C   0  0  0  0  0  0  0  0  0  0  0  0
    1.0112    0.9022    3.0976 O   0  0  0  0  0  0  0  0  0  0  0  0
   -0.1837    1.1663    2.4657 C   0  0  0  0  0  0  0  0  0  0  0  0
   -1.3030    1.7376    3.0811 C   0  0  0  0  0  0  0  0  0  0  0  0
   -2.4680    1.9612    2.3453 C   0  0  0  0  0  0  0  0  0  0  0  0
   -2.5063    1.6123    0.9944 C   0  0  0  0  0  0  0  0  0  0  0  0
   -3.9808    1.8976    0.0444 S   0  0  0  0  0  6  0  0  0  0  0  0
   -5.0408    2.2564    0.9637 O   0  0  0  0  0  0  0  0  0  0  0  0
   -3.6095    2.7750   -1.0441 O   0  0  0  0  0  0  0  0  0  0  0  0
   -4.3302    0.3559   -0.5793 N   0  0  0  0  0  0  0  0  0  0  0  0
   -4.6871   -0.7219    0.3747 C   0  0  0  0  0  0  0  0  0  0  0  0
   -6.1809   -0.7379    0.6862 C   0  0  0  0  0  0  0  0  0  0  0  0
   -7.0261   -0.7577   -0.5832 C   0  0  0  0  0  0  0  0  0  0  0  0
   -6.6201    0.3707   -1.5259 C   0  0  0  0  0  0  0  0  0  0  0  0
   -5.1281    0.3154   -1.8272 C   0  0  0  0  0  0  0  0  0  0  0  0
   -1.3973    1.0389    0.3643 C   0  0  0  0  0  0  0  0  0  0  0  0
   -0.2326    0.8114    1.0968 C   0  0  0  0  0  0  0  0  0  0  0  0
    0.9371    0.2365    0.5492 N   0  0  0  0  0  0  0  0  0  0  0  0
    1.1527   -0.1906   -0.7440 C   0  0  0  0  0  0  0  0  0  0  0  0
    0.3574   -0.1328   -1.6743 O   0  0  0  0  0  0  0  0  0  0  0  0
    2.5128   -0.7422   -1.0121 C   0  0  0  0  0  0  0  0  0  0  0  0
    3.2451   -1.4331   -0.0400 C   0  0  0  0  0  0  0  0  0  0  0  0
    4.5208   -1.9207   -0.3394 C   0  0  0  0  0  0  0  0  0  0  0  0
    5.0824   -1.7286   -1.6105 C   0  0  0  0  0  0  0  0  0  0  0  0
    6.4609   -2.2438   -1.9313 C   0  0  0  0  0  0  0  0  0  0  0  0
    7.7261   -1.2361   -1.1589 S   0  0  0  0  0  6  0  0  0  0  0  0
    7.3666    0.4320   -1.6622 C   0  0  0  0  0  0  0  0  0  0  0  0
    7.5771   -1.3096    0.2840 O   0  0  0  0  0  0  0  0  0  0  0  0
    8.9915   -1.5979   -1.7741 O   0  0  0  0  0  0  0  0  0  0  0  0
    4.3307   -1.0618   -2.5886 C   0  0  0  0  0  0  0  0  0  0  0  0
    3.0557   -0.5742   -2.2913 C   0  0  0  0  0  0  0  0  0  0  0  0
    0.9940    2.3631    4.5862 H   0  0  0  0  0  0  0  0  0  0  0  0
    2.1250    1.0223    4.8050 H   0  0  0  0  0  0  0  0  0  0  0  0
    0.4051    0.7270    5.0845 H   0  0  0  0  0  0  0  0  0  0  0  0
   -1.3025    2.0221    4.1283 H   0  0  0  0  0  0  0  0  0  0  0  0
   -3.3337    2.4111    2.8277 H   0  0  0  0  0  0  0  0  0  0  0  0
   -4.1124   -0.6313    1.3015 H   0  0  0  0  0  0  0  0  0  0  0  0
   -4.3894   -1.6790   -0.0716 H   0  0  0  0  0  0  0  0  0  0  0  0
   -6.4515    0.1397    1.2835 H   0  0  0  0  0  0  0  0  0  0  0  0
   -6.4176   -1.6155    1.2988 H   0  0  0  0  0  0  0  0  0  0  0  0
   -6.9012   -1.7220   -1.0904 H   0  0  0  0  0  0  0  0  0  0  0  0
   -8.0870   -0.6655   -0.3258 H   0  0  0  0  0  0  0  0  0  0  0  0
   -7.1882    0.2926   -2.4591 H   0  0  0  0  0  0  0  0  0  0  0  0
   -6.8772    1.3354   -1.0732 H   0  0  0  0  0  0  0  0  0  0  0  0
   -4.8437    1.1293   -2.5015 H   0  0  0  0  0  0  0  0  0  0  0  0
   -4.8837   -0.6126   -2.3589 H   0  0  0  0  0  0  0  0  0  0  0  0
   -1.4681    0.7891   -0.6901 H   0  0  0  0  0  0  0  0  0  0  0  0
    1.7052    0.1995    1.2113 H   0  0  0  0  0  0  0  0  0  0  0  0
    2.8339   -1.6253    0.9472 H   0  0  0  0  0  0  0  0  0  0  0  0
    5.0755   -2.4529    0.4337 H   0  0  0  0  0  0  0  0  0  0  0  0
    6.5868   -3.2699   -1.5707 H   0  0  0  0  0  0  0  0  0  0  0  0
    6.6517   -2.2379   -3.0095 H   0  0  0  0  0  0  0  0  0  0  0  0
    8.1833    1.0700   -1.3161 H   0  0  0  0  0  0  0  0  0  0  0  0
    6.4318    0.7584   -1.2047 H   0  0  0  0  0  0  0  0  0  0  0  0
    7.3073    0.4670   -2.7515 H   0  0  0  0  0  0  0  0  0  0  0  0
    4.7231   -0.9160   -3.5940 H   0  0  0  0  0  0  0  0  0  0  0  0
    2.4821   -0.0611   -3.0618 H   0  0  0  0  0  0  0  0  0  0  0  0
  1  2  1  0
  2  3  1  0
  3  4  2  0
  4  5  1  0
  5  6  2  0
  6  7  1  0
  7  8  2  0
  7  9  2  0
  7 10  1  0
 10 11  1  0
 11 12  1  0
 12 13  1  0
 13 14  1  0
 14 15  1  0
  6 16  1  0
 16 17  2  0
 17 18  1  0
 18 19  1  0
 19 20  2  0
 19 21  1  0
 21 22  2  0
 22 23  1  0
 23 24  2  0
 24 25  1  0
 25 26  1  0
 26 27  1  0
 26 28  2  0
 26 29  2  0
 24 30  1  0
 30 31  2  0
 17  3  1  0
 31 21  1  0
 15 10  1  0
  1 32  1  0
  1 33  1  0
  1 34  1  0
  4 35  1  0
  5 36  1  0
 11 37  1  0
 11 38  1  0
 12 39  1  0
 12 40  1  0
 13 41  1  0
 13 42  1  0
 14 43  1  0
 14 44  1  0
 15 45  1  0
 15 46  1  0
 16 47  1  0
 18 48  1  0
 22 49  1  0
 23 50  1  0
 25 51  1  0
 25 52  1  0
 27 53  1  0
 27 54  1  0
 27 55  1  0
 30 56  1  0
 31 57  1  0
M  END
$$$$
