
     RDKit          3D

 50 52  0  0  0  0  0  0  0  0999 V2000
    2.7916   -2.0111   -3.1488 O   0  0  0  0  0  0  0  0  0  0  0  0
    2.4444   -0.8684   -2.9205 C   0  0  0  0  0  0  0  0  0  0  0  0
    1.5607   -0.2293   -3.7069 O   0  0  0  0  0  0  0  0  0  0  0  0
    2.9044   -0.0305   -1.7878 C   0  0  0  0  0  0  0  0  0  0  0  0
    2.4570    1.2852   -1.6157 C   0  0  0  0  0  0  0  0  0  0  0  0
    2.8982    2.0325   -0.5232 C   0  0  0  0  0  0  0  0  0  0  0  0
    2.3755    3.3419   -0.3332 N   0  0  0  0  0  0  0  0  0  0  0  0
    1.3390    3.6360    0.9707 S   0  0  0  0  0  6  0  0  0  0  0  0
    0.6893    4.8990    0.6988 O   0  0  0  0  0  0  0  0  0  0  0  0
    2.0486    3.3958    2.2074 O   0  0  0  0  0  0  0  0  0  0  0  0
    0.1114    2.3632    0.7839 C   0  0  0  0  0  0  0  0  0  0  0  0
    0.1420    1.2349    1.6025 C   0  0  0  0  0  0  0  0  0  0  0  0
   -0.8024    0.2148    1.4197 C   0  0  0  0  0  0  0  0  0  0  0  0
   -1.7970    0.2804    0.4243 C   0  0  0  0  0  0  0  0  0  0  0  0
   -2.6813   -0.7793    0.2364 N   0  0  0  0  0  0  0  0  0  0  0  0
   -2.7746   -1.3837   -1.1051 C   0  0  0  0  0  0  0  0  0  0  0  0
   -2.8522   -2.9068   -1.0224 C   0  0  0  0  0  0  0  0  0  0  0  0
   -4.0182   -3.3803   -0.1559 C   0  0  0  0  0  0  0  0  0  0  0  0
   -4.3207   -2.4276    1.0002 C   0  0  0  0  0  0  0  0  0  0  0  0
   -3.0973   -1.5993    1.3818 C   0  0  0  0  0  0  0  0  0  0  0  0
   -1.8100    1.4653   -0.3433 C   0  0  0  0  0  0  0  0  0  0  0  0
   -2.8412    1.6898   -1.3342 N   0  0  0  0  0  4  0  0  0  0  0  0
   -3.9710    1.9939   -0.9305 O   0  0  0  0  0  0  0  0  0  0  0  0
   -2.4921    1.6111   -2.5217 O   0  0  0  0  0  1  0  0  0  0  0  0
   -0.8803    2.5049   -0.1815 C   0  0  0  0  0  0  0  0  0  0  0  0
    3.7892    1.4806    0.3965 C   0  0  0  0  0  0  0  0  0  0  0  0
    4.2476    0.1690    0.2225 C   0  0  0  0  0  0  0  0  0  0  0  0
    5.1955   -0.4622    1.1712 C   0  0  0  0  0  0  0  0  0  0  0  0
    5.5989   -1.6081    1.1126 O   0  0  0  0  0  0  0  0  0  0  0  0
    5.5895    0.3742    2.1451 O   0  0  0  0  0  0  0  0  0  0  0  0
    3.8010   -0.5873   -0.8687 C   0  0  0  0  0  0  0  0  0  0  0  0
    1.3396   -0.8835   -4.4039 H   0  0  0  0  0  0  0  0  0  0  0  0
    1.7555    1.7180   -2.3251 H   0  0  0  0  0  0  0  0  0  0  0  0
    2.1200    3.8875   -1.1561 H   0  0  0  0  0  0  0  0  0  0  0  0
    0.9013    1.1260    2.3754 H   0  0  0  0  0  0  0  0  0  0  0  0
   -0.7207   -0.6607    2.0601 H   0  0  0  0  0  0  0  0  0  0  0  0
   -1.9018   -1.1227   -1.7168 H   0  0  0  0  0  0  0  0  0  0  0  0
   -3.6688   -1.0004   -1.6107 H   0  0  0  0  0  0  0  0  0  0  0  0
   -2.9380   -3.3377   -2.0264 H   0  0  0  0  0  0  0  0  0  0  0  0
   -1.9144   -3.2894   -0.5990 H   0  0  0  0  0  0  0  0  0  0  0  0
   -3.7835   -4.3770    0.2348 H   0  0  0  0  0  0  0  0  0  0  0  0
   -4.9201   -3.4958   -0.7677 H   0  0  0  0  0  0  0  0  0  0  0  0
   -4.6816   -2.9962    1.8644 H   0  0  0  0  0  0  0  0  0  0  0  0
   -5.1347   -1.7537    0.7040 H   0  0  0  0  0  0  0  0  0  0  0  0
   -2.2860   -2.2653    1.7001 H   0  0  0  0  0  0  0  0  0  0  0  0
   -3.3616   -0.9552    2.2293 H   0  0  0  0  0  0  0  0  0  0  0  0
   -0.9386    3.4022   -0.7950 H   0  0  0  0  0  0  0  0  0  0  0  0
    4.1300    2.0737    1.2430 H   0  0  0  0  0  0  0  0  0  0  0  0
    6.2055   -0.1579    2.6917 H   0  0  0  0  0  0  0  0  0  0  0  0
    4.1522   -1.6107   -1.0013 H   0  0  0  0  0  0  0  0  0  0  0  0
  1  2  2  0
  2  3  1  0
  2  4  1  0
  4  5  2  0
  5  6  1  0
  6  7  1  0
  7  8  1  0
  8  9  2  0
  8 10  2  0
  8 11  1  0
 11 12  2  0
 12 13  1  0
 13 14  2  0
 14 15  1  0
 15 16  1  0
 16 17  1  0
 17 18  1  0
 18 19  1  0
 19 20  1  0
 14 21  1  0
 21 22  1  0
 22 23  2  0
 22 24  1  0
 21 25  2  0
  6 26  2  0
 26 27  1  0
 27 28  1  0
 28 29  2  0
 28 30  1  0
 27 31  2  0
 31  4  1  0
 25 11  1  0
 20 15  1  0
  3 32  1  0
  5 33  1  0
  7 34  1  0
 12 35  1  0
 13 36  1  0
 16 37  1  0
 16 38  1  0
 17 39  1  0
 17 40  1  0
 18 41  1  0
 18 42  1  0
 19 43  1  0
 19 44  1  0
 20 45  1  0
 20 46  1  0
 25 47  1  0
 26 48  1  0
 30 49  1  0
 31 50  1  0
M  CHG  2  22   1  24  -1
M  END
$$$$
