
     RDKit          3D

 77 83  0  0  0  0  0  0  0  0999 V2000
   -6.5976   -1.9189   -1.4627 C   0  0  0  0  0  0  0  0  0  0  0  0
   -6.1671   -1.4393   -0.0721 C   0  0  0  0  0  0  0  0  0  0  0  0
   -6.8794   -0.1117    0.2304 C   0  0  0  0  0  0  0  0  0  0  0  0
   -6.5311   -2.4487    1.0222 C   0  0  0  0  0  0  0  0  0  0  0  0
   -4.7544   -1.1105   -0.0401 O   0  0  0  0  0  0  0  0  0  0  0  0
   -3.8094   -2.0588   -0.2667 C   0  0  0  0  0  0  0  0  0  0  0  0
   -4.0513   -3.2341   -0.5078 O   0  0  0  0  0  0  0  0  0  0  0  0
   -2.5260   -1.5427   -0.1900 N   0  0  0  0  0  0  0  0  0  0  0  0
   -1.4187   -2.4011   -0.6459 C   0  0  0  0  0  0  0  0  0  0  0  0
   -0.0216   -1.9609   -0.1406 C   0  0  0  0  0  0  0  0  0  0  0  0
    0.1283   -0.5297   -0.3519 N   0  0  0  0  0  0  0  0  0  0  0  0
   -0.9105    0.2215    0.4186 C   0  0  2  0  0  0  0  0  0  0  0  0
   -2.2772   -0.0865   -0.1849 C   0  0  0  0  0  0  0  0  0  0  0  0
   -0.3677    1.5938    0.3147 C   0  0  0  0  0  0  0  0  0  0  0  0
    1.0062    1.5427    0.0263 C   0  0  0  0  0  0  0  0  0  0  0  0
    1.4846    2.8261   -0.0419 C   0  0  0  0  0  0  0  0  0  0  0  0
    2.7012    3.2614   -0.3642 O   0  0  0  0  0  0  0  0  0  0  0  0
    0.4037    3.6984    0.2300 N   0  0  0  0  0  0  0  0  0  0  0  0
    0.4583    5.1359    0.2619 C   0  0  0  0  0  0  0  0  0  0  0  0
   -0.6923    5.9034    0.0272 C   0  0  0  0  0  0  0  0  0  0  0  0
   -0.6381    7.3010    0.0545 C   0  0  0  0  0  0  0  0  0  0  0  0
    0.5639    7.9504    0.3195 C   0  0  0  0  0  0  0  0  0  0  0  0
    1.7131    7.2024    0.5566 C   0  0  0  0  0  0  0  0  0  0  0  0
    1.6624    5.8047    0.5268 C   0  0  0  0  0  0  0  0  0  0  0  0
   -0.7414    2.9009    0.4664 C   0  0  0  0  0  0  0  0  0  0  0  0
   -1.9147    3.4104    0.8346 O   0  0  0  0  0  0  0  0  0  0  0  0
    1.4361    0.1243   -0.1234 C   0  0  1  0  0  0  0  0  0  0  0  0
    2.2236   -0.4073    1.1005 C   0  0  0  0  0  0  0  0  0  0  0  0
    1.8186   -0.5260    2.2497 O   0  0  0  0  0  0  0  0  0  0  0  0
    3.5008   -0.7548    0.6266 N   0  0  0  0  0  0  0  0  0  0  0  0
    4.4948   -1.4054    1.4490 C   0  0  0  0  0  0  0  0  0  0  0  0
    4.3780   -2.9129    1.4051 C   0  0  0  0  0  0  0  0  0  0  0  0
    3.3660   -3.5663    2.1267 C   0  0  0  0  0  0  0  0  0  0  0  0
    3.2372   -4.9550    2.0743 C   0  0  0  0  0  0  0  0  0  0  0  0
    4.1177   -5.7073    1.3002 C   0  0  0  0  0  0  0  0  0  0  0  0
    5.1279   -5.0724    0.5800 C   0  0  0  0  0  0  0  0  0  0  0  0
    5.2583   -3.6828    0.6314 C   0  0  0  0  0  0  0  0  0  0  0  0
    3.6158   -0.5148   -0.7525 C   0  0  0  0  0  0  0  0  0  0  0  0
    4.7037   -0.7231   -1.5805 C   0  0  0  0  0  0  0  0  0  0  0  0
    4.5716   -0.4014   -2.9350 C   0  0  0  0  0  0  0  0  0  0  0  0
    3.3669    0.1152   -3.4379 C   0  0  0  0  0  0  0  0  0  0  0  0
    2.2751    0.3213   -2.5941 C   0  0  0  0  0  0  0  0  0  0  0  0
    2.4162    0.0108   -1.2485 C   0  0  0  0  0  0  0  0  0  0  0  0
   -7.6873   -2.0043   -1.5353 H   0  0  0  0  0  0  0  0  0  0  0  0
   -6.1762   -2.8987   -1.7068 H   0  0  0  0  0  0  0  0  0  0  0  0
   -6.2504   -1.2259   -2.2374 H   0  0  0  0  0  0  0  0  0  0  0  0
   -7.9686   -0.2267    0.2404 H   0  0  0  0  0  0  0  0  0  0  0  0
   -6.5641    0.2872    1.2018 H   0  0  0  0  0  0  0  0  0  0  0  0
   -6.6186    0.6488   -0.5148 H   0  0  0  0  0  0  0  0  0  0  0  0
   -6.1350   -2.1296    1.9929 H   0  0  0  0  0  0  0  0  0  0  0  0
   -6.1112   -3.4390    0.8221 H   0  0  0  0  0  0  0  0  0  0  0  0
   -7.6166   -2.5666    1.1103 H   0  0  0  0  0  0  0  0  0  0  0  0
   -1.6067   -3.4363   -0.3403 H   0  0  0  0  0  0  0  0  0  0  0  0
   -1.4372   -2.3765   -1.7431 H   0  0  0  0  0  0  0  0  0  0  0  0
    0.7421   -2.5214   -0.6911 H   0  0  0  0  0  0  0  0  0  0  0  0
    0.0762   -2.2192    0.9206 H   0  0  0  0  0  0  0  0  0  0  0  0
   -0.8939   -0.0828    1.4752 H   0  0  0  0  0  0  0  0  0  0  0  0
   -3.0576    0.4296    0.3841 H   0  0  0  0  0  0  0  0  0  0  0  0
   -2.3504    0.2614   -1.2233 H   0  0  0  0  0  0  0  0  0  0  0  0
    3.2303    2.4992   -0.6580 H   0  0  0  0  0  0  0  0  0  0  0  0
   -1.6446    5.4429   -0.2174 H   0  0  0  0  0  0  0  0  0  0  0  0
   -1.5380    7.8797   -0.1381 H   0  0  0  0  0  0  0  0  0  0  0  0
    0.6045    9.0357    0.3418 H   0  0  0  0  0  0  0  0  0  0  0  0
    2.6534    7.7034    0.7721 H   0  0  0  0  0  0  0  0  0  0  0  0
    2.5771    5.2655    0.7530 H   0  0  0  0  0  0  0  0  0  0  0  0
   -2.5010    2.6783    1.0874 H   0  0  0  0  0  0  0  0  0  0  0  0
    4.3657   -1.0749    2.4874 H   0  0  0  0  0  0  0  0  0  0  0  0
    5.4962   -1.0761    1.1486 H   0  0  0  0  0  0  0  0  0  0  0  0
    2.6694   -2.9936    2.7377 H   0  0  0  0  0  0  0  0  0  0  0  0
    2.4498   -5.4483    2.6390 H   0  0  0  0  0  0  0  0  0  0  0  0
    4.0169   -6.7889    1.2591 H   0  0  0  0  0  0  0  0  0  0  0  0
    5.8146   -5.6608   -0.0232 H   0  0  0  0  0  0  0  0  0  0  0  0
    6.0543   -3.2099    0.0622 H   0  0  0  0  0  0  0  0  0  0  0  0
    5.6420   -1.1194   -1.2125 H   0  0  0  0  0  0  0  0  0  0  0  0
    5.4104   -0.5556   -3.6108 H   0  0  0  0  0  0  0  0  0  0  0  0
    3.2832    0.3543   -4.4961 H   0  0  0  0  0  0  0  0  0  0  0  0
    1.3394    0.7163   -2.9801 H   0  0  0  0  0  0  0  0  0  0  0  0
  1  2  1  0
  2  3  1  0
  2  4  1  0
  2  5  1  0
  5  6  1  0
  6  7  2  0
  6  8  1  0
  8  9  1  0
  9 10  1  0
 10 11  1  0
 11 12  1  0
 12 13  1  0
 12 14  1  0
 14 15  1  0
 15 16  2  0
 16 17  1  0
 16 18  1  0
 18 19  1  0
 19 20  2  0
 20 21  1  0
 21 22  2  0
 22 23  1  0
 23 24  2  0
 18 25  1  0
 25 26  1  0
 15 27  1  0
 27 28  1  0
 28 29  2  0
 28 30  1  0
 30 31  1  0
 31 32  1  0
 32 33  2  0
 33 34  1  0
 34 35  2  0
 35 36  1  0
 36 37  2  0
 30 38  1  0
 38 39  2  0
 39 40  1  0
 40 41  2  0
 41 42  1  0
 42 43  2  0
 13  8  1  0
 25 14  2  0
 43 27  1  0
 27 11  1  6
 37 32  1  0
 43 38  1  0
 24 19  1  0
  1 44  1  0
  1 45  1  0
  1 46  1  0
  3 47  1  0
  3 48  1  0
  3 49  1  0
  4 50  1  0
  4 51  1  0
  4 52  1  0
  9 53  1  0
  9 54  1  0
 10 55  1  0
 10 56  1  0
 12 57  1  1
 13 58  1  0
 13 59  1  0
 17 60  1  0
 20 61  1  0
 21 62  1  0
 22 63  1  0
 23 64  1  0
 24 65  1  0
 26 66  1  0
 31 67  1  0
 31 68  1  0
 33 69  1  0
 34 70  1  0
 35 71  1  0
 36 72  1  0
 37 73  1  0
 39 74  1  0
 40 75  1  0
 41 76  1  0
 42 77  1  0
M  END
$$$$
