
     RDKit          3D

 46 48  0  0  0  0  0  0  0  0999 V2000
   -1.6868   -0.1259    1.8035 O   0  0  0  0  0  0  0  0  0  0  0  0
   -1.9159    0.0449    0.6068 C   0  0  0  0  0  0  0  0  0  0  0  0
   -2.9646    0.8374    0.1620 N   0  0  0  0  0  0  0  0  0  0  0  0
   -3.6195    1.6855    1.1618 C   0  0  0  0  0  0  0  0  0  0  0  0
   -4.7552    0.9300    1.8625 C   0  0  0  0  0  0  0  0  0  0  0  0
   -5.7044    0.4399    0.8972 O   0  0  0  0  0  0  0  0  0  0  0  0
   -5.0652   -0.4434   -0.0388 C   0  0  0  0  0  0  0  0  0  0  0  0
   -3.9311    0.2732   -0.7893 C   0  0  0  0  0  0  0  0  0  0  0  0
   -1.1238   -0.5322   -0.3724 N   0  0  0  0  0  0  0  0  0  0  0  0
   -0.0931   -1.4697    0.0773 C   0  0  0  0  0  0  0  0  0  0  0  0
    0.6912   -2.0932   -1.0804 C   0  0  0  0  0  0  0  0  0  0  0  0
    1.3173   -1.0511   -1.9440 N   0  0  0  0  0  0  0  0  0  0  0  0
    3.0024   -1.0316   -2.0815 S   0  0  0  0  0  6  0  0  0  0  0  0
    3.3655   -0.0019   -3.0307 O   0  0  0  0  0  0  0  0  0  0  0  0
    3.4577   -2.3959   -2.2398 O   0  0  0  0  0  0  0  0  0  0  0  0
    3.5410   -0.4776   -0.4737 C   0  0  0  0  0  0  0  0  0  0  0  0
    3.8614   -1.4194    0.5118 C   0  0  0  0  0  0  0  0  0  0  0  0
    4.3080   -0.9914    1.7634 C   0  0  0  0  0  0  0  0  0  0  0  0
    4.4490    0.3727    2.0275 C   0  0  0  0  0  0  0  0  0  0  0  0
    4.1503    1.3075    1.0258 C   0  0  0  0  0  0  0  0  0  0  0  0
    4.3013    2.7407    1.3030 N   0  0  0  0  0  4  0  0  0  0  0  0
    3.8145    3.5356    0.4867 O   0  0  0  0  0  0  0  0  0  0  0  0
    4.8984    3.0676    2.3378 O   0  0  0  0  0  1  0  0  0  0  0  0
    3.7056    0.8905   -0.2347 C   0  0  0  0  0  0  0  0  0  0  0  0
    0.6128    0.2628   -1.9688 C   0  0  0  0  0  0  0  0  0  0  0  0
   -0.8869    0.0969   -1.6818 C   0  0  0  0  0  0  0  0  0  0  0  0
   -4.0250    2.5498    0.6228 H   0  0  0  0  0  0  0  0  0  0  0  0
   -2.8880    2.0507    1.8905 H   0  0  0  0  0  0  0  0  0  0  0  0
   -5.2893    1.6024    2.5408 H   0  0  0  0  0  0  0  0  0  0  0  0
   -4.3797    0.0852    2.4510 H   0  0  0  0  0  0  0  0  0  0  0  0
   -5.8258   -0.7822   -0.7489 H   0  0  0  0  0  0  0  0  0  0  0  0
   -4.6918   -1.3223    0.5002 H   0  0  0  0  0  0  0  0  0  0  0  0
   -4.3338    1.1120   -1.3681 H   0  0  0  0  0  0  0  0  0  0  0  0
   -3.4595   -0.4327   -1.4759 H   0  0  0  0  0  0  0  0  0  0  0  0
   -0.5734   -2.2497    0.6791 H   0  0  0  0  0  0  0  0  0  0  0  0
    0.5905   -0.9195    0.7363 H   0  0  0  0  0  0  0  0  0  0  0  0
    0.0191   -2.6836   -1.7149 H   0  0  0  0  0  0  0  0  0  0  0  0
    1.4362   -2.7875   -0.6818 H   0  0  0  0  0  0  0  0  0  0  0  0
    3.7754   -2.4862    0.3111 H   0  0  0  0  0  0  0  0  0  0  0  0
    4.5539   -1.7216    2.5324 H   0  0  0  0  0  0  0  0  0  0  0  0
    4.7968    0.6896    3.0095 H   0  0  0  0  0  0  0  0  0  0  0  0
    3.4938    1.6128   -1.0213 H   0  0  0  0  0  0  0  0  0  0  0  0
    1.0432    0.9336   -1.2191 H   0  0  0  0  0  0  0  0  0  0  0  0
    0.7376    0.7144   -2.9585 H   0  0  0  0  0  0  0  0  0  0  0  0
   -1.3743    1.0746   -1.7399 H   0  0  0  0  0  0  0  0  0  0  0  0
   -1.3357   -0.5590   -2.4367 H   0  0  0  0  0  0  0  0  0  0  0  0
  1  2  2  0
  2  3  1  0
  3  4  1  0
  4  5  1  0
  5  6  1  0
  6  7  1  0
  7  8  1  0
  2  9  1  0
  9 10  1  0
 10 11  1  0
 11 12  1  0
 12 13  1  0
 13 14  2  0
 13 15  2  0
 13 16  1  0
 16 17  2  0
 17 18  1  0
 18 19  2  0
 19 20  1  0
 20 21  1  0
 21 22  2  0
 21 23  1  0
 20 24  2  0
 12 25  1  0
 25 26  1  0
  8  3  1  0
 26  9  1  0
 24 16  1  0
  4 27  1  0
  4 28  1  0
  5 29  1  0
  5 30  1  0
  7 31  1  0
  7 32  1  0
  8 33  1  0
  8 34  1  0
 10 35  1  0
 10 36  1  0
 11 37  1  0
 11 38  1  0
 17 39  1  0
 18 40  1  0
 19 41  1  0
 24 42  1  0
 25 43  1  0
 25 44  1  0
 26 45  1  0
 26 46  1  0
M  CHG  2  21   1  23  -1
M  END
$$$$
