
     RDKit          3D

 60 61  0  0  0  0  0  0  0  0999 V2000
   -7.2173    1.7327    0.2532 C   0  0  0  0  0  0  0  0  0  0  0  0
   -6.3866    0.6633    0.6877 O   0  0  0  0  0  0  0  0  0  0  0  0
   -5.0337    0.8732    0.6685 C   0  0  0  0  0  0  0  0  0  0  0  0
   -4.2800   -0.1938    1.1663 C   0  0  0  0  0  0  0  0  0  0  0  0
   -2.8858   -0.1242    1.2200 C   0  0  0  0  0  0  0  0  0  0  0  0
   -2.0840   -1.1351    1.6948 O   0  0  0  0  0  0  0  0  0  0  0  0
   -2.6898   -2.4095    1.8802 C   0  0  0  0  0  0  0  0  0  0  0  0
   -2.2381    1.0499    0.7828 C   0  0  0  0  0  0  0  0  0  0  0  0
   -0.7820    1.1469    0.8634 C   0  0  0  0  0  0  0  0  0  0  0  0
   -0.1895    1.9728    1.7406 N   0  0  0  0  0  0  0  0  0  0  0  0
    1.1672    1.7891    1.5812 O   0  0  0  0  0  0  0  0  0  0  0  0
    1.4012    0.8634    0.6085 C   0  0  0  0  0  0  0  0  0  0  0  0
    2.7616    0.5907    0.2289 C   0  0  0  0  0  0  0  0  0  0  0  0
    3.1108    0.0361   -0.8045 O   0  0  0  0  0  0  0  0  0  0  0  0
    3.6098    1.0530    1.1889 O   0  0  0  0  0  0  0  0  0  0  0  0
    5.0460    0.9045    1.0558 C   0  0  0  0  0  0  0  0  0  0  0  0
    5.4520   -0.5735    1.0224 C   0  0  0  0  0  0  0  0  0  0  0  0
    5.5745    1.6731   -0.1601 C   0  0  0  0  0  0  0  0  0  0  0  0
    5.6233    1.5425    2.3292 C   0  0  0  0  0  0  0  0  0  0  0  0
    0.1883    0.3979    0.1407 C   0  0  0  0  0  0  0  0  0  0  0  0
   -0.0369   -0.6193   -0.8543 C   0  0  0  0  0  0  0  0  0  0  0  0
   -0.9770   -0.5922   -1.6364 O   0  0  0  0  0  0  0  0  0  0  0  0
    0.8868   -1.6138   -0.7783 O   0  0  0  0  0  0  0  0  0  0  0  0
    0.8560   -2.7394   -1.6897 C   0  0  0  0  0  0  0  0  0  0  0  0
   -0.4211   -3.5661   -1.5029 C   0  0  0  0  0  0  0  0  0  0  0  0
    2.0628   -3.6004   -1.2840 C   0  0  0  0  0  0  0  0  0  0  0  0
    1.0413   -2.2881   -3.1427 C   0  0  0  0  0  0  0  0  0  0  0  0
   -2.9925    2.1180    0.2509 C   0  0  0  0  0  0  0  0  0  0  0  0
   -2.2825    3.2025   -0.2043 O   0  0  0  0  0  0  0  0  0  0  0  0
   -2.9907    4.2179   -0.9068 C   0  0  0  0  0  0  0  0  0  0  0  0
   -4.3897    2.0220    0.2053 C   0  0  0  0  0  0  0  0  0  0  0  0
   -7.0763    2.6214    0.8771 H   0  0  0  0  0  0  0  0  0  0  0  0
   -7.0461    1.9590   -0.8040 H   0  0  0  0  0  0  0  0  0  0  0  0
   -8.2582    1.4128    0.3602 H   0  0  0  0  0  0  0  0  0  0  0  0
   -4.8188   -1.0677    1.5187 H   0  0  0  0  0  0  0  0  0  0  0  0
   -3.1887   -2.7522    0.9665 H   0  0  0  0  0  0  0  0  0  0  0  0
   -1.8952   -3.1257    2.1105 H   0  0  0  0  0  0  0  0  0  0  0  0
   -3.3805   -2.3937    2.7294 H   0  0  0  0  0  0  0  0  0  0  0  0
    6.5396   -0.6894    1.0789 H   0  0  0  0  0  0  0  0  0  0  0  0
    5.0008   -1.1196    1.8578 H   0  0  0  0  0  0  0  0  0  0  0  0
    5.1176   -1.0698    0.1068 H   0  0  0  0  0  0  0  0  0  0  0  0
    5.2562    1.2173   -1.1027 H   0  0  0  0  0  0  0  0  0  0  0  0
    5.1955    2.7015   -0.1647 H   0  0  0  0  0  0  0  0  0  0  0  0
    6.6694    1.7055   -0.1656 H   0  0  0  0  0  0  0  0  0  0  0  0
    5.3279    2.5954    2.4071 H   0  0  0  0  0  0  0  0  0  0  0  0
    5.2335    1.0451    3.2250 H   0  0  0  0  0  0  0  0  0  0  0  0
    6.7162    1.4881    2.3516 H   0  0  0  0  0  0  0  0  0  0  0  0
   -0.3731   -4.5062   -2.0629 H   0  0  0  0  0  0  0  0  0  0  0  0
   -1.3104   -3.0274   -1.8451 H   0  0  0  0  0  0  0  0  0  0  0  0
   -0.5833   -3.7985   -0.4433 H   0  0  0  0  0  0  0  0  0  0  0  0
    1.9721   -3.9283   -0.2404 H   0  0  0  0  0  0  0  0  0  0  0  0
    2.1612   -4.4883   -1.9179 H   0  0  0  0  0  0  0  0  0  0  0  0
    2.9953   -3.0241   -1.3463 H   0  0  0  0  0  0  0  0  0  0  0  0
    1.9143   -1.6328   -3.2386 H   0  0  0  0  0  0  0  0  0  0  0  0
    1.1744   -3.1445   -3.8125 H   0  0  0  0  0  0  0  0  0  0  0  0
    0.1810   -1.7183   -3.5074 H   0  0  0  0  0  0  0  0  0  0  0  0
   -3.6881    4.7423   -0.2422 H   0  0  0  0  0  0  0  0  0  0  0  0
   -3.5055    3.8086   -1.7844 H   0  0  0  0  0  0  0  0  0  0  0  0
   -2.2600    4.9517   -1.2640 H   0  0  0  0  0  0  0  0  0  0  0  0
   -4.9751    2.8436   -0.1873 H   0  0  0  0  0  0  0  0  0  0  0  0
  1  2  1  0
  2  3  1  0
  3  4  2  0
  4  5  1  0
  5  6  1  0
  6  7  1  0
  5  8  2  0
  8  9  1  0
  9 10  2  0
 10 11  1  0
 11 12  1  0
 12 13  1  0
 13 14  2  0
 13 15  1  0
 15 16  1  0
 16 17  1  0
 16 18  1  0
 16 19  1  0
 12 20  2  0
 20 21  1  0
 21 22  2  0
 21 23  1  0
 23 24  1  0
 24 25  1  0
 24 26  1  0
 24 27  1  0
  8 28  1  0
 28 29  1  0
 29 30  1  0
 28 31  2  0
 31  3  1  0
 20  9  1  0
  1 32  1  0
  1 33  1  0
  1 34  1  0
  4 35  1  0
  7 36  1  0
  7 37  1  0
  7 38  1  0
 17 39  1  0
 17 40  1  0
 17 41  1  0
 18 42  1  0
 18 43  1  0
 18 44  1  0
 19 45  1  0
 19 46  1  0
 19 47  1  0
 25 48  1  0
 25 49  1  0
 25 50  1  0
 26 51  1  0
 26 52  1  0
 26 53  1  0
 27 54  1  0
 27 55  1  0
 27 56  1  0
 30 57  1  0
 30 58  1  0
 30 59  1  0
 31 60  1  0
M  END
$$$$
