
     RDKit          3D

 43 45  0  0  0  0  0  0  0  0999 V2000
   -3.7504   -0.1586    2.8537 C   0  0  0  0  0  0  0  0  0  0  0  0
   -4.4769   -0.4001    1.5613 C   0  0  0  0  0  0  0  0  0  0  0  0
   -5.8774   -0.3846    1.5425 C   0  0  0  0  0  0  0  0  0  0  0  0
   -6.5728   -0.6134    0.3558 C   0  0  0  0  0  0  0  0  0  0  0  0
   -5.8773   -0.8719   -0.8250 C   0  0  0  0  0  0  0  0  0  0  0  0
   -4.4765   -0.8944   -0.8369 C   0  0  0  0  0  0  0  0  0  0  0  0
   -3.7546   -1.1819   -2.1223 C   0  0  0  0  0  0  0  0  0  0  0  0
   -3.7890   -0.6073    0.3539 C   0  0  0  0  0  0  0  0  0  0  0  0
   -2.4158   -0.6015    0.3565 O   0  0  0  0  0  0  0  0  0  0  0  0
   -1.9265    0.7134    0.0619 C   0  0  0  0  0  0  0  0  0  0  0  0
   -0.4486    0.6482    0.1263 C   0  0  0  0  0  0  0  0  0  0  0  0
    0.4592   -0.1233    0.8076 C   0  0  0  0  0  0  0  0  0  0  0  0
    1.7362    0.3574    0.4024 C   0  0  0  0  0  0  0  0  0  0  0  0
    3.0311   -0.1594    0.8826 C   0  0  0  0  0  0  0  0  0  0  0  0
    3.0437   -0.9510    1.8295 O   0  0  0  0  0  0  0  0  0  0  0  0
    4.2391    0.2316    0.2789 N   0  0  0  0  0  0  0  0  0  0  0  0
    5.4574   -0.4173    0.7624 C   0  0  0  0  0  0  0  0  0  0  0  0
    6.7004    0.4051    0.4448 C   0  0  0  0  0  0  0  0  0  0  0  0
    6.7942    0.6737   -0.9691 N   0  0  0  0  0  0  0  0  0  0  0  0
    5.6956    1.0442   -1.6982 C   0  0  0  0  0  0  0  0  0  0  0  0
    5.8391    1.4965   -2.8323 O   0  0  0  0  0  0  0  0  0  0  0  0
    4.3133    0.8895   -1.0381 C   0  0  0  0  0  0  0  0  0  0  0  0
    1.5848    1.3787   -0.4568 N   0  0  0  0  0  0  0  0  0  0  0  0
    0.2273    1.5511   -0.6303 O   0  0  0  0  0  0  0  0  0  0  0  0
   -3.4607    0.8935    2.9329 H   0  0  0  0  0  0  0  0  0  0  0  0
   -2.8556   -0.7855    2.9250 H   0  0  0  0  0  0  0  0  0  0  0  0
   -4.3825   -0.4090    3.7125 H   0  0  0  0  0  0  0  0  0  0  0  0
   -6.4377   -0.2021    2.4571 H   0  0  0  0  0  0  0  0  0  0  0  0
   -7.6599   -0.6032    0.3537 H   0  0  0  0  0  0  0  0  0  0  0  0
   -6.4372   -1.0650   -1.7377 H   0  0  0  0  0  0  0  0  0  0  0  0
   -4.3633   -1.8120   -2.7795 H   0  0  0  0  0  0  0  0  0  0  0  0
   -2.8207   -1.7237   -1.9408 H   0  0  0  0  0  0  0  0  0  0  0  0
   -3.5314   -0.2474   -2.6451 H   0  0  0  0  0  0  0  0  0  0  0  0
   -2.2432    1.0270   -0.9396 H   0  0  0  0  0  0  0  0  0  0  0  0
   -2.2872    1.4400    0.7993 H   0  0  0  0  0  0  0  0  0  0  0  0
    0.2463   -0.9272    1.4977 H   0  0  0  0  0  0  0  0  0  0  0  0
    5.3955   -0.5842    1.8433 H   0  0  0  0  0  0  0  0  0  0  0  0
    5.5123   -1.3988    0.2747 H   0  0  0  0  0  0  0  0  0  0  0  0
    6.6671    1.3713    0.9605 H   0  0  0  0  0  0  0  0  0  0  0  0
    7.6077   -0.1246    0.7495 H   0  0  0  0  0  0  0  0  0  0  0  0
    7.6852    0.9003   -1.3947 H   0  0  0  0  0  0  0  0  0  0  0  0
    3.6869    0.3207   -1.7342 H   0  0  0  0  0  0  0  0  0  0  0  0
    3.9229    1.9055   -0.9226 H   0  0  0  0  0  0  0  0  0  0  0  0
  1  2  1  0
  2  3  2  0
  3  4  1  0
  4  5  2  0
  5  6  1  0
  6  7  1  0
  6  8  2  0
  8  9  1  0
  9 10  1  0
 10 11  1  0
 11 12  2  0
 12 13  1  0
 13 14  1  0
 14 15  2  0
 14 16  1  0
 16 17  1  0
 17 18  1  0
 18 19  1  0
 19 20  1  0
 20 21  2  0
 20 22  1  0
 13 23  2  0
 23 24  1  0
  8  2  1  0
 24 11  1  0
 22 16  1  0
  1 25  1  0
  1 26  1  0
  1 27  1  0
  3 28  1  0
  4 29  1  0
  5 30  1  0
  7 31  1  0
  7 32  1  0
  7 33  1  0
 10 34  1  0
 10 35  1  0
 12 36  1  0
 17 37  1  0
 17 38  1  0
 18 39  1  0
 18 40  1  0
 19 41  1  0
 22 42  1  0
 22 43  1  0
M  END
$$$$
