
     RDKit          3D

 43 44  0  0  0  0  0  0  0  0999 V2000
   -1.9356    0.3764   -1.9163 C   0  0  0  0  0  0  0  0  0  0  0  0
   -3.4540    0.4235   -1.8059 C   0  0  0  0  0  0  0  0  0  0  0  0
   -3.9533    1.4262   -0.7646 C   0  0  0  0  0  0  0  0  0  0  0  0
   -3.5998    1.0345    0.6199 C   0  0  0  0  0  0  0  0  0  0  0  0
   -2.8004    1.6248    1.4834 N   0  0  0  0  0  0  0  0  0  0  0  0
   -2.7921    0.8265    2.6050 N   0  0  0  0  0  0  0  0  0  0  0  0
   -3.5833   -0.1984    2.3485 C   0  0  0  0  0  0  0  0  0  0  0  0
   -3.8006   -1.5523    3.4092 S   0  0  0  0  0  0  0  0  0  0  0  0
   -2.1871   -1.5660    4.2461 C   0  0  0  0  0  0  0  0  0  0  0  0
   -1.0729   -1.9227    3.2689 C   0  0  0  0  0  0  0  0  0  0  0  0
   -0.7835   -3.0961    3.0488 O   0  0  0  0  0  0  0  0  0  0  0  0
   -0.4812   -0.8121    2.6870 N   0  0  0  0  0  0  0  0  0  0  0  0
    0.5415   -0.7864    1.7183 C   0  0  0  0  0  0  0  0  0  0  0  0
    0.8668    0.4637    1.1736 C   0  0  0  0  0  0  0  0  0  0  0  0
    1.8651    0.5835    0.2019 C   0  0  0  0  0  0  0  0  0  0  0  0
    2.5537   -0.5511   -0.2410 C   0  0  0  0  0  0  0  0  0  0  0  0
    3.6218   -0.4837   -1.2747 C   0  0  0  0  0  0  0  0  0  0  0  0
    4.1183   -1.4688   -1.7957 O   0  0  0  0  0  0  0  0  0  0  0  0
    3.9580    0.8066   -1.5225 O   0  0  0  0  0  0  0  0  0  0  0  0
    5.0040    1.0048   -2.4845 C   0  0  0  0  0  0  0  0  0  0  0  0
    4.4161    1.0972   -3.8790 C   0  0  0  0  0  0  0  0  0  0  0  0
    2.2282   -1.7993    0.2993 C   0  0  0  0  0  0  0  0  0  0  0  0
    1.2321   -1.9148    1.2769 C   0  0  0  0  0  0  0  0  0  0  0  0
   -4.1540   -0.1170    1.1085 O   0  0  0  0  0  0  0  0  0  0  0  0
   -1.6405   -0.3529   -2.6774 H   0  0  0  0  0  0  0  0  0  0  0  0
   -1.5329    1.3523   -2.2077 H   0  0  0  0  0  0  0  0  0  0  0  0
   -1.4750    0.0760   -0.9709 H   0  0  0  0  0  0  0  0  0  0  0  0
   -3.8286   -0.5825   -1.5776 H   0  0  0  0  0  0  0  0  0  0  0  0
   -3.8647    0.6990   -2.7840 H   0  0  0  0  0  0  0  0  0  0  0  0
   -5.0443    1.5034   -0.8388 H   0  0  0  0  0  0  0  0  0  0  0  0
   -3.5485    2.4220   -0.9805 H   0  0  0  0  0  0  0  0  0  0  0  0
   -1.9886   -0.6082    4.7356 H   0  0  0  0  0  0  0  0  0  0  0  0
   -2.2046   -2.3274    5.0321 H   0  0  0  0  0  0  0  0  0  0  0  0
   -0.9200    0.0893    2.8751 H   0  0  0  0  0  0  0  0  0  0  0  0
    0.3405    1.3622    1.4925 H   0  0  0  0  0  0  0  0  0  0  0  0
    2.0863    1.5666   -0.2033 H   0  0  0  0  0  0  0  0  0  0  0  0
    5.7641    0.2179   -2.4205 H   0  0  0  0  0  0  0  0  0  0  0  0
    5.4970    1.9494   -2.2309 H   0  0  0  0  0  0  0  0  0  0  0  0
    3.6636    1.8914   -3.9254 H   0  0  0  0  0  0  0  0  0  0  0  0
    3.9131    0.1656   -4.1582 H   0  0  0  0  0  0  0  0  0  0  0  0
    5.1963    1.3064   -4.6163 H   0  0  0  0  0  0  0  0  0  0  0  0
    2.7520   -2.6941   -0.0313 H   0  0  0  0  0  0  0  0  0  0  0  0
    1.0271   -2.9032    1.6766 H   0  0  0  0  0  0  0  0  0  0  0  0
  1  2  1  0
  2  3  1  0
  3  4  1  0
  4  5  2  0
  5  6  1  0
  6  7  2  0
  7  8  1  0
  8  9  1  0
  9 10  1  0
 10 11  2  0
 10 12  1  0
 12 13  1  0
 13 14  2  0
 14 15  1  0
 15 16  2  0
 16 17  1  0
 17 18  2  0
 17 19  1  0
 19 20  1  0
 20 21  1  0
 16 22  1  0
 22 23  2  0
  7 24  1  0
 24  4  1  0
 23 13  1  0
  1 25  1  0
  1 26  1  0
  1 27  1  0
  2 28  1  0
  2 29  1  0
  3 30  1  0
  3 31  1  0
  9 32  1  0
  9 33  1  0
 12 34  1  0
 14 35  1  0
 15 36  1  0
 20 37  1  0
 20 38  1  0
 21 39  1  0
 21 40  1  0
 21 41  1  0
 22 42  1  0
 23 43  1  0
M  END
$$$$
