
     RDKit          3D

 42 44  0  0  0  0  0  0  0  0999 V2000
    4.7878    0.9348    1.3439 C   0  0  0  0  0  0  0  0  0  0  0  0
    3.8141    0.0454    0.5872 C   0  0  0  0  0  0  0  0  0  0  0  0
    2.3639    0.3528    0.9671 C   0  0  0  0  0  0  0  0  0  0  0  0
    1.3876   -0.5387    0.1941 C   0  0  0  0  0  0  0  0  0  0  0  0
   -0.0988   -0.4137    0.6244 C   0  0  0  0  0  0  0  0  0  0  0  0
   -0.8926   -1.4793   -0.1094 C   0  0  0  0  0  0  0  0  0  0  0  0
   -1.6743   -1.1821   -1.1638 C   0  0  0  0  0  0  0  0  0  0  0  0
   -2.4809   -2.1887   -1.9310 C   0  0  0  0  0  0  0  0  0  0  0  0
   -2.7556   -3.4416   -1.1076 C   0  0  0  0  0  0  0  0  0  0  0  0
   -1.4812   -3.9666   -0.4676 C   0  0  0  0  0  0  0  0  0  0  0  0
   -0.7935   -2.8942    0.3499 C   0  0  0  0  0  0  0  0  0  0  0  0
   -0.1214   -3.1839    1.3375 O   0  0  0  0  0  0  0  0  0  0  0  0
   -1.8277    0.1241   -1.6133 O   0  0  0  0  0  0  0  0  0  0  0  0
   -1.4518    1.1622   -0.7690 C   0  0  0  0  0  0  0  0  0  0  0  0
   -0.6711    0.9543    0.3084 C   0  0  0  0  0  0  0  0  0  0  0  0
   -0.4772    2.0731    1.2763 C   0  0  0  0  0  0  0  0  0  0  0  0
    0.0820    1.8762    2.3535 O   0  0  0  0  0  0  0  0  0  0  0  0
   -1.0619    3.4320    0.9513 C   0  0  0  0  0  0  0  0  0  0  0  0
   -1.2114    3.6403   -0.5459 C   0  0  0  0  0  0  0  0  0  0  0  0
   -2.0002    2.4989   -1.1743 C   0  0  0  0  0  0  0  0  0  0  0  0
    4.6928    0.7898    2.4247 H   0  0  0  0  0  0  0  0  0  0  0  0
    5.8176    0.6982    1.0585 H   0  0  0  0  0  0  0  0  0  0  0  0
    4.6080    1.9915    1.1216 H   0  0  0  0  0  0  0  0  0  0  0  0
    3.9556    0.1913   -0.4900 H   0  0  0  0  0  0  0  0  0  0  0  0
    4.0428   -1.0042    0.8058 H   0  0  0  0  0  0  0  0  0  0  0  0
    2.2304    0.1983    2.0441 H   0  0  0  0  0  0  0  0  0  0  0  0
    2.1627    1.4072    0.7506 H   0  0  0  0  0  0  0  0  0  0  0  0
    1.4836   -0.3182   -0.8785 H   0  0  0  0  0  0  0  0  0  0  0  0
    1.7146   -1.5792    0.3179 H   0  0  0  0  0  0  0  0  0  0  0  0
   -0.1932   -0.5971    1.7023 H   0  0  0  0  0  0  0  0  0  0  0  0
   -1.9415   -2.4499   -2.8493 H   0  0  0  0  0  0  0  0  0  0  0  0
   -3.4394   -1.7498   -2.2324 H   0  0  0  0  0  0  0  0  0  0  0  0
   -3.4869   -3.2062   -0.3232 H   0  0  0  0  0  0  0  0  0  0  0  0
   -3.2045   -4.2142   -1.7417 H   0  0  0  0  0  0  0  0  0  0  0  0
   -0.7769   -4.3223   -1.2276 H   0  0  0  0  0  0  0  0  0  0  0  0
   -1.7283   -4.8044    0.1935 H   0  0  0  0  0  0  0  0  0  0  0  0
   -0.3970    4.2019    1.3576 H   0  0  0  0  0  0  0  0  0  0  0  0
   -2.0329    3.5119    1.4526 H   0  0  0  0  0  0  0  0  0  0  0  0
   -1.7101    4.5952   -0.7456 H   0  0  0  0  0  0  0  0  0  0  0  0
   -0.2172    3.6948   -1.0088 H   0  0  0  0  0  0  0  0  0  0  0  0
   -3.0544    2.5574   -0.8787 H   0  0  0  0  0  0  0  0  0  0  0  0
   -1.9618    2.6029   -2.2651 H   0  0  0  0  0  0  0  0  0  0  0  0
  1  2  1  0
  2  3  1  0
  3  4  1  0
  4  5  1  0
  5  6  1  0
  6  7  2  0
  7  8  1  0
  8  9  1  0
  9 10  1  0
 10 11  1  0
 11 12  2  0
  7 13  1  0
 13 14  1  0
 14 15  2  0
 15 16  1  0
 16 17  2  0
 16 18  1  0
 18 19  1  0
 19 20  1  0
 15  5  1  0
 11  6  1  0
 20 14  1  0
  1 21  1  0
  1 22  1  0
  1 23  1  0
  2 24  1  0
  2 25  1  0
  3 26  1  0
  3 27  1  0
  4 28  1  0
  4 29  1  0
  5 30  1  0
  8 31  1  0
  8 32  1  0
  9 33  1  0
  9 34  1  0
 10 35  1  0
 10 36  1  0
 18 37  1  0
 18 38  1  0
 19 39  1  0
 19 40  1  0
 20 41  1  0
 20 42  1  0
M  END
$$$$
