
     RDKit          3D

 62 65  0  0  0  0  0  0  0  0999 V2000
   10.1331   -1.6804    0.4832 C   0  0  0  0  0  0  0  0  0  0  0  0
    9.1654   -2.5908   -0.2481 C   0  0  0  0  0  0  0  0  0  0  0  0
    7.8349   -2.1211    0.0017 O   0  0  0  0  0  0  0  0  0  0  0  0
    6.8602   -2.8301   -0.6280 C   0  0  0  0  0  0  0  0  0  0  0  0
    7.0811   -3.7902   -1.3568 O   0  0  0  0  0  0  0  0  0  0  0  0
    5.5911   -2.3482   -0.3538 N   0  0  0  0  0  0  0  0  0  0  0  0
    5.3773   -1.0495    0.2884 C   0  0  0  0  0  0  0  0  0  0  0  0
    4.0298   -0.9724    1.0145 C   0  0  0  0  0  0  0  0  0  0  0  0
    2.9129   -1.4556    0.1948 N   0  0  0  0  0  0  0  0  0  0  0  0
    1.6419   -0.9534    0.4889 C   0  0  0  0  0  0  0  0  0  0  0  0
    1.4815   -0.0468    1.3080 O   0  0  0  0  0  0  0  0  0  0  0  0
    0.4569   -1.5570   -0.2858 C   0  0  0  0  0  0  0  0  0  0  0  0
   -0.8116   -0.9724   -0.0246 O   0  0  0  0  0  0  0  0  0  0  0  0
   -1.1839    0.1217   -0.7599 C   0  0  0  0  0  0  0  0  0  0  0  0
   -0.3003    0.9350   -1.4769 C   0  0  0  0  0  0  0  0  0  0  0  0
   -0.7747    2.0222   -2.2143 C   0  0  0  0  0  0  0  0  0  0  0  0
   -2.1367    2.3074   -2.2392 C   0  0  0  0  0  0  0  0  0  0  0  0
   -3.0281    1.5172   -1.5068 C   0  0  0  0  0  0  0  0  0  0  0  0
   -2.5557    0.4305   -0.7491 C   0  0  0  0  0  0  0  0  0  0  0  0
   -3.5523   -0.4172   -0.0038 C   0  0  0  0  0  0  0  0  0  0  0  0
   -4.7270    0.4342    0.4608 C   0  0  0  0  0  0  0  0  0  0  0  0
   -5.3063    1.2092   -0.6292 N   0  0  0  0  0  0  0  0  0  0  0  0
   -6.7137    1.5923   -0.5507 C   0  0  0  0  0  0  0  0  0  0  0  0
   -7.0625    2.3538    0.7029 C   0  0  0  0  0  0  0  0  0  0  0  0
   -7.7485    1.7302    1.7563 C   0  0  0  0  0  0  0  0  0  0  0  0
   -8.0545    2.4374    2.9214 C   0  0  0  0  0  0  0  0  0  0  0  0
   -7.6807    3.7736    3.0500 C   0  0  0  0  0  0  0  0  0  0  0  0
   -7.0001    4.4027    2.0112 C   0  0  0  0  0  0  0  0  0  0  0  0
   -6.6995    3.6949    0.8500 C   0  0  0  0  0  0  0  0  0  0  0  0
   -6.0582    4.3322   -0.1366 F   0  0  0  0  0  0  0  0  0  0  0  0
   -4.4856    1.8316   -1.5666 C   0  0  0  0  0  0  0  0  0  0  0  0
   -4.9008    2.5911   -2.4366 O   0  0  0  0  0  0  0  0  0  0  0  0
    3.1372   -2.7632   -0.4360 C   0  0  0  0  0  0  0  0  0  0  0  0
    4.4833   -2.8435   -1.1636 C   0  0  0  0  0  0  0  0  0  0  0  0
   10.0414   -0.6520    0.1224 H   0  0  0  0  0  0  0  0  0  0  0  0
   11.1642   -2.0124    0.3415 H   0  0  0  0  0  0  0  0  0  0  0  0
    9.9129   -1.6624    1.5548 H   0  0  0  0  0  0  0  0  0  0  0  0
    9.2698   -3.6164    0.1244 H   0  0  0  0  0  0  0  0  0  0  0  0
    9.3751   -2.5641   -1.3239 H   0  0  0  0  0  0  0  0  0  0  0  0
    5.4178   -0.2948   -0.5062 H   0  0  0  0  0  0  0  0  0  0  0  0
    6.1814   -0.8248    0.9959 H   0  0  0  0  0  0  0  0  0  0  0  0
    4.0544   -1.5987    1.9147 H   0  0  0  0  0  0  0  0  0  0  0  0
    3.8528    0.0591    1.3380 H   0  0  0  0  0  0  0  0  0  0  0  0
    0.3715   -2.6006    0.0381 H   0  0  0  0  0  0  0  0  0  0  0  0
    0.6673   -1.5689   -1.3616 H   0  0  0  0  0  0  0  0  0  0  0  0
    0.7709    0.7640   -1.4699 H   0  0  0  0  0  0  0  0  0  0  0  0
   -0.0803    2.6491   -2.7682 H   0  0  0  0  0  0  0  0  0  0  0  0
   -2.5042    3.1496   -2.8222 H   0  0  0  0  0  0  0  0  0  0  0  0
   -3.1014   -0.8893    0.8757 H   0  0  0  0  0  0  0  0  0  0  0  0
   -3.9006   -1.2112   -0.6753 H   0  0  0  0  0  0  0  0  0  0  0  0
   -4.4059    1.1404    1.2364 H   0  0  0  0  0  0  0  0  0  0  0  0
   -5.4965   -0.2213    0.8839 H   0  0  0  0  0  0  0  0  0  0  0  0
   -7.2963    0.6643   -0.6009 H   0  0  0  0  0  0  0  0  0  0  0  0
   -7.0121    2.1829   -1.4242 H   0  0  0  0  0  0  0  0  0  0  0  0
   -8.0467    0.6871    1.6763 H   0  0  0  0  0  0  0  0  0  0  0  0
   -8.5812    1.9415    3.7344 H   0  0  0  0  0  0  0  0  0  0  0  0
   -7.9168    4.3223    3.9581 H   0  0  0  0  0  0  0  0  0  0  0  0
   -6.7032    5.4451    2.0913 H   0  0  0  0  0  0  0  0  0  0  0  0
    2.3380   -3.0055   -1.1384 H   0  0  0  0  0  0  0  0  0  0  0  0
    3.0999   -3.5075    0.3679 H   0  0  0  0  0  0  0  0  0  0  0  0
    4.4542   -2.2249   -2.0686 H   0  0  0  0  0  0  0  0  0  0  0  0
    4.6674   -3.8755   -1.4799 H   0  0  0  0  0  0  0  0  0  0  0  0
  1  2  1  0
  2  3  1  0
  3  4  1  0
  4  5  2  0
  4  6  1  0
  6  7  1  0
  7  8  1  0
  8  9  1  0
  9 10  1  0
 10 11  2  0
 10 12  1  0
 12 13  1  0
 13 14  1  0
 14 15  2  0
 15 16  1  0
 16 17  2  0
 17 18  1  0
 18 19  2  0
 19 20  1  0
 20 21  1  0
 21 22  1  0
 22 23  1  0
 23 24  1  0
 24 25  2  0
 25 26  1  0
 26 27  2  0
 27 28  1  0
 28 29  2  0
 29 30  1  0
 22 31  1  0
 31 32  2  0
  9 33  1  0
 33 34  1  0
 34  6  1  0
 19 14  1  0
 29 24  1  0
 31 18  1  0
  1 35  1  0
  1 36  1  0
  1 37  1  0
  2 38  1  0
  2 39  1  0
  7 40  1  0
  7 41  1  0
  8 42  1  0
  8 43  1  0
 12 44  1  0
 12 45  1  0
 15 46  1  0
 16 47  1  0
 17 48  1  0
 20 49  1  0
 20 50  1  0
 21 51  1  0
 21 52  1  0
 23 53  1  0
 23 54  1  0
 25 55  1  0
 26 56  1  0
 27 57  1  0
 28 58  1  0
 33 59  1  0
 33 60  1  0
 34 61  1  0
 34 62  1  0
M  END
$$$$
