
     RDKit          3D

 53 56  0  0  0  0  0  0  0  0999 V2000
    5.9060    5.3036   -0.1835 C   0  0  0  0  0  0  0  0  0  0  0  0
    6.3076    4.2651    0.7036 O   0  0  0  0  0  0  0  0  0  0  0  0
    5.6046    3.0932    0.6467 C   0  0  0  0  0  0  0  0  0  0  0  0
    6.0586    2.0968    1.5159 C   0  0  0  0  0  0  0  0  0  0  0  0
    5.4316    0.8492    1.5657 C   0  0  0  0  0  0  0  0  0  0  0  0
    4.3295    0.5881    0.7490 C   0  0  0  0  0  0  0  0  0  0  0  0
    3.7171   -0.6407    0.7285 O   0  0  0  0  0  0  0  0  0  0  0  0
    3.3807   -1.1264    2.0266 C   0  0  0  0  0  0  0  0  0  0  0  0
    3.8793    1.5758   -0.1412 C   0  0  0  0  0  0  0  0  0  0  0  0
    2.7300    1.3445   -0.9953 C   0  0  0  0  0  0  0  0  0  0  0  0
    2.8380    1.0664   -2.3439 C   0  0  0  0  0  0  0  0  0  0  0  0
    1.2693    0.8905   -3.0113 S   0  0  0  0  0  0  0  0  0  0  0  0
    0.5900    1.1784   -1.4748 C   0  0  0  0  0  0  0  0  0  0  0  0
   -0.7593    1.1896   -1.2415 N   0  0  0  0  0  0  0  0  0  0  0  0
   -1.7625    0.8886   -2.1330 C   0  0  0  0  0  0  0  0  0  0  0  0
   -1.6492    0.5217   -3.3012 O   0  0  0  0  0  0  0  0  0  0  0  0
   -3.1398    1.0097   -1.5248 C   0  0  0  0  0  0  0  0  0  0  0  0
   -3.5169   -0.2460   -0.9099 N   0  0  0  0  0  0  0  0  0  0  0  0
   -3.9756   -1.3597   -1.5766 C   0  0  0  0  0  0  0  0  0  0  0  0
   -4.0292   -1.4545   -2.9016 O   0  0  0  0  0  0  0  0  0  0  0  0
   -4.3434   -2.2804   -0.6198 C   0  0  0  0  0  0  0  0  0  0  0  0
   -4.0034   -1.7418    0.6574 C   0  0  0  0  0  0  0  0  0  0  0  0
   -3.4729   -0.4879    0.4436 C   0  0  0  0  0  0  0  0  0  0  0  0
   -2.9821    0.4200    1.2812 O   0  0  0  0  0  0  0  0  0  0  0  0
   -4.2300   -2.4842    1.9319 C   0  0  0  0  0  0  0  0  0  0  0  0
   -4.4642   -3.9829    1.6756 C   0  0  0  0  0  0  0  0  0  0  0  0
   -5.4431   -4.2220    0.5149 C   0  0  0  0  0  0  0  0  0  0  0  0
   -4.9160   -3.6451   -0.8097 C   0  0  0  0  0  0  0  0  0  0  0  0
    1.4390    1.4228   -0.5047 N   0  0  0  0  0  0  0  0  0  0  0  0
    4.5134    2.8301   -0.1815 C   0  0  0  0  0  0  0  0  0  0  0  0
    6.5716    6.1570   -0.0237 H   0  0  0  0  0  0  0  0  0  0  0  0
    6.0093    4.9908   -1.2279 H   0  0  0  0  0  0  0  0  0  0  0  0
    4.8831    5.6352    0.0320 H   0  0  0  0  0  0  0  0  0  0  0  0
    6.9171    2.2915    2.1553 H   0  0  0  0  0  0  0  0  0  0  0  0
    5.8302    0.0876    2.2291 H   0  0  0  0  0  0  0  0  0  0  0  0
    4.2581   -1.5611    2.5180 H   0  0  0  0  0  0  0  0  0  0  0  0
    2.6406   -1.9221    1.9021 H   0  0  0  0  0  0  0  0  0  0  0  0
    2.9321   -0.3443    2.6507 H   0  0  0  0  0  0  0  0  0  0  0  0
    3.7275    0.9607   -2.9479 H   0  0  0  0  0  0  0  0  0  0  0  0
   -0.9913    1.3368   -0.2654 H   0  0  0  0  0  0  0  0  0  0  0  0
   -3.1793    1.8173   -0.7867 H   0  0  0  0  0  0  0  0  0  0  0  0
   -3.8711    1.2488   -2.3045 H   0  0  0  0  0  0  0  0  0  0  0  0
   -3.3514   -0.8794   -3.3088 H   0  0  0  0  0  0  0  0  0  0  0  0
   -3.0828    0.0524    2.1795 H   0  0  0  0  0  0  0  0  0  0  0  0
   -3.3744   -2.3611    2.6042 H   0  0  0  0  0  0  0  0  0  0  0  0
   -5.1081   -2.0591    2.4349 H   0  0  0  0  0  0  0  0  0  0  0  0
   -3.5062   -4.4668    1.4408 H   0  0  0  0  0  0  0  0  0  0  0  0
   -4.8447   -4.4533    2.5890 H   0  0  0  0  0  0  0  0  0  0  0  0
   -5.6270   -5.2970    0.3965 H   0  0  0  0  0  0  0  0  0  0  0  0
   -6.4073   -3.7567    0.7597 H   0  0  0  0  0  0  0  0  0  0  0  0
   -5.7277   -3.6203   -1.5447 H   0  0  0  0  0  0  0  0  0  0  0  0
   -4.1333   -4.3039   -1.2061 H   0  0  0  0  0  0  0  0  0  0  0  0
    4.1276    3.5846   -0.8621 H   0  0  0  0  0  0  0  0  0  0  0  0
  1  2  1  0
  2  3  1  0
  3  4  2  0
  4  5  1  0
  5  6  2  0
  6  7  1  0
  7  8  1  0
  6  9  1  0
  9 10  1  0
 10 11  2  0
 11 12  1  0
 12 13  1  0
 13 14  1  0
 14 15  1  0
 15 16  2  0
 15 17  1  0
 17 18  1  0
 18 19  1  0
 19 20  1  0
 19 21  2  0
 21 22  1  0
 22 23  2  0
 23 24  1  0
 22 25  1  0
 25 26  1  0
 26 27  1  0
 27 28  1  0
 13 29  2  0
  9 30  2  0
 30  3  1  0
 29 10  1  0
 23 18  1  0
 28 21  1  0
  1 31  1  0
  1 32  1  0
  1 33  1  0
  4 34  1  0
  5 35  1  0
  8 36  1  0
  8 37  1  0
  8 38  1  0
 11 39  1  0
 14 40  1  0
 17 41  1  0
 17 42  1  0
 20 43  1  0
 24 44  1  0
 25 45  1  0
 25 46  1  0
 26 47  1  0
 26 48  1  0
 27 49  1  0
 27 50  1  0
 28 51  1  0
 28 52  1  0
 30 53  1  0
M  END
$$$$
