
     RDKit          3D

 53 55  0  0  0  0  0  0  0  0999 V2000
    4.6201   -3.6550    1.2198 C   0  0  0  0  0  0  0  0  0  0  0  0
    5.0434   -2.3066    1.0676 O   0  0  0  0  0  0  0  0  0  0  0  0
    4.0715   -1.3605    0.8769 C   0  0  0  0  0  0  0  0  0  0  0  0
    2.6984   -1.5853    0.9591 C   0  0  0  0  0  0  0  0  0  0  0  0
    1.8078   -0.5217    0.7595 C   0  0  0  0  0  0  0  0  0  0  0  0
    0.3593   -0.7927    0.8475 C   0  0  0  0  0  0  0  0  0  0  0  0
   -0.5231    0.1494    0.7225 N   0  0  0  0  0  0  0  0  0  0  0  0
   -1.8332   -0.2752    0.8026 N   0  0  0  0  0  0  0  0  0  0  0  0
   -2.3546   -1.0555   -0.3406 C   0  0  0  0  0  0  0  0  0  0  0  0
   -2.7887   -0.1437   -1.5080 C   0  0  0  0  0  0  0  0  0  0  0  0
   -3.7690    0.8787   -1.0476 N   0  0  0  0  0  0  0  0  0  0  0  0
   -5.1201    0.5367   -1.1076 C   0  0  0  0  0  0  0  0  0  0  0  0
   -5.6630    0.0158   -2.2971 C   0  0  0  0  0  0  0  0  0  0  0  0
   -7.0149   -0.3310   -2.4115 C   0  0  0  0  0  0  0  0  0  0  0  0
   -7.8641   -0.1488   -1.3294 C   0  0  0  0  0  0  0  0  0  0  0  0
   -9.5256   -0.5716   -1.4574 Cl  0  0  0  0  0  0  0  0  0  0  0  0
   -7.3717    0.3857   -0.1462 C   0  0  0  0  0  0  0  0  0  0  0  0
   -6.0165    0.7310   -0.0449 C   0  0  0  0  0  0  0  0  0  0  0  0
   -3.2299    1.6737    0.0857 C   0  0  0  0  0  0  0  0  0  0  0  0
   -2.7698    0.7711    1.2480 C   0  0  0  0  0  0  0  0  0  0  0  0
    2.2709    0.7725    0.4837 C   0  0  0  0  0  0  0  0  0  0  0  0
    3.6399    1.0147    0.3958 C   0  0  0  0  0  0  0  0  0  0  0  0
    4.2166    2.2311    0.1427 O   0  0  0  0  0  0  0  0  0  0  0  0
    3.3422    3.3111   -0.1602 C   0  0  0  0  0  0  0  0  0  0  0  0
    4.5207   -0.0624    0.5833 C   0  0  0  0  0  0  0  0  0  0  0  0
    5.8998    0.1767    0.5143 O   0  0  0  0  0  0  0  0  0  0  0  0
    6.3892   -0.0233   -0.7678 C   0  0  0  0  0  0  0  0  0  0  0  0
    7.8621    0.2605   -0.7664 C   0  0  0  0  0  0  0  0  0  0  0  0
    5.7608   -0.3742   -1.7592 O   0  0  0  0  0  0  0  0  0  0  0  0
    4.0482   -3.7844    2.1444 H   0  0  0  0  0  0  0  0  0  0  0  0
    4.0472   -3.9918    0.3494 H   0  0  0  0  0  0  0  0  0  0  0  0
    5.5151   -4.2804    1.2918 H   0  0  0  0  0  0  0  0  0  0  0  0
    2.3014   -2.5693    1.1824 H   0  0  0  0  0  0  0  0  0  0  0  0
    0.0565   -1.8383    1.0390 H   0  0  0  0  0  0  0  0  0  0  0  0
   -1.5993   -1.7737   -0.6748 H   0  0  0  0  0  0  0  0  0  0  0  0
   -3.2127   -1.6272    0.0321 H   0  0  0  0  0  0  0  0  0  0  0  0
   -3.1641   -0.7606   -2.3300 H   0  0  0  0  0  0  0  0  0  0  0  0
   -1.9101    0.3853   -1.8989 H   0  0  0  0  0  0  0  0  0  0  0  0
   -5.0365   -0.0940   -3.1791 H   0  0  0  0  0  0  0  0  0  0  0  0
   -7.3909   -0.7272   -3.3503 H   0  0  0  0  0  0  0  0  0  0  0  0
   -8.0300    0.5422    0.7037 H   0  0  0  0  0  0  0  0  0  0  0  0
   -5.6857    1.1451    0.9018 H   0  0  0  0  0  0  0  0  0  0  0  0
   -3.9434    2.4303    0.4302 H   0  0  0  0  0  0  0  0  0  0  0  0
   -2.3634    2.2344   -0.2888 H   0  0  0  0  0  0  0  0  0  0  0  0
   -2.2902    1.3637    2.0350 H   0  0  0  0  0  0  0  0  0  0  0  0
   -3.6233    0.2538    1.6992 H   0  0  0  0  0  0  0  0  0  0  0  0
    1.5438    1.5663    0.3455 H   0  0  0  0  0  0  0  0  0  0  0  0
    2.7365    3.0945   -1.0465 H   0  0  0  0  0  0  0  0  0  0  0  0
    2.7121    3.5598    0.7000 H   0  0  0  0  0  0  0  0  0  0  0  0
    3.9588    4.1868   -0.3847 H   0  0  0  0  0  0  0  0  0  0  0  0
    8.2604    0.1127   -1.7743 H   0  0  0  0  0  0  0  0  0  0  0  0
    8.0394    1.2978   -0.4713 H   0  0  0  0  0  0  0  0  0  0  0  0
    8.3712   -0.4269   -0.0863 H   0  0  0  0  0  0  0  0  0  0  0  0
  1  2  1  0
  2  3  1  0
  3  4  2  0
  4  5  1  0
  5  6  1  0
  6  7  2  3
  7  8  1  0
  8  9  1  0
  9 10  1  0
 10 11  1  0
 11 12  1  0
 12 13  2  0
 13 14  1  0
 14 15  2  0
 15 16  1  0
 15 17  1  0
 17 18  2  0
 11 19  1  0
 19 20  1  0
  5 21  2  0
 21 22  1  0
 22 23  1  0
 23 24  1  0
 22 25  2  0
 25 26  1  0
 26 27  1  0
 27 28  1  0
 27 29  2  0
 25  3  1  0
 20  8  1  0
 18 12  1  0
  1 30  1  0
  1 31  1  0
  1 32  1  0
  4 33  1  0
  6 34  1  0
  9 35  1  0
  9 36  1  0
 10 37  1  0
 10 38  1  0
 13 39  1  0
 14 40  1  0
 17 41  1  0
 18 42  1  0
 19 43  1  0
 19 44  1  0
 20 45  1  0
 20 46  1  0
 21 47  1  0
 24 48  1  0
 24 49  1  0
 24 50  1  0
 28 51  1  0
 28 52  1  0
 28 53  1  0
M  END
$$$$
