
     RDKit          3D

 38 40  0  0  0  0  0  0  0  0999 V2000
   -7.2771   -0.5173    1.0610 C   0  0  0  0  0  0  0  0  0  0  0  0
   -6.7261    0.1438   -0.0712 O   0  0  0  0  0  0  0  0  0  0  0  0
   -5.3636    0.2333   -0.1286 C   0  0  0  0  0  0  0  0  0  0  0  0
   -4.8657    0.8904   -1.2516 C   0  0  0  0  0  0  0  0  0  0  0  0
   -3.4871    1.0496   -1.4315 C   0  0  0  0  0  0  0  0  0  0  0  0
   -2.5666    0.5539   -0.4946 C   0  0  0  0  0  0  0  0  0  0  0  0
   -1.1951    0.7563   -0.7338 N   0  0  0  0  0  0  0  0  0  0  0  0
   -0.1277    0.4288    0.0327 C   0  0  0  0  0  0  0  0  0  0  0  0
   -0.1273   -0.1207    1.2264 N   0  0  0  0  0  0  0  0  0  0  0  0
    1.1508   -0.2905    1.6739 C   0  0  0  0  0  0  0  0  0  0  0  0
    1.3154   -0.8297    2.8914 N   0  0  0  0  0  0  0  0  0  0  0  0
    2.1612    0.1038    0.8273 C   0  0  0  0  0  0  0  0  0  0  0  0
    3.5887    0.0753    1.0624 C   0  0  0  0  0  0  0  0  0  0  0  0
    4.0833    0.1473    2.1887 O   0  0  0  0  0  0  0  0  0  0  0  0
    4.5418   -0.0556   -0.0725 C   0  0  0  0  0  0  0  0  0  0  0  0
    4.3340   -0.9932   -1.0953 C   0  0  0  0  0  0  0  0  0  0  0  0
    5.2609   -1.1023   -2.1343 C   0  0  0  0  0  0  0  0  0  0  0  0
    6.3902   -0.2892   -2.1378 C   0  0  0  0  0  0  0  0  0  0  0  0
    7.2764   -0.3983   -3.1356 F   0  0  0  0  0  0  0  0  0  0  0  0
    6.6180    0.6282   -1.1173 C   0  0  0  0  0  0  0  0  0  0  0  0
    5.6956    0.7421   -0.0759 C   0  0  0  0  0  0  0  0  0  0  0  0
    1.4555    0.7686   -0.5852 S   0  0  0  0  0  0  0  0  0  0  0  0
   -3.0835   -0.0999    0.6283 C   0  0  0  0  0  0  0  0  0  0  0  0
   -4.4656   -0.2619    0.8123 C   0  0  0  0  0  0  0  0  0  0  0  0
   -7.0236    0.0085    1.9875 H   0  0  0  0  0  0  0  0  0  0  0  0
   -8.3665   -0.5038    0.9584 H   0  0  0  0  0  0  0  0  0  0  0  0
   -6.9595   -1.5645    1.1001 H   0  0  0  0  0  0  0  0  0  0  0  0
   -5.5549    1.2844   -1.9943 H   0  0  0  0  0  0  0  0  0  0  0  0
   -3.1431    1.5720   -2.3205 H   0  0  0  0  0  0  0  0  0  0  0  0
   -0.9930    1.1980   -1.6211 H   0  0  0  0  0  0  0  0  0  0  0  0
    0.5082   -0.8217    3.5063 H   0  0  0  0  0  0  0  0  0  0  0  0
    2.1927   -0.6655    3.3846 H   0  0  0  0  0  0  0  0  0  0  0  0
    3.4690   -1.6524   -1.0857 H   0  0  0  0  0  0  0  0  0  0  0  0
    5.1159   -1.8210   -2.9353 H   0  0  0  0  0  0  0  0  0  0  0  0
    7.5134    1.2420   -1.1358 H   0  0  0  0  0  0  0  0  0  0  0  0
    5.8771    1.4489    0.7316 H   0  0  0  0  0  0  0  0  0  0  0  0
   -2.4250   -0.5066    1.3902 H   0  0  0  0  0  0  0  0  0  0  0  0
   -4.7973   -0.7812    1.7051 H   0  0  0  0  0  0  0  0  0  0  0  0
  1  2  1  0
  2  3  1  0
  3  4  2  0
  4  5  1  0
  5  6  2  0
  6  7  1  0
  7  8  1  0
  8  9  2  0
  9 10  1  0
 10 11  1  0
 10 12  2  0
 12 13  1  0
 13 14  2  0
 13 15  1  0
 15 16  2  0
 16 17  1  0
 17 18  2  0
 18 19  1  0
 18 20  1  0
 20 21  2  0
 12 22  1  0
  6 23  1  0
 23 24  2  0
 24  3  1  0
 22  8  1  0
 21 15  1  0
  1 25  1  0
  1 26  1  0
  1 27  1  0
  4 28  1  0
  5 29  1  0
  7 30  1  0
 11 31  1  0
 11 32  1  0
 16 33  1  0
 17 34  1  0
 20 35  1  0
 21 36  1  0
 23 37  1  0
 24 38  1  0
M  END
$$$$
