
     RDKit          3D

 36 38  0  0  0  0  0  0  0  0999 V2000
   -4.4023    2.3265   -0.0759 C   0  0  0  0  0  0  0  0  0  0  0  0
   -3.4189    1.2666   -0.0149 N   0  0  0  0  0  0  0  0  0  0  0  0
   -2.0615    1.4562   -0.0658 C   0  0  0  0  0  0  0  0  0  0  0  0
   -1.4535    0.2221    0.0201 C   0  0  0  0  0  0  0  0  0  0  0  0
   -0.0452   -0.0329    0.0096 C   0  0  0  0  0  0  0  0  0  0  0  0
    0.9240    0.8819   -0.1668 C   0  0  0  0  0  0  0  0  0  0  0  0
    2.3542    0.5556   -0.1726 C   0  0  0  0  0  0  0  0  0  0  0  0
    3.1847    1.1487   -1.1214 C   0  0  0  0  0  0  0  0  0  0  0  0
    4.5453    0.8619   -1.1230 C   0  0  0  0  0  0  0  0  0  0  0  0
    5.0722    0.0186   -0.2074 N   0  0  0  0  0  4  0  0  0  0  0  0
    6.5178   -0.2629   -0.2224 C   0  0  0  0  0  0  0  0  0  0  0  0
    4.2909   -0.5484    0.7386 C   0  0  0  0  0  0  0  0  0  0  0  0
    2.9249   -0.2920    0.7759 C   0  0  0  0  0  0  0  0  0  0  0  0
   -2.4906   -0.7582    0.1291 C   0  0  0  0  0  0  0  0  0  0  0  0
   -2.5088   -2.1659    0.2457 C   0  0  0  0  0  0  0  0  0  0  0  0
   -3.7342   -2.8323    0.3341 C   0  0  0  0  0  0  0  0  0  0  0  0
   -3.7491   -4.5488    0.4772 Cl  0  0  0  0  0  0  0  0  0  0  0  0
   -4.9357   -2.1340    0.3087 C   0  0  0  0  0  0  0  0  0  0  0  0
   -4.9462   -0.7412    0.1930 C   0  0  0  0  0  0  0  0  0  0  0  0
   -3.7122   -0.0756    0.1046 C   0  0  0  0  0  0  0  0  0  0  0  0
   -5.0394    2.1565   -0.9475 H   0  0  0  0  0  0  0  0  0  0  0  0
   -3.8963    3.2907   -0.1701 H   0  0  0  0  0  0  0  0  0  0  0  0
   -4.9900    2.3057    0.8454 H   0  0  0  0  0  0  0  0  0  0  0  0
   -1.6526    2.4537   -0.1553 H   0  0  0  0  0  0  0  0  0  0  0  0
    0.2393   -1.0741    0.1450 H   0  0  0  0  0  0  0  0  0  0  0  0
    0.6724    1.9256   -0.3403 H   0  0  0  0  0  0  0  0  0  0  0  0
    2.7781    1.8275   -1.8694 H   0  0  0  0  0  0  0  0  0  0  0  0
    5.2199    1.3037   -1.8511 H   0  0  0  0  0  0  0  0  0  0  0  0
    7.0027    0.4817    0.4137 H   0  0  0  0  0  0  0  0  0  0  0  0
    6.6899   -1.2729    0.1585 H   0  0  0  0  0  0  0  0  0  0  0  0
    6.8852   -0.1968   -1.2497 H   0  0  0  0  0  0  0  0  0  0  0  0
    4.7681   -1.2012    1.4643 H   0  0  0  0  0  0  0  0  0  0  0  0
    2.3170   -0.7484    1.5552 H   0  0  0  0  0  0  0  0  0  0  0  0
   -1.5823   -2.7295    0.2655 H   0  0  0  0  0  0  0  0  0  0  0  0
   -5.8803   -2.6686    0.3785 H   0  0  0  0  0  0  0  0  0  0  0  0
   -5.8873   -0.1998    0.1731 H   0  0  0  0  0  0  0  0  0  0  0  0
  1  2  1  0
  2  3  1  0
  3  4  2  0
  4  5  1  0
  5  6  2  3
  6  7  1  0
  7  8  2  0
  8  9  1  0
  9 10  2  0
 10 11  1  0
 10 12  1  0
 12 13  2  0
  4 14  1  0
 14 15  2  0
 15 16  1  0
 16 17  1  0
 16 18  2  0
 18 19  1  0
 19 20  2  0
 20  2  1  0
 13  7  1  0
 20 14  1  0
  1 21  1  0
  1 22  1  0
  1 23  1  0
  3 24  1  0
  5 25  1  0
  6 26  1  0
  8 27  1  0
  9 28  1  0
 11 29  1  0
 11 30  1  0
 11 31  1  0
 12 32  1  0
 13 33  1  0
 15 34  1  0
 18 35  1  0
 19 36  1  0
M  CHG  1  10   1
M  END
$$$$
