
     RDKit          3D

 38 39  0  0  0  0  0  0  0  0999 V2000
   -4.0529   -1.5487    2.5548 O   0  0  0  0  0  0  0  0  0  0  0  0
   -3.1633   -1.5745    1.7091 C   0  0  0  0  0  0  0  0  0  0  0  0
   -1.9489   -2.4957    1.8680 C   0  0  0  0  0  0  0  0  0  0  0  0
   -0.8052   -2.1044    1.1038 O   0  0  0  0  0  0  0  0  0  0  0  0
   -0.0819   -1.1002    1.6614 C   0  0  0  0  0  0  0  0  0  0  0  0
   -0.3386   -0.5141    2.6977 O   0  0  0  0  0  0  0  0  0  0  0  0
    1.0702   -0.8233    0.7811 C   0  0  0  0  0  0  0  0  0  0  0  0
    1.9207    0.1668    1.0914 C   0  0  0  0  0  0  0  0  0  0  0  0
    3.0847    0.5355    0.2753 C   0  0  0  0  0  0  0  0  0  0  0  0
    3.4423    1.8859    0.1836 C   0  0  0  0  0  0  0  0  0  0  0  0
    4.5532    2.2801   -0.5643 C   0  0  0  0  0  0  0  0  0  0  0  0
    5.3292    1.3249   -1.2188 C   0  0  0  0  0  0  0  0  0  0  0  0
    5.0084   -0.0363   -1.1211 C   0  0  0  0  0  0  0  0  0  0  0  0
    5.8365   -1.0762   -1.8341 C   0  0  0  0  0  0  0  0  0  0  0  0
    5.3248   -1.3943   -3.0550 F   0  0  0  0  0  0  0  0  0  0  0  0
    5.9205   -2.2503   -1.1478 F   0  0  0  0  0  0  0  0  0  0  0  0
    7.1216   -0.6835   -2.0565 F   0  0  0  0  0  0  0  0  0  0  0  0
    3.8808   -0.4194   -0.3723 C   0  0  0  0  0  0  0  0  0  0  0  0
   -3.1537   -0.8797    0.5215 N   0  0  0  0  0  0  0  0  0  0  0  0
   -4.0805    0.0425    0.0443 C   0  0  0  0  0  0  0  0  0  0  0  0
   -5.2167    0.4415    0.7374 C   0  0  0  0  0  0  0  0  0  0  0  0
   -6.0719    1.3794    0.1535 C   0  0  0  0  0  0  0  0  0  0  0  0
   -5.7663    1.8884   -1.0999 C   0  0  0  0  0  0  0  0  0  0  0  0
   -6.7873    3.0412   -1.8541 Cl  0  0  0  0  0  0  0  0  0  0  0  0
   -4.6142    1.4386   -1.7213 C   0  0  0  0  0  0  0  0  0  0  0  0
   -3.7668    0.5290   -1.1772 N   0  0  0  0  0  0  0  0  0  0  0  0
   -1.6932   -2.5823    2.9308 H   0  0  0  0  0  0  0  0  0  0  0  0
   -2.2467   -3.4903    1.5190 H   0  0  0  0  0  0  0  0  0  0  0  0
    1.1752   -1.4339   -0.1067 H   0  0  0  0  0  0  0  0  0  0  0  0
    1.7555    0.7720    1.9825 H   0  0  0  0  0  0  0  0  0  0  0  0
    2.8510    2.6486    0.6873 H   0  0  0  0  0  0  0  0  0  0  0  0
    4.8124    3.3340   -0.6351 H   0  0  0  0  0  0  0  0  0  0  0  0
    6.1920    1.6462   -1.8009 H   0  0  0  0  0  0  0  0  0  0  0  0
    3.6411   -1.4788   -0.2895 H   0  0  0  0  0  0  0  0  0  0  0  0
   -2.3825   -1.0259   -0.1170 H   0  0  0  0  0  0  0  0  0  0  0  0
   -5.4606    0.0524    1.7191 H   0  0  0  0  0  0  0  0  0  0  0  0
   -6.9634    1.7013    0.6841 H   0  0  0  0  0  0  0  0  0  0  0  0
   -4.3253    1.8034   -2.7028 H   0  0  0  0  0  0  0  0  0  0  0  0
  1  2  2  0
  2  3  1  0
  3  4  1  0
  4  5  1  0
  5  6  2  0
  5  7  1  0
  7  8  2  3
  8  9  1  0
  9 10  2  0
 10 11  1  0
 11 12  2  0
 12 13  1  0
 13 14  1  0
 14 15  1  0
 14 16  1  0
 14 17  1  0
 13 18  2  0
  2 19  1  0
 19 20  1  0
 20 21  2  0
 21 22  1  0
 22 23  2  0
 23 24  1  0
 23 25  1  0
 25 26  2  0
 18  9  1  0
 26 20  1  0
  3 27  1  0
  3 28  1  0
  7 29  1  0
  8 30  1  0
 10 31  1  0
 11 32  1  0
 12 33  1  0
 18 34  1  0
 19 35  1  0
 21 36  1  0
 22 37  1  0
 25 38  1  0
M  END
$$$$
