
     RDKit          3D

 37 39  0  0  0  0  0  0  0  0999 V2000
    4.1393   -2.2158    1.0609 C   0  0  0  0  0  0  0  0  0  0  0  0
    2.9944   -1.3246    0.6817 C   0  0  0  0  0  0  0  0  0  0  0  0
    1.9879   -1.7841   -0.1686 C   0  0  0  0  0  0  0  0  0  0  0  0
    0.9311   -0.9446   -0.5376 C   0  0  0  0  0  0  0  0  0  0  0  0
    0.8454    0.3669   -0.0578 C   0  0  0  0  0  0  0  0  0  0  0  0
    1.9104    0.8571    0.7199 C   0  0  0  0  0  0  0  0  0  0  0  0
    2.9594    0.0061    1.1063 C   0  0  0  0  0  0  0  0  0  0  0  0
    1.9288    2.2985    1.1487 C   0  0  0  0  0  0  0  0  0  0  0  0
    1.3740    3.1338    0.0100 C   0  0  0  0  0  0  0  0  0  0  0  0
   -0.0402    2.6797   -0.3152 C   0  0  0  0  0  0  0  0  0  0  0  0
   -0.2382    1.2311   -0.4018 N   0  0  0  0  0  0  0  0  0  0  0  0
   -1.5458    0.8422   -0.7201 C   0  0  0  0  0  0  0  0  0  0  0  0
   -2.3038    1.6055   -1.3351 O   0  0  0  0  0  0  0  0  0  0  0  0
   -2.0960   -0.4900   -0.1635 C   0  0  0  0  0  0  0  0  0  0  0  0
   -2.5942   -1.4017   -1.2836 C   0  0  0  0  0  0  0  0  0  0  0  0
   -3.9712   -1.8216   -0.8296 C   0  0  0  0  0  0  0  0  0  0  0  0
   -4.4177   -0.6297   -0.0228 C   0  0  0  0  0  0  0  0  0  0  0  0
   -3.2448   -0.1965    0.6706 O   0  0  0  0  0  0  0  0  0  0  0  0
    4.5256   -1.9544    2.0517 H   0  0  0  0  0  0  0  0  0  0  0  0
    3.8218   -3.2631    1.1025 H   0  0  0  0  0  0  0  0  0  0  0  0
    4.9471   -2.1198    0.3289 H   0  0  0  0  0  0  0  0  0  0  0  0
    2.0221   -2.7984   -0.5607 H   0  0  0  0  0  0  0  0  0  0  0  0
    0.2089   -1.3323   -1.2469 H   0  0  0  0  0  0  0  0  0  0  0  0
    3.7634    0.3919    1.7307 H   0  0  0  0  0  0  0  0  0  0  0  0
    1.3312    2.4181    2.0597 H   0  0  0  0  0  0  0  0  0  0  0  0
    2.9512    2.6262    1.3690 H   0  0  0  0  0  0  0  0  0  0  0  0
    2.0083    3.0236   -0.8795 H   0  0  0  0  0  0  0  0  0  0  0  0
    1.3751    4.1966    0.2757 H   0  0  0  0  0  0  0  0  0  0  0  0
   -0.3531    3.1342   -1.2635 H   0  0  0  0  0  0  0  0  0  0  0  0
   -0.7304    3.0511    0.4542 H   0  0  0  0  0  0  0  0  0  0  0  0
   -1.3915   -0.9956    0.4967 H   0  0  0  0  0  0  0  0  0  0  0  0
   -1.9379   -2.2637   -1.4377 H   0  0  0  0  0  0  0  0  0  0  0  0
   -2.6536   -0.8728   -2.2420 H   0  0  0  0  0  0  0  0  0  0  0  0
   -4.6482   -2.0627   -1.6531 H   0  0  0  0  0  0  0  0  0  0  0  0
   -3.8881   -2.7017   -0.1810 H   0  0  0  0  0  0  0  0  0  0  0  0
   -4.7676    0.1868   -0.6638 H   0  0  0  0  0  0  0  0  0  0  0  0
   -5.2030   -0.8760    0.6968 H   0  0  0  0  0  0  0  0  0  0  0  0
  1  2  1  0
  2  3  2  0
  3  4  1  0
  4  5  2  0
  5  6  1  0
  6  7  2  0
  6  8  1  0
  8  9  1  0
  9 10  1  0
 10 11  1  0
 11 12  1  0
 12 13  2  0
 12 14  1  0
 14 15  1  0
 15 16  1  0
 16 17  1  0
 17 18  1  0
  7  2  1  0
 18 14  1  0
 11  5  1  0
  1 19  1  0
  1 20  1  0
  1 21  1  0
  3 22  1  0
  4 23  1  0
  7 24  1  0
  8 25  1  0
  8 26  1  0
  9 27  1  0
  9 28  1  0
 10 29  1  0
 10 30  1  0
 14 31  1  0
 15 32  1  0
 15 33  1  0
 16 34  1  0
 16 35  1  0
 17 36  1  0
 17 37  1  0
M  END
$$$$
