
     RDKit          3D

 41 43  0  0  0  0  0  0  0  0999 V2000
   -6.8903   -1.6544   -0.5491 C   0  0  0  0  0  0  0  0  0  0  0  0
   -5.4677   -1.4741   -0.0504 C   0  0  0  0  0  0  0  0  0  0  0  0
   -5.0218   -0.1798   -0.4517 O   0  0  0  0  0  0  0  0  0  0  0  0
   -3.7531    0.1802   -0.0930 C   0  0  0  0  0  0  0  0  0  0  0  0
   -3.3677    1.4544   -0.5112 C   0  0  0  0  0  0  0  0  0  0  0  0
   -2.0944    1.9510   -0.2143 C   0  0  0  0  0  0  0  0  0  0  0  0
   -1.1820    1.1802    0.5187 C   0  0  0  0  0  0  0  0  0  0  0  0
    0.1388    1.6858    0.8079 N   0  0  0  0  0  0  0  0  0  0  0  0
    1.2218    0.8600    0.4454 C   0  0  0  0  0  0  0  0  0  0  0  0
    1.0977   -0.3081    0.0814 O   0  0  0  0  0  0  0  0  0  0  0  0
    2.5759    1.4790    0.5352 C   0  0  0  0  0  0  0  0  0  0  0  0
    3.7210    0.9845    0.0223 C   0  0  0  0  0  0  0  0  0  0  0  0
    3.8887   -0.1749   -0.7830 C   0  0  0  0  0  0  0  0  0  0  0  0
    3.1531   -0.6819   -1.8486 C   0  0  0  0  0  0  0  0  0  0  0  0
    3.8044   -1.8457   -2.3227 C   0  0  0  0  0  0  0  0  0  0  0  0
    4.9276   -1.9899   -1.5473 C   0  0  0  0  0  0  0  0  0  0  0  0
    6.0259   -2.9744   -1.5162 C   0  0  0  0  0  0  0  0  0  0  0  0
    4.9953   -0.9852   -0.6361 O   0  0  0  0  0  0  0  0  0  0  0  0
    2.7399    2.7554    1.2607 C   0  0  0  0  0  0  0  0  0  0  0  0
    3.8176    3.2987    1.4763 O   0  0  0  0  0  0  0  0  0  0  0  0
    1.5811    3.3317    1.6821 N   0  0  0  0  0  0  0  0  0  0  0  0
    0.2953    2.8977    1.4937 C   0  0  0  0  0  0  0  0  0  0  0  0
   -0.8839    3.8765    2.1895 S   0  0  0  0  0  0  0  0  0  0  0  0
   -1.5725   -0.1039    0.9241 C   0  0  0  0  0  0  0  0  0  0  0  0
   -2.8488   -0.5991    0.6249 C   0  0  0  0  0  0  0  0  0  0  0  0
   -7.5450   -0.8803   -0.1352 H   0  0  0  0  0  0  0  0  0  0  0  0
   -7.2811   -2.6359   -0.2664 H   0  0  0  0  0  0  0  0  0  0  0  0
   -6.9318   -1.5577   -1.6391 H   0  0  0  0  0  0  0  0  0  0  0  0
   -5.4586   -1.5579    1.0425 H   0  0  0  0  0  0  0  0  0  0  0  0
   -4.8324   -2.2497   -0.4935 H   0  0  0  0  0  0  0  0  0  0  0  0
   -4.0642    2.0663   -1.0799 H   0  0  0  0  0  0  0  0  0  0  0  0
   -1.8268    2.9363   -0.5873 H   0  0  0  0  0  0  0  0  0  0  0  0
    4.6617    1.4958    0.2248 H   0  0  0  0  0  0  0  0  0  0  0  0
    2.2367   -0.2615   -2.2394 H   0  0  0  0  0  0  0  0  0  0  0  0
    3.4926   -2.4918   -3.1309 H   0  0  0  0  0  0  0  0  0  0  0  0
    5.8848   -3.7449   -2.2804 H   0  0  0  0  0  0  0  0  0  0  0  0
    6.9861   -2.4829   -1.7009 H   0  0  0  0  0  0  0  0  0  0  0  0
    6.0713   -3.4669   -0.5400 H   0  0  0  0  0  0  0  0  0  0  0  0
    1.6963    4.2036    2.1852 H   0  0  0  0  0  0  0  0  0  0  0  0
   -0.8939   -0.7380    1.4911 H   0  0  0  0  0  0  0  0  0  0  0  0
   -3.0978   -1.5982    0.9670 H   0  0  0  0  0  0  0  0  0  0  0  0
  1  2  1  0
  2  3  1  0
  3  4  1  0
  4  5  2  0
  5  6  1  0
  6  7  2  0
  7  8  1  0
  8  9  1  0
  9 10  2  0
  9 11  1  0
 11 12  2  3
 12 13  1  0
 13 14  2  0
 14 15  1  0
 15 16  2  0
 16 17  1  0
 16 18  1  0
 11 19  1  0
 19 20  2  0
 19 21  1  0
 21 22  1  0
 22 23  2  0
  7 24  1  0
 24 25  2  0
 25  4  1  0
 22  8  1  0
 18 13  1  0
  1 26  1  0
  1 27  1  0
  1 28  1  0
  2 29  1  0
  2 30  1  0
  5 31  1  0
  6 32  1  0
 12 33  1  0
 14 34  1  0
 15 35  1  0
 17 36  1  0
 17 37  1  0
 17 38  1  0
 21 39  1  0
 24 40  1  0
 25 41  1  0
M  END
$$$$
