
     RDKit          3D

 58 62  0  0  0  0  0  0  0  0999 V2000
   -4.4171    3.1155    0.1681 C   0  0  0  0  0  0  0  0  0  0  0  0
   -5.0658    1.8438    0.1699 O   0  0  0  0  0  0  0  0  0  0  0  0
   -4.7675    1.0945   -0.9378 C   0  0  0  0  0  0  0  0  0  0  0  0
   -4.9793    1.5960   -2.2271 C   0  0  0  0  0  0  0  0  0  0  0  0
   -4.7276    0.7955   -3.3413 C   0  0  0  0  0  0  0  0  0  0  0  0
   -4.2765   -0.5101   -3.1701 C   0  0  0  0  0  0  0  0  0  0  0  0
   -4.0795   -1.0169   -1.8847 C   0  0  0  0  0  0  0  0  0  0  0  0
   -4.3244   -0.2235   -0.7491 C   0  0  0  0  0  0  0  0  0  0  0  0
   -4.0939   -0.7983    0.6328 C   0  0  0  0  0  0  0  0  0  0  0  0
   -2.6752   -0.9831    0.9418 N   0  0  0  0  0  0  0  0  0  0  0  0
   -2.0777   -2.2172    0.7186 C   0  0  0  0  0  0  0  0  0  0  0  0
   -2.6878   -3.1999    0.3009 O   0  0  0  0  0  0  0  0  0  0  0  0
   -0.6237   -2.3586    1.0205 C   0  0  0  0  0  0  0  0  0  0  0  0
   -0.0196   -3.6107    0.8261 C   0  0  0  0  0  0  0  0  0  0  0  0
    1.3294   -3.7941    1.1198 C   0  0  0  0  0  0  0  0  0  0  0  0
    2.0768   -2.7312    1.6163 C   0  0  0  0  0  0  0  0  0  0  0  0
    1.4861   -1.4779    1.8106 C   0  0  0  0  0  0  0  0  0  0  0  0
    0.1360   -1.2810    1.5008 C   0  0  0  0  0  0  0  0  0  0  0  0
   -0.5415   -0.0524    1.6584 N   0  0  0  0  0  0  0  0  0  0  0  0
   -0.1649    1.2238    2.0305 C   0  0  0  0  0  0  0  0  0  0  0  0
    1.4392    1.8256    2.2838 S   0  0  0  0  0  0  0  0  0  0  0  0
    1.7217    2.5821    0.6529 C   0  0  0  0  0  0  0  0  0  0  0  0
    1.9074    1.4915   -0.3931 C   0  0  0  0  0  0  0  0  0  0  0  0
    0.9328    1.1178   -1.0533 O   0  0  0  0  0  0  0  0  0  0  0  0
    3.1631    0.8977   -0.5401 N   0  0  0  0  0  0  0  0  0  0  0  0
    3.3289   -0.0176   -1.6722 C   0  0  0  0  0  0  0  0  0  0  0  0
    4.3868   -1.0855   -1.4181 C   0  0  0  0  0  0  0  0  0  0  0  0
    5.6985   -0.4677   -0.9535 C   0  0  0  0  0  0  0  0  0  0  0  0
    5.4588    0.3995    0.2753 C   0  0  0  0  0  0  0  0  0  0  0  0
    4.3961    1.4625    0.0131 C   0  0  0  0  0  0  0  0  0  0  0  0
   -1.2169    2.0087    2.0946 N   0  0  0  0  0  0  0  0  0  0  0  0
   -2.3065    1.2765    1.7147 N   0  0  0  0  0  0  0  0  0  0  0  0
   -1.8995    0.0627    1.4152 C   0  0  0  0  0  0  0  0  0  0  0  0
   -5.0097    3.8410   -0.3978 H   0  0  0  0  0  0  0  0  0  0  0  0
   -4.3591    3.4637    1.2042 H   0  0  0  0  0  0  0  0  0  0  0  0
   -3.3967    3.0612   -0.2290 H   0  0  0  0  0  0  0  0  0  0  0  0
   -5.3624    2.6012   -2.3739 H   0  0  0  0  0  0  0  0  0  0  0  0
   -4.8942    1.1870   -4.3412 H   0  0  0  0  0  0  0  0  0  0  0  0
   -4.0861   -1.1404   -4.0357 H   0  0  0  0  0  0  0  0  0  0  0  0
   -3.7383   -2.0443   -1.7715 H   0  0  0  0  0  0  0  0  0  0  0  0
   -4.6128   -1.7637    0.6937 H   0  0  0  0  0  0  0  0  0  0  0  0
   -4.5442   -0.1793    1.4178 H   0  0  0  0  0  0  0  0  0  0  0  0
   -0.6016   -4.4497    0.4481 H   0  0  0  0  0  0  0  0  0  0  0  0
    1.7922   -4.7666    0.9688 H   0  0  0  0  0  0  0  0  0  0  0  0
    3.1285   -2.8765    1.8562 H   0  0  0  0  0  0  0  0  0  0  0  0
    2.1232   -0.7030    2.2159 H   0  0  0  0  0  0  0  0  0  0  0  0
    2.5782    3.2581    0.6833 H   0  0  0  0  0  0  0  0  0  0  0  0
    0.8617    3.1993    0.3689 H   0  0  0  0  0  0  0  0  0  0  0  0
    2.3798   -0.5093   -1.9120 H   0  0  0  0  0  0  0  0  0  0  0  0
    3.6061    0.5929   -2.5406 H   0  0  0  0  0  0  0  0  0  0  0  0
    4.5511   -1.6698   -2.3299 H   0  0  0  0  0  0  0  0  0  0  0  0
    4.0250   -1.7804   -0.6517 H   0  0  0  0  0  0  0  0  0  0  0  0
    6.4203   -1.2575   -0.7178 H   0  0  0  0  0  0  0  0  0  0  0  0
    6.1309    0.1384   -1.7586 H   0  0  0  0  0  0  0  0  0  0  0  0
    6.3945    0.8788    0.5832 H   0  0  0  0  0  0  0  0  0  0  0  0
    5.1340   -0.2384    1.1072 H   0  0  0  0  0  0  0  0  0  0  0  0
    4.2002    1.9842    0.9515 H   0  0  0  0  0  0  0  0  0  0  0  0
    4.7627    2.2048   -0.7059 H   0  0  0  0  0  0  0  0  0  0  0  0
  1  2  1  0
  2  3  1  0
  3  4  2  0
  4  5  1  0
  5  6  2  0
  6  7  1  0
  7  8  2  0
  8  9  1  0
  9 10  1  0
 10 11  1  0
 11 12  2  0
 11 13  1  0
 13 14  2  0
 14 15  1  0
 15 16  2  0
 16 17  1  0
 17 18  2  0
 18 19  1  0
 19 20  1  0
 20 21  1  0
 21 22  1  0
 22 23  1  0
 23 24  2  0
 23 25  1  0
 25 26  1  0
 26 27  1  0
 27 28  1  0
 28 29  1  0
 29 30  1  0
 20 31  2  0
 31 32  1  0
 32 33  2  0
  8  3  1  0
 33 10  1  0
 18 13  1  0
 33 19  1  0
 30 25  1  0
  1 34  1  0
  1 35  1  0
  1 36  1  0
  4 37  1  0
  5 38  1  0
  6 39  1  0
  7 40  1  0
  9 41  1  0
  9 42  1  0
 14 43  1  0
 15 44  1  0
 16 45  1  0
 17 46  1  0
 22 47  1  0
 22 48  1  0
 26 49  1  0
 26 50  1  0
 27 51  1  0
 27 52  1  0
 28 53  1  0
 28 54  1  0
 29 55  1  0
 29 56  1  0
 30 57  1  0
 30 58  1  0
M  END
$$$$
