
     RDKit          3D

 44 46  0  0  0  0  0  0  0  0999 V2000
    4.6216    1.3598   -1.4284 C   0  0  0  0  0  0  0  0  0  0  0  0
    3.3705    1.2695   -0.6810 N   0  0  0  0  0  0  0  0  0  0  0  0
    3.0014   -0.1448   -0.4521 C   0  0  0  0  0  0  0  0  0  0  0  0
    1.4942   -0.3598   -0.2229 C   0  0  0  0  0  0  0  0  0  0  0  0
    0.7094    0.1008   -1.3751 N   0  0  0  0  0  0  0  0  0  0  0  0
   -0.4870   -0.4523   -1.8043 C   0  0  0  0  0  0  0  0  0  0  0  0
   -1.0667   -0.1100   -2.8329 O   0  0  0  0  0  0  0  0  0  0  0  0
   -1.0987   -1.5350   -1.0065 C   0  0  0  0  0  0  0  0  0  0  0  0
   -0.9421   -2.8399   -1.4982 C   0  0  0  0  0  0  0  0  0  0  0  0
   -1.5231   -3.9111   -0.8249 C   0  0  0  0  0  0  0  0  0  0  0  0
   -2.2729   -3.6785    0.3249 C   0  0  0  0  0  0  0  0  0  0  0  0
   -2.4449   -2.3747    0.8023 C   0  0  0  0  0  0  0  0  0  0  0  0
   -1.8578   -1.2715    0.1522 C   0  0  0  0  0  0  0  0  0  0  0  0
   -2.0979    0.0921    0.6682 C   0  0  0  0  0  0  0  0  0  0  0  0
   -2.8375    0.9933   -0.1265 C   0  0  0  0  0  0  0  0  0  0  0  0
   -3.1321    2.2863    0.3116 C   0  0  0  0  0  0  0  0  0  0  0  0
   -2.7014    2.7110    1.5622 C   0  0  0  0  0  0  0  0  0  0  0  0
   -1.9733    1.8425    2.3732 C   0  0  0  0  0  0  0  0  0  0  0  0
   -1.6693    0.5383    1.9387 C   0  0  0  0  0  0  0  0  0  0  0  0
   -0.8537   -0.3252    2.8341 C   0  0  0  0  0  0  0  0  0  0  0  0
   -0.0440   -1.1730    2.5125 O   0  0  0  0  0  0  0  0  0  0  0  0
   -1.1165   -0.0812    4.1327 O   0  0  0  0  0  0  0  0  0  0  0  0
    1.2903    1.1955   -2.1509 C   0  0  0  0  0  0  0  0  0  0  0  0
    2.2846    2.0347   -1.3291 C   0  0  0  0  0  0  0  0  0  0  0  0
    4.5255    0.9608   -2.4446 H   0  0  0  0  0  0  0  0  0  0  0  0
    5.4183    0.8106   -0.9142 H   0  0  0  0  0  0  0  0  0  0  0  0
    4.9536    2.4016   -1.4971 H   0  0  0  0  0  0  0  0  0  0  0  0
    3.5561   -0.5159    0.4172 H   0  0  0  0  0  0  0  0  0  0  0  0
    3.2960   -0.7598   -1.3138 H   0  0  0  0  0  0  0  0  0  0  0  0
    1.2983   -1.4167   -0.0236 H   0  0  0  0  0  0  0  0  0  0  0  0
    1.1661    0.2224    0.6440 H   0  0  0  0  0  0  0  0  0  0  0  0
   -0.3738   -3.0137   -2.4088 H   0  0  0  0  0  0  0  0  0  0  0  0
   -1.4004   -4.9233   -1.2014 H   0  0  0  0  0  0  0  0  0  0  0  0
   -2.7348   -4.5114    0.8496 H   0  0  0  0  0  0  0  0  0  0  0  0
   -3.0538   -2.2235    1.6922 H   0  0  0  0  0  0  0  0  0  0  0  0
   -3.1942    0.6858   -1.1105 H   0  0  0  0  0  0  0  0  0  0  0  0
   -3.6993    2.9573   -0.3293 H   0  0  0  0  0  0  0  0  0  0  0  0
   -2.9284    3.7172    1.9052 H   0  0  0  0  0  0  0  0  0  0  0  0
   -1.6341    2.1921    3.3462 H   0  0  0  0  0  0  0  0  0  0  0  0
   -0.5361   -0.7097    4.6111 H   0  0  0  0  0  0  0  0  0  0  0  0
    1.7950    0.7484   -3.0159 H   0  0  0  0  0  0  0  0  0  0  0  0
    0.4877    1.8367   -2.5325 H   0  0  0  0  0  0  0  0  0  0  0  0
    1.7230    2.5260   -0.5235 H   0  0  0  0  0  0  0  0  0  0  0  0
    2.6822    2.8484   -1.9480 H   0  0  0  0  0  0  0  0  0  0  0  0
  1  2  1  0
  2  3  1  0
  3  4  1  0
  4  5  1  0
  5  6  1  0
  6  7  2  0
  6  8  1  0
  8  9  2  0
  9 10  1  0
 10 11  2  0
 11 12  1  0
 12 13  2  0
 13 14  1  0
 14 15  2  0
 15 16  1  0
 16 17  2  0
 17 18  1  0
 18 19  2  0
 19 20  1  0
 20 21  2  0
 20 22  1  0
  5 23  1  0
 23 24  1  0
 24  2  1  0
 13  8  1  0
 19 14  1  0
  1 25  1  0
  1 26  1  0
  1 27  1  0
  3 28  1  0
  3 29  1  0
  4 30  1  0
  4 31  1  0
  9 32  1  0
 10 33  1  0
 11 34  1  0
 12 35  1  0
 15 36  1  0
 16 37  1  0
 17 38  1  0
 18 39  1  0
 22 40  1  0
 23 41  1  0
 23 42  1  0
 24 43  1  0
 24 44  1  0
M  END
$$$$
