
     RDKit          3D

 62 64  0  0  0  0  0  0  0  0999 V2000
    7.9348    0.5730    0.0993 C   0  0  0  0  0  0  0  0  0  0  0  0
    7.0725   -0.5755   -0.3497 C   0  0  0  0  0  0  0  0  0  0  0  0
    7.7435   -1.6663   -0.9354 C   0  0  0  0  0  0  0  0  0  0  0  0
    7.0631   -2.8241   -1.2925 C   0  0  0  0  0  0  0  0  0  0  0  0
    5.6979   -2.9184   -1.0565 C   0  0  0  0  0  0  0  0  0  0  0  0
    4.9905   -1.8434   -0.4906 C   0  0  0  0  0  0  0  0  0  0  0  0
    3.5071   -2.0206   -0.2806 C   0  0  0  0  0  0  0  0  0  0  0  0
    5.6701   -0.6370   -0.1832 C   0  0  0  0  0  0  0  0  0  0  0  0
    4.9010    0.4357    0.3369 N   0  0  0  0  0  0  0  0  0  0  0  0
    5.0624    1.7768    0.0229 C   0  0  0  0  0  0  0  0  0  0  0  0
    5.8336    2.2435   -0.8112 O   0  0  0  0  0  0  0  0  0  0  0  0
    4.0895    2.6847    0.7847 C   0  0  0  0  0  0  0  0  0  0  0  0
    2.9433    3.0381    0.0094 O   0  0  0  0  0  0  0  0  0  0  0  0
    2.0489    2.0281   -0.1817 C   0  0  0  0  0  0  0  0  0  0  0  0
    2.1590    0.9162    0.3139 O   0  0  0  0  0  0  0  0  0  0  0  0
    0.9446    2.5022   -1.0942 C   0  0  0  0  0  0  0  0  0  0  0  0
    0.0693    1.3647   -1.6149 C   0  0  0  0  0  0  0  0  0  0  0  0
   -1.0348    0.9740   -0.6600 C   0  0  0  0  0  0  0  0  0  0  0  0
   -2.1953    1.7581   -0.5664 C   0  0  0  0  0  0  0  0  0  0  0  0
   -3.2183    1.4056    0.3139 C   0  0  0  0  0  0  0  0  0  0  0  0
   -3.0822    0.2611    1.1035 C   0  0  0  0  0  0  0  0  0  0  0  0
   -4.3938   -0.1740    2.2180 S   0  0  0  0  0  6  0  0  0  0  0  0
   -4.5890    0.9563    3.1008 O   0  0  0  0  0  0  0  0  0  0  0  0
   -4.1395   -1.5032    2.7363 O   0  0  0  0  0  0  0  0  0  0  0  0
   -5.7497   -0.2870    1.1824 N   0  0  0  0  0  0  0  0  0  0  0  0
   -5.7255   -1.3991    0.2061 C   0  0  0  0  0  0  0  0  0  0  0  0
   -6.7127   -1.0898   -0.9201 C   0  0  0  0  0  0  0  0  0  0  0  0
   -7.9943   -0.4144   -0.4292 C   0  0  0  0  0  0  0  0  0  0  0  0
   -8.2238   -0.6694    1.0537 C   0  0  0  0  0  0  0  0  0  0  0  0
   -7.0513   -0.1711    1.9013 C   0  0  0  0  0  0  0  0  0  0  0  0
   -1.9336   -0.5273    1.0281 C   0  0  0  0  0  0  0  0  0  0  0  0
   -0.9124   -0.1674    0.1465 C   0  0  0  0  0  0  0  0  0  0  0  0
    7.5160    1.0787    0.9754 H   0  0  0  0  0  0  0  0  0  0  0  0
    8.9259    0.2148    0.4068 H   0  0  0  0  0  0  0  0  0  0  0  0
    8.0836    1.2860   -0.7159 H   0  0  0  0  0  0  0  0  0  0  0  0
    8.8193   -1.6228   -1.0976 H   0  0  0  0  0  0  0  0  0  0  0  0
    7.6018   -3.6561   -1.7379 H   0  0  0  0  0  0  0  0  0  0  0  0
    5.1811   -3.8379   -1.3235 H   0  0  0  0  0  0  0  0  0  0  0  0
    3.1908   -3.0490   -0.4871 H   0  0  0  0  0  0  0  0  0  0  0  0
    2.9485   -1.3602   -0.9515 H   0  0  0  0  0  0  0  0  0  0  0  0
    3.2396   -1.8141    0.7614 H   0  0  0  0  0  0  0  0  0  0  0  0
    3.9432    0.2131    0.6039 H   0  0  0  0  0  0  0  0  0  0  0  0
    4.6241    3.6085    1.0328 H   0  0  0  0  0  0  0  0  0  0  0  0
    3.7886    2.2341    1.7393 H   0  0  0  0  0  0  0  0  0  0  0  0
    0.3562    3.2615   -0.5679 H   0  0  0  0  0  0  0  0  0  0  0  0
    1.4283    2.9740   -1.9582 H   0  0  0  0  0  0  0  0  0  0  0  0
    0.6758    0.4864   -1.8741 H   0  0  0  0  0  0  0  0  0  0  0  0
   -0.4035    1.6838   -2.5543 H   0  0  0  0  0  0  0  0  0  0  0  0
   -2.3093    2.6502   -1.1796 H   0  0  0  0  0  0  0  0  0  0  0  0
   -4.1131    2.0196    0.3833 H   0  0  0  0  0  0  0  0  0  0  0  0
   -5.9941   -2.3385    0.7056 H   0  0  0  0  0  0  0  0  0  0  0  0
   -4.7303   -1.5318   -0.2295 H   0  0  0  0  0  0  0  0  0  0  0  0
   -6.2366   -0.4408   -1.6657 H   0  0  0  0  0  0  0  0  0  0  0  0
   -6.9572   -2.0238   -1.4389 H   0  0  0  0  0  0  0  0  0  0  0  0
   -7.9215    0.6667   -0.6005 H   0  0  0  0  0  0  0  0  0  0  0  0
   -8.8496   -0.7648   -1.0172 H   0  0  0  0  0  0  0  0  0  0  0  0
   -8.3591   -1.7462    1.2160 H   0  0  0  0  0  0  0  0  0  0  0  0
   -9.1503   -0.1890    1.3879 H   0  0  0  0  0  0  0  0  0  0  0  0
   -7.0293   -0.7280    2.8449 H   0  0  0  0  0  0  0  0  0  0  0  0
   -7.2079    0.8885    2.1329 H   0  0  0  0  0  0  0  0  0  0  0  0
   -1.8219   -1.4129    1.6500 H   0  0  0  0  0  0  0  0  0  0  0  0
   -0.0139   -0.7801    0.0986 H   0  0  0  0  0  0  0  0  0  0  0  0
  1  2  1  0
  2  3  2  0
  3  4  1  0
  4  5  2  0
  5  6  1  0
  6  7  1  0
  6  8  2  0
  8  9  1  0
  9 10  1  0
 10 11  2  0
 10 12  1  0
 12 13  1  0
 13 14  1  0
 14 15  2  0
 14 16  1  0
 16 17  1  0
 17 18  1  0
 18 19  2  0
 19 20  1  0
 20 21  2  0
 21 22  1  0
 22 23  2  0
 22 24  2  0
 22 25  1  0
 25 26  1  0
 26 27  1  0
 27 28  1  0
 28 29  1  0
 29 30  1  0
 21 31  1  0
 31 32  2  0
  8  2  1  0
 32 18  1  0
 30 25  1  0
  1 33  1  0
  1 34  1  0
  1 35  1  0
  3 36  1  0
  4 37  1  0
  5 38  1  0
  7 39  1  0
  7 40  1  0
  7 41  1  0
  9 42  1  0
 12 43  1  0
 12 44  1  0
 16 45  1  0
 16 46  1  0
 17 47  1  0
 17 48  1  0
 19 49  1  0
 20 50  1  0
 26 51  1  0
 26 52  1  0
 27 53  1  0
 27 54  1  0
 28 55  1  0
 28 56  1  0
 29 57  1  0
 29 58  1  0
 30 59  1  0
 30 60  1  0
 31 61  1  0
 32 62  1  0
M  END
$$$$
