
     RDKit          3D

 33 35  0  0  0  0  0  0  0  0999 V2000
   -1.3680   -0.7912    0.7854 O   0  0  0  0  0  0  0  0  0  0  0  0
   -2.0181   -0.1192   -0.0104 C   0  0  0  0  0  0  0  0  0  0  0  0
   -1.4439    0.6203   -1.0369 N   0  0  0  0  0  0  0  0  0  0  0  0
   -0.1005    0.8405   -1.3162 C   0  0  0  0  0  0  0  0  0  0  0  0
    0.1980    1.7697   -2.6711 S   0  0  0  0  0  0  0  0  0  0  0  0
    0.7697    0.2523   -0.4298 N   0  0  0  0  0  0  0  0  0  0  0  0
    2.1772    0.2381   -0.2920 C   0  0  0  0  0  0  0  0  0  0  0  0
    3.0779    0.9745   -1.0668 C   0  0  0  0  0  0  0  0  0  0  0  0
    4.4679    0.9079   -0.8659 C   0  0  0  0  0  0  0  0  0  0  0  0
    4.9170    0.0715    0.1525 C   0  0  0  0  0  0  0  0  0  0  0  0
    6.1688   -0.2338    0.6209 N   0  0  0  0  0  0  0  0  0  0  0  0
    6.0274   -1.1206    1.6509 C   0  0  0  0  0  0  0  0  0  0  0  0
    4.7654   -1.4059    1.8759 N   0  0  0  0  0  0  0  0  0  0  0  0
    4.0600   -0.6728    0.9518 C   0  0  0  0  0  0  0  0  0  0  0  0
    2.6767   -0.5896    0.7325 C   0  0  0  0  0  0  0  0  0  0  0  0
   -3.5039   -0.1044    0.0580 C   0  0  0  0  0  0  0  0  0  0  0  0
   -4.1555   -1.2384    0.5591 C   0  0  0  0  0  0  0  0  0  0  0  0
   -5.5484   -1.2683    0.6397 C   0  0  0  0  0  0  0  0  0  0  0  0
   -6.2938   -0.1634    0.2305 C   0  0  0  0  0  0  0  0  0  0  0  0
   -5.6494    0.9760   -0.2516 C   0  0  0  0  0  0  0  0  0  0  0  0
   -4.2553    1.0112   -0.3354 C   0  0  0  0  0  0  0  0  0  0  0  0
   -2.0570    1.0447   -1.7189 H   0  0  0  0  0  0  0  0  0  0  0  0
    0.2869   -0.3238    0.2641 H   0  0  0  0  0  0  0  0  0  0  0  0
    2.7447    1.6407   -1.8520 H   0  0  0  0  0  0  0  0  0  0  0  0
    5.1481    1.4885   -1.4797 H   0  0  0  0  0  0  0  0  0  0  0  0
    7.0410    0.1317    0.2680 H   0  0  0  0  0  0  0  0  0  0  0  0
    6.8735   -1.5198    2.1940 H   0  0  0  0  0  0  0  0  0  0  0  0
    2.0185   -1.1769    1.3642 H   0  0  0  0  0  0  0  0  0  0  0  0
   -3.5801   -2.1027    0.8862 H   0  0  0  0  0  0  0  0  0  0  0  0
   -6.0510   -2.1520    1.0259 H   0  0  0  0  0  0  0  0  0  0  0  0
   -7.3791   -0.1865    0.2980 H   0  0  0  0  0  0  0  0  0  0  0  0
   -6.2354    1.8418   -0.5519 H   0  0  0  0  0  0  0  0  0  0  0  0
   -3.7795    1.9253   -0.6790 H   0  0  0  0  0  0  0  0  0  0  0  0
  1  2  2  0
  2  3  1  0
  3  4  1  0
  4  5  2  0
  4  6  1  0
  6  7  1  0
  7  8  2  0
  8  9  1  0
  9 10  2  0
 10 11  1  0
 11 12  1  0
 12 13  2  0
 13 14  1  0
 14 15  2  0
  2 16  1  0
 16 17  2  0
 17 18  1  0
 18 19  2  0
 19 20  1  0
 20 21  2  0
 15  7  1  0
 21 16  1  0
 14 10  1  0
  3 22  1  0
  6 23  1  0
  8 24  1  0
  9 25  1  0
 11 26  1  0
 12 27  1  0
 15 28  1  0
 17 29  1  0
 18 30  1  0
 19 31  1  0
 20 32  1  0
 21 33  1  0
M  END
$$$$
