
     RDKit          3D

 44 46  0  0  0  0  0  0  0  0999 V2000
    4.3861    0.4086    1.2428 C   0  0  0  0  0  0  0  0  0  0  0  0
    4.7601    0.4341   -0.2446 C   0  0  0  0  0  0  0  0  0  0  0  0
    5.9854    1.3508   -0.4176 C   0  0  0  0  0  0  0  0  0  0  0  0
    5.1291   -0.9761   -0.7247 C   0  0  0  0  0  0  0  0  0  0  0  0
    3.5961    0.9668   -1.1092 C   0  0  0  0  0  0  0  0  0  0  0  0
    3.7770    1.8548   -1.9494 O   0  0  0  0  0  0  0  0  0  0  0  0
    2.2185    0.3496   -0.9428 C   0  0  0  0  0  0  0  0  0  0  0  0
    1.1630    1.4700    0.0273 S   0  0  0  0  0  0  0  0  0  0  0  0
   -0.3918    0.5751   -0.0078 C   0  0  0  0  0  0  0  0  0  0  0  0
   -0.3340   -0.6736   -0.5434 N   0  0  0  0  0  0  0  0  0  0  0  0
   -1.4816   -1.3643   -0.5731 C   0  0  0  0  0  0  0  0  0  0  0  0
   -2.6974   -0.8955   -0.1027 C   0  0  0  0  0  0  0  0  0  0  0  0
   -2.7662    0.3798    0.4417 C   0  0  0  0  0  0  0  0  0  0  0  0
   -4.0461    0.9009    0.9206 C   0  0  0  0  0  0  0  0  0  0  0  0
   -5.0045    1.6120    0.2270 C   0  0  0  0  0  0  0  0  0  0  0  0
   -6.1219    1.9487    1.0461 C   0  0  0  0  0  0  0  0  0  0  0  0
   -5.9779    1.4811    2.3335 C   0  0  0  0  0  0  0  0  0  0  0  0
   -4.5047    0.6394    2.5503 S   0  0  0  0  0  0  0  0  0  0  0  0
   -1.5788    1.1388    0.4947 C   0  0  0  0  0  0  0  0  0  0  0  0
   -1.5917    2.4639    1.0439 C   0  0  0  0  0  0  0  0  0  0  0  0
   -1.6219    3.5362    1.4884 N   0  0  0  0  0  0  0  0  0  0  0  0
   -3.7781   -1.9053   -0.3332 C   0  0  0  0  0  0  0  0  0  0  0  0
   -2.9551   -3.1815   -0.5654 C   0  0  0  0  0  0  0  0  0  0  0  0
   -1.6219   -2.7341   -1.1748 C   0  0  0  0  0  0  0  0  0  0  0  0
    3.5721   -0.2937    1.4497 H   0  0  0  0  0  0  0  0  0  0  0  0
    5.2395    0.1026    1.8591 H   0  0  0  0  0  0  0  0  0  0  0  0
    4.0643    1.3983    1.5860 H   0  0  0  0  0  0  0  0  0  0  0  0
    6.8310    1.0042    0.1872 H   0  0  0  0  0  0  0  0  0  0  0  0
    6.3169    1.3834   -1.4619 H   0  0  0  0  0  0  0  0  0  0  0  0
    5.7556    2.3788   -0.1140 H   0  0  0  0  0  0  0  0  0  0  0  0
    5.3536   -0.9804   -1.7977 H   0  0  0  0  0  0  0  0  0  0  0  0
    6.0088   -1.3579   -0.1946 H   0  0  0  0  0  0  0  0  0  0  0  0
    4.3132   -1.6881   -0.5621 H   0  0  0  0  0  0  0  0  0  0  0  0
    2.2946   -0.6273   -0.4601 H   0  0  0  0  0  0  0  0  0  0  0  0
    1.8005    0.1997   -1.9442 H   0  0  0  0  0  0  0  0  0  0  0  0
   -4.9107    1.8870   -0.8170 H   0  0  0  0  0  0  0  0  0  0  0  0
   -6.9846    2.5113    0.7099 H   0  0  0  0  0  0  0  0  0  0  0  0
   -6.6649    1.5956    3.1609 H   0  0  0  0  0  0  0  0  0  0  0  0
   -4.3564   -1.6415   -1.2249 H   0  0  0  0  0  0  0  0  0  0  0  0
   -4.4450   -2.0234    0.5250 H   0  0  0  0  0  0  0  0  0  0  0  0
   -2.7638   -3.6668    0.4018 H   0  0  0  0  0  0  0  0  0  0  0  0
   -3.4794   -3.9090   -1.1928 H   0  0  0  0  0  0  0  0  0  0  0  0
   -0.7995   -3.3970   -0.8936 H   0  0  0  0  0  0  0  0  0  0  0  0
   -1.6877   -2.6559   -2.2646 H   0  0  0  0  0  0  0  0  0  0  0  0
  1  2  1  0
  2  3  1  0
  2  4  1  0
  2  5  1  0
  5  6  2  0
  5  7  1  0
  7  8  1  0
  8  9  1  0
  9 10  2  0
 10 11  1  0
 11 12  2  0
 12 13  1  0
 13 14  1  0
 14 15  2  0
 15 16  1  0
 16 17  2  0
 17 18  1  0
 13 19  2  0
 19 20  1  0
 20 21  3  0
 12 22  1  0
 22 23  1  0
 23 24  1  0
 19  9  1  0
 24 11  1  0
 18 14  1  0
  1 25  1  0
  1 26  1  0
  1 27  1  0
  3 28  1  0
  3 29  1  0
  3 30  1  0
  4 31  1  0
  4 32  1  0
  4 33  1  0
  7 34  1  0
  7 35  1  0
 15 36  1  0
 16 37  1  0
 17 38  1  0
 22 39  1  0
 22 40  1  0
 23 41  1  0
 23 42  1  0
 24 43  1  0
 24 44  1  0
M  END
$$$$
