
     RDKit          3D

 50 51  0  0  0  0  0  0  0  0999 V2000
    9.8411   -1.1168    0.9272 C   0  0  0  0  0  0  0  0  0  0  0  0
    8.3351   -1.3263    0.8815 C   0  0  0  0  0  0  0  0  0  0  0  0
    7.6127   -0.3892    1.8503 C   0  0  0  0  0  0  0  0  0  0  0  0
    6.1036   -0.6363    1.9244 C   0  0  0  0  0  0  0  0  0  0  0  0
    5.3738   -0.3363    0.6156 C   0  0  0  0  0  0  0  0  0  0  0  0
    3.8617   -0.4553    0.7528 C   0  0  0  0  0  0  0  0  0  0  0  0
    3.3238   -0.8094    1.7952 O   0  0  0  0  0  0  0  0  0  0  0  0
    3.2214   -0.1193   -0.4306 N   0  0  0  0  0  0  0  0  0  0  0  0
    1.8356   -0.1210   -0.6889 C   0  0  0  0  0  0  0  0  0  0  0  0
    0.8684   -0.5192    0.2366 C   0  0  0  0  0  0  0  0  0  0  0  0
   -0.4932   -0.4901   -0.0939 C   0  0  0  0  0  0  0  0  0  0  0  0
   -0.9015   -0.0498   -1.3571 C   0  0  0  0  0  0  0  0  0  0  0  0
   -2.3359    0.0078   -1.7552 C   0  0  0  0  0  0  0  0  0  0  0  0
   -2.6338   -0.1456   -2.9356 O   0  0  0  0  0  0  0  0  0  0  0  0
   -3.2283    0.2771   -0.7271 N   0  0  0  0  0  0  0  0  0  0  0  0
   -4.5598    0.3734   -1.0020 N   0  0  0  0  0  0  0  0  0  0  0  0
   -5.3205    0.6909   -0.0053 C   0  0  0  0  0  0  0  0  0  0  0  0
   -6.7819    0.8309   -0.1683 C   0  0  0  0  0  0  0  0  0  0  0  0
   -7.5579    1.1699    0.9454 C   0  0  0  0  0  0  0  0  0  0  0  0
   -8.9432    1.3078    0.8115 C   0  0  0  0  0  0  0  0  0  0  0  0
   -9.5437    1.1048   -0.4407 C   0  0  0  0  0  0  0  0  0  0  0  0
  -10.9987    1.2497   -0.5811 N   0  0  0  0  0  4  0  0  0  0  0  0
  -11.4965    1.0281   -1.6936 O   0  0  0  0  0  0  0  0  0  0  0  0
  -11.6421    1.5850    0.4239 O   0  0  0  0  0  1  0  0  0  0  0  0
   -8.7677    0.7651   -1.5570 C   0  0  0  0  0  0  0  0  0  0  0  0
   -7.3838    0.6285   -1.4166 C   0  0  0  0  0  0  0  0  0  0  0  0
    0.0647    0.3287   -2.2947 C   0  0  0  0  0  0  0  0  0  0  0  0
    1.4224    0.2964   -1.9604 C   0  0  0  0  0  0  0  0  0  0  0  0
   10.3388   -1.7891    0.2211 H   0  0  0  0  0  0  0  0  0  0  0  0
   10.1023   -0.0883    0.6587 H   0  0  0  0  0  0  0  0  0  0  0  0
   10.2360   -1.3225    1.9274 H   0  0  0  0  0  0  0  0  0  0  0  0
    7.9895   -1.1545   -0.1434 H   0  0  0  0  0  0  0  0  0  0  0  0
    8.1094   -2.3690    1.1329 H   0  0  0  0  0  0  0  0  0  0  0  0
    7.8007    0.6536    1.5664 H   0  0  0  0  0  0  0  0  0  0  0  0
    8.0304   -0.5224    2.8560 H   0  0  0  0  0  0  0  0  0  0  0  0
    5.6920   -0.0029    2.7206 H   0  0  0  0  0  0  0  0  0  0  0  0
    5.9131   -1.6735    2.2266 H   0  0  0  0  0  0  0  0  0  0  0  0
    5.6096    0.6822    0.2852 H   0  0  0  0  0  0  0  0  0  0  0  0
    5.6915   -1.0365   -0.1647 H   0  0  0  0  0  0  0  0  0  0  0  0
    3.8144    0.1717   -1.1982 H   0  0  0  0  0  0  0  0  0  0  0  0
    1.1404   -0.8741    1.2264 H   0  0  0  0  0  0  0  0  0  0  0  0
   -1.2094   -0.8466    0.6412 H   0  0  0  0  0  0  0  0  0  0  0  0
   -2.8964    0.5222    0.1974 H   0  0  0  0  0  0  0  0  0  0  0  0
   -4.9122    0.8696    1.0058 H   0  0  0  0  0  0  0  0  0  0  0  0
   -7.0994    1.3290    1.9186 H   0  0  0  0  0  0  0  0  0  0  0  0
   -9.5370    1.5716    1.6850 H   0  0  0  0  0  0  0  0  0  0  0  0
   -9.2177    0.6053   -2.5349 H   0  0  0  0  0  0  0  0  0  0  0  0
   -6.7785    0.3653   -2.2837 H   0  0  0  0  0  0  0  0  0  0  0  0
   -0.2387    0.6533   -3.2889 H   0  0  0  0  0  0  0  0  0  0  0  0
    2.1457    0.6030   -2.7118 H   0  0  0  0  0  0  0  0  0  0  0  0
  1  2  1  0
  2  3  1  0
  3  4  1  0
  4  5  1  0
  5  6  1  0
  6  7  2  0
  6  8  1  0
  8  9  1  0
  9 10  2  0
 10 11  1  0
 11 12  2  0
 12 13  1  0
 13 14  2  0
 13 15  1  0
 15 16  1  0
 16 17  2  3
 17 18  1  0
 18 19  2  0
 19 20  1  0
 20 21  2  0
 21 22  1  0
 22 23  2  0
 22 24  1  0
 21 25  1  0
 25 26  2  0
 12 27  1  0
 27 28  2  0
 28  9  1  0
 26 18  1  0
  1 29  1  0
  1 30  1  0
  1 31  1  0
  2 32  1  0
  2 33  1  0
  3 34  1  0
  3 35  1  0
  4 36  1  0
  4 37  1  0
  5 38  1  0
  5 39  1  0
  8 40  1  0
 10 41  1  0
 11 42  1  0
 15 43  1  0
 17 44  1  0
 19 45  1  0
 20 46  1  0
 25 47  1  0
 26 48  1  0
 27 49  1  0
 28 50  1  0
M  CHG  2  22   1  24  -1
M  END
$$$$
