
     RDKit          3D

 43 45  0  0  0  0  0  0  0  0999 V2000
   -3.2395   -2.9501   -0.4701 C   0  0  0  0  0  0  0  0  0  0  0  0
   -2.9586   -2.2088   -1.7747 C   0  0  0  0  0  0  0  0  0  0  0  0
   -3.7905   -2.8016   -2.9113 C   0  0  0  0  0  0  0  0  0  0  0  0
   -1.1857   -2.3555   -2.2306 S   0  0  0  0  0  0  0  0  0  0  0  0
   -0.4158   -1.1901   -1.1134 C   0  0  0  0  0  0  0  0  0  0  0  0
    0.9591   -1.1894   -1.0170 C   0  0  0  0  0  0  0  0  0  0  0  0
    1.5401   -0.2715   -0.1656 C   0  0  0  0  0  0  0  0  0  0  0  0
    2.9193   -0.2224    0.0036 N   0  0  0  0  0  0  0  0  0  0  0  0
    3.4226    0.6872    1.0471 C   0  0  0  0  0  0  0  0  0  0  0  0
    4.9502    0.5535    1.1451 C   0  0  0  0  0  0  0  0  0  0  0  0
    5.6430    0.8851   -0.0690 O   0  0  0  0  0  0  0  0  0  0  0  0
    4.8253    0.7657   -1.2408 C   0  0  0  0  0  0  0  0  0  0  0  0
    3.8013   -0.3805   -1.1676 C   0  0  0  0  0  0  0  0  0  0  0  0
    0.7716    0.5624    0.5544 N   0  0  0  0  0  0  0  0  0  0  0  0
   -0.5639    0.5023    0.3992 C   0  0  0  0  0  0  0  0  0  0  0  0
   -1.3917    1.4384    1.1895 C   0  0  0  0  0  0  0  0  0  0  0  0
   -2.8000    1.4050    1.1320 C   0  0  0  0  0  0  0  0  0  0  0  0
   -3.5863    2.2895    1.8803 C   0  0  0  0  0  0  0  0  0  0  0  0
   -2.9752    3.2306    2.7020 C   0  0  0  0  0  0  0  0  0  0  0  0
   -3.9373    4.3214    3.6193 Cl  0  0  0  0  0  0  0  0  0  0  0  0
   -1.5883    3.2925    2.7834 C   0  0  0  0  0  0  0  0  0  0  0  0
   -0.8077    2.4039    2.0345 C   0  0  0  0  0  0  0  0  0  0  0  0
   -1.1944   -0.3468   -0.4244 N   0  0  0  0  0  0  0  0  0  0  0  0
   -4.3035   -2.8833   -0.2169 H   0  0  0  0  0  0  0  0  0  0  0  0
   -2.9855   -4.0134   -0.5458 H   0  0  0  0  0  0  0  0  0  0  0  0
   -2.6815   -2.5255    0.3707 H   0  0  0  0  0  0  0  0  0  0  0  0
   -3.2315   -1.1527   -1.6758 H   0  0  0  0  0  0  0  0  0  0  0  0
   -3.5689   -3.8626   -3.0720 H   0  0  0  0  0  0  0  0  0  0  0  0
   -4.8596   -2.7196   -2.6844 H   0  0  0  0  0  0  0  0  0  0  0  0
   -3.6178   -2.2670   -3.8522 H   0  0  0  0  0  0  0  0  0  0  0  0
    1.5540   -1.9030   -1.5713 H   0  0  0  0  0  0  0  0  0  0  0  0
    2.9831    0.4349    2.0194 H   0  0  0  0  0  0  0  0  0  0  0  0
    3.1634    1.7247    0.8000 H   0  0  0  0  0  0  0  0  0  0  0  0
    5.3376    1.2071    1.9331 H   0  0  0  0  0  0  0  0  0  0  0  0
    5.2249   -0.4750    1.4073 H   0  0  0  0  0  0  0  0  0  0  0  0
    4.3158    1.7243   -1.3942 H   0  0  0  0  0  0  0  0  0  0  0  0
    5.4950    0.6147   -2.0935 H   0  0  0  0  0  0  0  0  0  0  0  0
    4.3292   -1.3353   -1.0627 H   0  0  0  0  0  0  0  0  0  0  0  0
    3.2467   -0.3999   -2.1125 H   0  0  0  0  0  0  0  0  0  0  0  0
   -3.3018    0.6763    0.4961 H   0  0  0  0  0  0  0  0  0  0  0  0
   -4.6694    2.2360    1.8123 H   0  0  0  0  0  0  0  0  0  0  0  0
   -1.1044    4.0265    3.4228 H   0  0  0  0  0  0  0  0  0  0  0  0
    0.2767    2.4720    2.1137 H   0  0  0  0  0  0  0  0  0  0  0  0
  1  2  1  0
  2  3  1  0
  2  4  1  0
  4  5  1  0
  5  6  2  0
  6  7  1  0
  7  8  1  0
  8  9  1  0
  9 10  1  0
 10 11  1  0
 11 12  1  0
 12 13  1  0
  7 14  2  0
 14 15  1  0
 15 16  1  0
 16 17  2  0
 17 18  1  0
 18 19  2  0
 19 20  1  0
 19 21  1  0
 21 22  2  0
 15 23  2  0
 23  5  1  0
 13  8  1  0
 22 16  1  0
  1 24  1  0
  1 25  1  0
  1 26  1  0
  2 27  1  0
  3 28  1  0
  3 29  1  0
  3 30  1  0
  6 31  1  0
  9 32  1  0
  9 33  1  0
 10 34  1  0
 10 35  1  0
 12 36  1  0
 12 37  1  0
 13 38  1  0
 13 39  1  0
 17 40  1  0
 18 41  1  0
 21 42  1  0
 22 43  1  0
M  END
$$$$
