
     RDKit          3D

 68 71  0  0  0  0  0  0  0  0999 V2000
    4.7909    3.9760   -0.7588 C   0  0  0  0  0  0  0  0  0  0  0  0
    3.1458    3.7460   -1.4827 S   0  0  0  0  0  0  0  0  0  0  0  0
    2.9966    1.9375   -1.3011 C   0  0  0  0  0  0  0  0  0  0  0  0
    2.6710    1.5391    0.1399 C   0  0  0  0  0  0  0  0  0  0  0  0
    2.6266    0.0151    0.3484 C   0  0  0  0  0  0  0  0  0  0  0  0
    3.9426   -0.5933    0.1519 N   0  0  0  0  0  0  0  0  0  0  0  0
    4.9233   -0.5572    1.1116 C   0  0  0  0  0  0  0  0  0  0  0  0
    4.7835    0.0069    2.1911 O   0  0  0  0  0  0  0  0  0  0  0  0
    6.1732   -1.3042    0.8256 C   0  0  0  0  0  0  0  0  0  0  0  0
    6.7052   -2.0572    1.8864 C   0  0  0  0  0  0  0  0  0  0  0  0
    7.8774   -2.7959    1.7161 C   0  0  0  0  0  0  0  0  0  0  0  0
    8.5338   -2.7827    0.4882 C   0  0  0  0  0  0  0  0  0  0  0  0
    8.0222   -2.0242   -0.5662 C   0  0  0  0  0  0  0  0  0  0  0  0
    6.8473   -1.2784   -0.4021 C   0  0  0  0  0  0  0  0  0  0  0  0
    6.3410   -0.3174   -1.7454 Cl  0  0  0  0  0  0  0  0  0  0  0  0
    1.6336   -0.6680   -0.6195 C   0  0  0  0  0  0  0  0  0  0  0  0
    2.0673   -1.3354   -1.5661 O   0  0  0  0  0  0  0  0  0  0  0  0
    0.2729   -0.4429   -0.4417 N   0  0  0  0  0  0  0  0  0  0  0  0
   -0.3231   -0.1368    0.8608 C   0  0  0  0  0  0  0  0  0  0  0  0
   -1.7090    0.5262    0.7362 C   0  0  0  0  0  0  0  0  0  0  0  0
   -2.6448   -0.2577   -0.1103 N   0  0  0  0  0  0  0  0  0  0  0  0
   -3.9688    0.4332   -0.2265 C   0  0  0  0  0  0  0  0  0  0  0  0
   -4.9556   -0.2873   -1.1556 C   0  0  0  0  0  0  0  0  0  0  0  0
   -5.6690    0.4440   -2.1214 C   0  0  0  0  0  0  0  0  0  0  0  0
   -6.5783   -0.1925   -2.9693 C   0  0  0  0  0  0  0  0  0  0  0  0
   -6.7920   -1.5652   -2.8625 C   0  0  0  0  0  0  0  0  0  0  0  0
   -6.0991   -2.3038   -1.9066 C   0  0  0  0  0  0  0  0  0  0  0  0
   -5.1896   -1.6697   -1.0582 C   0  0  0  0  0  0  0  0  0  0  0  0
   -4.6410    0.6972    1.1279 C   0  0  0  0  0  0  0  0  0  0  0  0
   -5.1817    1.9651    1.4049 C   0  0  0  0  0  0  0  0  0  0  0  0
   -5.8068    2.2213    2.6266 C   0  0  0  0  0  0  0  0  0  0  0  0
   -5.9071    1.2153    3.5852 C   0  0  0  0  0  0  0  0  0  0  0  0
   -5.3832   -0.0486    3.3250 C   0  0  0  0  0  0  0  0  0  0  0  0
   -4.7562   -0.3072    2.1051 C   0  0  0  0  0  0  0  0  0  0  0  0
   -2.0132   -0.4179   -1.4465 C   0  0  0  0  0  0  0  0  0  0  0  0
   -0.6393   -1.1082   -1.3711 C   0  0  0  0  0  0  0  0  0  0  0  0
    4.7787    3.7596    0.3122 H   0  0  0  0  0  0  0  0  0  0  0  0
    5.5239    3.3351   -1.2573 H   0  0  0  0  0  0  0  0  0  0  0  0
    5.0976    5.0163   -0.8935 H   0  0  0  0  0  0  0  0  0  0  0  0
    2.1912    1.6190   -1.9720 H   0  0  0  0  0  0  0  0  0  0  0  0
    3.9175    1.4711   -1.6581 H   0  0  0  0  0  0  0  0  0  0  0  0
    1.7033    1.9763    0.4126 H   0  0  0  0  0  0  0  0  0  0  0  0
    3.4114    1.9634    0.8279 H   0  0  0  0  0  0  0  0  0  0  0  0
    2.3356   -0.2145    1.3789 H   0  0  0  0  0  0  0  0  0  0  0  0
    4.0728   -1.1228   -0.7074 H   0  0  0  0  0  0  0  0  0  0  0  0
    6.2004   -2.0695    2.8524 H   0  0  0  0  0  0  0  0  0  0  0  0
    8.2784   -3.3755    2.5445 H   0  0  0  0  0  0  0  0  0  0  0  0
    9.4497   -3.3540    0.3531 H   0  0  0  0  0  0  0  0  0  0  0  0
    8.5540   -2.0081   -1.5153 H   0  0  0  0  0  0  0  0  0  0  0  0
   -0.4046   -1.0849    1.4079 H   0  0  0  0  0  0  0  0  0  0  0  0
    0.3272    0.5155    1.4468 H   0  0  0  0  0  0  0  0  0  0  0  0
   -2.0978    0.6345    1.7534 H   0  0  0  0  0  0  0  0  0  0  0  0
   -1.5823    1.5373    0.3246 H   0  0  0  0  0  0  0  0  0  0  0  0
   -3.7601    1.4145   -0.6786 H   0  0  0  0  0  0  0  0  0  0  0  0
   -5.5231    1.5174   -2.2182 H   0  0  0  0  0  0  0  0  0  0  0  0
   -7.1234    0.3838   -3.7123 H   0  0  0  0  0  0  0  0  0  0  0  0
   -7.5017   -2.0597   -3.5206 H   0  0  0  0  0  0  0  0  0  0  0  0
   -6.2667   -3.3741   -1.8183 H   0  0  0  0  0  0  0  0  0  0  0  0
   -4.6530   -2.2625   -0.3211 H   0  0  0  0  0  0  0  0  0  0  0  0
   -5.1216    2.7629    0.6673 H   0  0  0  0  0  0  0  0  0  0  0  0
   -6.2196    3.2067    2.8288 H   0  0  0  0  0  0  0  0  0  0  0  0
   -6.3974    1.4158    4.5336 H   0  0  0  0  0  0  0  0  0  0  0  0
   -5.4637   -0.8354    4.0695 H   0  0  0  0  0  0  0  0  0  0  0  0
   -4.3477   -1.2975    1.9190 H   0  0  0  0  0  0  0  0  0  0  0  0
   -1.8919    0.5637   -1.9255 H   0  0  0  0  0  0  0  0  0  0  0  0
   -2.6379   -1.0278   -2.1067 H   0  0  0  0  0  0  0  0  0  0  0  0
   -0.7507   -2.1468   -1.0368 H   0  0  0  0  0  0  0  0  0  0  0  0
   -0.1951   -1.1310   -2.3725 H   0  0  0  0  0  0  0  0  0  0  0  0
  1  2  1  0
  2  3  1  0
  3  4  1  0
  4  5  1  0
  5  6  1  0
  6  7  1  0
  7  8  2  0
  7  9  1  0
  9 10  2  0
 10 11  1  0
 11 12  2  0
 12 13  1  0
 13 14  2  0
 14 15  1  0
  5 16  1  0
 16 17  2  0
 16 18  1  0
 18 19  1  0
 19 20  1  0
 20 21  1  0
 21 22  1  0
 22 23  1  0
 23 24  2  0
 24 25  1  0
 25 26  2  0
 26 27  1  0
 27 28  2  0
 22 29  1  0
 29 30  2  0
 30 31  1  0
 31 32  2  0
 32 33  1  0
 33 34  2  0
 21 35  1  0
 35 36  1  0
 14  9  1  0
 36 18  1  0
 28 23  1  0
 34 29  1  0
  1 37  1  0
  1 38  1  0
  1 39  1  0
  3 40  1  0
  3 41  1  0
  4 42  1  0
  4 43  1  0
  5 44  1  0
  6 45  1  0
 10 46  1  0
 11 47  1  0
 12 48  1  0
 13 49  1  0
 19 50  1  0
 19 51  1  0
 20 52  1  0
 20 53  1  0
 22 54  1  0
 24 55  1  0
 25 56  1  0
 26 57  1  0
 27 58  1  0
 28 59  1  0
 30 60  1  0
 31 61  1  0
 32 62  1  0
 33 63  1  0
 34 64  1  0
 35 65  1  0
 35 66  1  0
 36 67  1  0
 36 68  1  0
M  END
$$$$
