
     RDKit          3D

 52 55  0  0  0  0  0  0  0  0999 V2000
   -4.1251    2.8777    1.9789 C   0  0  0  0  0  0  0  0  0  0  0  0
   -3.9449    2.1330    0.6904 C   0  0  0  0  0  0  0  0  0  0  0  0
   -3.8199    0.7379    0.6726 C   0  0  0  0  0  0  0  0  0  0  0  0
   -3.6246    0.0735   -0.5454 C   0  0  0  0  0  0  0  0  0  0  0  0
   -3.4700   -1.6997   -0.5783 S   0  0  0  0  0  6  0  0  0  0  0  0
   -3.8291   -2.2077    0.7269 O   0  0  0  0  0  0  0  0  0  0  0  0
   -4.1120   -2.1626   -1.7880 O   0  0  0  0  0  0  0  0  0  0  0  0
   -1.8226   -1.9126   -0.7836 N   0  0  0  0  0  0  0  0  0  0  0  0
   -0.9026   -1.5041    0.3009 C   0  0  0  0  0  0  0  0  0  0  0  0
    0.5643   -1.5737   -0.2283 C   0  0  0  0  0  0  0  0  0  0  0  0
    1.6101   -1.2780    0.8452 C   0  0  0  0  0  0  0  0  0  0  0  0
    1.4597   -0.2265    1.7842 C   0  0  0  0  0  0  0  0  0  0  0  0
    2.4333    0.0287    2.7577 C   0  0  0  0  0  0  0  0  0  0  0  0
    3.5480   -0.7776    2.7782 C   0  0  0  0  0  0  0  0  0  0  0  0
    3.7114   -1.8015    1.8793 C   0  0  0  0  0  0  0  0  0  0  0  0
    2.7682   -2.0778    0.9114 C   0  0  0  0  0  0  0  0  0  0  0  0
    4.8766   -2.4773    2.0667 O   0  0  0  0  0  0  0  0  0  0  0  0
    5.4290   -1.7565    3.1886 C   0  0  0  0  0  0  0  0  0  0  0  0
    4.5880   -0.6774    3.6473 O   0  0  0  0  0  0  0  0  0  0  0  0
    0.7053   -0.8020   -1.4930 N   0  0  0  0  0  0  0  0  0  0  0  0
    0.5676    0.6611   -1.3768 C   0  0  0  0  0  0  0  0  0  0  0  0
    1.0050    1.3608   -2.6747 C   0  0  0  0  0  0  0  0  0  0  0  0
    2.3921    1.1592   -2.9771 O   0  0  0  0  0  0  0  0  0  0  0  0
    2.9251   -0.0495   -2.4194 C   0  0  0  0  0  0  0  0  0  0  0  0
    1.8797   -1.1709   -2.3082 C   0  0  0  0  0  0  0  0  0  0  0  0
   -3.5745    0.7813   -1.7519 C   0  0  0  0  0  0  0  0  0  0  0  0
   -3.6905    2.1704   -1.7331 C   0  0  0  0  0  0  0  0  0  0  0  0
   -3.8671    2.8323   -0.5196 C   0  0  0  0  0  0  0  0  0  0  0  0
   -3.9639    4.1693   -0.5223 F   0  0  0  0  0  0  0  0  0  0  0  0
   -4.4125    2.2035    2.7924 H   0  0  0  0  0  0  0  0  0  0  0  0
   -3.1911    3.3757    2.2582 H   0  0  0  0  0  0  0  0  0  0  0  0
   -4.9175    3.6283    1.8829 H   0  0  0  0  0  0  0  0  0  0  0  0
   -3.8747    0.1714    1.6015 H   0  0  0  0  0  0  0  0  0  0  0  0
   -1.4860   -1.6869   -1.7237 H   0  0  0  0  0  0  0  0  0  0  0  0
   -1.1423   -0.4890    0.6284 H   0  0  0  0  0  0  0  0  0  0  0  0
   -1.0279   -2.1805    1.1543 H   0  0  0  0  0  0  0  0  0  0  0  0
    0.6881   -2.6330   -0.5027 H   0  0  0  0  0  0  0  0  0  0  0  0
    0.5847    0.4195    1.7623 H   0  0  0  0  0  0  0  0  0  0  0  0
    2.3178    0.8370    3.4720 H   0  0  0  0  0  0  0  0  0  0  0  0
    2.9307   -2.9044    0.2264 H   0  0  0  0  0  0  0  0  0  0  0  0
    6.4009   -1.3429    2.8952 H   0  0  0  0  0  0  0  0  0  0  0  0
    5.5810   -2.4596    4.0159 H   0  0  0  0  0  0  0  0  0  0  0  0
    1.1898    1.0565   -0.5682 H   0  0  0  0  0  0  0  0  0  0  0  0
   -0.4736    0.9234   -1.1649 H   0  0  0  0  0  0  0  0  0  0  0  0
    0.8405    2.4405   -2.5945 H   0  0  0  0  0  0  0  0  0  0  0  0
    0.4146    1.0050   -3.5275 H   0  0  0  0  0  0  0  0  0  0  0  0
    3.7512   -0.3687   -3.0631 H   0  0  0  0  0  0  0  0  0  0  0  0
    3.3528    0.1861   -1.4379 H   0  0  0  0  0  0  0  0  0  0  0  0
    2.3564   -2.0950   -1.9650 H   0  0  0  0  0  0  0  0  0  0  0  0
    1.5024   -1.3856   -3.3168 H   0  0  0  0  0  0  0  0  0  0  0  0
   -3.4514    0.2601   -2.6991 H   0  0  0  0  0  0  0  0  0  0  0  0
   -3.6505    2.7434   -2.6547 H   0  0  0  0  0  0  0  0  0  0  0  0
  1  2  1  0
  2  3  2  0
  3  4  1  0
  4  5  1  0
  5  6  2  0
  5  7  2  0
  5  8  1  0
  8  9  1  0
  9 10  1  0
 10 11  1  0
 11 12  2  0
 12 13  1  0
 13 14  2  0
 14 15  1  0
 15 16  2  0
 15 17  1  0
 17 18  1  0
 18 19  1  0
 10 20  1  0
 20 21  1  0
 21 22  1  0
 22 23  1  0
 23 24  1  0
 24 25  1  0
  4 26  2  0
 26 27  1  0
 27 28  2  0
 28 29  1  0
 28  2  1  0
 16 11  1  0
 25 20  1  0
 19 14  1  0
  1 30  1  0
  1 31  1  0
  1 32  1  0
  3 33  1  0
  8 34  1  0
  9 35  1  0
  9 36  1  0
 10 37  1  0
 12 38  1  0
 13 39  1  0
 16 40  1  0
 18 41  1  0
 18 42  1  0
 21 43  1  0
 21 44  1  0
 22 45  1  0
 22 46  1  0
 24 47  1  0
 24 48  1  0
 25 49  1  0
 25 50  1  0
 26 51  1  0
 27 52  1  0
M  END
$$$$
