
     RDKit          3D

 44 47  0  0  0  0  0  0  0  0999 V2000
   -6.2745   -1.2530   -2.4580 C   0  0  0  0  0  0  0  0  0  0  0  0
   -5.8044    0.0663   -2.2130 O   0  0  0  0  0  0  0  0  0  0  0  0
   -4.6455    0.1873   -1.4975 C   0  0  0  0  0  0  0  0  0  0  0  0
   -3.8838   -0.8606   -0.9835 C   0  0  0  0  0  0  0  0  0  0  0  0
   -2.7120   -0.5936   -0.2653 C   0  0  0  0  0  0  0  0  0  0  0  0
   -2.2811    0.7254   -0.0510 C   0  0  0  0  0  0  0  0  0  0  0  0
   -1.0159    1.0336    0.7346 C   0  0  0  0  0  0  0  0  0  0  0  0
    0.1989    0.3413    0.1579 C   0  0  0  0  0  0  0  0  0  0  0  0
    1.1857   -0.1653    0.9188 C   0  0  0  0  0  0  0  0  0  0  0  0
    2.3323   -0.8313    0.2724 C   0  0  0  0  0  0  0  0  0  0  0  0
    2.2434   -2.2078    0.0603 C   0  0  0  0  0  0  0  0  0  0  0  0
    3.3050   -2.8439   -0.5479 C   0  0  0  0  0  0  0  0  0  0  0  0
    4.4252   -2.2123   -0.9519 N   0  0  0  0  0  0  0  0  0  0  0  0
    4.5153   -0.8877   -0.7574 C   0  0  0  0  0  0  0  0  0  0  0  0
    5.6691   -0.2403   -1.1800 C   0  0  0  0  0  0  0  0  0  0  0  0
    5.8455    1.1362   -1.0191 C   0  0  0  0  0  0  0  0  0  0  0  0
    4.8437    1.8854   -0.4208 C   0  0  0  0  0  0  0  0  0  0  0  0
    5.0438    3.5807   -0.2177 Cl  0  0  0  0  0  0  0  0  0  0  0  0
    3.6754    1.2659    0.0149 C   0  0  0  0  0  0  0  0  0  0  0  0
    3.4911   -0.1298   -0.1452 C   0  0  0  0  0  0  0  0  0  0  0  0
    1.2193   -0.0800    2.4206 C   0  0  0  0  0  0  0  0  0  0  0  0
    0.0982    0.8014    2.9433 C   0  0  0  0  0  0  0  0  0  0  0  0
    0.2289    1.4720    3.9677 O   0  0  0  0  0  0  0  0  0  0  0  0
   -1.2227    0.7201    2.2201 C   0  0  0  0  0  0  0  0  0  0  0  0
   -3.0554    1.7714   -0.5698 C   0  0  0  0  0  0  0  0  0  0  0  0
   -4.2245    1.5010   -1.2858 C   0  0  0  0  0  0  0  0  0  0  0  0
   -7.1997   -1.1760   -3.0372 H   0  0  0  0  0  0  0  0  0  0  0  0
   -5.5551   -1.8242   -3.0542 H   0  0  0  0  0  0  0  0  0  0  0  0
   -6.5101   -1.7685   -1.5211 H   0  0  0  0  0  0  0  0  0  0  0  0
   -4.1712   -1.8973   -1.1224 H   0  0  0  0  0  0  0  0  0  0  0  0
   -2.1358   -1.4306    0.1238 H   0  0  0  0  0  0  0  0  0  0  0  0
   -0.8083    2.1095    0.6413 H   0  0  0  0  0  0  0  0  0  0  0  0
    0.2578    0.2806   -0.9292 H   0  0  0  0  0  0  0  0  0  0  0  0
    1.3685   -2.7755    0.3580 H   0  0  0  0  0  0  0  0  0  0  0  0
    3.2852   -3.9140   -0.7350 H   0  0  0  0  0  0  0  0  0  0  0  0
    6.4560   -0.8265   -1.6505 H   0  0  0  0  0  0  0  0  0  0  0  0
    6.7624    1.6066   -1.3634 H   0  0  0  0  0  0  0  0  0  0  0  0
    2.9032    1.8735    0.4804 H   0  0  0  0  0  0  0  0  0  0  0  0
    2.1690    0.3521    2.7555 H   0  0  0  0  0  0  0  0  0  0  0  0
    1.1041   -1.0744    2.8650 H   0  0  0  0  0  0  0  0  0  0  0  0
   -1.9244    1.4348    2.6661 H   0  0  0  0  0  0  0  0  0  0  0  0
   -1.6290   -0.2848    2.3877 H   0  0  0  0  0  0  0  0  0  0  0  0
   -2.7595    2.8081   -0.4233 H   0  0  0  0  0  0  0  0  0  0  0  0
   -4.8140    2.3242   -1.6828 H   0  0  0  0  0  0  0  0  0  0  0  0
  1  2  1  0
  2  3  1  0
  3  4  2  0
  4  5  1  0
  5  6  2  0
  6  7  1  0
  7  8  1  0
  8  9  2  0
  9 10  1  0
 10 11  2  0
 11 12  1  0
 12 13  2  0
 13 14  1  0
 14 15  2  0
 15 16  1  0
 16 17  2  0
 17 18  1  0
 17 19  1  0
 19 20  2  0
  9 21  1  0
 21 22  1  0
 22 23  2  0
 22 24  1  0
  6 25  1  0
 25 26  2  0
 26  3  1  0
 24  7  1  0
 20 10  1  0
 20 14  1  0
  1 27  1  0
  1 28  1  0
  1 29  1  0
  4 30  1  0
  5 31  1  0
  7 32  1  0
  8 33  1  0
 11 34  1  0
 12 35  1  0
 15 36  1  0
 16 37  1  0
 19 38  1  0
 21 39  1  0
 21 40  1  0
 24 41  1  0
 24 42  1  0
 25 43  1  0
 26 44  1  0
M  END
$$$$
