
     RDKit          3D

 52 55  0  0  0  0  0  0  0  0999 V2000
   -4.2602    2.1683   -0.4251 C   0  0  0  0  0  0  0  0  0  0  0  0
   -5.4098    1.2046   -0.3090 C   0  0  0  0  0  0  0  0  0  0  0  0
   -6.5560    1.4490   -1.0892 C   0  0  0  0  0  0  0  0  0  0  0  0
   -7.6810    0.6290   -0.9949 C   0  0  0  0  0  0  0  0  0  0  0  0
   -7.6823   -0.4448   -0.1128 C   0  0  0  0  0  0  0  0  0  0  0  0
   -6.5480   -0.7096    0.6538 C   0  0  0  0  0  0  0  0  0  0  0  0
   -5.3857    0.0743    0.5342 C   0  0  0  0  0  0  0  0  0  0  0  0
   -4.3061   -0.2689    1.3916 N   0  0  0  0  0  0  0  0  0  0  0  0
   -2.9300   -0.2256    1.0754 C   0  0  0  0  0  0  0  0  0  0  0  0
   -2.1659    0.4781    1.9414 N   0  0  0  0  0  0  0  0  0  0  0  0
   -0.8271    0.6223    1.7330 N   0  0  0  0  0  0  0  0  0  0  0  0
   -0.2457    0.0468    0.6568 C   0  0  0  0  0  0  0  0  0  0  0  0
    1.1959    0.2998    0.5534 C   0  0  0  0  0  0  0  0  0  0  0  0
    1.6925    1.2956   -0.3051 C   0  0  0  0  0  0  0  0  0  0  0  0
    3.0678    1.5235   -0.4126 C   0  0  0  0  0  0  0  0  0  0  0  0
    3.9719    0.7558    0.3345 C   0  0  0  0  0  0  0  0  0  0  0  0
    5.4290    1.0293    0.1800 C   0  0  0  0  0  0  0  0  0  0  0  0
    5.8113    2.1258   -0.2115 O   0  0  0  0  0  0  0  0  0  0  0  0
    6.2829   -0.0215    0.4588 N   0  0  0  0  0  0  0  0  0  0  0  0
    7.7002    0.0876    0.1694 C   0  0  0  0  0  0  0  0  0  0  0  0
    8.5436   -0.8260    1.0556 C   0  0  0  0  0  0  0  0  0  0  0  0
    9.9195   -0.7491    0.7020 O   0  0  0  0  0  0  0  0  0  0  0  0
    3.4869   -0.2201    1.2150 C   0  0  0  0  0  0  0  0  0  0  0  0
    2.1095   -0.4447    1.3202 C   0  0  0  0  0  0  0  0  0  0  0  0
   -0.9740   -0.7333   -0.2610 C   0  0  0  0  0  0  0  0  0  0  0  0
   -0.3813   -1.3774   -1.3780 C   0  0  0  0  0  0  0  0  0  0  0  0
   -1.1303   -2.1620   -2.2537 C   0  0  0  0  0  0  0  0  0  0  0  0
   -2.4874   -2.3291   -2.0313 C   0  0  0  0  0  0  0  0  0  0  0  0
   -3.0925   -1.7045   -0.9390 C   0  0  0  0  0  0  0  0  0  0  0  0
   -2.3624   -0.8857   -0.0395 C   0  0  0  0  0  0  0  0  0  0  0  0
   -3.4669    1.7451   -1.0484 H   0  0  0  0  0  0  0  0  0  0  0  0
   -3.8659    2.4253    0.5635 H   0  0  0  0  0  0  0  0  0  0  0  0
   -4.5778    3.1122   -0.8838 H   0  0  0  0  0  0  0  0  0  0  0  0
   -6.5836    2.2986   -1.7690 H   0  0  0  0  0  0  0  0  0  0  0  0
   -8.5599    0.8391   -1.5994 H   0  0  0  0  0  0  0  0  0  0  0  0
   -8.5618   -1.0765   -0.0196 H   0  0  0  0  0  0  0  0  0  0  0  0
   -6.5578   -1.5542    1.3414 H   0  0  0  0  0  0  0  0  0  0  0  0
   -4.3851    0.3010    2.2369 H   0  0  0  0  0  0  0  0  0  0  0  0
    1.0056    1.9075   -0.8914 H   0  0  0  0  0  0  0  0  0  0  0  0
    3.4317    2.3035   -1.0814 H   0  0  0  0  0  0  0  0  0  0  0  0
    5.8878   -0.9522    0.4688 H   0  0  0  0  0  0  0  0  0  0  0  0
    7.8457   -0.1670   -0.8862 H   0  0  0  0  0  0  0  0  0  0  0  0
    8.0297    1.1260    0.2876 H   0  0  0  0  0  0  0  0  0  0  0  0
    8.4371   -0.5566    2.1135 H   0  0  0  0  0  0  0  0  0  0  0  0
    8.2242   -1.8698    0.9468 H   0  0  0  0  0  0  0  0  0  0  0  0
   10.2105    0.1683    0.8546 H   0  0  0  0  0  0  0  0  0  0  0  0
    4.1588   -0.7930    1.8491 H   0  0  0  0  0  0  0  0  0  0  0  0
    1.7449   -1.2005    2.0160 H   0  0  0  0  0  0  0  0  0  0  0  0
    0.6853   -1.2785   -1.5733 H   0  0  0  0  0  0  0  0  0  0  0  0
   -0.6506   -2.6466   -3.1008 H   0  0  0  0  0  0  0  0  0  0  0  0
   -3.0810   -2.9464   -2.7009 H   0  0  0  0  0  0  0  0  0  0  0  0
   -4.1563   -1.8729   -0.7882 H   0  0  0  0  0  0  0  0  0  0  0  0
  1  2  1  0
  2  3  2  0
  3  4  1  0
  4  5  2  0
  5  6  1  0
  6  7  2  0
  7  8  1  0
  8  9  1  0
  9 10  2  0
 10 11  1  0
 11 12  2  0
 12 13  1  0
 13 14  2  0
 14 15  1  0
 15 16  2  0
 16 17  1  0
 17 18  2  0
 17 19  1  0
 19 20  1  0
 20 21  1  0
 21 22  1  0
 16 23  1  0
 23 24  2  0
 12 25  1  0
 25 26  2  0
 26 27  1  0
 27 28  2  0
 28 29  1  0
 29 30  2  0
  7  2  1  0
 30  9  1  0
 24 13  1  0
 30 25  1  0
  1 31  1  0
  1 32  1  0
  1 33  1  0
  3 34  1  0
  4 35  1  0
  5 36  1  0
  6 37  1  0
  8 38  1  0
 14 39  1  0
 15 40  1  0
 19 41  1  0
 20 42  1  0
 20 43  1  0
 21 44  1  0
 21 45  1  0
 22 46  1  0
 23 47  1  0
 24 48  1  0
 26 49  1  0
 27 50  1  0
 28 51  1  0
 29 52  1  0
M  END
$$$$
