
     RDKit          3D

 36 38  0  0  0  0  0  0  0  0999 V2000
    6.8964    1.7327   -2.3617 Br  0  0  0  0  0  0  0  0  0  0  0  0
    5.4790    1.0327   -1.3262 C   0  0  0  0  0  0  0  0  0  0  0  0
    4.3532    1.8118   -1.0768 C   0  0  0  0  0  0  0  0  0  0  0  0
    3.3066    1.2891   -0.3110 C   0  0  0  0  0  0  0  0  0  0  0  0
    3.3745   -0.0110    0.2157 C   0  0  0  0  0  0  0  0  0  0  0  0
    2.2567   -0.5187    1.0091 C   0  0  0  0  0  0  0  0  0  0  0  0
    2.3228   -1.5985    1.8654 C   0  0  0  0  0  0  0  0  0  0  0  0
    0.8011   -1.8558    2.6073 S   0  0  0  0  0  0  0  0  0  0  0  0
    0.1447   -0.5171    1.7323 C   0  0  0  0  0  0  0  0  0  0  0  0
   -1.1513   -0.1870    1.9479 N   0  0  0  0  0  0  0  0  0  0  0  0
   -1.9500   -0.0296    0.9233 C   0  0  0  0  0  0  0  0  0  0  0  0
   -1.5169   -0.2388   -0.5365 C   0  0  0  0  0  0  0  0  0  0  0  0
   -2.5565   -0.1951   -1.6562 C   0  0  0  0  0  0  0  0  0  0  0  0
   -3.8612   -0.9053   -1.3215 C   0  0  0  0  0  0  0  0  0  0  0  0
   -4.8414   -0.0212   -0.5489 C   0  0  0  0  0  0  0  0  0  0  0  0
   -4.1891    0.9748    0.4012 C   0  0  0  0  0  0  0  0  0  0  0  0
   -3.2376    0.3179    1.2576 N   0  0  0  0  0  0  0  0  0  0  0  0
    1.0153    0.0976    0.9592 N   0  0  0  0  0  0  0  0  0  0  0  0
    4.5161   -0.7818   -0.0526 C   0  0  0  0  0  0  0  0  0  0  0  0
    5.5654   -0.2617   -0.8194 C   0  0  0  0  0  0  0  0  0  0  0  0
    4.2753    2.8218   -1.4699 H   0  0  0  0  0  0  0  0  0  0  0  0
    2.4305    1.9085   -0.1231 H   0  0  0  0  0  0  0  0  0  0  0  0
    3.1603   -2.2347    2.1080 H   0  0  0  0  0  0  0  0  0  0  0  0
   -0.7509    0.5090   -0.7718 H   0  0  0  0  0  0  0  0  0  0  0  0
   -1.0317   -1.2229   -0.5814 H   0  0  0  0  0  0  0  0  0  0  0  0
   -2.7484    0.8409   -1.9595 H   0  0  0  0  0  0  0  0  0  0  0  0
   -2.1118   -0.6786   -2.5357 H   0  0  0  0  0  0  0  0  0  0  0  0
   -4.3506   -1.2269   -2.2490 H   0  0  0  0  0  0  0  0  0  0  0  0
   -3.6539   -1.8210   -0.7540 H   0  0  0  0  0  0  0  0  0  0  0  0
   -5.4565    0.5413   -1.2624 H   0  0  0  0  0  0  0  0  0  0  0  0
   -5.5317   -0.6698    0.0049 H   0  0  0  0  0  0  0  0  0  0  0  0
   -3.7139    1.8009   -0.1393 H   0  0  0  0  0  0  0  0  0  0  0  0
   -4.9715    1.4292    1.0201 H   0  0  0  0  0  0  0  0  0  0  0  0
   -3.3207    0.5436    2.2451 H   0  0  0  0  0  0  0  0  0  0  0  0
    4.6075   -1.8002    0.3152 H   0  0  0  0  0  0  0  0  0  0  0  0
    6.4401   -0.8761   -1.0168 H   0  0  0  0  0  0  0  0  0  0  0  0
  1  2  1  0
  2  3  2  0
  3  4  1  0
  4  5  2  0
  5  6  1  0
  6  7  2  0
  7  8  1  0
  8  9  1  0
  9 10  1  0
 10 11  2  3
 11 12  1  0
 12 13  1  0
 13 14  1  0
 14 15  1  0
 15 16  1  0
 16 17  1  0
  9 18  2  0
  5 19  1  0
 19 20  2  0
 20  2  1  0
 18  6  1  0
 17 11  1  0
  3 21  1  0
  4 22  1  0
  7 23  1  0
 12 24  1  0
 12 25  1  0
 13 26  1  0
 13 27  1  0
 14 28  1  0
 14 29  1  0
 15 30  1  0
 15 31  1  0
 16 32  1  0
 16 33  1  0
 17 34  1  0
 19 35  1  0
 20 36  1  0
M  END
$$$$
