
     RDKit          3D

 30 31  0  0  0  0  0  0  0  0999 V2000
    0.9638    1.1213   -1.2081 O   0  0  0  0  0  0  0  0  0  0  0  0
    1.4714    0.0148   -1.0364 C   0  0  0  0  0  0  0  0  0  0  0  0
    2.9774   -0.1873   -1.0836 C   0  0  0  0  0  0  0  0  0  0  0  0
    3.5892    0.2823    0.1975 C   0  0  0  0  0  0  0  0  0  0  0  0
    4.3000    1.4083    0.3622 C   0  0  0  0  0  0  0  0  0  0  0  0
    4.6859    1.4128    1.7859 C   0  0  0  0  0  0  0  0  0  0  0  0
    5.4541    2.1998    2.3050 O   0  0  0  0  0  0  0  0  0  0  0  0
    4.0426    0.3382    2.3788 N   0  0  0  0  0  0  0  0  0  0  0  0
    3.4860   -0.4598    1.3713 N   0  0  0  0  0  0  0  0  0  0  0  0
    0.7836   -1.1622   -0.7379 N   0  0  0  0  0  0  0  0  0  0  0  0
   -0.5810   -1.2888   -0.7377 N   0  0  0  0  0  0  0  0  0  0  0  0
   -1.2870   -0.3080   -0.2750 C   0  0  0  0  0  0  0  0  0  0  0  0
   -2.7669   -0.2968   -0.3007 C   0  0  0  0  0  0  0  0  0  0  0  0
   -3.3447    0.9839   -0.3531 C   0  0  0  0  0  0  0  0  0  0  0  0
   -4.7284    1.1347   -0.4039 C   0  0  0  0  0  0  0  0  0  0  0  0
   -5.5441    0.0073   -0.3982 C   0  0  0  0  0  0  0  0  0  0  0  0
   -4.9791   -1.2723   -0.3332 C   0  0  0  0  0  0  0  0  0  0  0  0
   -6.0822   -2.6084   -0.3126 Cl  0  0  0  0  0  0  0  0  0  0  0  0
   -3.5835   -1.4402   -0.2790 C   0  0  0  0  0  0  0  0  0  0  0  0
   -2.9216   -3.0362   -0.1176 Cl  0  0  0  0  0  0  0  0  0  0  0  0
    3.3621    0.3761   -1.9420 H   0  0  0  0  0  0  0  0  0  0  0  0
    3.2300   -1.2382   -1.2634 H   0  0  0  0  0  0  0  0  0  0  0  0
    4.5708    2.1703   -0.3438 H   0  0  0  0  0  0  0  0  0  0  0  0
    4.4587   -0.0876    3.1999 H   0  0  0  0  0  0  0  0  0  0  0  0
    2.5229   -0.7478    1.5718 H   0  0  0  0  0  0  0  0  0  0  0  0
    1.2533   -2.0428   -0.9335 H   0  0  0  0  0  0  0  0  0  0  0  0
   -0.8225    0.5953    0.1580 H   0  0  0  0  0  0  0  0  0  0  0  0
   -2.7171    1.8743   -0.3758 H   0  0  0  0  0  0  0  0  0  0  0  0
   -5.1691    2.1281   -0.4543 H   0  0  0  0  0  0  0  0  0  0  0  0
   -6.6246    0.1291   -0.4405 H   0  0  0  0  0  0  0  0  0  0  0  0
  1  2  2  0
  2  3  1  0
  3  4  1  0
  4  5  2  0
  5  6  1  0
  6  7  2  0
  6  8  1  0
  8  9  1  0
  2 10  1  0
 10 11  1  0
 11 12  2  3
 12 13  1  0
 13 14  2  0
 14 15  1  0
 15 16  2  0
 16 17  1  0
 17 18  1  0
 17 19  2  0
 19 20  1  0
  9  4  1  0
 19 13  1  0
  3 21  1  0
  3 22  1  0
  5 23  1  0
  8 24  1  0
  9 25  1  0
 10 26  1  0
 12 27  1  0
 14 28  1  0
 15 29  1  0
 16 30  1  0
M  END
$$$$
