
     RDKit          3D

 60 64  0  0  0  0  0  0  0  0999 V2000
   -5.9471   -2.3518    1.6265 C   0  0  0  0  0  0  0  0  0  0  0  0
   -5.3396   -2.6751    0.2684 C   0  0  0  0  0  0  0  0  0  0  0  0
   -3.8855   -2.1979    0.1283 C   0  0  0  0  0  0  0  0  0  0  0  0
   -3.2706   -2.9176   -0.9832 N   0  0  0  0  0  0  0  0  0  0  0  0
   -1.9458   -2.5237   -1.2070 C   0  0  0  0  0  0  0  0  0  0  0  0
   -1.1477   -3.4981   -1.6650 N   0  0  0  0  0  0  0  0  0  0  0  0
    0.0957   -3.1318   -1.9672 C   0  0  0  0  0  0  0  0  0  0  0  0
    0.6113   -1.9077   -1.8264 N   0  0  0  0  0  0  0  0  0  0  0  0
   -0.1977   -0.9440   -1.3309 C   0  0  0  0  0  0  0  0  0  0  0  0
    0.4103    0.2992   -1.0504 N   0  0  0  0  0  0  0  0  0  0  0  0
    1.3352    0.7415   -2.1300 C   0  0  0  0  0  0  0  0  0  0  0  0
    2.8225    0.4438   -1.8323 C   0  0  0  0  0  0  0  0  0  0  0  0
    3.2689    1.0687   -0.5554 N   0  0  0  0  0  0  0  0  0  0  0  0
    4.5070    0.5695   -0.1254 C   0  0  0  0  0  0  0  0  0  0  0  0
    4.6771   -0.2040    1.0303 C   0  0  0  0  0  0  0  0  0  0  0  0
    5.9369   -0.6901    1.4022 C   0  0  0  0  0  0  0  0  0  0  0  0
    7.0547   -0.4095    0.6224 C   0  0  0  0  0  0  0  0  0  0  0  0
    6.9135    0.3588   -0.5272 C   0  0  0  0  0  0  0  0  0  0  0  0
    5.6524    0.8386   -0.8935 C   0  0  0  0  0  0  0  0  0  0  0  0
    2.1822    1.2818    0.4298 C   0  0  0  0  0  0  0  0  0  0  0  0
    1.0702    0.2214    0.2876 C   0  0  0  0  0  0  0  0  0  0  0  0
   -1.5427   -1.1932   -1.0194 C   0  0  0  0  0  0  0  0  0  0  0  0
   -2.5208   -0.2304   -0.5643 N   0  0  0  0  0  0  0  0  0  0  0  0
   -2.3654    1.1985   -0.8335 C   0  0  0  0  0  0  0  0  0  0  0  0
   -1.8812    2.0488    0.3261 C   0  0  0  0  0  0  0  0  0  0  0  0
   -2.2538    1.8031    1.6552 C   0  0  0  0  0  0  0  0  0  0  0  0
   -1.8191    2.6390    2.6860 C   0  0  0  0  0  0  0  0  0  0  0  0
   -1.0194    3.7429    2.4019 C   0  0  0  0  0  0  0  0  0  0  0  0
   -0.6583    4.0163    1.0864 C   0  0  0  0  0  0  0  0  0  0  0  0
   -1.0928    3.1805    0.0566 C   0  0  0  0  0  0  0  0  0  0  0  0
   -3.7812   -0.6740   -0.1268 C   0  0  0  0  0  0  0  0  0  0  0  0
   -4.7119    0.0946    0.1143 O   0  0  0  0  0  0  0  0  0  0  0  0
   -6.9596   -2.7658    1.6896 H   0  0  0  0  0  0  0  0  0  0  0  0
   -6.0171   -1.2733    1.7961 H   0  0  0  0  0  0  0  0  0  0  0  0
   -5.3575   -2.7876    2.4373 H   0  0  0  0  0  0  0  0  0  0  0  0
   -5.3861   -3.7640    0.1341 H   0  0  0  0  0  0  0  0  0  0  0  0
   -5.9625   -2.2374   -0.5219 H   0  0  0  0  0  0  0  0  0  0  0  0
   -3.3410   -2.4200    1.0565 H   0  0  0  0  0  0  0  0  0  0  0  0
   -3.3022   -3.9323   -0.9591 H   0  0  0  0  0  0  0  0  0  0  0  0
    0.7516   -3.8973   -2.3567 H   0  0  0  0  0  0  0  0  0  0  0  0
    1.0505    0.3250   -3.1051 H   0  0  0  0  0  0  0  0  0  0  0  0
    1.2121    1.8282   -2.2261 H   0  0  0  0  0  0  0  0  0  0  0  0
    2.9732   -0.6424   -1.7907 H   0  0  0  0  0  0  0  0  0  0  0  0
    3.4228    0.8350   -2.6622 H   0  0  0  0  0  0  0  0  0  0  0  0
    3.8310   -0.4697    1.6551 H   0  0  0  0  0  0  0  0  0  0  0  0
    6.0398   -1.2936    2.2996 H   0  0  0  0  0  0  0  0  0  0  0  0
    8.0326   -0.7857    0.9109 H   0  0  0  0  0  0  0  0  0  0  0  0
    7.7798    0.5903   -1.1398 H   0  0  0  0  0  0  0  0  0  0  0  0
    5.5681    1.4548   -1.7851 H   0  0  0  0  0  0  0  0  0  0  0  0
    2.5508    1.3197    1.4615 H   0  0  0  0  0  0  0  0  0  0  0  0
    1.7612    2.2748    0.2325 H   0  0  0  0  0  0  0  0  0  0  0  0
    1.5152   -0.7697    0.4558 H   0  0  0  0  0  0  0  0  0  0  0  0
    0.3205    0.3745    1.0704 H   0  0  0  0  0  0  0  0  0  0  0  0
   -3.3433    1.6059   -1.1267 H   0  0  0  0  0  0  0  0  0  0  0  0
   -1.7383    1.3375   -1.7220 H   0  0  0  0  0  0  0  0  0  0  0  0
   -2.8988    0.9666    1.9066 H   0  0  0  0  0  0  0  0  0  0  0  0
   -2.1208    2.4352    3.7100 H   0  0  0  0  0  0  0  0  0  0  0  0
   -0.6898    4.3966    3.2037 H   0  0  0  0  0  0  0  0  0  0  0  0
   -0.0450    4.8834    0.8580 H   0  0  0  0  0  0  0  0  0  0  0  0
   -0.8043    3.4134   -0.9666 H   0  0  0  0  0  0  0  0  0  0  0  0
  1  2  1  0
  2  3  1  0
  3  4  1  0
  4  5  1  0
  5  6  2  0
  6  7  1  0
  7  8  2  0
  8  9  1  0
  9 10  1  0
 10 11  1  0
 11 12  1  0
 12 13  1  0
 13 14  1  0
 14 15  2  0
 15 16  1  0
 16 17  2  0
 17 18  1  0
 18 19  2  0
 13 20  1  0
 20 21  1  0
  9 22  2  0
 22 23  1  0
 23 24  1  0
 24 25  1  0
 25 26  2  0
 26 27  1  0
 27 28  2  0
 28 29  1  0
 29 30  2  0
 23 31  1  0
 31 32  2  0
 31  3  1  0
 22  5  1  0
 30 25  1  0
 21 10  1  0
 19 14  1  0
  1 33  1  0
  1 34  1  0
  1 35  1  0
  2 36  1  0
  2 37  1  0
  3 38  1  0
  4 39  1  0
  7 40  1  0
 11 41  1  0
 11 42  1  0
 12 43  1  0
 12 44  1  0
 15 45  1  0
 16 46  1  0
 17 47  1  0
 18 48  1  0
 19 49  1  0
 20 50  1  0
 20 51  1  0
 21 52  1  0
 21 53  1  0
 24 54  1  0
 24 55  1  0
 26 56  1  0
 27 57  1  0
 28 58  1  0
 29 59  1  0
 30 60  1  0
M  END
$$$$
