
     RDKit          3D

 39 41  0  0  0  0  0  0  0  0999 V2000
    4.1899   -2.0345   -1.6402 C   0  0  0  0  0  0  0  0  0  0  0  0
    4.4885   -0.9536   -0.6671 C   0  0  0  0  0  0  0  0  0  0  0  0
    5.7169   -0.8533   -0.1390 N   0  0  0  0  0  0  0  0  0  0  0  0
    5.6340    0.2026    0.6848 N   0  0  0  0  0  0  0  0  0  0  0  0
    6.7952    0.6031    1.4412 C   0  0  0  0  0  0  0  0  0  0  0  0
    4.4034    0.7854    0.6988 C   0  0  0  0  0  0  0  0  0  0  0  0
    3.6182    0.0586   -0.1750 C   0  0  0  0  0  0  0  0  0  0  0  0
    2.2294    0.3348   -0.4636 C   0  0  0  0  0  0  0  0  0  0  0  0
    1.6036   -0.4058   -1.3207 N   0  0  0  0  0  0  0  0  0  0  0  0
    0.2724   -0.1508   -1.5591 N   0  0  0  0  0  0  0  0  0  0  0  0
   -0.6535    0.2791   -0.6095 C   0  0  0  0  0  0  0  0  0  0  0  0
   -0.3745    0.5727    0.5497 O   0  0  0  0  0  0  0  0  0  0  0  0
   -2.0412    0.3251   -1.0998 C   0  0  0  0  0  0  0  0  0  0  0  0
   -2.3995    0.4884   -2.4301 C   0  0  0  0  0  0  0  0  0  0  0  0
   -4.0908    0.5229   -2.6778 S   0  0  0  0  0  0  0  0  0  0  0  0
   -4.3866    0.3523   -1.0160 C   0  0  0  0  0  0  0  0  0  0  0  0
   -3.2252    0.2509   -0.2721 C   0  0  0  0  0  0  0  0  0  0  0  0
   -3.2623    0.1055    1.2258 C   0  0  0  0  0  0  0  0  0  0  0  0
   -4.6555   -0.2990    1.7330 C   0  0  0  0  0  0  0  0  0  0  0  0
   -5.7651    0.5149    1.0549 C   0  0  0  0  0  0  0  0  0  0  0  0
   -5.7783    0.2929   -0.4643 C   0  0  0  0  0  0  0  0  0  0  0  0
    3.8868   -1.6109   -2.6029 H   0  0  0  0  0  0  0  0  0  0  0  0
    3.3832   -2.6738   -1.2679 H   0  0  0  0  0  0  0  0  0  0  0  0
    5.0648   -2.6694   -1.8155 H   0  0  0  0  0  0  0  0  0  0  0  0
    7.5982    0.8428    0.7395 H   0  0  0  0  0  0  0  0  0  0  0  0
    6.5519    1.4816    2.0440 H   0  0  0  0  0  0  0  0  0  0  0  0
    7.0862   -0.2263    2.0907 H   0  0  0  0  0  0  0  0  0  0  0  0
    4.1868    1.6467    1.3154 H   0  0  0  0  0  0  0  0  0  0  0  0
    1.7831    1.2028    0.0493 H   0  0  0  0  0  0  0  0  0  0  0  0
   -0.0903   -0.6615   -2.3573 H   0  0  0  0  0  0  0  0  0  0  0  0
   -1.7540    0.6127   -3.2889 H   0  0  0  0  0  0  0  0  0  0  0  0
   -2.5341   -0.6437    1.5558 H   0  0  0  0  0  0  0  0  0  0  0  0
   -2.9793    1.0656    1.6749 H   0  0  0  0  0  0  0  0  0  0  0  0
   -4.8221   -1.3659    1.5362 H   0  0  0  0  0  0  0  0  0  0  0  0
   -4.7015   -0.1635    2.8195 H   0  0  0  0  0  0  0  0  0  0  0  0
   -6.7403    0.2405    1.4725 H   0  0  0  0  0  0  0  0  0  0  0  0
   -5.6119    1.5802    1.2703 H   0  0  0  0  0  0  0  0  0  0  0  0
   -6.4223    1.0440   -0.9357 H   0  0  0  0  0  0  0  0  0  0  0  0
   -6.2044   -0.6941   -0.6830 H   0  0  0  0  0  0  0  0  0  0  0  0
  1  2  1  0
  2  3  2  0
  3  4  1  0
  4  5  1  0
  4  6  1  0
  6  7  2  0
  7  8  1  0
  8  9  2  3
  9 10  1  0
 10 11  1  0
 11 12  2  0
 11 13  1  0
 13 14  2  0
 14 15  1  0
 15 16  1  0
 16 17  2  0
 17 18  1  0
 18 19  1  0
 19 20  1  0
 20 21  1  0
  7  2  1  0
 17 13  1  0
 21 16  1  0
  1 22  1  0
  1 23  1  0
  1 24  1  0
  5 25  1  0
  5 26  1  0
  5 27  1  0
  6 28  1  0
  8 29  1  0
 10 30  1  0
 14 31  1  0
 18 32  1  0
 18 33  1  0
 19 34  1  0
 19 35  1  0
 20 36  1  0
 20 37  1  0
 21 38  1  0
 21 39  1  0
M  END
$$$$
