
     RDKit          3D

 42 44  0  0  0  0  0  0  0  0999 V2000
    2.4107   -3.3616    4.3635 N   0  0  0  0  0  0  0  0  0  0  0  0
    2.9823   -3.1583    3.3739 C   0  0  0  0  0  0  0  0  0  0  0  0
    3.6753   -2.8977    2.1546 C   0  0  0  0  0  0  0  0  0  0  0  0
    4.9442   -3.5312    2.0036 C   0  0  0  0  0  0  0  0  0  0  0  0
    5.9789   -4.0394    1.8685 N   0  0  0  0  0  0  0  0  0  0  0  0
    3.1692   -2.0863    1.1905 C   0  0  0  0  0  0  0  0  0  0  0  0
    1.8813   -1.3946    1.3233 C   0  0  0  0  0  0  0  0  0  0  0  0
    1.3024   -0.6894    0.3324 C   0  0  0  0  0  0  0  0  0  0  0  0
    0.0257   -0.0204    0.5388 C   0  0  0  0  0  0  0  0  0  0  0  0
   -0.6893    0.5920   -0.4297 C   0  0  0  0  0  0  0  0  0  0  0  0
   -1.9155    1.2476   -0.1996 N   0  0  0  0  0  0  0  0  0  0  0  0
   -2.4765    2.2222   -1.1572 C   0  0  0  0  0  0  0  0  0  0  0  0
   -3.2938    3.2917   -0.4393 C   0  0  0  0  0  0  0  0  0  0  0  0
   -4.4724    2.6923    0.3209 C   0  0  0  0  0  0  0  0  0  0  0  0
   -4.2061    1.2559    0.7582 C   0  0  0  0  0  0  0  0  0  0  0  0
   -2.7234    1.0042    1.0137 C   0  0  0  0  0  0  0  0  0  0  0  0
   -0.1709    0.5600   -1.8631 C   0  0  0  0  0  0  0  0  0  0  0  0
    0.8466   -0.5520   -2.1241 C   0  0  0  0  0  0  0  0  0  0  0  0
    1.9252   -0.5593   -1.0400 C   0  0  0  0  0  0  0  0  0  0  0  0
    2.9429   -1.6757   -1.2988 C   0  0  0  0  0  0  0  0  0  0  0  0
    3.9021   -1.8094   -0.1170 C   0  0  0  0  0  0  0  0  0  0  0  0
    1.3617   -1.4600    2.2788 H   0  0  0  0  0  0  0  0  0  0  0  0
   -0.3448   -0.0111    1.5599 H   0  0  0  0  0  0  0  0  0  0  0  0
   -3.0955    1.6954   -1.8932 H   0  0  0  0  0  0  0  0  0  0  0  0
   -1.6741    2.7322   -1.7021 H   0  0  0  0  0  0  0  0  0  0  0  0
   -3.6567    4.0383   -1.1547 H   0  0  0  0  0  0  0  0  0  0  0  0
   -2.6451    3.8247    0.2680 H   0  0  0  0  0  0  0  0  0  0  0  0
   -4.6885    3.3187    1.1946 H   0  0  0  0  0  0  0  0  0  0  0  0
   -5.3736    2.7131   -0.3035 H   0  0  0  0  0  0  0  0  0  0  0  0
   -4.5566    0.5717   -0.0255 H   0  0  0  0  0  0  0  0  0  0  0  0
   -4.7913    1.0282    1.6562 H   0  0  0  0  0  0  0  0  0  0  0  0
   -2.6185   -0.0381    1.3376 H   0  0  0  0  0  0  0  0  0  0  0  0
   -2.3612    1.6458    1.8259 H   0  0  0  0  0  0  0  0  0  0  0  0
   -1.0032    0.4151   -2.5623 H   0  0  0  0  0  0  0  0  0  0  0  0
    0.2876    1.5298   -2.0936 H   0  0  0  0  0  0  0  0  0  0  0  0
    1.2991   -0.4065   -3.1124 H   0  0  0  0  0  0  0  0  0  0  0  0
    0.3282   -1.5202   -2.1522 H   0  0  0  0  0  0  0  0  0  0  0  0
    2.4551    0.4040   -1.0736 H   0  0  0  0  0  0  0  0  0  0  0  0
    2.4313   -2.6334   -1.4656 H   0  0  0  0  0  0  0  0  0  0  0  0
    3.5111   -1.4565   -2.2109 H   0  0  0  0  0  0  0  0  0  0  0  0
    4.4772   -0.8806   -0.0067 H   0  0  0  0  0  0  0  0  0  0  0  0
    4.6185   -2.6012   -0.3605 H   0  0  0  0  0  0  0  0  0  0  0  0
  1  2  3  0
  2  3  1  0
  3  4  1  0
  4  5  3  0
  3  6  2  3
  6  7  1  0
  7  8  2  0
  8  9  1  0
  9 10  2  0
 10 11  1  0
 11 12  1  0
 12 13  1  0
 13 14  1  0
 14 15  1  0
 15 16  1  0
 10 17  1  0
 17 18  1  0
 18 19  1  0
 19 20  1  0
 20 21  1  0
 21  6  1  0
 19  8  1  0
 16 11  1  0
  7 22  1  0
  9 23  1  0
 12 24  1  0
 12 25  1  0
 13 26  1  0
 13 27  1  0
 14 28  1  0
 14 29  1  0
 15 30  1  0
 15 31  1  0
 16 32  1  0
 16 33  1  0
 17 34  1  0
 17 35  1  0
 18 36  1  0
 18 37  1  0
 19 38  1  0
 20 39  1  0
 20 40  1  0
 21 41  1  0
 21 42  1  0
M  END
$$$$
