
     RDKit          3D

 67 71  0  0  0  0  0  0  0  0999 V2000
   -8.5275   -1.4950    2.4149 C   0  0  0  0  0  0  0  0  0  0  0  0
   -7.1374   -1.1954    2.4117 O   0  0  0  0  0  0  0  0  0  0  0  0
   -6.3530   -2.3520    2.1371 C   0  0  0  0  0  0  0  0  0  0  0  0
   -4.9190   -1.9447    2.2140 C   0  0  0  0  0  0  0  0  0  0  0  0
   -4.0533   -2.0225    1.1896 C   0  0  0  0  0  0  0  0  0  0  0  0
   -2.6727   -1.5886    1.2842 C   0  0  0  0  0  0  0  0  0  0  0  0
   -1.7379   -2.5095    1.6163 C   0  0  0  0  0  0  0  0  0  0  0  0
   -0.3348   -2.1044    1.7352 C   0  0  0  0  0  0  0  0  0  0  0  0
    0.6105   -3.0283    1.9561 C   0  0  0  0  0  0  0  0  0  0  0  0
    2.0424   -2.6709    2.0790 C   0  0  0  0  0  0  0  0  0  0  0  0
    2.8647   -3.5878    2.1529 O   0  0  0  0  0  0  0  0  0  0  0  0
    2.4517   -1.1991    2.1796 C   0  0  0  0  0  0  0  0  0  0  0  0
    2.7560   -0.9351    3.6630 C   0  0  0  0  0  0  0  0  0  0  0  0
    3.6827   -0.9345    1.4803 O   0  0  0  0  0  0  0  0  0  0  0  0
    3.6201   -1.0974    0.1295 C   0  0  0  0  0  0  0  0  0  0  0  0
    2.6372   -1.5091   -0.4674 O   0  0  0  0  0  0  0  0  0  0  0  0
    4.8994   -0.6804   -0.5115 C   0  0  0  0  0  0  0  0  0  0  0  0
    5.9681   -0.1990    0.2255 C   0  0  0  0  0  0  0  0  0  0  0  0
    7.1281    0.2093   -0.3478 N   0  0  0  0  0  0  0  0  0  0  0  0
    7.1912    0.1304   -1.6916 C   0  0  0  0  0  0  0  0  0  0  0  0
    8.3426    0.5425   -2.3525 C   0  0  0  0  0  0  0  0  0  0  0  0
    8.4449    0.4785   -3.7434 C   0  0  0  0  0  0  0  0  0  0  0  0
    7.3767   -0.0052   -4.4876 C   0  0  0  0  0  0  0  0  0  0  0  0
    6.2152   -0.4219   -3.8346 C   0  0  0  0  0  0  0  0  0  0  0  0
    6.1004   -0.3643   -2.4515 C   0  0  0  0  0  0  0  0  0  0  0  0
    4.9589   -0.7732   -1.8654 N   0  0  0  0  0  0  0  0  0  0  0  0
    1.3815   -0.1906    1.7669 C   0  0  0  0  0  0  0  0  0  0  0  0
    1.6532    1.0029    1.6054 O   0  0  0  0  0  0  0  0  0  0  0  0
   -0.0050   -0.6936    1.5963 C   0  0  0  0  0  0  0  0  0  0  0  0
   -0.9972    0.1583    1.2816 C   0  0  0  0  0  0  0  0  0  0  0  0
   -2.3316   -0.2320    1.0592 N   0  0  0  0  0  0  0  0  0  0  0  0
   -3.3475    0.7900    0.7022 C   0  0  0  0  0  0  0  0  0  0  0  0
   -2.9210    1.6602   -0.4665 C   0  0  0  0  0  0  0  0  0  0  0  0
   -2.4999    1.0904   -1.6756 C   0  0  0  0  0  0  0  0  0  0  0  0
   -2.0947    1.9033   -2.7384 C   0  0  0  0  0  0  0  0  0  0  0  0
   -2.1226    3.2951   -2.6210 C   0  0  0  0  0  0  0  0  0  0  0  0
   -1.6907    3.9751   -3.7267 O   0  0  0  0  0  0  0  0  0  0  0  0
   -1.9067    5.3787   -3.7420 C   0  0  0  0  0  0  0  0  0  0  0  0
   -2.5558    3.8701   -1.4268 C   0  0  0  0  0  0  0  0  0  0  0  0
   -2.9562    3.0581   -0.3581 C   0  0  0  0  0  0  0  0  0  0  0  0
   -9.0847   -0.5647    2.5602 H   0  0  0  0  0  0  0  0  0  0  0  0
   -8.7649   -2.1770    3.2365 H   0  0  0  0  0  0  0  0  0  0  0  0
   -8.8298   -1.9382    1.4609 H   0  0  0  0  0  0  0  0  0  0  0  0
   -6.6074   -2.7479    1.1472 H   0  0  0  0  0  0  0  0  0  0  0  0
   -6.5491   -3.1254    2.8886 H   0  0  0  0  0  0  0  0  0  0  0  0
   -4.5862   -1.5661    3.1776 H   0  0  0  0  0  0  0  0  0  0  0  0
   -4.3697   -2.3829    0.2129 H   0  0  0  0  0  0  0  0  0  0  0  0
   -2.0053   -3.5472    1.7903 H   0  0  0  0  0  0  0  0  0  0  0  0
    0.3894   -4.0875    2.0315 H   0  0  0  0  0  0  0  0  0  0  0  0
    1.8797   -1.1133    4.2954 H   0  0  0  0  0  0  0  0  0  0  0  0
    3.0867    0.0990    3.8202 H   0  0  0  0  0  0  0  0  0  0  0  0
    3.5704   -1.5779    4.0190 H   0  0  0  0  0  0  0  0  0  0  0  0
    5.9397   -0.1119    1.3053 H   0  0  0  0  0  0  0  0  0  0  0  0
    9.1776    0.9220   -1.7678 H   0  0  0  0  0  0  0  0  0  0  0  0
    9.3564    0.8051   -4.2391 H   0  0  0  0  0  0  0  0  0  0  0  0
    7.4402   -0.0584   -5.5717 H   0  0  0  0  0  0  0  0  0  0  0  0
    5.3783   -0.8002   -4.4166 H   0  0  0  0  0  0  0  0  0  0  0  0
   -0.8110    1.2228    1.1560 H   0  0  0  0  0  0  0  0  0  0  0  0
   -3.5343    1.4088    1.5895 H   0  0  0  0  0  0  0  0  0  0  0  0
   -4.3111    0.3486    0.4222 H   0  0  0  0  0  0  0  0  0  0  0  0
   -2.4595    0.0091   -1.7867 H   0  0  0  0  0  0  0  0  0  0  0  0
   -1.7488    1.4461   -3.6626 H   0  0  0  0  0  0  0  0  0  0  0  0
   -1.6017    5.7516   -4.7243 H   0  0  0  0  0  0  0  0  0  0  0  0
   -1.2890    5.8799   -2.9910 H   0  0  0  0  0  0  0  0  0  0  0  0
   -2.9661    5.6198   -3.6077 H   0  0  0  0  0  0  0  0  0  0  0  0
   -2.5808    4.9455   -1.2849 H   0  0  0  0  0  0  0  0  0  0  0  0
   -3.2805    3.5321    0.5669 H   0  0  0  0  0  0  0  0  0  0  0  0
  1  2  1  0
  2  3  1  0
  3  4  1  0
  4  5  2  3
  5  6  1  0
  6  7  2  0
  7  8  1  0
  8  9  2  0
  9 10  1  0
 10 11  2  0
 10 12  1  0
 12 13  1  0
 12 14  1  0
 14 15  1  0
 15 16  2  0
 15 17  1  0
 17 18  2  0
 18 19  1  0
 19 20  2  0
 20 21  1  0
 21 22  2  0
 22 23  1  0
 23 24  2  0
 24 25  1  0
 25 26  2  0
 12 27  1  0
 27 28  2  0
 27 29  1  0
 29 30  2  0
 30 31  1  0
 31 32  1  0
 32 33  1  0
 33 34  2  0
 34 35  1  0
 35 36  2  0
 36 37  1  0
 37 38  1  0
 36 39  1  0
 39 40  2  0
 31  6  1  0
 40 33  1  0
 29  8  1  0
 26 17  1  0
 25 20  1  0
  1 41  1  0
  1 42  1  0
  1 43  1  0
  3 44  1  0
  3 45  1  0
  4 46  1  0
  5 47  1  0
  7 48  1  0
  9 49  1  0
 13 50  1  0
 13 51  1  0
 13 52  1  0
 18 53  1  0
 21 54  1  0
 22 55  1  0
 23 56  1  0
 24 57  1  0
 30 58  1  0
 32 59  1  0
 32 60  1  0
 34 61  1  0
 35 62  1  0
 38 63  1  0
 38 64  1  0
 38 65  1  0
 39 66  1  0
 40 67  1  0
M  END
$$$$
