
     RDKit          3D

 40 41  0  0  0  0  0  0  0  0999 V2000
   -5.3974    0.6287   -1.4583 C   0  0  0  0  0  0  0  0  0  0  0  0
   -4.0655    1.2751   -1.0756 C   0  0  0  0  0  0  0  0  0  0  0  0
   -4.0151    1.6131    0.4252 C   0  0  0  0  0  0  0  0  0  0  0  0
   -3.2202    0.5871    1.2253 C   0  0  0  0  0  0  0  0  0  0  0  0
   -1.8497    0.4621    0.7338 N   0  0  0  0  0  0  0  0  0  0  0  0
   -0.8986   -0.0693    1.6046 C   0  0  0  0  0  0  0  0  0  0  0  0
   -1.1755   -0.5173    2.7148 O   0  0  0  0  0  0  0  0  0  0  0  0
    0.5225   -0.0981    1.1874 C   0  0  0  0  0  0  0  0  0  0  0  0
    1.2313   -1.2972    1.2880 C   0  0  0  0  0  0  0  0  0  0  0  0
    2.5794   -1.3468    0.9160 C   0  0  0  0  0  0  0  0  0  0  0  0
    3.2379   -0.1918    0.4867 C   0  0  0  0  0  0  0  0  0  0  0  0
    4.5794   -0.1924   -0.0046 N   0  0  0  0  0  0  0  0  0  0  0  0
    5.7873   -1.1446    0.6755 S   0  0  0  0  0  6  0  0  0  0  0  0
    5.8250   -2.5208   -0.4529 C   0  0  0  0  0  0  0  0  0  0  0  0
    5.3956   -1.6131    1.9845 O   0  0  0  0  0  0  0  0  0  0  0  0
    7.0130   -0.3987    0.4784 O   0  0  0  0  0  0  0  0  0  0  0  0
    2.5164    1.0041    0.3803 C   0  0  0  0  0  0  0  0  0  0  0  0
    1.1687    1.0600    0.7487 C   0  0  0  0  0  0  0  0  0  0  0  0
   -1.6320    0.6640   -0.7017 C   0  0  0  0  0  0  0  0  0  0  0  0
   -2.8948    0.3773   -1.5086 C   0  0  0  0  0  0  0  0  0  0  0  0
   -5.4278    0.4076   -2.5305 H   0  0  0  0  0  0  0  0  0  0  0  0
   -6.2334    1.2988   -1.2317 H   0  0  0  0  0  0  0  0  0  0  0  0
   -5.5569   -0.3075   -0.9126 H   0  0  0  0  0  0  0  0  0  0  0  0
   -3.9960    2.2221   -1.6273 H   0  0  0  0  0  0  0  0  0  0  0  0
   -3.5299    2.5915    0.5424 H   0  0  0  0  0  0  0  0  0  0  0  0
   -5.0232    1.7179    0.8421 H   0  0  0  0  0  0  0  0  0  0  0  0
   -3.6886   -0.4025    1.1621 H   0  0  0  0  0  0  0  0  0  0  0  0
   -3.2016    0.8733    2.2831 H   0  0  0  0  0  0  0  0  0  0  0  0
    0.7359   -2.1934    1.6558 H   0  0  0  0  0  0  0  0  0  0  0  0
    3.0923   -2.3001    0.9906 H   0  0  0  0  0  0  0  0  0  0  0  0
    4.9668    0.7158   -0.2652 H   0  0  0  0  0  0  0  0  0  0  0  0
    6.0192   -2.1477   -1.4603 H   0  0  0  0  0  0  0  0  0  0  0  0
    4.8747   -3.0537   -0.4095 H   0  0  0  0  0  0  0  0  0  0  0  0
    6.6346   -3.1854   -0.1430 H   0  0  0  0  0  0  0  0  0  0  0  0
    2.9981    1.9118    0.0259 H   0  0  0  0  0  0  0  0  0  0  0  0
    0.6342    2.0051    0.7033 H   0  0  0  0  0  0  0  0  0  0  0  0
   -0.8234    0.0172   -1.0554 H   0  0  0  0  0  0  0  0  0  0  0  0
   -1.3242    1.7062   -0.8433 H   0  0  0  0  0  0  0  0  0  0  0  0
   -2.6967    0.5214   -2.5772 H   0  0  0  0  0  0  0  0  0  0  0  0
   -3.1621   -0.6799   -1.3793 H   0  0  0  0  0  0  0  0  0  0  0  0
  1  2  1  0
  2  3  1  0
  3  4  1  0
  4  5  1  0
  5  6  1  0
  6  7  2  0
  6  8  1  0
  8  9  2  0
  9 10  1  0
 10 11  2  0
 11 12  1  0
 12 13  1  0
 13 14  1  0
 13 15  2  0
 13 16  2  0
 11 17  1  0
 17 18  2  0
  5 19  1  0
 19 20  1  0
 20  2  1  0
 18  8  1  0
  1 21  1  0
  1 22  1  0
  1 23  1  0
  2 24  1  0
  3 25  1  0
  3 26  1  0
  4 27  1  0
  4 28  1  0
  9 29  1  0
 10 30  1  0
 12 31  1  0
 14 32  1  0
 14 33  1  0
 14 34  1  0
 17 35  1  0
 18 36  1  0
 19 37  1  0
 19 38  1  0
 20 39  1  0
 20 40  1  0
M  END
$$$$
