
     RDKit          3D

 42 43  0  0  0  0  0  0  0  0999 V2000
   -2.8407    1.8903   -0.5577 C   0  0  0  0  0  0  0  0  0  0  0  0
   -2.7445    0.6637    0.3648 C   0  0  0  0  0  0  0  0  0  0  0  0
   -4.1427    0.3899    0.9583 C   0  0  0  0  0  0  0  0  0  0  0  0
   -1.7924    0.9702    1.5308 C   0  0  0  0  0  0  0  0  0  0  0  0
   -2.3043   -0.5988   -0.4202 C   0  0  0  0  0  0  0  0  0  0  0  0
   -1.0950   -0.3937   -1.2378 N   0  0  0  0  0  0  0  0  0  0  0  0
   -1.0701   -0.9386   -2.4948 C   0  0  0  0  0  0  0  0  0  0  0  0
   -2.0080   -0.5046   -3.3568 N   0  0  0  0  0  0  0  0  0  0  0  0
   -0.1374   -1.7868   -2.8077 N   0  0  0  0  0  0  0  0  0  0  0  0
    0.5949   -1.9740   -1.5243 C   0  0  0  0  0  0  0  0  0  0  0  0
    0.1908   -0.7863   -0.6263 C   0  0  0  0  0  0  0  0  0  0  0  0
    1.1934    0.3801   -0.7472 C   0  0  0  0  0  0  0  0  0  0  0  0
    2.4533    0.1630    0.0599 C   0  0  0  0  0  0  0  0  0  0  0  0
    3.6512   -0.1953   -0.5738 C   0  0  0  0  0  0  0  0  0  0  0  0
    4.8106   -0.4063    0.1737 C   0  0  0  0  0  0  0  0  0  0  0  0
    4.7774   -0.2569    1.5542 C   0  0  0  0  0  0  0  0  0  0  0  0
    5.9332   -0.4718    2.2446 O   0  0  0  0  0  0  0  0  0  0  0  0
    3.6010    0.1017    2.2032 C   0  0  0  0  0  0  0  0  0  0  0  0
    2.4402    0.3116    1.4551 C   0  0  0  0  0  0  0  0  0  0  0  0
   -3.2295    2.7607   -0.0167 H   0  0  0  0  0  0  0  0  0  0  0  0
   -1.8621    2.1699   -0.9625 H   0  0  0  0  0  0  0  0  0  0  0  0
   -3.5120    1.6975   -1.4019 H   0  0  0  0  0  0  0  0  0  0  0  0
   -4.5054    1.2479    1.5358 H   0  0  0  0  0  0  0  0  0  0  0  0
   -4.8768    0.1894    0.1696 H   0  0  0  0  0  0  0  0  0  0  0  0
   -4.1246   -0.4782    1.6269 H   0  0  0  0  0  0  0  0  0  0  0  0
   -2.1853    1.7789    2.1581 H   0  0  0  0  0  0  0  0  0  0  0  0
   -1.6538    0.0925    2.1716 H   0  0  0  0  0  0  0  0  0  0  0  0
   -0.8101    1.2911    1.1803 H   0  0  0  0  0  0  0  0  0  0  0  0
   -2.1581   -1.4438    0.2660 H   0  0  0  0  0  0  0  0  0  0  0  0
   -3.1362   -0.9009   -1.0710 H   0  0  0  0  0  0  0  0  0  0  0  0
   -2.1811    0.4880   -3.2684 H   0  0  0  0  0  0  0  0  0  0  0  0
   -1.7700   -0.7659   -4.3072 H   0  0  0  0  0  0  0  0  0  0  0  0
    0.2698   -2.9218   -1.0789 H   0  0  0  0  0  0  0  0  0  0  0  0
    1.6707   -2.0354   -1.7072 H   0  0  0  0  0  0  0  0  0  0  0  0
    0.0850   -1.1067    0.4164 H   0  0  0  0  0  0  0  0  0  0  0  0
    0.7331    1.3172   -0.4109 H   0  0  0  0  0  0  0  0  0  0  0  0
    1.4513    0.5592   -1.7999 H   0  0  0  0  0  0  0  0  0  0  0  0
    3.6910   -0.3142   -1.6549 H   0  0  0  0  0  0  0  0  0  0  0  0
    5.7368   -0.6850   -0.3209 H   0  0  0  0  0  0  0  0  0  0  0  0
    5.7632   -0.3196    3.1883 H   0  0  0  0  0  0  0  0  0  0  0  0
    3.5679    0.2239    3.2810 H   0  0  0  0  0  0  0  0  0  0  0  0
    1.5252    0.5978    1.9687 H   0  0  0  0  0  0  0  0  0  0  0  0
  1  2  1  0
  2  3  1  0
  2  4  1  0
  2  5  1  0
  5  6  1  0
  6  7  1  0
  7  8  1  0
  7  9  2  0
  9 10  1  0
 10 11  1  0
 11 12  1  0
 12 13  1  0
 13 14  2  0
 14 15  1  0
 15 16  2  0
 16 17  1  0
 16 18  1  0
 18 19  2  0
 11  6  1  0
 19 13  1  0
  1 20  1  0
  1 21  1  0
  1 22  1  0
  3 23  1  0
  3 24  1  0
  3 25  1  0
  4 26  1  0
  4 27  1  0
  4 28  1  0
  5 29  1  0
  5 30  1  0
  8 31  1  0
  8 32  1  0
 10 33  1  0
 10 34  1  0
 11 35  1  0
 12 36  1  0
 12 37  1  0
 14 38  1  0
 15 39  1  0
 17 40  1  0
 18 41  1  0
 19 42  1  0
M  END
$$$$
