
     RDKit          3D

 30 30  0  0  0  0  0  0  0  0999 V2000
    4.5049    0.4622    2.8545 C   0  0  0  0  0  0  0  0  0  0  0  0
    3.1992    0.8138    2.2972 N   0  0  0  0  0  0  0  0  0  0  0  0
    3.1775    2.0956    1.5909 C   0  0  0  0  0  0  0  0  0  0  0  0
    2.0716    0.0040    2.4751 C   0  0  0  0  0  0  0  0  0  0  0  0
    1.9514   -1.2940    3.5378 S   0  0  0  0  0  0  0  0  0  0  0  0
    0.6708    0.3903    1.4705 S   0  0  0  0  0  0  0  0  0  0  0  0
    1.1098   -0.6307    0.0306 C   0  0  0  0  0  0  0  0  0  0  0  0
    0.1110   -0.4389   -1.1002 C   0  0  0  0  0  0  0  0  0  0  0  0
    0.4990   -0.1864   -2.2379 O   0  0  0  0  0  0  0  0  0  0  0  0
   -1.2017   -0.6416   -0.7154 N   0  0  0  0  0  0  0  0  0  0  0  0
   -2.3689   -0.5953   -1.5113 C   0  0  0  0  0  0  0  0  0  0  0  0
   -2.3451   -0.4072   -2.8960 C   0  0  0  0  0  0  0  0  0  0  0  0
   -3.5373   -0.3733   -3.6291 C   0  0  0  0  0  0  0  0  0  0  0  0
   -4.7606   -0.5289   -2.9823 C   0  0  0  0  0  0  0  0  0  0  0  0
   -6.2198   -0.4860   -3.8916 Cl  0  0  0  0  0  0  0  0  0  0  0  0
   -4.8092   -0.7202   -1.6060 C   0  0  0  0  0  0  0  0  0  0  0  0
   -3.6180   -0.7535   -0.8777 C   0  0  0  0  0  0  0  0  0  0  0  0
   -3.7210   -0.9956    0.8348 Cl  0  0  0  0  0  0  0  0  0  0  0  0
    4.6703    1.0620    3.7545 H   0  0  0  0  0  0  0  0  0  0  0  0
    4.5871   -0.5970    3.1037 H   0  0  0  0  0  0  0  0  0  0  0  0
    5.2798    0.6927    2.1162 H   0  0  0  0  0  0  0  0  0  0  0  0
    3.4783    1.9235    0.5534 H   0  0  0  0  0  0  0  0  0  0  0  0
    3.8864    2.7833    2.0635 H   0  0  0  0  0  0  0  0  0  0  0  0
    2.1939    2.5682    1.6196 H   0  0  0  0  0  0  0  0  0  0  0  0
    2.1023   -0.3416   -0.3296 H   0  0  0  0  0  0  0  0  0  0  0  0
    1.1287   -1.6913    0.3004 H   0  0  0  0  0  0  0  0  0  0  0  0
   -1.3635   -0.7617    0.2830 H   0  0  0  0  0  0  0  0  0  0  0  0
   -1.4144   -0.2851   -3.4419 H   0  0  0  0  0  0  0  0  0  0  0  0
   -3.4978   -0.2249   -4.7059 H   0  0  0  0  0  0  0  0  0  0  0  0
   -5.7647   -0.8424   -1.1037 H   0  0  0  0  0  0  0  0  0  0  0  0
  1  2  1  0
  2  3  1  0
  2  4  1  0
  4  5  2  0
  4  6  1  0
  6  7  1  0
  7  8  1  0
  8  9  2  0
  8 10  1  0
 10 11  1  0
 11 12  2  0
 12 13  1  0
 13 14  2  0
 14 15  1  0
 14 16  1  0
 16 17  2  0
 17 18  1  0
 17 11  1  0
  1 19  1  0
  1 20  1  0
  1 21  1  0
  3 22  1  0
  3 23  1  0
  3 24  1  0
  7 25  1  0
  7 26  1  0
 10 27  1  0
 12 28  1  0
 13 29  1  0
 16 30  1  0
M  END
$$$$
