
     RDKit          3D

 32 34  0  0  0  0  0  0  0  0999 V2000
    4.6184   -0.2755    1.5249 C   0  0  0  0  0  0  0  0  0  0  0  0
    3.6300   -0.0043    0.4274 C   0  0  0  0  0  0  0  0  0  0  0  0
    4.0215    0.7255   -0.7068 C   0  0  0  0  0  0  0  0  0  0  0  0
    3.1232    1.0217   -1.7403 C   0  0  0  0  0  0  0  0  0  0  0  0
    1.8151    0.5632   -1.5793 C   0  0  0  0  0  0  0  0  0  0  0  0
    0.6988    0.6583   -2.3698 N   0  0  0  0  0  0  0  0  0  0  0  0
   -0.3607    0.0365   -1.7297 C   0  0  0  0  0  0  0  0  0  0  0  0
   -1.6446    0.0193   -2.3631 C   0  0  0  0  0  0  0  0  0  0  0  0
   -1.7335    0.2391   -3.7761 C   0  0  0  0  0  0  0  0  0  0  0  0
   -1.7611    0.4307   -4.9204 N   0  0  0  0  0  0  0  0  0  0  0  0
   -2.8088   -0.1626   -1.7052 C   0  0  0  0  0  0  0  0  0  0  0  0
   -2.9890   -0.3729   -0.3102 C   0  0  0  0  0  0  0  0  0  0  0  0
   -2.4791   -1.3523    0.5406 C   0  0  0  0  0  0  0  0  0  0  0  0
   -3.0021   -1.1326    1.8397 C   0  0  0  0  0  0  0  0  0  0  0  0
   -3.8283   -0.0476    1.7085 C   0  0  0  0  0  0  0  0  0  0  0  0
   -4.6474    0.6445    2.6519 N   0  0  0  0  0  4  0  0  0  0  0  0
   -5.3274    1.5951    2.2428 O   0  0  0  0  0  0  0  0  0  0  0  0
   -4.6139    0.2260    3.8179 O   0  0  0  0  0  1  0  0  0  0  0  0
   -3.8568    0.4071    0.4306 O   0  0  0  0  0  0  0  0  0  0  0  0
    0.0535   -0.4552   -0.5749 N   0  0  0  0  0  0  0  0  0  0  0  0
    1.3860   -0.1456   -0.4680 C   0  0  0  0  0  0  0  0  0  0  0  0
    2.2979   -0.4368    0.5568 C   0  0  0  0  0  0  0  0  0  0  0  0
    5.6109   -0.4823    1.1073 H   0  0  0  0  0  0  0  0  0  0  0  0
    4.3244   -1.1537    2.1130 H   0  0  0  0  0  0  0  0  0  0  0  0
    4.6827    0.5916    2.1916 H   0  0  0  0  0  0  0  0  0  0  0  0
    5.0497    1.0749   -0.7940 H   0  0  0  0  0  0  0  0  0  0  0  0
    3.4384    1.5798   -2.6171 H   0  0  0  0  0  0  0  0  0  0  0  0
    0.6725    1.1149   -3.2720 H   0  0  0  0  0  0  0  0  0  0  0  0
   -3.7419   -0.0903   -2.2635 H   0  0  0  0  0  0  0  0  0  0  0  0
   -1.7861   -2.1309    0.2451 H   0  0  0  0  0  0  0  0  0  0  0  0
   -2.8053   -1.6960    2.7416 H   0  0  0  0  0  0  0  0  0  0  0  0
    1.9628   -0.9898    1.4288 H   0  0  0  0  0  0  0  0  0  0  0  0
  1  2  1  0
  2  3  2  0
  3  4  1  0
  4  5  2  0
  5  6  1  0
  6  7  1  0
  7  8  1  0
  8  9  1  0
  9 10  3  0
  8 11  2  3
 11 12  1  0
 12 13  2  0
 13 14  1  0
 14 15  2  0
 15 16  1  0
 16 17  2  0
 16 18  1  0
 15 19  1  0
  7 20  2  0
 20 21  1  0
 21 22  2  0
 22  2  1  0
 21  5  1  0
 19 12  1  0
  1 23  1  0
  1 24  1  0
  1 25  1  0
  3 26  1  0
  4 27  1  0
  6 28  1  0
 11 29  1  0
 13 30  1  0
 14 31  1  0
 22 32  1  0
M  CHG  2  16   1  18  -1
M  END
$$$$
