
     RDKit          3D

 49 52  0  0  0  0  0  0  0  0999 V2000
   -1.7274    5.4033   -1.4926 C   0  0  0  0  0  0  0  0  0  0  0  0
   -1.4197    3.9362   -1.4421 C   0  0  0  0  0  0  0  0  0  0  0  0
   -1.3691    3.2655   -0.2162 C   0  0  0  0  0  0  0  0  0  0  0  0
   -1.0481    1.9069   -0.1636 C   0  0  0  0  0  0  0  0  0  0  0  0
   -0.7520    1.1926   -1.3343 C   0  0  0  0  0  0  0  0  0  0  0  0
   -0.4236   -0.2927   -1.3148 C   0  0  0  0  0  0  0  0  0  0  0  0
   -1.7010   -1.1330   -1.2627 C   0  0  0  0  0  0  0  0  0  0  0  0
   -1.5959   -1.7010    0.1257 C   0  0  0  0  0  0  0  0  0  0  0  0
   -2.6998   -2.4779    0.7369 C   0  0  0  0  0  0  0  0  0  0  0  0
   -3.8677   -2.7749    0.0253 C   0  0  0  0  0  0  0  0  0  0  0  0
   -4.8894   -3.5096    0.6332 C   0  0  0  0  0  0  0  0  0  0  0  0
   -4.7490   -3.9498    1.9488 C   0  0  0  0  0  0  0  0  0  0  0  0
   -3.5873   -3.6581    2.6611 C   0  0  0  0  0  0  0  0  0  0  0  0
   -2.5644   -2.9244    2.0575 C   0  0  0  0  0  0  0  0  0  0  0  0
   -0.4638   -1.4845    0.7245 N   0  0  0  0  0  0  0  0  0  0  0  0
    0.2978   -0.7202   -0.1131 N   0  0  0  0  0  0  0  0  0  0  0  0
    1.6304   -0.4443    0.1871 C   0  0  0  0  0  0  0  0  0  0  0  0
    2.2052   -0.9050    1.3876 C   0  0  0  0  0  0  0  0  0  0  0  0
    3.5392   -0.6477    1.7206 C   0  0  0  0  0  0  0  0  0  0  0  0
    4.3327    0.0781    0.8370 C   0  0  0  0  0  0  0  0  0  0  0  0
    6.0259    0.4074    1.2367 S   0  0  0  0  0  6  0  0  0  0  0  0
    6.7937   -0.9288    0.5532 N   0  0  0  0  0  0  0  0  0  0  0  0
    6.4538    1.5803    0.5121 O   0  0  0  0  0  0  0  0  0  0  0  0
    6.2009    0.2676    2.6641 O   0  0  0  0  0  0  0  0  0  0  0  0
    3.7977    0.5643   -0.3543 C   0  0  0  0  0  0  0  0  0  0  0  0
    2.4594    0.2988   -0.6704 C   0  0  0  0  0  0  0  0  0  0  0  0
   -0.7985    1.8737   -2.5613 C   0  0  0  0  0  0  0  0  0  0  0  0
   -1.1207    3.2325   -2.6130 C   0  0  0  0  0  0  0  0  0  0  0  0
   -2.4044    5.6887   -0.6806 H   0  0  0  0  0  0  0  0  0  0  0  0
   -2.2210    5.6666   -2.4340 H   0  0  0  0  0  0  0  0  0  0  0  0
   -0.8033    5.9827   -1.4033 H   0  0  0  0  0  0  0  0  0  0  0  0
   -1.5764    3.7958    0.7107 H   0  0  0  0  0  0  0  0  0  0  0  0
   -1.0172    1.4104    0.8055 H   0  0  0  0  0  0  0  0  0  0  0  0
    0.1476   -0.5591   -2.2134 H   0  0  0  0  0  0  0  0  0  0  0  0
   -1.6582   -1.9567   -1.9833 H   0  0  0  0  0  0  0  0  0  0  0  0
   -2.6213   -0.5599   -1.4044 H   0  0  0  0  0  0  0  0  0  0  0  0
   -4.0066   -2.4497   -1.0010 H   0  0  0  0  0  0  0  0  0  0  0  0
   -5.7969   -3.7396    0.0800 H   0  0  0  0  0  0  0  0  0  0  0  0
   -5.5455   -4.5209    2.4197 H   0  0  0  0  0  0  0  0  0  0  0  0
   -3.4759   -4.0003    3.6870 H   0  0  0  0  0  0  0  0  0  0  0  0
   -1.6627   -2.7023    2.6247 H   0  0  0  0  0  0  0  0  0  0  0  0
    1.5952   -1.4733    2.0879 H   0  0  0  0  0  0  0  0  0  0  0  0
    3.9353   -1.0131    2.6650 H   0  0  0  0  0  0  0  0  0  0  0  0
    6.1714   -1.4902   -0.0273 H   0  0  0  0  0  0  0  0  0  0  0  0
    7.2149   -1.4807    1.3025 H   0  0  0  0  0  0  0  0  0  0  0  0
    4.4048    1.1534   -1.0388 H   0  0  0  0  0  0  0  0  0  0  0  0
    2.0758    0.7003   -1.6039 H   0  0  0  0  0  0  0  0  0  0  0  0
   -0.5782    1.3529   -3.4907 H   0  0  0  0  0  0  0  0  0  0  0  0
   -1.1365    3.7398   -3.5752 H   0  0  0  0  0  0  0  0  0  0  0  0
  1  2  1  0
  2  3  2  0
  3  4  1  0
  4  5  2  0
  5  6  1  0
  6  7  1  0
  7  8  1  0
  8  9  1  0
  9 10  2  0
 10 11  1  0
 11 12  2  0
 12 13  1  0
 13 14  2  0
  8 15  2  0
 15 16  1  0
 16 17  1  0
 17 18  2  0
 18 19  1  0
 19 20  2  0
 20 21  1  0
 21 22  1  0
 21 23  2  0
 21 24  2  0
 20 25  1  0
 25 26  2  0
  5 27  1  0
 27 28  2  0
 28  2  1  0
 16  6  1  0
 26 17  1  0
 14  9  1  0
  1 29  1  0
  1 30  1  0
  1 31  1  0
  3 32  1  0
  4 33  1  0
  6 34  1  0
  7 35  1  0
  7 36  1  0
 10 37  1  0
 11 38  1  0
 12 39  1  0
 13 40  1  0
 14 41  1  0
 18 42  1  0
 19 43  1  0
 22 44  1  0
 22 45  1  0
 25 46  1  0
 26 47  1  0
 27 48  1  0
 28 49  1  0
M  END
$$$$
