
     RDKit          3D

 44 46  0  0  0  0  0  0  0  0999 V2000
    4.4584    1.3766   -2.1198 C   0  0  0  0  0  0  0  0  0  0  0  0
    3.8940    0.6389   -1.0387 O   0  0  0  0  0  0  0  0  0  0  0  0
    4.7452   -0.0900   -0.2428 C   0  0  0  0  0  0  0  0  0  0  0  0
    6.1380   -0.1049   -0.4255 C   0  0  0  0  0  0  0  0  0  0  0  0
    6.9650   -0.8643    0.4062 C   0  0  0  0  0  0  0  0  0  0  0  0
    6.4153   -1.6160    1.4355 C   0  0  0  0  0  0  0  0  0  0  0  0
    5.0354   -1.6087    1.6330 C   0  0  0  0  0  0  0  0  0  0  0  0
    4.1814   -0.8528    0.8048 C   0  0  0  0  0  0  0  0  0  0  0  0
    2.7089   -0.9358    1.1257 C   0  0  0  0  0  0  0  0  0  0  0  0
    2.3579   -1.6233    2.0810 O   0  0  0  0  0  0  0  0  0  0  0  0
    1.8540   -0.2296    0.3033 N   0  0  0  0  0  0  0  0  0  0  0  0
    0.4516   -0.1293    0.3805 C   0  0  0  0  0  0  0  0  0  0  0  0
   -0.3259   -0.7400    1.3623 C   0  0  0  0  0  0  0  0  0  0  0  0
   -1.7183   -0.5840    1.3655 C   0  0  0  0  0  0  0  0  0  0  0  0
   -2.3600    0.1809    0.3829 C   0  0  0  0  0  0  0  0  0  0  0  0
   -3.8557    0.3046    0.4334 C   0  0  0  0  0  0  0  0  0  0  0  0
   -4.4635    0.0434    1.5554 N   0  0  0  0  0  0  0  0  0  0  0  0
   -5.8190    0.1385    1.6040 N   0  0  0  0  0  0  0  0  0  0  0  0
   -6.6214    0.7440    0.6731 C   0  0  0  0  0  0  0  0  0  0  0  0
   -7.8410    0.8077    0.8054 O   0  0  0  0  0  0  0  0  0  0  0  0
   -5.9000    1.3926   -0.4739 C   0  0  0  0  0  0  0  0  0  0  0  0
   -4.6295    0.6389   -0.8372 C   0  0  0  0  0  0  0  0  0  0  0  0
   -4.9278   -0.6554   -1.5966 C   0  0  0  0  0  0  0  0  0  0  0  0
   -1.5809    0.7986   -0.5988 C   0  0  0  0  0  0  0  0  0  0  0  0
   -0.1877    0.6427   -0.5967 C   0  0  0  0  0  0  0  0  0  0  0  0
    5.1327    2.1581   -1.7535 H   0  0  0  0  0  0  0  0  0  0  0  0
    4.9614    0.7122   -2.8303 H   0  0  0  0  0  0  0  0  0  0  0  0
    3.6370    1.8679   -2.6501 H   0  0  0  0  0  0  0  0  0  0  0  0
    6.6218    0.4675   -1.2114 H   0  0  0  0  0  0  0  0  0  0  0  0
    8.0414   -0.8652    0.2490 H   0  0  0  0  0  0  0  0  0  0  0  0
    7.0547   -2.2082    2.0862 H   0  0  0  0  0  0  0  0  0  0  0  0
    4.6228   -2.2052    2.4464 H   0  0  0  0  0  0  0  0  0  0  0  0
    2.3002    0.2819   -0.4511 H   0  0  0  0  0  0  0  0  0  0  0  0
    0.1172   -1.3437    2.1486 H   0  0  0  0  0  0  0  0  0  0  0  0
   -2.2934   -1.0755    2.1483 H   0  0  0  0  0  0  0  0  0  0  0  0
   -6.2682   -0.2162    2.4435 H   0  0  0  0  0  0  0  0  0  0  0  0
   -6.5750    1.4522   -1.3350 H   0  0  0  0  0  0  0  0  0  0  0  0
   -5.6565    2.4163   -0.1627 H   0  0  0  0  0  0  0  0  0  0  0  0
   -4.0502    1.2905   -1.4949 H   0  0  0  0  0  0  0  0  0  0  0  0
   -3.9986   -1.1616   -1.8821 H   0  0  0  0  0  0  0  0  0  0  0  0
   -5.5077   -1.3599   -0.9904 H   0  0  0  0  0  0  0  0  0  0  0  0
   -5.4921   -0.4488   -2.5119 H   0  0  0  0  0  0  0  0  0  0  0  0
   -2.0138    1.4250   -1.3699 H   0  0  0  0  0  0  0  0  0  0  0  0
    0.3919    1.1394   -1.3715 H   0  0  0  0  0  0  0  0  0  0  0  0
  1  2  1  0
  2  3  1  0
  3  4  2  0
  4  5  1  0
  5  6  2  0
  6  7  1  0
  7  8  2  0
  8  9  1  0
  9 10  2  0
  9 11  1  0
 11 12  1  0
 12 13  2  0
 13 14  1  0
 14 15  2  0
 15 16  1  0
 16 17  2  0
 17 18  1  0
 18 19  1  0
 19 20  2  0
 19 21  1  0
 21 22  1  0
 22 23  1  0
 15 24  1  0
 24 25  2  0
  8  3  1  0
 25 12  1  0
 22 16  1  0
  1 26  1  0
  1 27  1  0
  1 28  1  0
  4 29  1  0
  5 30  1  0
  6 31  1  0
  7 32  1  0
 11 33  1  0
 13 34  1  0
 14 35  1  0
 18 36  1  0
 21 37  1  0
 21 38  1  0
 22 39  1  0
 23 40  1  0
 23 41  1  0
 23 42  1  0
 24 43  1  0
 25 44  1  0
M  END
$$$$
