
     RDKit          3D

 72 77  0  0  0  0  0  0  0  0999 V2000
    6.0061    1.3450   -2.8995 O   0  0  0  0  0  0  0  0  0  0  0  0
    5.2528    1.6740   -1.9800 C   0  0  0  0  0  0  0  0  0  0  0  0
    3.7660    1.8737   -2.2387 C   0  0  0  0  0  0  0  0  0  0  0  0
    2.9203    2.9531   -1.0544 S   0  0  0  0  0  0  0  0  0  0  0  0
    2.5317    1.7445    0.1567 C   0  0  0  0  0  0  0  0  0  0  0  0
    3.3712    1.6728    1.1529 N   0  0  0  0  0  0  0  0  0  0  0  0
    3.1448    0.7362    2.1884 C   0  0  0  0  0  0  0  0  0  0  0  0
    4.0384    0.6836    3.2586 C   0  0  0  0  0  0  0  0  0  0  0  0
    3.8404   -0.2255    4.3018 C   0  0  0  0  0  0  0  0  0  0  0  0
    2.7464   -1.0917    4.2790 C   0  0  0  0  0  0  0  0  0  0  0  0
    1.8454   -1.0509    3.2147 C   0  0  0  0  0  0  0  0  0  0  0  0
    2.0446   -0.1389    2.1760 C   0  0  0  0  0  0  0  0  0  0  0  0
    1.1455   -0.0367    1.0424 C   0  0  0  0  0  0  0  0  0  0  0  0
    0.0639   -0.7369    0.7755 N   0  0  0  0  0  0  0  0  0  0  0  0
   -0.4101   -0.2460   -0.4231 C   0  0  0  0  0  0  0  0  0  0  0  0
   -1.6112   -0.8948   -1.0353 C   0  0  0  0  0  0  0  0  0  0  0  0
   -2.5796    0.0868   -1.6835 C   0  0  0  0  0  0  0  0  0  0  0  0
   -2.1597    1.0159   -2.3834 O   0  0  0  0  0  0  0  0  0  0  0  0
   -3.9376   -0.1083   -1.4938 N   0  0  0  0  0  0  0  0  0  0  0  0
   -4.8849    0.8791   -2.0191 C   0  0  0  0  0  0  0  0  0  0  0  0
   -6.1332    1.0385   -1.1318 C   0  0  0  0  0  0  0  0  0  0  0  0
   -6.7963   -0.2535   -0.8651 N   0  0  0  0  0  0  0  0  0  0  0  0
   -8.1726   -0.2894   -0.6754 C   0  0  0  0  0  0  0  0  0  0  0  0
   -8.8580    0.7964   -0.1018 C   0  0  0  0  0  0  0  0  0  0  0  0
  -10.2440    0.7812    0.0944 C   0  0  0  0  0  0  0  0  0  0  0  0
  -10.9862   -0.3328   -0.2744 C   0  0  0  0  0  0  0  0  0  0  0  0
  -10.3390   -1.4282   -0.8321 C   0  0  0  0  0  0  0  0  0  0  0  0
   -8.9517   -1.4048   -1.0241 C   0  0  0  0  0  0  0  0  0  0  0  0
   -6.0310   -1.4732   -1.1580 C   0  0  0  0  0  0  0  0  0  0  0  0
   -4.5334   -1.2829   -0.8434 C   0  0  0  0  0  0  0  0  0  0  0  0
    0.4092    0.7759   -0.8803 C   0  0  0  0  0  0  0  0  0  0  0  0
    0.3549    1.5369   -1.9692 O   0  0  0  0  0  0  0  0  0  0  0  0
    1.4104    0.9022    0.0668 N   0  0  0  0  0  0  0  0  0  0  0  0
    5.7047    1.8022   -0.6893 N   0  0  0  0  0  0  0  0  0  0  0  0
    7.0637    1.4502   -0.3183 C   0  0  0  0  0  0  0  0  0  0  0  0
    7.2503   -0.0708   -0.1850 C   0  0  0  0  0  0  0  0  0  0  0  0
    8.6968   -0.4559    0.0955 C   0  0  0  0  0  0  0  0  0  0  0  0
    8.7459   -0.5020    1.6019 C   0  0  0  0  0  0  0  0  0  0  0  0
    7.3768   -1.0437    1.9411 C   0  0  0  0  0  0  0  0  0  0  0  0
    6.4792   -0.5394    0.9449 O   0  0  0  0  0  0  0  0  0  0  0  0
    3.2875    0.8905   -2.2847 H   0  0  0  0  0  0  0  0  0  0  0  0
    3.6678    2.3431   -3.2230 H   0  0  0  0  0  0  0  0  0  0  0  0
    4.8945    1.3523    3.2769 H   0  0  0  0  0  0  0  0  0  0  0  0
    4.5428   -0.2574    5.1314 H   0  0  0  0  0  0  0  0  0  0  0  0
    2.5952   -1.7990    5.0907 H   0  0  0  0  0  0  0  0  0  0  0  0
    0.9927   -1.7255    3.1953 H   0  0  0  0  0  0  0  0  0  0  0  0
   -1.2892   -1.6013   -1.8087 H   0  0  0  0  0  0  0  0  0  0  0  0
   -2.1059   -1.4714   -0.2495 H   0  0  0  0  0  0  0  0  0  0  0  0
   -4.3955    1.8521   -2.1382 H   0  0  0  0  0  0  0  0  0  0  0  0
   -5.1767    0.5349   -3.0192 H   0  0  0  0  0  0  0  0  0  0  0  0
   -5.8416    1.4834   -0.1731 H   0  0  0  0  0  0  0  0  0  0  0  0
   -6.8105    1.7352   -1.6407 H   0  0  0  0  0  0  0  0  0  0  0  0
   -8.3133    1.6774    0.2272 H   0  0  0  0  0  0  0  0  0  0  0  0
  -10.7365    1.6411    0.5405 H   0  0  0  0  0  0  0  0  0  0  0  0
  -12.0619   -0.3486   -0.1256 H   0  0  0  0  0  0  0  0  0  0  0  0
  -10.9098   -2.3047   -1.1262 H   0  0  0  0  0  0  0  0  0  0  0  0
   -8.4990   -2.2789   -1.4826 H   0  0  0  0  0  0  0  0  0  0  0  0
   -6.1552   -1.7338   -2.2164 H   0  0  0  0  0  0  0  0  0  0  0  0
   -6.3881   -2.3142   -0.5523 H   0  0  0  0  0  0  0  0  0  0  0  0
   -4.3968   -1.1488    0.2372 H   0  0  0  0  0  0  0  0  0  0  0  0
   -3.9840   -2.1803   -1.1488 H   0  0  0  0  0  0  0  0  0  0  0  0
   -0.5457    1.4438   -2.3626 H   0  0  0  0  0  0  0  0  0  0  0  0
    5.0260    1.8633    0.0681 H   0  0  0  0  0  0  0  0  0  0  0  0
    7.2590    1.9541    0.6349 H   0  0  0  0  0  0  0  0  0  0  0  0
    7.7449    1.8533   -1.0762 H   0  0  0  0  0  0  0  0  0  0  0  0
    6.8836   -0.5812   -1.0819 H   0  0  0  0  0  0  0  0  0  0  0  0
    9.4310    0.2242   -0.3439 H   0  0  0  0  0  0  0  0  0  0  0  0
    8.8904   -1.4591   -0.3027 H   0  0  0  0  0  0  0  0  0  0  0  0
    8.8600    0.5115    2.0031 H   0  0  0  0  0  0  0  0  0  0  0  0
    9.5577   -1.1184    1.9962 H   0  0  0  0  0  0  0  0  0  0  0  0
    7.0386   -0.7351    2.9342 H   0  0  0  0  0  0  0  0  0  0  0  0
    7.3570   -2.1379    1.8890 H   0  0  0  0  0  0  0  0  0  0  0  0
  1  2  2  0
  2  3  1  0
  3  4  1  0
  4  5  1  0
  5  6  2  0
  6  7  1  0
  7  8  2  0
  8  9  1  0
  9 10  2  0
 10 11  1  0
 11 12  2  0
 12 13  1  0
 13 14  2  0
 14 15  1  0
 15 16  1  0
 16 17  1  0
 17 18  2  0
 17 19  1  0
 19 20  1  0
 20 21  1  0
 21 22  1  0
 22 23  1  0
 23 24  2  0
 24 25  1  0
 25 26  2  0
 26 27  1  0
 27 28  2  0
 22 29  1  0
 29 30  1  0
 15 31  2  0
 31 32  1  0
 31 33  1  0
  2 34  1  0
 34 35  1  0
 35 36  1  0
 36 37  1  0
 37 38  1  0
 38 39  1  0
 39 40  1  0
 33  5  1  0
 40 36  1  0
 12  7  1  0
 33 13  1  0
 30 19  1  0
 28 23  1  0
  3 41  1  0
  3 42  1  0
  8 43  1  0
  9 44  1  0
 10 45  1  0
 11 46  1  0
 16 47  1  0
 16 48  1  0
 20 49  1  0
 20 50  1  0
 21 51  1  0
 21 52  1  0
 24 53  1  0
 25 54  1  0
 26 55  1  0
 27 56  1  0
 28 57  1  0
 29 58  1  0
 29 59  1  0
 30 60  1  0
 30 61  1  0
 32 62  1  0
 34 63  1  0
 35 64  1  0
 35 65  1  0
 36 66  1  0
 37 67  1  0
 37 68  1  0
 38 69  1  0
 38 70  1  0
 39 71  1  0
 39 72  1  0
M  END
$$$$
