
     RDKit          3D

 34 36  0  0  0  0  0  0  0  0999 V2000
   -3.8972    1.3340    1.7632 C   0  0  0  0  0  0  0  0  0  0  0  0
   -3.2291    0.5319    0.7007 C   0  0  0  0  0  0  0  0  0  0  0  0
   -1.8844    0.4263    0.4232 C   0  0  0  0  0  0  0  0  0  0  0  0
   -1.6000   -0.4517   -0.6832 C   0  0  0  0  0  0  0  0  0  0  0  0
   -0.2047   -0.7447   -1.2106 C   0  0  0  0  0  0  0  0  0  0  0  0
    0.4775    0.5149   -1.7074 C   0  0  0  0  0  0  0  0  0  0  0  0
    1.8334    0.2278   -2.2928 C   0  0  0  0  0  0  0  0  0  0  0  0
    2.0090    0.1656   -3.5093 O   0  0  0  0  0  0  0  0  0  0  0  0
    2.8983    0.1260   -1.4420 N   0  0  0  0  0  0  0  0  0  0  0  0
    2.8662    0.1098   -0.0368 C   0  0  0  0  0  0  0  0  0  0  0  0
    3.9159    0.7674    0.6190 C   0  0  0  0  0  0  0  0  0  0  0  0
    3.9492    0.8384    2.0119 C   0  0  0  0  0  0  0  0  0  0  0  0
    2.9507    0.2258    2.7617 C   0  0  0  0  0  0  0  0  0  0  0  0
    1.9335   -0.4811    2.1188 C   0  0  0  0  0  0  0  0  0  0  0  0
    1.8798   -0.5529    0.7180 C   0  0  0  0  0  0  0  0  0  0  0  0
    0.7141   -1.7292    0.0378 S   0  0  0  0  0  0  0  0  0  0  0  0
   -2.7777   -0.9790   -1.1984 C   0  0  0  0  0  0  0  0  0  0  0  0
   -2.9490   -1.9311   -2.3381 C   0  0  0  0  0  0  0  0  0  0  0  0
   -4.1614   -0.4175   -0.3633 S   0  0  0  0  0  0  0  0  0  0  0  0
   -4.4599    0.6862    2.4435 H   0  0  0  0  0  0  0  0  0  0  0  0
   -3.1613    1.8849    2.3583 H   0  0  0  0  0  0  0  0  0  0  0  0
   -4.5860    2.0634    1.3245 H   0  0  0  0  0  0  0  0  0  0  0  0
   -1.1259    0.9521    0.9921 H   0  0  0  0  0  0  0  0  0  0  0  0
   -0.2938   -1.4263   -2.0654 H   0  0  0  0  0  0  0  0  0  0  0  0
    0.5624    1.2900   -0.9358 H   0  0  0  0  0  0  0  0  0  0  0  0
   -0.1280    0.9755   -2.5003 H   0  0  0  0  0  0  0  0  0  0  0  0
    3.7916    0.2430   -1.9055 H   0  0  0  0  0  0  0  0  0  0  0  0
    4.7015    1.2612    0.0518 H   0  0  0  0  0  0  0  0  0  0  0  0
    4.7561    1.3697    2.5110 H   0  0  0  0  0  0  0  0  0  0  0  0
    2.9794    0.2683    3.8479 H   0  0  0  0  0  0  0  0  0  0  0  0
    1.1978   -1.0073    2.7249 H   0  0  0  0  0  0  0  0  0  0  0  0
   -2.4117   -2.8634   -2.1350 H   0  0  0  0  0  0  0  0  0  0  0  0
   -3.9986   -2.1844   -2.5199 H   0  0  0  0  0  0  0  0  0  0  0  0
   -2.5473   -1.4939   -3.2582 H   0  0  0  0  0  0  0  0  0  0  0  0
  1  2  1  0
  2  3  2  0
  3  4  1  0
  4  5  1  0
  5  6  1  0
  6  7  1  0
  7  8  2  0
  7  9  1  0
  9 10  1  0
 10 11  2  0
 11 12  1  0
 12 13  2  0
 13 14  1  0
 14 15  2  0
 15 16  1  0
  4 17  2  0
 17 18  1  0
 17 19  1  0
 19  2  1  0
 16  5  1  0
 15 10  1  0
  1 20  1  0
  1 21  1  0
  1 22  1  0
  3 23  1  0
  5 24  1  0
  6 25  1  0
  6 26  1  0
  9 27  1  0
 11 28  1  0
 12 29  1  0
 13 30  1  0
 14 31  1  0
 18 32  1  0
 18 33  1  0
 18 34  1  0
M  END
$$$$
