
     RDKit          3D

 46 50  0  0  0  0  0  0  0  0999 V2000
   -0.1066    2.4288   -0.0325 O   0  0  0  0  0  0  0  0  0  0  0  0
   -0.6032    1.4295   -0.5451 C   0  0  0  0  0  0  0  0  0  0  0  0
   -1.7422    1.5660   -1.4621 C   0  0  0  0  0  0  0  0  0  0  0  0
   -2.0431    2.8009   -2.0448 C   0  0  0  0  0  0  0  0  0  0  0  0
   -3.1158    2.8898   -2.9274 C   0  0  0  0  0  0  0  0  0  0  0  0
   -3.4990    4.3981   -3.6593 Cl  0  0  0  0  0  0  0  0  0  0  0  0
   -3.8818    1.7625   -3.2254 C   0  0  0  0  0  0  0  0  0  0  0  0
   -3.5777    0.5365   -2.6279 C   0  0  0  0  0  0  0  0  0  0  0  0
   -2.5120    0.4393   -1.7334 C   0  0  0  0  0  0  0  0  0  0  0  0
   -2.3056   -0.7882   -1.1766 O   0  0  0  0  0  0  0  0  0  0  0  0
   -1.3813   -0.8842   -0.0505 C   0  0  0  0  0  0  0  0  0  0  0  0
   -1.0342   -2.4030   -0.0085 C   0  0  0  0  0  0  0  0  0  0  0  0
   -1.1079   -3.0041    1.3922 C   0  0  0  0  0  0  0  0  0  0  0  0
   -2.3929   -2.8092    2.0525 N   0  0  0  0  0  0  0  0  0  0  0  0
   -3.1034   -1.5962    1.6579 C   0  0  0  0  0  0  0  0  0  0  0  0
   -2.1518   -0.4817    1.2330 C   0  0  0  0  0  0  0  0  0  0  0  0
   -0.1279    0.0034   -0.2917 C   0  0  0  0  0  0  0  0  0  0  0  0
    0.9330   -0.0412    0.7957 C   0  0  0  0  0  0  0  0  0  0  0  0
    2.1451    0.0652   -0.0677 C   0  0  0  0  0  0  0  0  0  0  0  0
    3.4834    0.3823    0.4840 C   0  0  0  0  0  0  0  0  0  0  0  0
    4.5582    0.5478   -0.4007 C   0  0  0  0  0  0  0  0  0  0  0  0
    5.8345    0.8437    0.0860 C   0  0  0  0  0  0  0  0  0  0  0  0
    6.0380    0.9730    1.4576 C   0  0  0  0  0  0  0  0  0  0  0  0
    7.6076    1.3356    2.0600 Cl  0  0  0  0  0  0  0  0  0  0  0  0
    4.9764    0.8083    2.3462 C   0  0  0  0  0  0  0  0  0  0  0  0
    3.6978    0.5120    1.8614 C   0  0  0  0  0  0  0  0  0  0  0  0
    1.9370   -0.1783   -1.3228 N   0  0  0  0  0  0  0  0  0  0  0  0
    0.5559   -0.4272   -1.4830 O   0  0  0  0  0  0  0  0  0  0  0  0
   -1.4390    3.6766   -1.8194 H   0  0  0  0  0  0  0  0  0  0  0  0
   -4.7161    1.8313   -3.9193 H   0  0  0  0  0  0  0  0  0  0  0  0
   -4.1778   -0.3411   -2.8569 H   0  0  0  0  0  0  0  0  0  0  0  0
   -0.0355   -2.5936   -0.4177 H   0  0  0  0  0  0  0  0  0  0  0  0
   -1.7209   -2.9656   -0.6568 H   0  0  0  0  0  0  0  0  0  0  0  0
   -0.8940   -4.0781    1.3405 H   0  0  0  0  0  0  0  0  0  0  0  0
   -0.3270   -2.5776    2.0296 H   0  0  0  0  0  0  0  0  0  0  0  0
   -2.9979   -3.6173    1.8993 H   0  0  0  0  0  0  0  0  0  0  0  0
   -3.7982   -1.8255    0.8409 H   0  0  0  0  0  0  0  0  0  0  0  0
   -3.7115   -1.2595    2.5043 H   0  0  0  0  0  0  0  0  0  0  0  0
   -2.7431    0.4267    1.0703 H   0  0  0  0  0  0  0  0  0  0  0  0
   -1.4614   -0.2668    2.0578 H   0  0  0  0  0  0  0  0  0  0  0  0
    0.9871   -1.0014    1.3115 H   0  0  0  0  0  0  0  0  0  0  0  0
    0.8569    0.7641    1.5292 H   0  0  0  0  0  0  0  0  0  0  0  0
    4.4092    0.4505   -1.4748 H   0  0  0  0  0  0  0  0  0  0  0  0
    6.6595    0.9718   -0.6101 H   0  0  0  0  0  0  0  0  0  0  0  0
    5.1372    0.9097    3.4167 H   0  0  0  0  0  0  0  0  0  0  0  0
    2.8919    0.3865    2.5782 H   0  0  0  0  0  0  0  0  0  0  0  0
  1  2  2  0
  2  3  1  0
  3  4  2  0
  4  5  1  0
  5  6  1  0
  5  7  2  0
  7  8  1  0
  8  9  2  0
  9 10  1  0
 10 11  1  0
 11 12  1  0
 12 13  1  0
 13 14  1  0
 14 15  1  0
 15 16  1  0
 11 17  1  0
 17 18  1  0
 18 19  1  0
 19 20  1  0
 20 21  2  0
 21 22  1  0
 22 23  2  0
 23 24  1  0
 23 25  1  0
 25 26  2  0
 19 27  2  0
 27 28  1  0
 17  2  1  0
 26 20  1  0
  9  3  1  0
 16 11  1  0
 28 17  1  0
  4 29  1  0
  7 30  1  0
  8 31  1  0
 12 32  1  0
 12 33  1  0
 13 34  1  0
 13 35  1  0
 14 36  1  0
 15 37  1  0
 15 38  1  0
 16 39  1  0
 16 40  1  0
 18 41  1  0
 18 42  1  0
 21 43  1  0
 22 44  1  0
 25 45  1  0
 26 46  1  0
M  END
$$$$
