
     RDKit          3D

 47 48  0  0  0  0  0  0  0  0999 V2000
    5.7757   -3.0651    0.0401 C   0  0  0  0  0  0  0  0  0  0  0  0
    4.3573   -2.6043   -0.2335 C   0  0  0  0  0  0  0  0  0  0  0  0
    4.3812   -1.1867   -0.4318 O   0  0  0  0  0  0  0  0  0  0  0  0
    3.1636   -0.6328   -0.6960 C   0  0  0  0  0  0  0  0  0  0  0  0
    2.1206   -1.2733   -0.7530 O   0  0  0  0  0  0  0  0  0  0  0  0
    3.2126    0.8169   -0.9019 C   0  0  0  0  0  0  0  0  0  0  0  0
    4.3454    1.6276   -0.9511 C   0  0  0  0  0  0  0  0  0  0  0  0
    5.7915    1.3154   -0.7804 C   0  0  0  0  0  0  0  0  0  0  0  0
    3.9411    2.9073   -1.2421 N   0  0  0  0  0  0  0  0  0  0  0  0
    2.5792    2.9556   -1.3718 C   0  0  0  0  0  0  0  0  0  0  0  0
    1.8708    4.2181   -1.7131 C   0  0  0  0  0  0  0  0  0  0  0  0
    2.0853    1.6808   -1.1375 C   0  0  0  0  0  0  0  0  0  0  0  0
    0.6600    1.3395   -1.1740 C   0  0  0  0  0  0  0  0  0  0  0  0
    0.0013    1.5217   -2.1980 O   0  0  0  0  0  0  0  0  0  0  0  0
    0.0237    0.8791    0.1377 C   0  0  0  0  0  0  0  0  0  0  0  0
   -1.3318    0.4753   -0.0644 O   0  0  0  0  0  0  0  0  0  0  0  0
   -1.9802    0.1530    1.0772 C   0  0  0  0  0  0  0  0  0  0  0  0
   -1.5242    0.1973    2.2076 O   0  0  0  0  0  0  0  0  0  0  0  0
   -3.3528   -0.2588    0.7214 C   0  0  0  0  0  0  0  0  0  0  0  0
   -4.2192   -0.6023    1.6865 C   0  0  0  0  0  0  0  0  0  0  0  0
   -5.6000   -1.0380    1.4380 C   0  0  0  0  0  0  0  0  0  0  0  0
   -6.1722   -1.9852    2.2989 C   0  0  0  0  0  0  0  0  0  0  0  0
   -7.4919   -2.4098    2.1168 C   0  0  0  0  0  0  0  0  0  0  0  0
   -8.2515   -1.8800    1.0772 C   0  0  0  0  0  0  0  0  0  0  0  0
   -9.8757   -2.3998    0.8525 Cl  0  0  0  0  0  0  0  0  0  0  0  0
   -7.7042   -0.9267    0.2223 C   0  0  0  0  0  0  0  0  0  0  0  0
   -6.3839   -0.5032    0.4059 C   0  0  0  0  0  0  0  0  0  0  0  0
    6.1798   -2.5633    0.9256 H   0  0  0  0  0  0  0  0  0  0  0  0
    5.8110   -4.1464    0.1994 H   0  0  0  0  0  0  0  0  0  0  0  0
    6.4323   -2.8089   -0.7980 H   0  0  0  0  0  0  0  0  0  0  0  0
    3.9753   -3.0984   -1.1338 H   0  0  0  0  0  0  0  0  0  0  0  0
    3.7178   -2.8478    0.6224 H   0  0  0  0  0  0  0  0  0  0  0  0
    5.9789    0.9000    0.2148 H   0  0  0  0  0  0  0  0  0  0  0  0
    6.4123    2.2112   -0.8883 H   0  0  0  0  0  0  0  0  0  0  0  0
    6.1191    0.5912   -1.5329 H   0  0  0  0  0  0  0  0  0  0  0  0
    4.5624    3.6982   -1.3625 H   0  0  0  0  0  0  0  0  0  0  0  0
    1.4953    4.1754   -2.7404 H   0  0  0  0  0  0  0  0  0  0  0  0
    2.5323    5.0863   -1.6275 H   0  0  0  0  0  0  0  0  0  0  0  0
    1.0216    4.3759   -1.0405 H   0  0  0  0  0  0  0  0  0  0  0  0
    0.0513    1.7330    0.8259 H   0  0  0  0  0  0  0  0  0  0  0  0
    0.5873    0.0459    0.5626 H   0  0  0  0  0  0  0  0  0  0  0  0
   -3.6006   -0.2783   -0.3328 H   0  0  0  0  0  0  0  0  0  0  0  0
   -3.9054   -0.5890    2.7298 H   0  0  0  0  0  0  0  0  0  0  0  0
   -5.5922   -2.4092    3.1163 H   0  0  0  0  0  0  0  0  0  0  0  0
   -7.9175   -3.1500    2.7891 H   0  0  0  0  0  0  0  0  0  0  0  0
   -8.2980   -0.5045   -0.5840 H   0  0  0  0  0  0  0  0  0  0  0  0
   -5.9847    0.2569   -0.2617 H   0  0  0  0  0  0  0  0  0  0  0  0
  1  2  1  0
  2  3  1  0
  3  4  1  0
  4  5  2  0
  4  6  1  0
  6  7  2  0
  7  8  1  0
  7  9  1  0
  9 10  1  0
 10 11  1  0
 10 12  2  0
 12 13  1  0
 13 14  2  0
 13 15  1  0
 15 16  1  0
 16 17  1  0
 17 18  2  0
 17 19  1  0
 19 20  2  3
 20 21  1  0
 21 22  2  0
 22 23  1  0
 23 24  2  0
 24 25  1  0
 24 26  1  0
 26 27  2  0
 12  6  1  0
 27 21  1  0
  1 28  1  0
  1 29  1  0
  1 30  1  0
  2 31  1  0
  2 32  1  0
  8 33  1  0
  8 34  1  0
  8 35  1  0
  9 36  1  0
 11 37  1  0
 11 38  1  0
 11 39  1  0
 15 40  1  0
 15 41  1  0
 19 42  1  0
 20 43  1  0
 22 44  1  0
 23 45  1  0
 26 46  1  0
 27 47  1  0
M  END
$$$$
