
     RDKit          3D

 38 40  0  0  0  0  0  0  0  0999 V2000
    3.5261    3.3042    2.5191 C   0  0  0  0  0  0  0  0  0  0  0  0
    2.5277    2.7758    1.5050 C   0  0  0  0  0  0  0  0  0  0  0  0
    2.0154    1.3952    1.8640 C   0  0  0  0  0  0  0  0  0  0  0  0
    2.3583    0.7786    2.8669 O   0  0  0  0  0  0  0  0  0  0  0  0
    1.1110    0.9126    0.9524 N   0  0  0  0  0  0  0  0  0  0  0  0
    0.6040   -0.4406    1.0041 C   0  0  0  0  0  0  0  0  0  0  0  0
    1.6115   -1.3507    0.3631 C   0  0  0  0  0  0  0  0  0  0  0  0
    2.5683   -2.1993    0.8867 C   0  0  0  0  0  0  0  0  0  0  0  0
    3.2330   -2.7877   -0.2151 C   0  0  0  0  0  0  0  0  0  0  0  0
    2.6488   -2.2588   -1.3412 C   0  0  0  0  0  0  0  0  0  0  0  0
    1.6689   -1.3831   -1.0034 O   0  0  0  0  0  0  0  0  0  0  0  0
   -0.7822   -0.5711    0.3910 C   0  0  0  0  0  0  0  0  0  0  0  0
   -1.6601   -1.5363    0.9043 C   0  0  0  0  0  0  0  0  0  0  0  0
   -2.9307   -1.7195    0.3479 C   0  0  0  0  0  0  0  0  0  0  0  0
   -3.9353   -2.9365    1.0625 Cl  0  0  0  0  0  0  0  0  0  0  0  0
   -3.3679   -0.9439   -0.7523 C   0  0  0  0  0  0  0  0  0  0  0  0
   -4.6297   -1.0608   -1.3771 C   0  0  0  0  0  0  0  0  0  0  0  0
   -4.9627   -0.2510   -2.4573 C   0  0  0  0  0  0  0  0  0  0  0  0
   -4.0257    0.6624   -2.8935 C   0  0  0  0  0  0  0  0  0  0  0  0
   -2.8074    0.8131   -2.3304 N   0  0  0  0  0  0  0  0  0  0  0  0
   -2.4918    0.0225   -1.2811 C   0  0  0  0  0  0  0  0  0  0  0  0
   -1.2307    0.1829   -0.7028 C   0  0  0  0  0  0  0  0  0  0  0  0
   -0.4062    1.1436   -1.2594 O   0  0  0  0  0  0  0  0  0  0  0  0
    3.8750    4.2996    2.2276 H   0  0  0  0  0  0  0  0  0  0  0  0
    4.3969    2.6445    2.5939 H   0  0  0  0  0  0  0  0  0  0  0  0
    3.0747    3.3774    3.5140 H   0  0  0  0  0  0  0  0  0  0  0  0
    1.6728    3.4583    1.4423 H   0  0  0  0  0  0  0  0  0  0  0  0
    3.0017    2.7248    0.5184 H   0  0  0  0  0  0  0  0  0  0  0  0
    0.9962    1.3752    0.0560 H   0  0  0  0  0  0  0  0  0  0  0  0
    0.5258   -0.7101    2.0662 H   0  0  0  0  0  0  0  0  0  0  0  0
    2.7646   -2.3559    1.9390 H   0  0  0  0  0  0  0  0  0  0  0  0
    4.0439   -3.5018   -0.1920 H   0  0  0  0  0  0  0  0  0  0  0  0
    2.8102   -2.3913   -2.4018 H   0  0  0  0  0  0  0  0  0  0  0  0
   -1.3493   -2.1577    1.7432 H   0  0  0  0  0  0  0  0  0  0  0  0
   -5.3616   -1.7849   -1.0265 H   0  0  0  0  0  0  0  0  0  0  0  0
   -5.9284   -0.3342   -2.9434 H   0  0  0  0  0  0  0  0  0  0  0  0
   -4.2341    1.3191   -3.7338 H   0  0  0  0  0  0  0  0  0  0  0  0
   -0.9306    1.4854   -2.0189 H   0  0  0  0  0  0  0  0  0  0  0  0
  1  2  1  0
  2  3  1  0
  3  4  2  0
  3  5  1  0
  5  6  1  0
  6  7  1  0
  7  8  2  0
  8  9  1  0
  9 10  2  0
 10 11  1  0
  6 12  1  0
 12 13  2  0
 13 14  1  0
 14 15  1  0
 14 16  2  0
 16 17  1  0
 17 18  2  0
 18 19  1  0
 19 20  2  0
 20 21  1  0
 21 22  2  0
 22 23  1  0
 11  7  1  0
 22 12  1  0
 21 16  1  0
  1 24  1  0
  1 25  1  0
  1 26  1  0
  2 27  1  0
  2 28  1  0
  5 29  1  0
  6 30  1  0
  8 31  1  0
  9 32  1  0
 10 33  1  0
 13 34  1  0
 17 35  1  0
 18 36  1  0
 19 37  1  0
 23 38  1  0
M  END
$$$$
