
     RDKit          3D

 35 36  0  0  0  0  0  0  0  0999 V2000
   -5.8208    0.0392    1.9750 C   0  0  0  0  0  0  0  0  0  0  0  0
   -4.3061    0.0526    1.8809 C   0  0  0  0  0  0  0  0  0  0  0  0
   -3.9504    0.1772    0.5040 O   0  0  0  0  0  0  0  0  0  0  0  0
   -2.6239    0.3019    0.2072 C   0  0  0  0  0  0  0  0  0  0  0  0
   -2.3440    0.6272   -1.1219 C   0  0  0  0  0  0  0  0  0  0  0  0
   -1.0253    0.7896   -1.5756 C   0  0  0  0  0  0  0  0  0  0  0  0
    0.0578    0.6235   -0.7075 C   0  0  0  0  0  0  0  0  0  0  0  0
    1.4013    0.7961   -1.1291 N   0  0  0  0  0  0  0  0  0  0  0  0
    1.8744    0.9736   -2.4221 C   0  0  0  0  0  0  0  0  0  0  0  0
    1.2016    0.9168   -3.4491 O   0  0  0  0  0  0  0  0  0  0  0  0
    3.3680    1.2708   -2.4762 C   0  0  0  0  0  0  0  0  0  0  0  0
    4.3358   -0.2223   -2.7867 S   0  0  0  0  0  0  0  0  0  0  0  0
    4.2792   -1.0431   -1.2528 C   0  0  0  0  0  0  0  0  0  0  0  0
    4.9001   -2.2448   -1.0510 N   0  0  0  0  0  0  0  0  0  0  0  0
    4.5676   -2.5562    0.1784 C   0  0  0  0  0  0  0  0  0  0  0  0
    3.7914   -1.5706    0.6999 N   0  0  0  0  0  0  0  0  0  0  0  0
    3.6095   -0.5733   -0.1916 N   0  0  0  0  0  0  0  0  0  0  0  0
   -0.2557    0.2938    0.6255 C   0  0  0  0  0  0  0  0  0  0  0  0
    0.7913    0.1273    1.6065 N   0  0  0  0  0  4  0  0  0  0  0  0
    1.1687   -1.0290    1.8559 O   0  0  0  0  0  0  0  0  0  0  0  0
    1.2368    1.1557    2.1333 O   0  0  0  0  0  1  0  0  0  0  0  0
   -1.5707    0.1265    1.0931 C   0  0  0  0  0  0  0  0  0  0  0  0
   -6.1480   -0.0409    3.0163 H   0  0  0  0  0  0  0  0  0  0  0  0
   -6.2406    0.9537    1.5436 H   0  0  0  0  0  0  0  0  0  0  0  0
   -6.2351   -0.8023    1.4080 H   0  0  0  0  0  0  0  0  0  0  0  0
   -3.9124   -0.8809    2.2953 H   0  0  0  0  0  0  0  0  0  0  0  0
   -3.9182    0.9045    2.4523 H   0  0  0  0  0  0  0  0  0  0  0  0
   -3.1640    0.7509   -1.8286 H   0  0  0  0  0  0  0  0  0  0  0  0
   -0.8886    1.0488   -2.6225 H   0  0  0  0  0  0  0  0  0  0  0  0
    2.1452    0.6167   -0.4486 H   0  0  0  0  0  0  0  0  0  0  0  0
    3.5331    1.9661   -3.3042 H   0  0  0  0  0  0  0  0  0  0  0  0
    3.7016    1.7874   -1.5705 H   0  0  0  0  0  0  0  0  0  0  0  0
    4.8419   -3.4510    0.7202 H   0  0  0  0  0  0  0  0  0  0  0  0
    3.3355   -1.5232    1.6086 H   0  0  0  0  0  0  0  0  0  0  0  0
   -1.7374   -0.1371    2.1339 H   0  0  0  0  0  0  0  0  0  0  0  0
  1  2  1  0
  2  3  1  0
  3  4  1  0
  4  5  2  0
  5  6  1  0
  6  7  2  0
  7  8  1  0
  8  9  1  0
  9 10  2  0
  9 11  1  0
 11 12  1  0
 12 13  1  0
 13 14  1  0
 14 15  2  0
 15 16  1  0
 16 17  1  0
  7 18  1  0
 18 19  1  0
 19 20  2  0
 19 21  1  0
 18 22  2  0
 22  4  1  0
 17 13  2  0
  1 23  1  0
  1 24  1  0
  1 25  1  0
  2 26  1  0
  2 27  1  0
  5 28  1  0
  6 29  1  0
  8 30  1  0
 11 31  1  0
 11 32  1  0
 15 33  1  0
 16 34  1  0
 22 35  1  0
M  CHG  2  19   1  21  -1
M  END
$$$$
