
     RDKit          3D

 46 48  0  0  0  0  0  0  0  0999 V2000
    5.8097   -0.5309   -3.2552 C   0  0  0  0  0  0  0  0  0  0  0  0
    5.9540    0.5278   -2.3176 O   0  0  0  0  0  0  0  0  0  0  0  0
    4.7343    1.2184   -2.0570 C   0  0  0  0  0  0  0  0  0  0  0  0
    3.8379    0.4684   -1.0751 C   0  0  0  0  0  0  0  0  0  0  0  0
    2.6878    1.2766   -0.7929 O   0  0  0  0  0  0  0  0  0  0  0  0
    1.7931    0.7045    0.0632 C   0  0  0  0  0  0  0  0  0  0  0  0
    1.9350   -0.4099    0.5530 O   0  0  0  0  0  0  0  0  0  0  0  0
    0.6413    1.5475    0.3362 C   0  0  0  0  0  0  0  0  0  0  0  0
    0.3890    2.8211   -0.1554 C   0  0  0  0  0  0  0  0  0  0  0  0
    1.1175    3.7417   -1.0571 C   0  0  0  0  0  0  0  0  0  0  0  0
   -0.7998    3.2900    0.3185 O   0  0  0  0  0  0  0  0  0  0  0  0
   -1.3258    2.3292    1.1194 C   0  0  0  0  0  0  0  0  0  0  0  0
   -2.5412    2.4188    1.7930 C   0  0  0  0  0  0  0  0  0  0  0  0
   -2.9122    1.3113    2.5632 C   0  0  0  0  0  0  0  0  0  0  0  0
   -2.0902    0.1857    2.6486 C   0  0  0  0  0  0  0  0  0  0  0  0
   -2.5077   -0.9552    3.3894 N   0  0  0  0  0  0  0  0  0  0  0  0
   -3.8177   -1.8627    2.8232 S   0  0  0  0  0  6  0  0  0  0  0  0
   -3.7997   -3.1061    3.5644 O   0  0  0  0  0  0  0  0  0  0  0  0
   -4.9994   -1.0287    2.7823 O   0  0  0  0  0  0  0  0  0  0  0  0
   -3.3481   -2.2371    1.1457 C   0  0  0  0  0  0  0  0  0  0  0  0
   -2.5043   -3.3265    0.8957 C   0  0  0  0  0  0  0  0  0  0  0  0
   -2.1329   -3.6159   -0.4178 C   0  0  0  0  0  0  0  0  0  0  0  0
   -2.6138   -2.8264   -1.4591 C   0  0  0  0  0  0  0  0  0  0  0  0
   -2.2512   -3.1061   -2.7177 F   0  0  0  0  0  0  0  0  0  0  0  0
   -3.4676   -1.7542   -1.2158 C   0  0  0  0  0  0  0  0  0  0  0  0
   -3.8455   -1.4577    0.0939 C   0  0  0  0  0  0  0  0  0  0  0  0
   -0.8680    0.1297    1.9637 C   0  0  0  0  0  0  0  0  0  0  0  0
   -0.4786    1.2308    1.1738 C   0  0  0  0  0  0  0  0  0  0  0  0
    5.1593   -1.3163   -2.8614 H   0  0  0  0  0  0  0  0  0  0  0  0
    6.7977   -0.9628   -3.4368 H   0  0  0  0  0  0  0  0  0  0  0  0
    5.4163   -0.1540   -4.2041 H   0  0  0  0  0  0  0  0  0  0  0  0
    4.2023    1.4399   -2.9905 H   0  0  0  0  0  0  0  0  0  0  0  0
    4.9973    2.1904   -1.6238 H   0  0  0  0  0  0  0  0  0  0  0  0
    4.3911    0.2655   -0.1503 H   0  0  0  0  0  0  0  0  0  0  0  0
    3.5194   -0.4875   -1.5055 H   0  0  0  0  0  0  0  0  0  0  0  0
    1.2480    3.2887   -2.0445 H   0  0  0  0  0  0  0  0  0  0  0  0
    0.5732    4.6823   -1.1892 H   0  0  0  0  0  0  0  0  0  0  0  0
    2.1036    3.9805   -0.6473 H   0  0  0  0  0  0  0  0  0  0  0  0
   -3.1660    3.3008    1.7176 H   0  0  0  0  0  0  0  0  0  0  0  0
   -3.8568    1.3403    3.1040 H   0  0  0  0  0  0  0  0  0  0  0  0
   -1.7850   -1.5485    3.7950 H   0  0  0  0  0  0  0  0  0  0  0  0
   -2.1380   -3.9482    1.7095 H   0  0  0  0  0  0  0  0  0  0  0  0
   -1.4762   -4.4521   -0.6383 H   0  0  0  0  0  0  0  0  0  0  0  0
   -3.8340   -1.1596   -2.0472 H   0  0  0  0  0  0  0  0  0  0  0  0
   -4.5151   -0.6219    0.2866 H   0  0  0  0  0  0  0  0  0  0  0  0
   -0.2331   -0.7497    2.0197 H   0  0  0  0  0  0  0  0  0  0  0  0
  1  2  1  0
  2  3  1  0
  3  4  1  0
  4  5  1  0
  5  6  1  0
  6  7  2  0
  6  8  1  0
  8  9  2  0
  9 10  1  0
  9 11  1  0
 11 12  1  0
 12 13  2  0
 13 14  1  0
 14 15  2  0
 15 16  1  0
 16 17  1  0
 17 18  2  0
 17 19  2  0
 17 20  1  0
 20 21  2  0
 21 22  1  0
 22 23  2  0
 23 24  1  0
 23 25  1  0
 25 26  2  0
 15 27  1  0
 27 28  2  0
 28  8  1  0
 28 12  1  0
 26 20  1  0
  1 29  1  0
  1 30  1  0
  1 31  1  0
  3 32  1  0
  3 33  1  0
  4 34  1  0
  4 35  1  0
 10 36  1  0
 10 37  1  0
 10 38  1  0
 13 39  1  0
 14 40  1  0
 16 41  1  0
 21 42  1  0
 22 43  1  0
 25 44  1  0
 26 45  1  0
 27 46  1  0
M  END
$$$$
