
     RDKit          3D

 41 42  0  0  0  0  0  0  0  0999 V2000
    3.9142   -2.6858    0.7635 C   0  0  0  0  0  0  0  0  0  0  0  0
    2.9455   -1.6631    0.5564 O   0  0  0  0  0  0  0  0  0  0  0  0
    3.4008   -0.4462    0.1008 C   0  0  0  0  0  0  0  0  0  0  0  0
    4.7336   -0.1566   -0.2052 C   0  0  0  0  0  0  0  0  0  0  0  0
    5.0733    1.1241   -0.6659 C   0  0  0  0  0  0  0  0  0  0  0  0
    6.4732    1.4302   -0.9887 N   0  0  0  0  0  4  0  0  0  0  0  0
    7.3111    0.5326   -0.8189 O   0  0  0  0  0  0  0  0  0  0  0  0
    6.7347    2.5642   -1.4128 O   0  0  0  0  0  1  0  0  0  0  0  0
    4.0954    2.1113   -0.8250 C   0  0  0  0  0  0  0  0  0  0  0  0
    2.7640    1.8182   -0.5192 C   0  0  0  0  0  0  0  0  0  0  0  0
    2.4084    0.5492   -0.0529 C   0  0  0  0  0  0  0  0  0  0  0  0
    1.0840    0.1829    0.2689 N   0  0  0  0  0  0  0  0  0  0  0  0
   -0.0337    0.9930    0.3461 C   0  0  0  0  0  0  0  0  0  0  0  0
   -0.0478    2.2097    0.2031 O   0  0  0  0  0  0  0  0  0  0  0  0
   -1.1688    0.2219    0.6197 N   0  0  0  0  0  0  0  0  0  0  0  0
   -2.4338    0.8544    0.7015 N   0  0  0  0  0  0  0  0  0  0  0  0
   -3.1357    0.8660   -0.5952 C   0  0  0  0  0  0  0  0  0  0  0  0
   -3.7526   -0.4952   -0.9887 C   0  0  0  0  0  0  0  0  0  0  0  0
   -4.5949   -1.1278    0.0463 N   0  0  0  0  0  0  0  0  0  0  0  0
   -5.8998   -0.4722    0.1417 C   0  0  0  0  0  0  0  0  0  0  0  0
   -3.8914   -1.1126    1.3444 C   0  0  0  0  0  0  0  0  0  0  0  0
   -3.2770    0.2477    1.7450 C   0  0  0  0  0  0  0  0  0  0  0  0
    4.4015   -2.9623   -0.1772 H   0  0  0  0  0  0  0  0  0  0  0  0
    3.3900   -3.5698    1.1390 H   0  0  0  0  0  0  0  0  0  0  0  0
    4.6477   -2.3873    1.5196 H   0  0  0  0  0  0  0  0  0  0  0  0
    5.5105   -0.9063   -0.0936 H   0  0  0  0  0  0  0  0  0  0  0  0
    4.3452    3.1083   -1.1835 H   0  0  0  0  0  0  0  0  0  0  0  0
    2.0236    2.6014   -0.6581 H   0  0  0  0  0  0  0  0  0  0  0  0
    0.9926   -0.7592    0.6272 H   0  0  0  0  0  0  0  0  0  0  0  0
   -1.1402   -0.7422    0.3086 H   0  0  0  0  0  0  0  0  0  0  0  0
   -3.9301    1.6211   -0.5459 H   0  0  0  0  0  0  0  0  0  0  0  0
   -2.4591    1.2032   -1.3905 H   0  0  0  0  0  0  0  0  0  0  0  0
   -4.3192   -0.3847   -1.9218 H   0  0  0  0  0  0  0  0  0  0  0  0
   -2.9386   -1.1928   -1.2258 H   0  0  0  0  0  0  0  0  0  0  0  0
   -6.4289   -0.5368   -0.8157 H   0  0  0  0  0  0  0  0  0  0  0  0
   -6.5297   -0.9838    0.8781 H   0  0  0  0  0  0  0  0  0  0  0  0
   -5.8351    0.5834    0.4241 H   0  0  0  0  0  0  0  0  0  0  0  0
   -3.0874   -1.8587    1.2947 H   0  0  0  0  0  0  0  0  0  0  0  0
   -4.5603   -1.4613    2.1412 H   0  0  0  0  0  0  0  0  0  0  0  0
   -2.7016    0.1303    2.6720 H   0  0  0  0  0  0  0  0  0  0  0  0
   -4.0836    0.9513    1.9860 H   0  0  0  0  0  0  0  0  0  0  0  0
  1  2  1  0
  2  3  1  0
  3  4  2  0
  4  5  1  0
  5  6  1  0
  6  7  2  0
  6  8  1  0
  5  9  2  0
  9 10  1  0
 10 11  2  0
 11 12  1  0
 12 13  1  0
 13 14  2  0
 13 15  1  0
 15 16  1  0
 16 17  1  0
 17 18  1  0
 18 19  1  0
 19 20  1  0
 19 21  1  0
 21 22  1  0
 11  3  1  0
 22 16  1  0
  1 23  1  0
  1 24  1  0
  1 25  1  0
  4 26  1  0
  9 27  1  0
 10 28  1  0
 12 29  1  0
 15 30  1  0
 17 31  1  0
 17 32  1  0
 18 33  1  0
 18 34  1  0
 20 35  1  0
 20 36  1  0
 20 37  1  0
 21 38  1  0
 21 39  1  0
 22 40  1  0
 22 41  1  0
M  CHG  2   6   1   8  -1
M  END
$$$$
