
     RDKit          3D

 40 41  0  0  0  0  0  0  0  0999 V2000
   -5.7717   -0.5554   -0.9232 C   0  0  0  0  0  0  0  0  0  0  0  0
   -4.5452   -0.3040   -0.1716 N   0  0  0  0  0  0  0  0  0  0  0  0
   -4.2411   -1.4017    0.7706 C   0  0  0  0  0  0  0  0  0  0  0  0
   -3.0655   -2.3110    0.3654 C   0  0  0  0  0  0  0  0  0  0  0  0
   -1.8429   -1.5492    0.0907 N   0  0  0  0  0  0  0  0  0  0  0  0
   -0.6167   -2.1316    0.3807 C   0  0  0  0  0  0  0  0  0  0  0  0
   -0.5345   -3.2981    0.7753 O   0  0  0  0  0  0  0  0  0  0  0  0
    0.6488   -1.3071    0.1897 C   0  0  0  0  0  0  0  0  0  0  0  0
    0.8853   -0.1837    1.6083 S   0  0  0  0  0  0  0  0  0  0  0  0
    2.3207    0.7081    1.0335 C   0  0  0  0  0  0  0  0  0  0  0  0
    2.1065    1.8280    0.2178 C   0  0  0  0  0  0  0  0  0  0  0  0
    3.1802    2.6058   -0.2380 C   0  0  0  0  0  0  0  0  0  0  0  0
    4.5009    2.2962    0.1231 C   0  0  0  0  0  0  0  0  0  0  0  0
    5.6545    3.1295   -0.3870 C   0  0  0  0  0  0  0  0  0  0  0  0
    6.1249    2.6730   -1.5788 F   0  0  0  0  0  0  0  0  0  0  0  0
    6.7179    3.1385    0.4618 F   0  0  0  0  0  0  0  0  0  0  0  0
    5.3205    4.4336   -0.5862 F   0  0  0  0  0  0  0  0  0  0  0  0
    4.7292    1.1790    0.9382 C   0  0  0  0  0  0  0  0  0  0  0  0
    3.6427    0.4073    1.3819 C   0  0  0  0  0  0  0  0  0  0  0  0
    3.9461   -0.7369    2.2142 N   0  0  0  0  0  4  0  0  0  0  0  0
    3.8402   -1.8531    1.6904 O   0  0  0  0  0  0  0  0  0  0  0  0
    4.3489   -0.5032    3.3606 O   0  0  0  0  0  1  0  0  0  0  0  0
   -2.0437   -0.1866   -0.4156 C   0  0  0  0  0  0  0  0  0  0  0  0
   -3.4220   -0.0169   -1.0822 C   0  0  0  0  0  0  0  0  0  0  0  0
   -5.7033   -1.4651   -1.5306 H   0  0  0  0  0  0  0  0  0  0  0  0
   -5.9974    0.2874   -1.5861 H   0  0  0  0  0  0  0  0  0  0  0  0
   -6.6254   -0.6570   -0.2438 H   0  0  0  0  0  0  0  0  0  0  0  0
   -3.9842   -0.9287    1.7275 H   0  0  0  0  0  0  0  0  0  0  0  0
   -5.1262   -2.0176    0.9723 H   0  0  0  0  0  0  0  0  0  0  0  0
   -3.3123   -2.8643   -0.5488 H   0  0  0  0  0  0  0  0  0  0  0  0
   -2.8848   -3.0464    1.1569 H   0  0  0  0  0  0  0  0  0  0  0  0
    1.4971   -1.9971    0.1317 H   0  0  0  0  0  0  0  0  0  0  0  0
    0.6198   -0.7614   -0.7558 H   0  0  0  0  0  0  0  0  0  0  0  0
    1.0957    2.1193   -0.0653 H   0  0  0  0  0  0  0  0  0  0  0  0
    2.9767    3.4694   -0.8726 H   0  0  0  0  0  0  0  0  0  0  0  0
    5.7458    0.9129    1.2296 H   0  0  0  0  0  0  0  0  0  0  0  0
   -1.2626    0.0601   -1.1391 H   0  0  0  0  0  0  0  0  0  0  0  0
   -1.9478    0.5000    0.4332 H   0  0  0  0  0  0  0  0  0  0  0  0
   -3.4583   -0.6824   -1.9557 H   0  0  0  0  0  0  0  0  0  0  0  0
   -3.5167    1.0106   -1.4520 H   0  0  0  0  0  0  0  0  0  0  0  0
  1  2  1  0
  2  3  1  0
  3  4  1  0
  4  5  1  0
  5  6  1  0
  6  7  2  0
  6  8  1  0
  8  9  1  0
  9 10  1  0
 10 11  2  0
 11 12  1  0
 12 13  2  0
 13 14  1  0
 14 15  1  0
 14 16  1  0
 14 17  1  0
 13 18  1  0
 18 19  2  0
 19 20  1  0
 20 21  2  0
 20 22  1  0
  5 23  1  0
 23 24  1  0
 24  2  1  0
 19 10  1  0
  1 25  1  0
  1 26  1  0
  1 27  1  0
  3 28  1  0
  3 29  1  0
  4 30  1  0
  4 31  1  0
  8 32  1  0
  8 33  1  0
 11 34  1  0
 12 35  1  0
 18 36  1  0
 23 37  1  0
 23 38  1  0
 24 39  1  0
 24 40  1  0
M  CHG  2  20   1  22  -1
M  END
$$$$
