
     RDKit          3D

 58 61  0  0  0  0  0  0  0  0999 V2000
    2.4986   -2.5504   -1.4747 O   0  0  0  0  0  0  0  0  0  0  0  0
    2.4515   -1.3692   -1.1492 C   0  0  0  0  0  0  0  0  0  0  0  0
    3.3861   -0.4446   -1.5666 N   0  0  0  0  0  0  0  0  0  0  0  0
    4.5493   -0.8394   -2.3415 C   0  0  0  0  0  0  0  0  0  0  0  0
    5.6433   -1.4966   -1.4919 C   0  0  0  0  0  0  0  0  0  0  0  0
    6.1898   -0.5736   -0.4255 C   0  0  0  0  0  0  0  0  0  0  0  0
    5.7784   -0.7126    0.9081 C   0  0  0  0  0  0  0  0  0  0  0  0
    6.2644    0.1507    1.8919 C   0  0  0  0  0  0  0  0  0  0  0  0
    7.1631    1.1573    1.5463 C   0  0  0  0  0  0  0  0  0  0  0  0
    7.7587    2.2241    2.7575 Cl  0  0  0  0  0  0  0  0  0  0  0  0
    7.5810    1.3071    0.2257 C   0  0  0  0  0  0  0  0  0  0  0  0
    7.0953    0.4437   -0.7588 C   0  0  0  0  0  0  0  0  0  0  0  0
    1.3736   -0.7813   -0.2370 C   0  0  0  0  0  0  0  0  0  0  0  0
    0.5252    0.2528   -0.9835 C   0  0  0  0  0  0  0  0  0  0  0  0
   -0.4652    0.9639   -0.0562 C   0  0  0  0  0  0  0  0  0  0  0  0
   -0.9447    0.0901    1.1187 C   0  0  0  0  0  0  0  0  0  0  0  0
   -2.3022    0.5526    1.6766 C   0  0  0  0  0  0  0  0  0  0  0  0
   -3.3973    0.2849    0.7575 N   0  0  0  0  0  0  0  0  0  0  0  0
   -4.7351    0.5966    0.9531 C   0  0  0  0  0  0  0  0  0  0  0  0
   -5.1509    0.9806    2.2005 N   0  0  0  0  0  0  0  0  0  0  0  0
   -6.4288    1.3253    2.5516 C   0  0  0  0  0  0  0  0  0  0  0  0
   -6.7095    1.7530    4.1489 S   0  0  0  0  0  0  0  0  0  0  0  0
   -7.3986    1.3077    1.5906 N   0  0  0  0  0  0  0  0  0  0  0  0
   -7.0510    0.9419    0.3989 C   0  0  0  0  0  0  0  0  0  0  0  0
   -8.0936    0.9151   -0.6657 C   0  0  0  0  0  0  0  0  0  0  0  0
   -7.7921    0.5342   -1.9136 C   0  0  0  0  0  0  0  0  0  0  0  0
   -6.4614    0.1256   -2.2892 C   0  0  0  0  0  0  0  0  0  0  0  0
   -5.4554    0.1253   -1.4030 C   0  0  0  0  0  0  0  0  0  0  0  0
   -5.6677    0.5384   -0.0251 C   0  0  0  0  0  0  0  0  0  0  0  0
   -0.9263   -1.3960    0.7467 C   0  0  0  0  0  0  0  0  0  0  0  0
    0.4825   -1.8757    0.3797 C   0  0  0  0  0  0  0  0  0  0  0  0
    3.4336    0.4438   -1.0834 H   0  0  0  0  0  0  0  0  0  0  0  0
    4.9246    0.0641   -2.8341 H   0  0  0  0  0  0  0  0  0  0  0  0
    4.2258   -1.5382   -3.1211 H   0  0  0  0  0  0  0  0  0  0  0  0
    5.2619   -2.4132   -1.0250 H   0  0  0  0  0  0  0  0  0  0  0  0
    6.4692   -1.8108   -2.1423 H   0  0  0  0  0  0  0  0  0  0  0  0
    5.0780   -1.4978    1.1875 H   0  0  0  0  0  0  0  0  0  0  0  0
    5.9418    0.0304    2.9226 H   0  0  0  0  0  0  0  0  0  0  0  0
    8.2849    2.0903   -0.0430 H   0  0  0  0  0  0  0  0  0  0  0  0
    7.4315    0.5678   -1.7861 H   0  0  0  0  0  0  0  0  0  0  0  0
    1.9017   -0.2746    0.5834 H   0  0  0  0  0  0  0  0  0  0  0  0
   -0.0291   -0.2503   -1.7874 H   0  0  0  0  0  0  0  0  0  0  0  0
    1.1482    1.0061   -1.4795 H   0  0  0  0  0  0  0  0  0  0  0  0
    0.0110    1.8622    0.3577 H   0  0  0  0  0  0  0  0  0  0  0  0
   -1.3032    1.3258   -0.6627 H   0  0  0  0  0  0  0  0  0  0  0  0
   -0.2197    0.2272    1.9345 H   0  0  0  0  0  0  0  0  0  0  0  0
   -2.2586    1.6261    1.8970 H   0  0  0  0  0  0  0  0  0  0  0  0
   -2.4880    0.0281    2.6216 H   0  0  0  0  0  0  0  0  0  0  0  0
   -3.1284    0.2207   -0.2178 H   0  0  0  0  0  0  0  0  0  0  0  0
   -4.4782    1.0013    2.9509 H   0  0  0  0  0  0  0  0  0  0  0  0
   -9.0941    1.2164   -0.3786 H   0  0  0  0  0  0  0  0  0  0  0  0
   -8.5608    0.5179   -2.6809 H   0  0  0  0  0  0  0  0  0  0  0  0
   -6.2989   -0.1922   -3.3152 H   0  0  0  0  0  0  0  0  0  0  0  0
   -4.4741   -0.2053   -1.7207 H   0  0  0  0  0  0  0  0  0  0  0  0
   -1.3107   -2.0069    1.5722 H   0  0  0  0  0  0  0  0  0  0  0  0
   -1.5906   -1.5746   -0.1084 H   0  0  0  0  0  0  0  0  0  0  0  0
    0.3801   -2.7416   -0.2852 H   0  0  0  0  0  0  0  0  0  0  0  0
    0.9812   -2.2541    1.2816 H   0  0  0  0  0  0  0  0  0  0  0  0
  1  2  2  0
  2  3  1  0
  3  4  1  0
  4  5  1  0
  5  6  1  0
  6  7  2  0
  7  8  1  0
  8  9  2  0
  9 10  1  0
  9 11  1  0
 11 12  2  0
  2 13  1  0
 13 14  1  0
 14 15  1  0
 15 16  1  0
 16 17  1  0
 17 18  1  0
 18 19  1  0
 19 20  1  0
 20 21  1  0
 21 22  2  0
 21 23  1  0
 23 24  2  0
 24 25  1  0
 25 26  2  0
 26 27  1  0
 27 28  2  0
 28 29  1  0
 16 30  1  0
 30 31  1  0
 12  6  1  0
 31 13  1  0
 29 19  2  0
 29 24  1  0
  3 32  1  0
  4 33  1  0
  4 34  1  0
  5 35  1  0
  5 36  1  0
  7 37  1  0
  8 38  1  0
 11 39  1  0
 12 40  1  0
 13 41  1  0
 14 42  1  0
 14 43  1  0
 15 44  1  0
 15 45  1  0
 16 46  1  0
 17 47  1  0
 17 48  1  0
 18 49  1  0
 20 50  1  0
 25 51  1  0
 26 52  1  0
 27 53  1  0
 28 54  1  0
 30 55  1  0
 30 56  1  0
 31 57  1  0
 31 58  1  0
M  END
$$$$
