
     RDKit          3D

 51 54  0  0  0  0  0  0  0  0999 V2000
    2.6309    0.9934    2.3252 C   0  0  0  0  0  0  0  0  0  0  0  0
    2.7179    1.1787    0.8043 C   0  0  0  0  0  0  0  0  0  0  0  0
    1.5706    2.0890    0.3162 C   0  0  0  0  0  0  0  0  0  0  0  0
    0.6062    1.0854   -0.2337 C   0  0  0  0  0  0  0  0  0  0  0  0
   -0.6991    1.3116   -0.6426 C   0  0  0  0  0  0  0  0  0  0  0  0
   -1.3970    0.2428   -1.2138 C   0  0  0  0  0  0  0  0  0  0  0  0
   -3.0709    0.5043   -1.7495 S   0  0  0  0  0  6  0  0  0  0  0  0
   -3.1153    1.8012   -2.3919 O   0  0  0  0  0  0  0  0  0  0  0  0
   -3.5307   -0.6863   -2.4332 O   0  0  0  0  0  0  0  0  0  0  0  0
   -3.9267    0.6098   -0.2708 N   0  0  0  0  0  0  0  0  0  0  0  0
   -3.8349   -0.5932    0.6055 C   0  0  0  0  0  0  0  0  0  0  0  0
   -4.8247   -0.4886    1.7594 C   0  0  0  0  0  0  0  0  0  0  0  0
   -6.2657   -0.4597    1.2551 C   0  0  0  0  0  0  0  0  0  0  0  0
   -6.3744    0.1269   -0.1503 C   0  0  0  0  0  0  0  0  0  0  0  0
   -5.3022    1.1773   -0.4042 C   0  0  0  0  0  0  0  0  0  0  0  0
   -0.7878   -1.0095   -1.3978 C   0  0  0  0  0  0  0  0  0  0  0  0
    0.5335   -1.2141   -0.9840 C   0  0  0  0  0  0  0  0  0  0  0  0
    1.2173   -0.1631   -0.3924 C   0  0  0  0  0  0  0  0  0  0  0  0
    2.5404   -0.1171    0.0991 N   0  0  0  0  0  0  0  0  0  0  0  0
    3.4925   -1.1240   -0.0496 C   0  0  0  0  0  0  0  0  0  0  0  0
    3.2233   -2.2354   -0.5222 O   0  0  0  0  0  0  0  0  0  0  0  0
    4.9502   -0.7599    0.3791 C   0  0  0  0  0  0  0  0  0  0  0  0
    6.0437   -1.8569    0.2257 C   0  0  0  0  0  0  0  0  0  0  0  0
    6.4008   -1.2374   -1.1361 C   0  0  0  0  0  0  0  0  0  0  0  0
    5.7879    0.0788   -0.6280 C   0  0  0  0  0  0  0  0  0  0  0  0
    3.3931    0.3048    2.6983 H   0  0  0  0  0  0  0  0  0  0  0  0
    1.6584    0.5854    2.6234 H   0  0  0  0  0  0  0  0  0  0  0  0
    2.7664    1.9526    2.8360 H   0  0  0  0  0  0  0  0  0  0  0  0
    3.6893    1.6154    0.5512 H   0  0  0  0  0  0  0  0  0  0  0  0
    1.1353    2.7000    1.1122 H   0  0  0  0  0  0  0  0  0  0  0  0
    1.9162    2.7378   -0.4963 H   0  0  0  0  0  0  0  0  0  0  0  0
   -1.1622    2.2885   -0.5361 H   0  0  0  0  0  0  0  0  0  0  0  0
   -4.0258   -1.5078    0.0332 H   0  0  0  0  0  0  0  0  0  0  0  0
   -2.8244   -0.6518    1.0227 H   0  0  0  0  0  0  0  0  0  0  0  0
   -4.6230    0.4273    2.3297 H   0  0  0  0  0  0  0  0  0  0  0  0
   -4.6932   -1.3266    2.4530 H   0  0  0  0  0  0  0  0  0  0  0  0
   -6.8765    0.1225    1.9554 H   0  0  0  0  0  0  0  0  0  0  0  0
   -6.6835   -1.4736    1.2502 H   0  0  0  0  0  0  0  0  0  0  0  0
   -6.2744   -0.6796   -0.8880 H   0  0  0  0  0  0  0  0  0  0  0  0
   -7.3716    0.5586   -0.2918 H   0  0  0  0  0  0  0  0  0  0  0  0
   -5.4589    1.6157   -1.3952 H   0  0  0  0  0  0  0  0  0  0  0  0
   -5.3949    2.0007    0.3142 H   0  0  0  0  0  0  0  0  0  0  0  0
   -1.3314   -1.8283   -1.8651 H   0  0  0  0  0  0  0  0  0  0  0  0
    0.9910   -2.1869   -1.1306 H   0  0  0  0  0  0  0  0  0  0  0  0
    4.9791   -0.3463    1.3927 H   0  0  0  0  0  0  0  0  0  0  0  0
    6.8463   -1.7795    0.9691 H   0  0  0  0  0  0  0  0  0  0  0  0
    5.7005   -2.8943    0.1943 H   0  0  0  0  0  0  0  0  0  0  0  0
    7.4658   -1.2036   -1.3785 H   0  0  0  0  0  0  0  0  0  0  0  0
    5.8575   -1.6805   -1.9785 H   0  0  0  0  0  0  0  0  0  0  0  0
    5.2256    0.6467   -1.3743 H   0  0  0  0  0  0  0  0  0  0  0  0
    6.5092    0.7487   -0.1454 H   0  0  0  0  0  0  0  0  0  0  0  0
  1  2  1  0
  2  3  1  0
  3  4  1  0
  4  5  2  0
  5  6  1  0
  6  7  1  0
  7  8  2  0
  7  9  2  0
  7 10  1  0
 10 11  1  0
 11 12  1  0
 12 13  1  0
 13 14  1  0
 14 15  1  0
  6 16  2  0
 16 17  1  0
 17 18  2  0
 18 19  1  0
 19 20  1  0
 20 21  2  0
 20 22  1  0
 22 23  1  0
 23 24  1  0
 24 25  1  0
 19  2  1  0
 25 22  1  0
 18  4  1  0
 15 10  1  0
  1 26  1  0
  1 27  1  0
  1 28  1  0
  2 29  1  0
  3 30  1  0
  3 31  1  0
  5 32  1  0
 11 33  1  0
 11 34  1  0
 12 35  1  0
 12 36  1  0
 13 37  1  0
 13 38  1  0
 14 39  1  0
 14 40  1  0
 15 41  1  0
 15 42  1  0
 16 43  1  0
 17 44  1  0
 22 45  1  0
 23 46  1  0
 23 47  1  0
 24 48  1  0
 24 49  1  0
 25 50  1  0
 25 51  1  0
M  END
$$$$
