
     RDKit          3D

 51 53  0  0  0  0  0  0  0  0999 V2000
   -1.1747    5.6170   -1.7776 C   0  0  0  0  0  0  0  0  0  0  0  0
   -0.0106    4.7059   -1.4130 C   0  0  0  0  0  0  0  0  0  0  0  0
    0.3938    3.7441   -2.5308 C   0  0  0  0  0  0  0  0  0  0  0  0
   -0.8887    2.5089   -2.9431 S   0  0  0  0  0  0  0  0  0  0  0  0
   -0.5085    1.2024   -1.7817 C   0  0  0  0  0  0  0  0  0  0  0  0
   -1.0325   -0.0516   -2.0143 C   0  0  0  0  0  0  0  0  0  0  0  0
   -0.7213   -1.0519   -1.1165 C   0  0  0  0  0  0  0  0  0  0  0  0
   -1.1767   -2.3497   -1.2982 N   0  0  0  0  0  0  0  0  0  0  0  0
   -0.6804   -3.3790   -0.3709 C   0  0  0  0  0  0  0  0  0  0  0  0
   -1.0278   -4.7814   -0.9234 C   0  0  0  0  0  0  0  0  0  0  0  0
   -2.4788   -5.0330   -1.0865 N   0  0  0  0  0  0  0  0  0  0  0  0
   -2.7215   -5.9331   -2.2098 C   0  0  0  0  0  0  0  0  0  0  0  0
   -3.2366   -3.7730   -1.2133 C   0  0  0  0  0  0  0  0  0  0  0  0
   -2.4971   -2.5993   -1.9014 C   0  0  0  0  0  0  0  0  0  0  0  0
    0.0770   -0.7897   -0.0677 N   0  0  0  0  0  0  0  0  0  0  0  0
    0.5358    0.4644    0.0987 C   0  0  0  0  0  0  0  0  0  0  0  0
    1.3999    0.7332    1.2666 C   0  0  0  0  0  0  0  0  0  0  0  0
    1.7933   -0.2949    2.1447 C   0  0  0  0  0  0  0  0  0  0  0  0
    2.6139   -0.0365    3.2493 C   0  0  0  0  0  0  0  0  0  0  0  0
    3.0650    1.2578    3.5148 C   0  0  0  0  0  0  0  0  0  0  0  0
    3.8579    1.3732    4.6222 O   0  0  0  0  0  0  0  0  0  0  0  0
    4.2904    2.6870    4.9667 C   0  0  0  0  0  0  0  0  0  0  0  0
    2.6898    2.2938    2.6612 C   0  0  0  0  0  0  0  0  0  0  0  0
    1.8701    2.0312    1.5537 C   0  0  0  0  0  0  0  0  0  0  0  0
    0.2661    1.4854   -0.7276 N   0  0  0  0  0  0  0  0  0  0  0  0
   -1.3387    6.3555   -0.9857 H   0  0  0  0  0  0  0  0  0  0  0  0
   -0.9702    6.1592   -2.7058 H   0  0  0  0  0  0  0  0  0  0  0  0
   -2.1046    5.0548   -1.9013 H   0  0  0  0  0  0  0  0  0  0  0  0
    0.8569    5.3402   -1.1847 H   0  0  0  0  0  0  0  0  0  0  0  0
   -0.2466    4.1621   -0.4931 H   0  0  0  0  0  0  0  0  0  0  0  0
    1.3326    3.2401   -2.2785 H   0  0  0  0  0  0  0  0  0  0  0  0
    0.5958    4.3169   -3.4422 H   0  0  0  0  0  0  0  0  0  0  0  0
   -1.6367   -0.2434   -2.8905 H   0  0  0  0  0  0  0  0  0  0  0  0
   -1.1192   -3.2437    0.6268 H   0  0  0  0  0  0  0  0  0  0  0  0
    0.4117   -3.3187   -0.2748 H   0  0  0  0  0  0  0  0  0  0  0  0
   -0.5109   -4.8862   -1.8882 H   0  0  0  0  0  0  0  0  0  0  0  0
   -0.6160   -5.5462   -0.2550 H   0  0  0  0  0  0  0  0  0  0  0  0
   -2.1797   -6.8753   -2.0712 H   0  0  0  0  0  0  0  0  0  0  0  0
   -2.4167   -5.4956   -3.1667 H   0  0  0  0  0  0  0  0  0  0  0  0
   -3.7844   -6.1899   -2.2735 H   0  0  0  0  0  0  0  0  0  0  0  0
   -3.4900   -3.4544   -0.1927 H   0  0  0  0  0  0  0  0  0  0  0  0
   -4.2020   -3.9407   -1.7057 H   0  0  0  0  0  0  0  0  0  0  0  0
   -3.1466   -1.7184   -1.8250 H   0  0  0  0  0  0  0  0  0  0  0  0
   -2.3589   -2.8233   -2.9662 H   0  0  0  0  0  0  0  0  0  0  0  0
    1.4607   -1.3192    1.9733 H   0  0  0  0  0  0  0  0  0  0  0  0
    2.9002   -0.8554    3.9075 H   0  0  0  0  0  0  0  0  0  0  0  0
    4.8910    2.6114    5.8781 H   0  0  0  0  0  0  0  0  0  0  0  0
    3.4363    3.3420    5.1839 H   0  0  0  0  0  0  0  0  0  0  0  0
    4.9288    3.1135    4.1821 H   0  0  0  0  0  0  0  0  0  0  0  0
    3.0143    3.3181    2.8207 H   0  0  0  0  0  0  0  0  0  0  0  0
    1.5953    2.8650    0.9068 H   0  0  0  0  0  0  0  0  0  0  0  0
  1  2  1  0
  2  3  1  0
  3  4  1  0
  4  5  1  0
  5  6  2  0
  6  7  1  0
  7  8  1  0
  8  9  1  0
  9 10  1  0
 10 11  1  0
 11 12  1  0
 11 13  1  0
 13 14  1  0
  7 15  2  0
 15 16  1  0
 16 17  1  0
 17 18  2  0
 18 19  1  0
 19 20  2  0
 20 21  1  0
 21 22  1  0
 20 23  1  0
 23 24  2  0
 16 25  2  0
 25  5  1  0
 14  8  1  0
 24 17  1  0
  1 26  1  0
  1 27  1  0
  1 28  1  0
  2 29  1  0
  2 30  1  0
  3 31  1  0
  3 32  1  0
  6 33  1  0
  9 34  1  0
  9 35  1  0
 10 36  1  0
 10 37  1  0
 12 38  1  0
 12 39  1  0
 12 40  1  0
 13 41  1  0
 13 42  1  0
 14 43  1  0
 14 44  1  0
 18 45  1  0
 19 46  1  0
 22 47  1  0
 22 48  1  0
 22 49  1  0
 23 50  1  0
 24 51  1  0
M  END
$$$$
