
     RDKit          3D

 60 64  0  0  0  0  0  0  0  0999 V2000
   -7.7315   -3.8679    3.9028 C   0  0  0  0  0  0  0  0  0  0  0  0
   -6.8730   -2.8397    3.2319 C   0  0  0  0  0  0  0  0  0  0  0  0
   -5.6498   -3.1970    2.6631 C   0  0  0  0  0  0  0  0  0  0  0  0
   -4.8326   -2.2324    2.0590 C   0  0  0  0  0  0  0  0  0  0  0  0
   -5.2078   -0.8876    2.0152 C   0  0  0  0  0  0  0  0  0  0  0  0
   -4.4413    0.1223    1.4223 N   0  0  0  0  0  0  0  0  0  0  0  0
   -3.2558    0.1384    0.6902 C   0  0  0  0  0  0  0  0  0  0  0  0
   -2.5678   -0.9650    0.4536 N   0  0  0  0  0  0  0  0  0  0  0  0
   -1.4718   -0.7905   -0.2693 C   0  0  0  0  0  0  0  0  0  0  0  0
   -0.7896   -1.9544   -0.5821 O   0  0  0  0  0  0  0  0  0  0  0  0
    0.5604   -1.7994   -0.8138 C   0  0  0  0  0  0  0  0  0  0  0  0
    1.1047   -2.4402   -1.9128 C   0  0  0  0  0  0  0  0  0  0  0  0
    2.4714   -2.3173   -2.1297 C   0  0  0  0  0  0  0  0  0  0  0  0
    3.2150   -1.5811   -1.2257 C   0  0  0  0  0  0  0  0  0  0  0  0
    4.5633   -1.4630   -1.4822 O   0  0  0  0  0  0  0  0  0  0  0  0
    5.2480   -0.6618   -0.5181 C   0  0  0  0  0  0  0  0  0  0  0  0
    6.6942   -0.5529   -0.9416 C   0  0  0  0  0  0  0  0  0  0  0  0
    7.0305    0.0541   -2.1621 C   0  0  0  0  0  0  0  0  0  0  0  0
    8.3642    0.1606   -2.5587 C   0  0  0  0  0  0  0  0  0  0  0  0
    9.3760   -0.3353   -1.7392 C   0  0  0  0  0  0  0  0  0  0  0  0
    9.0548   -0.9400   -0.5238 C   0  0  0  0  0  0  0  0  0  0  0  0
    7.7207   -1.0482   -0.1254 C   0  0  0  0  0  0  0  0  0  0  0  0
    2.6616   -0.9973   -0.1405 N   0  0  0  0  0  0  0  0  0  0  0  0
    1.3173   -1.1158    0.0761 N   0  0  0  0  0  0  0  0  0  0  0  0
   -1.0694    0.3549   -0.8078 N   0  0  0  0  0  0  0  0  0  0  0  0
   -1.7895    1.4199   -0.4931 C   0  0  0  0  0  0  0  0  0  0  0  0
   -1.4000    2.6642   -0.9995 N   0  0  0  0  0  0  0  0  0  0  0  0
    0.0352    2.7437   -1.3315 C   0  0  0  0  0  0  0  0  0  0  0  0
    0.3579    4.1109   -1.9533 C   0  0  0  0  0  0  0  0  0  0  0  0
   -0.0560    5.1899   -1.1010 O   0  0  0  0  0  0  0  0  0  0  0  0
   -1.4740    5.1267   -0.8857 C   0  0  0  0  0  0  0  0  0  0  0  0
   -1.8850    3.8093   -0.2106 C   0  0  0  0  0  0  0  0  0  0  0  0
   -2.8934    1.3413    0.2474 N   0  0  0  0  0  0  0  0  0  0  0  0
   -6.4302   -0.5382    2.6103 C   0  0  0  0  0  0  0  0  0  0  0  0
   -7.2519   -1.4967    3.2141 C   0  0  0  0  0  0  0  0  0  0  0  0
   -8.7903   -3.5965    3.8360 H   0  0  0  0  0  0  0  0  0  0  0  0
   -7.6172   -4.8454    3.4221 H   0  0  0  0  0  0  0  0  0  0  0  0
   -7.4546   -3.9574    4.9579 H   0  0  0  0  0  0  0  0  0  0  0  0
   -5.3160   -4.2318    2.6807 H   0  0  0  0  0  0  0  0  0  0  0  0
   -3.8937   -2.5659    1.6296 H   0  0  0  0  0  0  0  0  0  0  0  0
   -4.8231    1.0560    1.4528 H   0  0  0  0  0  0  0  0  0  0  0  0
    0.4798   -3.0071   -2.5920 H   0  0  0  0  0  0  0  0  0  0  0  0
    2.9461   -2.7770   -2.9874 H   0  0  0  0  0  0  0  0  0  0  0  0
    5.1812   -1.1264    0.4736 H   0  0  0  0  0  0  0  0  0  0  0  0
    4.8251    0.3506   -0.4724 H   0  0  0  0  0  0  0  0  0  0  0  0
    6.2483    0.4413   -2.8117 H   0  0  0  0  0  0  0  0  0  0  0  0
    8.6130    0.6288   -3.5075 H   0  0  0  0  0  0  0  0  0  0  0  0
   10.4150   -0.2524   -2.0476 H   0  0  0  0  0  0  0  0  0  0  0  0
    9.8447   -1.3299    0.1144 H   0  0  0  0  0  0  0  0  0  0  0  0
    7.4896   -1.5240    0.8257 H   0  0  0  0  0  0  0  0  0  0  0  0
    0.3236    1.9700   -2.0525 H   0  0  0  0  0  0  0  0  0  0  0  0
    0.6301    2.6157   -0.4181 H   0  0  0  0  0  0  0  0  0  0  0  0
   -0.1286    4.2231   -2.9300 H   0  0  0  0  0  0  0  0  0  0  0  0
    1.4373    4.2046   -2.1068 H   0  0  0  0  0  0  0  0  0  0  0  0
   -1.7502    5.9722   -0.2482 H   0  0  0  0  0  0  0  0  0  0  0  0
   -1.9864    5.2526   -1.8471 H   0  0  0  0  0  0  0  0  0  0  0  0
   -1.4483    3.7708    0.7966 H   0  0  0  0  0  0  0  0  0  0  0  0
   -2.9777    3.8016   -0.1224 H   0  0  0  0  0  0  0  0  0  0  0  0
   -6.7622    0.4971    2.6101 H   0  0  0  0  0  0  0  0  0  0  0  0
   -8.1902   -1.1832    3.6660 H   0  0  0  0  0  0  0  0  0  0  0  0
  1  2  1  0
  2  3  2  0
  3  4  1  0
  4  5  2  0
  5  6  1  0
  6  7  1  0
  7  8  2  0
  8  9  1  0
  9 10  1  0
 10 11  1  0
 11 12  2  0
 12 13  1  0
 13 14  2  0
 14 15  1  0
 15 16  1  0
 16 17  1  0
 17 18  2  0
 18 19  1  0
 19 20  2  0
 20 21  1  0
 21 22  2  0
 14 23  1  0
 23 24  2  0
  9 25  2  0
 25 26  1  0
 26 27  1  0
 27 28  1  0
 28 29  1  0
 29 30  1  0
 30 31  1  0
 31 32  1  0
 26 33  2  0
  5 34  1  0
 34 35  2  0
 35  2  1  0
 33  7  1  0
 24 11  1  0
 32 27  1  0
 22 17  1  0
  1 36  1  0
  1 37  1  0
  1 38  1  0
  3 39  1  0
  4 40  1  0
  6 41  1  0
 12 42  1  0
 13 43  1  0
 16 44  1  0
 16 45  1  0
 18 46  1  0
 19 47  1  0
 20 48  1  0
 21 49  1  0
 22 50  1  0
 28 51  1  0
 28 52  1  0
 29 53  1  0
 29 54  1  0
 31 55  1  0
 31 56  1  0
 32 57  1  0
 32 58  1  0
 34 59  1  0
 35 60  1  0
M  END
$$$$
