
     RDKit          3D

 44 46  0  0  0  0  0  0  0  0999 V2000
   -1.8257    1.4356    2.7114 O   0  0  0  0  0  0  0  0  0  0  0  0
   -1.6334    0.8156    1.6676 C   0  0  0  0  0  0  0  0  0  0  0  0
   -0.2620    0.7542    1.0134 C   0  0  0  0  0  0  0  0  0  0  0  0
   -0.3767    0.9753   -0.7958 S   0  0  0  0  0  0  0  0  0  0  0  0
    1.3442    0.8726   -1.2312 C   0  0  0  0  0  0  0  0  0  0  0  0
    1.7451    1.1521   -2.5252 C   0  0  0  0  0  0  0  0  0  0  0  0
    3.0985    1.0543   -2.8522 C   0  0  0  0  0  0  0  0  0  0  0  0
    4.0152    0.6807   -1.8762 C   0  0  0  0  0  0  0  0  0  0  0  0
    5.4656    0.5452   -2.1147 C   0  0  0  0  0  0  0  0  0  0  0  0
    6.2377   -0.3573   -1.3577 C   0  0  0  0  0  0  0  0  0  0  0  0
    7.6121   -0.5033   -1.5704 C   0  0  0  0  0  0  0  0  0  0  0  0
    8.2498    0.2551   -2.5462 C   0  0  0  0  0  0  0  0  0  0  0  0
    7.5153    1.1611   -3.3044 C   0  0  0  0  0  0  0  0  0  0  0  0
    6.1399    1.3052   -3.0893 C   0  0  0  0  0  0  0  0  0  0  0  0
    3.5805    0.4045   -0.6249 N   0  0  0  0  0  0  0  0  0  0  0  0
    2.2423    0.5004   -0.3016 N   0  0  0  0  0  0  0  0  0  0  0  0
   -2.6145    0.0660    1.0518 N   0  0  0  0  0  0  0  0  0  0  0  0
   -3.9443   -0.0989    1.6173 C   0  0  0  0  0  0  0  0  0  0  0  0
   -3.9587   -1.2522    2.6288 C   0  0  0  0  0  0  0  0  0  0  0  0
   -5.3587   -1.4952    3.1867 C   0  0  0  0  0  0  0  0  0  0  0  0
   -6.3786   -1.7173    2.0738 C   0  0  0  0  0  0  0  0  0  0  0  0
   -6.3680   -0.5731    1.0647 C   0  0  0  0  0  0  0  0  0  0  0  0
   -4.9696   -0.3324    0.5025 C   0  0  0  0  0  0  0  0  0  0  0  0
    0.1826   -0.2163    1.2553 H   0  0  0  0  0  0  0  0  0  0  0  0
    0.3544    1.5549    1.4345 H   0  0  0  0  0  0  0  0  0  0  0  0
    1.0242    1.4408   -3.2832 H   0  0  0  0  0  0  0  0  0  0  0  0
    3.4121    1.2557   -3.8710 H   0  0  0  0  0  0  0  0  0  0  0  0
    5.7653   -0.9644   -0.5859 H   0  0  0  0  0  0  0  0  0  0  0  0
    8.1803   -1.2083   -0.9689 H   0  0  0  0  0  0  0  0  0  0  0  0
    9.3186    0.1451   -2.7101 H   0  0  0  0  0  0  0  0  0  0  0  0
    8.0124    1.7635   -4.0606 H   0  0  0  0  0  0  0  0  0  0  0  0
    5.6075    2.0410   -3.6877 H   0  0  0  0  0  0  0  0  0  0  0  0
   -2.3520   -0.4826    0.2413 H   0  0  0  0  0  0  0  0  0  0  0  0
   -4.2041    0.8287    2.1440 H   0  0  0  0  0  0  0  0  0  0  0  0
   -3.2688   -1.0408    3.4549 H   0  0  0  0  0  0  0  0  0  0  0  0
   -3.5941   -2.1707    2.1496 H   0  0  0  0  0  0  0  0  0  0  0  0
   -5.3442   -2.3659    3.8520 H   0  0  0  0  0  0  0  0  0  0  0  0
   -5.6630   -0.6339    3.7942 H   0  0  0  0  0  0  0  0  0  0  0  0
   -6.1563   -2.6598    1.5577 H   0  0  0  0  0  0  0  0  0  0  0  0
   -7.3804   -1.8185    2.5062 H   0  0  0  0  0  0  0  0  0  0  0  0
   -6.7297    0.3431    1.5472 H   0  0  0  0  0  0  0  0  0  0  0  0
   -7.0609   -0.7971    0.2458 H   0  0  0  0  0  0  0  0  0  0  0  0
   -4.9896    0.5322   -0.1725 H   0  0  0  0  0  0  0  0  0  0  0  0
   -4.6704   -1.1948   -0.1079 H   0  0  0  0  0  0  0  0  0  0  0  0
  1  2  2  0
  2  3  1  0
  3  4  1  0
  4  5  1  0
  5  6  2  0
  6  7  1  0
  7  8  2  0
  8  9  1  0
  9 10  2  0
 10 11  1  0
 11 12  2  0
 12 13  1  0
 13 14  2  0
  8 15  1  0
 15 16  2  0
  2 17  1  0
 17 18  1  0
 18 19  1  0
 19 20  1  0
 20 21  1  0
 21 22  1  0
 22 23  1  0
 16  5  1  0
 23 18  1  0
 14  9  1  0
  3 24  1  0
  3 25  1  0
  6 26  1  0
  7 27  1  0
 10 28  1  0
 11 29  1  0
 12 30  1  0
 13 31  1  0
 14 32  1  0
 17 33  1  0
 18 34  1  0
 19 35  1  0
 19 36  1  0
 20 37  1  0
 20 38  1  0
 21 39  1  0
 21 40  1  0
 22 41  1  0
 22 42  1  0
 23 43  1  0
 23 44  1  0
M  END
$$$$
