
     RDKit          3D

 53 56  0  0  0  0  0  0  0  0999 V2000
    8.1628    1.6109   -0.8033 C   0  0  0  0  0  0  0  0  0  0  0  0
    7.0361    2.1324   -0.1108 O   0  0  0  0  0  0  0  0  0  0  0  0
    5.8022    1.8235   -0.6140 C   0  0  0  0  0  0  0  0  0  0  0  0
    4.7281    2.3134    0.1312 C   0  0  0  0  0  0  0  0  0  0  0  0
    3.4122    2.0712   -0.2694 C   0  0  0  0  0  0  0  0  0  0  0  0
    3.1494    1.3360   -1.4316 C   0  0  0  0  0  0  0  0  0  0  0  0
    1.7299    1.0526   -1.8464 C   0  0  0  0  0  0  0  0  0  0  0  0
    1.1901   -0.0597   -1.0947 N   0  0  0  0  0  0  0  0  0  0  0  0
    0.3682    0.1383    0.0062 C   0  0  0  0  0  0  0  0  0  0  0  0
   -0.0189    1.2595    0.3337 O   0  0  0  0  0  0  0  0  0  0  0  0
   -0.0094   -1.1389    0.7524 C   0  0  0  0  0  0  0  0  0  0  0  0
    1.0667   -1.4470    1.7076 C   0  0  0  0  0  0  0  0  0  0  0  0
    1.9571   -1.7351    2.3974 N   0  0  0  0  0  0  0  0  0  0  0  0
   -1.3828   -1.0425    1.3831 C   0  0  0  0  0  0  0  0  0  0  0  0
   -1.4816   -1.0227    2.7423 N   0  0  0  0  0  0  0  0  0  0  0  0
   -2.7140   -0.9306    3.2692 C   0  0  0  0  0  0  0  0  0  0  0  0
   -2.8699   -0.8934    4.6493 C   0  0  0  0  0  0  0  0  0  0  0  0
   -4.1334   -0.8000    5.2342 C   0  0  0  0  0  0  0  0  0  0  0  0
   -5.2598   -0.7425    4.4240 C   0  0  0  0  0  0  0  0  0  0  0  0
   -5.1119   -0.7794    3.0366 C   0  0  0  0  0  0  0  0  0  0  0  0
   -3.8582   -0.8730    2.4438 C   0  0  0  0  0  0  0  0  0  0  0  0
   -3.7589   -0.9093    1.1014 N   0  0  0  0  0  0  0  0  0  0  0  0
   -2.5212   -0.9945    0.5622 C   0  0  0  0  0  0  0  0  0  0  0  0
   -2.3763   -1.0161   -0.8444 N   0  0  0  0  0  0  0  0  0  0  0  0
   -2.7405    0.3126   -1.4003 C   0  0  0  0  0  0  0  0  0  0  0  0
   -3.9987    0.0827   -2.2296 C   0  0  0  0  0  0  0  0  0  0  0  0
   -3.8147   -1.3411   -2.7126 C   0  0  0  0  0  0  0  0  0  0  0  0
   -3.2540   -2.0287   -1.4738 C   0  0  0  0  0  0  0  0  0  0  0  0
    4.2293    0.8407   -2.1745 C   0  0  0  0  0  0  0  0  0  0  0  0
    5.5474    1.0859   -1.7702 C   0  0  0  0  0  0  0  0  0  0  0  0
    9.0619    1.9318   -0.2688 H   0  0  0  0  0  0  0  0  0  0  0  0
    8.1513    0.5160   -0.8089 H   0  0  0  0  0  0  0  0  0  0  0  0
    8.2206    2.0112   -1.8208 H   0  0  0  0  0  0  0  0  0  0  0  0
    4.9164    2.8843    1.0374 H   0  0  0  0  0  0  0  0  0  0  0  0
    2.5924    2.4556    0.3361 H   0  0  0  0  0  0  0  0  0  0  0  0
    1.1105    1.9479   -1.7251 H   0  0  0  0  0  0  0  0  0  0  0  0
    1.6905    0.7736   -2.9050 H   0  0  0  0  0  0  0  0  0  0  0  0
    1.6582   -0.9493   -1.2088 H   0  0  0  0  0  0  0  0  0  0  0  0
   -0.0416   -1.9648    0.0275 H   0  0  0  0  0  0  0  0  0  0  0  0
   -1.9846   -0.9358    5.2801 H   0  0  0  0  0  0  0  0  0  0  0  0
   -4.2312   -0.7705    6.3164 H   0  0  0  0  0  0  0  0  0  0  0  0
   -6.2503   -0.6676    4.8653 H   0  0  0  0  0  0  0  0  0  0  0  0
   -5.9923   -0.7329    2.4006 H   0  0  0  0  0  0  0  0  0  0  0  0
   -2.8902    1.1000   -0.6509 H   0  0  0  0  0  0  0  0  0  0  0  0
   -1.9225    0.6356   -2.0555 H   0  0  0  0  0  0  0  0  0  0  0  0
   -4.8905    0.1564   -1.5958 H   0  0  0  0  0  0  0  0  0  0  0  0
   -4.0968    0.8014   -3.0474 H   0  0  0  0  0  0  0  0  0  0  0  0
   -4.7458   -1.7972   -3.0603 H   0  0  0  0  0  0  0  0  0  0  0  0
   -3.0856   -1.3743   -3.5309 H   0  0  0  0  0  0  0  0  0  0  0  0
   -4.0819   -2.3579   -0.8342 H   0  0  0  0  0  0  0  0  0  0  0  0
   -2.6703   -2.9140   -1.7471 H   0  0  0  0  0  0  0  0  0  0  0  0
    4.0559    0.2594   -3.0773 H   0  0  0  0  0  0  0  0  0  0  0  0
    6.3507    0.6857   -2.3795 H   0  0  0  0  0  0  0  0  0  0  0  0
  1  2  1  0
  2  3  1  0
  3  4  2  0
  4  5  1  0
  5  6  2  0
  6  7  1  0
  7  8  1  0
  8  9  1  0
  9 10  2  0
  9 11  1  0
 11 12  1  0
 12 13  3  0
 11 14  1  0
 14 15  2  0
 15 16  1  0
 16 17  2  0
 17 18  1  0
 18 19  2  0
 19 20  1  0
 20 21  2  0
 21 22  1  0
 22 23  2  0
 23 24  1  0
 24 25  1  0
 25 26  1  0
 26 27  1  0
 27 28  1  0
  6 29  1  0
 29 30  2  0
 30  3  1  0
 23 14  1  0
 28 24  1  0
 21 16  1  0
  1 31  1  0
  1 32  1  0
  1 33  1  0
  4 34  1  0
  5 35  1  0
  7 36  1  0
  7 37  1  0
  8 38  1  0
 11 39  1  0
 17 40  1  0
 18 41  1  0
 19 42  1  0
 20 43  1  0
 25 44  1  0
 25 45  1  0
 26 46  1  0
 26 47  1  0
 27 48  1  0
 27 49  1  0
 28 50  1  0
 28 51  1  0
 29 52  1  0
 30 53  1  0
M  END
$$$$
