
     RDKit          3D

 39 41  0  0  0  0  0  0  0  0999 V2000
   -7.5594   -0.0691   -1.0843 C   0  0  0  0  0  0  0  0  0  0  0  0
   -6.5349    0.7059   -1.6936 O   0  0  0  0  0  0  0  0  0  0  0  0
   -5.2641    0.5265   -1.2231 C   0  0  0  0  0  0  0  0  0  0  0  0
   -4.2911    1.3031   -1.8497 C   0  0  0  0  0  0  0  0  0  0  0  0
   -2.9464    1.2195   -1.4669 C   0  0  0  0  0  0  0  0  0  0  0  0
   -2.5479    0.3535   -0.4410 C   0  0  0  0  0  0  0  0  0  0  0  0
   -1.1685    0.2617   -0.0392 N   0  0  0  0  0  0  0  0  0  0  0  0
   -0.6904   -0.1600    1.2117 C   0  0  0  0  0  0  0  0  0  0  0  0
   -1.4943   -0.4836    2.2240 O   0  0  0  0  0  0  0  0  0  0  0  0
    0.6877   -0.1170    1.1986 C   0  0  0  0  0  0  0  0  0  0  0  0
    1.0896    0.3339   -0.0688 C   0  0  0  0  0  0  0  0  0  0  0  0
    2.3591    0.5046   -0.5137 N   0  0  0  0  0  0  0  0  0  0  0  0
    3.4686    0.0435    0.2242 N   0  0  0  0  0  0  0  0  0  0  0  0
    4.5876   -0.3371   -0.5142 C   0  0  0  0  0  0  0  0  0  0  0  0
    4.5228   -0.4360   -1.7415 O   0  0  0  0  0  0  0  0  0  0  0  0
    5.7864   -0.5662    0.2685 C   0  0  0  0  0  0  0  0  0  0  0  0
    6.0373   -0.6101    1.6308 C   0  0  0  0  0  0  0  0  0  0  0  0
    7.4202   -0.8782    1.7876 C   0  0  0  0  0  0  0  0  0  0  0  0
    7.9336   -0.9853    0.5186 C   0  0  0  0  0  0  0  0  0  0  0  0
    6.9578   -0.8007   -0.4043 O   0  0  0  0  0  0  0  0  0  0  0  0
   -0.0441    0.5845   -0.8158 C   0  0  0  0  0  0  0  0  0  0  0  0
   -0.1378    1.0153   -2.0753 O   0  0  0  0  0  0  0  0  0  0  0  0
   -3.5330   -0.4248    0.1839 C   0  0  0  0  0  0  0  0  0  0  0  0
   -4.8788   -0.3398   -0.2040 C   0  0  0  0  0  0  0  0  0  0  0  0
   -7.6543    0.1687   -0.0196 H   0  0  0  0  0  0  0  0  0  0  0  0
   -8.5063    0.1890   -1.5683 H   0  0  0  0  0  0  0  0  0  0  0  0
   -7.3885   -1.1398   -1.2373 H   0  0  0  0  0  0  0  0  0  0  0  0
   -4.5785    1.9881   -2.6438 H   0  0  0  0  0  0  0  0  0  0  0  0
   -2.2448    1.8756   -1.9716 H   0  0  0  0  0  0  0  0  0  0  0  0
   -0.9359   -0.6996    2.9910 H   0  0  0  0  0  0  0  0  0  0  0  0
    1.3273   -0.3906    2.0248 H   0  0  0  0  0  0  0  0  0  0  0  0
    2.5470    0.4277   -1.5217 H   0  0  0  0  0  0  0  0  0  0  0  0
    3.5824    0.4602    1.1404 H   0  0  0  0  0  0  0  0  0  0  0  0
    5.3156   -0.4770    2.4239 H   0  0  0  0  0  0  0  0  0  0  0  0
    7.9741   -0.9855    2.7099 H   0  0  0  0  0  0  0  0  0  0  0  0
    8.9201   -1.1821    0.1213 H   0  0  0  0  0  0  0  0  0  0  0  0
    0.7604    1.2367   -2.3744 H   0  0  0  0  0  0  0  0  0  0  0  0
   -3.2843   -1.1432    0.9591 H   0  0  0  0  0  0  0  0  0  0  0  0
   -5.5940   -0.9722    0.3110 H   0  0  0  0  0  0  0  0  0  0  0  0
  1  2  1  0
  2  3  1  0
  3  4  2  0
  4  5  1  0
  5  6  2  0
  6  7  1  0
  7  8  1  0
  8  9  1  0
  8 10  2  0
 10 11  1  0
 11 12  1  0
 12 13  1  0
 13 14  1  0
 14 15  2  0
 14 16  1  0
 16 17  2  0
 17 18  1  0
 18 19  2  0
 19 20  1  0
 11 21  2  0
 21 22  1  0
  6 23  1  0
 23 24  2  0
 24  3  1  0
 21  7  1  0
 20 16  1  0
  1 25  1  0
  1 26  1  0
  1 27  1  0
  4 28  1  0
  5 29  1  0
  9 30  1  0
 10 31  1  0
 12 32  1  0
 13 33  1  0
 17 34  1  0
 18 35  1  0
 19 36  1  0
 22 37  1  0
 23 38  1  0
 24 39  1  0
M  END
$$$$
