
     RDKit          3D

 45 48  0  0  0  0  0  0  0  0999 V2000
   -4.5273    2.3540   -0.4953 C   0  0  0  0  0  0  0  0  0  0  0  0
   -3.7620    1.1574   -0.5269 O   0  0  0  0  0  0  0  0  0  0  0  0
   -4.4132   -0.0235   -0.2635 C   0  0  0  0  0  0  0  0  0  0  0  0
   -5.7832   -0.1153    0.0184 C   0  0  0  0  0  0  0  0  0  0  0  0
   -6.3725   -1.3516    0.2950 C   0  0  0  0  0  0  0  0  0  0  0  0
   -5.6009   -2.5078    0.2952 C   0  0  0  0  0  0  0  0  0  0  0  0
   -4.2379   -2.4287    0.0145 C   0  0  0  0  0  0  0  0  0  0  0  0
   -3.6233   -1.1989   -0.2751 C   0  0  0  0  0  0  0  0  0  0  0  0
   -2.2347   -1.2349   -0.5366 N   0  0  0  0  0  0  0  0  0  0  0  0
   -1.8329   -0.6625   -1.8425 C   0  0  0  0  0  0  0  0  0  0  0  0
   -0.8022    0.4743   -1.7182 C   0  0  0  0  0  0  0  0  0  0  0  0
    0.3526    0.1067   -0.8908 N   0  0  0  0  0  0  0  0  0  0  0  0
    1.6004    0.6517   -1.2027 C   0  0  0  0  0  0  0  0  0  0  0  0
    1.7054    1.5049   -2.0880 O   0  0  0  0  0  0  0  0  0  0  0  0
    2.8123    0.2209   -0.4830 C   0  0  0  0  0  0  0  0  0  0  0  0
    4.0848    0.8514   -0.5703 C   0  0  0  0  0  0  0  0  0  0  0  0
    4.9324    0.1169    0.2309 C   0  0  0  0  0  0  0  0  0  0  0  0
    6.3288    0.3187    0.5064 C   0  0  0  0  0  0  0  0  0  0  0  0
    7.1560    1.3083    0.0075 C   0  0  0  0  0  0  0  0  0  0  0  0
    8.4926    1.2045    0.4959 C   0  0  0  0  0  0  0  0  0  0  0  0
    8.6446    0.1394    1.3536 C   0  0  0  0  0  0  0  0  0  0  0  0
    7.1857   -0.7255    1.5643 S   0  0  0  0  0  0  0  0  0  0  0  0
    4.1973   -0.9087    0.7620 O   0  0  0  0  0  0  0  0  0  0  0  0
    2.8951   -0.8539    0.3141 N   0  0  0  0  0  0  0  0  0  0  0  0
    0.0542   -0.7285    0.2830 C   0  0  0  0  0  0  0  0  0  0  0  0
   -1.4472   -0.7765    0.6256 C   0  0  0  0  0  0  0  0  0  0  0  0
   -4.9522    2.5261    0.4990 H   0  0  0  0  0  0  0  0  0  0  0  0
   -3.8523    3.1867   -0.7157 H   0  0  0  0  0  0  0  0  0  0  0  0
   -5.3055    2.3456   -1.2655 H   0  0  0  0  0  0  0  0  0  0  0  0
   -6.4243    0.7593    0.0335 H   0  0  0  0  0  0  0  0  0  0  0  0
   -7.4359   -1.4095    0.5124 H   0  0  0  0  0  0  0  0  0  0  0  0
   -6.0550   -3.4708    0.5114 H   0  0  0  0  0  0  0  0  0  0  0  0
   -3.6379   -3.3358    0.0122 H   0  0  0  0  0  0  0  0  0  0  0  0
   -1.3720   -1.4804   -2.4110 H   0  0  0  0  0  0  0  0  0  0  0  0
   -2.6879   -0.3248   -2.4410 H   0  0  0  0  0  0  0  0  0  0  0  0
   -0.4719    0.7688   -2.7202 H   0  0  0  0  0  0  0  0  0  0  0  0
   -1.2526    1.3583   -1.2535 H   0  0  0  0  0  0  0  0  0  0  0  0
    4.3278    1.7281   -1.1527 H   0  0  0  0  0  0  0  0  0  0  0  0
    6.8284    2.0782   -0.6806 H   0  0  0  0  0  0  0  0  0  0  0  0
    9.2996    1.8768    0.2303 H   0  0  0  0  0  0  0  0  0  0  0  0
    9.5422   -0.1756    1.8682 H   0  0  0  0  0  0  0  0  0  0  0  0
    0.5975   -0.3413    1.1504 H   0  0  0  0  0  0  0  0  0  0  0  0
    0.4098   -1.7403    0.0571 H   0  0  0  0  0  0  0  0  0  0  0  0
   -1.5953   -1.4637    1.4678 H   0  0  0  0  0  0  0  0  0  0  0  0
   -1.7674    0.2218    0.9511 H   0  0  0  0  0  0  0  0  0  0  0  0
  1  2  1  0
  2  3  1  0
  3  4  2  0
  4  5  1  0
  5  6  2  0
  6  7  1  0
  7  8  2  0
  8  9  1  0
  9 10  1  0
 10 11  1  0
 11 12  1  0
 12 13  1  0
 13 14  2  0
 13 15  1  0
 15 16  1  0
 16 17  2  0
 17 18  1  0
 18 19  2  0
 19 20  1  0
 20 21  2  0
 21 22  1  0
 17 23  1  0
 23 24  1  0
 12 25  1  0
 25 26  1  0
  8  3  1  0
 26  9  1  0
 24 15  2  0
 22 18  1  0
  1 27  1  0
  1 28  1  0
  1 29  1  0
  4 30  1  0
  5 31  1  0
  6 32  1  0
  7 33  1  0
 10 34  1  0
 10 35  1  0
 11 36  1  0
 11 37  1  0
 16 38  1  0
 19 39  1  0
 20 40  1  0
 21 41  1  0
 25 42  1  0
 25 43  1  0
 26 44  1  0
 26 45  1  0
M  END
$$$$
