
     RDKit          3D

 38 40  0  0  0  0  0  0  0  0999 V2000
    2.1322    2.6485    1.2162 N   0  0  0  0  0  0  0  0  0  0  0  0
    2.0475    1.4911    1.1648 C   0  0  0  0  0  0  0  0  0  0  0  0
    1.9270    0.0797    1.0454 C   0  0  0  0  0  0  0  0  0  0  0  0
    2.5719   -0.6808    0.1397 C   0  0  0  0  0  0  0  0  0  0  0  0
    3.4186   -0.1885   -0.8993 C   0  0  0  0  0  0  0  0  0  0  0  0
    3.3801    0.9775   -1.6509 C   0  0  0  0  0  0  0  0  0  0  0  0
    4.4376    1.0661   -2.6077 C   0  0  0  0  0  0  0  0  0  0  0  0
    5.2349   -0.0455   -2.5664 C   0  0  0  0  0  0  0  0  0  0  0  0
    6.7512   -0.2986   -3.7012 Br  0  0  0  0  0  0  0  0  0  0  0  0
    4.7387   -1.1813   -1.4182 S   0  0  0  0  0  0  0  0  0  0  0  0
    1.0860   -0.6065    2.0682 C   0  0  0  0  0  0  0  0  0  0  0  0
    1.1072   -0.2673    3.2454 O   0  0  0  0  0  0  0  0  0  0  0  0
    0.2513   -1.5856    1.5745 N   0  0  0  0  0  0  0  0  0  0  0  0
   -0.8006   -2.1627    2.3985 C   0  0  0  0  0  0  0  0  0  0  0  0
   -2.0352   -1.2579    2.5140 C   0  0  0  0  0  0  0  0  0  0  0  0
   -2.6156   -0.9110    1.1746 C   0  0  0  0  0  0  0  0  0  0  0  0
   -3.4471   -1.7030    0.4066 C   0  0  0  0  0  0  0  0  0  0  0  0
   -3.7176   -1.0384   -0.7597 N   0  0  0  0  0  0  0  0  0  0  0  0
   -3.0669    0.1729   -0.7794 C   0  0  0  0  0  0  0  0  0  0  0  0
   -3.0356    1.1650   -1.7670 C   0  0  0  0  0  0  0  0  0  0  0  0
   -2.2886    2.3176   -1.5051 C   0  0  0  0  0  0  0  0  0  0  0  0
   -1.6104    2.4741   -0.2993 C   0  0  0  0  0  0  0  0  0  0  0  0
   -1.6574    1.4745    0.6784 C   0  0  0  0  0  0  0  0  0  0  0  0
   -2.3892    0.2942    0.4334 C   0  0  0  0  0  0  0  0  0  0  0  0
    2.4826   -1.7646    0.2099 H   0  0  0  0  0  0  0  0  0  0  0  0
    2.6272    1.7496   -1.5384 H   0  0  0  0  0  0  0  0  0  0  0  0
    4.5865    1.9009   -3.2817 H   0  0  0  0  0  0  0  0  0  0  0  0
    0.0952   -1.6261    0.5736 H   0  0  0  0  0  0  0  0  0  0  0  0
   -1.0680   -3.1208    1.9394 H   0  0  0  0  0  0  0  0  0  0  0  0
   -0.3977   -2.3656    3.3969 H   0  0  0  0  0  0  0  0  0  0  0  0
   -1.7744   -0.3391    3.0524 H   0  0  0  0  0  0  0  0  0  0  0  0
   -2.7965   -1.7665    3.1180 H   0  0  0  0  0  0  0  0  0  0  0  0
   -3.8676   -2.6832    0.5896 H   0  0  0  0  0  0  0  0  0  0  0  0
   -4.3065   -1.3833   -1.5052 H   0  0  0  0  0  0  0  0  0  0  0  0
   -3.5727    1.0528   -2.7032 H   0  0  0  0  0  0  0  0  0  0  0  0
   -2.2458    3.1088   -2.2504 H   0  0  0  0  0  0  0  0  0  0  0  0
   -1.0439    3.3833   -0.1080 H   0  0  0  0  0  0  0  0  0  0  0  0
   -1.1385    1.6195    1.6222 H   0  0  0  0  0  0  0  0  0  0  0  0
  1  2  3  0
  2  3  1  0
  3  4  2  3
  4  5  1  0
  5  6  2  0
  6  7  1  0
  7  8  2  0
  8  9  1  0
  8 10  1  0
  3 11  1  0
 11 12  2  0
 11 13  1  0
 13 14  1  0
 14 15  1  0
 15 16  1  0
 16 17  2  0
 17 18  1  0
 18 19  1  0
 19 20  2  0
 20 21  1  0
 21 22  2  0
 22 23  1  0
 23 24  2  0
 10  5  1  0
 24 16  1  0
 24 19  1  0
  4 25  1  0
  6 26  1  0
  7 27  1  0
 13 28  1  0
 14 29  1  0
 14 30  1  0
 15 31  1  0
 15 32  1  0
 17 33  1  0
 18 34  1  0
 20 35  1  0
 21 36  1  0
 22 37  1  0
 23 38  1  0
M  END
$$$$
