
     RDKit          3D

 42 45  0  0  0  0  0  0  0  0999 V2000
    6.6412   -1.2220   -0.6510 C   0  0  0  0  0  0  0  0  0  0  0  0
    5.9266   -0.1738   -1.4852 C   0  0  0  0  0  0  0  0  0  0  0  0
    4.8467    0.4880   -0.6842 C   0  0  0  0  0  0  0  0  0  0  0  0
    3.6459    0.0055   -0.5664 N   0  0  0  0  0  0  0  0  0  0  0  0
    2.9133    0.8535    0.2500 N   0  0  0  0  0  0  0  0  0  0  0  0
    1.5892    0.6213    0.5646 C   0  0  0  0  0  0  0  0  0  0  0  0
    0.9667   -0.4449    0.1546 N   0  0  0  0  0  0  0  0  0  0  0  0
    0.9418    1.6656    1.4265 C   0  0  0  0  0  0  0  0  0  0  0  0
   -0.3710    1.7183    1.7307 C   0  0  0  0  0  0  0  0  0  0  0  0
   -1.4091    0.8538    1.2798 C   0  0  0  0  0  0  0  0  0  0  0  0
   -2.0625   -0.1687    1.9939 C   0  0  0  0  0  0  0  0  0  0  0  0
   -1.8161   -0.6176    3.3869 C   0  0  0  0  0  0  0  0  0  0  0  0
   -2.9921   -0.7753    1.2503 N   0  0  0  0  0  0  0  0  0  0  0  0
   -2.9750   -0.1335    0.0354 N   0  0  0  0  0  0  0  0  0  0  0  0
   -3.9303   -0.5467   -0.9511 C   0  0  0  0  0  0  0  0  0  0  0  0
   -4.2567    0.2203   -2.0751 C   0  0  0  0  0  0  0  0  0  0  0  0
   -5.2012   -0.2409   -3.0013 C   0  0  0  0  0  0  0  0  0  0  0  0
   -5.8367   -1.4651   -2.8130 C   0  0  0  0  0  0  0  0  0  0  0  0
   -5.5383   -2.2304   -1.6913 C   0  0  0  0  0  0  0  0  0  0  0  0
   -4.5974   -1.7733   -0.7646 C   0  0  0  0  0  0  0  0  0  0  0  0
   -2.0000    0.8537    0.0392 C   0  0  0  0  0  0  0  0  0  0  0  0
   -1.5691    1.8019   -1.3168 Cl  0  0  0  0  0  0  0  0  0  0  0  0
    1.8181    2.7660    1.9868 C   0  0  0  0  0  0  0  0  0  0  0  0
    1.3683    3.5614    2.8050 O   0  0  0  0  0  0  0  0  0  0  0  0
    3.1247    2.8515    1.5499 N   0  0  0  0  0  0  0  0  0  0  0  0
    3.5715    1.9456    0.7559 C   0  0  0  0  0  0  0  0  0  0  0  0
    5.2177    1.9753    0.1714 S   0  0  0  0  0  0  0  0  0  0  0  0
    5.9408   -1.9822   -0.2890 H   0  0  0  0  0  0  0  0  0  0  0  0
    7.1225   -0.7710    0.2230 H   0  0  0  0  0  0  0  0  0  0  0  0
    7.4117   -1.7220   -1.2457 H   0  0  0  0  0  0  0  0  0  0  0  0
    5.4688   -0.6487   -2.3601 H   0  0  0  0  0  0  0  0  0  0  0  0
    6.6415    0.5715   -1.8490 H   0  0  0  0  0  0  0  0  0  0  0  0
    1.6446   -0.9796   -0.4094 H   0  0  0  0  0  0  0  0  0  0  0  0
   -0.7204    2.5173    2.3853 H   0  0  0  0  0  0  0  0  0  0  0  0
   -2.5017   -1.4197    3.6795 H   0  0  0  0  0  0  0  0  0  0  0  0
   -0.7931   -0.9932    3.4906 H   0  0  0  0  0  0  0  0  0  0  0  0
   -1.9526    0.2136    4.0861 H   0  0  0  0  0  0  0  0  0  0  0  0
   -3.8421    1.2026   -2.2587 H   0  0  0  0  0  0  0  0  0  0  0  0
   -5.4478    0.3677   -3.8683 H   0  0  0  0  0  0  0  0  0  0  0  0
   -6.5697   -1.8167   -3.5341 H   0  0  0  0  0  0  0  0  0  0  0  0
   -6.0351   -3.1838   -1.5319 H   0  0  0  0  0  0  0  0  0  0  0  0
   -4.3838   -2.3996    0.1007 H   0  0  0  0  0  0  0  0  0  0  0  0
  1  2  1  0
  2  3  1  0
  3  4  2  0
  4  5  1  0
  5  6  1  0
  6  7  2  3
  6  8  1  0
  8  9  2  3
  9 10  1  0
 10 11  1  0
 11 12  1  0
 11 13  2  0
 13 14  1  0
 14 15  1  0
 15 16  2  0
 16 17  1  0
 17 18  2  0
 18 19  1  0
 19 20  2  0
 14 21  1  0
 21 22  1  0
  8 23  1  0
 23 24  2  0
 23 25  1  0
 25 26  2  0
 26 27  1  0
 27  3  1  0
 26  5  1  0
 21 10  2  0
 20 15  1  0
  1 28  1  0
  1 29  1  0
  1 30  1  0
  2 31  1  0
  2 32  1  0
  7 33  1  0
  9 34  1  0
 12 35  1  0
 12 36  1  0
 12 37  1  0
 16 38  1  0
 17 39  1  0
 18 40  1  0
 19 41  1  0
 20 42  1  0
M  END
$$$$
