
     RDKit          3D

 55 57  0  0  0  0  0  0  0  0999 V2000
    0.8095   -0.9697   -0.8627 O   0  0  0  0  0  0  0  0  0  0  0  0
    1.2855    0.0393   -1.3796 C   0  0  0  0  0  0  0  0  0  0  0  0
    0.4134    1.2035   -1.8571 C   0  0  0  0  0  0  0  0  0  0  0  0
   -0.8856    1.1600   -1.2647 O   0  0  0  0  0  0  0  0  0  0  0  0
   -0.8984    1.5305    0.0554 C   0  0  0  0  0  0  0  0  0  0  0  0
    0.0660    2.0208    0.6301 O   0  0  0  0  0  0  0  0  0  0  0  0
   -2.2579    1.2276    0.7093 C   0  0  0  0  0  0  0  0  0  0  0  0
   -2.0588    0.2480    1.8792 C   0  0  0  0  0  0  0  0  0  0  0  0
   -1.7639    0.9432    3.1879 C   0  0  0  0  0  0  0  0  0  0  0  0
   -2.8033    1.5364    3.9188 C   0  0  0  0  0  0  0  0  0  0  0  0
   -2.5382    2.1868    5.1247 C   0  0  0  0  0  0  0  0  0  0  0  0
   -1.2332    2.2522    5.6098 C   0  0  0  0  0  0  0  0  0  0  0  0
   -0.1929    1.6683    4.8890 C   0  0  0  0  0  0  0  0  0  0  0  0
   -0.4559    1.0166    3.6830 C   0  0  0  0  0  0  0  0  0  0  0  0
   -3.1945    0.6707   -0.2775 N   0  0  0  0  0  0  0  0  0  0  0  0
   -4.5584    0.6720   -0.0738 C   0  0  0  0  0  0  0  0  0  0  0  0
   -5.0344    1.1690    0.9450 O   0  0  0  0  0  0  0  0  0  0  0  0
   -5.3443    0.0438   -1.1298 C   0  0  0  0  0  0  0  0  0  0  0  0
   -4.9753   -0.3804   -2.3959 C   0  0  0  0  0  0  0  0  0  0  0  0
   -6.0611   -0.9541   -3.1235 C   0  0  0  0  0  0  0  0  0  0  0  0
   -7.2276   -0.9497   -2.3963 C   0  0  0  0  0  0  0  0  0  0  0  0
   -7.0152   -0.2522   -0.8526 S   0  0  0  0  0  0  0  0  0  0  0  0
    2.6365    0.2215   -1.5921 N   0  0  0  0  0  0  0  0  0  0  0  0
    3.6100   -0.8075   -1.2556 C   0  0  0  0  0  0  0  0  0  0  0  0
    4.9968   -0.1963   -1.0520 C   0  0  0  0  0  0  0  0  0  0  0  0
    6.0191   -1.2398   -0.5937 C   0  0  0  0  0  0  0  0  0  0  0  0
    5.7055   -2.6570   -1.0762 C   0  0  0  0  0  0  0  0  0  0  0  0
    4.9761   -2.6504   -2.4120 C   0  0  0  0  0  0  0  0  0  0  0  0
    3.6405   -1.9050   -2.3333 C   0  0  0  0  0  0  0  0  0  0  0  0
    0.9004    2.1681   -1.6726 H   0  0  0  0  0  0  0  0  0  0  0  0
    0.2833    1.0960   -2.9392 H   0  0  0  0  0  0  0  0  0  0  0  0
   -2.6791    2.1849    1.0383 H   0  0  0  0  0  0  0  0  0  0  0  0
   -2.9559   -0.3677    2.0321 H   0  0  0  0  0  0  0  0  0  0  0  0
   -1.2591   -0.4690    1.6496 H   0  0  0  0  0  0  0  0  0  0  0  0
   -3.8277    1.4948    3.5500 H   0  0  0  0  0  0  0  0  0  0  0  0
   -3.3509    2.6431    5.6838 H   0  0  0  0  0  0  0  0  0  0  0  0
   -1.0270    2.7601    6.5480 H   0  0  0  0  0  0  0  0  0  0  0  0
    0.8259    1.7236    5.2631 H   0  0  0  0  0  0  0  0  0  0  0  0
    0.3692    0.5747    3.1275 H   0  0  0  0  0  0  0  0  0  0  0  0
   -2.7906    0.1850   -1.0665 H   0  0  0  0  0  0  0  0  0  0  0  0
   -3.9773   -0.2844   -2.8038 H   0  0  0  0  0  0  0  0  0  0  0  0
   -5.9890   -1.3470   -4.1301 H   0  0  0  0  0  0  0  0  0  0  0  0
   -8.1995   -1.3189   -2.6965 H   0  0  0  0  0  0  0  0  0  0  0  0
    2.9524    1.0345   -2.1050 H   0  0  0  0  0  0  0  0  0  0  0  0
    3.2895   -1.2605   -0.3079 H   0  0  0  0  0  0  0  0  0  0  0  0
    5.3380    0.2557   -1.9933 H   0  0  0  0  0  0  0  0  0  0  0  0
    4.9585    0.6215   -0.3217 H   0  0  0  0  0  0  0  0  0  0  0  0
    7.0123   -0.9381   -0.9488 H   0  0  0  0  0  0  0  0  0  0  0  0
    6.0769   -1.2468    0.5018 H   0  0  0  0  0  0  0  0  0  0  0  0
    6.6349   -3.2337   -1.1515 H   0  0  0  0  0  0  0  0  0  0  0  0
    5.0831   -3.1658   -0.3292 H   0  0  0  0  0  0  0  0  0  0  0  0
    4.8038   -3.6771   -2.7562 H   0  0  0  0  0  0  0  0  0  0  0  0
    5.6143   -2.1724   -3.1661 H   0  0  0  0  0  0  0  0  0  0  0  0
    2.8350   -2.6216   -2.1274 H   0  0  0  0  0  0  0  0  0  0  0  0
    3.4186   -1.4869   -3.3237 H   0  0  0  0  0  0  0  0  0  0  0  0
  1  2  2  0
  2  3  1  0
  3  4  1  0
  4  5  1  0
  5  6  2  0
  5  7  1  0
  7  8  1  0
  8  9  1  0
  9 10  2  0
 10 11  1  0
 11 12  2  0
 12 13  1  0
 13 14  2  0
  7 15  1  0
 15 16  1  0
 16 17  2  0
 16 18  1  0
 18 19  2  0
 19 20  1  0
 20 21  2  0
 21 22  1  0
  2 23  1  0
 23 24  1  0
 24 25  1  0
 25 26  1  0
 26 27  1  0
 27 28  1  0
 28 29  1  0
 14  9  1  0
 22 18  1  0
 29 24  1  0
  3 30  1  0
  3 31  1  0
  7 32  1  0
  8 33  1  0
  8 34  1  0
 10 35  1  0
 11 36  1  0
 12 37  1  0
 13 38  1  0
 14 39  1  0
 15 40  1  0
 19 41  1  0
 20 42  1  0
 21 43  1  0
 23 44  1  0
 24 45  1  0
 25 46  1  0
 25 47  1  0
 26 48  1  0
 26 49  1  0
 27 50  1  0
 27 51  1  0
 28 52  1  0
 28 53  1  0
 29 54  1  0
 29 55  1  0
M  END
$$$$
