
     RDKit          3D

 53 56  0  0  0  0  0  0  0  0999 V2000
    7.1636   -0.2916    0.7889 C   0  0  0  0  0  0  0  0  0  0  0  0
    5.7508   -0.2005    0.6486 O   0  0  0  0  0  0  0  0  0  0  0  0
    5.1974    1.0470    0.7180 C   0  0  0  0  0  0  0  0  0  0  0  0
    5.8670    2.2230    1.0324 C   0  0  0  0  0  0  0  0  0  0  0  0
    5.1724    3.4370    1.0743 C   0  0  0  0  0  0  0  0  0  0  0  0
    3.8013    3.4963    0.7863 C   0  0  0  0  0  0  0  0  0  0  0  0
    3.0949    4.6718    0.8014 O   0  0  0  0  0  0  0  0  0  0  0  0
    3.8302    5.8703    0.6003 C   0  0  0  0  0  0  0  0  0  0  0  0
    3.1064    2.3073    0.4867 C   0  0  0  0  0  0  0  0  0  0  0  0
    1.6816    2.2491    0.1499 C   0  0  0  0  0  0  0  0  0  0  0  0
    0.7055    3.1129    0.6119 C   0  0  0  0  0  0  0  0  0  0  0  0
   -0.8158    2.7023   -0.0673 S   0  0  0  0  0  0  0  0  0  0  0  0
   -0.0828    1.3750   -0.8461 C   0  0  0  0  0  0  0  0  0  0  0  0
   -0.9432    0.5881   -1.5550 N   0  0  0  0  0  0  0  0  0  0  0  0
   -0.5658   -0.6340   -2.0648 C   0  0  0  0  0  0  0  0  0  0  0  0
    0.5462   -1.1535   -2.0208 O   0  0  0  0  0  0  0  0  0  0  0  0
   -1.7095   -1.3788   -2.7093 C   0  0  0  0  0  0  0  0  0  0  0  0
   -2.6245   -1.8603   -1.6945 N   0  0  0  0  0  0  0  0  0  0  0  0
   -2.4681   -3.0011   -0.9390 C   0  0  0  0  0  0  0  0  0  0  0  0
   -1.3913   -3.7777   -0.9754 O   0  0  0  0  0  0  0  0  0  0  0  0
   -3.6140   -3.1477   -0.1868 C   0  0  0  0  0  0  0  0  0  0  0  0
   -4.4509   -2.0218   -0.4395 C   0  0  0  0  0  0  0  0  0  0  0  0
   -3.7878   -1.2178   -1.3401 C   0  0  0  0  0  0  0  0  0  0  0  0
   -4.0999   -0.0348   -1.8557 O   0  0  0  0  0  0  0  0  0  0  0  0
   -5.7806   -1.8430    0.2142 C   0  0  0  0  0  0  0  0  0  0  0  0
   -5.9222   -2.7377    1.4561 C   0  0  0  0  0  0  0  0  0  0  0  0
   -5.4407   -4.1737    1.1873 C   0  0  0  0  0  0  0  0  0  0  0  0
   -3.9558   -4.2211    0.7930 C   0  0  0  0  0  0  0  0  0  0  0  0
    1.1999    1.2381   -0.6739 N   0  0  0  0  0  0  0  0  0  0  0  0
    3.8275    1.0968    0.4513 C   0  0  0  0  0  0  0  0  0  0  0  0
    7.6756    0.2697    0.0001 H   0  0  0  0  0  0  0  0  0  0  0  0
    7.4407   -1.3431    0.6849 H   0  0  0  0  0  0  0  0  0  0  0  0
    7.4868    0.0355    1.7823 H   0  0  0  0  0  0  0  0  0  0  0  0
    6.9285    2.2360    1.2539 H   0  0  0  0  0  0  0  0  0  0  0  0
    5.7331    4.3265    1.3426 H   0  0  0  0  0  0  0  0  0  0  0  0
    4.3882    6.1409    1.5023 H   0  0  0  0  0  0  0  0  0  0  0  0
    4.4890    5.8012   -0.2698 H   0  0  0  0  0  0  0  0  0  0  0  0
    3.1102    6.6708    0.4064 H   0  0  0  0  0  0  0  0  0  0  0  0
    0.7970    3.9517    1.2857 H   0  0  0  0  0  0  0  0  0  0  0  0
   -1.9216    0.8442   -1.5365 H   0  0  0  0  0  0  0  0  0  0  0  0
   -2.2393   -0.7410   -3.4255 H   0  0  0  0  0  0  0  0  0  0  0  0
   -1.3271   -2.2476   -3.2609 H   0  0  0  0  0  0  0  0  0  0  0  0
   -0.6340   -3.3207   -1.3854 H   0  0  0  0  0  0  0  0  0  0  0  0
   -5.0175    0.1458   -1.5792 H   0  0  0  0  0  0  0  0  0  0  0  0
   -5.9345   -0.7948    0.4952 H   0  0  0  0  0  0  0  0  0  0  0  0
   -6.5609   -2.1060   -0.5114 H   0  0  0  0  0  0  0  0  0  0  0  0
   -5.3397   -2.3141    2.2850 H   0  0  0  0  0  0  0  0  0  0  0  0
   -6.9714   -2.7486    1.7742 H   0  0  0  0  0  0  0  0  0  0  0  0
   -5.6045   -4.7951    2.0763 H   0  0  0  0  0  0  0  0  0  0  0  0
   -6.0444   -4.6075    0.3798 H   0  0  0  0  0  0  0  0  0  0  0  0
   -3.3388   -4.0853    1.6888 H   0  0  0  0  0  0  0  0  0  0  0  0
   -3.7193   -5.2080    0.3786 H   0  0  0  0  0  0  0  0  0  0  0  0
    3.3121    0.1697    0.2002 H   0  0  0  0  0  0  0  0  0  0  0  0
  1  2  1  0
  2  3  1  0
  3  4  2  0
  4  5  1  0
  5  6  2  0
  6  7  1  0
  7  8  1  0
  6  9  1  0
  9 10  1  0
 10 11  2  0
 11 12  1  0
 12 13  1  0
 13 14  1  0
 14 15  1  0
 15 16  2  0
 15 17  1  0
 17 18  1  0
 18 19  1  0
 19 20  1  0
 19 21  2  0
 21 22  1  0
 22 23  2  0
 23 24  1  0
 22 25  1  0
 25 26  1  0
 26 27  1  0
 27 28  1  0
 13 29  2  0
  9 30  2  0
 30  3  1  0
 29 10  1  0
 23 18  1  0
 28 21  1  0
  1 31  1  0
  1 32  1  0
  1 33  1  0
  4 34  1  0
  5 35  1  0
  8 36  1  0
  8 37  1  0
  8 38  1  0
 11 39  1  0
 14 40  1  0
 17 41  1  0
 17 42  1  0
 20 43  1  0
 24 44  1  0
 25 45  1  0
 25 46  1  0
 26 47  1  0
 26 48  1  0
 27 49  1  0
 27 50  1  0
 28 51  1  0
 28 52  1  0
 30 53  1  0
M  END
$$$$
