
     RDKit          3D

 33 35  0  0  0  0  0  0  0  0999 V2000
    4.4100   -1.4156    1.4031 C   0  0  0  0  0  0  0  0  0  0  0  0
    4.6528   -0.1680    0.6166 C   0  0  0  0  0  0  0  0  0  0  0  0
    5.9545    0.2399    0.1676 C   0  0  0  0  0  0  0  0  0  0  0  0
    5.9298    1.4177   -0.5417 C   0  0  0  0  0  0  0  0  0  0  0  0
    4.3509    2.0445   -0.6757 S   0  0  0  0  0  0  0  0  0  0  0  0
    3.6820    0.7427    0.2186 C   0  0  0  0  0  0  0  0  0  0  0  0
    2.2500    0.7505    0.4400 C   0  0  0  0  0  0  0  0  0  0  0  0
    1.6755   -0.1669    1.1581 N   0  0  0  0  0  0  0  0  0  0  0  0
    0.3065   -0.1202    1.2993 N   0  0  0  0  0  0  0  0  0  0  0  0
   -0.5846    0.2128    0.2777 C   0  0  0  0  0  0  0  0  0  0  0  0
   -0.2376    0.5671   -0.8454 O   0  0  0  0  0  0  0  0  0  0  0  0
   -1.9732    0.0769    0.6457 C   0  0  0  0  0  0  0  0  0  0  0  0
   -2.4965    0.1179    1.9258 N   0  0  0  0  0  0  0  0  0  0  0  0
   -3.8415   -0.0501    1.9922 N   0  0  0  0  0  0  0  0  0  0  0  0
   -4.1705   -0.1413    0.7132 C   0  0  0  0  0  0  0  0  0  0  0  0
   -3.0825   -0.0609   -0.1491 C   0  0  0  0  0  0  0  0  0  0  0  0
   -3.4841   -0.1626   -1.5625 C   0  0  0  0  0  0  0  0  0  0  0  0
   -5.0407    0.0053   -1.4664 C   0  0  0  0  0  0  0  0  0  0  0  0
   -5.4554   -0.3096    0.0121 C   0  0  0  0  0  0  0  0  0  0  0  0
    3.9926   -1.1760    2.3862 H   0  0  0  0  0  0  0  0  0  0  0  0
    5.3415   -1.9688    1.5633 H   0  0  0  0  0  0  0  0  0  0  0  0
    3.7183   -2.0778    0.8726 H   0  0  0  0  0  0  0  0  0  0  0  0
    6.8676   -0.3123    0.3573 H   0  0  0  0  0  0  0  0  0  0  0  0
    6.7651    1.9388   -0.9890 H   0  0  0  0  0  0  0  0  0  0  0  0
    1.6817    1.5909    0.0035 H   0  0  0  0  0  0  0  0  0  0  0  0
   -0.0274   -0.7790    1.9949 H   0  0  0  0  0  0  0  0  0  0  0  0
   -1.9993    0.2753    2.7954 H   0  0  0  0  0  0  0  0  0  0  0  0
   -3.2317   -1.1476   -1.9681 H   0  0  0  0  0  0  0  0  0  0  0  0
   -3.0424    0.6151   -2.1912 H   0  0  0  0  0  0  0  0  0  0  0  0
   -5.5696   -0.6259   -2.1875 H   0  0  0  0  0  0  0  0  0  0  0  0
   -5.2985    1.0487   -1.6919 H   0  0  0  0  0  0  0  0  0  0  0  0
   -6.2298    0.3787    0.3608 H   0  0  0  0  0  0  0  0  0  0  0  0
   -5.8133   -1.3404    0.0971 H   0  0  0  0  0  0  0  0  0  0  0  0
  1  2  1  0
  2  3  1  0
  3  4  2  0
  4  5  1  0
  5  6  1  0
  6  7  1  0
  7  8  2  3
  8  9  1  0
  9 10  1  0
 10 11  2  0
 10 12  1  0
 12 13  1  0
 13 14  1  0
 14 15  2  0
 15 16  1  0
 16 17  1  0
 17 18  1  0
 18 19  1  0
  6  2  2  0
 16 12  2  0
 19 15  1  0
  1 20  1  0
  1 21  1  0
  1 22  1  0
  3 23  1  0
  4 24  1  0
  7 25  1  0
  9 26  1  0
 13 27  1  0
 17 28  1  0
 17 29  1  0
 18 30  1  0
 18 31  1  0
 19 32  1  0
 19 33  1  0
M  END
$$$$
