
     RDKit          3D

 34 36  0  0  0  0  0  0  0  0999 V2000
    4.8142   -2.9941    1.4162 C   0  0  0  0  0  0  0  0  0  0  0  0
    4.0289   -1.7186    1.3661 C   0  0  0  0  0  0  0  0  0  0  0  0
    3.6369   -1.0947    2.5327 C   0  0  0  0  0  0  0  0  0  0  0  0
    2.9266    0.0731    2.3846 C   0  0  0  0  0  0  0  0  0  0  0  0
    2.6094    0.6047    1.1924 N   0  0  0  0  0  0  0  0  0  0  0  0
    3.0148   -0.0832    0.1073 C   0  0  0  0  0  0  0  0  0  0  0  0
    2.6754    0.5927   -1.5028 S   0  0  0  0  0  0  0  0  0  0  0  0
    1.0148    1.1178   -1.3513 C   0  0  0  0  0  0  0  0  0  0  0  0
    0.5833    2.4359   -1.5845 C   0  0  0  0  0  0  0  0  0  0  0  0
   -0.7746    2.4778   -1.3481 C   0  0  0  0  0  0  0  0  0  0  0  0
   -1.6084    3.5102   -1.4634 O   0  0  0  0  0  0  0  0  0  0  0  0
   -1.2081    1.1865   -1.0298 N   0  0  0  0  0  0  0  0  0  0  0  0
   -2.5651    0.7692   -0.8361 C   0  0  0  0  0  0  0  0  0  0  0  0
   -2.9656   -0.5244   -1.2083 C   0  0  0  0  0  0  0  0  0  0  0  0
   -4.2883   -0.9370   -1.0209 C   0  0  0  0  0  0  0  0  0  0  0  0
   -5.2157   -0.0587   -0.4664 C   0  0  0  0  0  0  0  0  0  0  0  0
   -7.0033   -0.6173   -0.2124 Br  0  0  0  0  0  0  0  0  0  0  0  0
   -4.8351    1.2308   -0.1040 C   0  0  0  0  0  0  0  0  0  0  0  0
   -3.5132    1.6468   -0.2931 C   0  0  0  0  0  0  0  0  0  0  0  0
   -0.0749    0.3643   -0.9675 C   0  0  0  0  0  0  0  0  0  0  0  0
   -0.0948   -0.9056   -0.5501 O   0  0  0  0  0  0  0  0  0  0  0  0
    3.7347   -1.2210    0.1484 N   0  0  0  0  0  0  0  0  0  0  0  0
    4.2429   -3.7699    1.9355 H   0  0  0  0  0  0  0  0  0  0  0  0
    5.7622   -2.8344    1.9392 H   0  0  0  0  0  0  0  0  0  0  0  0
    5.0383   -3.3544    0.4070 H   0  0  0  0  0  0  0  0  0  0  0  0
    3.8744   -1.4929    3.5100 H   0  0  0  0  0  0  0  0  0  0  0  0
    2.5829    0.6345    3.2484 H   0  0  0  0  0  0  0  0  0  0  0  0
    1.2001    3.2726   -1.8839 H   0  0  0  0  0  0  0  0  0  0  0  0
   -1.0843    4.2799   -1.7496 H   0  0  0  0  0  0  0  0  0  0  0  0
   -2.2795   -1.2135   -1.6979 H   0  0  0  0  0  0  0  0  0  0  0  0
   -4.5857   -1.9374   -1.3255 H   0  0  0  0  0  0  0  0  0  0  0  0
   -5.5552    1.9219    0.3266 H   0  0  0  0  0  0  0  0  0  0  0  0
   -3.2431    2.6518    0.0211 H   0  0  0  0  0  0  0  0  0  0  0  0
   -0.8449   -1.0182    0.0601 H   0  0  0  0  0  0  0  0  0  0  0  0
  1  2  1  0
  2  3  2  0
  3  4  1  0
  4  5  2  0
  5  6  1  0
  6  7  1  0
  7  8  1  0
  8  9  1  0
  9 10  2  0
 10 11  1  0
 10 12  1  0
 12 13  1  0
 13 14  2  0
 14 15  1  0
 15 16  2  0
 16 17  1  0
 16 18  1  0
 18 19  2  0
 12 20  1  0
 20 21  1  0
  6 22  2  0
 22  2  1  0
 20  8  2  0
 19 13  1  0
  1 23  1  0
  1 24  1  0
  1 25  1  0
  3 26  1  0
  4 27  1  0
  9 28  1  0
 11 29  1  0
 14 30  1  0
 15 31  1  0
 18 32  1  0
 19 33  1  0
 21 34  1  0
M  END
$$$$
