
     RDKit          3D

 45 47  0  0  0  0  0  0  0  0999 V2000
   -2.2584   -0.6279    2.7650 O   0  0  0  0  0  0  0  0  0  0  0  0
   -1.9932    0.1445    1.8486 C   0  0  0  0  0  0  0  0  0  0  0  0
   -0.5804    0.6726    1.5996 C   0  0  0  0  0  0  0  0  0  0  0  0
   -0.3458    1.0388    0.2358 O   0  0  0  0  0  0  0  0  0  0  0  0
   -0.0016    0.0043   -0.5823 C   0  0  0  0  0  0  0  0  0  0  0  0
    0.0150   -1.1724   -0.2437 O   0  0  0  0  0  0  0  0  0  0  0  0
    0.2727    0.4631   -1.9959 C   0  0  0  0  0  0  0  0  0  0  0  0
    1.4120    1.8836   -2.0840 S   0  0  0  0  0  0  0  0  0  0  0  0
    2.8285    1.2257   -1.2199 C   0  0  0  0  0  0  0  0  0  0  0  0
    3.3262    1.9238   -0.1185 C   0  0  0  0  0  0  0  0  0  0  0  0
    4.4322    1.4392    0.5839 C   0  0  0  0  0  0  0  0  0  0  0  0
    5.0651    0.2512    0.1906 C   0  0  0  0  0  0  0  0  0  0  0  0
    6.1769   -0.2501    0.8864 C   0  0  0  0  0  0  0  0  0  0  0  0
    6.7980   -1.4321    0.4807 C   0  0  0  0  0  0  0  0  0  0  0  0
    6.3161   -2.1269   -0.6246 C   0  0  0  0  0  0  0  0  0  0  0  0
    5.2121   -1.6412   -1.3272 C   0  0  0  0  0  0  0  0  0  0  0  0
    4.5748   -0.4534   -0.9323 C   0  0  0  0  0  0  0  0  0  0  0  0
    3.4617    0.0481   -1.6294 C   0  0  0  0  0  0  0  0  0  0  0  0
   -2.9451    0.6723    0.9959 N   0  0  0  0  0  0  0  0  0  0  0  0
   -4.3075    0.1882    1.0002 C   0  0  0  0  0  0  0  0  0  0  0  0
   -4.4628   -1.1543    0.2746 C   0  0  0  0  0  0  0  0  0  0  0  0
   -5.7804   -1.0708   -0.4978 C   0  0  0  0  0  0  0  0  0  0  0  0
   -6.4395    0.2279   -0.0550 C   0  0  0  0  0  0  0  0  0  0  0  0
   -5.2633    1.1301    0.2759 C   0  0  0  0  0  0  0  0  0  0  0  0
   -0.4518    1.5743    2.2074 H   0  0  0  0  0  0  0  0  0  0  0  0
    0.1552   -0.0647    1.9408 H   0  0  0  0  0  0  0  0  0  0  0  0
    0.6873   -0.3720   -2.5684 H   0  0  0  0  0  0  0  0  0  0  0  0
   -0.6808    0.7400   -2.4562 H   0  0  0  0  0  0  0  0  0  0  0  0
    2.8580    2.8498    0.2072 H   0  0  0  0  0  0  0  0  0  0  0  0
    4.7975    1.9992    1.4418 H   0  0  0  0  0  0  0  0  0  0  0  0
    6.5683    0.2779    1.7532 H   0  0  0  0  0  0  0  0  0  0  0  0
    7.6571   -1.8101    1.0290 H   0  0  0  0  0  0  0  0  0  0  0  0
    6.7977   -3.0491   -0.9398 H   0  0  0  0  0  0  0  0  0  0  0  0
    4.8495   -2.2026   -2.1857 H   0  0  0  0  0  0  0  0  0  0  0  0
    3.0998   -0.4863   -2.5042 H   0  0  0  0  0  0  0  0  0  0  0  0
   -2.6074    1.1846    0.1898 H   0  0  0  0  0  0  0  0  0  0  0  0
   -4.6309    0.0690    2.0424 H   0  0  0  0  0  0  0  0  0  0  0  0
   -3.6353   -1.3500   -0.4176 H   0  0  0  0  0  0  0  0  0  0  0  0
   -4.4805   -1.9796    0.9955 H   0  0  0  0  0  0  0  0  0  0  0  0
   -5.5733   -1.0376   -1.5742 H   0  0  0  0  0  0  0  0  0  0  0  0
   -6.4223   -1.9376   -0.3123 H   0  0  0  0  0  0  0  0  0  0  0  0
   -7.0861    0.6506   -0.8292 H   0  0  0  0  0  0  0  0  0  0  0  0
   -7.0476    0.0549    0.8409 H   0  0  0  0  0  0  0  0  0  0  0  0
   -5.5539    1.9835    0.8962 H   0  0  0  0  0  0  0  0  0  0  0  0
   -4.8140    1.5218   -0.6454 H   0  0  0  0  0  0  0  0  0  0  0  0
  1  2  2  0
  2  3  1  0
  3  4  1  0
  4  5  1  0
  5  6  2  0
  5  7  1  0
  7  8  1  0
  8  9  1  0
  9 10  2  0
 10 11  1  0
 11 12  2  0
 12 13  1  0
 13 14  2  0
 14 15  1  0
 15 16  2  0
 16 17  1  0
 17 18  2  0
  2 19  1  0
 19 20  1  0
 20 21  1  0
 21 22  1  0
 22 23  1  0
 23 24  1  0
 18  9  1  0
 24 20  1  0
 17 12  1  0
  3 25  1  0
  3 26  1  0
  7 27  1  0
  7 28  1  0
 10 29  1  0
 11 30  1  0
 13 31  1  0
 14 32  1  0
 15 33  1  0
 16 34  1  0
 18 35  1  0
 19 36  1  0
 20 37  1  0
 21 38  1  0
 21 39  1  0
 22 40  1  0
 22 41  1  0
 23 42  1  0
 23 43  1  0
 24 44  1  0
 24 45  1  0
M  END
$$$$
