
     RDKit          3D

 31 32  0  0  0  0  0  0  0  0999 V2000
    6.8862    1.7484   -4.5697 N   0  0  0  0  0  0  0  0  0  0  0  0
    5.7101    1.4849   -3.9685 C   0  0  0  0  0  0  0  0  0  0  0  0
    5.2584    2.1135   -2.9062 N   0  0  0  0  0  0  0  0  0  0  0  0
    4.0218    1.6474   -2.5039 N   0  0  0  0  0  0  0  0  0  0  0  0
    3.5865    0.6816   -3.2819 C   0  0  0  0  0  0  0  0  0  0  0  0
    2.0554   -0.1194   -3.0253 S   0  0  0  0  0  0  0  0  0  0  0  0
    1.4113    0.8594   -1.6404 C   0  0  0  0  0  0  0  0  0  0  0  0
    0.0422    0.3385   -1.2592 C   0  0  0  0  0  0  0  0  0  0  0  0
   -0.9921    0.6609   -1.8455 O   0  0  0  0  0  0  0  0  0  0  0  0
    0.0418   -0.5576   -0.2045 N   0  0  0  0  0  0  0  0  0  0  0  0
   -1.2136   -0.8955    0.3391 N   0  0  0  0  0  0  0  0  0  0  0  0
   -1.3111   -0.8909    1.7187 C   0  0  0  0  0  0  0  0  0  0  0  0
   -0.3270   -0.7747    2.4457 O   0  0  0  0  0  0  0  0  0  0  0  0
   -2.6808   -0.9969    2.2944 C   0  0  0  0  0  0  0  0  0  0  0  0
   -3.7548   -1.5424    1.5770 C   0  0  0  0  0  0  0  0  0  0  0  0
   -5.0213   -1.6224    2.1661 C   0  0  0  0  0  0  0  0  0  0  0  0
   -5.2137   -1.1658    3.4696 C   0  0  0  0  0  0  0  0  0  0  0  0
   -6.7728   -1.2676    4.1886 Cl  0  0  0  0  0  0  0  0  0  0  0  0
   -4.1496   -0.6342    4.1950 C   0  0  0  0  0  0  0  0  0  0  0  0
   -2.8831   -0.5535    3.6094 C   0  0  0  0  0  0  0  0  0  0  0  0
    4.6460    0.2741   -4.5631 S   0  0  0  0  0  0  0  0  0  0  0  0
    6.9809    1.4984   -5.5470 H   0  0  0  0  0  0  0  0  0  0  0  0
    7.3044    2.6433   -4.3365 H   0  0  0  0  0  0  0  0  0  0  0  0
    2.0880    0.7972   -0.7819 H   0  0  0  0  0  0  0  0  0  0  0  0
    1.3095    1.9128   -1.9218 H   0  0  0  0  0  0  0  0  0  0  0  0
    0.8149   -0.5873    0.4622 H   0  0  0  0  0  0  0  0  0  0  0  0
   -2.0106   -0.6460   -0.2467 H   0  0  0  0  0  0  0  0  0  0  0  0
   -3.6263   -1.9325    0.5709 H   0  0  0  0  0  0  0  0  0  0  0  0
   -5.8508   -2.0482    1.6064 H   0  0  0  0  0  0  0  0  0  0  0  0
   -4.2956   -0.2842    5.2137 H   0  0  0  0  0  0  0  0  0  0  0  0
   -2.0541   -0.1413    4.1827 H   0  0  0  0  0  0  0  0  0  0  0  0
  1  2  1  0
  2  3  2  0
  3  4  1  0
  4  5  2  0
  5  6  1  0
  6  7  1  0
  7  8  1  0
  8  9  2  0
  8 10  1  0
 10 11  1  0
 11 12  1  0
 12 13  2  0
 12 14  1  0
 14 15  2  0
 15 16  1  0
 16 17  2  0
 17 18  1  0
 17 19  1  0
 19 20  2  0
  5 21  1  0
 21  2  1  0
 20 14  1  0
  1 22  1  0
  1 23  1  0
  7 24  1  0
  7 25  1  0
 10 26  1  0
 11 27  1  0
 15 28  1  0
 16 29  1  0
 19 30  1  0
 20 31  1  0
M  END
$$$$
