
     RDKit          3D

 47 49  0  0  0  0  0  0  0  0999 V2000
    5.9069   -3.0429   -0.1431 C   0  0  0  0  0  0  0  0  0  0  0  0
    5.4765   -1.7124    0.4643 C   0  0  0  0  0  0  0  0  0  0  0  0
    4.0350   -1.6563    0.7495 N   0  0  0  0  0  0  0  0  0  0  0  0
    3.2229   -1.6124   -0.4862 C   0  0  0  0  0  0  0  0  0  0  0  0
    1.7049   -1.4835   -0.2177 C   0  0  0  0  0  0  0  0  0  0  0  0
    1.3885   -0.3123    0.6379 N   0  0  0  0  0  0  0  0  0  0  0  0
    0.1258    0.3163    0.6189 C   0  0  0  0  0  0  0  0  0  0  0  0
   -0.9486   -0.1482   -0.0549 C   0  0  0  0  0  0  0  0  0  0  0  0
   -2.2562    0.4935   -0.0783 C   0  0  0  0  0  0  0  0  0  0  0  0
   -3.2356    0.0375   -0.8828 C   0  0  0  0  0  0  0  0  0  0  0  0
   -4.5774    0.6285   -0.9543 C   0  0  0  0  0  0  0  0  0  0  0  0
   -5.5080    0.2421   -1.8645 C   0  0  0  0  0  0  0  0  0  0  0  0
   -6.8119    0.8198   -1.8870 C   0  0  0  0  0  0  0  0  0  0  0  0
   -7.8695    1.2981   -1.8935 N   0  0  0  0  0  0  0  0  0  0  0  0
   -5.2473   -0.7629   -2.8426 C   0  0  0  0  0  0  0  0  0  0  0  0
   -5.0246   -1.5831   -3.6331 N   0  0  0  0  0  0  0  0  0  0  0  0
   -4.8470    1.7085    0.0870 C   0  0  0  0  0  0  0  0  0  0  0  0
   -3.6124    2.5663    0.3601 C   0  0  0  0  0  0  0  0  0  0  0  0
   -2.4437    1.6912    0.8265 C   0  0  0  0  0  0  0  0  0  0  0  0
   -1.1561    2.5117    0.9074 C   0  0  0  0  0  0  0  0  0  0  0  0
    0.0089    1.6367    1.3720 C   0  0  0  0  0  0  0  0  0  0  0  0
    2.2206   -0.3100    1.8697 C   0  0  0  0  0  0  0  0  0  0  0  0
    3.7230   -0.4475    1.5450 C   0  0  0  0  0  0  0  0  0  0  0  0
    5.5713   -3.8846    0.4717 H   0  0  0  0  0  0  0  0  0  0  0  0
    5.5167   -3.1751   -1.1564 H   0  0  0  0  0  0  0  0  0  0  0  0
    6.9993   -3.0884   -0.2044 H   0  0  0  0  0  0  0  0  0  0  0  0
    6.0305   -1.5983    1.4048 H   0  0  0  0  0  0  0  0  0  0  0  0
    5.7871   -0.8885   -0.1903 H   0  0  0  0  0  0  0  0  0  0  0  0
    3.5412   -0.7710   -1.1168 H   0  0  0  0  0  0  0  0  0  0  0  0
    3.3711   -2.5300   -1.0657 H   0  0  0  0  0  0  0  0  0  0  0  0
    1.3280   -2.3955    0.2619 H   0  0  0  0  0  0  0  0  0  0  0  0
    1.2174   -1.3884   -1.1948 H   0  0  0  0  0  0  0  0  0  0  0  0
   -0.8711   -1.0752   -0.6147 H   0  0  0  0  0  0  0  0  0  0  0  0
   -3.0191   -0.8174   -1.5228 H   0  0  0  0  0  0  0  0  0  0  0  0
   -5.1695    1.2252    1.0186 H   0  0  0  0  0  0  0  0  0  0  0  0
   -5.6553    2.3809   -0.2199 H   0  0  0  0  0  0  0  0  0  0  0  0
   -3.8463    3.3137    1.1277 H   0  0  0  0  0  0  0  0  0  0  0  0
   -3.3418    3.1191   -0.5497 H   0  0  0  0  0  0  0  0  0  0  0  0
   -2.6769    1.3134    1.8328 H   0  0  0  0  0  0  0  0  0  0  0  0
   -0.9175    2.9446   -0.0737 H   0  0  0  0  0  0  0  0  0  0  0  0
   -1.2804    3.3512    1.6021 H   0  0  0  0  0  0  0  0  0  0  0  0
    0.9300    2.2196    1.2479 H   0  0  0  0  0  0  0  0  0  0  0  0
   -0.1055    1.4229    2.4422 H   0  0  0  0  0  0  0  0  0  0  0  0
    2.0917    0.6133    2.4431 H   0  0  0  0  0  0  0  0  0  0  0  0
    1.8995   -1.1375    2.5153 H   0  0  0  0  0  0  0  0  0  0  0  0
    4.2695   -0.4865    2.4952 H   0  0  0  0  0  0  0  0  0  0  0  0
    4.0553    0.4540    1.0124 H   0  0  0  0  0  0  0  0  0  0  0  0
  1  2  1  0
  2  3  1  0
  3  4  1  0
  4  5  1  0
  5  6  1  0
  6  7  1  0
  7  8  2  0
  8  9  1  0
  9 10  2  0
 10 11  1  0
 11 12  2  3
 12 13  1  0
 13 14  3  0
 12 15  1  0
 15 16  3  0
 11 17  1  0
 17 18  1  0
 18 19  1  0
 19 20  1  0
 20 21  1  0
  6 22  1  0
 22 23  1  0
 23  3  1  0
 21  7  1  0
 19  9  1  0
  1 24  1  0
  1 25  1  0
  1 26  1  0
  2 27  1  0
  2 28  1  0
  4 29  1  0
  4 30  1  0
  5 31  1  0
  5 32  1  0
  8 33  1  0
 10 34  1  0
 17 35  1  0
 17 36  1  0
 18 37  1  0
 18 38  1  0
 19 39  1  0
 20 40  1  0
 20 41  1  0
 21 42  1  0
 21 43  1  0
 22 44  1  0
 22 45  1  0
 23 46  1  0
 23 47  1  0
M  END
$$$$
