
     RDKit          3D

 51 54  0  0  0  0  0  0  0  0999 V2000
   -6.6881   -0.3258   -1.6286 C   0  0  0  0  0  0  0  0  0  0  0  0
   -5.4207   -1.1774   -1.5516 C   0  0  0  0  0  0  0  0  0  0  0  0
   -5.7297   -2.6626   -1.3618 C   0  0  0  0  0  0  0  0  0  0  0  0
   -4.4614   -0.6685   -0.5684 N   0  0  0  0  0  0  0  0  0  0  0  0
   -3.2266   -0.1760   -0.9212 C   0  0  0  0  0  0  0  0  0  0  0  0
   -2.5560    0.2123    0.2218 C   0  0  0  0  0  0  0  0  0  0  0  0
   -1.2245    0.7830    0.2857 C   0  0  0  0  0  0  0  0  0  0  0  0
   -0.5612    0.9903   -0.8098 N   0  0  0  0  0  0  0  0  0  0  0  0
    0.7121    1.4993   -0.7006 N   0  0  0  0  0  0  0  0  0  0  0  0
    1.6233    1.1532    0.3018 C   0  0  0  0  0  0  0  0  0  0  0  0
    1.3702    0.4413    1.2715 O   0  0  0  0  0  0  0  0  0  0  0  0
    2.9995    1.7747    0.0529 C   0  0  0  0  0  0  0  0  0  0  0  0
    3.9137    1.4409    1.0920 O   0  0  0  0  0  0  0  0  0  0  0  0
    4.9136    0.5964    0.6706 C   0  0  0  0  0  0  0  0  0  0  0  0
    4.9484   -0.6504    1.3053 C   0  0  0  0  0  0  0  0  0  0  0  0
    5.9443   -1.5627    0.9760 C   0  0  0  0  0  0  0  0  0  0  0  0
    6.9094   -1.2158    0.0340 C   0  0  0  0  0  0  0  0  0  0  0  0
    6.8853    0.0466   -0.5863 C   0  0  0  0  0  0  0  0  0  0  0  0
    7.8649    0.4045   -1.5228 C   0  0  0  0  0  0  0  0  0  0  0  0
    7.8296    1.6563   -2.1222 C   0  0  0  0  0  0  0  0  0  0  0  0
    6.8107    2.5148   -1.7617 C   0  0  0  0  0  0  0  0  0  0  0  0
    5.8453    2.2061   -0.8659 N   0  0  0  0  0  0  0  0  0  0  0  0
    5.8760    0.9861   -0.2745 C   0  0  0  0  0  0  0  0  0  0  0  0
   -3.4290   -0.0593    1.3219 C   0  0  0  0  0  0  0  0  0  0  0  0
   -3.3094    0.1113    2.7199 C   0  0  0  0  0  0  0  0  0  0  0  0
   -4.3644   -0.2522    3.5609 C   0  0  0  0  0  0  0  0  0  0  0  0
   -5.5347   -0.7808    3.0298 C   0  0  0  0  0  0  0  0  0  0  0  0
   -5.6801   -0.9634    1.6509 C   0  0  0  0  0  0  0  0  0  0  0  0
   -4.6155   -0.6004    0.8052 C   0  0  0  0  0  0  0  0  0  0  0  0
   -6.4371    0.7265   -1.8178 H   0  0  0  0  0  0  0  0  0  0  0  0
   -7.3364   -0.6707   -2.4463 H   0  0  0  0  0  0  0  0  0  0  0  0
   -7.2728   -0.3678   -0.7017 H   0  0  0  0  0  0  0  0  0  0  0  0
   -4.9226   -1.0866   -2.5275 H   0  0  0  0  0  0  0  0  0  0  0  0
   -4.8071   -3.2498   -1.3008 H   0  0  0  0  0  0  0  0  0  0  0  0
   -6.3146   -3.0427   -2.2062 H   0  0  0  0  0  0  0  0  0  0  0  0
   -6.3054   -2.8539   -0.4527 H   0  0  0  0  0  0  0  0  0  0  0  0
   -2.9104   -0.1390   -1.9570 H   0  0  0  0  0  0  0  0  0  0  0  0
   -0.8529    1.0518    1.2876 H   0  0  0  0  0  0  0  0  0  0  0  0
    1.0895    1.8190   -1.5887 H   0  0  0  0  0  0  0  0  0  0  0  0
    2.8818    2.8639    0.0606 H   0  0  0  0  0  0  0  0  0  0  0  0
    3.3317    1.4680   -0.9460 H   0  0  0  0  0  0  0  0  0  0  0  0
    4.1909   -0.9017    2.0428 H   0  0  0  0  0  0  0  0  0  0  0  0
    5.9683   -2.5381    1.4590 H   0  0  0  0  0  0  0  0  0  0  0  0
    7.6894   -1.9364   -0.2075 H   0  0  0  0  0  0  0  0  0  0  0  0
    8.6639   -0.2889   -1.7836 H   0  0  0  0  0  0  0  0  0  0  0  0
    8.5767    1.9537   -2.8490 H   0  0  0  0  0  0  0  0  0  0  0  0
    6.7383    3.5086   -2.1972 H   0  0  0  0  0  0  0  0  0  0  0  0
   -2.3987    0.5210    3.1490 H   0  0  0  0  0  0  0  0  0  0  0  0
   -4.2650   -0.1202    4.6352 H   0  0  0  0  0  0  0  0  0  0  0  0
   -6.3487   -1.0595    3.6950 H   0  0  0  0  0  0  0  0  0  0  0  0
   -6.6038   -1.3793    1.2631 H   0  0  0  0  0  0  0  0  0  0  0  0
  1  2  1  0
  2  3  1  0
  2  4  1  0
  4  5  1  0
  5  6  2  0
  6  7  1  0
  7  8  2  3
  8  9  1  0
  9 10  1  0
 10 11  2  0
 10 12  1  0
 12 13  1  0
 13 14  1  0
 14 15  2  0
 15 16  1  0
 16 17  2  0
 17 18  1  0
 18 19  2  0
 19 20  1  0
 20 21  2  0
 21 22  1  0
 22 23  2  0
  6 24  1  0
 24 25  2  0
 25 26  1  0
 26 27  2  0
 27 28  1  0
 28 29  2  0
 29  4  1  0
 23 14  1  0
 29 24  1  0
 23 18  1  0
  1 30  1  0
  1 31  1  0
  1 32  1  0
  2 33  1  0
  3 34  1  0
  3 35  1  0
  3 36  1  0
  5 37  1  0
  7 38  1  0
  9 39  1  0
 12 40  1  0
 12 41  1  0
 15 42  1  0
 16 43  1  0
 17 44  1  0
 19 45  1  0
 20 46  1  0
 21 47  1  0
 25 48  1  0
 26 49  1  0
 27 50  1  0
 28 51  1  0
M  END
$$$$
