
     RDKit          3D

 46 48  0  0  0  0  0  0  0  0999 V2000
    1.5738    0.5446   -4.8798 C   0  0  0  0  0  0  0  0  0  0  0  0
    1.9549    1.3041   -3.7407 O   0  0  0  0  0  0  0  0  0  0  0  0
    3.3349    1.1193   -3.4142 C   0  0  0  0  0  0  0  0  0  0  0  0
    3.6721    1.9500   -2.1793 C   0  0  0  0  0  0  0  0  0  0  0  0
    2.9707    1.3990   -1.0532 O   0  0  0  0  0  0  0  0  0  0  0  0
    3.1884    2.0430    0.1260 C   0  0  0  0  0  0  0  0  0  0  0  0
    3.9810    2.9676    0.2638 O   0  0  0  0  0  0  0  0  0  0  0  0
    2.3921    1.4985    1.2118 C   0  0  0  0  0  0  0  0  0  0  0  0
    2.5293    1.8570    2.5449 C   0  0  0  0  0  0  0  0  0  0  0  0
    3.4167    2.8041    3.2563 C   0  0  0  0  0  0  0  0  0  0  0  0
    1.6504    1.1671    3.3225 O   0  0  0  0  0  0  0  0  0  0  0  0
    0.9276    0.3658    2.4992 C   0  0  0  0  0  0  0  0  0  0  0  0
   -0.0866   -0.4966    2.9105 C   0  0  0  0  0  0  0  0  0  0  0  0
   -0.7239   -1.2370    1.9102 C   0  0  0  0  0  0  0  0  0  0  0  0
   -0.3464   -1.1067    0.5730 C   0  0  0  0  0  0  0  0  0  0  0  0
   -1.0455   -1.8401   -0.4260 N   0  0  0  0  0  0  0  0  0  0  0  0
   -2.4404   -1.1425   -1.0857 S   0  0  0  0  0  6  0  0  0  0  0  0
   -2.2971    0.2960   -1.1178 O   0  0  0  0  0  0  0  0  0  0  0  0
   -2.7288   -1.8935   -2.2899 O   0  0  0  0  0  0  0  0  0  0  0  0
   -3.6864   -1.5678    0.1074 C   0  0  0  0  0  0  0  0  0  0  0  0
   -4.1844   -2.8761    0.1415 C   0  0  0  0  0  0  0  0  0  0  0  0
   -5.1715   -3.2082    1.0699 C   0  0  0  0  0  0  0  0  0  0  0  0
   -5.6521   -2.2340    1.9411 C   0  0  0  0  0  0  0  0  0  0  0  0
   -6.5984   -2.5578    2.8317 F   0  0  0  0  0  0  0  0  0  0  0  0
   -5.1682   -0.9291    1.9014 C   0  0  0  0  0  0  0  0  0  0  0  0
   -4.1816   -0.5875    0.9760 C   0  0  0  0  0  0  0  0  0  0  0  0
    0.6726   -0.2242    0.1877 C   0  0  0  0  0  0  0  0  0  0  0  0
    1.3368    0.5272    1.1806 C   0  0  0  0  0  0  0  0  0  0  0  0
    2.1540    0.8505   -5.7556 H   0  0  0  0  0  0  0  0  0  0  0  0
    0.5150    0.7307   -5.0791 H   0  0  0  0  0  0  0  0  0  0  0  0
    1.7115   -0.5242   -4.6902 H   0  0  0  0  0  0  0  0  0  0  0  0
    3.9523    1.4441   -4.2588 H   0  0  0  0  0  0  0  0  0  0  0  0
    3.5135    0.0570   -3.2130 H   0  0  0  0  0  0  0  0  0  0  0  0
    4.7506    1.9072   -1.9920 H   0  0  0  0  0  0  0  0  0  0  0  0
    3.3513    2.9876   -2.3247 H   0  0  0  0  0  0  0  0  0  0  0  0
    3.2382    3.8273    2.9124 H   0  0  0  0  0  0  0  0  0  0  0  0
    3.2434    2.7762    4.3366 H   0  0  0  0  0  0  0  0  0  0  0  0
    4.4668    2.5538    3.0772 H   0  0  0  0  0  0  0  0  0  0  0  0
   -0.3627   -0.5825    3.9547 H   0  0  0  0  0  0  0  0  0  0  0  0
   -1.5140   -1.9282    2.1929 H   0  0  0  0  0  0  0  0  0  0  0  0
   -0.4863   -2.2630   -1.1666 H   0  0  0  0  0  0  0  0  0  0  0  0
   -3.8114   -3.6308   -0.5475 H   0  0  0  0  0  0  0  0  0  0  0  0
   -5.5731   -4.2159    1.1179 H   0  0  0  0  0  0  0  0  0  0  0  0
   -5.5659   -0.1876    2.5879 H   0  0  0  0  0  0  0  0  0  0  0  0
   -3.8049    0.4329    0.9394 H   0  0  0  0  0  0  0  0  0  0  0  0
    0.9321   -0.1053   -0.8603 H   0  0  0  0  0  0  0  0  0  0  0  0
  1  2  1  0
  2  3  1  0
  3  4  1  0
  4  5  1  0
  5  6  1  0
  6  7  2  0
  6  8  1  0
  8  9  2  0
  9 10  1  0
  9 11  1  0
 11 12  1  0
 12 13  2  0
 13 14  1  0
 14 15  2  0
 15 16  1  0
 16 17  1  0
 17 18  2  0
 17 19  2  0
 17 20  1  0
 20 21  2  0
 21 22  1  0
 22 23  2  0
 23 24  1  0
 23 25  1  0
 25 26  2  0
 15 27  1  0
 27 28  2  0
 28  8  1  0
 28 12  1  0
 26 20  1  0
  1 29  1  0
  1 30  1  0
  1 31  1  0
  3 32  1  0
  3 33  1  0
  4 34  1  0
  4 35  1  0
 10 36  1  0
 10 37  1  0
 10 38  1  0
 13 39  1  0
 14 40  1  0
 16 41  1  0
 21 42  1  0
 22 43  1  0
 25 44  1  0
 26 45  1  0
 27 46  1  0
M  END
$$$$
