
     RDKit          3D

 60 64  0  0  0  0  0  0  0  0999 V2000
   -1.9066   -2.6989    0.8439 O   0  0  0  0  0  0  0  0  0  0  0  0
   -2.0439   -1.8126    1.6871 C   0  0  0  0  0  0  0  0  0  0  0  0
   -0.8477   -1.1824    2.3778 C   0  0  0  0  0  0  0  0  0  0  0  0
    0.4786   -1.8821    2.0585 C   0  0  0  0  0  0  0  0  0  0  0  0
    0.9135   -1.7532    0.6660 N   0  0  0  0  0  0  0  0  0  0  0  0
    1.1981   -2.9225   -0.0231 C   0  0  0  0  0  0  0  0  0  0  0  0
    1.2687   -4.0369    0.4906 O   0  0  0  0  0  0  0  0  0  0  0  0
    1.4705   -2.7828   -1.4598 C   0  0  0  0  0  0  0  0  0  0  0  0
    1.5279   -3.9357   -2.2597 C   0  0  0  0  0  0  0  0  0  0  0  0
    1.7766   -3.8268   -3.6232 C   0  0  0  0  0  0  0  0  0  0  0  0
    1.9636   -2.5686   -4.1824 C   0  0  0  0  0  0  0  0  0  0  0  0
    1.9096   -1.4226   -3.3783 C   0  0  0  0  0  0  0  0  0  0  0  0
    1.6705   -1.5119   -1.9976 C   0  0  0  0  0  0  0  0  0  0  0  0
    1.6323   -0.3799   -1.1344 N   0  0  0  0  0  0  0  0  0  0  0  0
    2.0198    0.9534   -1.6005 C   0  0  0  0  0  0  0  0  0  0  0  0
    3.4920    1.2497   -1.3762 C   0  0  0  0  0  0  0  0  0  0  0  0
    4.4594    0.8905   -2.3274 C   0  0  0  0  0  0  0  0  0  0  0  0
    5.8161    1.1457   -2.1065 C   0  0  0  0  0  0  0  0  0  0  0  0
    6.2311    1.7658   -0.9293 C   0  0  0  0  0  0  0  0  0  0  0  0
    5.2766    2.1299    0.0268 C   0  0  0  0  0  0  0  0  0  0  0  0
    5.7076    2.7885    1.2659 N   0  0  0  0  0  4  0  0  0  0  0  0
    6.9250    2.8479    1.4926 O   0  0  0  0  0  0  0  0  0  0  0  0
    4.8325    3.2548    2.0084 O   0  0  0  0  0  1  0  0  0  0  0  0
    3.9148    1.8748   -0.1900 C   0  0  0  0  0  0  0  0  0  0  0  0
    1.2624   -0.4924    0.2054 C   0  0  0  0  0  0  0  0  0  0  0  0
    1.2527    0.4877    0.9563 O   0  0  0  0  0  0  0  0  0  0  0  0
   -3.3000   -1.3443    2.0529 N   0  0  0  0  0  0  0  0  0  0  0  0
   -4.4704   -1.8555    1.3473 C   0  0  0  0  0  0  0  0  0  0  0  0
   -4.8792   -0.8733    0.2490 C   0  0  0  0  0  0  0  0  0  0  0  0
   -4.9494    0.5477    0.7670 C   0  0  0  0  0  0  0  0  0  0  0  0
   -5.6305    1.5220    0.0248 C   0  0  0  0  0  0  0  0  0  0  0  0
   -5.6785    2.8423    0.4707 C   0  0  0  0  0  0  0  0  0  0  0  0
   -5.0429    3.2023    1.6566 C   0  0  0  0  0  0  0  0  0  0  0  0
   -4.3520    2.2440    2.3988 C   0  0  0  0  0  0  0  0  0  0  0  0
   -4.2863    0.9139    1.9583 C   0  0  0  0  0  0  0  0  0  0  0  0
   -3.5562   -0.1142    2.7997 C   0  0  0  0  0  0  0  0  0  0  0  0
   -1.0094   -1.2478    3.4602 H   0  0  0  0  0  0  0  0  0  0  0  0
   -0.8066   -0.1271    2.0949 H   0  0  0  0  0  0  0  0  0  0  0  0
    1.2652   -1.4430    2.6853 H   0  0  0  0  0  0  0  0  0  0  0  0
    0.3998   -2.9368    2.3446 H   0  0  0  0  0  0  0  0  0  0  0  0
    1.3707   -4.9177   -1.8164 H   0  0  0  0  0  0  0  0  0  0  0  0
    1.8166   -4.7181   -4.2441 H   0  0  0  0  0  0  0  0  0  0  0  0
    2.1487   -2.4737   -5.2503 H   0  0  0  0  0  0  0  0  0  0  0  0
    2.0480   -0.4733   -3.8831 H   0  0  0  0  0  0  0  0  0  0  0  0
    1.7500    1.1112   -2.6487 H   0  0  0  0  0  0  0  0  0  0  0  0
    1.4261    1.7078   -1.0666 H   0  0  0  0  0  0  0  0  0  0  0  0
    4.1707    0.4036   -3.2553 H   0  0  0  0  0  0  0  0  0  0  0  0
    6.5507    0.8562   -2.8550 H   0  0  0  0  0  0  0  0  0  0  0  0
    7.2908    1.9566   -0.7731 H   0  0  0  0  0  0  0  0  0  0  0  0
    3.1769    2.1527    0.5626 H   0  0  0  0  0  0  0  0  0  0  0  0
   -5.2766   -1.9741    2.0821 H   0  0  0  0  0  0  0  0  0  0  0  0
   -4.2766   -2.8435    0.9166 H   0  0  0  0  0  0  0  0  0  0  0  0
   -5.8495   -1.1759   -0.1609 H   0  0  0  0  0  0  0  0  0  0  0  0
   -4.1425   -0.9001   -0.5634 H   0  0  0  0  0  0  0  0  0  0  0  0
   -6.1263    1.2559   -0.9060 H   0  0  0  0  0  0  0  0  0  0  0  0
   -6.2114    3.5916   -0.1091 H   0  0  0  0  0  0  0  0  0  0  0  0
   -5.0837    4.2317    2.0031 H   0  0  0  0  0  0  0  0  0  0  0  0
   -3.8622    2.5431    3.3230 H   0  0  0  0  0  0  0  0  0  0  0  0
   -4.1913   -0.3823    3.6526 H   0  0  0  0  0  0  0  0  0  0  0  0
   -2.6347    0.3201    3.1913 H   0  0  0  0  0  0  0  0  0  0  0  0
  1  2  2  0
  2  3  1  0
  3  4  1  0
  4  5  1  0
  5  6  1  0
  6  7  2  0
  6  8  1  0
  8  9  2  0
  9 10  1  0
 10 11  2  0
 11 12  1  0
 12 13  2  0
 13 14  1  0
 14 15  1  0
 15 16  1  0
 16 17  2  0
 17 18  1  0
 18 19  2  0
 19 20  1  0
 20 21  1  0
 21 22  2  0
 21 23  1  0
 20 24  2  0
 14 25  1  0
 25 26  2  0
  2 27  1  0
 27 28  1  0
 28 29  1  0
 29 30  1  0
 30 31  2  0
 31 32  1  0
 32 33  2  0
 33 34  1  0
 34 35  2  0
 35 36  1  0
 25  5  1  0
 36 27  1  0
 13  8  1  0
 24 16  1  0
 35 30  1  0
  3 37  1  0
  3 38  1  0
  4 39  1  0
  4 40  1  0
  9 41  1  0
 10 42  1  0
 11 43  1  0
 12 44  1  0
 15 45  1  0
 15 46  1  0
 17 47  1  0
 18 48  1  0
 19 49  1  0
 24 50  1  0
 28 51  1  0
 28 52  1  0
 29 53  1  0
 29 54  1  0
 31 55  1  0
 32 56  1  0
 33 57  1  0
 34 58  1  0
 36 59  1  0
 36 60  1  0
M  CHG  2  21   1  23  -1
M  END
$$$$
