
     RDKit          3D

 39 41  0  0  0  0  0  0  0  0999 V2000
    2.3635    3.3221    0.1106 C   0  0  0  0  0  0  0  0  0  0  0  0
    1.8472    2.4676   -1.0172 C   0  0  0  0  0  0  0  0  0  0  0  0
    2.4570    2.3584   -2.0806 O   0  0  0  0  0  0  0  0  0  0  0  0
    0.5722    1.7450   -0.7916 C   0  0  0  0  0  0  0  0  0  0  0  0
    0.5955    0.5269   -0.1978 C   0  0  0  0  0  0  0  0  0  0  0  0
    1.7547   -0.1703    0.1632 N   0  0  0  0  0  0  0  0  0  0  0  0
    2.8891   -0.3792   -0.7766 C   0  0  0  0  0  0  0  0  0  0  0  0
    3.4853   -1.7860   -0.6093 C   0  0  0  0  0  0  0  0  0  0  0  0
    3.9745   -2.0553    0.7133 O   0  0  0  0  0  0  0  0  0  0  0  0
    3.2924   -1.3124    1.7326 C   0  0  0  0  0  0  0  0  0  0  0  0
    1.8301   -1.0090    1.3799 C   0  0  0  0  0  0  0  0  0  0  0  0
   -0.6232   -0.0528    0.0802 N   0  0  0  0  0  0  0  0  0  0  0  0
   -1.8152    0.4754   -0.3416 C   0  0  0  0  0  0  0  0  0  0  0  0
   -3.0771   -0.3074   -0.1517 C   0  0  0  0  0  0  0  0  0  0  0  0
   -4.1771   -0.0520   -0.9802 C   0  0  0  0  0  0  0  0  0  0  0  0
   -5.3587   -0.7785   -0.8234 C   0  0  0  0  0  0  0  0  0  0  0  0
   -5.4492   -1.7577    0.1648 C   0  0  0  0  0  0  0  0  0  0  0  0
   -4.3621   -2.0082    1.0017 C   0  0  0  0  0  0  0  0  0  0  0  0
   -3.1770   -1.2842    0.8477 C   0  0  0  0  0  0  0  0  0  0  0  0
   -1.8937    1.6366   -0.9157 N   0  0  0  0  0  0  0  0  0  0  0  0
   -0.7507    2.3918   -1.1030 C   0  0  0  0  0  0  0  0  0  0  0  0
   -0.8971    3.9854   -1.6637 S   0  0  0  0  0  0  0  0  0  0  0  0
    1.6591    3.3409    0.9470 H   0  0  0  0  0  0  0  0  0  0  0  0
    2.5040    4.3453   -0.2475 H   0  0  0  0  0  0  0  0  0  0  0  0
    3.3140    2.9141    0.4640 H   0  0  0  0  0  0  0  0  0  0  0  0
    2.5567   -0.2655   -1.8143 H   0  0  0  0  0  0  0  0  0  0  0  0
    3.6612    0.3682   -0.5631 H   0  0  0  0  0  0  0  0  0  0  0  0
    2.7324   -2.5475   -0.8445 H   0  0  0  0  0  0  0  0  0  0  0  0
    4.3200   -1.9271   -1.3032 H   0  0  0  0  0  0  0  0  0  0  0  0
    3.3446   -1.8982    2.6557 H   0  0  0  0  0  0  0  0  0  0  0  0
    3.8492   -0.3831    1.9007 H   0  0  0  0  0  0  0  0  0  0  0  0
    1.2920   -1.9477    1.2027 H   0  0  0  0  0  0  0  0  0  0  0  0
    1.3561   -0.4883    2.2195 H   0  0  0  0  0  0  0  0  0  0  0  0
   -0.5686   -1.0448    0.2634 H   0  0  0  0  0  0  0  0  0  0  0  0
   -4.1190    0.7119   -1.7532 H   0  0  0  0  0  0  0  0  0  0  0  0
   -6.2085   -0.5763   -1.4709 H   0  0  0  0  0  0  0  0  0  0  0  0
   -6.3721   -2.3195    0.2879 H   0  0  0  0  0  0  0  0  0  0  0  0
   -4.4432   -2.7620    1.7811 H   0  0  0  0  0  0  0  0  0  0  0  0
   -2.3580   -1.4766    1.5334 H   0  0  0  0  0  0  0  0  0  0  0  0
  1  2  1  0
  2  3  2  0
  2  4  1  0
  4  5  2  0
  5  6  1  0
  6  7  1  0
  7  8  1  0
  8  9  1  0
  9 10  1  0
 10 11  1  0
  5 12  1  0
 12 13  1  0
 13 14  1  0
 14 15  2  0
 15 16  1  0
 16 17  2  0
 17 18  1  0
 18 19  2  0
 13 20  2  0
 20 21  1  0
 21 22  2  0
 21  4  1  0
 11  6  1  0
 19 14  1  0
  1 23  1  0
  1 24  1  0
  1 25  1  0
  7 26  1  0
  7 27  1  0
  8 28  1  0
  8 29  1  0
 10 30  1  0
 10 31  1  0
 11 32  1  0
 11 33  1  0
 12 34  1  0
 15 35  1  0
 16 36  1  0
 17 37  1  0
 18 38  1  0
 19 39  1  0
M  END
$$$$
