
     RDKit          3D

 35 36  0  0  0  0  0  0  0  0999 V2000
   -5.2456    1.5508    0.6670 N   0  0  0  0  0  0  0  0  0  0  0  0
   -4.3298    0.8651   -0.0821 C   0  0  0  0  0  0  0  0  0  0  0  0
   -3.8548    1.4373   -1.3583 C   0  0  0  0  0  0  0  0  0  0  0  0
   -2.9814    0.6958   -2.0370 C   0  0  0  0  0  0  0  0  0  0  0  0
   -2.5613   -0.5188   -1.5494 N   0  0  0  0  0  0  0  0  0  0  0  0
   -1.5809   -1.3035   -2.2924 C   0  0  0  0  0  0  0  0  0  0  0  0
   -0.1771   -0.9759   -1.7894 C   0  0  0  0  0  0  0  0  0  0  0  0
    0.5303   -0.1255   -2.3257 O   0  0  0  0  0  0  0  0  0  0  0  0
    0.1929   -1.6677   -0.6541 N   0  0  0  0  0  0  0  0  0  0  0  0
    1.4337   -1.3791    0.0406 C   0  0  0  0  0  0  0  0  0  0  0  0
    1.3462   -0.1032    0.8756 C   0  0  0  0  0  0  0  0  0  0  0  0
    2.6692    0.2042    1.5235 C   0  0  0  0  0  0  0  0  0  0  0  0
    3.6005    1.0134    0.8765 C   0  0  0  0  0  0  0  0  0  0  0  0
    4.8230    1.2574    1.4954 C   0  0  0  0  0  0  0  0  0  0  0  0
    5.0841    0.6874    2.7351 C   0  0  0  0  0  0  0  0  0  0  0  0
    4.1069   -0.1097    3.3058 C   0  0  0  0  0  0  0  0  0  0  0  0
    2.9126   -0.3660    2.7283 N   0  0  0  0  0  0  0  0  0  0  0  0
   -2.9910   -1.0014   -0.3115 C   0  0  0  0  0  0  0  0  0  0  0  0
   -2.5260   -2.0461    0.1455 O   0  0  0  0  0  0  0  0  0  0  0  0
   -3.9176   -0.2701    0.3889 N   0  0  0  0  0  0  0  0  0  0  0  0
   -5.1806    2.5610    0.6550 H   0  0  0  0  0  0  0  0  0  0  0  0
   -5.3213    1.1728    1.6073 H   0  0  0  0  0  0  0  0  0  0  0  0
   -4.2221    2.3934   -1.7003 H   0  0  0  0  0  0  0  0  0  0  0  0
   -2.5734    1.0269   -2.9875 H   0  0  0  0  0  0  0  0  0  0  0  0
   -1.7756   -2.3749   -2.1677 H   0  0  0  0  0  0  0  0  0  0  0  0
   -1.6418   -1.0834   -3.3642 H   0  0  0  0  0  0  0  0  0  0  0  0
   -0.5493   -2.1359   -0.1300 H   0  0  0  0  0  0  0  0  0  0  0  0
    1.6565   -2.2447    0.6743 H   0  0  0  0  0  0  0  0  0  0  0  0
    2.2323   -1.2981   -0.7065 H   0  0  0  0  0  0  0  0  0  0  0  0
    1.0259    0.7490    0.2639 H   0  0  0  0  0  0  0  0  0  0  0  0
    0.5797   -0.2198    1.6523 H   0  0  0  0  0  0  0  0  0  0  0  0
    3.3814    1.4457   -0.0952 H   0  0  0  0  0  0  0  0  0  0  0  0
    5.5654    1.8858    1.0119 H   0  0  0  0  0  0  0  0  0  0  0  0
    6.0261    0.8579    3.2434 H   0  0  0  0  0  0  0  0  0  0  0  0
    4.2626   -0.5799    4.2725 H   0  0  0  0  0  0  0  0  0  0  0  0
  1  2  1  0
  2  3  1  0
  3  4  2  0
  4  5  1  0
  5  6  1  0
  6  7  1  0
  7  8  2  0
  7  9  1  0
  9 10  1  0
 10 11  1  0
 11 12  1  0
 12 13  2  0
 13 14  1  0
 14 15  2  0
 15 16  1  0
 16 17  2  0
  5 18  1  0
 18 19  2  0
 18 20  1  0
 20  2  2  0
 17 12  1  0
  1 21  1  0
  1 22  1  0
  3 23  1  0
  4 24  1  0
  6 25  1  0
  6 26  1  0
  9 27  1  0
 10 28  1  0
 10 29  1  0
 11 30  1  0
 11 31  1  0
 13 32  1  0
 14 33  1  0
 15 34  1  0
 16 35  1  0
M  END
$$$$
