
     RDKit          3D

 30 31  0  0  0  0  0  0  0  0999 V2000
   -4.8926   -0.9853   -0.6121 C   0  0  0  0  0  0  0  0  0  0  0  0
   -4.1567    0.1978   -0.0139 C   0  0  0  0  0  0  0  0  0  0  0  0
   -2.7515   -0.0533   -0.1140 O   0  0  0  0  0  0  0  0  0  0  0  0
   -1.9640    0.9408    0.3917 C   0  0  0  0  0  0  0  0  0  0  0  0
   -2.3951    1.9725    0.8948 O   0  0  0  0  0  0  0  0  0  0  0  0
   -0.5634    0.5983    0.2471 C   0  0  0  0  0  0  0  0  0  0  0  0
   -0.2173   -0.6008   -0.3303 O   0  0  0  0  0  0  0  0  0  0  0  0
    1.1300   -0.6575   -0.3284 C   0  0  0  0  0  0  0  0  0  0  0  0
    1.6850    0.4698    0.2277 C   0  0  0  0  0  0  0  0  0  0  0  0
    0.5897    1.2984    0.6083 C   0  0  0  0  0  0  0  0  0  0  0  0
    0.6390    2.6339    1.2597 C   0  0  0  0  0  0  0  0  0  0  0  0
    3.1304    0.5953    0.3239 C   0  0  0  0  0  0  0  0  0  0  0  0
    3.6779    1.5662    0.8386 O   0  0  0  0  0  0  0  0  0  0  0  0
    3.9459   -0.5273   -0.3254 C   0  0  0  0  0  0  0  0  0  0  0  0
    3.2358   -1.8921   -0.2759 C   0  0  0  0  0  0  0  0  0  0  0  0
    1.8214   -1.8431   -0.8784 C   0  0  0  0  0  0  0  0  0  0  0  0
   -4.6334   -1.9082   -0.0827 H   0  0  0  0  0  0  0  0  0  0  0  0
   -5.9750   -0.8393   -0.5584 H   0  0  0  0  0  0  0  0  0  0  0  0
   -4.6063   -1.1280   -1.6594 H   0  0  0  0  0  0  0  0  0  0  0  0
   -4.4106    1.1088   -0.5674 H   0  0  0  0  0  0  0  0  0  0  0  0
   -4.4383    0.3141    1.0386 H   0  0  0  0  0  0  0  0  0  0  0  0
    0.0636    3.3639    0.6811 H   0  0  0  0  0  0  0  0  0  0  0  0
    1.6601    3.0141    1.3436 H   0  0  0  0  0  0  0  0  0  0  0  0
    0.2164    2.5798    2.2682 H   0  0  0  0  0  0  0  0  0  0  0  0
    4.9065   -0.6011    0.1959 H   0  0  0  0  0  0  0  0  0  0  0  0
    4.1409   -0.2406   -1.3652 H   0  0  0  0  0  0  0  0  0  0  0  0
    3.1653   -2.2116    0.7726 H   0  0  0  0  0  0  0  0  0  0  0  0
    3.8352   -2.6447   -0.8002 H   0  0  0  0  0  0  0  0  0  0  0  0
    1.2789   -2.7635   -0.6399 H   0  0  0  0  0  0  0  0  0  0  0  0
    1.8822   -1.7573   -1.9690 H   0  0  0  0  0  0  0  0  0  0  0  0
  1  2  1  0
  2  3  1  0
  3  4  1  0
  4  5  2  0
  4  6  1  0
  6  7  1  0
  7  8  1  0
  8  9  2  0
  9 10  1  0
 10 11  1  0
  9 12  1  0
 12 13  2  0
 12 14  1  0
 14 15  1  0
 15 16  1  0
 10  6  2  0
 16  8  1  0
  1 17  1  0
  1 18  1  0
  1 19  1  0
  2 20  1  0
  2 21  1  0
 11 22  1  0
 11 23  1  0
 11 24  1  0
 14 25  1  0
 14 26  1  0
 15 27  1  0
 15 28  1  0
 16 29  1  0
 16 30  1  0
M  END
$$$$
