
     RDKit          3D

 53 55  0  0  0  0  0  0  0  0999 V2000
   -8.4131    1.8023   -0.3474 C   0  0  0  0  0  0  0  0  0  0  0  0
   -7.4254    2.2856   -1.2446 O   0  0  0  0  0  0  0  0  0  0  0  0
   -6.1204    1.9330   -1.0061 C   0  0  0  0  0  0  0  0  0  0  0  0
   -5.7140    1.0342   -0.0156 C   0  0  0  0  0  0  0  0  0  0  0  0
   -4.3600    0.7299    0.1511 C   0  0  0  0  0  0  0  0  0  0  0  0
   -3.3959    1.3157   -0.6728 C   0  0  0  0  0  0  0  0  0  0  0  0
   -1.9668    1.0344   -0.5034 C   0  0  0  0  0  0  0  0  0  0  0  0
   -1.4687   -0.2112   -0.4697 C   0  0  0  0  0  0  0  0  0  0  0  0
   -0.0004   -0.4191   -0.3191 C   0  0  0  0  0  0  0  0  0  0  0  0
    0.7636    0.5285   -0.1920 O   0  0  0  0  0  0  0  0  0  0  0  0
    0.3315   -1.7592   -0.3181 N   0  0  0  0  0  0  0  0  0  0  0  0
    1.6272   -2.3118   -0.2270 C   0  0  0  0  0  0  0  0  0  0  0  0
    1.7203   -3.7024   -0.0689 C   0  0  0  0  0  0  0  0  0  0  0  0
    2.9639   -4.3300    0.0432 C   0  0  0  0  0  0  0  0  0  0  0  0
    4.1307   -3.5721   -0.0005 C   0  0  0  0  0  0  0  0  0  0  0  0
    4.0430   -2.1852   -0.1556 C   0  0  0  0  0  0  0  0  0  0  0  0
    5.5361   -1.2157   -0.2561 S   0  0  0  0  0  6  0  0  0  0  0  0
    5.3029   -0.1479   -1.2044 O   0  0  0  0  0  0  0  0  0  0  0  0
    6.6342   -2.1450   -0.4327 O   0  0  0  0  0  0  0  0  0  0  0  0
    5.6876   -0.5462    1.2805 N   0  0  0  0  0  0  0  0  0  0  0  0
    5.9699   -1.4318    2.4268 C   0  0  0  0  0  0  0  0  0  0  0  0
    5.5716   -0.5982    3.6378 C   0  0  0  0  0  0  0  0  0  0  0  0
    4.3756    0.1801    3.1209 C   0  0  0  0  0  0  0  0  0  0  0  0
    4.7962    0.5535    1.7052 C   0  0  0  0  0  0  0  0  0  0  0  0
    2.7992   -1.5580   -0.2953 C   0  0  0  0  0  0  0  0  0  0  0  0
   -3.7986    2.2251   -1.6585 C   0  0  0  0  0  0  0  0  0  0  0  0
   -5.1535    2.5322   -1.8384 C   0  0  0  0  0  0  0  0  0  0  0  0
   -5.6319    3.4035   -2.7862 O   0  0  0  0  0  0  0  0  0  0  0  0
   -4.6929    3.9996   -3.6696 C   0  0  0  0  0  0  0  0  0  0  0  0
   -8.2136    2.1305    0.6780 H   0  0  0  0  0  0  0  0  0  0  0  0
   -8.4973    0.7122   -0.4051 H   0  0  0  0  0  0  0  0  0  0  0  0
   -9.3756    2.2260   -0.6506 H   0  0  0  0  0  0  0  0  0  0  0  0
   -6.4260    0.5547    0.6468 H   0  0  0  0  0  0  0  0  0  0  0  0
   -4.0690    0.0422    0.9413 H   0  0  0  0  0  0  0  0  0  0  0  0
   -1.3136    1.9019   -0.4305 H   0  0  0  0  0  0  0  0  0  0  0  0
   -2.1091   -1.0778   -0.5753 H   0  0  0  0  0  0  0  0  0  0  0  0
   -0.4275   -2.4269   -0.3427 H   0  0  0  0  0  0  0  0  0  0  0  0
    0.8258   -4.3193   -0.0262 H   0  0  0  0  0  0  0  0  0  0  0  0
    3.0211   -5.4099    0.1621 H   0  0  0  0  0  0  0  0  0  0  0  0
    5.0974   -4.0652    0.0774 H   0  0  0  0  0  0  0  0  0  0  0  0
    7.0278   -1.7050    2.4625 H   0  0  0  0  0  0  0  0  0  0  0  0
    5.3609   -2.3399    2.3854 H   0  0  0  0  0  0  0  0  0  0  0  0
    5.3351   -1.2133    4.5105 H   0  0  0  0  0  0  0  0  0  0  0  0
    6.3809    0.0904    3.9098 H   0  0  0  0  0  0  0  0  0  0  0  0
    4.1421    1.0558    3.7333 H   0  0  0  0  0  0  0  0  0  0  0  0
    3.4900   -0.4663    3.0925 H   0  0  0  0  0  0  0  0  0  0  0  0
    5.3780    1.4819    1.7078 H   0  0  0  0  0  0  0  0  0  0  0  0
    3.9288    0.6989    1.0615 H   0  0  0  0  0  0  0  0  0  0  0  0
    2.7706   -0.4877   -0.4755 H   0  0  0  0  0  0  0  0  0  0  0  0
   -3.0352    2.6789   -2.2817 H   0  0  0  0  0  0  0  0  0  0  0  0
   -3.9880    4.6357   -3.1241 H   0  0  0  0  0  0  0  0  0  0  0  0
   -5.2462    4.6381   -4.3659 H   0  0  0  0  0  0  0  0  0  0  0  0
   -4.1690    3.2405   -4.2595 H   0  0  0  0  0  0  0  0  0  0  0  0
  1  2  1  0
  2  3  1  0
  3  4  2  0
  4  5  1  0
  5  6  2  0
  6  7  1  0
  7  8  2  3
  8  9  1  0
  9 10  2  0
  9 11  1  0
 11 12  1  0
 12 13  2  0
 13 14  1  0
 14 15  2  0
 15 16  1  0
 16 17  1  0
 17 18  2  0
 17 19  2  0
 17 20  1  0
 20 21  1  0
 21 22  1  0
 22 23  1  0
 23 24  1  0
 16 25  2  0
  6 26  1  0
 26 27  2  0
 27 28  1  0
 28 29  1  0
 27  3  1  0
 25 12  1  0
 24 20  1  0
  1 30  1  0
  1 31  1  0
  1 32  1  0
  4 33  1  0
  5 34  1  0
  7 35  1  0
  8 36  1  0
 11 37  1  0
 13 38  1  0
 14 39  1  0
 15 40  1  0
 21 41  1  0
 21 42  1  0
 22 43  1  0
 22 44  1  0
 23 45  1  0
 23 46  1  0
 24 47  1  0
 24 48  1  0
 25 49  1  0
 26 50  1  0
 29 51  1  0
 29 52  1  0
 29 53  1  0
M  END
$$$$
