
     RDKit          3D

 47 50  0  0  0  0  0  0  0  0999 V2000
    6.7996    1.1343    2.5940 C   0  0  0  0  0  0  0  0  0  0  0  0
    5.4439    0.9241    1.9666 C   0  0  0  0  0  0  0  0  0  0  0  0
    4.4557    0.7278    2.6615 O   0  0  0  0  0  0  0  0  0  0  0  0
    5.5013    0.9806    0.5858 N   0  0  0  0  0  0  0  0  0  0  0  0
    4.4454    0.7974   -0.3331 C   0  0  0  0  0  0  0  0  0  0  0  0
    4.7514    1.0014   -1.6848 C   0  0  0  0  0  0  0  0  0  0  0  0
    3.7712    0.8569   -2.6642 C   0  0  0  0  0  0  0  0  0  0  0  0
    2.4757    0.4977   -2.2995 C   0  0  0  0  0  0  0  0  0  0  0  0
    2.1512    0.2701   -0.9563 C   0  0  0  0  0  0  0  0  0  0  0  0
    0.8157   -0.0976   -0.6836 N   0  0  0  0  0  0  0  0  0  0  0  0
    0.2837   -0.4899    0.5285 C   0  0  0  0  0  0  0  0  0  0  0  0
    0.8573   -0.6520    1.5938 O   0  0  0  0  0  0  0  0  0  0  0  0
   -1.1709   -0.7556    0.4738 C   0  0  0  0  0  0  0  0  0  0  0  0
   -2.0075    0.3251    0.1870 C   0  0  0  0  0  0  0  0  0  0  0  0
   -3.3720    0.1027    0.1208 C   0  0  0  0  0  0  0  0  0  0  0  0
   -4.3493    1.1656   -0.1694 C   0  0  0  0  0  0  0  0  0  0  0  0
   -4.1443    2.5123    0.1687 C   0  0  0  0  0  0  0  0  0  0  0  0
   -5.1037    3.4779   -0.1401 C   0  0  0  0  0  0  0  0  0  0  0  0
   -6.2586    3.0753   -0.7853 C   0  0  0  0  0  0  0  0  0  0  0  0
   -6.5104    1.7974   -1.1280 N   0  0  0  0  0  0  0  0  0  0  0  0
   -5.5611    0.8813   -0.8045 C   0  0  0  0  0  0  0  0  0  0  0  0
   -3.8902   -1.1361    0.3082 N   0  0  0  0  0  0  0  0  0  0  0  0
   -3.0851   -2.1702    0.6063 C   0  0  0  0  0  0  0  0  0  0  0  0
   -3.6618   -3.4167    0.8128 C   0  0  0  0  0  0  0  0  0  0  0  0
   -2.8954   -4.5444    1.1195 C   0  0  0  0  0  0  0  0  0  0  0  0
   -1.5174   -4.4248    1.2237 C   0  0  0  0  0  0  0  0  0  0  0  0
   -0.5625   -5.8045    1.5957 Cl  0  0  0  0  0  0  0  0  0  0  0  0
   -0.9105   -3.1887    1.0218 C   0  0  0  0  0  0  0  0  0  0  0  0
   -1.6888   -2.0445    0.7104 C   0  0  0  0  0  0  0  0  0  0  0  0
    3.1416    0.4270    0.0227 C   0  0  0  0  0  0  0  0  0  0  0  0
    7.2845    2.0173    2.1681 H   0  0  0  0  0  0  0  0  0  0  0  0
    6.6848    1.2907    3.6706 H   0  0  0  0  0  0  0  0  0  0  0  0
    7.4213    0.2510    2.4258 H   0  0  0  0  0  0  0  0  0  0  0  0
    6.4024    1.2052    0.1844 H   0  0  0  0  0  0  0  0  0  0  0  0
    5.7549    1.2835   -1.9932 H   0  0  0  0  0  0  0  0  0  0  0  0
    4.0169    1.0233   -3.7098 H   0  0  0  0  0  0  0  0  0  0  0  0
    1.7286    0.3881   -3.0813 H   0  0  0  0  0  0  0  0  0  0  0  0
    0.1973   -0.1317   -1.4847 H   0  0  0  0  0  0  0  0  0  0  0  0
   -1.5856    1.3117    0.0257 H   0  0  0  0  0  0  0  0  0  0  0  0
   -3.2479    2.8279    0.6966 H   0  0  0  0  0  0  0  0  0  0  0  0
   -4.9539    4.5190    0.1245 H   0  0  0  0  0  0  0  0  0  0  0  0
   -7.0350    3.7887   -1.0461 H   0  0  0  0  0  0  0  0  0  0  0  0
   -5.8138   -0.1377   -1.0920 H   0  0  0  0  0  0  0  0  0  0  0  0
   -4.7430   -3.5148    0.7348 H   0  0  0  0  0  0  0  0  0  0  0  0
   -3.3834   -5.5026    1.2760 H   0  0  0  0  0  0  0  0  0  0  0  0
    0.1716   -3.1112    1.1178 H   0  0  0  0  0  0  0  0  0  0  0  0
    2.8959    0.2616    1.0651 H   0  0  0  0  0  0  0  0  0  0  0  0
  1  2  1  0
  2  3  2  0
  2  4  1  0
  4  5  1  0
  5  6  2  0
  6  7  1  0
  7  8  2  0
  8  9  1  0
  9 10  1  0
 10 11  1  0
 11 12  2  0
 11 13  1  0
 13 14  2  0
 14 15  1  0
 15 16  1  0
 16 17  2  0
 17 18  1  0
 18 19  2  0
 19 20  1  0
 20 21  2  0
 15 22  2  0
 22 23  1  0
 23 24  2  0
 24 25  1  0
 25 26  2  0
 26 27  1  0
 26 28  1  0
 28 29  2  0
  9 30  2  0
 30  5  1  0
 29 13  1  0
 21 16  1  0
 29 23  1  0
  1 31  1  0
  1 32  1  0
  1 33  1  0
  4 34  1  0
  6 35  1  0
  7 36  1  0
  8 37  1  0
 10 38  1  0
 14 39  1  0
 17 40  1  0
 18 41  1  0
 19 42  1  0
 21 43  1  0
 24 44  1  0
 25 45  1  0
 28 46  1  0
 30 47  1  0
M  END
$$$$
