
     RDKit          3D

 62 63  0  0  0  0  0  0  0  0999 V2000
   -5.9402    0.3069   -2.3593 C   0  0  0  0  0  0  0  0  0  0  0  0
   -5.9351   -0.5332   -1.0603 C   0  0  0  0  0  0  0  0  0  0  0  0
   -5.7725   -2.0163   -1.4503 C   0  0  0  0  0  0  0  0  0  0  0  0
   -7.3233   -0.3360   -0.4061 C   0  0  0  0  0  0  0  0  0  0  0  0
   -4.7937   -0.1588   -0.0929 C   0  0  0  0  0  0  0  0  0  0  0  0
   -4.8516   -0.5336    1.2640 C   0  0  0  0  0  0  0  0  0  0  0  0
   -3.8210   -0.2187    2.1508 C   0  0  0  0  0  0  0  0  0  0  0  0
   -2.6996    0.4566    1.6841 C   0  0  0  0  0  0  0  0  0  0  0  0
   -1.6989    0.7679    2.5721 O   0  0  0  0  0  0  0  0  0  0  0  0
   -0.7544   -0.3132    2.6594 C   0  0  0  0  0  0  0  0  0  0  0  0
    0.6373    0.2843    2.8572 C   0  0  0  0  0  0  0  0  0  0  0  0
    0.9679    1.1301    1.7349 O   0  0  0  0  0  0  0  0  0  0  0  0
    2.0258    0.6171    1.0238 C   0  0  0  0  0  0  0  0  0  0  0  0
    1.8002   -0.3937    0.0943 C   0  0  0  0  0  0  0  0  0  0  0  0
    2.8698   -0.9112   -0.6395 C   0  0  0  0  0  0  0  0  0  0  0  0
    4.1753   -0.4222   -0.4657 C   0  0  0  0  0  0  0  0  0  0  0  0
    5.3792   -0.9735   -1.2543 C   0  0  0  0  0  0  0  0  0  0  0  0
    6.4267   -1.5404   -0.2713 C   0  0  0  0  0  0  0  0  0  0  0  0
    5.0144   -2.1119   -2.2344 C   0  0  0  0  0  0  0  0  0  0  0  0
    6.0214    0.1582   -2.0866 C   0  0  0  0  0  0  0  0  0  0  0  0
    4.3651    0.6257    0.4660 C   0  0  0  0  0  0  0  0  0  0  0  0
    3.3036    1.1601    1.2020 C   0  0  0  0  0  0  0  0  0  0  0  0
    3.4359    2.2304    2.1118 N   0  0  0  0  0  0  0  0  0  0  0  0
    4.5851    2.8794    2.4899 C   0  0  0  0  0  0  0  0  0  0  0  0
    5.7417    2.6462    2.1721 O   0  0  0  0  0  0  0  0  0  0  0  0
   -2.5976    0.8522    0.3433 C   0  0  0  0  0  0  0  0  0  0  0  0
   -1.4309    1.5441   -0.0454 N   0  0  0  0  0  0  0  0  0  0  0  0
   -1.0851    1.9938   -1.2942 C   0  0  0  0  0  0  0  0  0  0  0  0
   -1.7013    1.8982   -2.3455 O   0  0  0  0  0  0  0  0  0  0  0  0
   -3.6417    0.5311   -0.5315 C   0  0  0  0  0  0  0  0  0  0  0  0
   -5.9835    1.3808   -2.1394 H   0  0  0  0  0  0  0  0  0  0  0  0
   -6.8077    0.0633   -2.9843 H   0  0  0  0  0  0  0  0  0  0  0  0
   -5.0531    0.1196   -2.9755 H   0  0  0  0  0  0  0  0  0  0  0  0
   -4.8052   -2.1949   -1.9387 H   0  0  0  0  0  0  0  0  0  0  0  0
   -5.8229   -2.6755   -0.5749 H   0  0  0  0  0  0  0  0  0  0  0  0
   -6.5598   -2.3309   -2.1448 H   0  0  0  0  0  0  0  0  0  0  0  0
   -7.4380    0.6848   -0.0219 H   0  0  0  0  0  0  0  0  0  0  0  0
   -8.1296   -0.5134   -1.1279 H   0  0  0  0  0  0  0  0  0  0  0  0
   -7.4954   -1.0293    0.4240 H   0  0  0  0  0  0  0  0  0  0  0  0
   -5.7043   -1.0843    1.6553 H   0  0  0  0  0  0  0  0  0  0  0  0
   -3.8959   -0.5045    3.1960 H   0  0  0  0  0  0  0  0  0  0  0  0
   -1.0198   -0.9339    3.5224 H   0  0  0  0  0  0  0  0  0  0  0  0
   -0.7629   -0.9394    1.7579 H   0  0  0  0  0  0  0  0  0  0  0  0
    1.3768   -0.5100    3.0245 H   0  0  0  0  0  0  0  0  0  0  0  0
    0.6376    0.9336    3.7404 H   0  0  0  0  0  0  0  0  0  0  0  0
    0.7996   -0.7802   -0.0751 H   0  0  0  0  0  0  0  0  0  0  0  0
    2.6497   -1.7026   -1.3516 H   0  0  0  0  0  0  0  0  0  0  0  0
    6.8267   -0.7719    0.3990 H   0  0  0  0  0  0  0  0  0  0  0  0
    7.2795   -1.9723   -0.8079 H   0  0  0  0  0  0  0  0  0  0  0  0
    5.9934   -2.3292    0.3545 H   0  0  0  0  0  0  0  0  0  0  0  0
    5.9023   -2.4739   -2.7663 H   0  0  0  0  0  0  0  0  0  0  0  0
    4.5804   -2.9706   -1.7105 H   0  0  0  0  0  0  0  0  0  0  0  0
    4.2991   -1.7770   -2.9936 H   0  0  0  0  0  0  0  0  0  0  0  0
    5.2935    0.6042   -2.7741 H   0  0  0  0  0  0  0  0  0  0  0  0
    6.8587   -0.2184   -2.6856 H   0  0  0  0  0  0  0  0  0  0  0  0
    6.4161    0.9637   -1.4575 H   0  0  0  0  0  0  0  0  0  0  0  0
    5.3650    1.0290    0.5966 H   0  0  0  0  0  0  0  0  0  0  0  0
    2.5656    2.5553    2.5179 H   0  0  0  0  0  0  0  0  0  0  0  0
    4.3496    3.7022    3.1871 H   0  0  0  0  0  0  0  0  0  0  0  0
   -0.7608    1.7151    0.7006 H   0  0  0  0  0  0  0  0  0  0  0  0
   -0.1002    2.4912   -1.2623 H   0  0  0  0  0  0  0  0  0  0  0  0
   -3.5572    0.8177   -1.5725 H   0  0  0  0  0  0  0  0  0  0  0  0
  1  2  1  0
  2  3  1  0
  2  4  1  0
  2  5  1  0
  5  6  2  0
  6  7  1  0
  7  8  2  0
  8  9  1  0
  9 10  1  0
 10 11  1  0
 11 12  1  0
 12 13  1  0
 13 14  2  0
 14 15  1  0
 15 16  2  0
 16 17  1  0
 17 18  1  0
 17 19  1  0
 17 20  1  0
 16 21  1  0
 21 22  2  0
 22 23  1  0
 23 24  1  0
 24 25  2  0
  8 26  1  0
 26 27  1  0
 27 28  1  0
 28 29  2  0
 26 30  2  0
 30  5  1  0
 22 13  1  0
  1 31  1  0
  1 32  1  0
  1 33  1  0
  3 34  1  0
  3 35  1  0
  3 36  1  0
  4 37  1  0
  4 38  1  0
  4 39  1  0
  6 40  1  0
  7 41  1  0
 10 42  1  0
 10 43  1  0
 11 44  1  0
 11 45  1  0
 14 46  1  0
 15 47  1  0
 18 48  1  0
 18 49  1  0
 18 50  1  0
 19 51  1  0
 19 52  1  0
 19 53  1  0
 20 54  1  0
 20 55  1  0
 20 56  1  0
 21 57  1  0
 23 58  1  0
 24 59  1  0
 27 60  1  0
 28 61  1  0
 30 62  1  0
M  END
$$$$
