
     RDKit          3D

 43 45  0  0  0  0  0  0  0  0999 V2000
   -0.6281    2.0867   -2.2429 C   0  0  0  0  0  0  0  0  0  0  0  0
   -1.9848    1.5548   -1.8064 C   0  0  0  0  0  0  0  0  0  0  0  0
   -2.2562    0.1420   -2.3180 C   0  0  0  0  0  0  0  0  0  0  0  0
   -1.4710   -0.9662   -1.6057 C   0  0  0  0  0  0  0  0  0  0  0  0
   -1.8393   -1.2637   -0.2145 N   0  0  0  0  0  0  0  0  0  0  0  0
   -3.0478   -1.9001    0.1532 C   0  0  0  0  0  0  0  0  0  0  0  0
   -4.5432   -1.8882   -0.5544 S   0  0  0  0  0  0  0  0  0  0  0  0
   -2.8043   -2.6945    1.2688 N   0  0  0  0  0  0  0  0  0  0  0  0
   -1.3960   -2.9276    1.3901 C   0  0  0  0  0  0  0  0  0  0  0  0
   -0.7789   -1.6976    0.7181 C   0  0  0  0  0  0  0  0  0  0  0  0
   -0.4477   -0.6481    1.8029 C   0  0  0  0  0  0  0  0  0  0  0  0
    0.4796    0.4755    1.3793 C   0  0  0  0  0  0  0  0  0  0  0  0
   -0.0589    1.7728    1.3212 C   0  0  0  0  0  0  0  0  0  0  0  0
    0.7296    2.8604    0.9637 C   0  0  0  0  0  0  0  0  0  0  0  0
    2.0710    2.6692    0.6515 C   0  0  0  0  0  0  0  0  0  0  0  0
    2.6493    1.3943    0.7171 C   0  0  0  0  0  0  0  0  0  0  0  0
    4.0116    1.2311    0.4162 C   0  0  0  0  0  0  0  0  0  0  0  0
    4.6224   -0.0178    0.5031 C   0  0  0  0  0  0  0  0  0  0  0  0
    3.8787   -1.1191    0.9015 C   0  0  0  0  0  0  0  0  0  0  0  0
    2.5213   -0.9728    1.2000 C   0  0  0  0  0  0  0  0  0  0  0  0
    1.8633    0.2761    1.1004 C   0  0  0  0  0  0  0  0  0  0  0  0
    0.1917    1.4837   -1.8443 H   0  0  0  0  0  0  0  0  0  0  0  0
   -0.4963    3.1153   -1.8931 H   0  0  0  0  0  0  0  0  0  0  0  0
   -0.5445    2.0931   -3.3346 H   0  0  0  0  0  0  0  0  0  0  0  0
   -2.0818    1.5911   -0.7179 H   0  0  0  0  0  0  0  0  0  0  0  0
   -2.7544    2.2237   -2.2108 H   0  0  0  0  0  0  0  0  0  0  0  0
   -2.0070    0.1029   -3.3864 H   0  0  0  0  0  0  0  0  0  0  0  0
   -3.3307   -0.0377   -2.2631 H   0  0  0  0  0  0  0  0  0  0  0  0
   -0.4047   -0.7175   -1.6282 H   0  0  0  0  0  0  0  0  0  0  0  0
   -1.5928   -1.9008   -2.1669 H   0  0  0  0  0  0  0  0  0  0  0  0
   -3.5069   -3.3818    1.5162 H   0  0  0  0  0  0  0  0  0  0  0  0
   -1.1655   -3.8363    0.8223 H   0  0  0  0  0  0  0  0  0  0  0  0
   -1.1213   -3.0802    2.4367 H   0  0  0  0  0  0  0  0  0  0  0  0
    0.1111   -1.9989    0.1570 H   0  0  0  0  0  0  0  0  0  0  0  0
    0.0285   -1.1356    2.6645 H   0  0  0  0  0  0  0  0  0  0  0  0
   -1.3820   -0.2267    2.1986 H   0  0  0  0  0  0  0  0  0  0  0  0
   -1.1092    1.9425    1.5525 H   0  0  0  0  0  0  0  0  0  0  0  0
    0.2951    3.8555    0.9174 H   0  0  0  0  0  0  0  0  0  0  0  0
    2.6681    3.5322    0.3646 H   0  0  0  0  0  0  0  0  0  0  0  0
    4.6142    2.0861    0.1163 H   0  0  0  0  0  0  0  0  0  0  0  0
    5.6784   -0.1249    0.2705 H   0  0  0  0  0  0  0  0  0  0  0  0
    4.3526   -2.0935    0.9865 H   0  0  0  0  0  0  0  0  0  0  0  0
    1.9870   -1.8594    1.5277 H   0  0  0  0  0  0  0  0  0  0  0  0
  1  2  1  0
  2  3  1  0
  3  4  1  0
  4  5  1  0
  5  6  1  0
  6  7  2  0
  6  8  1  0
  8  9  1  0
  9 10  1  0
 10 11  1  0
 11 12  1  0
 12 13  2  0
 13 14  1  0
 14 15  2  0
 15 16  1  0
 16 17  2  0
 17 18  1  0
 18 19  2  0
 19 20  1  0
 20 21  2  0
 10  5  1  0
 21 12  1  0
 21 16  1  0
  1 22  1  0
  1 23  1  0
  1 24  1  0
  2 25  1  0
  2 26  1  0
  3 27  1  0
  3 28  1  0
  4 29  1  0
  4 30  1  0
  8 31  1  0
  9 32  1  0
  9 33  1  0
 10 34  1  0
 11 35  1  0
 11 36  1  0
 13 37  1  0
 14 38  1  0
 15 39  1  0
 17 40  1  0
 18 41  1  0
 19 42  1  0
 20 43  1  0
M  END
$$$$
