
     RDKit          3D

 44 46  0  0  0  0  0  0  0  0999 V2000
    7.6412    1.3616    1.3390 C   0  0  0  0  0  0  0  0  0  0  0  0
    6.5463    1.6189    0.4679 O   0  0  0  0  0  0  0  0  0  0  0  0
    5.6560    0.6003    0.2726 C   0  0  0  0  0  0  0  0  0  0  0  0
    4.5896    0.9121   -0.5731 C   0  0  0  0  0  0  0  0  0  0  0  0
    3.6003   -0.0332   -0.8656 C   0  0  0  0  0  0  0  0  0  0  0  0
    3.6719   -1.3159   -0.3192 C   0  0  0  0  0  0  0  0  0  0  0  0
    2.7428   -2.3008   -0.5300 O   0  0  0  0  0  0  0  0  0  0  0  0
    1.9216   -2.2230   -1.6971 C   0  0  0  0  0  0  0  0  0  0  0  0
    0.6474   -1.5589   -1.3440 C   0  0  0  0  0  0  0  0  0  0  0  0
   -0.1386   -1.5074   -0.2199 C   0  0  0  0  0  0  0  0  0  0  0  0
   -1.2356   -0.6768   -0.5759 C   0  0  0  0  0  0  0  0  0  0  0  0
   -2.3360   -0.2715    0.3144 C   0  0  0  0  0  0  0  0  0  0  0  0
   -2.1932   -0.3551    1.5363 O   0  0  0  0  0  0  0  0  0  0  0  0
   -3.5308    0.2299   -0.2324 N   0  0  0  0  0  0  0  0  0  0  0  0
   -3.9857   -0.1000   -1.5795 C   0  0  0  0  0  0  0  0  0  0  0  0
   -4.4685    0.8731    0.6922 C   0  0  0  0  0  0  0  0  0  0  0  0
   -5.4038    1.9133    0.1034 C   0  0  0  0  0  0  0  0  0  0  0  0
   -6.4773    1.9845    1.1664 C   0  0  0  0  0  0  0  0  0  0  0  0
   -6.6463    0.6477    1.6548 O   0  0  0  0  0  0  0  0  0  0  0  0
   -5.4387   -0.0871    1.3817 C   0  0  0  0  0  0  0  0  0  0  0  0
   -1.0891   -0.2355   -1.8384 N   0  0  0  0  0  0  0  0  0  0  0  0
    0.0733   -0.8051   -2.3173 O   0  0  0  0  0  0  0  0  0  0  0  0
    4.7381   -1.6197    0.5427 C   0  0  0  0  0  0  0  0  0  0  0  0
    4.8814   -3.1844    1.2706 Cl  0  0  0  0  0  0  0  0  0  0  0  0
    5.7271   -0.6718    0.8340 C   0  0  0  0  0  0  0  0  0  0  0  0
    8.2476    2.2709    1.3913 H   0  0  0  0  0  0  0  0  0  0  0  0
    8.2759    0.5596    0.9479 H   0  0  0  0  0  0  0  0  0  0  0  0
    7.2942    1.1335    2.3522 H   0  0  0  0  0  0  0  0  0  0  0  0
    4.5219    1.9091   -1.0045 H   0  0  0  0  0  0  0  0  0  0  0  0
    2.7815    0.2779   -1.5067 H   0  0  0  0  0  0  0  0  0  0  0  0
    1.7065   -3.2528   -2.0036 H   0  0  0  0  0  0  0  0  0  0  0  0
    2.4368   -1.7485   -2.5402 H   0  0  0  0  0  0  0  0  0  0  0  0
    0.0466   -1.9846    0.7320 H   0  0  0  0  0  0  0  0  0  0  0  0
   -3.4387   -0.9441   -2.0035 H   0  0  0  0  0  0  0  0  0  0  0  0
   -5.0380   -0.3980   -1.5487 H   0  0  0  0  0  0  0  0  0  0  0  0
   -3.8724    0.7826   -2.2146 H   0  0  0  0  0  0  0  0  0  0  0  0
   -3.8806    1.3719    1.4758 H   0  0  0  0  0  0  0  0  0  0  0  0
   -4.9197    2.8768   -0.0798 H   0  0  0  0  0  0  0  0  0  0  0  0
   -5.8545    1.5792   -0.8366 H   0  0  0  0  0  0  0  0  0  0  0  0
   -6.1668    2.6163    2.0060 H   0  0  0  0  0  0  0  0  0  0  0  0
   -7.4293    2.3588    0.7802 H   0  0  0  0  0  0  0  0  0  0  0  0
   -5.0336   -0.4763    2.3210 H   0  0  0  0  0  0  0  0  0  0  0  0
   -5.7062   -0.9391    0.7483 H   0  0  0  0  0  0  0  0  0  0  0  0
    6.5353   -0.9536    1.5000 H   0  0  0  0  0  0  0  0  0  0  0  0
  1  2  1  0
  2  3  1  0
  3  4  2  0
  4  5  1  0
  5  6  2  0
  6  7  1  0
  7  8  1  0
  8  9  1  0
  9 10  2  0
 10 11  1  0
 11 12  1  0
 12 13  2  0
 12 14  1  0
 14 15  1  0
 14 16  1  0
 16 17  1  0
 17 18  1  0
 18 19  1  0
 19 20  1  0
 11 21  2  0
 21 22  1  0
  6 23  1  0
 23 24  1  0
 23 25  2  0
 25  3  1  0
 22  9  1  0
 20 16  1  0
  1 26  1  0
  1 27  1  0
  1 28  1  0
  4 29  1  0
  5 30  1  0
  8 31  1  0
  8 32  1  0
 10 33  1  0
 15 34  1  0
 15 35  1  0
 15 36  1  0
 16 37  1  0
 17 38  1  0
 17 39  1  0
 18 40  1  0
 18 41  1  0
 20 42  1  0
 20 43  1  0
 25 44  1  0
M  END
$$$$
