
     RDKit          3D

 57 59  0  0  0  0  0  0  0  0999 V2000
    5.4365   -0.3770   -3.6626 C   0  0  0  0  0  0  0  0  0  0  0  0
    4.9312   -0.7990   -2.2814 C   0  0  0  0  0  0  0  0  0  0  0  0
    6.1057   -0.8731   -1.3013 C   0  0  0  0  0  0  0  0  0  0  0  0
    3.8386    0.1764   -1.8031 C   0  0  0  0  0  0  0  0  0  0  0  0
    3.1645   -0.2410   -0.5390 C   0  0  0  0  0  0  0  0  0  0  0  0
    3.1547    0.4271    0.7059 C   0  0  0  0  0  0  0  0  0  0  0  0
    2.3830   -0.3716    1.5143 C   0  0  0  0  0  0  0  0  0  0  0  0
    1.9102   -0.2704    2.9119 C   0  0  0  0  0  0  0  0  0  0  0  0
    0.5407    0.1921    2.8881 N   0  0  0  0  0  0  0  0  0  0  0  0
    0.2425    1.5326    2.7981 C   0  0  0  0  0  0  0  0  0  0  0  0
    1.0811    2.4191    2.9342 O   0  0  0  0  0  0  0  0  0  0  0  0
   -1.2138    1.8494    2.4788 C   0  0  0  0  0  0  0  0  0  0  0  0
   -2.1627    1.3564    3.5815 C   0  0  0  0  0  0  0  0  0  0  0  0
   -3.4066    0.6777    3.0216 C   0  0  0  0  0  0  0  0  0  0  0  0
   -3.0307   -0.4329    2.0630 C   0  0  0  0  0  0  0  0  0  0  0  0
   -3.6033   -1.5175    2.0725 O   0  0  0  0  0  0  0  0  0  0  0  0
   -2.0134   -0.1013    1.1755 N   0  0  0  0  0  0  0  0  0  0  0  0
   -1.7048   -1.0045    0.0670 C   0  0  0  0  0  0  0  0  0  0  0  0
   -2.4229   -0.6236   -1.2066 C   0  0  0  0  0  0  0  0  0  0  0  0
   -1.7328    0.0041   -2.2528 C   0  0  0  0  0  0  0  0  0  0  0  0
   -2.4000    0.3701   -3.4219 C   0  0  0  0  0  0  0  0  0  0  0  0
   -3.7645    0.1130   -3.5587 C   0  0  0  0  0  0  0  0  0  0  0  0
   -4.4770   -0.5168   -2.5279 C   0  0  0  0  0  0  0  0  0  0  0  0
   -5.9532   -0.8020   -2.6573 C   0  0  0  0  0  0  0  0  0  0  0  0
   -6.4645   -0.4776   -3.8788 F   0  0  0  0  0  0  0  0  0  0  0  0
   -6.2535   -2.1164   -2.4673 F   0  0  0  0  0  0  0  0  0  0  0  0
   -6.6981   -0.1117   -1.7495 F   0  0  0  0  0  0  0  0  0  0  0  0
   -3.7948   -0.8796   -1.3546 C   0  0  0  0  0  0  0  0  0  0  0  0
   -1.5583    1.2854    1.0960 C   0  0  0  0  0  0  0  0  0  0  0  0
    1.9621   -1.4529    0.8042 O   0  0  0  0  0  0  0  0  0  0  0  0
    2.4352   -1.3643   -0.4925 N   0  0  0  0  0  0  0  0  0  0  0  0
    4.6151   -0.3517   -4.3864 H   0  0  0  0  0  0  0  0  0  0  0  0
    5.8955    0.6173   -3.6318 H   0  0  0  0  0  0  0  0  0  0  0  0
    6.1854   -1.0838   -4.0358 H   0  0  0  0  0  0  0  0  0  0  0  0
    4.5007   -1.8056   -2.3763 H   0  0  0  0  0  0  0  0  0  0  0  0
    5.7878   -1.2687   -0.3303 H   0  0  0  0  0  0  0  0  0  0  0  0
    6.8876   -1.5388   -1.6852 H   0  0  0  0  0  0  0  0  0  0  0  0
    6.5524    0.1146   -1.1378 H   0  0  0  0  0  0  0  0  0  0  0  0
    4.2713    1.1779   -1.6727 H   0  0  0  0  0  0  0  0  0  0  0  0
    3.0694    0.2746   -2.5811 H   0  0  0  0  0  0  0  0  0  0  0  0
    3.6211    1.3644    0.9752 H   0  0  0  0  0  0  0  0  0  0  0  0
    2.5313    0.4206    3.4908 H   0  0  0  0  0  0  0  0  0  0  0  0
    1.9237   -1.2491    3.4013 H   0  0  0  0  0  0  0  0  0  0  0  0
   -0.1579   -0.4742    2.5743 H   0  0  0  0  0  0  0  0  0  0  0  0
   -1.2803    2.9441    2.4176 H   0  0  0  0  0  0  0  0  0  0  0  0
   -1.6543    0.6604    4.2610 H   0  0  0  0  0  0  0  0  0  0  0  0
   -2.4657    2.2080    4.2034 H   0  0  0  0  0  0  0  0  0  0  0  0
   -3.9906    0.2498    3.8439 H   0  0  0  0  0  0  0  0  0  0  0  0
   -4.0466    1.3936    2.4934 H   0  0  0  0  0  0  0  0  0  0  0  0
   -1.9651   -2.0354    0.3345 H   0  0  0  0  0  0  0  0  0  0  0  0
   -0.6200   -0.9882   -0.0823 H   0  0  0  0  0  0  0  0  0  0  0  0
   -0.6666    0.2050   -2.1651 H   0  0  0  0  0  0  0  0  0  0  0  0
   -1.8550    0.8528   -4.2301 H   0  0  0  0  0  0  0  0  0  0  0  0
   -4.2702    0.4036   -4.4787 H   0  0  0  0  0  0  0  0  0  0  0  0
   -4.3394   -1.3729   -0.5480 H   0  0  0  0  0  0  0  0  0  0  0  0
   -0.6905    1.3430    0.4279 H   0  0  0  0  0  0  0  0  0  0  0  0
   -2.3704    1.8685    0.6437 H   0  0  0  0  0  0  0  0  0  0  0  0
  1  2  1  0
  2  3  1  0
  2  4  1  0
  4  5  1  0
  5  6  1  0
  6  7  2  0
  7  8  1  0
  8  9  1  0
  9 10  1  0
 10 11  2  0
 10 12  1  0
 12 13  1  0
 13 14  1  0
 14 15  1  0
 15 16  2  0
 15 17  1  0
 17 18  1  0
 18 19  1  0
 19 20  2  0
 20 21  1  0
 21 22  2  0
 22 23  1  0
 23 24  1  0
 24 25  1  0
 24 26  1  0
 24 27  1  0
 23 28  2  0
 17 29  1  0
  7 30  1  0
 30 31  1  0
 31  5  2  0
 29 12  1  0
 28 19  1  0
  1 32  1  0
  1 33  1  0
  1 34  1  0
  2 35  1  0
  3 36  1  0
  3 37  1  0
  3 38  1  0
  4 39  1  0
  4 40  1  0
  6 41  1  0
  8 42  1  0
  8 43  1  0
  9 44  1  0
 12 45  1  0
 13 46  1  0
 13 47  1  0
 14 48  1  0
 14 49  1  0
 18 50  1  0
 18 51  1  0
 20 52  1  0
 21 53  1  0
 22 54  1  0
 28 55  1  0
 29 56  1  0
 29 57  1  0
M  END
$$$$
