
     RDKit          3D

 37 39  0  0  0  0  0  0  0  0999 V2000
    3.9412   -2.3965    0.6013 C   0  0  0  0  0  0  0  0  0  0  0  0
    2.7846   -1.4418    0.6122 C   0  0  0  0  0  0  0  0  0  0  0  0
    1.6528   -1.7067    1.3844 C   0  0  0  0  0  0  0  0  0  0  0  0
    0.5830   -0.8052    1.4115 C   0  0  0  0  0  0  0  0  0  0  0  0
    0.6098    0.3708    0.6566 C   0  0  0  0  0  0  0  0  0  0  0  0
    1.7940    0.6868   -0.0340 C   0  0  0  0  0  0  0  0  0  0  0  0
    2.8579   -0.2290   -0.0776 C   0  0  0  0  0  0  0  0  0  0  0  0
    1.9249    2.0133   -0.7307 C   0  0  0  0  0  0  0  0  0  0  0  0
    1.2451    3.0604    0.1329 C   0  0  0  0  0  0  0  0  0  0  0  0
   -0.2182    2.6929    0.3252 C   0  0  0  0  0  0  0  0  0  0  0  0
   -0.4862    1.2843    0.6298 N   0  0  0  0  0  0  0  0  0  0  0  0
   -1.8502    0.9623    0.7287 C   0  0  0  0  0  0  0  0  0  0  0  0
   -2.6814    1.8445    0.9812 O   0  0  0  0  0  0  0  0  0  0  0  0
   -2.3215   -0.4714    0.3656 C   0  0  0  0  0  0  0  0  0  0  0  0
   -1.9204   -0.8558   -1.0587 C   0  0  0  0  0  0  0  0  0  0  0  0
   -3.1355   -1.5724   -1.5926 C   0  0  0  0  0  0  0  0  0  0  0  0
   -4.2530   -0.8413   -0.8948 C   0  0  0  0  0  0  0  0  0  0  0  0
   -3.7629   -0.5838    0.4217 O   0  0  0  0  0  0  0  0  0  0  0  0
    3.5969   -3.4280    0.7305 H   0  0  0  0  0  0  0  0  0  0  0  0
    4.4759   -2.3501   -0.3533 H   0  0  0  0  0  0  0  0  0  0  0  0
    4.6370   -2.1515    1.4096 H   0  0  0  0  0  0  0  0  0  0  0  0
    1.5989   -2.6114    1.9867 H   0  0  0  0  0  0  0  0  0  0  0  0
   -0.2338   -1.0205    2.0925 H   0  0  0  0  0  0  0  0  0  0  0  0
    3.7579    0.0164   -0.6385 H   0  0  0  0  0  0  0  0  0  0  0  0
    1.4654    1.9542   -1.7241 H   0  0  0  0  0  0  0  0  0  0  0  0
    2.9792    2.2833   -0.8600 H   0  0  0  0  0  0  0  0  0  0  0  0
    1.7403    3.1186    1.1113 H   0  0  0  0  0  0  0  0  0  0  0  0
    1.3258    4.0516   -0.3268 H   0  0  0  0  0  0  0  0  0  0  0  0
   -0.6440    3.3087    1.1271 H   0  0  0  0  0  0  0  0  0  0  0  0
   -0.7759    2.9363   -0.5893 H   0  0  0  0  0  0  0  0  0  0  0  0
   -1.9705   -1.1942    1.0991 H   0  0  0  0  0  0  0  0  0  0  0  0
   -1.7168    0.0336   -1.6677 H   0  0  0  0  0  0  0  0  0  0  0  0
   -1.0247   -1.4831   -1.0896 H   0  0  0  0  0  0  0  0  0  0  0  0
   -3.2165   -1.5449   -2.6821 H   0  0  0  0  0  0  0  0  0  0  0  0
   -3.1135   -2.6204   -1.2713 H   0  0  0  0  0  0  0  0  0  0  0  0
   -4.4716    0.1179   -1.3769 H   0  0  0  0  0  0  0  0  0  0  0  0
   -5.1739   -1.4278   -0.8400 H   0  0  0  0  0  0  0  0  0  0  0  0
  1  2  1  0
  2  3  2  0
  3  4  1  0
  4  5  2  0
  5  6  1  0
  6  7  2  0
  6  8  1  0
  8  9  1  0
  9 10  1  0
 10 11  1  0
 11 12  1  0
 12 13  2  0
 12 14  1  0
 14 15  1  0
 15 16  1  0
 16 17  1  0
 17 18  1  0
  7  2  1  0
 18 14  1  0
 11  5  1  0
  1 19  1  0
  1 20  1  0
  1 21  1  0
  3 22  1  0
  4 23  1  0
  7 24  1  0
  8 25  1  0
  8 26  1  0
  9 27  1  0
  9 28  1  0
 10 29  1  0
 10 30  1  0
 14 31  1  0
 15 32  1  0
 15 33  1  0
 16 34  1  0
 16 35  1  0
 17 36  1  0
 17 37  1  0
M  END
$$$$
