
     RDKit          3D

 63 68  0  0  0  0  0  0  0  0999 V2000
   -3.5504    3.9930    4.6238 C   0  0  0  0  0  0  0  0  0  0  0  0
   -3.9782    3.5453    3.3436 O   0  0  0  0  0  0  0  0  0  0  0  0
   -3.2920    2.4962    2.7959 C   0  0  0  0  0  0  0  0  0  0  0  0
   -3.7413    2.0981    1.5360 C   0  0  0  0  0  0  0  0  0  0  0  0
   -3.1303    1.0384    0.8606 C   0  0  0  0  0  0  0  0  0  0  0  0
   -2.0556    0.3470    1.4412 C   0  0  0  0  0  0  0  0  0  0  0  0
   -1.3634   -0.8155    0.7233 C   0  0  0  0  0  0  0  0  0  0  0  0
   -2.3524   -1.8998    0.3315 C   0  0  0  0  0  0  0  0  0  0  0  0
   -2.9751   -2.6896    1.3053 C   0  0  0  0  0  0  0  0  0  0  0  0
   -3.9080   -3.6585    0.9355 C   0  0  0  0  0  0  0  0  0  0  0  0
   -4.2434   -3.8590   -0.4119 C   0  0  0  0  0  0  0  0  0  0  0  0
   -5.1881   -4.8319   -0.7793 C   0  0  0  0  0  0  0  0  0  0  0  0
   -5.5257   -5.0339   -2.1176 C   0  0  0  0  0  0  0  0  0  0  0  0
   -4.9233   -4.2659   -3.1069 C   0  0  0  0  0  0  0  0  0  0  0  0
   -3.9825   -3.2955   -2.7577 C   0  0  0  0  0  0  0  0  0  0  0  0
   -3.6244   -3.0711   -1.4107 C   0  0  0  0  0  0  0  0  0  0  0  0
   -2.6750   -2.0984   -1.0174 C   0  0  0  0  0  0  0  0  0  0  0  0
   -2.0891   -1.3428   -2.0127 O   0  0  0  0  0  0  0  0  0  0  0  0
   -0.9461   -0.5981   -1.7337 C   0  0  0  0  0  0  0  0  0  0  0  0
   -0.2752   -0.1470   -2.8552 N   0  0  0  0  0  0  0  0  0  0  0  0
    0.7949    0.5456   -2.6445 C   0  0  0  0  0  0  0  0  0  0  0  0
    1.3364    0.8579   -1.4180 N   0  0  0  0  0  0  0  0  0  0  0  0
    2.6081    1.5836   -1.3786 C   0  0  0  0  0  0  0  0  0  0  0  0
    3.7901    0.5940   -1.3262 C   0  0  0  0  0  0  0  0  0  0  0  0
    5.1093    1.2549   -1.3321 N   0  0  0  0  0  0  0  0  0  0  0  0
    5.4132    1.8999   -0.0333 C   0  0  0  0  0  0  0  0  0  0  0  0
    6.8329    2.4917   -0.0123 C   0  0  0  0  0  0  0  0  0  0  0  0
    7.8149    1.4844   -0.2770 O   0  0  0  0  0  0  0  0  0  0  0  0
    7.5726    0.8898   -1.5583 C   0  0  0  0  0  0  0  0  0  0  0  0
    6.1724    0.2601   -1.6176 C   0  0  0  0  0  0  0  0  0  0  0  0
    0.7187    0.3820   -0.2702 C   0  0  0  0  0  0  0  0  0  0  0  0
    1.1777    0.4983    0.9386 N   0  0  0  0  0  0  0  0  0  0  0  0
   -0.5708   -0.3501   -0.4620 C   0  0  0  0  0  0  0  0  0  0  0  0
   -1.6068    0.7586    2.7056 C   0  0  0  0  0  0  0  0  0  0  0  0
   -2.2187    1.8235    3.3777 C   0  0  0  0  0  0  0  0  0  0  0  0
   -3.6391    3.2003    5.3732 H   0  0  0  0  0  0  0  0  0  0  0  0
   -4.2088    4.8112    4.9288 H   0  0  0  0  0  0  0  0  0  0  0  0
   -2.5295    4.3853    4.5810 H   0  0  0  0  0  0  0  0  0  0  0  0
   -4.5757    2.6186    1.0725 H   0  0  0  0  0  0  0  0  0  0  0  0
   -3.5056    0.7586   -0.1217 H   0  0  0  0  0  0  0  0  0  0  0  0
   -0.6646   -1.3022    1.4192 H   0  0  0  0  0  0  0  0  0  0  0  0
   -2.7461   -2.5446    2.3591 H   0  0  0  0  0  0  0  0  0  0  0  0
   -4.3806   -4.2545    1.7137 H   0  0  0  0  0  0  0  0  0  0  0  0
   -5.6719   -5.4426   -0.0201 H   0  0  0  0  0  0  0  0  0  0  0  0
   -6.2593   -5.7901   -2.3847 H   0  0  0  0  0  0  0  0  0  0  0  0
   -5.1819   -4.4181   -4.1514 H   0  0  0  0  0  0  0  0  0  0  0  0
   -3.5230   -2.7071   -3.5502 H   0  0  0  0  0  0  0  0  0  0  0  0
    1.3664    0.9318   -3.5053 H   0  0  0  0  0  0  0  0  0  0  0  0
    2.6200    2.2720   -0.5274 H   0  0  0  0  0  0  0  0  0  0  0  0
    2.7071    2.2218   -2.2663 H   0  0  0  0  0  0  0  0  0  0  0  0
    3.6945   -0.0751   -0.4612 H   0  0  0  0  0  0  0  0  0  0  0  0
    3.7122   -0.0464   -2.2152 H   0  0  0  0  0  0  0  0  0  0  0  0
    5.3262    1.1640    0.7767 H   0  0  0  0  0  0  0  0  0  0  0  0
    4.7039    2.7096    0.1657 H   0  0  0  0  0  0  0  0  0  0  0  0
    6.9371    3.3022   -0.7435 H   0  0  0  0  0  0  0  0  0  0  0  0
    7.0447    2.9075    0.9779 H   0  0  0  0  0  0  0  0  0  0  0  0
    8.3318    0.1170   -1.7132 H   0  0  0  0  0  0  0  0  0  0  0  0
    7.7024    1.6472   -2.3406 H   0  0  0  0  0  0  0  0  0  0  0  0
    6.1215   -0.5597   -0.8879 H   0  0  0  0  0  0  0  0  0  0  0  0
    6.0234   -0.1649   -2.6173 H   0  0  0  0  0  0  0  0  0  0  0  0
    2.0551    1.0117    0.9678 H   0  0  0  0  0  0  0  0  0  0  0  0
   -0.7589    0.2587    3.1708 H   0  0  0  0  0  0  0  0  0  0  0  0
   -1.8267    2.1024    4.3494 H   0  0  0  0  0  0  0  0  0  0  0  0
  1  2  1  0
  2  3  1  0
  3  4  2  0
  4  5  1  0
  5  6  2  0
  6  7  1  0
  7  8  1  0
  8  9  2  0
  9 10  1  0
 10 11  2  0
 11 12  1  0
 12 13  2  0
 13 14  1  0
 14 15  2  0
 15 16  1  0
 16 17  2  0
 17 18  1  0
 18 19  1  0
 19 20  1  0
 20 21  2  0
 21 22  1  0
 22 23  1  0
 23 24  1  0
 24 25  1  0
 25 26  1  0
 26 27  1  0
 27 28  1  0
 28 29  1  0
 29 30  1  0
 22 31  1  0
 31 32  2  3
 31 33  1  0
  6 34  1  0
 34 35  2  0
 35  3  1  0
 33  7  1  0
 17  8  1  0
 33 19  2  0
 16 11  1  0
 30 25  1  0
  1 36  1  0
  1 37  1  0
  1 38  1  0
  4 39  1  0
  5 40  1  0
  7 41  1  0
  9 42  1  0
 10 43  1  0
 12 44  1  0
 13 45  1  0
 14 46  1  0
 15 47  1  0
 21 48  1  0
 23 49  1  0
 23 50  1  0
 24 51  1  0
 24 52  1  0
 26 53  1  0
 26 54  1  0
 27 55  1  0
 27 56  1  0
 29 57  1  0
 29 58  1  0
 30 59  1  0
 30 60  1  0
 32 61  1  0
 34 62  1  0
 35 63  1  0
M  END
$$$$
