
     RDKit          3D

 58 60  0  0  0  0  0  0  0  0999 V2000
    1.6433    1.7021   -2.6081 C   0  0  0  0  0  0  0  0  0  0  0  0
    2.4501    2.5772   -1.6608 C   0  0  0  0  0  0  0  0  0  0  0  0
    2.1810    2.2847   -0.1813 C   0  0  0  0  0  0  0  0  0  0  0  0
    2.6366    0.9232    0.2632 C   0  0  0  0  0  0  0  0  0  0  0  0
    3.9999    0.6908    0.4431 N   0  0  0  0  0  0  0  0  0  0  0  0
    4.1333   -0.6593    0.7929 N   0  0  0  0  0  0  0  0  0  0  0  0
    5.4014   -1.2162    1.0650 C   0  0  0  0  0  0  0  0  0  0  0  0
    6.5562   -0.4148    1.0406 C   0  0  0  0  0  0  0  0  0  0  0  0
    7.8214   -0.9564    1.3006 C   0  0  0  0  0  0  0  0  0  0  0  0
    7.9421   -2.3190    1.5899 C   0  0  0  0  0  0  0  0  0  0  0  0
    9.2661   -2.8943    1.8587 N   0  0  0  0  0  4  0  0  0  0  0  0
    9.3259   -4.1012    2.1375 O   0  0  0  0  0  0  0  0  0  0  0  0
   10.2460   -2.1386    1.7873 O   0  0  0  0  0  1  0  0  0  0  0  0
    6.8074   -3.1338    1.6241 C   0  0  0  0  0  0  0  0  0  0  0  0
    5.5472   -2.5790    1.3638 C   0  0  0  0  0  0  0  0  0  0  0  0
    2.8638   -1.2275    0.9104 C   0  0  0  0  0  0  0  0  0  0  0  0
    2.5293   -2.3581    1.2247 O   0  0  0  0  0  0  0  0  0  0  0  0
    1.8909   -0.1584    0.5547 C   0  0  0  0  0  0  0  0  0  0  0  0
    0.4372   -0.3663    0.5220 C   0  0  0  0  0  0  0  0  0  0  0  0
   -0.4031    0.4738    0.0237 N   0  0  0  0  0  0  0  0  0  0  0  0
   -1.7988    0.0217    0.0956 C   0  0  0  0  0  0  0  0  0  0  0  0
   -2.6507    0.9404   -0.7838 C   0  0  0  0  0  0  0  0  0  0  0  0
   -4.1076    0.5479   -0.7664 C   0  0  0  0  0  0  0  0  0  0  0  0
   -4.5864   -0.4284   -1.6456 C   0  0  0  0  0  0  0  0  0  0  0  0
   -5.9308   -0.8069   -1.6219 C   0  0  0  0  0  0  0  0  0  0  0  0
   -6.8169   -0.2155   -0.7164 C   0  0  0  0  0  0  0  0  0  0  0  0
   -8.1530   -0.5224   -0.6273 O   0  0  0  0  0  0  0  0  0  0  0  0
   -8.6373   -1.5865   -1.4309 C   0  0  0  0  0  0  0  0  0  0  0  0
   -6.3455    0.7720    0.1737 C   0  0  0  0  0  0  0  0  0  0  0  0
   -7.2769    1.3070    1.0310 O   0  0  0  0  0  0  0  0  0  0  0  0
   -6.8639    2.3774    1.8678 C   0  0  0  0  0  0  0  0  0  0  0  0
   -4.9939    1.1392    0.1465 C   0  0  0  0  0  0  0  0  0  0  0  0
    1.8399    1.9928   -3.6455 H   0  0  0  0  0  0  0  0  0  0  0  0
    1.9068    0.6453   -2.5044 H   0  0  0  0  0  0  0  0  0  0  0  0
    0.5700    1.8132   -2.4256 H   0  0  0  0  0  0  0  0  0  0  0  0
    3.5177    2.4636   -1.8848 H   0  0  0  0  0  0  0  0  0  0  0  0
    2.1999    3.6268   -1.8586 H   0  0  0  0  0  0  0  0  0  0  0  0
    2.7118    3.0335    0.4210 H   0  0  0  0  0  0  0  0  0  0  0  0
    1.1206    2.4458    0.0354 H   0  0  0  0  0  0  0  0  0  0  0  0
    4.5367    0.9509   -0.3877 H   0  0  0  0  0  0  0  0  0  0  0  0
    6.4919    0.6524    0.8410 H   0  0  0  0  0  0  0  0  0  0  0  0
    8.6914   -0.3033    1.2789 H   0  0  0  0  0  0  0  0  0  0  0  0
    6.8789   -4.1965    1.8491 H   0  0  0  0  0  0  0  0  0  0  0  0
    4.6878   -3.2453    1.3936 H   0  0  0  0  0  0  0  0  0  0  0  0
    0.1016   -1.3283    0.9513 H   0  0  0  0  0  0  0  0  0  0  0  0
   -2.1491    0.0685    1.1343 H   0  0  0  0  0  0  0  0  0  0  0  0
   -1.8930   -1.0162   -0.2501 H   0  0  0  0  0  0  0  0  0  0  0  0
   -2.5437    1.9819   -0.4538 H   0  0  0  0  0  0  0  0  0  0  0  0
   -2.2803    0.9220   -1.8172 H   0  0  0  0  0  0  0  0  0  0  0  0
   -3.9154   -0.9004   -2.3601 H   0  0  0  0  0  0  0  0  0  0  0  0
   -6.2559   -1.5641   -2.3292 H   0  0  0  0  0  0  0  0  0  0  0  0
   -9.6976   -1.7265   -1.1964 H   0  0  0  0  0  0  0  0  0  0  0  0
   -8.5618   -1.3419   -2.4952 H   0  0  0  0  0  0  0  0  0  0  0  0
   -8.1204   -2.5241   -1.2016 H   0  0  0  0  0  0  0  0  0  0  0  0
   -6.1215    2.0398    2.5995 H   0  0  0  0  0  0  0  0  0  0  0  0
   -7.7411    2.7263    2.4222 H   0  0  0  0  0  0  0  0  0  0  0  0
   -6.4864    3.2214    1.2796 H   0  0  0  0  0  0  0  0  0  0  0  0
   -4.6030    1.8874    0.8299 H   0  0  0  0  0  0  0  0  0  0  0  0
  1  2  1  0
  2  3  1  0
  3  4  1  0
  4  5  1  0
  5  6  1  0
  6  7  1  0
  7  8  2  0
  8  9  1  0
  9 10  2  0
 10 11  1  0
 11 12  2  0
 11 13  1  0
 10 14  1  0
 14 15  2  0
  6 16  1  0
 16 17  2  0
 16 18  1  0
 18 19  1  0
 19 20  2  3
 20 21  1  0
 21 22  1  0
 22 23  1  0
 23 24  2  0
 24 25  1  0
 25 26  2  0
 26 27  1  0
 27 28  1  0
 26 29  1  0
 29 30  1  0
 30 31  1  0
 29 32  2  0
 18  4  2  0
 32 23  1  0
 15  7  1  0
  1 33  1  0
  1 34  1  0
  1 35  1  0
  2 36  1  0
  2 37  1  0
  3 38  1  0
  3 39  1  0
  5 40  1  0
  8 41  1  0
  9 42  1  0
 14 43  1  0
 15 44  1  0
 19 45  1  0
 21 46  1  0
 21 47  1  0
 22 48  1  0
 22 49  1  0
 24 50  1  0
 25 51  1  0
 28 52  1  0
 28 53  1  0
 28 54  1  0
 31 55  1  0
 31 56  1  0
 31 57  1  0
 32 58  1  0
M  CHG  2  11   1  13  -1
M  END
$$$$
