
     RDKit          3D

 57 60  0  0  0  0  0  0  0  0999 V2000
   -5.9151    2.9921   -0.2331 C   0  0  0  0  0  0  0  0  0  0  0  0
   -5.7079    1.6507    0.3610 C   0  0  0  0  0  0  0  0  0  0  0  0
   -6.7590    0.9343    0.7725 N   0  0  0  0  0  0  0  0  0  0  0  0
   -6.2395   -0.2441    1.2694 O   0  0  0  0  0  0  0  0  0  0  0  0
   -4.8855   -0.2283    1.1584 C   0  0  0  0  0  0  0  0  0  0  0  0
   -4.1823   -1.4301    1.6494 C   0  0  0  0  0  0  0  0  0  0  0  0
   -4.4847    0.9560    0.5742 C   0  0  0  0  0  0  0  0  0  0  0  0
   -3.1080    1.4201    0.2543 C   0  0  0  0  0  0  0  0  0  0  0  0
   -2.2064    0.3766   -0.1310 O   0  0  0  0  0  0  0  0  0  0  0  0
   -2.3704   -0.2357   -1.3437 C   0  0  0  0  0  0  0  0  0  0  0  0
   -3.1340    0.2701   -2.3991 C   0  0  0  0  0  0  0  0  0  0  0  0
   -3.2543   -0.4481   -3.5953 C   0  0  0  0  0  0  0  0  0  0  0  0
   -2.6180   -1.6786   -3.7504 C   0  0  0  0  0  0  0  0  0  0  0  0
   -1.8481   -2.1927   -2.7111 C   0  0  0  0  0  0  0  0  0  0  0  0
   -1.7118   -1.4630   -1.5236 C   0  0  0  0  0  0  0  0  0  0  0  0
   -0.9037   -2.0663   -0.4438 C   0  0  0  0  0  0  0  0  0  0  0  0
   -1.3528   -3.0623    0.1189 O   0  0  0  0  0  0  0  0  0  0  0  0
    0.3292   -1.5028   -0.1426 N   0  0  0  0  0  0  0  0  0  0  0  0
    1.1030   -2.0536    0.9690 C   0  0  0  0  0  0  0  0  0  0  0  0
    2.0051   -1.0078    1.6482 C   0  0  0  0  0  0  0  0  0  0  0  0
    2.8904   -0.3275    0.6818 N   0  0  0  0  0  0  0  0  0  0  0  0
    4.1070    0.2016    1.0822 C   0  0  0  0  0  0  0  0  0  0  0  0
    4.3512    0.5634    2.4170 C   0  0  0  0  0  0  0  0  0  0  0  0
    5.5725    1.1067    2.8310 C   0  0  0  0  0  0  0  0  0  0  0  0
    6.5952    1.3033    1.9111 C   0  0  0  0  0  0  0  0  0  0  0  0
    6.4025    0.9512    0.5725 C   0  0  0  0  0  0  0  0  0  0  0  0
    7.4889    1.1725   -0.4481 C   0  0  0  0  0  0  0  0  0  0  0  0
    8.7408    1.1850    0.0901 F   0  0  0  0  0  0  0  0  0  0  0  0
    7.5136    0.2158   -1.4186 F   0  0  0  0  0  0  0  0  0  0  0  0
    7.3517    2.3601   -1.1007 F   0  0  0  0  0  0  0  0  0  0  0  0
    5.1601    0.4146    0.1775 C   0  0  0  0  0  0  0  0  0  0  0  0
    2.4793   -0.3483   -0.7321 C   0  0  0  0  0  0  0  0  0  0  0  0
    0.9458   -0.3922   -0.8764 C   0  0  0  0  0  0  0  0  0  0  0  0
   -6.9547    3.3218   -0.1358 H   0  0  0  0  0  0  0  0  0  0  0  0
   -5.2804    3.7333    0.2630 H   0  0  0  0  0  0  0  0  0  0  0  0
   -5.6618    2.9782   -1.2980 H   0  0  0  0  0  0  0  0  0  0  0  0
   -3.1741   -1.1832    1.9952 H   0  0  0  0  0  0  0  0  0  0  0  0
   -4.1036   -2.1751    0.8522 H   0  0  0  0  0  0  0  0  0  0  0  0
   -4.7207   -1.8821    2.4884 H   0  0  0  0  0  0  0  0  0  0  0  0
   -3.0968    2.2278   -0.4863 H   0  0  0  0  0  0  0  0  0  0  0  0
   -2.6868    1.8585    1.1675 H   0  0  0  0  0  0  0  0  0  0  0  0
   -3.6589    1.2166   -2.3296 H   0  0  0  0  0  0  0  0  0  0  0  0
   -3.8611   -0.0492   -4.4056 H   0  0  0  0  0  0  0  0  0  0  0  0
   -2.7310   -2.2395   -4.6749 H   0  0  0  0  0  0  0  0  0  0  0  0
   -1.3624   -3.1599   -2.8163 H   0  0  0  0  0  0  0  0  0  0  0  0
    0.4311   -2.4998    1.7103 H   0  0  0  0  0  0  0  0  0  0  0  0
    1.7172   -2.8618    0.5531 H   0  0  0  0  0  0  0  0  0  0  0  0
    1.3806   -0.2541    2.1429 H   0  0  0  0  0  0  0  0  0  0  0  0
    2.5893   -1.5281    2.4167 H   0  0  0  0  0  0  0  0  0  0  0  0
    3.5742    0.4521    3.1688 H   0  0  0  0  0  0  0  0  0  0  0  0
    5.7158    1.3806    3.8734 H   0  0  0  0  0  0  0  0  0  0  0  0
    7.5408    1.7299    2.2410 H   0  0  0  0  0  0  0  0  0  0  0  0
    5.0414    0.1377   -0.8683 H   0  0  0  0  0  0  0  0  0  0  0  0
    2.9209   -1.2257   -1.2202 H   0  0  0  0  0  0  0  0  0  0  0  0
    2.8299    0.5489   -1.2558 H   0  0  0  0  0  0  0  0  0  0  0  0
    0.6790   -0.4516   -1.9361 H   0  0  0  0  0  0  0  0  0  0  0  0
    0.5169    0.5317   -0.4709 H   0  0  0  0  0  0  0  0  0  0  0  0
  1  2  1  0
  2  3  2  0
  3  4  1  0
  4  5  1  0
  5  6  1  0
  5  7  2  0
  7  8  1  0
  8  9  1  0
  9 10  1  0
 10 11  2  0
 11 12  1  0
 12 13  2  0
 13 14  1  0
 14 15  2  0
 15 16  1  0
 16 17  2  0
 16 18  1  0
 18 19  1  0
 19 20  1  0
 20 21  1  0
 21 22  1  0
 22 23  2  0
 23 24  1  0
 24 25  2  0
 25 26  1  0
 26 27  1  0
 27 28  1  0
 27 29  1  0
 27 30  1  0
 26 31  2  0
 21 32  1  0
 32 33  1  0
  7  2  1  0
 15 10  1  0
 33 18  1  0
 31 22  1  0
  1 34  1  0
  1 35  1  0
  1 36  1  0
  6 37  1  0
  6 38  1  0
  6 39  1  0
  8 40  1  0
  8 41  1  0
 11 42  1  0
 12 43  1  0
 13 44  1  0
 14 45  1  0
 19 46  1  0
 19 47  1  0
 20 48  1  0
 20 49  1  0
 23 50  1  0
 24 51  1  0
 25 52  1  0
 31 53  1  0
 32 54  1  0
 32 55  1  0
 33 56  1  0
 33 57  1  0
M  END
$$$$
