
     RDKit          3D

 55 57  0  0  0  0  0  0  0  0999 V2000
    0.4618    2.5200   -2.7799 O   0  0  0  0  0  0  0  0  0  0  0  0
    0.7544    2.1573   -1.6436 C   0  0  0  0  0  0  0  0  0  0  0  0
   -0.1646    1.6178   -0.7704 N   0  0  0  0  0  0  0  0  0  0  0  0
   -1.5716    1.5666   -1.1199 C   0  0  0  0  0  0  0  0  0  0  0  0
   -2.3326    0.6145   -0.2018 C   0  0  0  0  0  0  0  0  0  0  0  0
   -3.8160    0.5506   -0.5748 C   0  0  0  0  0  0  0  0  0  0  0  0
   -4.6356   -0.3220    0.3928 C   0  0  0  0  0  0  0  0  0  0  0  0
   -4.3502   -1.8200    0.2726 C   0  0  0  0  0  0  0  0  0  0  0  0
   -5.1862   -2.2889   -0.9142 C   0  0  0  0  0  0  0  0  0  0  0  0
   -6.3381   -1.2929   -1.0389 C   0  0  0  0  0  0  0  0  0  0  0  0
   -6.1314   -0.2671    0.0713 C   0  0  0  0  0  0  0  0  0  0  0  0
    2.1848    2.2474   -1.1346 C   0  0  0  0  0  0  0  0  0  0  0  0
    2.3146    3.0752    0.1365 C   0  0  0  0  0  0  0  0  0  0  0  0
    3.7841    3.2065    0.4931 C   0  0  0  0  0  0  0  0  0  0  0  0
    4.5273    1.8847    0.5557 C   0  0  0  0  0  0  0  0  0  0  0  0
    5.5274    1.7811    1.2665 O   0  0  0  0  0  0  0  0  0  0  0  0
    4.0909    0.8705   -0.2868 N   0  0  0  0  0  0  0  0  0  0  0  0
    4.8236   -0.3962   -0.2823 C   0  0  0  0  0  0  0  0  0  0  0  0
    4.1997   -1.4319    0.6271 C   0  0  0  0  0  0  0  0  0  0  0  0
    4.3700   -1.3505    2.0175 C   0  0  0  0  0  0  0  0  0  0  0  0
    3.7772   -2.2917    2.8620 C   0  0  0  0  0  0  0  0  0  0  0  0
    3.0091   -3.3195    2.3205 C   0  0  0  0  0  0  0  0  0  0  0  0
    2.2730   -4.4763    3.3597 Cl  0  0  0  0  0  0  0  0  0  0  0  0
    2.8300   -3.4152    0.9422 C   0  0  0  0  0  0  0  0  0  0  0  0
    3.4232   -2.4740    0.0973 C   0  0  0  0  0  0  0  0  0  0  0  0
    2.7528    0.8595   -0.8811 C   0  0  0  0  0  0  0  0  0  0  0  0
    0.0654    1.5809    0.2138 H   0  0  0  0  0  0  0  0  0  0  0  0
   -1.6667    1.2530   -2.1656 H   0  0  0  0  0  0  0  0  0  0  0  0
   -1.9662    2.5854   -1.0372 H   0  0  0  0  0  0  0  0  0  0  0  0
   -2.2257    0.9452    0.8389 H   0  0  0  0  0  0  0  0  0  0  0  0
   -1.8791   -0.3811   -0.2639 H   0  0  0  0  0  0  0  0  0  0  0  0
   -3.9160    0.1894   -1.6054 H   0  0  0  0  0  0  0  0  0  0  0  0
   -4.2245    1.5693   -0.5598 H   0  0  0  0  0  0  0  0  0  0  0  0
   -4.4582    0.0237    1.4180 H   0  0  0  0  0  0  0  0  0  0  0  0
   -3.2926   -2.0666    0.1508 H   0  0  0  0  0  0  0  0  0  0  0  0
   -4.6991   -2.3293    1.1801 H   0  0  0  0  0  0  0  0  0  0  0  0
   -4.5867   -2.2826   -1.8318 H   0  0  0  0  0  0  0  0  0  0  0  0
   -5.5472   -3.3119   -0.7669 H   0  0  0  0  0  0  0  0  0  0  0  0
   -7.3120   -1.7845   -0.9482 H   0  0  0  0  0  0  0  0  0  0  0  0
   -6.3072   -0.8076   -2.0211 H   0  0  0  0  0  0  0  0  0  0  0  0
   -6.4771    0.7300   -0.2187 H   0  0  0  0  0  0  0  0  0  0  0  0
   -6.7067   -0.5708    0.9550 H   0  0  0  0  0  0  0  0  0  0  0  0
    2.7730    2.7324   -1.9263 H   0  0  0  0  0  0  0  0  0  0  0  0
    1.7818    2.6039    0.9711 H   0  0  0  0  0  0  0  0  0  0  0  0
    1.8714    4.0680   -0.0027 H   0  0  0  0  0  0  0  0  0  0  0  0
    3.8712    3.6942    1.4708 H   0  0  0  0  0  0  0  0  0  0  0  0
    4.2990    3.8370   -0.2414 H   0  0  0  0  0  0  0  0  0  0  0  0
    5.8663   -0.2367    0.0174 H   0  0  0  0  0  0  0  0  0  0  0  0
    4.8603   -0.7640   -1.3150 H   0  0  0  0  0  0  0  0  0  0  0  0
    4.9695   -0.5495    2.4489 H   0  0  0  0  0  0  0  0  0  0  0  0
    3.9199   -2.2156    3.9365 H   0  0  0  0  0  0  0  0  0  0  0  0
    2.2318   -4.2184    0.5201 H   0  0  0  0  0  0  0  0  0  0  0  0
    3.2737   -2.5592   -0.9771 H   0  0  0  0  0  0  0  0  0  0  0  0
    2.8004    0.3038   -1.8255 H   0  0  0  0  0  0  0  0  0  0  0  0
    2.1039    0.2950   -0.2009 H   0  0  0  0  0  0  0  0  0  0  0  0
  1  2  2  0
  2  3  1  0
  3  4  1  0
  4  5  1  0
  5  6  1  0
  6  7  1  0
  7  8  1  0
  8  9  1  0
  9 10  1  0
 10 11  1  0
  2 12  1  0
 12 13  1  0
 13 14  1  0
 14 15  1  0
 15 16  2  0
 15 17  1  0
 17 18  1  0
 18 19  1  0
 19 20  2  0
 20 21  1  0
 21 22  2  0
 22 23  1  0
 22 24  1  0
 24 25  2  0
 17 26  1  0
 11  7  1  0
 26 12  1  0
 25 19  1  0
  3 27  1  0
  4 28  1  0
  4 29  1  0
  5 30  1  0
  5 31  1  0
  6 32  1  0
  6 33  1  0
  7 34  1  0
  8 35  1  0
  8 36  1  0
  9 37  1  0
  9 38  1  0
 10 39  1  0
 10 40  1  0
 11 41  1  0
 11 42  1  0
 12 43  1  0
 13 44  1  0
 13 45  1  0
 14 46  1  0
 14 47  1  0
 18 48  1  0
 18 49  1  0
 20 50  1  0
 21 51  1  0
 24 52  1  0
 25 53  1  0
 26 54  1  0
 26 55  1  0
M  END
$$$$
