
     RDKit          3D

 35 36  0  0  0  0  0  0  0  0999 V2000
   -5.8656   -0.0808   -0.3990 C   0  0  0  0  0  0  0  0  0  0  0  0
   -4.3840   -0.1255   -0.1709 C   0  0  0  0  0  0  0  0  0  0  0  0
   -3.4998    0.3337   -1.1523 C   0  0  0  0  0  0  0  0  0  0  0  0
   -2.1168    0.3228   -0.9325 C   0  0  0  0  0  0  0  0  0  0  0  0
   -1.5977   -0.1272    0.2861 C   0  0  0  0  0  0  0  0  0  0  0  0
   -0.1929   -0.1657    0.5483 N   0  0  0  0  0  0  0  0  0  0  0  0
    0.2608   -0.9483    1.5644 N   0  0  0  0  0  0  0  0  0  0  0  0
    1.5833   -0.9818    1.4119 C   0  0  0  0  0  0  0  0  0  0  0  0
    2.4038   -1.8439    2.2991 C   0  0  0  0  0  0  0  0  0  0  0  0
    2.0182   -0.1279    0.3676 C   0  0  0  0  0  0  0  0  0  0  0  0
    3.3426    0.0536   -0.0012 N   0  0  0  0  0  0  0  0  0  0  0  0
    3.8203    0.5851   -1.1837 C   0  0  0  0  0  0  0  0  0  0  0  0
    3.1412    0.9773   -2.1298 O   0  0  0  0  0  0  0  0  0  0  0  0
    5.3346    0.7155   -1.2394 C   0  0  0  0  0  0  0  0  0  0  0  0
    6.1505   -0.5507   -0.2896 Cl  0  0  0  0  0  0  0  0  0  0  0  0
    0.8651    0.4964   -0.0758 C   0  0  0  0  0  0  0  0  0  0  0  0
    0.6913    1.7002   -0.9329 C   0  0  0  0  0  0  0  0  0  0  0  0
   -2.4866   -0.5997    1.2655 C   0  0  0  0  0  0  0  0  0  0  0  0
   -3.8669   -0.5856    1.0431 C   0  0  0  0  0  0  0  0  0  0  0  0
   -6.3702   -0.8827    0.1502 H   0  0  0  0  0  0  0  0  0  0  0  0
   -6.2662    0.8819   -0.0670 H   0  0  0  0  0  0  0  0  0  0  0  0
   -6.1019   -0.2159   -1.4597 H   0  0  0  0  0  0  0  0  0  0  0  0
   -3.8808    0.6918   -2.1067 H   0  0  0  0  0  0  0  0  0  0  0  0
   -1.4798    0.6314   -1.7534 H   0  0  0  0  0  0  0  0  0  0  0  0
    2.9908   -2.5523    1.7057 H   0  0  0  0  0  0  0  0  0  0  0  0
    1.7817   -2.4196    2.9924 H   0  0  0  0  0  0  0  0  0  0  0  0
    3.0934   -1.2334    2.8909 H   0  0  0  0  0  0  0  0  0  0  0  0
    4.0289   -0.4368    0.5648 H   0  0  0  0  0  0  0  0  0  0  0  0
    5.6277    1.6918   -0.8447 H   0  0  0  0  0  0  0  0  0  0  0  0
    5.6692    0.6169   -2.2754 H   0  0  0  0  0  0  0  0  0  0  0  0
    1.5373    2.3852   -0.8133 H   0  0  0  0  0  0  0  0  0  0  0  0
    0.6106    1.4268   -1.9886 H   0  0  0  0  0  0  0  0  0  0  0  0
   -0.1917    2.2795   -0.6451 H   0  0  0  0  0  0  0  0  0  0  0  0
   -2.1183   -0.9707    2.2206 H   0  0  0  0  0  0  0  0  0  0  0  0
   -4.5324   -0.9413    1.8266 H   0  0  0  0  0  0  0  0  0  0  0  0
  1  2  1  0
  2  3  2  0
  3  4  1  0
  4  5  2  0
  5  6  1  0
  6  7  1  0
  7  8  2  0
  8  9  1  0
  8 10  1  0
 10 11  1  0
 11 12  1  0
 12 13  2  0
 12 14  1  0
 14 15  1  0
 10 16  2  0
 16 17  1  0
  5 18  1  0
 18 19  2  0
 19  2  1  0
 16  6  1  0
  1 20  1  0
  1 21  1  0
  1 22  1  0
  3 23  1  0
  4 24  1  0
  9 25  1  0
  9 26  1  0
  9 27  1  0
 11 28  1  0
 14 29  1  0
 14 30  1  0
 17 31  1  0
 17 32  1  0
 17 33  1  0
 18 34  1  0
 19 35  1  0
M  END
$$$$
