
     RDKit          3D

 49 52  0  0  0  0  0  0  0  0999 V2000
    6.0434   -0.2739   -3.5333 C   0  0  0  0  0  0  0  0  0  0  0  0
    5.0966   -0.8345   -2.5138 C   0  0  0  0  0  0  0  0  0  0  0  0
    3.8452   -1.3257   -2.9038 C   0  0  0  0  0  0  0  0  0  0  0  0
    2.9495   -1.8180   -1.9513 C   0  0  0  0  0  0  0  0  0  0  0  0
    3.2877   -1.8098   -0.5945 C   0  0  0  0  0  0  0  0  0  0  0  0
    2.3516   -2.3111    0.4141 C   0  0  0  0  0  0  0  0  0  0  0  0
    1.2321   -1.6918    0.8202 C   0  0  0  0  0  0  0  0  0  0  0  0
    0.2840   -2.2594    1.8554 C   0  0  0  0  0  0  0  0  0  0  0  0
   -0.8690   -1.2449    1.9764 C   0  0  0  0  0  0  0  0  0  0  0  0
   -0.4830   -0.1595    1.0278 C   0  0  0  0  0  0  0  0  0  0  0  0
    0.6743   -0.4272    0.4218 C   0  0  0  0  0  0  0  0  0  0  0  0
    1.3758    0.4567   -0.3893 O   0  0  0  0  0  0  0  0  0  0  0  0
    0.7624    1.6236   -0.6985 C   0  0  0  0  0  0  0  0  0  0  0  0
    1.4880    2.5898   -1.1583 N   0  0  0  0  0  0  0  0  0  0  0  0
   -0.7355    1.7453   -0.5481 C   0  0  0  0  0  0  0  0  0  0  0  0
   -1.3460    1.0919   -1.7176 C   0  0  0  0  0  0  0  0  0  0  0  0
   -1.8258    0.5645   -2.6349 N   0  0  0  0  0  0  0  0  0  0  0  0
   -1.1715    1.1488    0.8083 C   0  0  0  0  0  0  0  0  0  0  0  0
   -2.6770    1.1566    1.0278 C   0  0  0  0  0  0  0  0  0  0  0  0
   -3.5296    0.2094    0.4413 C   0  0  0  0  0  0  0  0  0  0  0  0
   -4.9107    0.2607    0.6495 C   0  0  0  0  0  0  0  0  0  0  0  0
   -5.4742    1.2669    1.4389 C   0  0  0  0  0  0  0  0  0  0  0  0
   -6.9530    1.3017    1.6856 C   0  0  0  0  0  0  0  0  0  0  0  0
   -4.6317    2.2077    2.0369 C   0  0  0  0  0  0  0  0  0  0  0  0
   -3.2507    2.1581    1.8276 C   0  0  0  0  0  0  0  0  0  0  0  0
    4.5325   -1.3118   -0.2004 C   0  0  0  0  0  0  0  0  0  0  0  0
    5.4288   -0.8212   -1.1538 C   0  0  0  0  0  0  0  0  0  0  0  0
    5.9226   -0.7783   -4.4978 H   0  0  0  0  0  0  0  0  0  0  0  0
    5.8575    0.7961   -3.6677 H   0  0  0  0  0  0  0  0  0  0  0  0
    7.0831   -0.4165   -3.2206 H   0  0  0  0  0  0  0  0  0  0  0  0
    3.5569   -1.3276   -3.9527 H   0  0  0  0  0  0  0  0  0  0  0  0
    1.9820   -2.1953   -2.2746 H   0  0  0  0  0  0  0  0  0  0  0  0
    2.6265   -3.2705    0.8465 H   0  0  0  0  0  0  0  0  0  0  0  0
    0.7877   -2.3781    2.8219 H   0  0  0  0  0  0  0  0  0  0  0  0
   -0.0999   -3.2373    1.5427 H   0  0  0  0  0  0  0  0  0  0  0  0
   -0.9492   -0.8678    3.0013 H   0  0  0  0  0  0  0  0  0  0  0  0
   -1.8170   -1.7160    1.7008 H   0  0  0  0  0  0  0  0  0  0  0  0
    2.4563    2.2389   -1.1934 H   0  0  0  0  0  0  0  0  0  0  0  0
   -0.9989    2.8111   -0.5666 H   0  0  0  0  0  0  0  0  0  0  0  0
   -0.7465    1.8017    1.5879 H   0  0  0  0  0  0  0  0  0  0  0  0
   -3.1347   -0.5857   -0.1894 H   0  0  0  0  0  0  0  0  0  0  0  0
   -5.5443   -0.4906    0.1824 H   0  0  0  0  0  0  0  0  0  0  0  0
   -7.1992    0.7041    2.5686 H   0  0  0  0  0  0  0  0  0  0  0  0
   -7.2985    2.3286    1.8453 H   0  0  0  0  0  0  0  0  0  0  0  0
   -7.5022    0.9052    0.8251 H   0  0  0  0  0  0  0  0  0  0  0  0
   -5.0461    2.9908    2.6683 H   0  0  0  0  0  0  0  0  0  0  0  0
   -2.6281    2.9141    2.3026 H   0  0  0  0  0  0  0  0  0  0  0  0
    4.8089   -1.2917    0.8509 H   0  0  0  0  0  0  0  0  0  0  0  0
    6.3887   -0.4278   -0.8271 H   0  0  0  0  0  0  0  0  0  0  0  0
  1  2  1  0
  2  3  2  0
  3  4  1  0
  4  5  2  0
  5  6  1  0
  6  7  2  3
  7  8  1  0
  8  9  1  0
  9 10  1  0
 10 11  2  0
 11 12  1  0
 12 13  1  0
 13 14  2  3
 13 15  1  0
 15 16  1  0
 16 17  3  0
 15 18  1  0
 18 19  1  0
 19 20  2  0
 20 21  1  0
 21 22  2  0
 22 23  1  0
 22 24  1  0
 24 25  2  0
  5 26  1  0
 26 27  2  0
 27  2  1  0
 11  7  1  0
 25 19  1  0
 18 10  1  0
  1 28  1  0
  1 29  1  0
  1 30  1  0
  3 31  1  0
  4 32  1  0
  6 33  1  0
  8 34  1  0
  8 35  1  0
  9 36  1  0
  9 37  1  0
 14 38  1  0
 15 39  1  0
 18 40  1  0
 20 41  1  0
 21 42  1  0
 23 43  1  0
 23 44  1  0
 23 45  1  0
 24 46  1  0
 25 47  1  0
 26 48  1  0
 27 49  1  0
M  END
$$$$
