
     RDKit          3D

 49 52  0  0  0  0  0  0  0  0999 V2000
    1.7555    2.2623    1.2574 N   0  0  0  0  0  0  0  0  0  0  0  0
    0.4435    1.9677    1.2883 C   0  0  0  0  0  0  0  0  0  0  0  0
   -0.3423    2.3964    2.2395 N   0  0  0  0  0  0  0  0  0  0  0  0
   -1.6639    1.8255    1.8965 C   0  0  0  0  0  0  0  0  0  0  0  0
   -1.5409    1.2411    0.4703 C   0  0  0  0  0  0  0  0  0  0  0  0
   -2.1503   -0.1576    0.3430 C   0  0  0  0  0  0  0  0  0  0  0  0
   -3.6602   -0.1262    0.3200 C   0  0  0  0  0  0  0  0  0  0  0  0
   -4.3396    0.2293   -0.8538 C   0  0  0  0  0  0  0  0  0  0  0  0
   -5.7357    0.2885   -0.8719 C   0  0  0  0  0  0  0  0  0  0  0  0
   -6.4536   -0.0056    0.2769 C   0  0  0  0  0  0  0  0  0  0  0  0
   -7.8127    0.0725    0.2090 O   0  0  0  0  0  0  0  0  0  0  0  0
   -5.8020   -0.3643    1.4521 C   0  0  0  0  0  0  0  0  0  0  0  0
   -4.4045   -0.4228    1.4724 C   0  0  0  0  0  0  0  0  0  0  0  0
   -0.0827    1.2145    0.2830 N   0  0  0  0  0  0  0  0  0  0  0  0
    0.4048    1.2578   -1.1009 C   0  0  0  0  0  0  0  0  0  0  0  0
    1.2169    0.0012   -1.4686 C   0  0  0  0  0  0  0  0  0  0  0  0
    2.6923   -0.0370   -1.0953 C   0  0  0  0  0  0  0  0  0  0  0  0
    3.4721    1.1163   -1.3228 C   0  0  0  0  0  0  0  0  0  0  0  0
    4.8327    1.1356   -1.0408 C   0  0  0  0  0  0  0  0  0  0  0  0
    5.4578   -0.0122   -0.5638 C   0  0  0  0  0  0  0  0  0  0  0  0
    4.7325   -1.1928   -0.3607 C   0  0  0  0  0  0  0  0  0  0  0  0
    5.4074   -2.3406    0.0926 C   0  0  0  0  0  0  0  0  0  0  0  0
    4.7325   -3.5416    0.2925 C   0  0  0  0  0  0  0  0  0  0  0  0
    3.3707   -3.6059    0.0390 C   0  0  0  0  0  0  0  0  0  0  0  0
    2.6847   -2.4708   -0.4137 C   0  0  0  0  0  0  0  0  0  0  0  0
    3.3355   -1.2291   -0.6253 C   0  0  0  0  0  0  0  0  0  0  0  0
    2.0361    2.6779    2.1392 H   0  0  0  0  0  0  0  0  0  0  0  0
    2.3366    1.4599    1.0505 H   0  0  0  0  0  0  0  0  0  0  0  0
   -1.9167    1.0672    2.6464 H   0  0  0  0  0  0  0  0  0  0  0  0
   -2.4318    2.6072    1.9361 H   0  0  0  0  0  0  0  0  0  0  0  0
   -1.9954    1.9484   -0.2422 H   0  0  0  0  0  0  0  0  0  0  0  0
   -1.8060   -0.6388   -0.5825 H   0  0  0  0  0  0  0  0  0  0  0  0
   -1.7966   -0.8104    1.1549 H   0  0  0  0  0  0  0  0  0  0  0  0
   -3.7893    0.4632   -1.7618 H   0  0  0  0  0  0  0  0  0  0  0  0
   -6.2596    0.5664   -1.7818 H   0  0  0  0  0  0  0  0  0  0  0  0
   -8.1790   -0.2636    1.0454 H   0  0  0  0  0  0  0  0  0  0  0  0
   -6.3589   -0.5890    2.3578 H   0  0  0  0  0  0  0  0  0  0  0  0
   -3.9023   -0.7007    2.3970 H   0  0  0  0  0  0  0  0  0  0  0  0
    0.9368    2.1931   -1.3008 H   0  0  0  0  0  0  0  0  0  0  0  0
   -0.4604    1.2743   -1.7787 H   0  0  0  0  0  0  0  0  0  0  0  0
    0.6845   -0.8510   -1.0406 H   0  0  0  0  0  0  0  0  0  0  0  0
    1.1789   -0.1291   -2.5599 H   0  0  0  0  0  0  0  0  0  0  0  0
    3.0303    2.0295   -1.7243 H   0  0  0  0  0  0  0  0  0  0  0  0
    5.4106    2.0411   -1.2094 H   0  0  0  0  0  0  0  0  0  0  0  0
    6.5272    0.0177   -0.3648 H   0  0  0  0  0  0  0  0  0  0  0  0
    6.4768   -2.3087    0.2866 H   0  0  0  0  0  0  0  0  0  0  0  0
    5.2699   -4.4252    0.6396 H   0  0  0  0  0  0  0  0  0  0  0  0
    2.8367   -4.5409    0.1849 H   0  0  0  0  0  0  0  0  0  0  0  0
    1.6212   -2.5909   -0.6034 H   0  0  0  0  0  0  0  0  0  0  0  0
  1  2  1  0
  2  3  2  0
  3  4  1  0
  4  5  1  0
  5  6  1  0
  6  7  1  0
  7  8  2  0
  8  9  1  0
  9 10  2  0
 10 11  1  0
 10 12  1  0
 12 13  2  0
  5 14  1  0
 14 15  1  0
 15 16  1  0
 16 17  1  0
 17 18  2  0
 18 19  1  0
 19 20  2  0
 20 21  1  0
 21 22  2  0
 22 23  1  0
 23 24  2  0
 24 25  1  0
 25 26  2  0
 14  2  1  0
 26 17  1  0
 13  7  1  0
 26 21  1  0
  1 27  1  0
  1 28  1  0
  4 29  1  0
  4 30  1  0
  5 31  1  0
  6 32  1  0
  6 33  1  0
  8 34  1  0
  9 35  1  0
 11 36  1  0
 12 37  1  0
 13 38  1  0
 15 39  1  0
 15 40  1  0
 16 41  1  0
 16 42  1  0
 18 43  1  0
 19 44  1  0
 20 45  1  0
 22 46  1  0
 23 47  1  0
 24 48  1  0
 25 49  1  0
M  END
$$$$
