
     RDKit          3D

 45 47  0  0  0  0  0  0  0  0999 V2000
   -3.7212    0.9569   -1.6449 O   0  0  0  0  0  0  0  0  0  0  0  0
   -2.7318    0.7449   -0.9479 C   0  0  0  0  0  0  0  0  0  0  0  0
   -1.3780    1.4068   -1.2257 C   0  0  0  0  0  0  0  0  0  0  0  0
   -0.5691    0.7106   -2.1717 O   0  0  0  0  0  0  0  0  0  0  0  0
    0.0027   -0.4398   -1.7089 C   0  0  0  0  0  0  0  0  0  0  0  0
   -0.2090   -0.9111   -0.5983 O   0  0  0  0  0  0  0  0  0  0  0  0
    0.8802   -1.0302   -2.7938 C   0  0  0  0  0  0  0  0  0  0  0  0
    2.1322   -2.1786   -2.1359 S   0  0  0  0  0  0  0  0  0  0  0  0
    3.0614   -1.0585   -1.1078 C   0  0  0  0  0  0  0  0  0  0  0  0
    3.0352   -1.2242    0.2775 C   0  0  0  0  0  0  0  0  0  0  0  0
    3.7387   -0.3451    1.1069 C   0  0  0  0  0  0  0  0  0  0  0  0
    4.4874    0.7077    0.5610 C   0  0  0  0  0  0  0  0  0  0  0  0
    5.1978    1.5988    1.3796 C   0  0  0  0  0  0  0  0  0  0  0  0
    5.9402    2.6399    0.8213 C   0  0  0  0  0  0  0  0  0  0  0  0
    5.9829    2.8029   -0.5600 C   0  0  0  0  0  0  0  0  0  0  0  0
    5.2837    1.9246   -1.3877 C   0  0  0  0  0  0  0  0  0  0  0  0
    4.5298    0.8713   -0.8436 C   0  0  0  0  0  0  0  0  0  0  0  0
    3.8178   -0.0224   -1.6646 C   0  0  0  0  0  0  0  0  0  0  0  0
   -2.7246   -0.0986    0.1486 N   0  0  0  0  0  0  0  0  0  0  0  0
   -3.8845   -0.9017    0.4796 C   0  0  0  0  0  0  0  0  0  0  0  0
   -5.1318   -0.0791    0.8329 C   0  0  0  0  0  0  0  0  0  0  0  0
   -5.8389   -0.8325    1.9600 C   0  0  0  0  0  0  0  0  0  0  0  0
   -5.0501   -2.1184    2.1674 C   0  0  0  0  0  0  0  0  0  0  0  0
   -3.6451   -1.7584    1.7205 C   0  0  0  0  0  0  0  0  0  0  0  0
   -0.8261    1.5628   -0.2899 H   0  0  0  0  0  0  0  0  0  0  0  0
   -1.5777    2.4055   -1.6318 H   0  0  0  0  0  0  0  0  0  0  0  0
    1.3882   -0.2278   -3.3388 H   0  0  0  0  0  0  0  0  0  0  0  0
    0.2396   -1.5756   -3.4894 H   0  0  0  0  0  0  0  0  0  0  0  0
    2.4554   -2.0274    0.7261 H   0  0  0  0  0  0  0  0  0  0  0  0
    3.6959   -0.4925    2.1836 H   0  0  0  0  0  0  0  0  0  0  0  0
    5.1789    1.4864    2.4619 H   0  0  0  0  0  0  0  0  0  0  0  0
    6.4864    3.3238    1.4672 H   0  0  0  0  0  0  0  0  0  0  0  0
    6.5623    3.6124   -0.9958 H   0  0  0  0  0  0  0  0  0  0  0  0
    5.3329    2.0673   -2.4656 H   0  0  0  0  0  0  0  0  0  0  0  0
    3.8623    0.0916   -2.7464 H   0  0  0  0  0  0  0  0  0  0  0  0
   -1.8169   -0.5384    0.3070 H   0  0  0  0  0  0  0  0  0  0  0  0
   -4.1029   -1.5458   -0.3813 H   0  0  0  0  0  0  0  0  0  0  0  0
   -5.7866    0.0252   -0.0383 H   0  0  0  0  0  0  0  0  0  0  0  0
   -4.8767    0.9324    1.1654 H   0  0  0  0  0  0  0  0  0  0  0  0
   -6.8870   -1.0350    1.7204 H   0  0  0  0  0  0  0  0  0  0  0  0
   -5.8211   -0.2275    2.8752 H   0  0  0  0  0  0  0  0  0  0  0  0
   -5.4556   -2.9151    1.5322 H   0  0  0  0  0  0  0  0  0  0  0  0
   -5.0853   -2.4625    3.2050 H   0  0  0  0  0  0  0  0  0  0  0  0
   -3.1336   -1.1848    2.5012 H   0  0  0  0  0  0  0  0  0  0  0  0
   -3.0386   -2.6412    1.5050 H   0  0  0  0  0  0  0  0  0  0  0  0
  1  2  2  0
  2  3  1  0
  3  4  1  0
  4  5  1  0
  5  6  2  0
  5  7  1  0
  7  8  1  0
  8  9  1  0
  9 10  2  0
 10 11  1  0
 11 12  2  0
 12 13  1  0
 13 14  2  0
 14 15  1  0
 15 16  2  0
 16 17  1  0
 17 18  2  0
  2 19  1  0
 19 20  1  0
 20 21  1  0
 21 22  1  0
 22 23  1  0
 23 24  1  0
 18  9  1  0
 24 20  1  0
 17 12  1  0
  3 25  1  0
  3 26  1  0
  7 27  1  0
  7 28  1  0
 10 29  1  0
 11 30  1  0
 13 31  1  0
 14 32  1  0
 15 33  1  0
 16 34  1  0
 18 35  1  0
 19 36  1  0
 20 37  1  0
 21 38  1  0
 21 39  1  0
 22 40  1  0
 22 41  1  0
 23 42  1  0
 23 43  1  0
 24 44  1  0
 24 45  1  0
M  END
$$$$
