
     RDKit          3D

 53 56  0  0  0  0  0  0  0  0999 V2000
    4.2187   -2.9341   -4.7506 C   0  0  0  0  0  0  0  0  0  0  0  0
    3.5692   -1.8221   -4.1481 O   0  0  0  0  0  0  0  0  0  0  0  0
    3.0660   -2.0058   -2.8905 C   0  0  0  0  0  0  0  0  0  0  0  0
    3.1324   -3.1775   -2.1422 C   0  0  0  0  0  0  0  0  0  0  0  0
    2.5713   -3.2299   -0.8595 C   0  0  0  0  0  0  0  0  0  0  0  0
    1.9348   -2.1127   -0.3099 C   0  0  0  0  0  0  0  0  0  0  0  0
    1.3764   -2.0754    0.9394 O   0  0  0  0  0  0  0  0  0  0  0  0
    1.2230   -3.3094    1.6266 C   0  0  0  0  0  0  0  0  0  0  0  0
    1.8684   -0.9233   -1.0550 C   0  0  0  0  0  0  0  0  0  0  0  0
    1.1699    0.3103   -0.5294 C   0  0  0  0  0  0  0  0  0  0  0  0
   -0.1898    0.4145   -1.0831 N   0  0  0  0  0  0  0  0  0  0  0  0
   -0.8613    1.5641   -0.5604 N   0  0  0  0  0  0  0  0  0  0  0  0
   -1.6533    1.4810    0.5905 C   0  0  0  0  0  0  0  0  0  0  0  0
   -1.8894    0.1584    1.2348 C   0  0  0  0  0  0  0  0  0  0  0  0
   -2.3558   -0.9371    0.5020 C   0  0  0  0  0  0  0  0  0  0  0  0
   -2.6213   -2.1443    1.1488 C   0  0  0  0  0  0  0  0  0  0  0  0
   -2.4338   -2.2565    2.5277 C   0  0  0  0  0  0  0  0  0  0  0  0
   -1.9714   -1.1652    3.2741 C   0  0  0  0  0  0  0  0  0  0  0  0
   -1.8117   -1.2738    4.7613 C   0  0  0  0  0  0  0  0  0  0  0  0
   -1.7196    0.0490    2.6214 C   0  0  0  0  0  0  0  0  0  0  0  0
   -2.1961    2.5284    1.1371 N   0  0  0  0  0  0  0  0  0  0  0  0
   -2.0136    3.7794    0.5332 C   0  0  0  0  0  0  0  0  0  0  0  0
   -2.5981    4.8999    1.1286 C   0  0  0  0  0  0  0  0  0  0  0  0
   -2.4552    6.1683    0.5583 C   0  0  0  0  0  0  0  0  0  0  0  0
   -1.7242    6.3276   -0.6186 C   0  0  0  0  0  0  0  0  0  0  0  0
   -1.1356    5.2185   -1.2242 C   0  0  0  0  0  0  0  0  0  0  0  0
   -1.2853    3.9533   -0.6430 C   0  0  0  0  0  0  0  0  0  0  0  0
   -0.6662    2.7646   -1.2504 C   0  0  0  0  0  0  0  0  0  0  0  0
   -0.0219    2.8575   -2.2953 O   0  0  0  0  0  0  0  0  0  0  0  0
    2.4348   -0.8876   -2.3438 C   0  0  0  0  0  0  0  0  0  0  0  0
    3.5270   -3.7732   -4.8797 H   0  0  0  0  0  0  0  0  0  0  0  0
    4.5566   -2.6257   -5.7446 H   0  0  0  0  0  0  0  0  0  0  0  0
    5.1018   -3.2337   -4.1768 H   0  0  0  0  0  0  0  0  0  0  0  0
    3.6151   -4.0715   -2.5224 H   0  0  0  0  0  0  0  0  0  0  0  0
    2.6558   -4.1624   -0.3114 H   0  0  0  0  0  0  0  0  0  0  0  0
    0.6828   -3.1101    2.5568 H   0  0  0  0  0  0  0  0  0  0  0  0
    0.6303   -4.0200    1.0410 H   0  0  0  0  0  0  0  0  0  0  0  0
    2.1963   -3.7320    1.8958 H   0  0  0  0  0  0  0  0  0  0  0  0
    1.1405    0.2975    0.5663 H   0  0  0  0  0  0  0  0  0  0  0  0
    1.7649    1.1926   -0.8000 H   0  0  0  0  0  0  0  0  0  0  0  0
   -0.0926    0.5749   -2.0913 H   0  0  0  0  0  0  0  0  0  0  0  0
   -2.5236   -0.8561   -0.5682 H   0  0  0  0  0  0  0  0  0  0  0  0
   -2.9827   -2.9954    0.5776 H   0  0  0  0  0  0  0  0  0  0  0  0
   -2.6567   -3.2013    3.0185 H   0  0  0  0  0  0  0  0  0  0  0  0
   -1.5246   -2.2906    5.0491 H   0  0  0  0  0  0  0  0  0  0  0  0
   -1.0256   -0.6011    5.1202 H   0  0  0  0  0  0  0  0  0  0  0  0
   -2.7519   -1.0165    5.2585 H   0  0  0  0  0  0  0  0  0  0  0  0
   -1.3911    0.9164    3.1903 H   0  0  0  0  0  0  0  0  0  0  0  0
   -3.1724    4.7787    2.0439 H   0  0  0  0  0  0  0  0  0  0  0  0
   -2.9174    7.0300    1.0339 H   0  0  0  0  0  0  0  0  0  0  0  0
   -1.6135    7.3139   -1.0628 H   0  0  0  0  0  0  0  0  0  0  0  0
   -0.5634    5.3387   -2.1413 H   0  0  0  0  0  0  0  0  0  0  0  0
    2.3826    0.0267   -2.9331 H   0  0  0  0  0  0  0  0  0  0  0  0
  1  2  1  0
  2  3  1  0
  3  4  2  0
  4  5  1  0
  5  6  2  0
  6  7  1  0
  7  8  1  0
  6  9  1  0
  9 10  1  0
 10 11  1  0
 11 12  1  0
 12 13  1  0
 13 14  1  0
 14 15  2  0
 15 16  1  0
 16 17  2  0
 17 18  1  0
 18 19  1  0
 18 20  2  0
 13 21  2  0
 21 22  1  0
 22 23  2  0
 23 24  1  0
 24 25  2  0
 25 26  1  0
 26 27  2  0
 27 28  1  0
 28 29  2  0
  9 30  2  0
 30  3  1  0
 28 12  1  0
 20 14  1  0
 27 22  1  0
  1 31  1  0
  1 32  1  0
  1 33  1  0
  4 34  1  0
  5 35  1  0
  8 36  1  0
  8 37  1  0
  8 38  1  0
 10 39  1  0
 10 40  1  0
 11 41  1  0
 15 42  1  0
 16 43  1  0
 17 44  1  0
 19 45  1  0
 19 46  1  0
 19 47  1  0
 20 48  1  0
 23 49  1  0
 24 50  1  0
 25 51  1  0
 26 52  1  0
 30 53  1  0
M  END
$$$$
