
     RDKit          3D

 50 52  0  0  0  0  0  0  0  0999 V2000
    4.4832    0.9089   -4.8045 C   0  0  0  0  0  0  0  0  0  0  0  0
    3.8001    0.9741   -3.5581 O   0  0  0  0  0  0  0  0  0  0  0  0
    4.2757    0.1768   -2.5411 C   0  0  0  0  0  0  0  0  0  0  0  0
    5.4252   -0.6157   -2.6182 C   0  0  0  0  0  0  0  0  0  0  0  0
    5.8150   -1.3901   -1.5242 C   0  0  0  0  0  0  0  0  0  0  0  0
    5.0597   -1.3779   -0.3540 C   0  0  0  0  0  0  0  0  0  0  0  0
    3.9131   -0.5854   -0.2651 C   0  0  0  0  0  0  0  0  0  0  0  0
    3.5147    0.1966   -1.3506 C   0  0  0  0  0  0  0  0  0  0  0  0
    2.3748    1.0307   -1.3393 N   0  0  0  0  0  0  0  0  0  0  0  0
    1.4628    1.2289   -0.3179 C   0  0  0  0  0  0  0  0  0  0  0  0
    1.4878    0.6972    0.7883 O   0  0  0  0  0  0  0  0  0  0  0  0
    0.3911    2.2629   -0.6941 C   0  0  0  0  0  0  0  0  0  0  0  0
   -0.8025    2.1615    0.0757 O   0  0  0  0  0  0  0  0  0  0  0  0
   -1.6099    1.1402   -0.3098 C   0  0  0  0  0  0  0  0  0  0  0  0
   -1.4706    0.4234   -1.2863 O   0  0  0  0  0  0  0  0  0  0  0  0
   -2.7513    1.0936    0.6231 C   0  0  0  0  0  0  0  0  0  0  0  0
   -3.6565    2.1656    0.5966 C   0  0  0  0  0  0  0  0  0  0  0  0
   -4.7391    2.1616    1.4795 C   0  0  0  0  0  0  0  0  0  0  0  0
   -5.6901    3.2791    1.4681 N   0  0  0  0  0  4  0  0  0  0  0  0
   -5.5215    4.1688    0.6214 O   0  0  0  0  0  0  0  0  0  0  0  0
   -6.6060    3.2669    2.3044 O   0  0  0  0  0  1  0  0  0  0  0  0
   -4.9236    1.1008    2.3732 C   0  0  0  0  0  0  0  0  0  0  0  0
   -4.0101    0.0393    2.3843 C   0  0  0  0  0  0  0  0  0  0  0  0
   -2.9018    0.0145    1.5182 C   0  0  0  0  0  0  0  0  0  0  0  0
   -1.9878   -1.0347    1.5319 N   0  0  0  0  0  0  0  0  0  0  0  0
   -1.4320   -1.5046    2.8087 C   0  0  0  0  0  0  0  0  0  0  0  0
   -1.5816   -3.0221    2.7651 C   0  0  0  0  0  0  0  0  0  0  0  0
   -1.5369   -3.3313    1.2784 C   0  0  0  0  0  0  0  0  0  0  0  0
   -2.3415   -2.1820    0.6827 C   0  0  0  0  0  0  0  0  0  0  0  0
    5.4998    1.3069   -4.7176 H   0  0  0  0  0  0  0  0  0  0  0  0
    4.4884   -0.1095   -5.2043 H   0  0  0  0  0  0  0  0  0  0  0  0
    3.9388    1.5409   -5.5129 H   0  0  0  0  0  0  0  0  0  0  0  0
    6.0378   -0.6557   -3.5121 H   0  0  0  0  0  0  0  0  0  0  0  0
    6.7077   -2.0082   -1.5859 H   0  0  0  0  0  0  0  0  0  0  0  0
    5.3610   -1.9843    0.4969 H   0  0  0  0  0  0  0  0  0  0  0  0
    3.3501   -0.6027    0.6628 H   0  0  0  0  0  0  0  0  0  0  0  0
    2.2237    1.5104   -2.2216 H   0  0  0  0  0  0  0  0  0  0  0  0
    0.8189    3.2519   -0.4944 H   0  0  0  0  0  0  0  0  0  0  0  0
    0.1635    2.2230   -1.7658 H   0  0  0  0  0  0  0  0  0  0  0  0
   -3.4992    2.9830   -0.1045 H   0  0  0  0  0  0  0  0  0  0  0  0
   -5.7653    1.0805    3.0634 H   0  0  0  0  0  0  0  0  0  0  0  0
   -4.1770   -0.7839    3.0772 H   0  0  0  0  0  0  0  0  0  0  0  0
   -0.3719   -1.2289    2.8429 H   0  0  0  0  0  0  0  0  0  0  0  0
   -1.9115   -1.0851    3.6983 H   0  0  0  0  0  0  0  0  0  0  0  0
   -0.7988   -3.5353    3.3300 H   0  0  0  0  0  0  0  0  0  0  0  0
   -2.5529   -3.3162    3.1796 H   0  0  0  0  0  0  0  0  0  0  0  0
   -1.9602   -4.3107    1.0336 H   0  0  0  0  0  0  0  0  0  0  0  0
   -0.5008   -3.2997    0.9167 H   0  0  0  0  0  0  0  0  0  0  0  0
   -2.0786   -2.0125   -0.3646 H   0  0  0  0  0  0  0  0  0  0  0  0
   -3.4139   -2.4111    0.7458 H   0  0  0  0  0  0  0  0  0  0  0  0
  1  2  1  0
  2  3  1  0
  3  4  2  0
  4  5  1  0
  5  6  2  0
  6  7  1  0
  7  8  2  0
  8  9  1  0
  9 10  1  0
 10 11  2  0
 10 12  1  0
 12 13  1  0
 13 14  1  0
 14 15  2  0
 14 16  1  0
 16 17  2  0
 17 18  1  0
 18 19  1  0
 19 20  2  0
 19 21  1  0
 18 22  2  0
 22 23  1  0
 23 24  2  0
 24 25  1  0
 25 26  1  0
 26 27  1  0
 27 28  1  0
 28 29  1  0
  8  3  1  0
 24 16  1  0
 29 25  1  0
  1 30  1  0
  1 31  1  0
  1 32  1  0
  4 33  1  0
  5 34  1  0
  6 35  1  0
  7 36  1  0
  9 37  1  0
 12 38  1  0
 12 39  1  0
 17 40  1  0
 22 41  1  0
 23 42  1  0
 26 43  1  0
 26 44  1  0
 27 45  1  0
 27 46  1  0
 28 47  1  0
 28 48  1  0
 29 49  1  0
 29 50  1  0
M  CHG  2  19   1  21  -1
M  END
$$$$
