
     RDKit          3D

 44 46  0  0  0  0  0  0  0  0999 V2000
    4.9206   -0.6826   -1.5816 C   0  0  0  0  0  0  0  0  0  0  0  0
    4.6424    0.4915   -0.6273 C   0  0  0  0  0  0  0  0  0  0  0  0
    3.8337    1.5750   -1.3521 C   0  0  0  0  0  0  0  0  0  0  0  0
    5.9869    1.1018   -0.1933 C   0  0  0  0  0  0  0  0  0  0  0  0
    3.9051   -0.0631    0.6132 C   0  0  0  0  0  0  0  0  0  0  0  0
    4.5052   -0.2608    1.6769 O   0  0  0  0  0  0  0  0  0  0  0  0
    2.4417   -0.4470    0.4874 C   0  0  0  0  0  0  0  0  0  0  0  0
    1.3893    0.9062    1.0963 S   0  0  0  0  0  0  0  0  0  0  0  0
   -0.2382    0.2133    0.7884 C   0  0  0  0  0  0  0  0  0  0  0  0
   -0.2554   -1.1102    0.4764 N   0  0  0  0  0  0  0  0  0  0  0  0
   -1.4607   -1.6580    0.2731 C   0  0  0  0  0  0  0  0  0  0  0  0
   -2.6641   -0.9701    0.3408 C   0  0  0  0  0  0  0  0  0  0  0  0
   -2.6561    0.3884    0.6358 C   0  0  0  0  0  0  0  0  0  0  0  0
   -3.9184    1.1309    0.6686 C   0  0  0  0  0  0  0  0  0  0  0  0
   -4.6984    1.5516   -0.3935 C   0  0  0  0  0  0  0  0  0  0  0  0
   -5.8659    2.2430    0.0370 C   0  0  0  0  0  0  0  0  0  0  0  0
   -5.9481    2.3108    1.4119 C   0  0  0  0  0  0  0  0  0  0  0  0
   -4.6245    1.5413    2.1743 S   0  0  0  0  0  0  0  0  0  0  0  0
   -1.4064    1.0003    0.8709 C   0  0  0  0  0  0  0  0  0  0  0  0
   -1.3272    2.4040    1.1544 C   0  0  0  0  0  0  0  0  0  0  0  0
   -1.2753    3.5424    1.3746 N   0  0  0  0  0  0  0  0  0  0  0  0
   -3.8098   -1.8804    0.0244 C   0  0  0  0  0  0  0  0  0  0  0  0
   -3.1628   -3.2642    0.2197 C   0  0  0  0  0  0  0  0  0  0  0  0
   -1.6711   -3.1004   -0.0991 C   0  0  0  0  0  0  0  0  0  0  0  0
    3.9925   -1.1250   -1.9559 H   0  0  0  0  0  0  0  0  0  0  0  0
    5.4792   -1.4808   -1.0743 H   0  0  0  0  0  0  0  0  0  0  0  0
    5.5066   -0.3617   -2.4515 H   0  0  0  0  0  0  0  0  0  0  0  0
    4.3888    1.9729   -2.2079 H   0  0  0  0  0  0  0  0  0  0  0  0
    3.6021    2.4108   -0.6854 H   0  0  0  0  0  0  0  0  0  0  0  0
    2.8877    1.1896   -1.7409 H   0  0  0  0  0  0  0  0  0  0  0  0
    5.8393    1.9093    0.5366 H   0  0  0  0  0  0  0  0  0  0  0  0
    6.5302    1.5126   -1.0532 H   0  0  0  0  0  0  0  0  0  0  0  0
    6.6347    0.3498    0.2715 H   0  0  0  0  0  0  0  0  0  0  0  0
    2.2850   -1.3582    1.0789 H   0  0  0  0  0  0  0  0  0  0  0  0
    2.2058   -0.6859   -0.5544 H   0  0  0  0  0  0  0  0  0  0  0  0
   -4.4403    1.3740   -1.4324 H   0  0  0  0  0  0  0  0  0  0  0  0
   -6.6128    2.6661   -0.6252 H   0  0  0  0  0  0  0  0  0  0  0  0
   -6.7216    2.7775    2.0026 H   0  0  0  0  0  0  0  0  0  0  0  0
   -4.6598   -1.7484    0.7029 H   0  0  0  0  0  0  0  0  0  0  0  0
   -4.1282   -1.7407   -1.0146 H   0  0  0  0  0  0  0  0  0  0  0  0
   -3.6363   -4.0365   -0.3925 H   0  0  0  0  0  0  0  0  0  0  0  0
   -3.2752   -3.5699    1.2712 H   0  0  0  0  0  0  0  0  0  0  0  0
   -1.4695   -3.2434   -1.1690 H   0  0  0  0  0  0  0  0  0  0  0  0
   -1.0507   -3.7755    0.4959 H   0  0  0  0  0  0  0  0  0  0  0  0
  1  2  1  0
  2  3  1  0
  2  4  1  0
  2  5  1  0
  5  6  2  0
  5  7  1  0
  7  8  1  0
  8  9  1  0
  9 10  2  0
 10 11  1  0
 11 12  2  0
 12 13  1  0
 13 14  1  0
 14 15  2  0
 15 16  1  0
 16 17  2  0
 17 18  1  0
 13 19  2  0
 19 20  1  0
 20 21  3  0
 12 22  1  0
 22 23  1  0
 23 24  1  0
 19  9  1  0
 24 11  1  0
 18 14  1  0
  1 25  1  0
  1 26  1  0
  1 27  1  0
  3 28  1  0
  3 29  1  0
  3 30  1  0
  4 31  1  0
  4 32  1  0
  4 33  1  0
  7 34  1  0
  7 35  1  0
 15 36  1  0
 16 37  1  0
 17 38  1  0
 22 39  1  0
 22 40  1  0
 23 41  1  0
 23 42  1  0
 24 43  1  0
 24 44  1  0
M  END
$$$$
