
     RDKit          3D

 61 61  0  0  0  0  0  0  0  0999 V2000
    8.9655    0.2190   -1.5656 C   0  0  0  0  0  0  0  0  0  0  0  0
    8.1117    0.6550   -0.3845 C   0  0  0  0  0  0  0  0  0  0  0  0
    7.5971   -0.5486    0.4052 C   0  0  0  0  0  0  0  0  0  0  0  0
    6.8241   -0.1635    1.6703 C   0  0  0  0  0  0  0  0  0  0  0  0
    5.5782    0.7012    1.4551 C   0  0  0  0  0  0  0  0  0  0  0  0
    4.5263    0.0419    0.5607 C   0  0  0  0  0  0  0  0  0  0  0  0
    3.2573    0.8946    0.4758 C   0  0  0  0  0  0  0  0  0  0  0  0
    2.2079    0.2366   -0.4228 C   0  0  0  0  0  0  0  0  0  0  0  0
    0.9596    1.0983   -0.6371 C   0  0  0  0  0  0  0  0  0  0  0  0
    0.1554    1.3316    0.6458 C   0  0  0  0  0  0  0  0  0  0  0  0
   -1.1660    2.0680    0.3945 C   0  0  0  0  0  0  0  0  0  0  0  0
   -2.3960    1.1563    0.3057 C   0  0  0  0  0  0  0  0  0  0  0  0
   -2.3736    0.1914   -0.8802 C   0  0  0  0  0  0  0  0  0  0  0  0
   -3.7059   -0.5356   -1.0937 C   0  0  0  0  0  0  0  0  0  0  0  0
   -4.0800   -1.4664    0.0628 C   0  0  0  0  0  0  0  0  0  0  0  0
   -5.3211   -2.3024   -0.2408 C   0  0  0  0  0  0  0  0  0  0  0  0
   -6.5244   -1.4771   -0.3857 N   0  0  0  0  0  0  0  0  0  0  0  0
   -7.2005   -1.2178   -1.5682 C   0  0  0  0  0  0  0  0  0  0  0  0
   -8.2583   -0.4141   -1.2497 C   0  0  0  0  0  0  0  0  0  0  0  0
   -8.2090   -0.2125    0.1196 N   0  0  0  0  0  4  0  0  0  0  0  0
   -9.1397    0.5931    0.8991 C   0  0  0  0  0  0  0  0  0  0  0  0
   -7.1544   -0.8653    0.6294 C   0  0  0  0  0  0  0  0  0  0  0  0
    9.8391   -0.3490   -1.2304 H   0  0  0  0  0  0  0  0  0  0  0  0
    8.3906   -0.4084   -2.2543 H   0  0  0  0  0  0  0  0  0  0  0  0
    9.3214    1.0935   -2.1193 H   0  0  0  0  0  0  0  0  0  0  0  0
    7.2732    1.2504   -0.7609 H   0  0  0  0  0  0  0  0  0  0  0  0
    8.7063    1.3033    0.2692 H   0  0  0  0  0  0  0  0  0  0  0  0
    6.9734   -1.1781   -0.2397 H   0  0  0  0  0  0  0  0  0  0  0  0
    8.4498   -1.1701    0.7064 H   0  0  0  0  0  0  0  0  0  0  0  0
    7.5010    0.3687    2.3504 H   0  0  0  0  0  0  0  0  0  0  0  0
    6.5300   -1.0847    2.1891 H   0  0  0  0  0  0  0  0  0  0  0  0
    5.1353    0.9059    2.4381 H   0  0  0  0  0  0  0  0  0  0  0  0
    5.8629    1.6745    1.0393 H   0  0  0  0  0  0  0  0  0  0  0  0
    4.9289   -0.1012   -0.4484 H   0  0  0  0  0  0  0  0  0  0  0  0
    4.2760   -0.9499    0.9563 H   0  0  0  0  0  0  0  0  0  0  0  0
    2.8528    1.0354    1.4844 H   0  0  0  0  0  0  0  0  0  0  0  0
    3.5081    1.8873    0.0828 H   0  0  0  0  0  0  0  0  0  0  0  0
    1.9161   -0.7336   -0.0026 H   0  0  0  0  0  0  0  0  0  0  0  0
    2.6541    0.0335   -1.4043 H   0  0  0  0  0  0  0  0  0  0  0  0
    1.2522    2.0646   -1.0661 H   0  0  0  0  0  0  0  0  0  0  0  0
    0.3345    0.6031   -1.3868 H   0  0  0  0  0  0  0  0  0  0  0  0
   -0.0251    0.3836    1.1656 H   0  0  0  0  0  0  0  0  0  0  0  0
    0.7576    1.9509    1.3214 H   0  0  0  0  0  0  0  0  0  0  0  0
   -1.0977    2.6984   -0.5001 H   0  0  0  0  0  0  0  0  0  0  0  0
   -1.3359    2.7502    1.2377 H   0  0  0  0  0  0  0  0  0  0  0  0
   -3.2855    1.7946    0.2325 H   0  0  0  0  0  0  0  0  0  0  0  0
   -2.4887    0.5950    1.2427 H   0  0  0  0  0  0  0  0  0  0  0  0
   -2.1401    0.7497   -1.7949 H   0  0  0  0  0  0  0  0  0  0  0  0
   -1.5805   -0.5523   -0.7434 H   0  0  0  0  0  0  0  0  0  0  0  0
   -4.4991    0.2043   -1.2522 H   0  0  0  0  0  0  0  0  0  0  0  0
   -3.6309   -1.1226   -2.0175 H   0  0  0  0  0  0  0  0  0  0  0  0
   -3.2437   -2.1447    0.2689 H   0  0  0  0  0  0  0  0  0  0  0  0
   -4.2545   -0.8808    0.9719 H   0  0  0  0  0  0  0  0  0  0  0  0
   -5.1796   -2.8927   -1.1531 H   0  0  0  0  0  0  0  0  0  0  0  0
   -5.5054   -3.0062    0.5792 H   0  0  0  0  0  0  0  0  0  0  0  0
   -6.8339   -1.6373   -2.4893 H   0  0  0  0  0  0  0  0  0  0  0  0
   -9.0466    0.0435   -1.8224 H   0  0  0  0  0  0  0  0  0  0  0  0
   -9.1581    0.2349    1.9322 H   0  0  0  0  0  0  0  0  0  0  0  0
  -10.1437    0.5125    0.4733 H   0  0  0  0  0  0  0  0  0  0  0  0
   -8.8080    1.6346    0.8758 H   0  0  0  0  0  0  0  0  0  0  0  0
   -6.8609   -0.8919    1.6726 H   0  0  0  0  0  0  0  0  0  0  0  0
  1  2  1  0
  2  3  1  0
  3  4  1  0
  4  5  1  0
  5  6  1  0
  6  7  1  0
  7  8  1  0
  8  9  1  0
  9 10  1  0
 10 11  1  0
 11 12  1  0
 12 13  1  0
 13 14  1  0
 14 15  1  0
 15 16  1  0
 16 17  1  0
 17 18  1  0
 18 19  2  0
 19 20  1  0
 20 21  1  0
 20 22  2  0
 22 17  1  0
  1 23  1  0
  1 24  1  0
  1 25  1  0
  2 26  1  0
  2 27  1  0
  3 28  1  0
  3 29  1  0
  4 30  1  0
  4 31  1  0
  5 32  1  0
  5 33  1  0
  6 34  1  0
  6 35  1  0
  7 36  1  0
  7 37  1  0
  8 38  1  0
  8 39  1  0
  9 40  1  0
  9 41  1  0
 10 42  1  0
 10 43  1  0
 11 44  1  0
 11 45  1  0
 12 46  1  0
 12 47  1  0
 13 48  1  0
 13 49  1  0
 14 50  1  0
 14 51  1  0
 15 52  1  0
 15 53  1  0
 16 54  1  0
 16 55  1  0
 18 56  1  0
 19 57  1  0
 21 58  1  0
 21 59  1  0
 21 60  1  0
 22 61  1  0
M  CHG  1  20   1
M  END
$$$$
