
     RDKit          3D

 39 40  0  0  0  0  0  0  0  0999 V2000
    2.4234   -1.8908   -0.5160 C   0  0  0  0  0  0  0  0  0  0  0  0
    1.5473   -1.2847    0.5754 C   0  0  0  0  0  0  0  0  0  0  0  0
    1.0685    0.1541    0.3107 C   0  0  0  0  0  0  0  0  0  0  0  0
    2.4339    1.3613    0.1136 S   0  0  0  0  0  0  0  0  0  0  0  0
    2.9428    1.5655    1.7494 C   0  0  0  0  0  0  0  0  0  0  0  0
    2.3805    1.0589    2.8228 N   0  0  0  0  0  0  0  0  0  0  0  0
    3.1090    1.4768    3.9141 N   0  0  0  0  0  0  0  0  0  0  0  0
    4.0904    2.2294    3.4707 C   0  0  0  0  0  0  0  0  0  0  0  0
    4.0240    2.3145    2.1121 N   0  0  0  0  0  0  0  0  0  0  0  0
    4.9241    3.0495    1.2654 C   0  0  0  0  0  0  0  0  0  0  0  0
    0.1362    0.1938   -0.9148 C   0  0  0  0  0  0  0  0  0  0  0  0
    0.5100    0.5551   -2.0274 O   0  0  0  0  0  0  0  0  0  0  0  0
   -1.1386   -0.2585   -0.6088 N   0  0  0  0  0  0  0  0  0  0  0  0
   -2.2551   -0.3950   -1.4641 C   0  0  0  0  0  0  0  0  0  0  0  0
   -2.2351   -0.0793   -2.8236 C   0  0  0  0  0  0  0  0  0  0  0  0
   -3.3840   -0.2441   -3.6004 C   0  0  0  0  0  0  0  0  0  0  0  0
   -4.5568   -0.7247   -3.0239 C   0  0  0  0  0  0  0  0  0  0  0  0
   -4.5900   -1.0444   -1.6654 C   0  0  0  0  0  0  0  0  0  0  0  0
   -3.4452   -0.8825   -0.8795 C   0  0  0  0  0  0  0  0  0  0  0  0
   -3.3655   -1.1672    0.4656 O   0  0  0  0  0  0  0  0  0  0  0  0
   -4.5488   -1.6434    1.0956 C   0  0  0  0  0  0  0  0  0  0  0  0
    3.3668   -1.3492   -0.6288 H   0  0  0  0  0  0  0  0  0  0  0  0
    1.9104   -1.9018   -1.4822 H   0  0  0  0  0  0  0  0  0  0  0  0
    2.6694   -2.9267   -0.2600 H   0  0  0  0  0  0  0  0  0  0  0  0
    0.6733   -1.9359    0.7034 H   0  0  0  0  0  0  0  0  0  0  0  0
    2.0933   -1.3283    1.5251 H   0  0  0  0  0  0  0  0  0  0  0  0
    0.4676    0.4893    1.1656 H   0  0  0  0  0  0  0  0  0  0  0  0
    4.8436    2.7151    4.0749 H   0  0  0  0  0  0  0  0  0  0  0  0
    5.4066    2.3533    0.5748 H   0  0  0  0  0  0  0  0  0  0  0  0
    4.3557    3.8070    0.7197 H   0  0  0  0  0  0  0  0  0  0  0  0
    5.6853    3.5386    1.8792 H   0  0  0  0  0  0  0  0  0  0  0  0
   -1.3384   -0.5300    0.3502 H   0  0  0  0  0  0  0  0  0  0  0  0
   -1.3413    0.2978   -3.3097 H   0  0  0  0  0  0  0  0  0  0  0  0
   -3.3581    0.0050   -4.6585 H   0  0  0  0  0  0  0  0  0  0  0  0
   -5.4476   -0.8507   -3.6344 H   0  0  0  0  0  0  0  0  0  0  0  0
   -5.5224   -1.4164   -1.2550 H   0  0  0  0  0  0  0  0  0  0  0  0
   -4.8648   -2.6009    0.6688 H   0  0  0  0  0  0  0  0  0  0  0  0
   -4.3194   -1.8105    2.1524 H   0  0  0  0  0  0  0  0  0  0  0  0
   -5.3510   -0.9000    1.0432 H   0  0  0  0  0  0  0  0  0  0  0  0
  1  2  1  0
  2  3  1  0
  3  4  1  0
  4  5  1  0
  5  6  2  0
  6  7  1  0
  7  8  2  0
  8  9  1  0
  9 10  1  0
  3 11  1  0
 11 12  2  0
 11 13  1  0
 13 14  1  0
 14 15  2  0
 15 16  1  0
 16 17  2  0
 17 18  1  0
 18 19  2  0
 19 20  1  0
 20 21  1  0
  9  5  1  0
 19 14  1  0
  1 22  1  0
  1 23  1  0
  1 24  1  0
  2 25  1  0
  2 26  1  0
  3 27  1  0
  8 28  1  0
 10 29  1  0
 10 30  1  0
 10 31  1  0
 13 32  1  0
 15 33  1  0
 16 34  1  0
 17 35  1  0
 18 36  1  0
 21 37  1  0
 21 38  1  0
 21 39  1  0
M  END
$$$$
