
     RDKit          3D

 72 77  0  0  0  0  0  0  0  0999 V2000
    6.6197    1.2561   -0.2803 O   0  0  0  0  0  0  0  0  0  0  0  0
    5.5644    1.1425   -0.9020 C   0  0  0  0  0  0  0  0  0  0  0  0
    4.8586    2.3541   -1.4950 C   0  0  0  0  0  0  0  0  0  0  0  0
    3.0506    2.1790   -1.5814 S   0  0  0  0  0  0  0  0  0  0  0  0
    2.6507    1.9592    0.1225 C   0  0  0  0  0  0  0  0  0  0  0  0
    3.5455    2.3215    0.9978 N   0  0  0  0  0  0  0  0  0  0  0  0
    3.3027    2.1452    2.3768 C   0  0  0  0  0  0  0  0  0  0  0  0
    4.2885    2.5222    3.2899 C   0  0  0  0  0  0  0  0  0  0  0  0
    4.0799    2.3572    4.6618 C   0  0  0  0  0  0  0  0  0  0  0  0
    2.8830    1.8118    5.1292 C   0  0  0  0  0  0  0  0  0  0  0  0
    1.8907    1.4279    4.2263 C   0  0  0  0  0  0  0  0  0  0  0  0
    2.1028    1.5939    2.8555 C   0  0  0  0  0  0  0  0  0  0  0  0
    1.1209    1.2159    1.8582 C   0  0  0  0  0  0  0  0  0  0  0  0
   -0.0686    0.6824    2.0324 N   0  0  0  0  0  0  0  0  0  0  0  0
   -0.6013    0.5331    0.7688 C   0  0  0  0  0  0  0  0  0  0  0  0
   -1.9491   -0.1086    0.6603 C   0  0  0  0  0  0  0  0  0  0  0  0
   -2.7718    0.2217   -0.5757 C   0  0  0  0  0  0  0  0  0  0  0  0
   -2.3434    0.9428   -1.4826 O   0  0  0  0  0  0  0  0  0  0  0  0
   -4.0387   -0.3424   -0.6602 N   0  0  0  0  0  0  0  0  0  0  0  0
   -4.6630   -1.2233    0.3418 C   0  0  0  0  0  0  0  0  0  0  0  0
   -6.1570   -0.8996    0.5416 C   0  0  0  0  0  0  0  0  0  0  0  0
   -6.9151   -0.9215   -0.7338 N   0  0  0  0  0  0  0  0  0  0  0  0
   -8.1028   -0.1778   -0.6897 C   0  0  0  0  0  0  0  0  0  0  0  0
   -8.3994    0.8641   -1.5806 C   0  0  0  0  0  0  0  0  0  0  0  0
   -9.5961    1.5863   -1.4903 C   0  0  0  0  0  0  0  0  0  0  0  0
  -10.5274    1.2793   -0.5048 C   0  0  0  0  0  0  0  0  0  0  0  0
  -10.2647    0.2463    0.3872 C   0  0  0  0  0  0  0  0  0  0  0  0
   -9.0671   -0.4700    0.2920 C   0  0  0  0  0  0  0  0  0  0  0  0
   -6.0980   -0.9423   -1.9641 C   0  0  0  0  0  0  0  0  0  0  0  0
   -4.8597   -0.0399   -1.8425 C   0  0  0  0  0  0  0  0  0  0  0  0
    0.3026    0.9819   -0.1841 C   0  0  0  0  0  0  0  0  0  0  0  0
    0.2291    1.0567   -1.5088 O   0  0  0  0  0  0  0  0  0  0  0  0
    1.4154    1.4096    0.5234 N   0  0  0  0  0  0  0  0  0  0  0  0
    4.9992   -0.0817   -1.1875 N   0  0  0  0  0  0  0  0  0  0  0  0
    5.4967   -1.3253   -0.6304 C   0  0  0  0  0  0  0  0  0  0  0  0
    6.5839   -1.9922   -1.4775 C   0  0  0  0  0  0  0  0  0  0  0  0
    7.9463   -1.3180   -1.4201 C   0  0  0  0  0  0  0  0  0  0  0  0
    8.8723   -2.4688   -1.7221 C   0  0  0  0  0  0  0  0  0  0  0  0
    8.2003   -3.6050   -0.9826 C   0  0  0  0  0  0  0  0  0  0  0  0
    6.7892   -3.3504   -1.0267 O   0  0  0  0  0  0  0  0  0  0  0  0
    5.1144    3.2432   -0.9094 H   0  0  0  0  0  0  0  0  0  0  0  0
    5.2415    2.4975   -2.5104 H   0  0  0  0  0  0  0  0  0  0  0  0
    5.2236    2.9426    2.9275 H   0  0  0  0  0  0  0  0  0  0  0  0
    4.8536    2.6557    5.3654 H   0  0  0  0  0  0  0  0  0  0  0  0
    2.7243    1.6842    6.1968 H   0  0  0  0  0  0  0  0  0  0  0  0
    0.9586    1.0004    4.5883 H   0  0  0  0  0  0  0  0  0  0  0  0
   -2.5282    0.2036    1.5382 H   0  0  0  0  0  0  0  0  0  0  0  0
   -1.8102   -1.1960    0.6992 H   0  0  0  0  0  0  0  0  0  0  0  0
   -4.1473   -1.1687    1.3039 H   0  0  0  0  0  0  0  0  0  0  0  0
   -4.5449   -2.2500   -0.0285 H   0  0  0  0  0  0  0  0  0  0  0  0
   -6.5841   -1.6275    1.2404 H   0  0  0  0  0  0  0  0  0  0  0  0
   -6.2249    0.0965    0.9989 H   0  0  0  0  0  0  0  0  0  0  0  0
   -7.6969    1.1618   -2.3520 H   0  0  0  0  0  0  0  0  0  0  0  0
   -9.7947    2.3942   -2.1902 H   0  0  0  0  0  0  0  0  0  0  0  0
  -11.4559    1.8400   -0.4347 H   0  0  0  0  0  0  0  0  0  0  0  0
  -10.9895   -0.0096    1.1551 H   0  0  0  0  0  0  0  0  0  0  0  0
   -8.9015   -1.2899    0.9870 H   0  0  0  0  0  0  0  0  0  0  0  0
   -5.7637   -1.9781   -2.1145 H   0  0  0  0  0  0  0  0  0  0  0  0
   -6.6754   -0.6987   -2.8635 H   0  0  0  0  0  0  0  0  0  0  0  0
   -4.2376   -0.1416   -2.7384 H   0  0  0  0  0  0  0  0  0  0  0  0
   -5.1595    1.0115   -1.7647 H   0  0  0  0  0  0  0  0  0  0  0  0
   -0.7242    1.0293   -1.7576 H   0  0  0  0  0  0  0  0  0  0  0  0
    4.1234   -0.0958   -1.6993 H   0  0  0  0  0  0  0  0  0  0  0  0
    5.8496   -1.1557    0.3930 H   0  0  0  0  0  0  0  0  0  0  0  0
    4.6352   -1.9980   -0.5537 H   0  0  0  0  0  0  0  0  0  0  0  0
    6.2483   -2.0588   -2.5209 H   0  0  0  0  0  0  0  0  0  0  0  0
    8.0416   -0.4899   -2.1286 H   0  0  0  0  0  0  0  0  0  0  0  0
    8.1576   -0.9395   -0.4122 H   0  0  0  0  0  0  0  0  0  0  0  0
    9.9036   -2.3005   -1.3993 H   0  0  0  0  0  0  0  0  0  0  0  0
    8.8757   -2.6712   -2.8005 H   0  0  0  0  0  0  0  0  0  0  0  0
    8.5038   -3.6275    0.0701 H   0  0  0  0  0  0  0  0  0  0  0  0
    8.4141   -4.5812   -1.4274 H   0  0  0  0  0  0  0  0  0  0  0  0
  1  2  2  0
  2  3  1  0
  3  4  1  0
  4  5  1  0
  5  6  2  0
  6  7  1  0
  7  8  2  0
  8  9  1  0
  9 10  2  0
 10 11  1  0
 11 12  2  0
 12 13  1  0
 13 14  2  0
 14 15  1  0
 15 16  1  0
 16 17  1  0
 17 18  2  0
 17 19  1  0
 19 20  1  0
 20 21  1  0
 21 22  1  0
 22 23  1  0
 23 24  2  0
 24 25  1  0
 25 26  2  0
 26 27  1  0
 27 28  2  0
 22 29  1  0
 29 30  1  0
 15 31  2  0
 31 32  1  0
 31 33  1  0
  2 34  1  0
 34 35  1  0
 35 36  1  0
 36 37  1  0
 37 38  1  0
 38 39  1  0
 39 40  1  0
 33  5  1  0
 40 36  1  0
 12  7  1  0
 33 13  1  0
 30 19  1  0
 28 23  1  0
  3 41  1  0
  3 42  1  0
  8 43  1  0
  9 44  1  0
 10 45  1  0
 11 46  1  0
 16 47  1  0
 16 48  1  0
 20 49  1  0
 20 50  1  0
 21 51  1  0
 21 52  1  0
 24 53  1  0
 25 54  1  0
 26 55  1  0
 27 56  1  0
 28 57  1  0
 29 58  1  0
 29 59  1  0
 30 60  1  0
 30 61  1  0
 32 62  1  0
 34 63  1  0
 35 64  1  0
 35 65  1  0
 36 66  1  0
 37 67  1  0
 37 68  1  0
 38 69  1  0
 38 70  1  0
 39 71  1  0
 39 72  1  0
M  END
$$$$
