
     RDKit          3D

 43 46  0  0  0  0  0  0  0  0999 V2000
   -1.6032    0.3264    2.2557 O   0  0  0  0  0  0  0  0  0  0  0  0
   -1.2106    0.6023    0.8237 P   0  0  0  0  0  5  0  0  0  0  0  0
   -1.6872   -0.4652   -0.3722 N   0  0  0  0  0  0  0  0  0  0  0  0
   -2.7419   -1.3836   -0.1087 C   0  0  0  0  0  0  0  0  0  0  0  0
   -4.0295   -0.9620    0.2789 C   0  0  0  0  0  0  0  0  0  0  0  0
   -4.4728    0.7119    0.3089 Cl  0  0  0  0  0  0  0  0  0  0  0  0
   -5.0272   -1.8923    0.5974 C   0  0  0  0  0  0  0  0  0  0  0  0
   -4.7628   -3.2598    0.5322 C   0  0  0  0  0  0  0  0  0  0  0  0
   -3.5010   -3.7007    0.1420 C   0  0  0  0  0  0  0  0  0  0  0  0
   -2.5031   -2.7724   -0.1731 C   0  0  0  0  0  0  0  0  0  0  0  0
   -0.9488   -3.3833   -0.6283 Cl  0  0  0  0  0  0  0  0  0  0  0  0
   -1.1623    2.3095    0.3294 C   0  0  0  0  0  0  0  0  0  0  0  0
   -1.1358    3.3243    1.2980 C   0  0  0  0  0  0  0  0  0  0  0  0
   -1.0954    4.6670    0.9202 C   0  0  0  0  0  0  0  0  0  0  0  0
   -1.0845    5.0098   -0.4304 C   0  0  0  0  0  0  0  0  0  0  0  0
   -1.1175    4.0130   -1.4042 C   0  0  0  0  0  0  0  0  0  0  0  0
   -1.1584    2.6704   -1.0260 C   0  0  0  0  0  0  0  0  0  0  0  0
    0.5054    0.1341    0.5610 C   0  0  0  0  0  0  0  0  0  0  0  0
    0.9426   -0.3960   -0.5747 N   0  0  0  0  0  0  0  0  0  0  0  0
    2.2877   -0.6668   -0.4548 C   0  0  0  0  0  0  0  0  0  0  0  0
    2.8493   -0.3513    0.7653 C   0  0  0  0  0  0  0  0  0  0  0  0
    1.6849    0.3286    1.8026 S   0  0  0  0  0  0  0  0  0  0  0  0
    4.2812   -0.5512    1.1309 C   0  0  0  0  0  0  0  0  0  0  0  0
    4.9478   -1.5188    0.1353 C   0  0  0  0  0  0  0  0  0  0  0  0
    4.5746   -1.1958   -1.3229 C   0  0  0  0  0  0  0  0  0  0  0  0
    3.0572   -1.2979   -1.5659 C   0  0  0  0  0  0  0  0  0  0  0  0
   -0.8936   -0.9535   -0.8002 H   0  0  0  0  0  0  0  0  0  0  0  0
   -6.0170   -1.5528    0.8961 H   0  0  0  0  0  0  0  0  0  0  0  0
   -5.5398   -3.9783    0.7839 H   0  0  0  0  0  0  0  0  0  0  0  0
   -3.2950   -4.7674    0.0956 H   0  0  0  0  0  0  0  0  0  0  0  0
   -1.1519    3.0640    2.3558 H   0  0  0  0  0  0  0  0  0  0  0  0
   -1.0760    5.4458    1.6795 H   0  0  0  0  0  0  0  0  0  0  0  0
   -1.0534    6.0560   -0.7242 H   0  0  0  0  0  0  0  0  0  0  0  0
   -1.1122    4.2786   -2.4585 H   0  0  0  0  0  0  0  0  0  0  0  0
   -1.1865    1.9000   -1.7954 H   0  0  0  0  0  0  0  0  0  0  0  0
    4.3786   -0.9510    2.1467 H   0  0  0  0  0  0  0  0  0  0  0  0
    4.7977    0.4165    1.0979 H   0  0  0  0  0  0  0  0  0  0  0  0
    6.0360   -1.4779    0.2629 H   0  0  0  0  0  0  0  0  0  0  0  0
    4.6385   -2.5473    0.3592 H   0  0  0  0  0  0  0  0  0  0  0  0
    4.9151   -0.1793   -1.5602 H   0  0  0  0  0  0  0  0  0  0  0  0
    5.0997   -1.8758   -2.0035 H   0  0  0  0  0  0  0  0  0  0  0  0
    2.8031   -0.8237   -2.5202 H   0  0  0  0  0  0  0  0  0  0  0  0
    2.7677   -2.3542   -1.6356 H   0  0  0  0  0  0  0  0  0  0  0  0
  1  2  2  0
  2  3  1  0
  3  4  1  0
  4  5  2  0
  5  6  1  0
  5  7  1  0
  7  8  2  0
  8  9  1  0
  9 10  2  0
 10 11  1  0
  2 12  1  0
 12 13  2  0
 13 14  1  0
 14 15  2  0
 15 16  1  0
 16 17  2  0
  2 18  1  0
 18 19  2  0
 19 20  1  0
 20 21  2  0
 21 22  1  0
 21 23  1  0
 23 24  1  0
 24 25  1  0
 25 26  1  0
 10  4  1  0
 17 12  1  0
 22 18  1  0
 26 20  1  0
  3 27  1  0
  7 28  1  0
  8 29  1  0
  9 30  1  0
 13 31  1  0
 14 32  1  0
 15 33  1  0
 16 34  1  0
 17 35  1  0
 23 36  1  0
 23 37  1  0
 24 38  1  0
 24 39  1  0
 25 40  1  0
 25 41  1  0
 26 42  1  0
 26 43  1  0
M  END
$$$$
