
     RDKit          3D

 72 76  0  0  0  0  0  0  0  0999 V2000
    6.2494   -2.4420    2.5448 C   0  0  0  0  0  0  0  0  0  0  0  0
    6.5833   -1.6010    1.3076 C   0  0  0  0  0  0  0  0  0  0  0  0
    6.4328   -2.4042    0.0106 C   0  0  0  0  0  0  0  0  0  0  0  0
    8.0386   -1.1212    1.4198 C   0  0  0  0  0  0  0  0  0  0  0  0
    5.7964   -0.3829    1.2688 O   0  0  0  0  0  0  0  0  0  0  0  0
    4.4486   -0.4355    1.1666 C   0  0  0  0  0  0  0  0  0  0  0  0
    3.7689   -1.4464    1.1008 O   0  0  0  0  0  0  0  0  0  0  0  0
    3.9674    0.8377    1.1393 N   0  0  0  0  0  0  0  0  0  0  0  0
    2.5733    1.1484    0.9193 C   0  0  0  0  0  0  0  0  0  0  0  0
    2.2492    1.2179   -0.5726 C   0  0  0  0  0  0  0  0  0  0  0  0
    0.7626    1.4514   -0.8550 C   0  0  0  0  0  0  0  0  0  0  0  0
    0.2862    2.8575   -0.4593 C   0  0  0  0  0  0  0  0  0  0  0  0
   -1.2122    3.1115   -0.6626 C   0  0  1  0  0  0  0  0  0  0  0  0
   -1.6316    2.8774   -2.0873 N   0  0  0  0  0  0  0  0  0  0  0  0
   -2.9418    2.1448   -2.0877 C   0  0  0  0  0  0  0  0  0  0  0  0
   -4.1134    3.0483   -2.5695 C   0  0  0  0  0  0  0  0  0  0  0  0
   -4.4231    4.1613   -2.1716 O   0  0  0  0  0  0  0  0  0  0  0  0
   -4.7480    2.3665   -3.6099 N   0  0  0  0  0  0  0  0  0  0  0  0
   -4.1054    1.1680   -3.8919 C   0  0  0  0  0  0  0  0  0  0  0  0
   -4.4428    0.2583   -4.8718 C   0  0  0  0  0  0  0  0  0  0  0  0
   -3.6512   -0.8870   -4.9832 C   0  0  0  0  0  0  0  0  0  0  0  0
   -2.5544   -1.0907   -4.1259 C   0  0  0  0  0  0  0  0  0  0  0  0
   -2.2298   -0.1526   -3.1418 C   0  0  0  0  0  0  0  0  0  0  0  0
   -3.0201    0.9803   -3.0300 C   0  0  0  0  0  0  0  0  0  0  0  0
   -3.0909    1.6587   -0.7078 C   0  0  0  0  0  0  0  0  0  0  0  0
   -2.1019    2.2159    0.1032 C   0  0  0  0  0  0  0  0  0  0  0  0
   -2.2611    1.7670    1.3863 C   0  0  0  0  0  0  0  0  0  0  0  0
   -1.5450    2.0652    2.4646 O   0  0  0  0  0  0  0  0  0  0  0  0
   -3.3367    0.8849    1.3511 N   0  0  0  0  0  0  0  0  0  0  0  0
   -3.8647    0.1019    2.4622 C   0  0  0  0  0  0  0  0  0  0  0  0
   -3.3005   -1.2987    2.4844 C   0  0  0  0  0  0  0  0  0  0  0  0
   -1.9590   -1.5401    2.8183 C   0  0  0  0  0  0  0  0  0  0  0  0
   -1.4528   -2.8415    2.8300 C   0  0  0  0  0  0  0  0  0  0  0  0
   -2.2796   -3.9162    2.5108 C   0  0  0  0  0  0  0  0  0  0  0  0
   -3.6121   -3.6911    2.1733 C   0  0  0  0  0  0  0  0  0  0  0  0
   -4.1193   -2.3906    2.1578 C   0  0  0  0  0  0  0  0  0  0  0  0
   -3.8690    0.8395    0.0667 C   0  0  0  0  0  0  0  0  0  0  0  0
   -4.9198    0.0796   -0.2173 O   0  0  0  0  0  0  0  0  0  0  0  0
    5.2420   -2.8655    2.4926 H   0  0  0  0  0  0  0  0  0  0  0  0
    6.9496   -3.2765    2.6596 H   0  0  0  0  0  0  0  0  0  0  0  0
    6.2858   -1.8294    3.4526 H   0  0  0  0  0  0  0  0  0  0  0  0
    6.5895   -1.7628   -0.8640 H   0  0  0  0  0  0  0  0  0  0  0  0
    7.1495   -3.2313   -0.0312 H   0  0  0  0  0  0  0  0  0  0  0  0
    5.4319   -2.8341   -0.0909 H   0  0  0  0  0  0  0  0  0  0  0  0
    8.1781   -0.5061    2.3165 H   0  0  0  0  0  0  0  0  0  0  0  0
    8.3069   -0.4879    0.5660 H   0  0  0  0  0  0  0  0  0  0  0  0
    8.7418   -1.9598    1.4630 H   0  0  0  0  0  0  0  0  0  0  0  0
    4.6620    1.5706    1.1201 H   0  0  0  0  0  0  0  0  0  0  0  0
    1.9571    0.3857    1.4086 H   0  0  0  0  0  0  0  0  0  0  0  0
    2.3872    2.1079    1.4098 H   0  0  0  0  0  0  0  0  0  0  0  0
    2.8496    2.0027   -1.0491 H   0  0  0  0  0  0  0  0  0  0  0  0
    2.5447    0.2744   -1.0488 H   0  0  0  0  0  0  0  0  0  0  0  0
    0.5976    1.3051   -1.9290 H   0  0  0  0  0  0  0  0  0  0  0  0
    0.1771    0.6838   -0.3362 H   0  0  0  0  0  0  0  0  0  0  0  0
    0.8536    3.5962   -1.0402 H   0  0  0  0  0  0  0  0  0  0  0  0
    0.5239    3.0433    0.5945 H   0  0  0  0  0  0  0  0  0  0  0  0
   -1.4432    4.1513   -0.3980 H   0  0  0  0  0  0  0  0  0  0  0  0
   -1.7932    3.7907   -2.5102 H   0  0  0  0  0  0  0  0  0  0  0  0
   -5.5328    2.7499   -4.1147 H   0  0  0  0  0  0  0  0  0  0  0  0
   -5.2844    0.4174   -5.5359 H   0  0  0  0  0  0  0  0  0  0  0  0
   -3.8799   -1.6310   -5.7431 H   0  0  0  0  0  0  0  0  0  0  0  0
   -1.9492   -1.9890   -4.2302 H   0  0  0  0  0  0  0  0  0  0  0  0
   -1.3841   -0.3102   -2.4785 H   0  0  0  0  0  0  0  0  0  0  0  0
   -1.9147    1.6344    3.2499 H   0  0  0  0  0  0  0  0  0  0  0  0
   -4.9577    0.0939    2.3731 H   0  0  0  0  0  0  0  0  0  0  0  0
   -3.6427    0.6173    3.4018 H   0  0  0  0  0  0  0  0  0  0  0  0
   -1.2868   -0.7196    3.0556 H   0  0  0  0  0  0  0  0  0  0  0  0
   -0.4084   -3.0148    3.0786 H   0  0  0  0  0  0  0  0  0  0  0  0
   -1.8820   -4.9276    2.5155 H   0  0  0  0  0  0  0  0  0  0  0  0
   -4.2554   -4.5275    1.9131 H   0  0  0  0  0  0  0  0  0  0  0  0
   -5.1579   -2.2315    1.8742 H   0  0  0  0  0  0  0  0  0  0  0  0
   -5.0260    0.0797   -1.1860 H   0  0  0  0  0  0  0  0  0  0  0  0
  1  2  1  0
  2  3  1  0
  2  4  1  0
  2  5  1  0
  5  6  1  0
  6  7  2  0
  6  8  1  0
  8  9  1  0
  9 10  1  0
 10 11  1  0
 11 12  1  0
 12 13  1  0
 13 14  1  0
 14 15  1  0
 15 16  1  0
 16 17  2  0
 16 18  1  0
 18 19  1  0
 19 20  2  0
 20 21  1  0
 21 22  2  0
 22 23  1  0
 23 24  2  0
 15 25  1  0
 25 26  1  0
 26 27  2  0
 27 28  1  0
 27 29  1  0
 29 30  1  0
 30 31  1  0
 31 32  2  0
 32 33  1  0
 33 34  2  0
 34 35  1  0
 35 36  2  0
 29 37  1  0
 37 38  1  0
 26 13  1  0
 36 31  1  0
 24 15  1  0
 37 25  2  0
 24 19  1  0
  1 39  1  0
  1 40  1  0
  1 41  1  0
  3 42  1  0
  3 43  1  0
  3 44  1  0
  4 45  1  0
  4 46  1  0
  4 47  1  0
  8 48  1  0
  9 49  1  0
  9 50  1  0
 10 51  1  0
 10 52  1  0
 11 53  1  0
 11 54  1  0
 12 55  1  0
 12 56  1  0
 13 57  1  1
 14 58  1  0
 18 59  1  0
 20 60  1  0
 21 61  1  0
 22 62  1  0
 23 63  1  0
 28 64  1  0
 30 65  1  0
 30 66  1  0
 32 67  1  0
 33 68  1  0
 34 69  1  0
 35 70  1  0
 36 71  1  0
 38 72  1  0
M  END
$$$$
