
     RDKit          3D

 37 38  0  0  0  0  0  0  0  0999 V2000
    5.3569    1.1678   -1.3543 C   0  0  0  0  0  0  0  0  0  0  0  0
    4.0195    0.6972   -1.2519 O   0  0  0  0  0  0  0  0  0  0  0  0
    3.5965    0.2580   -0.0236 C   0  0  0  0  0  0  0  0  0  0  0  0
    4.4164    0.1309    1.1026 C   0  0  0  0  0  0  0  0  0  0  0  0
    3.8916   -0.3269    2.3143 C   0  0  0  0  0  0  0  0  0  0  0  0
    2.5391   -0.6474    2.4159 C   0  0  0  0  0  0  0  0  0  0  0  0
    1.6994   -0.5113    1.3032 C   0  0  0  0  0  0  0  0  0  0  0  0
    0.2716   -0.8563    1.4867 C   0  0  0  0  0  0  0  0  0  0  0  0
   -0.0966   -1.7626    2.2202 O   0  0  0  0  0  0  0  0  0  0  0  0
   -0.4848    0.0166    0.7667 O   0  0  0  0  0  0  0  0  0  0  0  0
   -1.8536   -0.2736    0.9106 N   0  0  0  0  0  0  0  0  0  0  0  0
   -2.5591    0.4259    0.0710 C   0  0  0  0  0  0  0  0  0  0  0  0
   -1.9976    1.3041   -0.8311 N   0  0  0  0  0  0  0  0  0  0  0  0
   -4.0443    0.2456    0.0832 C   0  0  0  0  0  0  0  0  0  0  0  0
   -4.6012   -0.8759    0.6982 C   0  0  0  0  0  0  0  0  0  0  0  0
   -5.9772   -1.0100    0.6824 C   0  0  0  0  0  0  0  0  0  0  0  0
   -6.8115   -0.1162    0.1081 N   0  0  0  0  0  0  0  0  0  0  0  0
   -6.2457    0.9675   -0.4645 C   0  0  0  0  0  0  0  0  0  0  0  0
   -4.8812    1.1936   -0.5050 C   0  0  0  0  0  0  0  0  0  0  0  0
    2.2366   -0.0931    0.0750 C   0  0  0  0  0  0  0  0  0  0  0  0
    1.4291    0.0199   -1.0349 O   0  0  0  0  0  0  0  0  0  0  0  0
    1.5240   -1.1635   -1.8317 C   0  0  0  0  0  0  0  0  0  0  0  0
    6.0726    0.3573   -1.1821 H   0  0  0  0  0  0  0  0  0  0  0  0
    5.5359    2.0067   -0.6736 H   0  0  0  0  0  0  0  0  0  0  0  0
    5.5059    1.5308   -2.3758 H   0  0  0  0  0  0  0  0  0  0  0  0
    5.4736    0.3751    1.0709 H   0  0  0  0  0  0  0  0  0  0  0  0
    4.5385   -0.4289    3.1830 H   0  0  0  0  0  0  0  0  0  0  0  0
    2.1368   -0.9969    3.3657 H   0  0  0  0  0  0  0  0  0  0  0  0
   -2.4109    1.2971   -1.7564 H   0  0  0  0  0  0  0  0  0  0  0  0
   -0.9865    1.1883   -0.8800 H   0  0  0  0  0  0  0  0  0  0  0  0
   -3.9828   -1.6279    1.1774 H   0  0  0  0  0  0  0  0  0  0  0  0
   -6.4604   -1.8655    1.1460 H   0  0  0  0  0  0  0  0  0  0  0  0
   -6.9442    1.6761   -0.9009 H   0  0  0  0  0  0  0  0  0  0  0  0
   -4.4959    2.0971   -0.9615 H   0  0  0  0  0  0  0  0  0  0  0  0
    1.2399   -2.0525   -1.2575 H   0  0  0  0  0  0  0  0  0  0  0  0
    0.8213   -1.0608   -2.6640 H   0  0  0  0  0  0  0  0  0  0  0  0
    2.5282   -1.2865   -2.2503 H   0  0  0  0  0  0  0  0  0  0  0  0
  1  2  1  0
  2  3  1  0
  3  4  2  0
  4  5  1  0
  5  6  2  0
  6  7  1  0
  7  8  1  0
  8  9  2  0
  8 10  1  0
 10 11  1  0
 11 12  2  3
 12 13  1  0
 12 14  1  0
 14 15  2  0
 15 16  1  0
 16 17  2  0
 17 18  1  0
 18 19  2  0
  7 20  2  0
 20 21  1  0
 21 22  1  0
 20  3  1  0
 19 14  1  0
  1 23  1  0
  1 24  1  0
  1 25  1  0
  4 26  1  0
  5 27  1  0
  6 28  1  0
 13 29  1  0
 13 30  1  0
 15 31  1  0
 16 32  1  0
 18 33  1  0
 19 34  1  0
 22 35  1  0
 22 36  1  0
 22 37  1  0
M  END
$$$$
