
     RDKit          3D

 33 36  0  0  0  0  0  0  0  0999 V2000
   -1.3309    2.3616    0.0637 O   0  0  0  0  0  0  0  0  0  0  0  0
   -0.7637    1.2745    0.1621 C   0  0  0  0  0  0  0  0  0  0  0  0
    0.7166    1.3100    0.2745 C   0  0  0  0  0  0  0  0  0  0  0  0
    1.3598    2.5555    0.3223 C   0  0  0  0  0  0  0  0  0  0  0  0
    2.7451    2.6273    0.3705 C   0  0  0  0  0  0  0  0  0  0  0  0
    3.4968    1.4548    0.3665 C   0  0  0  0  0  0  0  0  0  0  0  0
    2.8804    0.1787    0.3265 C   0  0  0  0  0  0  0  0  0  0  0  0
    3.5797   -1.0574    0.3166 C   0  0  0  0  0  0  0  0  0  0  0  0
    5.0319   -1.0914    0.3672 N   0  0  0  0  0  4  0  0  0  0  0  0
    5.6135   -1.6131   -0.5926 O   0  0  0  0  0  0  0  0  0  0  0  0
    5.5763   -0.6152    1.3715 O   0  0  0  0  0  1  0  0  0  0  0  0
    2.9271   -2.2925    0.2584 C   0  0  0  0  0  0  0  0  0  0  0  0
    1.5386   -2.3148    0.2311 C   0  0  0  0  0  0  0  0  0  0  0  0
    0.8079   -1.1141    0.2482 C   0  0  0  0  0  0  0  0  0  0  0  0
    1.4582    0.1247    0.2822 C   0  0  0  0  0  0  0  0  0  0  0  0
   -0.6734   -1.1840    0.2722 C   0  0  0  0  0  0  0  0  0  0  0  0
   -1.1542   -2.2908    0.5118 O   0  0  0  0  0  0  0  0  0  0  0  0
   -1.3772    0.0185    0.1277 N   0  0  0  0  0  0  0  0  0  0  0  0
   -2.8006   -0.0764   -0.0573 C   0  0  0  0  0  0  0  0  0  0  0  0
   -3.6770    0.9092    0.4022 C   0  0  0  0  0  0  0  0  0  0  0  0
   -5.0505    0.7798    0.1842 C   0  0  0  0  0  0  0  0  0  0  0  0
   -5.5323   -0.3316   -0.4876 C   0  0  0  0  0  0  0  0  0  0  0  0
   -4.6145   -1.2697   -0.9129 C   0  0  0  0  0  0  0  0  0  0  0  0
   -3.2822   -1.1594   -0.7172 N   0  0  0  0  0  0  0  0  0  0  0  0
    0.7819    3.4789    0.3106 H   0  0  0  0  0  0  0  0  0  0  0  0
    3.2413    3.5951    0.4039 H   0  0  0  0  0  0  0  0  0  0  0  0
    4.5816    1.5584    0.3985 H   0  0  0  0  0  0  0  0  0  0  0  0
    3.4851   -3.2270    0.2449 H   0  0  0  0  0  0  0  0  0  0  0  0
    1.0204   -3.2736    0.2023 H   0  0  0  0  0  0  0  0  0  0  0  0
   -3.3311    1.7722    0.9605 H   0  0  0  0  0  0  0  0  0  0  0  0
   -5.7334    1.5434    0.5460 H   0  0  0  0  0  0  0  0  0  0  0  0
   -6.5921   -0.4657   -0.6700 H   0  0  0  0  0  0  0  0  0  0  0  0
   -4.9294   -2.1660   -1.4396 H   0  0  0  0  0  0  0  0  0  0  0  0
  1  2  2  0
  2  3  1  0
  3  4  1  0
  4  5  2  0
  5  6  1  0
  6  7  2  0
  7  8  1  0
  8  9  1  0
  9 10  2  0
  9 11  1  0
  8 12  2  0
 12 13  1  0
 13 14  2  0
 14 15  1  0
 14 16  1  0
 16 17  2  0
 16 18  1  0
 18 19  1  0
 19 20  2  0
 20 21  1  0
 21 22  2  0
 22 23  1  0
 23 24  2  0
 18  2  1  0
 24 19  1  0
 15  3  2  0
 15  7  1  0
  4 25  1  0
  5 26  1  0
  6 27  1  0
 12 28  1  0
 13 29  1  0
 20 30  1  0
 21 31  1  0
 22 32  1  0
 23 33  1  0
M  CHG  2   9   1  11  -1
M  END
$$$$
