
     RDKit          3D

 37 39  0  0  0  0  0  0  0  0999 V2000
    6.1655    0.1811    0.5530 N   0  0  0  0  0  0  0  0  0  0  0  0
    5.1086   -0.4770    1.1123 C   0  0  0  0  0  0  0  0  0  0  0  0
    5.3010   -1.4248    1.8642 O   0  0  0  0  0  0  0  0  0  0  0  0
    3.7379    0.0711    0.7463 C   0  0  0  0  0  0  0  0  0  0  0  0
    2.6337   -0.6723    1.5004 C   0  0  0  0  0  0  0  0  0  0  0  0
    1.2543   -0.1504    1.1158 C   0  0  0  0  0  0  0  0  0  0  0  0
    1.0617   -0.2130   -0.3414 N   0  0  0  0  0  0  0  0  0  0  0  0
   -0.2461   -0.1244   -0.7584 C   0  0  0  0  0  0  0  0  0  0  0  0
   -1.2688   -0.0710    0.0707 N   0  0  0  0  0  0  0  0  0  0  0  0
   -2.4820    0.0013   -0.6000 C   0  0  0  0  0  0  0  0  0  0  0  0
   -3.7382    0.0641    0.1414 C   0  0  0  0  0  0  0  0  0  0  0  0
   -3.7612   -0.3615    1.4805 C   0  0  0  0  0  0  0  0  0  0  0  0
   -4.9414   -0.3207    2.2303 C   0  0  0  0  0  0  0  0  0  0  0  0
   -6.1185    0.1509    1.6541 C   0  0  0  0  0  0  0  0  0  0  0  0
   -6.1126    0.5838    0.3303 C   0  0  0  0  0  0  0  0  0  0  0  0
   -4.9321    0.5406   -0.4136 C   0  0  0  0  0  0  0  0  0  0  0  0
   -4.9816    0.9879   -1.6779 F   0  0  0  0  0  0  0  0  0  0  0  0
   -2.3697   -0.0266   -1.9728 C   0  0  0  0  0  0  0  0  0  0  0  0
   -0.7250   -0.1258   -2.4263 S   0  0  0  0  0  0  0  0  0  0  0  0
    2.0939    0.4661   -1.1315 C   0  0  0  0  0  0  0  0  0  0  0  0
    3.4861   -0.0386   -0.7588 C   0  0  0  0  0  0  0  0  0  0  0  0
    6.0741    1.1039    0.1530 H   0  0  0  0  0  0  0  0  0  0  0  0
    7.0859   -0.1128    0.8561 H   0  0  0  0  0  0  0  0  0  0  0  0
    3.7202    1.1278    1.0455 H   0  0  0  0  0  0  0  0  0  0  0  0
    2.6890   -1.7472    1.2814 H   0  0  0  0  0  0  0  0  0  0  0  0
    2.7760   -0.5657    2.5827 H   0  0  0  0  0  0  0  0  0  0  0  0
    1.1322    0.8836    1.4638 H   0  0  0  0  0  0  0  0  0  0  0  0
    0.5133   -0.7676    1.6397 H   0  0  0  0  0  0  0  0  0  0  0  0
   -2.8511   -0.7338    1.9491 H   0  0  0  0  0  0  0  0  0  0  0  0
   -4.9363   -0.6578    3.2642 H   0  0  0  0  0  0  0  0  0  0  0  0
   -7.0361    0.1842    2.2360 H   0  0  0  0  0  0  0  0  0  0  0  0
   -7.0202    0.9606   -0.1314 H   0  0  0  0  0  0  0  0  0  0  0  0
   -3.1440   -0.0057   -2.7251 H   0  0  0  0  0  0  0  0  0  0  0  0
    2.0324    1.5494   -0.9655 H   0  0  0  0  0  0  0  0  0  0  0  0
    1.9712    0.2918   -2.2058 H   0  0  0  0  0  0  0  0  0  0  0  0
    3.5938   -1.0848   -1.0753 H   0  0  0  0  0  0  0  0  0  0  0  0
    4.2341    0.5331   -1.3207 H   0  0  0  0  0  0  0  0  0  0  0  0
  1  2  1  0
  2  3  2  0
  2  4  1  0
  4  5  1  0
  5  6  1  0
  6  7  1  0
  7  8  1  0
  8  9  2  0
  9 10  1  0
 10 11  1  0
 11 12  2  0
 12 13  1  0
 13 14  2  0
 14 15  1  0
 15 16  2  0
 16 17  1  0
 10 18  2  0
 18 19  1  0
  7 20  1  0
 20 21  1  0
 21  4  1  0
 19  8  1  0
 16 11  1  0
  1 22  1  0
  1 23  1  0
  4 24  1  0
  5 25  1  0
  5 26  1  0
  6 27  1  0
  6 28  1  0
 12 29  1  0
 13 30  1  0
 14 31  1  0
 15 32  1  0
 18 33  1  0
 20 34  1  0
 20 35  1  0
 21 36  1  0
 21 37  1  0
M  END
$$$$
