
     RDKit          3D

 56 60  0  0  0  0  0  0  0  0999 V2000
    4.3860   -4.1292    2.1166 C   0  0  0  0  0  0  0  0  0  0  0  0
    3.9986   -3.7378    0.7001 C   0  0  0  0  0  0  0  0  0  0  0  0
    3.6633   -2.3386    0.5987 N   0  0  0  0  0  0  0  0  0  0  0  0
    4.5651   -1.3226    0.2998 C   0  0  0  0  0  0  0  0  0  0  0  0
    5.7482   -1.3935    0.0324 O   0  0  0  0  0  0  0  0  0  0  0  0
    3.7794   -0.0733    0.3799 C   0  0  0  0  0  0  0  0  0  0  0  0
    4.1395    1.2411    0.1719 C   0  0  0  0  0  0  0  0  0  0  0  0
    3.1450    2.2124    0.3381 C   0  0  0  0  0  0  0  0  0  0  0  0
    1.8259    1.8541    0.7058 C   0  0  0  0  0  0  0  0  0  0  0  0
    1.4562    0.4939    0.9196 C   0  0  0  0  0  0  0  0  0  0  0  0
    0.2188   -0.1157    1.2774 C   0  0  0  0  0  0  0  0  0  0  0  0
   -1.2445    0.8728    1.5229 S   0  0  0  0  0  6  0  0  0  0  0  0
   -0.8534    2.0186    2.3170 O   0  0  0  0  0  0  0  0  0  0  0  0
   -2.2990   -0.0025    1.9999 O   0  0  0  0  0  0  0  0  0  0  0  0
   -1.6545    1.3754   -0.0370 N   0  0  0  0  0  0  0  0  0  0  0  0
   -1.6791    2.7265   -0.4665 C   0  0  0  0  0  0  0  0  0  0  0  0
   -1.1928    3.1089   -1.5248 O   0  0  0  0  0  0  0  0  0  0  0  0
   -2.4137    3.6990    0.3754 C   0  0  0  0  0  0  0  0  0  0  0  0
   -3.4864    3.3559    1.2032 C   0  0  0  0  0  0  0  0  0  0  0  0
   -4.1162    4.3491    1.9519 C   0  0  0  0  0  0  0  0  0  0  0  0
   -3.6610    5.6532    1.8359 C   0  0  0  0  0  0  0  0  0  0  0  0
   -2.6429    6.0220    1.0286 N   0  0  0  0  0  0  0  0  0  0  0  0
   -2.0437    5.0372    0.3142 C   0  0  0  0  0  0  0  0  0  0  0  0
   -1.7516    0.3680   -1.0542 C   0  0  0  0  0  0  0  0  0  0  0  0
   -0.7388    0.1981   -2.0003 C   0  0  0  0  0  0  0  0  0  0  0  0
   -0.8282   -0.8288   -2.9428 C   0  0  0  0  0  0  0  0  0  0  0  0
   -1.9242   -1.6947   -2.9532 C   0  0  0  0  0  0  0  0  0  0  0  0
   -1.8832   -2.6557   -3.9241 O   0  0  0  0  0  0  0  0  0  0  0  0
   -2.9992   -3.5328   -4.0118 C   0  0  0  0  0  0  0  0  0  0  0  0
   -2.9361   -1.5247   -2.0084 C   0  0  0  0  0  0  0  0  0  0  0  0
   -2.8486   -0.4975   -1.0617 C   0  0  0  0  0  0  0  0  0  0  0  0
    0.1114   -1.5229    1.4437 C   0  0  0  0  0  0  0  0  0  0  0  0
    1.2162   -2.3642    1.2411 C   0  0  0  0  0  0  0  0  0  0  0  0
    2.4085   -1.7768    0.8777 C   0  0  0  0  0  0  0  0  0  0  0  0
    2.4981   -0.4141    0.7343 C   0  0  0  0  0  0  0  0  0  0  0  0
    4.6557   -5.1889    2.1582 H   0  0  0  0  0  0  0  0  0  0  0  0
    3.5597   -3.9591    2.8143 H   0  0  0  0  0  0  0  0  0  0  0  0
    5.2429   -3.5432    2.4653 H   0  0  0  0  0  0  0  0  0  0  0  0
    4.8457   -3.9361    0.0335 H   0  0  0  0  0  0  0  0  0  0  0  0
    3.1556   -4.3411    0.3471 H   0  0  0  0  0  0  0  0  0  0  0  0
    5.1544    1.5055   -0.1057 H   0  0  0  0  0  0  0  0  0  0  0  0
    3.3900    3.2627    0.1871 H   0  0  0  0  0  0  0  0  0  0  0  0
    1.1023    2.6565    0.8306 H   0  0  0  0  0  0  0  0  0  0  0  0
   -3.8502    2.3348    1.2711 H   0  0  0  0  0  0  0  0  0  0  0  0
   -4.9446    4.1113    2.6109 H   0  0  0  0  0  0  0  0  0  0  0  0
   -4.1194    6.4595    2.4020 H   0  0  0  0  0  0  0  0  0  0  0  0
   -1.2315    5.3735   -0.3262 H   0  0  0  0  0  0  0  0  0  0  0  0
    0.1243    0.8591   -2.0199 H   0  0  0  0  0  0  0  0  0  0  0  0
   -0.0365   -0.9528   -3.6785 H   0  0  0  0  0  0  0  0  0  0  0  0
   -2.8209   -4.2185   -4.8457 H   0  0  0  0  0  0  0  0  0  0  0  0
   -3.9204   -2.9806   -4.2255 H   0  0  0  0  0  0  0  0  0  0  0  0
   -3.0999   -4.1338   -3.1021 H   0  0  0  0  0  0  0  0  0  0  0  0
   -3.8047   -2.1743   -1.9768 H   0  0  0  0  0  0  0  0  0  0  0  0
   -3.6449   -0.3858   -0.3291 H   0  0  0  0  0  0  0  0  0  0  0  0
   -0.8407   -1.9726    1.7236 H   0  0  0  0  0  0  0  0  0  0  0  0
    1.1199   -3.4371    1.3644 H   0  0  0  0  0  0  0  0  0  0  0  0
  1  2  1  0
  2  3  1  0
  3  4  1  0
  4  5  2  0
  4  6  1  0
  6  7  2  0
  7  8  1  0
  8  9  2  0
  9 10  1  0
 10 11  2  0
 11 12  1  0
 12 13  2  0
 12 14  2  0
 12 15  1  0
 15 16  1  0
 16 17  2  0
 16 18  1  0
 18 19  2  0
 19 20  1  0
 20 21  2  0
 21 22  1  0
 22 23  2  0
 15 24  1  0
 24 25  2  0
 25 26  1  0
 26 27  2  0
 27 28  1  0
 28 29  1  0
 27 30  1  0
 30 31  2  0
 11 32  1  0
 32 33  2  0
 33 34  1  0
 34 35  2  0
 34  3  1  0
 35  6  1  0
 35 10  1  0
 23 18  1  0
 31 24  1  0
  1 36  1  0
  1 37  1  0
  1 38  1  0
  2 39  1  0
  2 40  1  0
  7 41  1  0
  8 42  1  0
  9 43  1  0
 19 44  1  0
 20 45  1  0
 21 46  1  0
 23 47  1  0
 25 48  1  0
 26 49  1  0
 29 50  1  0
 29 51  1  0
 29 52  1  0
 30 53  1  0
 31 54  1  0
 32 55  1  0
 33 56  1  0
M  END
$$$$
