
     RDKit          3D

 44 46  0  0  0  0  0  0  0  0999 V2000
    8.8254   -0.3962   -0.4391 C   0  0  0  0  0  0  0  0  0  0  0  0
    7.9781    0.6143    0.0971 O   0  0  0  0  0  0  0  0  0  0  0  0
    6.6326    0.3751    0.0696 C   0  0  0  0  0  0  0  0  0  0  0  0
    5.8501    1.3772    0.6462 C   0  0  0  0  0  0  0  0  0  0  0  0
    4.4555    1.2686    0.6926 C   0  0  0  0  0  0  0  0  0  0  0  0
    3.8218    0.1460    0.1558 C   0  0  0  0  0  0  0  0  0  0  0  0
    2.4673   -0.0559    0.1463 O   0  0  0  0  0  0  0  0  0  0  0  0
    1.6412    0.9190    0.7775 C   0  0  0  0  0  0  0  0  0  0  0  0
    0.2403    0.4540    0.6511 C   0  0  0  0  0  0  0  0  0  0  0  0
   -0.3685   -0.7070    0.2414 C   0  0  0  0  0  0  0  0  0  0  0  0
   -1.7634   -0.4600    0.3700 C   0  0  0  0  0  0  0  0  0  0  0  0
   -2.8339   -1.4338    0.0868 C   0  0  0  0  0  0  0  0  0  0  0  0
   -2.5533   -2.6362    0.0812 O   0  0  0  0  0  0  0  0  0  0  0  0
   -4.1500   -1.0032   -0.1851 N   0  0  0  0  0  0  0  0  0  0  0  0
   -5.1980   -2.0172   -0.1136 C   0  0  0  0  0  0  0  0  0  0  0  0
   -4.5336    0.4118   -0.4209 C   0  0  0  0  0  0  0  0  0  0  0  0
   -5.6710    0.6276   -1.4066 C   0  0  0  0  0  0  0  0  0  0  0  0
   -6.9154    0.6901   -0.5440 C   0  0  0  0  0  0  0  0  0  0  0  0
   -6.5101    0.9931    0.7946 O   0  0  0  0  0  0  0  0  0  0  0  0
   -5.0761    1.0971    0.8335 C   0  0  0  0  0  0  0  0  0  0  0  0
   -1.9650    0.7714    0.8746 N   0  0  0  0  0  0  0  0  0  0  0  0
   -0.7179    1.3411    1.0283 O   0  0  0  0  0  0  0  0  0  0  0  0
    4.6139   -0.8585   -0.4258 C   0  0  0  0  0  0  0  0  0  0  0  0
    3.8967   -2.2784   -1.1125 Cl  0  0  0  0  0  0  0  0  0  0  0  0
    6.0094   -0.7478   -0.4690 C   0  0  0  0  0  0  0  0  0  0  0  0
    9.8601   -0.0591   -0.3245 H   0  0  0  0  0  0  0  0  0  0  0  0
    8.6385   -0.5429   -1.5089 H   0  0  0  0  0  0  0  0  0  0  0  0
    8.7177   -1.3360    0.1136 H   0  0  0  0  0  0  0  0  0  0  0  0
    6.3337    2.2573    1.0687 H   0  0  0  0  0  0  0  0  0  0  0  0
    3.9042    2.0831    1.1511 H   0  0  0  0  0  0  0  0  0  0  0  0
    1.8958    1.0082    1.8396 H   0  0  0  0  0  0  0  0  0  0  0  0
    1.7472    1.8883    0.2745 H   0  0  0  0  0  0  0  0  0  0  0  0
    0.1115   -1.6126   -0.1045 H   0  0  0  0  0  0  0  0  0  0  0  0
   -5.9223   -1.7301    0.6534 H   0  0  0  0  0  0  0  0  0  0  0  0
   -5.6882   -2.1032   -1.0855 H   0  0  0  0  0  0  0  0  0  0  0  0
   -4.8125   -3.0041    0.1556 H   0  0  0  0  0  0  0  0  0  0  0  0
   -3.6543    0.9306   -0.8091 H   0  0  0  0  0  0  0  0  0  0  0  0
   -5.5410    1.6050   -1.8910 H   0  0  0  0  0  0  0  0  0  0  0  0
   -5.7372   -0.1142   -2.2082 H   0  0  0  0  0  0  0  0  0  0  0  0
   -7.6152    1.4569   -0.8920 H   0  0  0  0  0  0  0  0  0  0  0  0
   -7.4481   -0.2655   -0.5299 H   0  0  0  0  0  0  0  0  0  0  0  0
   -4.7117    0.6632    1.7701 H   0  0  0  0  0  0  0  0  0  0  0  0
   -4.8334    2.1658    0.8257 H   0  0  0  0  0  0  0  0  0  0  0  0
    6.5792   -1.5480   -0.9286 H   0  0  0  0  0  0  0  0  0  0  0  0
  1  2  1  0
  2  3  1  0
  3  4  2  0
  4  5  1  0
  5  6  2  0
  6  7  1  0
  7  8  1  0
  8  9  1  0
  9 10  2  0
 10 11  1  0
 11 12  1  0
 12 13  2  0
 12 14  1  0
 14 15  1  0
 14 16  1  0
 16 17  1  0
 17 18  1  0
 18 19  1  0
 19 20  1  0
 11 21  2  0
 21 22  1  0
  6 23  1  0
 23 24  1  0
 23 25  2  0
 25  3  1  0
 22  9  1  0
 20 16  1  0
  1 26  1  0
  1 27  1  0
  1 28  1  0
  4 29  1  0
  5 30  1  0
  8 31  1  0
  8 32  1  0
 10 33  1  0
 15 34  1  0
 15 35  1  0
 15 36  1  0
 16 37  1  0
 17 38  1  0
 17 39  1  0
 18 40  1  0
 18 41  1  0
 20 42  1  0
 20 43  1  0
 25 44  1  0
M  END
$$$$
