
     RDKit          3D

 56 58  0  0  0  0  0  0  0  0999 V2000
   -9.1750   -0.2235    1.6094 C   0  0  0  0  0  0  0  0  0  0  0  0
   -8.2113    0.7914    1.3708 O   0  0  0  0  0  0  0  0  0  0  0  0
   -6.9710    0.4016    0.9284 C   0  0  0  0  0  0  0  0  0  0  0  0
   -6.5822   -0.9284    0.7367 C   0  0  0  0  0  0  0  0  0  0  0  0
   -5.2955   -1.2333    0.2851 C   0  0  0  0  0  0  0  0  0  0  0  0
   -4.3800   -0.2130    0.0150 C   0  0  0  0  0  0  0  0  0  0  0  0
   -2.9824   -0.5347   -0.4532 C   0  0  0  0  0  0  0  0  0  0  0  0
   -1.9833   -0.5352    0.7065 C   0  0  0  0  0  0  0  0  0  0  0  0
   -0.6340   -0.8462    0.2703 N   0  0  0  0  0  0  0  0  0  0  0  0
    0.1508    0.0987   -0.3421 C   0  0  0  0  0  0  0  0  0  0  0  0
   -0.2379    1.2363   -0.5856 O   0  0  0  0  0  0  0  0  0  0  0  0
    1.5267   -0.3539   -0.7019 C   0  0  0  0  0  0  0  0  0  0  0  0
    2.4440    0.5915   -0.9819 C   0  0  0  0  0  0  0  0  0  0  0  0
    3.8665    0.3079   -1.3640 C   0  0  0  0  0  0  0  0  0  0  0  0
    4.2109   -1.1060   -1.0594 N   0  0  0  0  0  0  0  0  0  0  0  0
    5.7966   -1.5555   -1.5087 S   0  0  0  0  0  6  0  0  0  0  0  0
    5.9857   -1.1552   -2.8868 O   0  0  0  0  0  0  0  0  0  0  0  0
    6.0153   -2.9225   -1.0871 O   0  0  0  0  0  0  0  0  0  0  0  0
    6.8084   -0.5235   -0.4757 C   0  0  0  0  0  0  0  0  0  0  0  0
    7.6302    0.4540   -1.0482 C   0  0  0  0  0  0  0  0  0  0  0  0
    8.4169    1.2543   -0.2188 C   0  0  0  0  0  0  0  0  0  0  0  0
    8.3771    1.0655    1.1604 C   0  0  0  0  0  0  0  0  0  0  0  0
    9.1334    1.8371    1.9515 F   0  0  0  0  0  0  0  0  0  0  0  0
    7.5664    0.0882    1.7317 C   0  0  0  0  0  0  0  0  0  0  0  0
    6.7760   -0.7163    0.9110 C   0  0  0  0  0  0  0  0  0  0  0  0
    3.1709   -2.0384   -1.5759 C   0  0  0  0  0  0  0  0  0  0  0  0
    1.8690   -1.8122   -0.8019 C   0  0  0  0  0  0  0  0  0  0  0  0
   -4.7669    1.1218    0.2099 C   0  0  0  0  0  0  0  0  0  0  0  0
   -6.0536    1.4378    0.6636 C   0  0  0  0  0  0  0  0  0  0  0  0
   -6.5075    2.7160    0.8801 O   0  0  0  0  0  0  0  0  0  0  0  0
   -5.6138    3.7865    0.6105 C   0  0  0  0  0  0  0  0  0  0  0  0
   -9.3966   -0.7825    0.6943 H   0  0  0  0  0  0  0  0  0  0  0  0
  -10.1003    0.2632    1.9328 H   0  0  0  0  0  0  0  0  0  0  0  0
   -8.8530   -0.8919    2.4146 H   0  0  0  0  0  0  0  0  0  0  0  0
   -7.2583   -1.7539    0.9315 H   0  0  0  0  0  0  0  0  0  0  0  0
   -5.0174   -2.2755    0.1451 H   0  0  0  0  0  0  0  0  0  0  0  0
   -2.6857    0.1890   -1.2227 H   0  0  0  0  0  0  0  0  0  0  0  0
   -2.9724   -1.5118   -0.9535 H   0  0  0  0  0  0  0  0  0  0  0  0
   -2.2606   -1.2883    1.4528 H   0  0  0  0  0  0  0  0  0  0  0  0
   -1.9691    0.4394    1.2088 H   0  0  0  0  0  0  0  0  0  0  0  0
   -0.2518   -1.7441    0.5275 H   0  0  0  0  0  0  0  0  0  0  0  0
    2.1723    1.6451   -0.9354 H   0  0  0  0  0  0  0  0  0  0  0  0
    4.5085    0.9727   -0.7779 H   0  0  0  0  0  0  0  0  0  0  0  0
    4.0014    0.5293   -2.4278 H   0  0  0  0  0  0  0  0  0  0  0  0
    7.6667    0.5947   -2.1262 H   0  0  0  0  0  0  0  0  0  0  0  0
    9.0635    2.0205   -0.6365 H   0  0  0  0  0  0  0  0  0  0  0  0
    7.5599   -0.0409    2.8098 H   0  0  0  0  0  0  0  0  0  0  0  0
    6.1436   -1.4866    1.3476 H   0  0  0  0  0  0  0  0  0  0  0  0
    3.4756   -3.0806   -1.4351 H   0  0  0  0  0  0  0  0  0  0  0  0
    3.0183   -1.8717   -2.6496 H   0  0  0  0  0  0  0  0  0  0  0  0
    1.0675   -2.3662   -1.3037 H   0  0  0  0  0  0  0  0  0  0  0  0
    1.9752   -2.2196    0.2113 H   0  0  0  0  0  0  0  0  0  0  0  0
   -4.0393    1.9004   -0.0011 H   0  0  0  0  0  0  0  0  0  0  0  0
   -6.1378    4.7222    0.8286 H   0  0  0  0  0  0  0  0  0  0  0  0
   -5.3266    3.8059   -0.4460 H   0  0  0  0  0  0  0  0  0  0  0  0
   -4.7340    3.7400    1.2608 H   0  0  0  0  0  0  0  0  0  0  0  0
  1  2  1  0
  2  3  1  0
  3  4  2  0
  4  5  1  0
  5  6  2  0
  6  7  1  0
  7  8  1  0
  8  9  1  0
  9 10  1  0
 10 11  2  0
 10 12  1  0
 12 13  2  0
 13 14  1  0
 14 15  1  0
 15 16  1  0
 16 17  2  0
 16 18  2  0
 16 19  1  0
 19 20  2  0
 20 21  1  0
 21 22  2  0
 22 23  1  0
 22 24  1  0
 24 25  2  0
 15 26  1  0
 26 27  1  0
  6 28  1  0
 28 29  2  0
 29 30  1  0
 30 31  1  0
 29  3  1  0
 27 12  1  0
 25 19  1  0
  1 32  1  0
  1 33  1  0
  1 34  1  0
  4 35  1  0
  5 36  1  0
  7 37  1  0
  7 38  1  0
  8 39  1  0
  8 40  1  0
  9 41  1  0
 13 42  1  0
 14 43  1  0
 14 44  1  0
 20 45  1  0
 21 46  1  0
 24 47  1  0
 25 48  1  0
 26 49  1  0
 26 50  1  0
 27 51  1  0
 27 52  1  0
 28 53  1  0
 31 54  1  0
 31 55  1  0
 31 56  1  0
M  END
$$$$
