
     RDKit          3D

 62 65  0  0  0  0  0  0  0  0999 V2000
   -1.8514    0.7837   -2.5232 O   0  0  0  0  0  0  0  0  0  0  0  0
   -1.6340   -0.1036   -1.7049 C   0  0  0  0  0  0  0  0  0  0  0  0
   -2.5530   -0.4921   -0.7510 N   0  0  0  0  0  0  0  0  0  0  0  0
   -3.8989    0.0597   -0.7493 C   0  0  0  0  0  0  0  0  0  0  0  0
   -4.5668   -0.0943    0.6212 C   0  0  0  0  0  0  0  0  0  0  0  0
   -5.9620    0.4769    0.7887 C   0  0  0  0  0  0  0  0  0  0  0  0
   -6.6958    1.0225   -0.2003 C   0  0  0  0  0  0  0  0  0  0  0  0
   -8.0838    1.5701   -0.0178 C   0  0  0  0  0  0  0  0  0  0  0  0
   -8.7194    1.1894    1.3182 C   0  0  0  0  0  0  0  0  0  0  0  0
   -7.7111    1.2998    2.4544 C   0  0  0  0  0  0  0  0  0  0  0  0
   -6.4982    0.4024    2.2040 C   0  0  0  0  0  0  0  0  0  0  0  0
   -0.3169   -0.8766   -1.6389 C   0  0  0  0  0  0  0  0  0  0  0  0
    0.5696   -0.5491   -2.8481 C   0  0  0  0  0  0  0  0  0  0  0  0
    1.9200   -1.2573   -2.7753 C   0  0  0  0  0  0  0  0  0  0  0  0
    2.6770   -0.9791   -1.4669 C   0  0  0  0  0  0  0  0  0  0  0  0
    3.2369    0.4587   -1.4422 C   0  0  0  0  0  0  0  0  0  0  0  0
    4.1687    0.6455   -0.3373 N   0  0  0  0  0  0  0  0  0  0  0  0
    5.4616    0.1496   -0.2336 C   0  0  0  0  0  0  0  0  0  0  0  0
    6.1105   -0.2461   -1.3738 N   0  0  0  0  0  0  0  0  0  0  0  0
    7.3775   -0.7610   -1.4432 C   0  0  0  0  0  0  0  0  0  0  0  0
    7.9628   -1.1954   -2.9521 S   0  0  0  0  0  0  0  0  0  0  0  0
    8.0898   -0.9018   -0.2875 N   0  0  0  0  0  0  0  0  0  0  0  0
    7.5169   -0.5362    0.8147 C   0  0  0  0  0  0  0  0  0  0  0  0
    8.2750   -0.6892    2.0893 C   0  0  0  0  0  0  0  0  0  0  0  0
    7.7314   -0.3326    3.2606 C   0  0  0  0  0  0  0  0  0  0  0  0
    6.4046    0.2253    3.3498 C   0  0  0  0  0  0  0  0  0  0  0  0
    5.6457    0.3987    2.2589 C   0  0  0  0  0  0  0  0  0  0  0  0
    6.1321    0.0337    0.9370 C   0  0  0  0  0  0  0  0  0  0  0  0
    1.7721   -1.2900   -0.2613 C   0  0  0  0  0  0  0  0  0  0  0  0
    0.4195   -0.5811   -0.3248 C   0  0  0  0  0  0  0  0  0  0  0  0
   -2.4149   -1.3924   -0.3080 H   0  0  0  0  0  0  0  0  0  0  0  0
   -3.8465    1.1160   -1.0368 H   0  0  0  0  0  0  0  0  0  0  0  0
   -4.4623   -0.4754   -1.5228 H   0  0  0  0  0  0  0  0  0  0  0  0
   -3.9124    0.3752    1.3671 H   0  0  0  0  0  0  0  0  0  0  0  0
   -4.6043   -1.1612    0.8770 H   0  0  0  0  0  0  0  0  0  0  0  0
   -6.3069    1.0972   -1.2121 H   0  0  0  0  0  0  0  0  0  0  0  0
   -8.0333    2.6619   -0.1058 H   0  0  0  0  0  0  0  0  0  0  0  0
   -8.7253    1.2144   -0.8318 H   0  0  0  0  0  0  0  0  0  0  0  0
   -9.1012    0.1621    1.2671 H   0  0  0  0  0  0  0  0  0  0  0  0
   -9.5811    1.8367    1.5155 H   0  0  0  0  0  0  0  0  0  0  0  0
   -8.1834    1.0237    3.4043 H   0  0  0  0  0  0  0  0  0  0  0  0
   -7.3814    2.3429    2.5527 H   0  0  0  0  0  0  0  0  0  0  0  0
   -6.7622   -0.6419    2.4200 H   0  0  0  0  0  0  0  0  0  0  0  0
   -5.7114    0.6813    2.9150 H   0  0  0  0  0  0  0  0  0  0  0  0
   -0.5654   -1.9469   -1.6775 H   0  0  0  0  0  0  0  0  0  0  0  0
    0.0549   -0.8480   -3.7712 H   0  0  0  0  0  0  0  0  0  0  0  0
    0.7277    0.5351   -2.9256 H   0  0  0  0  0  0  0  0  0  0  0  0
    2.5326   -0.9640   -3.6352 H   0  0  0  0  0  0  0  0  0  0  0  0
    1.7564   -2.3371   -2.8683 H   0  0  0  0  0  0  0  0  0  0  0  0
    3.5255   -1.6753   -1.4314 H   0  0  0  0  0  0  0  0  0  0  0  0
    3.7307    0.6959   -2.3911 H   0  0  0  0  0  0  0  0  0  0  0  0
    2.4324    1.1935   -1.3364 H   0  0  0  0  0  0  0  0  0  0  0  0
    3.7088    0.8100    0.5520 H   0  0  0  0  0  0  0  0  0  0  0  0
    5.6391   -0.1482   -2.2588 H   0  0  0  0  0  0  0  0  0  0  0  0
    9.2734   -1.1042    2.0192 H   0  0  0  0  0  0  0  0  0  0  0  0
    8.2919   -0.4538    4.1838 H   0  0  0  0  0  0  0  0  0  0  0  0
    6.0379    0.5070    4.3332 H   0  0  0  0  0  0  0  0  0  0  0  0
    4.6591    0.8313    2.3699 H   0  0  0  0  0  0  0  0  0  0  0  0
    1.5944   -2.3728   -0.2296 H   0  0  0  0  0  0  0  0  0  0  0  0
    2.2757   -1.0387    0.6786 H   0  0  0  0  0  0  0  0  0  0  0  0
    0.5583    0.5028   -0.2128 H   0  0  0  0  0  0  0  0  0  0  0  0
   -0.1873   -0.8971    0.5349 H   0  0  0  0  0  0  0  0  0  0  0  0
  1  2  2  0
  2  3  1  0
  3  4  1  0
  4  5  1  0
  5  6  1  0
  6  7  2  0
  7  8  1  0
  8  9  1  0
  9 10  1  0
 10 11  1  0
  2 12  1  0
 12 13  1  0
 13 14  1  0
 14 15  1  0
 15 16  1  0
 16 17  1  0
 17 18  1  0
 18 19  1  0
 19 20  1  0
 20 21  2  0
 20 22  1  0
 22 23  2  0
 23 24  1  0
 24 25  2  0
 25 26  1  0
 26 27  2  0
 27 28  1  0
 15 29  1  0
 29 30  1  0
 11  6  1  0
 30 12  1  0
 28 18  2  0
 28 23  1  0
  3 31  1  0
  4 32  1  0
  4 33  1  0
  5 34  1  0
  5 35  1  0
  7 36  1  0
  8 37  1  0
  8 38  1  0
  9 39  1  0
  9 40  1  0
 10 41  1  0
 10 42  1  0
 11 43  1  0
 11 44  1  0
 12 45  1  0
 13 46  1  0
 13 47  1  0
 14 48  1  0
 14 49  1  0
 15 50  1  0
 16 51  1  0
 16 52  1  0
 17 53  1  0
 19 54  1  0
 24 55  1  0
 25 56  1  0
 26 57  1  0
 27 58  1  0
 29 59  1  0
 29 60  1  0
 30 61  1  0
 30 62  1  0
M  END
$$$$
