
     RDKit          3D

 55 58  0  0  0  0  0  0  0  0999 V2000
    2.5136   -1.8808    0.8345 C   0  0  0  0  0  0  0  0  0  0  0  0
    2.8718   -0.5689    0.4143 O   0  0  0  0  0  0  0  0  0  0  0  0
    4.1361   -0.3892   -0.0858 C   0  0  0  0  0  0  0  0  0  0  0  0
    5.1335   -1.3692   -0.1078 C   0  0  0  0  0  0  0  0  0  0  0  0
    6.4020   -1.0750   -0.6162 C   0  0  0  0  0  0  0  0  0  0  0  0
    6.6857    0.1998   -1.0984 C   0  0  0  0  0  0  0  0  0  0  0  0
    5.6992    1.1845   -1.0803 C   0  0  0  0  0  0  0  0  0  0  0  0
    4.4155    0.8984   -0.5870 C   0  0  0  0  0  0  0  0  0  0  0  0
    3.3612    1.9825   -0.5724 C   0  0  0  0  0  0  0  0  0  0  0  0
    3.2117    2.5551    0.7688 N   0  0  0  0  0  0  0  0  0  0  0  0
    1.9024    3.5739    1.0282 S   0  0  0  0  0  6  0  0  0  0  0  0
    1.8804    4.5509   -0.0386 O   0  0  0  0  0  0  0  0  0  0  0  0
    1.9292    3.9608    2.4207 O   0  0  0  0  0  0  0  0  0  0  0  0
    0.5117    2.4856    0.8119 C   0  0  0  0  0  0  0  0  0  0  0  0
    0.2875    1.4748    1.7634 C   0  0  0  0  0  0  0  0  0  0  0  0
   -0.7739    0.5787    1.5993 C   0  0  0  0  0  0  0  0  0  0  0  0
   -1.6032    0.7260    0.4987 C   0  0  0  0  0  0  0  0  0  0  0  0
   -1.3822    1.7475   -0.4318 C   0  0  0  0  0  0  0  0  0  0  0  0
   -0.3278    2.6380   -0.2958 C   0  0  0  0  0  0  0  0  0  0  0  0
   -2.3505    1.6542   -1.5701 C   0  0  0  0  0  0  0  0  0  0  0  0
   -3.3985    0.6724   -1.0018 C   0  0  0  0  0  0  0  0  0  0  0  0
   -4.6257    1.4439   -0.4992 C   0  0  0  0  0  0  0  0  0  0  0  0
   -2.7222   -0.0430    0.1115 N   0  0  0  0  0  0  0  0  0  0  0  0
   -3.1015   -1.2574    0.6814 C   0  0  0  0  0  0  0  0  0  0  0  0
   -2.5193   -1.7495    1.6569 O   0  0  0  0  0  0  0  0  0  0  0  0
   -4.2853   -2.0042   -0.0115 C   0  0  0  0  0  0  0  0  0  0  0  0
   -3.9563   -2.8037   -1.3040 C   0  0  0  0  0  0  0  0  0  0  0  0
   -3.8375   -4.0658   -0.4336 C   0  0  0  0  0  0  0  0  0  0  0  0
   -4.7366   -3.3637    0.5975 C   0  0  0  0  0  0  0  0  0  0  0  0
    1.4659   -1.8568    1.1506 H   0  0  0  0  0  0  0  0  0  0  0  0
    2.5963   -2.5971    0.0101 H   0  0  0  0  0  0  0  0  0  0  0  0
    3.1137   -2.1944    1.6951 H   0  0  0  0  0  0  0  0  0  0  0  0
    4.9606   -2.3712    0.2709 H   0  0  0  0  0  0  0  0  0  0  0  0
    7.1725   -1.8424   -0.6267 H   0  0  0  0  0  0  0  0  0  0  0  0
    7.6762    0.4291   -1.4840 H   0  0  0  0  0  0  0  0  0  0  0  0
    5.9358    2.1815   -1.4489 H   0  0  0  0  0  0  0  0  0  0  0  0
    2.4217    1.5526   -0.9348 H   0  0  0  0  0  0  0  0  0  0  0  0
    3.6346    2.7783   -1.2750 H   0  0  0  0  0  0  0  0  0  0  0  0
    3.3349    1.8864    1.5278 H   0  0  0  0  0  0  0  0  0  0  0  0
    0.9386    1.3777    2.6299 H   0  0  0  0  0  0  0  0  0  0  0  0
   -0.9332   -0.1986    2.3384 H   0  0  0  0  0  0  0  0  0  0  0  0
   -0.1541    3.4147   -1.0351 H   0  0  0  0  0  0  0  0  0  0  0  0
   -2.7728    2.6246   -1.8464 H   0  0  0  0  0  0  0  0  0  0  0  0
   -1.8442    1.2139   -2.4363 H   0  0  0  0  0  0  0  0  0  0  0  0
   -3.7132   -0.0402   -1.7711 H   0  0  0  0  0  0  0  0  0  0  0  0
   -4.3461    2.2074    0.2360 H   0  0  0  0  0  0  0  0  0  0  0  0
   -5.1295    1.9452   -1.3314 H   0  0  0  0  0  0  0  0  0  0  0  0
   -5.3521    0.7886   -0.0143 H   0  0  0  0  0  0  0  0  0  0  0  0
   -5.1528   -1.3480   -0.1350 H   0  0  0  0  0  0  0  0  0  0  0  0
   -4.7849   -2.8343   -2.0210 H   0  0  0  0  0  0  0  0  0  0  0  0
   -3.0432   -2.5195   -1.8339 H   0  0  0  0  0  0  0  0  0  0  0  0
   -2.8204   -4.2582   -0.0745 H   0  0  0  0  0  0  0  0  0  0  0  0
   -4.2402   -4.9833   -0.8692 H   0  0  0  0  0  0  0  0  0  0  0  0
   -4.4798   -3.5445    1.6445 H   0  0  0  0  0  0  0  0  0  0  0  0
   -5.8053   -3.5684    0.4620 H   0  0  0  0  0  0  0  0  0  0  0  0
  1  2  1  0
  2  3  1  0
  3  4  2  0
  4  5  1  0
  5  6  2  0
  6  7  1  0
  7  8  2  0
  8  9  1  0
  9 10  1  0
 10 11  1  0
 11 12  2  0
 11 13  2  0
 11 14  1  0
 14 15  2  0
 15 16  1  0
 16 17  2  0
 17 18  1  0
 18 19  2  0
 18 20  1  0
 20 21  1  0
 21 22  1  0
 21 23  1  0
 23 24  1  0
 24 25  2  0
 24 26  1  0
 26 27  1  0
 27 28  1  0
 28 29  1  0
  8  3  1  0
 19 14  1  0
 29 26  1  0
 23 17  1  0
  1 30  1  0
  1 31  1  0
  1 32  1  0
  4 33  1  0
  5 34  1  0
  6 35  1  0
  7 36  1  0
  9 37  1  0
  9 38  1  0
 10 39  1  0
 15 40  1  0
 16 41  1  0
 19 42  1  0
 20 43  1  0
 20 44  1  0
 21 45  1  0
 22 46  1  0
 22 47  1  0
 22 48  1  0
 26 49  1  0
 27 50  1  0
 27 51  1  0
 28 52  1  0
 28 53  1  0
 29 54  1  0
 29 55  1  0
M  END
$$$$
