
     RDKit          3D

 49 51  0  0  0  0  0  0  0  0999 V2000
   -1.0859    3.8257   -0.0133 O   0  0  0  0  0  0  0  0  0  0  0  0
   -0.9971    2.6958   -0.4843 C   0  0  0  0  0  0  0  0  0  0  0  0
   -1.9125    2.2526   -1.6086 C   0  0  0  0  0  0  0  0  0  0  0  0
   -3.1869    1.6052   -1.0665 C   0  0  0  0  0  0  0  0  0  0  0  0
   -2.9824    0.3011   -0.4060 N   0  0  0  0  0  0  0  0  0  0  0  0
   -4.1744   -0.0457    0.3892 C   0  0  0  0  0  0  0  0  0  0  0  0
   -3.9838   -1.3586    1.1471 C   0  0  0  0  0  0  0  0  0  0  0  0
   -3.6313   -2.4995    0.1991 C   0  0  0  0  0  0  0  0  0  0  0  0
   -2.4390   -2.1104   -0.6670 C   0  0  0  0  0  0  0  0  0  0  0  0
   -2.6707   -0.7700   -1.3695 C   0  0  0  0  0  0  0  0  0  0  0  0
   -0.0968    1.7226   -0.1106 N   0  0  0  0  0  0  0  0  0  0  0  0
    0.8611    1.7541    0.9281 C   0  0  0  0  0  0  0  0  0  0  0  0
    0.8892    2.7743    1.8861 C   0  0  0  0  0  0  0  0  0  0  0  0
    1.8150    2.7480    2.9341 C   0  0  0  0  0  0  0  0  0  0  0  0
    2.7186    1.6960    3.0354 C   0  0  0  0  0  0  0  0  0  0  0  0
    3.9539    1.6538    4.4643 Br  0  0  0  0  0  0  0  0  0  0  0  0
    2.7226    0.6745    2.0891 C   0  0  0  0  0  0  0  0  0  0  0  0
    1.8123    0.7107    1.0204 C   0  0  0  0  0  0  0  0  0  0  0  0
    1.8717   -0.3553   -0.0243 C   0  0  0  0  0  0  0  0  0  0  0  0
    0.8412   -0.7267   -0.5828 O   0  0  0  0  0  0  0  0  0  0  0  0
    3.1594   -0.9633   -0.4406 C   0  0  0  0  0  0  0  0  0  0  0  0
    3.1884   -2.3312   -0.7378 C   0  0  0  0  0  0  0  0  0  0  0  0
    4.3816   -2.9306   -1.1458 C   0  0  0  0  0  0  0  0  0  0  0  0
    5.5408   -2.1631   -1.2704 C   0  0  0  0  0  0  0  0  0  0  0  0
    5.5086   -0.7945   -0.9969 C   0  0  0  0  0  0  0  0  0  0  0  0
    4.3179   -0.1896   -0.5882 C   0  0  0  0  0  0  0  0  0  0  0  0
   -1.3739    1.6023   -2.3058 H   0  0  0  0  0  0  0  0  0  0  0  0
   -2.1772    3.1497   -2.1838 H   0  0  0  0  0  0  0  0  0  0  0  0
   -3.6252    2.3098   -0.3460 H   0  0  0  0  0  0  0  0  0  0  0  0
   -3.9143    1.5037   -1.8831 H   0  0  0  0  0  0  0  0  0  0  0  0
   -5.0622   -0.1170   -0.2541 H   0  0  0  0  0  0  0  0  0  0  0  0
   -4.3692    0.7436    1.1279 H   0  0  0  0  0  0  0  0  0  0  0  0
   -3.1875   -1.2400    1.8940 H   0  0  0  0  0  0  0  0  0  0  0  0
   -4.9020   -1.6026    1.6943 H   0  0  0  0  0  0  0  0  0  0  0  0
   -3.4045   -3.4077    0.7675 H   0  0  0  0  0  0  0  0  0  0  0  0
   -4.4930   -2.7265   -0.4426 H   0  0  0  0  0  0  0  0  0  0  0  0
   -2.2568   -2.8960   -1.4110 H   0  0  0  0  0  0  0  0  0  0  0  0
   -1.5395   -2.0489   -0.0399 H   0  0  0  0  0  0  0  0  0  0  0  0
   -3.4825   -0.8768   -2.1023 H   0  0  0  0  0  0  0  0  0  0  0  0
   -1.7620   -0.5272   -1.9285 H   0  0  0  0  0  0  0  0  0  0  0  0
   -0.1602    0.8293   -0.6053 H   0  0  0  0  0  0  0  0  0  0  0  0
    0.1787    3.5962    1.8610 H   0  0  0  0  0  0  0  0  0  0  0  0
    1.8052    3.5484    3.6706 H   0  0  0  0  0  0  0  0  0  0  0  0
    3.4291   -0.1463    2.1905 H   0  0  0  0  0  0  0  0  0  0  0  0
    2.2833   -2.9307   -0.6528 H   0  0  0  0  0  0  0  0  0  0  0  0
    4.4061   -3.9942   -1.3725 H   0  0  0  0  0  0  0  0  0  0  0  0
    6.4693   -2.6306   -1.5928 H   0  0  0  0  0  0  0  0  0  0  0  0
    6.4108   -0.1972   -1.1123 H   0  0  0  0  0  0  0  0  0  0  0  0
    4.3061    0.8829   -0.4076 H   0  0  0  0  0  0  0  0  0  0  0  0
  1  2  2  0
  2  3  1  0
  3  4  1  0
  4  5  1  0
  5  6  1  0
  6  7  1  0
  7  8  1  0
  8  9  1  0
  9 10  1  0
  2 11  1  0
 11 12  1  0
 12 13  2  0
 13 14  1  0
 14 15  2  0
 15 16  1  0
 15 17  1  0
 17 18  2  0
 18 19  1  0
 19 20  2  0
 19 21  1  0
 21 22  2  0
 22 23  1  0
 23 24  2  0
 24 25  1  0
 25 26  2  0
 10  5  1  0
 18 12  1  0
 26 21  1  0
  3 27  1  0
  3 28  1  0
  4 29  1  0
  4 30  1  0
  6 31  1  0
  6 32  1  0
  7 33  1  0
  7 34  1  0
  8 35  1  0
  8 36  1  0
  9 37  1  0
  9 38  1  0
 10 39  1  0
 10 40  1  0
 11 41  1  0
 13 42  1  0
 14 43  1  0
 17 44  1  0
 22 45  1  0
 23 46  1  0
 24 47  1  0
 25 48  1  0
 26 49  1  0
M  END
$$$$
