
     RDKit          3D

 40 41  0  0  0  0  0  0  0  0999 V2000
   -4.9675    1.6825    1.4656 C   0  0  0  0  0  0  0  0  0  0  0  0
   -4.0000    0.5270    1.2068 C   0  0  0  0  0  0  0  0  0  0  0  0
   -4.2106   -0.0804   -0.1917 C   0  0  0  0  0  0  0  0  0  0  0  0
   -3.1717    0.4024   -1.1978 C   0  0  0  0  0  0  0  0  0  0  0  0
   -1.8124    0.0944   -0.7602 N   0  0  0  0  0  0  0  0  0  0  0  0
   -0.8158    0.0366   -1.7330 C   0  0  0  0  0  0  0  0  0  0  0  0
   -1.0031    0.3135   -2.9155 O   0  0  0  0  0  0  0  0  0  0  0  0
    0.5466   -0.3844   -1.3364 C   0  0  0  0  0  0  0  0  0  0  0  0
    0.7583   -1.6078   -0.6906 C   0  0  0  0  0  0  0  0  0  0  0  0
    2.0541   -1.9868   -0.3349 C   0  0  0  0  0  0  0  0  0  0  0  0
    3.1311   -1.1541   -0.6475 C   0  0  0  0  0  0  0  0  0  0  0  0
    4.4449   -1.5101   -0.2253 N   0  0  0  0  0  0  0  0  0  0  0  0
    4.9454   -0.9201    1.2835 S   0  0  0  0  0  6  0  0  0  0  0  0
    6.0394    0.3928    0.7898 C   0  0  0  0  0  0  0  0  0  0  0  0
    3.8247   -0.3563    2.0019 O   0  0  0  0  0  0  0  0  0  0  0  0
    5.7555   -1.9746    1.8559 O   0  0  0  0  0  0  0  0  0  0  0  0
    2.9221    0.0606   -1.3020 C   0  0  0  0  0  0  0  0  0  0  0  0
    1.6280    0.4406   -1.6619 C   0  0  0  0  0  0  0  0  0  0  0  0
   -1.5540    0.1040    0.6838 C   0  0  0  0  0  0  0  0  0  0  0  0
   -2.5499    0.9880    1.4281 C   0  0  0  0  0  0  0  0  0  0  0  0
   -4.8193    2.0957    2.4689 H   0  0  0  0  0  0  0  0  0  0  0  0
   -4.8259    2.4904    0.7398 H   0  0  0  0  0  0  0  0  0  0  0  0
   -6.0061    1.3424    1.3946 H   0  0  0  0  0  0  0  0  0  0  0  0
   -4.2286   -0.2562    1.9421 H   0  0  0  0  0  0  0  0  0  0  0  0
   -5.2206    0.1243   -0.5648 H   0  0  0  0  0  0  0  0  0  0  0  0
   -4.1280   -1.1726   -0.1094 H   0  0  0  0  0  0  0  0  0  0  0  0
   -3.3539   -0.0629   -2.1732 H   0  0  0  0  0  0  0  0  0  0  0  0
   -3.2393    1.4882   -1.3355 H   0  0  0  0  0  0  0  0  0  0  0  0
   -0.0788   -2.2635   -0.4661 H   0  0  0  0  0  0  0  0  0  0  0  0
    2.2108   -2.9236    0.1925 H   0  0  0  0  0  0  0  0  0  0  0  0
    4.6546   -2.5099   -0.2674 H   0  0  0  0  0  0  0  0  0  0  0  0
    5.4640    1.1657    0.2782 H   0  0  0  0  0  0  0  0  0  0  0  0
    6.8154   -0.0162    0.1402 H   0  0  0  0  0  0  0  0  0  0  0  0
    6.4934    0.8079    1.6923 H   0  0  0  0  0  0  0  0  0  0  0  0
    3.7574    0.7084   -1.5488 H   0  0  0  0  0  0  0  0  0  0  0  0
    1.4591    1.3768   -2.1892 H   0  0  0  0  0  0  0  0  0  0  0  0
   -1.6316   -0.9304    1.0372 H   0  0  0  0  0  0  0  0  0  0  0  0
   -0.5379    0.4580    0.8830 H   0  0  0  0  0  0  0  0  0  0  0  0
   -2.3231    0.9861    2.5007 H   0  0  0  0  0  0  0  0  0  0  0  0
   -2.4266    2.0234    1.0837 H   0  0  0  0  0  0  0  0  0  0  0  0
  1  2  1  0
  2  3  1  0
  3  4  1  0
  4  5  1  0
  5  6  1  0
  6  7  2  0
  6  8  1  0
  8  9  2  0
  9 10  1  0
 10 11  2  0
 11 12  1  0
 12 13  1  0
 13 14  1  0
 13 15  2  0
 13 16  2  0
 11 17  1  0
 17 18  2  0
  5 19  1  0
 19 20  1  0
 20  2  1  0
 18  8  1  0
  1 21  1  0
  1 22  1  0
  1 23  1  0
  2 24  1  0
  3 25  1  0
  3 26  1  0
  4 27  1  0
  4 28  1  0
  9 29  1  0
 10 30  1  0
 12 31  1  0
 14 32  1  0
 14 33  1  0
 14 34  1  0
 17 35  1  0
 18 36  1  0
 19 37  1  0
 19 38  1  0
 20 39  1  0
 20 40  1  0
M  END
$$$$
