
     RDKit          3D

 52 55  0  0  0  0  0  0  0  0999 V2000
    7.2884    1.5951   -0.4721 C   0  0  0  0  0  0  0  0  0  0  0  0
    6.3265    2.4682   -1.2632 C   0  0  0  0  0  0  0  0  0  0  0  0
    4.9175    1.9337   -1.2168 C   0  0  0  0  0  0  0  0  0  0  0  0
    4.4784    1.0025   -2.1667 C   0  0  0  0  0  0  0  0  0  0  0  0
    3.1771    0.4927   -2.1160 C   0  0  0  0  0  0  0  0  0  0  0  0
    2.3009    0.9063   -1.1080 C   0  0  0  0  0  0  0  0  0  0  0  0
    0.9160    0.3863   -1.0223 C   0  0  0  0  0  0  0  0  0  0  0  0
    0.0505    0.8110   -0.1522 N   0  0  0  0  0  0  0  0  0  0  0  0
   -1.1010    0.1022   -0.3455 N   0  0  0  0  0  0  0  0  0  0  0  0
   -2.2824    0.4721    0.2955 C   0  0  0  0  0  0  0  0  0  0  0  0
   -3.4972   -0.2033    0.0882 C   0  0  0  0  0  0  0  0  0  0  0  0
   -4.6749    0.1792    0.7437 C   0  0  0  0  0  0  0  0  0  0  0  0
   -4.6517    1.2518    1.6329 C   0  0  0  0  0  0  0  0  0  0  0  0
   -6.1389    1.7596    2.4392 S   0  0  0  0  0  6  0  0  0  0  0  0
   -6.0716    0.8918    3.8747 N   0  0  0  0  0  0  0  0  0  0  0  0
   -7.2761    1.2386    1.7162 O   0  0  0  0  0  0  0  0  0  0  0  0
   -6.0316    3.1511    2.8112 O   0  0  0  0  0  0  0  0  0  0  0  0
   -3.4698    1.9532    1.8548 C   0  0  0  0  0  0  0  0  0  0  0  0
   -2.3023    1.5566    1.1934 C   0  0  0  0  0  0  0  0  0  0  0  0
   -0.9600   -0.9592   -1.3442 C   0  0  0  0  0  0  0  0  0  0  0  0
   -0.9868   -2.3595   -0.7443 C   0  0  0  0  0  0  0  0  0  0  0  0
   -1.5186   -3.4227   -1.4969 C   0  0  0  0  0  0  0  0  0  0  0  0
   -1.5347   -4.7198   -0.9805 C   0  0  0  0  0  0  0  0  0  0  0  0
   -1.0157   -4.9615    0.2854 C   0  0  0  0  0  0  0  0  0  0  0  0
   -1.0315   -6.2070    0.7775 F   0  0  0  0  0  0  0  0  0  0  0  0
   -0.4781   -3.9314    1.0452 C   0  0  0  0  0  0  0  0  0  0  0  0
   -0.4597   -2.6339    0.5310 C   0  0  0  0  0  0  0  0  0  0  0  0
    0.4019   -0.6591   -1.9730 C   0  0  0  0  0  0  0  0  0  0  0  0
    2.7370    1.8330   -0.1546 C   0  0  0  0  0  0  0  0  0  0  0  0
    4.0373    2.3408   -0.2071 C   0  0  0  0  0  0  0  0  0  0  0  0
    8.3013    2.0068   -0.5213 H   0  0  0  0  0  0  0  0  0  0  0  0
    7.3173    0.5747   -0.8694 H   0  0  0  0  0  0  0  0  0  0  0  0
    6.9965    1.5369    0.5819 H   0  0  0  0  0  0  0  0  0  0  0  0
    6.6600    2.5380   -2.3057 H   0  0  0  0  0  0  0  0  0  0  0  0
    6.3462    3.4917   -0.8696 H   0  0  0  0  0  0  0  0  0  0  0  0
    5.1505    0.6681   -2.9546 H   0  0  0  0  0  0  0  0  0  0  0  0
    2.8746   -0.2222   -2.8748 H   0  0  0  0  0  0  0  0  0  0  0  0
   -3.5544   -1.0503   -0.5887 H   0  0  0  0  0  0  0  0  0  0  0  0
   -5.5960   -0.3668    0.5536 H   0  0  0  0  0  0  0  0  0  0  0  0
   -6.8576    0.2438    3.9256 H   0  0  0  0  0  0  0  0  0  0  0  0
   -6.0101    1.5338    4.6649 H   0  0  0  0  0  0  0  0  0  0  0  0
   -3.4399    2.8023    2.5329 H   0  0  0  0  0  0  0  0  0  0  0  0
   -1.3853    2.1119    1.3821 H   0  0  0  0  0  0  0  0  0  0  0  0
   -1.7398   -0.8678   -2.1113 H   0  0  0  0  0  0  0  0  0  0  0  0
   -1.9262   -3.2474   -2.4905 H   0  0  0  0  0  0  0  0  0  0  0  0
   -1.9477   -5.5424   -1.5557 H   0  0  0  0  0  0  0  0  0  0  0  0
   -0.0784   -4.1405    2.0323 H   0  0  0  0  0  0  0  0  0  0  0  0
   -0.0396   -1.8312    1.1365 H   0  0  0  0  0  0  0  0  0  0  0  0
    1.0684   -1.5237   -2.0334 H   0  0  0  0  0  0  0  0  0  0  0  0
    0.2852   -0.2064   -2.9634 H   0  0  0  0  0  0  0  0  0  0  0  0
    2.0687    2.1649    0.6374 H   0  0  0  0  0  0  0  0  0  0  0  0
    4.3573    3.0571    0.5469 H   0  0  0  0  0  0  0  0  0  0  0  0
  1  2  1  0
  2  3  1  0
  3  4  2  0
  4  5  1  0
  5  6  2  0
  6  7  1  0
  7  8  2  0
  8  9  1  0
  9 10  1  0
 10 11  2  0
 11 12  1  0
 12 13  2  0
 13 14  1  0
 14 15  1  0
 14 16  2  0
 14 17  2  0
 13 18  1  0
 18 19  2  0
  9 20  1  0
 20 21  1  0
 21 22  2  0
 22 23  1  0
 23 24  2  0
 24 25  1  0
 24 26  1  0
 26 27  2  0
 20 28  1  0
  6 29  1  0
 29 30  2  0
 30  3  1  0
 28  7  1  0
 19 10  1  0
 27 21  1  0
  1 31  1  0
  1 32  1  0
  1 33  1  0
  2 34  1  0
  2 35  1  0
  4 36  1  0
  5 37  1  0
 11 38  1  0
 12 39  1  0
 15 40  1  0
 15 41  1  0
 18 42  1  0
 19 43  1  0
 20 44  1  0
 22 45  1  0
 23 46  1  0
 26 47  1  0
 27 48  1  0
 28 49  1  0
 28 50  1  0
 29 51  1  0
 30 52  1  0
M  END
$$$$
