
     RDKit          3D

 39 41  0  0  0  0  0  0  0  0999 V2000
   -2.6485   -2.5470    0.8771 C   0  0  0  0  0  0  0  0  0  0  0  0
   -2.7805   -1.2757    0.1109 C   0  0  0  0  0  0  0  0  0  0  0  0
   -4.0114   -0.7192   -0.1025 N   0  0  0  0  0  0  0  0  0  0  0  0
   -3.8993    0.4414   -0.8225 C   0  0  0  0  0  0  0  0  0  0  0  0
   -4.9100    1.3120   -1.2524 C   0  0  0  0  0  0  0  0  0  0  0  0
   -4.5355    2.4439   -1.9740 C   0  0  0  0  0  0  0  0  0  0  0  0
   -3.1985    2.6916   -2.2519 C   0  0  0  0  0  0  0  0  0  0  0  0
   -2.2010    1.8090   -1.8135 C   0  0  0  0  0  0  0  0  0  0  0  0
   -2.5400    0.6469   -1.0789 C   0  0  0  0  0  0  0  0  0  0  0  0
   -1.8184   -0.4573   -0.4825 C   0  0  0  0  0  0  0  0  0  0  0  0
   -0.3737   -0.7650   -0.4396 C   0  0  0  0  0  0  0  0  0  0  0  0
    0.0404   -1.7768    0.1394 O   0  0  0  0  0  0  0  0  0  0  0  0
    0.6459    0.1527   -1.1300 C   0  0  0  0  0  0  0  0  0  0  0  0
    0.6919   -0.1668   -2.6195 C   0  0  0  0  0  0  0  0  0  0  0  0
    1.9775   -0.0834   -0.6308 O   0  0  0  0  0  0  0  0  0  0  0  0
    2.1846    0.3573    0.6455 C   0  0  0  0  0  0  0  0  0  0  0  0
    1.3738    1.0181    1.2822 O   0  0  0  0  0  0  0  0  0  0  0  0
    3.4940   -0.0558    1.0953 C   0  0  0  0  0  0  0  0  0  0  0  0
    4.4795   -0.8417    0.5133 C   0  0  0  0  0  0  0  0  0  0  0  0
    5.5593   -0.9097    1.4303 C   0  0  0  0  0  0  0  0  0  0  0  0
    5.1639   -0.1595    2.5109 C   0  0  0  0  0  0  0  0  0  0  0  0
    5.8190    0.1474    3.7437 N   0  0  0  0  0  4  0  0  0  0  0  0
    5.2284    0.8747    4.5511 O   0  0  0  0  0  0  0  0  0  0  0  0
    6.9449   -0.3455    3.8999 O   0  0  0  0  0  1  0  0  0  0  0  0
    3.9242    0.3660    2.3309 O   0  0  0  0  0  0  0  0  0  0  0  0
   -2.1841   -3.3211    0.2580 H   0  0  0  0  0  0  0  0  0  0  0  0
   -2.0355   -2.3940    1.7709 H   0  0  0  0  0  0  0  0  0  0  0  0
   -3.6239   -2.9232    1.2033 H   0  0  0  0  0  0  0  0  0  0  0  0
   -4.8876   -1.1022    0.2255 H   0  0  0  0  0  0  0  0  0  0  0  0
   -5.9551    1.1184   -1.0310 H   0  0  0  0  0  0  0  0  0  0  0  0
   -5.2977    3.1387   -2.3186 H   0  0  0  0  0  0  0  0  0  0  0  0
   -2.9203    3.5806   -2.8132 H   0  0  0  0  0  0  0  0  0  0  0  0
   -1.1757    2.0564   -2.0602 H   0  0  0  0  0  0  0  0  0  0  0  0
    0.4009    1.2041   -0.9653 H   0  0  0  0  0  0  0  0  0  0  0  0
   -0.2818   -0.0486   -3.1020 H   0  0  0  0  0  0  0  0  0  0  0  0
    1.4144    0.4821   -3.1262 H   0  0  0  0  0  0  0  0  0  0  0  0
    1.0247   -1.1982   -2.7853 H   0  0  0  0  0  0  0  0  0  0  0  0
    4.4135   -1.3143   -0.4585 H   0  0  0  0  0  0  0  0  0  0  0  0
    6.4977   -1.4364    1.3197 H   0  0  0  0  0  0  0  0  0  0  0  0
  1  2  1  0
  2  3  1  0
  3  4  1  0
  4  5  2  0
  5  6  1  0
  6  7  2  0
  7  8  1  0
  8  9  2  0
  9 10  1  0
 10 11  1  0
 11 12  2  0
 11 13  1  0
 13 14  1  0
 13 15  1  0
 15 16  1  0
 16 17  2  0
 16 18  1  0
 18 19  2  0
 19 20  1  0
 20 21  2  0
 21 22  1  0
 22 23  2  0
 22 24  1  0
 21 25  1  0
 10  2  2  0
 25 18  1  0
  9  4  1  0
  1 26  1  0
  1 27  1  0
  1 28  1  0
  3 29  1  0
  5 30  1  0
  6 31  1  0
  7 32  1  0
  8 33  1  0
 13 34  1  0
 14 35  1  0
 14 36  1  0
 14 37  1  0
 19 38  1  0
 20 39  1  0
M  CHG  2  22   1  24  -1
M  END
$$$$
