
     RDKit          3D

 48 51  0  0  0  0  0  0  0  0999 V2000
   10.0617   -0.7559    3.0202 C   0  0  0  0  0  0  0  0  0  0  0  0
    8.8035   -0.2979    2.3807 C   0  0  0  0  0  0  0  0  0  0  0  0
    8.6405   -0.1044    1.0889 N   0  0  0  0  0  0  0  0  0  0  0  0
    7.3627    0.3245    0.7872 N   0  0  0  0  0  0  0  0  0  0  0  0
    6.6108    0.4404    1.8602 C   0  0  0  0  0  0  0  0  0  0  0  0
    4.9484    0.9703    1.8061 S   0  0  0  0  0  0  0  0  0  0  0  0
    4.6908    1.0408    0.0066 C   0  0  0  0  0  0  0  0  0  0  0  0
    3.2672    1.4559   -0.2934 C   0  0  0  0  0  0  0  0  0  0  0  0
    2.9911    2.7081   -0.6874 C   0  0  0  0  0  0  0  0  0  0  0  0
    1.5945    3.0512   -0.9747 C   0  0  0  0  0  0  0  0  0  0  0  0
    1.2763    4.1755   -1.3414 O   0  0  0  0  0  0  0  0  0  0  0  0
    0.7103    2.0325   -0.8056 N   0  0  0  0  0  0  0  0  0  0  0  0
    1.0703    0.7696   -0.4210 C   0  0  0  0  0  0  0  0  0  0  0  0
    0.1226   -0.1940   -0.2944 N   0  0  0  0  0  0  0  0  0  0  0  0
   -1.2451   -0.1152   -0.4855 C   0  0  0  0  0  0  0  0  0  0  0  0
   -1.8109    1.0416   -0.8656 N   0  0  0  0  0  0  0  0  0  0  0  0
   -3.1523    1.0618   -1.0354 C   0  0  0  0  0  0  0  0  0  0  0  0
   -3.7292    2.3833   -1.4574 C   0  0  0  0  0  0  0  0  0  0  0  0
   -3.9552   -0.0656   -0.8344 C   0  0  0  0  0  0  0  0  0  0  0  0
   -5.3623   -0.1138   -0.9962 C   0  0  0  0  0  0  0  0  0  0  0  0
   -6.0834   -1.2945   -0.7707 C   0  0  0  0  0  0  0  0  0  0  0  0
   -7.5756   -1.3021   -0.9576 C   0  0  0  0  0  0  0  0  0  0  0  0
   -5.3851   -2.4465   -0.3805 C   0  0  0  0  0  0  0  0  0  0  0  0
   -6.0923   -3.7483   -0.1207 C   0  0  0  0  0  0  0  0  0  0  0  0
   -3.9890   -2.3782   -0.2232 C   0  0  0  0  0  0  0  0  0  0  0  0
   -3.2641   -1.2135   -0.4428 C   0  0  0  0  0  0  0  0  0  0  0  0
   -1.9363   -1.2401   -0.2706 N   0  0  0  0  0  0  0  0  0  0  0  0
    2.3126    0.4678   -0.1735 N   0  0  0  0  0  0  0  0  0  0  0  0
    7.4076    0.0380    3.3239 S   0  0  0  0  0  0  0  0  0  0  0  0
    9.8858   -1.6292    3.6564 H   0  0  0  0  0  0  0  0  0  0  0  0
   10.7973   -1.0376    2.2599 H   0  0  0  0  0  0  0  0  0  0  0  0
   10.4959    0.0417    3.6312 H   0  0  0  0  0  0  0  0  0  0  0  0
    4.8887    0.0592   -0.4393 H   0  0  0  0  0  0  0  0  0  0  0  0
    5.4011    1.7521   -0.4303 H   0  0  0  0  0  0  0  0  0  0  0  0
    3.7309    3.4882   -0.7978 H   0  0  0  0  0  0  0  0  0  0  0  0
   -0.2683    2.2173   -0.9919 H   0  0  0  0  0  0  0  0  0  0  0  0
    0.4258   -1.1090   -0.0029 H   0  0  0  0  0  0  0  0  0  0  0  0
   -4.2267    2.2908   -2.4278 H   0  0  0  0  0  0  0  0  0  0  0  0
   -4.4435    2.7445   -0.7109 H   0  0  0  0  0  0  0  0  0  0  0  0
   -2.9409    3.1373   -1.5571 H   0  0  0  0  0  0  0  0  0  0  0  0
   -5.9014    0.7803   -1.3027 H   0  0  0  0  0  0  0  0  0  0  0  0
   -8.0749   -1.5978   -0.0293 H   0  0  0  0  0  0  0  0  0  0  0  0
   -7.8538   -1.9938   -1.7588 H   0  0  0  0  0  0  0  0  0  0  0  0
   -7.9518   -0.3108   -1.2308 H   0  0  0  0  0  0  0  0  0  0  0  0
   -5.3868   -4.5449    0.1391 H   0  0  0  0  0  0  0  0  0  0  0  0
   -6.6366   -4.0713   -1.0137 H   0  0  0  0  0  0  0  0  0  0  0  0
   -6.7911   -3.6400    0.7145 H   0  0  0  0  0  0  0  0  0  0  0  0
   -3.4398   -3.2683    0.0815 H   0  0  0  0  0  0  0  0  0  0  0  0
  1  2  1  0
  2  3  2  0
  3  4  1  0
  4  5  2  0
  5  6  1  0
  6  7  1  0
  7  8  1  0
  8  9  2  0
  9 10  1  0
 10 11  2  0
 10 12  1  0
 12 13  1  0
 13 14  1  0
 14 15  1  0
 15 16  2  0
 16 17  1  0
 17 18  1  0
 17 19  2  0
 19 20  1  0
 20 21  2  0
 21 22  1  0
 21 23  1  0
 23 24  1  0
 23 25  2  0
 25 26  1  0
 26 27  2  0
 13 28  2  0
  5 29  1  0
 29  2  1  0
 28  8  1  0
 27 15  1  0
 26 19  1  0
  1 30  1  0
  1 31  1  0
  1 32  1  0
  7 33  1  0
  7 34  1  0
  9 35  1  0
 12 36  1  0
 14 37  1  0
 18 38  1  0
 18 39  1  0
 18 40  1  0
 20 41  1  0
 22 42  1  0
 22 43  1  0
 22 44  1  0
 24 45  1  0
 24 46  1  0
 24 47  1  0
 25 48  1  0
M  END
$$$$
