
     RDKit          3D

 44 46  0  0  0  0  0  0  0  0999 V2000
    7.0449    1.3899   -1.6541 C   0  0  0  0  0  0  0  0  0  0  0  0
    5.6876    0.7947   -1.4196 C   0  0  0  0  0  0  0  0  0  0  0  0
    5.5609   -0.5677   -1.1195 C   0  0  0  0  0  0  0  0  0  0  0  0
    4.3008   -1.1350   -0.9113 C   0  0  0  0  0  0  0  0  0  0  0  0
    3.1499   -0.3441   -1.0102 C   0  0  0  0  0  0  0  0  0  0  0  0
    1.7841   -0.8925   -0.7990 C   0  0  0  0  0  0  0  0  0  0  0  0
    0.7594   -0.2615   -1.0125 O   0  0  0  0  0  0  0  0  0  0  0  0
    1.8404   -2.1695   -0.3373 O   0  0  0  0  0  0  0  0  0  0  0  0
    0.5663   -2.7004    0.0224 C   0  0  0  0  0  0  0  0  0  0  0  0
   -0.0052   -2.0833    1.3036 C   0  0  0  0  0  0  0  0  0  0  0  0
    0.6631   -1.4162    2.0891 O   0  0  0  0  0  0  0  0  0  0  0  0
   -1.3432   -2.3539    1.5098 N   0  0  0  0  0  0  0  0  0  0  0  0
   -2.0735   -1.7618    2.6207 C   0  0  0  0  0  0  0  0  0  0  0  0
   -2.8240   -0.4771    2.2483 C   0  0  0  0  0  0  0  0  0  0  0  0
   -1.9051    0.6520    1.7843 C   0  0  0  0  0  0  0  0  0  0  0  0
   -2.6662    1.8556    1.6018 O   0  0  0  0  0  0  0  0  0  0  0  0
   -3.8116    1.6162    0.8851 C   0  0  0  0  0  0  0  0  0  0  0  0
   -4.4591    2.7292    0.3520 C   0  0  0  0  0  0  0  0  0  0  0  0
   -5.6194    2.5622   -0.4074 C   0  0  0  0  0  0  0  0  0  0  0  0
   -6.1324    1.2812   -0.6293 C   0  0  0  0  0  0  0  0  0  0  0  0
   -5.4934    0.1667   -0.0814 C   0  0  0  0  0  0  0  0  0  0  0  0
   -4.3416    0.3352    0.6873 C   0  0  0  0  0  0  0  0  0  0  0  0
   -3.7790   -0.7997    1.2157 O   0  0  0  0  0  0  0  0  0  0  0  0
    3.2747    1.0160   -1.3241 C   0  0  0  0  0  0  0  0  0  0  0  0
    4.5349    1.5821   -1.5276 C   0  0  0  0  0  0  0  0  0  0  0  0
    7.0110    2.4849   -1.6196 H   0  0  0  0  0  0  0  0  0  0  0  0
    7.4223    1.0880   -2.6365 H   0  0  0  0  0  0  0  0  0  0  0  0
    7.7462    1.0575   -0.8818 H   0  0  0  0  0  0  0  0  0  0  0  0
    6.4450   -1.1978   -1.0438 H   0  0  0  0  0  0  0  0  0  0  0  0
    4.2364   -2.1943   -0.6721 H   0  0  0  0  0  0  0  0  0  0  0  0
    0.6941   -3.7732    0.2011 H   0  0  0  0  0  0  0  0  0  0  0  0
   -0.1447   -2.5894   -0.8083 H   0  0  0  0  0  0  0  0  0  0  0  0
   -1.8975   -2.6978    0.7343 H   0  0  0  0  0  0  0  0  0  0  0  0
   -1.3884   -1.5687    3.4527 H   0  0  0  0  0  0  0  0  0  0  0  0
   -2.7921   -2.5250    2.9392 H   0  0  0  0  0  0  0  0  0  0  0  0
   -3.3954   -0.1513    3.1303 H   0  0  0  0  0  0  0  0  0  0  0  0
   -1.1364    0.8635    2.5357 H   0  0  0  0  0  0  0  0  0  0  0  0
   -1.4077    0.4221    0.8338 H   0  0  0  0  0  0  0  0  0  0  0  0
   -4.0520    3.7230    0.5178 H   0  0  0  0  0  0  0  0  0  0  0  0
   -6.1203    3.4304   -0.8295 H   0  0  0  0  0  0  0  0  0  0  0  0
   -7.0331    1.1542   -1.2233 H   0  0  0  0  0  0  0  0  0  0  0  0
   -5.8981   -0.8268   -0.2458 H   0  0  0  0  0  0  0  0  0  0  0  0
    2.3878    1.6408   -1.4072 H   0  0  0  0  0  0  0  0  0  0  0  0
    4.6096    2.6415   -1.7674 H   0  0  0  0  0  0  0  0  0  0  0  0
  1  2  1  0
  2  3  2  0
  3  4  1  0
  4  5  2  0
  5  6  1  0
  6  7  2  0
  6  8  1  0
  8  9  1  0
  9 10  1  0
 10 11  2  0
 10 12  1  0
 12 13  1  0
 13 14  1  0
 14 15  1  0
 15 16  1  0
 16 17  1  0
 17 18  2  0
 18 19  1  0
 19 20  2  0
 20 21  1  0
 21 22  2  0
 22 23  1  0
  5 24  1  0
 24 25  2  0
 25  2  1  0
 23 14  1  0
 22 17  1  0
  1 26  1  0
  1 27  1  0
  1 28  1  0
  3 29  1  0
  4 30  1  0
  9 31  1  0
  9 32  1  0
 12 33  1  0
 13 34  1  0
 13 35  1  0
 14 36  1  0
 15 37  1  0
 15 38  1  0
 18 39  1  0
 19 40  1  0
 20 41  1  0
 21 42  1  0
 24 43  1  0
 25 44  1  0
M  END
$$$$
