
     RDKit          3D

 39 41  0  0  0  0  0  0  0  0999 V2000
   -1.0567   -2.9828   -1.6955 O   0  0  0  0  0  0  0  0  0  0  0  0
   -0.0875   -2.2469   -1.6832 C   0  0  0  0  0  0  0  0  0  0  0  0
    0.9193   -2.1746   -2.6302 N   0  0  0  0  0  0  0  0  0  0  0  0
    1.7009   -1.0537   -2.3580 N   0  0  0  0  0  0  0  0  0  0  0  0
    1.3220   -0.6242   -1.0922 C   0  0  0  0  0  0  0  0  0  0  0  0
    2.0767    0.4554   -0.4470 C   0  0  0  0  0  0  0  0  0  0  0  0
    2.6471    0.2561    0.8197 C   0  0  0  0  0  0  0  0  0  0  0  0
    3.3662    1.2773    1.4473 C   0  0  0  0  0  0  0  0  0  0  0  0
    3.5332    2.5065    0.8127 C   0  0  0  0  0  0  0  0  0  0  0  0
    2.9882    2.7147   -0.4526 C   0  0  0  0  0  0  0  0  0  0  0  0
    2.2719    1.6952   -1.0766 C   0  0  0  0  0  0  0  0  0  0  0  0
    1.7785    1.9781   -2.3227 O   0  0  0  0  0  0  0  0  0  0  0  0
    0.2269   -1.2532   -0.6259 C   0  0  0  0  0  0  0  0  0  0  0  0
   -0.5812   -1.0788    0.6262 C   0  0  0  0  0  0  0  0  0  0  0  0
   -1.0356   -2.4199    1.2220 C   0  0  0  0  0  0  0  0  0  0  0  0
   -1.3538   -2.2108    2.6723 N   0  0  0  0  0  4  0  0  0  0  0  0
   -0.3918   -2.0551    3.4374 O   0  0  0  0  0  0  0  0  0  0  0  0
   -2.5442   -2.2295    3.0054 O   0  0  0  0  0  1  0  0  0  0  0  0
   -1.7195   -0.0883    0.3973 C   0  0  0  0  0  0  0  0  0  0  0  0
   -1.6021    1.2235    0.8880 C   0  0  0  0  0  0  0  0  0  0  0  0
   -2.6179    2.1576    0.6789 C   0  0  0  0  0  0  0  0  0  0  0  0
   -3.7621    1.7978   -0.0276 C   0  0  0  0  0  0  0  0  0  0  0  0
   -3.8890    0.5056   -0.5304 C   0  0  0  0  0  0  0  0  0  0  0  0
   -2.8740   -0.4311   -0.3242 C   0  0  0  0  0  0  0  0  0  0  0  0
    0.7356   -2.4627   -3.5860 H   0  0  0  0  0  0  0  0  0  0  0  0
    2.7124   -1.2136   -2.4164 H   0  0  0  0  0  0  0  0  0  0  0  0
    2.5445   -0.6978    1.3328 H   0  0  0  0  0  0  0  0  0  0  0  0
    3.7980    1.1122    2.4318 H   0  0  0  0  0  0  0  0  0  0  0  0
    4.0916    3.3016    1.3003 H   0  0  0  0  0  0  0  0  0  0  0  0
    3.1207    3.6693   -0.9547 H   0  0  0  0  0  0  0  0  0  0  0  0
    1.3249    1.1836   -2.6602 H   0  0  0  0  0  0  0  0  0  0  0  0
    0.0854   -0.6182    1.3664 H   0  0  0  0  0  0  0  0  0  0  0  0
   -0.2369   -3.1710    1.2059 H   0  0  0  0  0  0  0  0  0  0  0  0
   -1.9275   -2.8479    0.7551 H   0  0  0  0  0  0  0  0  0  0  0  0
   -0.7151    1.5351    1.4372 H   0  0  0  0  0  0  0  0  0  0  0  0
   -2.5144    3.1677    1.0671 H   0  0  0  0  0  0  0  0  0  0  0  0
   -4.5535    2.5249   -0.1891 H   0  0  0  0  0  0  0  0  0  0  0  0
   -4.7798    0.2251   -1.0870 H   0  0  0  0  0  0  0  0  0  0  0  0
   -3.0014   -1.4271   -0.7440 H   0  0  0  0  0  0  0  0  0  0  0  0
  1  2  2  0
  2  3  1  0
  3  4  1  0
  4  5  1  0
  5  6  1  0
  6  7  2  0
  7  8  1  0
  8  9  2  0
  9 10  1  0
 10 11  2  0
 11 12  1  0
  5 13  2  0
 13 14  1  0
 14 15  1  0
 15 16  1  0
 16 17  2  0
 16 18  1  0
 14 19  1  0
 19 20  2  0
 20 21  1  0
 21 22  2  0
 22 23  1  0
 23 24  2  0
 13  2  1  0
 24 19  1  0
 11  6  1  0
  3 25  1  0
  4 26  1  0
  7 27  1  0
  8 28  1  0
  9 29  1  0
 10 30  1  0
 12 31  1  0
 14 32  1  0
 15 33  1  0
 15 34  1  0
 20 35  1  0
 21 36  1  0
 22 37  1  0
 23 38  1  0
 24 39  1  0
M  CHG  2  16   1  18  -1
M  END
$$$$
