
     RDKit          3D

 28 29  0  0  0  0  0  0  0  0999 V2000
   -1.5062   -1.0389   -2.7029 O   0  0  0  0  0  0  0  0  0  0  0  0
   -1.9162   -0.4616   -1.6962 C   0  0  0  0  0  0  0  0  0  0  0  0
   -3.3965   -0.3043   -1.4471 C   0  0  0  0  0  0  0  0  0  0  0  0
   -3.7613   -0.6685   -0.0977 N   0  0  0  0  0  0  0  0  0  0  0  0
   -4.4326   -1.7723    0.3204 C   0  0  0  0  0  0  0  0  0  0  0  0
   -4.5857   -1.7203    1.6234 N   0  0  0  0  0  0  0  0  0  0  0  0
   -3.9757   -0.5477    1.9641 C   0  0  0  0  0  0  0  0  0  0  0  0
   -3.4397    0.1324    0.9443 N   0  0  0  0  0  0  0  0  0  0  0  0
   -1.1164    0.1534   -0.7424 N   0  0  0  0  0  0  0  0  0  0  0  0
    0.2392    0.0906   -0.8457 N   0  0  0  0  0  0  0  0  0  0  0  0
    0.8933    0.6045    0.1461 C   0  0  0  0  0  0  0  0  0  0  0  0
    2.3694    0.6102    0.1793 C   0  0  0  0  0  0  0  0  0  0  0  0
    3.1113    0.0536   -0.8683 C   0  0  0  0  0  0  0  0  0  0  0  0
    4.5072    0.0696   -0.8168 C   0  0  0  0  0  0  0  0  0  0  0  0
    5.1530    0.6406    0.2793 C   0  0  0  0  0  0  0  0  0  0  0  0
    6.8720    0.6608    0.3434 Cl  0  0  0  0  0  0  0  0  0  0  0  0
    4.4156    1.1963    1.3258 C   0  0  0  0  0  0  0  0  0  0  0  0
    3.0188    1.1822    1.2779 C   0  0  0  0  0  0  0  0  0  0  0  0
   -3.9542   -0.9483   -2.1348 H   0  0  0  0  0  0  0  0  0  0  0  0
   -3.6946    0.7353   -1.6159 H   0  0  0  0  0  0  0  0  0  0  0  0
   -4.7785   -2.5572   -0.3387 H   0  0  0  0  0  0  0  0  0  0  0  0
   -3.9187   -0.1831    2.9821 H   0  0  0  0  0  0  0  0  0  0  0  0
   -1.5454    0.5114    0.1147 H   0  0  0  0  0  0  0  0  0  0  0  0
    0.3755    1.0605    1.0096 H   0  0  0  0  0  0  0  0  0  0  0  0
    2.6092   -0.3931   -1.7248 H   0  0  0  0  0  0  0  0  0  0  0  0
    5.0804   -0.3639   -1.6323 H   0  0  0  0  0  0  0  0  0  0  0  0
    4.9228    1.6402    2.1787 H   0  0  0  0  0  0  0  0  0  0  0  0
    2.4540    1.6174    2.0981 H   0  0  0  0  0  0  0  0  0  0  0  0
  1  2  2  0
  2  3  1  0
  3  4  1  0
  4  5  1  0
  5  6  2  0
  6  7  1  0
  7  8  2  0
  2  9  1  0
  9 10  1  0
 10 11  2  3
 11 12  1  0
 12 13  2  0
 13 14  1  0
 14 15  2  0
 15 16  1  0
 15 17  1  0
 17 18  2  0
  8  4  1  0
 18 12  1  0
  3 19  1  0
  3 20  1  0
  5 21  1  0
  7 22  1  0
  9 23  1  0
 11 24  1  0
 13 25  1  0
 14 26  1  0
 17 27  1  0
 18 28  1  0
M  END
$$$$
