
     RDKit          3D

 64 67  0  0  0  0  0  0  0  0999 V2000
    4.7391   -4.9178    0.1910 C   0  0  0  0  0  0  0  0  0  0  0  0
    4.8066   -3.5598   -0.4392 C   0  0  0  0  0  0  0  0  0  0  0  0
    5.4852   -2.5363    0.1827 C   0  0  0  0  0  0  0  0  0  0  0  0
    5.4722   -1.3354   -0.4814 C   0  0  0  0  0  0  0  0  0  0  0  0
    6.0995   -0.1776    0.0180 N   0  0  0  0  0  0  0  0  0  0  0  0
    5.4372    0.5026    1.4098 S   0  0  0  0  0  6  0  0  0  0  0  0
    5.5015   -0.4715    2.4806 O   0  0  0  0  0  0  0  0  0  0  0  0
    6.0332    1.8140    1.5560 O   0  0  0  0  0  0  0  0  0  0  0  0
    3.7271    0.7443    0.9836 C   0  0  0  0  0  0  0  0  0  0  0  0
    2.7448   -0.0840    1.5286 C   0  0  0  0  0  0  0  0  0  0  0  0
    1.4061    0.1241    1.1868 C   0  0  0  0  0  0  0  0  0  0  0  0
    1.0389    1.1600    0.3156 C   0  0  0  0  0  0  0  0  0  0  0  0
   -0.3344    1.2912    0.0257 N   0  0  0  0  0  0  0  0  0  0  0  0
   -0.9591    2.3092   -0.6644 C   0  0  0  0  0  0  0  0  0  0  0  0
   -0.4010    3.3412   -1.0408 O   0  0  0  0  0  0  0  0  0  0  0  0
   -2.4893    2.1633   -0.8664 C   0  0  0  0  0  0  0  0  0  0  0  0
   -3.3262    3.1518   -0.0257 C   0  0  0  0  0  0  0  0  0  0  0  0
   -3.5859    2.8418    1.4616 C   0  0  0  0  0  0  0  0  0  0  0  0
   -2.3360    2.9680    2.3308 C   0  0  0  0  0  0  0  0  0  0  0  0
   -4.6570    3.8049    1.9937 C   0  0  0  0  0  0  0  0  0  0  0  0
   -3.0768    0.8212   -0.9688 N   0  0  0  0  0  0  0  0  0  0  0  0
   -3.0376   -0.1635   -0.0232 C   0  0  0  0  0  0  0  0  0  0  0  0
   -2.3758   -0.2029    0.9982 O   0  0  0  0  0  0  0  0  0  0  0  0
   -3.9186   -1.2374   -0.4704 C   0  0  0  0  0  0  0  0  0  0  0  0
   -4.2118   -2.4581    0.1050 C   0  0  0  0  0  0  0  0  0  0  0  0
   -5.1178   -3.2801   -0.5729 C   0  0  0  0  0  0  0  0  0  0  0  0
   -5.6996   -2.8666   -1.7902 C   0  0  0  0  0  0  0  0  0  0  0  0
   -5.3841   -1.6250   -2.3509 C   0  0  0  0  0  0  0  0  0  0  0  0
   -4.4849   -0.8343   -1.6634 C   0  0  0  0  0  0  0  0  0  0  0  0
   -3.9691    0.4983   -1.9632 C   0  0  0  0  0  0  0  0  0  0  0  0
   -4.3352    1.1628   -2.9134 O   0  0  0  0  0  0  0  0  0  0  0  0
    2.0346    1.9839   -0.2162 C   0  0  0  0  0  0  0  0  0  0  0  0
    3.3775    1.7856    0.1222 C   0  0  0  0  0  0  0  0  0  0  0  0
    4.8685   -1.1113   -1.6528 N   0  0  0  0  0  0  0  0  0  0  0  0
    4.2204   -2.1639   -2.1766 C   0  0  0  0  0  0  0  0  0  0  0  0
    3.5090   -1.9566   -3.4769 C   0  0  0  0  0  0  0  0  0  0  0  0
    4.1611   -3.3851   -1.6121 N   0  0  0  0  0  0  0  0  0  0  0  0
    5.7389   -5.2544    0.4864 H   0  0  0  0  0  0  0  0  0  0  0  0
    4.3293   -5.6526   -0.5102 H   0  0  0  0  0  0  0  0  0  0  0  0
    4.0954   -4.8887    1.0758 H   0  0  0  0  0  0  0  0  0  0  0  0
    5.9993   -2.6703    1.1244 H   0  0  0  0  0  0  0  0  0  0  0  0
    6.2159    0.5246   -0.7092 H   0  0  0  0  0  0  0  0  0  0  0  0
    3.0048   -0.8860    2.2151 H   0  0  0  0  0  0  0  0  0  0  0  0
    0.6500   -0.5286    1.6188 H   0  0  0  0  0  0  0  0  0  0  0  0
   -0.9405    0.6279    0.5064 H   0  0  0  0  0  0  0  0  0  0  0  0
   -2.5874    2.5555   -1.8924 H   0  0  0  0  0  0  0  0  0  0  0  0
   -4.3041    3.2365   -0.5210 H   0  0  0  0  0  0  0  0  0  0  0  0
   -2.8704    4.1487   -0.0981 H   0  0  0  0  0  0  0  0  0  0  0  0
   -3.9905    1.8299    1.5650 H   0  0  0  0  0  0  0  0  0  0  0  0
   -2.5900    2.8763    3.3932 H   0  0  0  0  0  0  0  0  0  0  0  0
   -1.6128    2.1818    2.1131 H   0  0  0  0  0  0  0  0  0  0  0  0
   -1.8450    3.9366    2.1868 H   0  0  0  0  0  0  0  0  0  0  0  0
   -5.5889    3.7036    1.4265 H   0  0  0  0  0  0  0  0  0  0  0  0
   -4.3270    4.8462    1.9192 H   0  0  0  0  0  0  0  0  0  0  0  0
   -4.8862    3.5963    3.0439 H   0  0  0  0  0  0  0  0  0  0  0  0
   -3.7600   -2.7627    1.0440 H   0  0  0  0  0  0  0  0  0  0  0  0
   -5.3819   -4.2506   -0.1561 H   0  0  0  0  0  0  0  0  0  0  0  0
   -6.4060   -3.5225   -2.2968 H   0  0  0  0  0  0  0  0  0  0  0  0
   -5.8280   -1.2915   -3.2834 H   0  0  0  0  0  0  0  0  0  0  0  0
    1.7994    2.7938   -0.8998 H   0  0  0  0  0  0  0  0  0  0  0  0
    4.1346    2.4491   -0.2878 H   0  0  0  0  0  0  0  0  0  0  0  0
    2.7489   -1.1789   -3.3616 H   0  0  0  0  0  0  0  0  0  0  0  0
    3.0170   -2.8750   -3.8099 H   0  0  0  0  0  0  0  0  0  0  0  0
    4.2230   -1.6459   -4.2457 H   0  0  0  0  0  0  0  0  0  0  0  0
  1  2  1  0
  2  3  2  0
  3  4  1  0
  4  5  1  0
  5  6  1  0
  6  7  2  0
  6  8  2  0
  6  9  1  0
  9 10  2  0
 10 11  1  0
 11 12  2  0
 12 13  1  0
 13 14  1  0
 14 15  2  0
 14 16  1  0
 16 17  1  0
 17 18  1  0
 18 19  1  0
 18 20  1  0
 16 21  1  0
 21 22  1  0
 22 23  2  0
 22 24  1  0
 24 25  2  0
 25 26  1  0
 26 27  2  0
 27 28  1  0
 28 29  2  0
 29 30  1  0
 30 31  2  0
 12 32  1  0
 32 33  2  0
  4 34  2  0
 34 35  1  0
 35 36  1  0
 35 37  2  0
 37  2  1  0
 33  9  1  0
 30 21  1  0
 29 24  1  0
  1 38  1  0
  1 39  1  0
  1 40  1  0
  3 41  1  0
  5 42  1  0
 10 43  1  0
 11 44  1  0
 13 45  1  0
 16 46  1  0
 17 47  1  0
 17 48  1  0
 18 49  1  0
 19 50  1  0
 19 51  1  0
 19 52  1  0
 20 53  1  0
 20 54  1  0
 20 55  1  0
 25 56  1  0
 26 57  1  0
 27 58  1  0
 28 59  1  0
 32 60  1  0
 33 61  1  0
 36 62  1  0
 36 63  1  0
 36 64  1  0
M  END
$$$$
