
     RDKit          3D

 48 50  0  0  0  0  0  0  0  0999 V2000
    5.3282    2.9423    0.1480 C   0  0  0  0  0  0  0  0  0  0  0  0
    4.9251    1.7646    0.8432 O   0  0  0  0  0  0  0  0  0  0  0  0
    4.1122    0.8958    0.1720 C   0  0  0  0  0  0  0  0  0  0  0  0
    3.7319   -0.2279    0.9052 C   0  0  0  0  0  0  0  0  0  0  0  0
    2.8975   -1.1994    0.3456 C   0  0  0  0  0  0  0  0  0  0  0  0
    2.4303   -1.0566   -0.9646 C   0  0  0  0  0  0  0  0  0  0  0  0
    1.5236   -2.0999   -1.5750 C   0  0  0  0  0  0  0  0  0  0  0  0
    0.1776   -2.2763   -0.8802 C   0  0  0  0  0  0  0  0  0  0  0  0
   -0.3292   -3.3942   -0.8066 O   0  0  0  0  0  0  0  0  0  0  0  0
   -0.4008   -1.0853   -0.4654 N   0  0  0  0  0  0  0  0  0  0  0  0
   -1.6261   -0.9782    0.1723 C   0  0  0  0  0  0  0  0  0  0  0  0
   -2.4934   -1.9291    0.6669 C   0  0  0  0  0  0  0  0  0  0  0  0
   -3.5784   -1.2271    1.1799 C   0  0  0  0  0  0  0  0  0  0  0  0
   -3.4710    0.0853    1.0317 N   0  0  0  0  0  0  0  0  0  0  0  0
   -2.2426    0.2473    0.4632 N   0  0  0  0  0  0  0  0  0  0  0  0
   -1.7576    1.6260    0.2261 C   0  0  0  0  0  0  0  0  0  0  0  0
   -0.4662    1.8861    1.0255 C   0  0  0  0  0  0  0  0  0  0  0  0
   -1.5323    1.8741   -1.2784 C   0  0  0  0  0  0  0  0  0  0  0  0
   -2.7931    2.6856    0.6986 C   0  0  0  0  0  0  0  0  0  0  0  0
   -4.6843   -1.9759    1.7903 C   0  0  0  0  0  0  0  0  0  0  0  0
   -4.1051   -3.7443    1.7984 S   0  0  0  0  0  3  0  0  0  0  0  0
   -3.6236   -4.1007    3.3494 O   0  0  0  0  0  1  0  0  0  0  0  0
   -2.5604   -3.3911    0.7944 C   0  0  0  0  0  0  0  0  0  0  0  0
    2.8205    0.0676   -1.7018 C   0  0  0  0  0  0  0  0  0  0  0  0
    3.6558    1.0393   -1.1350 C   0  0  0  0  0  0  0  0  0  0  0  0
    5.9233    3.5474    0.8349 H   0  0  0  0  0  0  0  0  0  0  0  0
    4.4632    3.5431   -0.1583 H   0  0  0  0  0  0  0  0  0  0  0  0
    5.9589    2.6944   -0.7168 H   0  0  0  0  0  0  0  0  0  0  0  0
    4.0939   -0.3515    1.9251 H   0  0  0  0  0  0  0  0  0  0  0  0
    2.6222   -2.0631    0.9439 H   0  0  0  0  0  0  0  0  0  0  0  0
    1.3157   -1.8611   -2.6249 H   0  0  0  0  0  0  0  0  0  0  0  0
    2.0493   -3.0629   -1.5634 H   0  0  0  0  0  0  0  0  0  0  0  0
    0.1165   -0.2381   -0.6652 H   0  0  0  0  0  0  0  0  0  0  0  0
   -0.6163    1.6768    2.0903 H   0  0  0  0  0  0  0  0  0  0  0  0
   -0.1474    2.9299    0.9335 H   0  0  0  0  0  0  0  0  0  0  0  0
    0.3724    1.2706    0.6906 H   0  0  0  0  0  0  0  0  0  0  0  0
   -2.4298    1.6201   -1.8563 H   0  0  0  0  0  0  0  0  0  0  0  0
   -1.2983    2.9273   -1.4740 H   0  0  0  0  0  0  0  0  0  0  0  0
   -0.7065    1.2871   -1.6886 H   0  0  0  0  0  0  0  0  0  0  0  0
   -2.4207    3.7064    0.5378 H   0  0  0  0  0  0  0  0  0  0  0  0
   -3.7405    2.5930    0.1489 H   0  0  0  0  0  0  0  0  0  0  0  0
   -3.0113    2.5854    1.7706 H   0  0  0  0  0  0  0  0  0  0  0  0
   -4.8924   -1.6773    2.8200 H   0  0  0  0  0  0  0  0  0  0  0  0
   -5.5935   -1.9317    1.1857 H   0  0  0  0  0  0  0  0  0  0  0  0
   -1.7147   -3.8226    1.3343 H   0  0  0  0  0  0  0  0  0  0  0  0
   -2.7083   -3.8847   -0.1680 H   0  0  0  0  0  0  0  0  0  0  0  0
    2.4875    0.1961   -2.7304 H   0  0  0  0  0  0  0  0  0  0  0  0
    3.9385    1.8870   -1.7444 H   0  0  0  0  0  0  0  0  0  0  0  0
  1  2  1  0
  2  3  1  0
  3  4  2  0
  4  5  1  0
  5  6  2  0
  6  7  1  0
  7  8  1  0
  8  9  2  0
  8 10  1  0
 10 11  1  0
 11 12  2  0
 12 13  1  0
 13 14  2  0
 14 15  1  0
 15 16  1  0
 16 17  1  0
 16 18  1  0
 16 19  1  0
 13 20  1  0
 20 21  1  0
 21 22  1  0
 21 23  1  0
  6 24  1  0
 24 25  2  0
 25  3  1  0
 15 11  1  0
 23 12  1  0
  1 26  1  0
  1 27  1  0
  1 28  1  0
  4 29  1  0
  5 30  1  0
  7 31  1  0
  7 32  1  0
 10 33  1  0
 17 34  1  0
 17 35  1  0
 17 36  1  0
 18 37  1  0
 18 38  1  0
 18 39  1  0
 19 40  1  0
 19 41  1  0
 19 42  1  0
 20 43  1  0
 20 44  1  0
 23 45  1  0
 23 46  1  0
 24 47  1  0
 25 48  1  0
M  CHG  2  21   1  22  -1
M  END
$$$$
