
     RDKit          3D

 41 44  0  0  0  0  0  0  0  0999 V2000
   -4.5651   -1.4785    2.1647 C   0  0  0  0  0  0  0  0  0  0  0  0
   -3.9638   -0.3888    1.4777 O   0  0  0  0  0  0  0  0  0  0  0  0
   -4.6396    0.1280    0.4008 C   0  0  0  0  0  0  0  0  0  0  0  0
   -5.9065   -0.2893   -0.0198 C   0  0  0  0  0  0  0  0  0  0  0  0
   -6.5169    0.3074   -1.1271 C   0  0  0  0  0  0  0  0  0  0  0  0
   -5.8700    1.3261   -1.8219 C   0  0  0  0  0  0  0  0  0  0  0  0
   -4.6077    1.7521   -1.4126 C   0  0  0  0  0  0  0  0  0  0  0  0
   -3.9863    1.1576   -0.3058 C   0  0  0  0  0  0  0  0  0  0  0  0
   -2.6524    1.6343    0.0839 C   0  0  0  0  0  0  0  0  0  0  0  0
   -1.5018    1.0098   -0.2017 C   0  0  0  0  0  0  0  0  0  0  0  0
   -1.3029   -0.4737   -1.1185 S   0  0  0  0  0  0  0  0  0  0  0  0
    0.3908   -0.3868   -0.8706 C   0  0  0  0  0  0  0  0  0  0  0  0
    1.4181   -1.1044   -1.2202 N   0  0  0  0  0  0  0  0  0  0  0  0
    2.4729   -0.3984   -0.6393 C   0  0  0  0  0  0  0  0  0  0  0  0
    3.8545   -0.8497   -0.7872 C   0  0  0  0  0  0  0  0  0  0  0  0
    4.2103   -1.5590   -1.9483 C   0  0  0  0  0  0  0  0  0  0  0  0
    5.5179   -2.0131   -2.1431 C   0  0  0  0  0  0  0  0  0  0  0  0
    6.4883   -1.7768   -1.1732 C   0  0  0  0  0  0  0  0  0  0  0  0
    6.1523   -1.0865   -0.0099 C   0  0  0  0  0  0  0  0  0  0  0  0
    4.8475   -0.6119    0.1764 C   0  0  0  0  0  0  0  0  0  0  0  0
    4.5488   -0.0092    1.3726 O   0  0  0  0  0  0  0  0  0  0  0  0
    5.0236    1.3379    1.3870 C   0  0  0  0  0  0  0  0  0  0  0  0
    2.1001    0.7393   -0.0109 N   0  0  0  0  0  0  0  0  0  0  0  0
    0.7672    0.6917   -0.1587 N   0  0  0  0  0  0  0  0  0  0  0  0
   -0.2012    1.5711    0.2740 C   0  0  0  0  0  0  0  0  0  0  0  0
    0.0261    2.5897    0.9016 O   0  0  0  0  0  0  0  0  0  0  0  0
   -4.7075   -2.3362    1.4990 H   0  0  0  0  0  0  0  0  0  0  0  0
   -5.5082   -1.1771    2.6320 H   0  0  0  0  0  0  0  0  0  0  0  0
   -3.8828   -1.7872    2.9626 H   0  0  0  0  0  0  0  0  0  0  0  0
   -6.4502   -1.0756    0.4931 H   0  0  0  0  0  0  0  0  0  0  0  0
   -7.5021   -0.0246   -1.4462 H   0  0  0  0  0  0  0  0  0  0  0  0
   -6.3482    1.7880   -2.6820 H   0  0  0  0  0  0  0  0  0  0  0  0
   -4.1120    2.5479   -1.9638 H   0  0  0  0  0  0  0  0  0  0  0  0
   -2.6518    2.5549    0.6648 H   0  0  0  0  0  0  0  0  0  0  0  0
    3.4625   -1.7633   -2.7131 H   0  0  0  0  0  0  0  0  0  0  0  0
    5.7727   -2.5595   -3.0478 H   0  0  0  0  0  0  0  0  0  0  0  0
    7.5020   -2.1426   -1.3151 H   0  0  0  0  0  0  0  0  0  0  0  0
    6.9019   -0.9329    0.7615 H   0  0  0  0  0  0  0  0  0  0  0  0
    6.1085    1.3611    1.5332 H   0  0  0  0  0  0  0  0  0  0  0  0
    4.7540    1.8798    0.4733 H   0  0  0  0  0  0  0  0  0  0  0  0
    4.5569    1.8483    2.2348 H   0  0  0  0  0  0  0  0  0  0  0  0
  1  2  1  0
  2  3  1  0
  3  4  2  0
  4  5  1  0
  5  6  2  0
  6  7  1  0
  7  8  2  0
  8  9  1  0
  9 10  2  3
 10 11  1  0
 11 12  1  0
 12 13  2  0
 13 14  1  0
 14 15  1  0
 15 16  2  0
 16 17  1  0
 17 18  2  0
 18 19  1  0
 19 20  2  0
 20 21  1  0
 21 22  1  0
 14 23  2  0
 23 24  1  0
 24 25  1  0
 25 26  2  0
  8  3  1  0
 25 10  1  0
 24 12  1  0
 20 15  1  0
  1 27  1  0
  1 28  1  0
  1 29  1  0
  4 30  1  0
  5 31  1  0
  6 32  1  0
  7 33  1  0
  9 34  1  0
 16 35  1  0
 17 36  1  0
 18 37  1  0
 19 38  1  0
 22 39  1  0
 22 40  1  0
 22 41  1  0
M  END
$$$$
