
     RDKit          3D

 64 67  0  0  0  0  0  0  0  0999 V2000
    9.2434   -0.0513   -2.5121 C   0  0  0  0  0  0  0  0  0  0  0  0
    9.2361   -0.3209   -1.0157 C   0  0  0  0  0  0  0  0  0  0  0  0
    7.8348   -0.4526   -0.4770 C   0  0  0  0  0  0  0  0  0  0  0  0
    7.1989   -1.6983   -0.4450 C   0  0  0  0  0  0  0  0  0  0  0  0
    5.8911   -1.8193    0.0393 C   0  0  0  0  0  0  0  0  0  0  0  0
    5.1888   -0.6962    0.4979 C   0  0  0  0  0  0  0  0  0  0  0  0
    3.8162   -0.8105    1.0082 C   0  0  0  0  0  0  0  0  0  0  0  0
    3.0609   -1.9954    1.2488 C   0  0  0  0  0  0  0  0  0  0  0  0
    1.8432   -1.5644    1.7184 C   0  0  0  0  0  0  0  0  0  0  0  0
    0.6503   -2.2332    2.1374 C   0  0  0  0  0  0  0  0  0  0  0  0
    0.5380   -3.4545    2.1252 O   0  0  0  0  0  0  0  0  0  0  0  0
   -0.3730   -1.3629    2.5644 N   0  0  0  0  0  0  0  0  0  0  0  0
   -1.6426   -1.9355    3.0172 C   0  0  0  0  0  0  0  0  0  0  0  0
   -2.6745   -2.0362    1.8925 C   0  0  0  0  0  0  0  0  0  0  0  0
   -3.6569   -2.7693    1.9752 O   0  0  0  0  0  0  0  0  0  0  0  0
   -2.4867   -1.1505    0.8528 N   0  0  0  0  0  0  0  0  0  0  0  0
   -3.4372   -1.0050   -0.2344 C   0  0  0  0  0  0  0  0  0  0  0  0
   -4.6605   -0.1575    0.1659 C   0  0  0  0  0  0  0  0  0  0  0  0
   -5.5893    0.0995   -0.9526 N   0  0  0  0  0  0  0  0  0  0  0  0
   -6.9097    0.5167   -0.4634 C   0  0  0  0  0  0  0  0  0  0  0  0
   -6.9432    1.9479    0.0763 C   0  0  0  0  0  0  0  0  0  0  0  0
   -6.2412    2.9428   -0.8472 C   0  0  0  0  0  0  0  0  0  0  0  0
   -5.8694    2.3049   -2.1797 C   0  0  0  0  0  0  0  0  0  0  0  0
   -5.0324    1.0289   -1.9597 C   0  0  0  0  0  0  0  0  0  0  0  0
   -4.8891    0.2733   -3.2833 C   0  0  0  0  0  0  0  0  0  0  0  0
   -0.2876    0.0379    2.5420 N   0  0  0  0  0  0  0  0  0  0  0  0
    0.8350    0.5734    2.1527 C   0  0  0  0  0  0  0  0  0  0  0  0
    1.0554    2.0510    2.0975 C   0  0  0  0  0  0  0  0  0  0  0  0
    1.9073   -0.2109    1.7441 N   0  0  0  0  0  0  0  0  0  0  0  0
    3.0873    0.2795    1.3198 N   0  0  0  0  0  0  0  0  0  0  0  0
    5.8303    0.5508    0.4548 C   0  0  0  0  0  0  0  0  0  0  0  0
    7.1371    0.6729   -0.0284 C   0  0  0  0  0  0  0  0  0  0  0  0
    8.7168    0.8785   -2.7505 H   0  0  0  0  0  0  0  0  0  0  0  0
    8.7579   -0.8629   -3.0641 H   0  0  0  0  0  0  0  0  0  0  0  0
   10.2719    0.0386   -2.8755 H   0  0  0  0  0  0  0  0  0  0  0  0
    9.7587    0.4878   -0.4908 H   0  0  0  0  0  0  0  0  0  0  0  0
    9.8013   -1.2356   -0.8012 H   0  0  0  0  0  0  0  0  0  0  0  0
    7.7174   -2.5866   -0.7995 H   0  0  0  0  0  0  0  0  0  0  0  0
    5.4381   -2.8067    0.0419 H   0  0  0  0  0  0  0  0  0  0  0  0
    3.3564   -3.0258    1.1045 H   0  0  0  0  0  0  0  0  0  0  0  0
   -2.0508   -1.2998    3.8099 H   0  0  0  0  0  0  0  0  0  0  0  0
   -1.4735   -2.9395    3.4192 H   0  0  0  0  0  0  0  0  0  0  0  0
   -1.7828   -0.4325    0.9976 H   0  0  0  0  0  0  0  0  0  0  0  0
   -2.8835   -0.5453   -1.0580 H   0  0  0  0  0  0  0  0  0  0  0  0
   -3.7602   -2.0020   -0.5543 H   0  0  0  0  0  0  0  0  0  0  0  0
   -4.3275    0.7852    0.6186 H   0  0  0  0  0  0  0  0  0  0  0  0
   -5.1864   -0.7054    0.9578 H   0  0  0  0  0  0  0  0  0  0  0  0
   -7.6297    0.4235   -1.2873 H   0  0  0  0  0  0  0  0  0  0  0  0
   -7.2770   -0.1771    0.3032 H   0  0  0  0  0  0  0  0  0  0  0  0
   -6.4834    1.9912    1.0712 H   0  0  0  0  0  0  0  0  0  0  0  0
   -7.9890    2.2500    0.2102 H   0  0  0  0  0  0  0  0  0  0  0  0
   -5.3318    3.3101   -0.3554 H   0  0  0  0  0  0  0  0  0  0  0  0
   -6.8790    3.8184   -1.0127 H   0  0  0  0  0  0  0  0  0  0  0  0
   -6.7821    2.0807   -2.7469 H   0  0  0  0  0  0  0  0  0  0  0  0
   -5.2985    3.0223   -2.7817 H   0  0  0  0  0  0  0  0  0  0  0  0
   -4.0303    1.3620   -1.6586 H   0  0  0  0  0  0  0  0  0  0  0  0
   -4.4448    0.9178   -4.0496 H   0  0  0  0  0  0  0  0  0  0  0  0
   -5.8607   -0.0702   -3.6559 H   0  0  0  0  0  0  0  0  0  0  0  0
   -4.2418   -0.6036   -3.1735 H   0  0  0  0  0  0  0  0  0  0  0  0
    1.2536    2.3634    1.0681 H   0  0  0  0  0  0  0  0  0  0  0  0
    0.1625    2.5739    2.4523 H   0  0  0  0  0  0  0  0  0  0  0  0
    1.8985    2.3340    2.7343 H   0  0  0  0  0  0  0  0  0  0  0  0
    5.3152    1.4453    0.7993 H   0  0  0  0  0  0  0  0  0  0  0  0
    7.6038    1.6551   -0.0518 H   0  0  0  0  0  0  0  0  0  0  0  0
  1  2  1  0
  2  3  1  0
  3  4  2  0
  4  5  1  0
  5  6  2  0
  6  7  1  0
  7  8  1  0
  8  9  2  0
  9 10  1  0
 10 11  2  0
 10 12  1  0
 12 13  1  0
 13 14  1  0
 14 15  2  0
 14 16  1  0
 16 17  1  0
 17 18  1  0
 18 19  1  0
 19 20  1  0
 20 21  1  0
 21 22  1  0
 22 23  1  0
 23 24  1  0
 24 25  1  0
 12 26  1  0
 26 27  2  0
 27 28  1  0
 27 29  1  0
 29 30  1  0
  6 31  1  0
 31 32  2  0
 32  3  1  0
 30  7  2  0
 29  9  1  0
 24 19  1  0
  1 33  1  0
  1 34  1  0
  1 35  1  0
  2 36  1  0
  2 37  1  0
  4 38  1  0
  5 39  1  0
  8 40  1  0
 13 41  1  0
 13 42  1  0
 16 43  1  0
 17 44  1  0
 17 45  1  0
 18 46  1  0
 18 47  1  0
 20 48  1  0
 20 49  1  0
 21 50  1  0
 21 51  1  0
 22 52  1  0
 22 53  1  0
 23 54  1  0
 23 55  1  0
 24 56  1  0
 25 57  1  0
 25 58  1  0
 25 59  1  0
 28 60  1  0
 28 61  1  0
 28 62  1  0
 31 63  1  0
 32 64  1  0
M  END
$$$$
