
     RDKit          3D

 41 42  0  0  0  0  0  0  0  0999 V2000
   -4.2691    0.3627    0.4823 C   0  0  0  0  0  0  0  0  0  0  0  0
   -3.1393   -0.4129    0.0985 O   0  0  0  0  0  0  0  0  0  0  0  0
   -3.2836   -1.2360   -0.9881 C   0  0  0  0  0  0  0  0  0  0  0  0
   -4.3785   -1.2160   -1.8590 C   0  0  0  0  0  0  0  0  0  0  0  0
   -4.4221   -2.0723   -2.9626 C   0  0  0  0  0  0  0  0  0  0  0  0
   -3.3708   -2.9503   -3.2092 C   0  0  0  0  0  0  0  0  0  0  0  0
   -2.2750   -2.9762   -2.3491 C   0  0  0  0  0  0  0  0  0  0  0  0
   -2.2237   -2.1311   -1.2267 C   0  0  0  0  0  0  0  0  0  0  0  0
   -1.0141   -2.1788   -0.3283 C   0  0  0  0  0  0  0  0  0  0  0  0
   -0.0489   -1.1746   -0.7123 N   0  0  0  0  0  0  0  0  0  0  0  0
    1.2292   -1.2004   -0.1895 C   0  0  0  0  0  0  0  0  0  0  0  0
    1.6458   -2.1267    0.5009 O   0  0  0  0  0  0  0  0  0  0  0  0
    2.0765    0.0144   -0.5887 C   0  0  0  0  0  0  0  0  0  0  0  0
    3.2526    0.1896    0.1980 O   0  0  0  0  0  0  0  0  0  0  0  0
    2.9933    0.9501    1.3068 C   0  0  0  0  0  0  0  0  0  0  0  0
    2.9028    0.2928    2.5340 C   0  0  0  0  0  0  0  0  0  0  0  0
    2.6223    1.0181    3.6925 C   0  0  0  0  0  0  0  0  0  0  0  0
    2.4369    2.3997    3.6241 C   0  0  0  0  0  0  0  0  0  0  0  0
    2.5507    3.0607    2.3993 C   0  0  0  0  0  0  0  0  0  0  0  0
    2.8570    2.3411    1.2441 C   0  0  0  0  0  0  0  0  0  0  0  0
    2.9487    3.0534    0.0765 O   0  0  0  0  0  0  0  0  0  0  0  0
    4.2722    2.9992   -0.4594 C   0  0  0  0  0  0  0  0  0  0  0  0
   -5.1397   -0.2730    0.6791 H   0  0  0  0  0  0  0  0  0  0  0  0
   -4.4958    1.1247   -0.2705 H   0  0  0  0  0  0  0  0  0  0  0  0
   -4.0177    0.8799    1.4132 H   0  0  0  0  0  0  0  0  0  0  0  0
   -5.2129   -0.5376   -1.7143 H   0  0  0  0  0  0  0  0  0  0  0  0
   -5.2759   -2.0476   -3.6347 H   0  0  0  0  0  0  0  0  0  0  0  0
   -3.4016   -3.6115   -4.0714 H   0  0  0  0  0  0  0  0  0  0  0  0
   -1.4541   -3.6605   -2.5552 H   0  0  0  0  0  0  0  0  0  0  0  0
   -1.2885   -2.0148    0.7202 H   0  0  0  0  0  0  0  0  0  0  0  0
   -0.5415   -3.1682   -0.3704 H   0  0  0  0  0  0  0  0  0  0  0  0
   -0.4295   -0.2862   -1.0121 H   0  0  0  0  0  0  0  0  0  0  0  0
    2.4099   -0.1637   -1.6175 H   0  0  0  0  0  0  0  0  0  0  0  0
    1.4487    0.9135   -0.6102 H   0  0  0  0  0  0  0  0  0  0  0  0
    3.0308   -0.7862    2.5819 H   0  0  0  0  0  0  0  0  0  0  0  0
    2.5407    0.5029    4.6460 H   0  0  0  0  0  0  0  0  0  0  0  0
    2.2085    2.9629    4.5254 H   0  0  0  0  0  0  0  0  0  0  0  0
    2.4089    4.1362    2.3457 H   0  0  0  0  0  0  0  0  0  0  0  0
    4.4313    2.0739   -1.0214 H   0  0  0  0  0  0  0  0  0  0  0  0
    5.0363    3.1150    0.3190 H   0  0  0  0  0  0  0  0  0  0  0  0
    4.3794    3.8340   -1.1593 H   0  0  0  0  0  0  0  0  0  0  0  0
  1  2  1  0
  2  3  1  0
  3  4  2  0
  4  5  1  0
  5  6  2  0
  6  7  1  0
  7  8  2  0
  8  9  1  0
  9 10  1  0
 10 11  1  0
 11 12  2  0
 11 13  1  0
 13 14  1  0
 14 15  1  0
 15 16  2  0
 16 17  1  0
 17 18  2  0
 18 19  1  0
 19 20  2  0
 20 21  1  0
 21 22  1  0
  8  3  1  0
 20 15  1  0
  1 23  1  0
  1 24  1  0
  1 25  1  0
  4 26  1  0
  5 27  1  0
  6 28  1  0
  7 29  1  0
  9 30  1  0
  9 31  1  0
 10 32  1  0
 13 33  1  0
 13 34  1  0
 16 35  1  0
 17 36  1  0
 18 37  1  0
 19 38  1  0
 22 39  1  0
 22 40  1  0
 22 41  1  0
M  END
$$$$
