
     RDKit          3D

 37 39  0  0  0  0  0  0  0  0999 V2000
   -0.3938   -0.0640   -1.4155 C   0  0  0  0  0  0  0  0  0  0  0  0
   -0.5344    0.0625    0.0840 C   0  0  0  0  0  0  0  0  0  0  0  0
    0.4669    0.1396    0.9096 N   0  0  0  0  0  0  0  0  0  0  0  0
    1.7384    0.1024    0.4251 N   0  0  0  0  0  0  0  0  0  0  0  0
    2.8052    0.1228    1.3122 C   0  0  0  0  0  0  0  0  0  0  0  0
    2.7216    0.1565    2.5353 O   0  0  0  0  0  0  0  0  0  0  0  0
    4.1518    0.0612    0.6836 C   0  0  0  0  0  0  0  0  0  0  0  0
    4.4246    0.6910   -0.5395 C   0  0  0  0  0  0  0  0  0  0  0  0
    5.7039    0.6122   -1.0942 C   0  0  0  0  0  0  0  0  0  0  0  0
    6.7110   -0.0867   -0.4271 C   0  0  0  0  0  0  0  0  0  0  0  0
    6.4407   -0.6966    0.7981 C   0  0  0  0  0  0  0  0  0  0  0  0
    7.6911   -1.5479    1.6179 Cl  0  0  0  0  0  0  0  0  0  0  0  0
    5.1690   -0.6225    1.3603 C   0  0  0  0  0  0  0  0  0  0  0  0
   -1.9201    0.0991    0.6773 C   0  0  0  0  0  0  0  0  0  0  0  0
   -2.7739    1.2441    0.1805 C   0  0  0  0  0  0  0  0  0  0  0  0
   -2.4646    2.4160    0.0743 O   0  0  0  0  0  0  0  0  0  0  0  0
   -4.0814    0.7151   -0.2057 C   0  0  0  0  0  0  0  0  0  0  0  0
   -5.1957    1.4045   -0.6466 C   0  0  0  0  0  0  0  0  0  0  0  0
   -6.3273    0.6540   -0.9796 C   0  0  0  0  0  0  0  0  0  0  0  0
   -6.3188   -0.7511   -0.8734 C   0  0  0  0  0  0  0  0  0  0  0  0
   -5.1786   -1.4295   -0.4324 C   0  0  0  0  0  0  0  0  0  0  0  0
   -4.0731   -0.6684   -0.1011 C   0  0  0  0  0  0  0  0  0  0  0  0
   -2.7598   -1.1177    0.3592 C   0  0  0  0  0  0  0  0  0  0  0  0
   -2.4364   -2.2884    0.4303 O   0  0  0  0  0  0  0  0  0  0  0  0
    0.1154   -1.0013   -1.6562 H   0  0  0  0  0  0  0  0  0  0  0  0
    0.1838    0.7796   -1.8036 H   0  0  0  0  0  0  0  0  0  0  0  0
   -1.3699   -0.0657   -1.9061 H   0  0  0  0  0  0  0  0  0  0  0  0
    1.8972   -0.0667   -0.5591 H   0  0  0  0  0  0  0  0  0  0  0  0
    3.6647    1.2742   -1.0533 H   0  0  0  0  0  0  0  0  0  0  0  0
    5.9214    1.1055   -2.0388 H   0  0  0  0  0  0  0  0  0  0  0  0
    7.7068   -0.1432   -0.8601 H   0  0  0  0  0  0  0  0  0  0  0  0
    4.9630   -1.0931    2.3196 H   0  0  0  0  0  0  0  0  0  0  0  0
   -1.8595    0.1821    1.7697 H   0  0  0  0  0  0  0  0  0  0  0  0
   -5.1903    2.4872   -0.7306 H   0  0  0  0  0  0  0  0  0  0  0  0
   -7.2267    1.1596   -1.3278 H   0  0  0  0  0  0  0  0  0  0  0  0
   -7.2118   -1.3141   -1.1408 H   0  0  0  0  0  0  0  0  0  0  0  0
   -5.1602   -2.5124   -0.3527 H   0  0  0  0  0  0  0  0  0  0  0  0
  1  2  1  0
  2  3  2  3
  3  4  1  0
  4  5  1  0
  5  6  2  0
  5  7  1  0
  7  8  2  0
  8  9  1  0
  9 10  2  0
 10 11  1  0
 11 12  1  0
 11 13  2  0
  2 14  1  0
 14 15  1  0
 15 16  2  0
 15 17  1  0
 17 18  2  0
 18 19  1  0
 19 20  2  0
 20 21  1  0
 21 22  2  0
 22 23  1  0
 23 24  2  0
 13  7  1  0
 23 14  1  0
 22 17  1  0
  1 25  1  0
  1 26  1  0
  1 27  1  0
  4 28  1  0
  8 29  1  0
  9 30  1  0
 10 31  1  0
 13 32  1  0
 14 33  1  0
 18 34  1  0
 19 35  1  0
 20 36  1  0
 21 37  1  0
M  END
$$$$
