
     RDKit          3D

 81 85  0  0  0  0  0  0  0  0999 V2000
   -5.9579    2.9436    0.2115 C   0  0  0  0  0  0  0  0  0  0  0  0
   -5.4058    1.5125    0.3871 C   0  0  0  0  0  0  0  0  0  0  0  0
   -5.9335    0.9847    1.7343 C   0  0  0  0  0  0  0  0  0  0  0  0
   -5.9098    0.6299   -0.7773 C   0  0  0  0  0  0  0  0  0  0  0  0
   -4.7862   -0.0791   -1.5388 C   0  0  0  0  0  0  0  0  0  0  0  0
   -3.7840   -0.7993   -0.6057 C   0  0  0  0  0  0  0  0  0  0  0  0
   -4.5174   -1.9146    0.1614 C   0  0  0  0  0  0  0  0  0  0  0  0
   -4.3546   -2.2434    1.3254 O   0  0  0  0  0  0  0  0  0  0  0  0
   -5.3806   -2.6205   -0.5979 O   0  0  0  0  0  0  0  0  0  0  0  0
   -2.7227   -1.5053   -1.4782 C   0  0  0  0  0  0  0  0  0  0  0  0
   -1.5847   -2.0704   -0.6295 C   0  0  0  0  0  0  0  0  0  0  0  0
   -0.7778   -0.9792    0.1432 C   0  0  0  0  0  0  0  0  0  0  0  0
   -0.6501   -1.4910    1.6100 C   0  0  0  0  0  0  0  0  0  0  0  0
   -1.5863    0.3405    0.2288 C   0  0  0  0  0  0  0  0  0  0  0  0
   -0.9515    1.5305    0.1986 C   0  0  0  0  0  0  0  0  0  0  0  0
    0.5254    1.7540    0.0731 C   0  0  0  0  0  0  0  0  0  0  0  0
    1.3851    0.4785    0.1687 C   0  0  0  0  0  0  0  0  0  0  0  0
    2.9335    0.7085   -0.1388 C   0  0  0  0  0  0  0  0  0  0  0  0
    3.1795    1.2631   -1.5651 C   0  0  0  0  0  0  0  0  0  0  0  0
    3.4889    1.7560    0.8741 C   0  0  0  0  0  0  0  0  0  0  0  0
    5.0126    1.8519    0.9081 C   0  0  0  0  0  0  0  0  0  0  0  0
    5.6742    0.5007    1.1592 C   0  0  0  0  0  0  0  0  0  0  0  0
    7.0909    0.6726    1.1289 O   0  0  0  0  0  0  0  0  0  0  0  0
    5.2372   -0.6090    0.1584 C   0  0  0  0  0  0  0  0  0  0  0  0
    5.8875   -0.4099   -1.2257 C   0  0  0  0  0  0  0  0  0  0  0  0
    5.7932   -1.9558    0.7005 C   0  0  0  0  0  0  0  0  0  0  0  0
    3.6651   -0.6585    0.1260 C   0  0  0  0  0  0  0  0  0  0  0  0
    3.0660   -1.7754   -0.7507 C   0  0  0  0  0  0  0  0  0  0  0  0
    1.5868   -1.9954   -0.4204 C   0  0  0  0  0  0  0  0  0  0  0  0
    0.6824   -0.7345   -0.5495 C   0  0  0  0  0  0  0  0  0  0  0  0
    0.4898   -0.4474   -2.0682 C   0  0  0  0  0  0  0  0  0  0  0  0
   -3.1257    0.2128    0.4001 C   0  0  0  0  0  0  0  0  0  0  0  0
   -3.8639    1.5842    0.3965 C   0  0  0  0  0  0  0  0  0  0  0  0
   -7.0539    2.9481    0.2092 H   0  0  0  0  0  0  0  0  0  0  0  0
   -5.6232    3.6004    1.0226 H   0  0  0  0  0  0  0  0  0  0  0  0
   -5.6212    3.3853   -0.7333 H   0  0  0  0  0  0  0  0  0  0  0  0
   -7.0295    0.9900    1.7566 H   0  0  0  0  0  0  0  0  0  0  0  0
   -5.6098   -0.0389    1.9332 H   0  0  0  0  0  0  0  0  0  0  0  0
   -5.5840    1.6071    2.5659 H   0  0  0  0  0  0  0  0  0  0  0  0
   -6.4752    1.2281   -1.5035 H   0  0  0  0  0  0  0  0  0  0  0  0
   -6.6234   -0.1171   -0.4077 H   0  0  0  0  0  0  0  0  0  0  0  0
   -4.2519    0.6577   -2.1539 H   0  0  0  0  0  0  0  0  0  0  0  0
   -5.2366   -0.7795   -2.2539 H   0  0  0  0  0  0  0  0  0  0  0  0
   -5.7299   -3.3002    0.0162 H   0  0  0  0  0  0  0  0  0  0  0  0
   -3.1765   -2.3289   -2.0449 H   0  0  0  0  0  0  0  0  0  0  0  0
   -2.3237   -0.8103   -2.2266 H   0  0  0  0  0  0  0  0  0  0  0  0
   -2.0054   -2.8029    0.0714 H   0  0  0  0  0  0  0  0  0  0  0  0
   -0.9384   -2.6765   -1.2704 H   0  0  0  0  0  0  0  0  0  0  0  0
   -0.0785   -0.8144    2.2507 H   0  0  0  0  0  0  0  0  0  0  0  0
   -1.6336   -1.5998    2.0830 H   0  0  0  0  0  0  0  0  0  0  0  0
   -0.1904   -2.4824    1.6620 H   0  0  0  0  0  0  0  0  0  0  0  0
   -1.5061    2.4612    0.2750 H   0  0  0  0  0  0  0  0  0  0  0  0
    0.6841    2.2834   -0.8695 H   0  0  0  0  0  0  0  0  0  0  0  0
    0.8198    2.4464    0.8707 H   0  0  0  0  0  0  0  0  0  0  0  0
    1.3805    0.2217    1.2369 H   0  0  0  0  0  0  0  0  0  0  0  0
    4.0554    1.9143   -1.6170 H   0  0  0  0  0  0  0  0  0  0  0  0
    3.3453    0.4804   -2.3067 H   0  0  0  0  0  0  0  0  0  0  0  0
    2.3562    1.8805   -1.9284 H   0  0  0  0  0  0  0  0  0  0  0  0
    3.0872    2.7518    0.6503 H   0  0  0  0  0  0  0  0  0  0  0  0
    3.1456    1.5049    1.8866 H   0  0  0  0  0  0  0  0  0  0  0  0
    5.3070    2.5485    1.7042 H   0  0  0  0  0  0  0  0  0  0  0  0
    5.4066    2.3040   -0.0083 H   0  0  0  0  0  0  0  0  0  0  0  0
    5.4175    0.1788    2.1774 H   0  0  0  0  0  0  0  0  0  0  0  0
    7.3219    1.3340    1.8032 H   0  0  0  0  0  0  0  0  0  0  0  0
    6.9711   -0.5732   -1.1796 H   0  0  0  0  0  0  0  0  0  0  0  0
    5.7501    0.5977   -1.6188 H   0  0  0  0  0  0  0  0  0  0  0  0
    5.4945   -1.1188   -1.9613 H   0  0  0  0  0  0  0  0  0  0  0  0
    5.6436   -2.7761   -0.0086 H   0  0  0  0  0  0  0  0  0  0  0  0
    5.3119   -2.2326    1.6451 H   0  0  0  0  0  0  0  0  0  0  0  0
    6.8718   -1.8982    0.8873 H   0  0  0  0  0  0  0  0  0  0  0  0
    3.3927   -0.9328    1.1594 H   0  0  0  0  0  0  0  0  0  0  0  0
    3.5751   -2.7260   -0.5637 H   0  0  0  0  0  0  0  0  0  0  0  0
    3.1934   -1.5758   -1.8175 H   0  0  0  0  0  0  0  0  0  0  0  0
    1.5624   -2.3773    0.6042 H   0  0  0  0  0  0  0  0  0  0  0  0
    1.2127   -2.8074   -1.0540 H   0  0  0  0  0  0  0  0  0  0  0  0
   -0.1323    0.4320   -2.2555 H   0  0  0  0  0  0  0  0  0  0  0  0
    1.4313   -0.2931   -2.5915 H   0  0  0  0  0  0  0  0  0  0  0  0
    0.0229   -1.2896   -2.5874 H   0  0  0  0  0  0  0  0  0  0  0  0
   -3.2517   -0.1644    1.4223 H   0  0  0  0  0  0  0  0  0  0  0  0
   -3.5408    2.1674    1.2702 H   0  0  0  0  0  0  0  0  0  0  0  0
   -3.5503    2.1573   -0.4877 H   0  0  0  0  0  0  0  0  0  0  0  0
  1  2  1  0
  2  3  1  0
  2  4  1  0
  4  5  1  0
  5  6  1  0
  6  7  1  0
  7  8  2  0
  7  9  1  0
  6 10  1  0
 10 11  1  0
 11 12  1  0
 12 13  1  0
 12 14  1  0
 14 15  2  0
 15 16  1  0
 16 17  1  0
 17 18  1  0
 18 19  1  0
 18 20  1  0
 20 21  1  0
 21 22  1  0
 22 23  1  0
 22 24  1  0
 24 25  1  0
 24 26  1  0
 24 27  1  0
 27 28  1  0
 28 29  1  0
 29 30  1  0
 30 31  1  0
 14 32  1  0
 32 33  1  0
 33  2  1  0
 32  6  1  0
 30 12  1  0
 30 17  1  0
 27 18  1  0
  1 34  1  0
  1 35  1  0
  1 36  1  0
  3 37  1  0
  3 38  1  0
  3 39  1  0
  4 40  1  0
  4 41  1  0
  5 42  1  0
  5 43  1  0
  9 44  1  0
 10 45  1  0
 10 46  1  0
 11 47  1  0
 11 48  1  0
 13 49  1  0
 13 50  1  0
 13 51  1  0
 15 52  1  0
 16 53  1  0
 16 54  1  0
 17 55  1  0
 19 56  1  0
 19 57  1  0
 19 58  1  0
 20 59  1  0
 20 60  1  0
 21 61  1  0
 21 62  1  0
 22 63  1  0
 23 64  1  0
 25 65  1  0
 25 66  1  0
 25 67  1  0
 26 68  1  0
 26 69  1  0
 26 70  1  0
 27 71  1  0
 28 72  1  0
 28 73  1  0
 29 74  1  0
 29 75  1  0
 31 76  1  0
 31 77  1  0
 31 78  1  0
 32 79  1  0
 33 80  1  0
 33 81  1  0
M  END
$$$$
