
     RDKit          3D

 38 40  0  0  0  0  0  0  0  0999 V2000
   -4.1440   -3.2384   -2.9003 C   0  0  0  0  0  0  0  0  0  0  0  0
   -4.0745   -3.4192   -1.4902 O   0  0  0  0  0  0  0  0  0  0  0  0
   -3.4921   -2.4161   -0.7665 C   0  0  0  0  0  0  0  0  0  0  0  0
   -3.5440   -2.5912    0.6194 C   0  0  0  0  0  0  0  0  0  0  0  0
   -3.0019   -1.6374    1.4840 C   0  0  0  0  0  0  0  0  0  0  0  0
   -2.3879   -0.5031    0.9584 C   0  0  0  0  0  0  0  0  0  0  0  0
   -1.8910    0.4459    1.8053 O   0  0  0  0  0  0  0  0  0  0  0  0
   -2.3008   -0.3316   -0.4272 C   0  0  0  0  0  0  0  0  0  0  0  0
   -1.6709    0.8566   -1.0479 C   0  0  0  0  0  0  0  0  0  0  0  0
   -2.2440    1.4047   -1.9871 O   0  0  0  0  0  0  0  0  0  0  0  0
   -0.3565    1.3725   -0.6076 C   0  0  0  0  0  0  0  0  0  0  0  0
   -0.0627    2.7153   -0.8096 C   0  0  0  0  0  0  0  0  0  0  0  0
    1.1127    3.2956   -0.4582 N   0  0  0  0  0  0  0  0  0  0  0  0
    2.0406    2.4919    0.0959 C   0  0  0  0  0  0  0  0  0  0  0  0
    1.8534    1.1402    0.3274 C   0  0  0  0  0  0  0  0  0  0  0  0
    0.6290    0.5679   -0.0329 C   0  0  0  0  0  0  0  0  0  0  0  0
    2.9220    0.3761    1.0315 C   0  0  0  0  0  0  0  0  0  0  0  0
    4.2227    1.0185    0.9803 N   0  0  0  0  0  0  0  0  0  0  0  0
    5.3502    0.2594    1.4872 C   0  0  0  0  0  0  0  0  0  0  0  0
    4.3443    2.3905    0.8732 C   0  0  0  0  0  0  0  0  0  0  0  0
    5.3854    2.9996    1.1106 O   0  0  0  0  0  0  0  0  0  0  0  0
    3.2450    3.0680    0.4482 N   0  0  0  0  0  0  0  0  0  0  0  0
   -2.8723   -1.2817   -1.2887 C   0  0  0  0  0  0  0  0  0  0  0  0
   -4.6760   -4.0970   -3.3211 H   0  0  0  0  0  0  0  0  0  0  0  0
   -3.1430   -3.2167   -3.3433 H   0  0  0  0  0  0  0  0  0  0  0  0
   -4.7107   -2.3370   -3.1565 H   0  0  0  0  0  0  0  0  0  0  0  0
   -4.0265   -3.4768    1.0284 H   0  0  0  0  0  0  0  0  0  0  0  0
   -3.0744   -1.7980    2.5556 H   0  0  0  0  0  0  0  0  0  0  0  0
   -2.2038    0.2658    2.7089 H   0  0  0  0  0  0  0  0  0  0  0  0
   -0.7847    3.3865   -1.2692 H   0  0  0  0  0  0  0  0  0  0  0  0
    0.4557   -0.4900    0.1401 H   0  0  0  0  0  0  0  0  0  0  0  0
    2.6485    0.2571    2.0865 H   0  0  0  0  0  0  0  0  0  0  0  0
    3.0232   -0.6163    0.5770 H   0  0  0  0  0  0  0  0  0  0  0  0
    5.2446    0.1541    2.5711 H   0  0  0  0  0  0  0  0  0  0  0  0
    5.3602   -0.7291    1.0192 H   0  0  0  0  0  0  0  0  0  0  0  0
    6.2977    0.7605    1.2697 H   0  0  0  0  0  0  0  0  0  0  0  0
    3.3439    4.0589    0.2864 H   0  0  0  0  0  0  0  0  0  0  0  0
   -2.8171   -1.1061   -2.3592 H   0  0  0  0  0  0  0  0  0  0  0  0
  1  2  1  0
  2  3  1  0
  3  4  2  0
  4  5  1  0
  5  6  2  0
  6  7  1  0
  6  8  1  0
  8  9  1  0
  9 10  2  0
  9 11  1  0
 11 12  2  0
 12 13  1  0
 13 14  2  0
 14 15  1  0
 15 16  2  0
 15 17  1  0
 17 18  1  0
 18 19  1  0
 18 20  1  0
 20 21  2  0
 20 22  1  0
  8 23  2  0
 23  3  1  0
 16 11  1  0
 22 14  1  0
  1 24  1  0
  1 25  1  0
  1 26  1  0
  4 27  1  0
  5 28  1  0
  7 29  1  0
 12 30  1  0
 16 31  1  0
 17 32  1  0
 17 33  1  0
 19 34  1  0
 19 35  1  0
 19 36  1  0
 22 37  1  0
 23 38  1  0
M  END
$$$$
