
     RDKit          3D

 47 50  0  0  0  0  0  0  0  0999 V2000
    0.1722    5.2188    0.9640 N   0  0  0  0  0  0  0  0  0  0  0  0
    0.9382    4.0862    0.7158 C   0  0  0  0  0  0  0  0  0  0  0  0
    2.2814    4.2101    0.7362 N   0  0  0  0  0  0  0  0  0  0  0  0
    3.0288    3.1086    0.5000 C   0  0  0  0  0  0  0  0  0  0  0  0
    2.6144    1.8455    0.2562 N   0  0  0  0  0  0  0  0  0  0  0  0
    1.2685    1.7809    0.2364 C   0  0  0  0  0  0  0  0  0  0  0  0
    0.3815    2.8200    0.4708 C   0  0  0  0  0  0  0  0  0  0  0  0
   -0.9192    2.3740    0.4408 N   0  0  0  0  0  0  0  0  0  0  0  0
   -0.8325    1.0912    0.1641 C   0  0  0  0  0  0  0  0  0  0  0  0
   -1.8482    0.1944    0.0618 N   0  0  0  0  0  0  0  0  0  0  0  0
   -2.6991    0.1237    1.2687 C   0  0  0  0  0  0  0  0  0  0  0  0
   -3.6137   -1.1001    1.1742 C   0  0  0  0  0  0  0  0  0  0  0  0
   -4.4534   -1.0624   -0.1023 C   0  0  0  0  0  0  0  0  0  0  0  0
   -3.5686   -0.8559   -1.3331 C   0  0  0  0  0  0  0  0  0  0  0  0
   -2.6551    0.3599   -1.1639 C   0  0  0  0  0  0  0  0  0  0  0  0
    0.4770    0.6897   -0.0006 N   0  0  0  0  0  0  0  0  0  0  0  0
    0.9138   -0.6560   -0.3180 C   0  0  0  0  0  0  0  0  0  0  0  0
    1.8916   -0.5921   -1.3810 O   0  0  0  0  0  0  0  0  0  0  0  0
    2.9880   -1.4604   -1.0437 C   0  0  0  0  0  0  0  0  0  0  0  0
    2.8091   -2.7903   -1.7785 C   0  0  0  0  0  0  0  0  0  0  0  0
    1.6733   -3.5098   -1.3067 O   0  0  0  0  0  0  0  0  0  0  0  0
    2.9867   -1.5887    0.4772 C   0  0  0  0  0  0  0  0  0  0  0  0
    3.7992   -0.5566    1.0515 O   0  0  0  0  0  0  0  0  0  0  0  0
    1.5289   -1.4017    0.8750 C   0  0  0  0  0  0  0  0  0  0  0  0
    0.8970   -2.6732    1.0755 O   0  0  0  0  0  0  0  0  0  0  0  0
    0.6967    5.9235    1.4647 H   0  0  0  0  0  0  0  0  0  0  0  0
   -0.7617    5.0023    1.2886 H   0  0  0  0  0  0  0  0  0  0  0  0
    4.1014    3.2613    0.5056 H   0  0  0  0  0  0  0  0  0  0  0  0
   -3.2983    1.0381    1.3796 H   0  0  0  0  0  0  0  0  0  0  0  0
   -2.0732    0.0206    2.1660 H   0  0  0  0  0  0  0  0  0  0  0  0
   -3.0027   -2.0127    1.1750 H   0  0  0  0  0  0  0  0  0  0  0  0
   -4.2690   -1.1456    2.0520 H   0  0  0  0  0  0  0  0  0  0  0  0
   -5.0236   -1.9956   -0.2022 H   0  0  0  0  0  0  0  0  0  0  0  0
   -5.1823   -0.2423   -0.0365 H   0  0  0  0  0  0  0  0  0  0  0  0
   -2.9567   -1.7569   -1.4902 H   0  0  0  0  0  0  0  0  0  0  0  0
   -4.1961   -0.7286   -2.2251 H   0  0  0  0  0  0  0  0  0  0  0  0
   -3.2546    1.2788   -1.1150 H   0  0  0  0  0  0  0  0  0  0  0  0
   -2.0035    0.4343   -2.0419 H   0  0  0  0  0  0  0  0  0  0  0  0
    0.0593   -1.2068   -0.7247 H   0  0  0  0  0  0  0  0  0  0  0  0
    3.8973   -0.9746   -1.4059 H   0  0  0  0  0  0  0  0  0  0  0  0
    2.6622   -2.6012   -2.8465 H   0  0  0  0  0  0  0  0  0  0  0  0
    3.6848   -3.4223   -1.6428 H   0  0  0  0  0  0  0  0  0  0  0  0
    1.5502   -4.2490   -1.9343 H   0  0  0  0  0  0  0  0  0  0  0  0
    3.4044   -2.5446    0.8127 H   0  0  0  0  0  0  0  0  0  0  0  0
    3.4694    0.3090    0.7196 H   0  0  0  0  0  0  0  0  0  0  0  0
    1.4156   -0.8576    1.8154 H   0  0  0  0  0  0  0  0  0  0  0  0
    1.0207   -3.1854    0.2457 H   0  0  0  0  0  0  0  0  0  0  0  0
  1  2  1  0
  2  3  2  0
  3  4  1  0
  4  5  2  0
  5  6  1  0
  6  7  2  0
  7  8  1  0
  8  9  2  0
  9 10  1  0
 10 11  1  0
 11 12  1  0
 12 13  1  0
 13 14  1  0
 14 15  1  0
  9 16  1  0
 16 17  1  0
 17 18  1  0
 18 19  1  0
 19 20  1  0
 20 21  1  0
 19 22  1  0
 22 23  1  0
 22 24  1  0
 24 25  1  0
  7  2  1  0
 15 10  1  0
 24 17  1  0
 16  6  1  0
  1 26  1  0
  1 27  1  0
  4 28  1  0
 11 29  1  0
 11 30  1  0
 12 31  1  0
 12 32  1  0
 13 33  1  0
 13 34  1  0
 14 35  1  0
 14 36  1  0
 15 37  1  0
 15 38  1  0
 17 39  1  0
 19 40  1  0
 20 41  1  0
 20 42  1  0
 21 43  1  0
 22 44  1  0
 23 45  1  0
 24 46  1  0
 25 47  1  0
M  END
$$$$
