
     RDKit          3D

 54 58  0  0  0  0  0  0  0  0999 V2000
    6.0725   -2.5077    1.4075 C   0  0  0  0  0  0  0  0  0  0  0  0
    4.7622   -1.7376    1.4446 C   0  0  0  0  0  0  0  0  0  0  0  0
    4.3610   -1.2091    0.0757 C   0  0  0  0  0  0  0  0  0  0  0  0
    5.1115   -1.3062   -0.8954 O   0  0  0  0  0  0  0  0  0  0  0  0
    3.1065   -0.6115   -0.0237 N   0  0  0  0  0  0  0  0  0  0  0  0
    2.1800   -0.4326    1.0896 C   0  0  0  0  0  0  0  0  0  0  0  0
    1.3217    0.8201    0.9351 C   0  0  0  0  0  0  0  0  0  0  0  0
    0.5619    0.9114   -0.4243 C   0  0  0  0  0  0  0  0  0  0  0  0
    1.1552   -0.0915   -1.4451 C   0  0  0  0  0  0  0  0  0  0  0  0
    2.6748   -0.1494   -1.3388 C   0  0  0  0  0  0  0  0  0  0  0  0
    0.8748    2.2574   -0.8892 O   0  0  0  0  0  0  0  0  0  0  0  0
    0.0688    2.8138   -1.8379 C   0  0  0  0  0  0  0  0  0  0  0  0
    0.5404    3.9828   -2.4347 C   0  0  0  0  0  0  0  0  0  0  0  0
   -0.2055    4.6083   -3.4371 C   0  0  0  0  0  0  0  0  0  0  0  0
   -1.4248    4.0625   -3.8392 C   0  0  0  0  0  0  0  0  0  0  0  0
   -2.3358    4.8318   -5.0784 Cl  0  0  0  0  0  0  0  0  0  0  0  0
   -1.9094    2.9020   -3.2425 C   0  0  0  0  0  0  0  0  0  0  0  0
   -1.1589    2.2917   -2.2330 C   0  0  0  0  0  0  0  0  0  0  0  0
   -1.6491    1.0784   -1.5667 C   0  0  0  0  0  0  0  0  0  0  0  0
   -2.5394    0.4104   -2.0850 O   0  0  0  0  0  0  0  0  0  0  0  0
   -0.9730    0.7321   -0.2457 C   0  0  0  0  0  0  0  0  0  0  0  0
   -1.4156   -0.6307    0.2639 C   0  0  0  0  0  0  0  0  0  0  0  0
   -2.5425   -0.1914    1.1370 C   0  0  0  0  0  0  0  0  0  0  0  0
   -3.5478   -1.1412    1.6696 C   0  0  0  0  0  0  0  0  0  0  0  0
   -3.4547   -2.5182    1.4344 C   0  0  0  0  0  0  0  0  0  0  0  0
   -4.4206   -3.3849    1.9576 C   0  0  0  0  0  0  0  0  0  0  0  0
   -5.4757   -2.8777    2.7148 C   0  0  0  0  0  0  0  0  0  0  0  0
   -6.6583   -3.9487    3.3567 Cl  0  0  0  0  0  0  0  0  0  0  0  0
   -5.5756   -1.5097    2.9551 C   0  0  0  0  0  0  0  0  0  0  0  0
   -4.6122   -0.6420    2.4333 C   0  0  0  0  0  0  0  0  0  0  0  0
   -2.5445    1.0723    1.4202 N   0  0  0  0  0  0  0  0  0  0  0  0
   -1.4621    1.6649    0.7341 O   0  0  0  0  0  0  0  0  0  0  0  0
    6.0055   -3.3643    0.7286 H   0  0  0  0  0  0  0  0  0  0  0  0
    6.3233   -2.8804    2.4054 H   0  0  0  0  0  0  0  0  0  0  0  0
    6.8945   -1.8707    1.0646 H   0  0  0  0  0  0  0  0  0  0  0  0
    4.8735   -0.8890    2.1277 H   0  0  0  0  0  0  0  0  0  0  0  0
    3.9735   -2.3996    1.8174 H   0  0  0  0  0  0  0  0  0  0  0  0
    2.7235   -0.3732    2.0362 H   0  0  0  0  0  0  0  0  0  0  0  0
    1.5577   -1.3325    1.1341 H   0  0  0  0  0  0  0  0  0  0  0  0
    1.9825    1.6913    1.0478 H   0  0  0  0  0  0  0  0  0  0  0  0
    0.6312    0.8715    1.7844 H   0  0  0  0  0  0  0  0  0  0  0  0
    0.7532   -1.0979   -1.2769 H   0  0  0  0  0  0  0  0  0  0  0  0
    0.8967    0.1905   -2.4720 H   0  0  0  0  0  0  0  0  0  0  0  0
    3.1206    0.8385   -1.5040 H   0  0  0  0  0  0  0  0  0  0  0  0
    3.0692   -0.8187   -2.1117 H   0  0  0  0  0  0  0  0  0  0  0  0
    1.4936    4.4059   -2.1256 H   0  0  0  0  0  0  0  0  0  0  0  0
    0.1705    5.5175   -3.9003 H   0  0  0  0  0  0  0  0  0  0  0  0
   -2.8640    2.4808   -3.5490 H   0  0  0  0  0  0  0  0  0  0  0  0
   -1.7267   -1.3228   -0.5214 H   0  0  0  0  0  0  0  0  0  0  0  0
   -0.6748   -1.1150    0.9039 H   0  0  0  0  0  0  0  0  0  0  0  0
   -2.6451   -2.9441    0.8497 H   0  0  0  0  0  0  0  0  0  0  0  0
   -4.3455   -4.4533    1.7701 H   0  0  0  0  0  0  0  0  0  0  0  0
   -6.3974   -1.1102    3.5439 H   0  0  0  0  0  0  0  0  0  0  0  0
   -4.7013    0.4261    2.6252 H   0  0  0  0  0  0  0  0  0  0  0  0
  1  2  1  0
  2  3  1  0
  3  4  2  0
  3  5  1  0
  5  6  1  0
  6  7  1  0
  7  8  1  0
  8  9  1  0
  9 10  1  0
  8 11  1  0
 11 12  1  0
 12 13  2  0
 13 14  1  0
 14 15  2  0
 15 16  1  0
 15 17  1  0
 17 18  2  0
 18 19  1  0
 19 20  2  0
 19 21  1  0
 21 22  1  0
 22 23  1  0
 23 24  1  0
 24 25  2  0
 25 26  1  0
 26 27  2  0
 27 28  1  0
 27 29  1  0
 29 30  2  0
 23 31  2  0
 31 32  1  0
 10  5  1  0
 18 12  1  0
 32 21  1  0
 21  8  1  0
 30 24  1  0
  1 33  1  0
  1 34  1  0
  1 35  1  0
  2 36  1  0
  2 37  1  0
  6 38  1  0
  6 39  1  0
  7 40  1  0
  7 41  1  0
  9 42  1  0
  9 43  1  0
 10 44  1  0
 10 45  1  0
 13 46  1  0
 14 47  1  0
 17 48  1  0
 22 49  1  0
 22 50  1  0
 25 51  1  0
 26 52  1  0
 29 53  1  0
 30 54  1  0
M  END
$$$$
