
     RDKit          3D

 56 59  0  0  0  0  0  0  0  0999 V2000
   -5.4767   -1.6231    1.4890 C   0  0  0  0  0  0  0  0  0  0  0  0
   -4.8973   -1.0383    0.2128 C   0  0  0  0  0  0  0  0  0  0  0  0
   -3.4345   -1.1511    0.2449 N   0  0  0  0  0  0  0  0  0  0  0  0
   -2.6590   -0.5303   -0.7421 C   0  0  0  0  0  0  0  0  0  0  0  0
   -2.0139   -1.1507   -1.7463 C   0  0  0  0  0  0  0  0  0  0  0  0
   -2.1195   -2.5846   -1.8440 N   0  0  0  0  0  0  0  0  0  0  0  0
   -1.1704   -3.4652   -0.7403 S   0  0  0  0  0  6  0  0  0  0  0  0
   -0.6720   -4.6110   -1.4703 O   0  0  0  0  0  0  0  0  0  0  0  0
   -1.9659   -3.6297    0.4593 O   0  0  0  0  0  0  0  0  0  0  0  0
    0.2187   -2.4244   -0.3629 C   0  0  0  0  0  0  0  0  0  0  0  0
    0.2347   -1.6882    0.8230 C   0  0  0  0  0  0  0  0  0  0  0  0
    1.3056   -0.8334    1.0863 C   0  0  0  0  0  0  0  0  0  0  0  0
    2.3723   -0.7175    0.1805 C   0  0  0  0  0  0  0  0  0  0  0  0
    3.5384    0.2250    0.4396 C   0  0  0  0  0  0  0  0  0  0  0  0
    4.3846   -0.2496    1.6365 C   0  0  0  0  0  0  0  0  0  0  0  0
    5.3279    0.8509    2.1070 C   0  0  0  0  0  0  0  0  0  0  0  0
    4.5719    2.0898    2.5890 C   0  0  0  0  0  0  0  0  0  0  0  0
    3.1700    2.2274    1.9942 C   0  0  0  0  0  0  0  0  0  0  0  0
    3.0959    1.7007    0.5641 C   0  0  0  0  0  0  0  0  0  0  0  0
    2.3532   -1.4951   -0.9893 C   0  0  0  0  0  0  0  0  0  0  0  0
    1.2847   -2.3511   -1.2613 C   0  0  0  0  0  0  0  0  0  0  0  0
   -1.2765   -0.4546   -2.8258 C   0  0  0  0  0  0  0  0  0  0  0  0
   -0.7611   -1.0988   -3.7371 O   0  0  0  0  0  0  0  0  0  0  0  0
   -1.2195    0.9220   -2.7619 O   0  0  0  0  0  0  0  0  0  0  0  0
   -1.7637    1.6027   -1.6587 C   0  0  0  0  0  0  0  0  0  0  0  0
   -1.5402    2.9809   -1.6221 C   0  0  0  0  0  0  0  0  0  0  0  0
   -2.0068    3.7204   -0.5398 C   0  0  0  0  0  0  0  0  0  0  0  0
   -2.6801    3.0771    0.4965 C   0  0  0  0  0  0  0  0  0  0  0  0
   -2.8984    1.6956    0.4441 C   0  0  0  0  0  0  0  0  0  0  0  0
   -2.4602    0.9334   -0.6493 C   0  0  0  0  0  0  0  0  0  0  0  0
   -5.2061   -2.6789    1.5964 H   0  0  0  0  0  0  0  0  0  0  0  0
   -5.1020   -1.0901    2.3692 H   0  0  0  0  0  0  0  0  0  0  0  0
   -6.5685   -1.5492    1.4810 H   0  0  0  0  0  0  0  0  0  0  0  0
   -5.2101    0.0068    0.1182 H   0  0  0  0  0  0  0  0  0  0  0  0
   -5.2870   -1.5835   -0.6548 H   0  0  0  0  0  0  0  0  0  0  0  0
   -3.2100   -2.1558    0.2839 H   0  0  0  0  0  0  0  0  0  0  0  0
   -1.8506   -2.9126   -2.7808 H   0  0  0  0  0  0  0  0  0  0  0  0
   -0.5869   -1.7530    1.5339 H   0  0  0  0  0  0  0  0  0  0  0  0
    1.2956   -0.2543    2.0067 H   0  0  0  0  0  0  0  0  0  0  0  0
    4.1902    0.1859   -0.4453 H   0  0  0  0  0  0  0  0  0  0  0  0
    3.7519   -0.5579    2.4785 H   0  0  0  0  0  0  0  0  0  0  0  0
    4.9620   -1.1370    1.3480 H   0  0  0  0  0  0  0  0  0  0  0  0
    5.9923    1.1315    1.2798 H   0  0  0  0  0  0  0  0  0  0  0  0
    5.9743    0.4788    2.9100 H   0  0  0  0  0  0  0  0  0  0  0  0
    4.4872    2.0692    3.6823 H   0  0  0  0  0  0  0  0  0  0  0  0
    5.1661    2.9798    2.3481 H   0  0  0  0  0  0  0  0  0  0  0  0
    2.8633    3.2793    2.0231 H   0  0  0  0  0  0  0  0  0  0  0  0
    2.4561    1.6834    2.6232 H   0  0  0  0  0  0  0  0  0  0  0  0
    2.0888    1.8569    0.1587 H   0  0  0  0  0  0  0  0  0  0  0  0
    3.7653    2.3153   -0.0530 H   0  0  0  0  0  0  0  0  0  0  0  0
    3.1718   -1.4347   -1.7046 H   0  0  0  0  0  0  0  0  0  0  0  0
    1.2857   -2.9377   -2.1779 H   0  0  0  0  0  0  0  0  0  0  0  0
   -0.9977    3.4705   -2.4260 H   0  0  0  0  0  0  0  0  0  0  0  0
   -1.8363    4.7931   -0.4969 H   0  0  0  0  0  0  0  0  0  0  0  0
   -3.0326    3.6471    1.3531 H   0  0  0  0  0  0  0  0  0  0  0  0
   -3.4053    1.2181    1.2797 H   0  0  0  0  0  0  0  0  0  0  0  0
  1  2  1  0
  2  3  1  0
  3  4  1  0
  4  5  2  0
  5  6  1  0
  6  7  1  0
  7  8  2  0
  7  9  2  0
  7 10  1  0
 10 11  2  0
 11 12  1  0
 12 13  2  0
 13 14  1  0
 14 15  1  0
 15 16  1  0
 16 17  1  0
 17 18  1  0
 18 19  1  0
 13 20  1  0
 20 21  2  0
  5 22  1  0
 22 23  2  0
 22 24  1  0
 24 25  1  0
 25 26  2  0
 26 27  1  0
 27 28  2  0
 28 29  1  0
 29 30  2  0
 30  4  1  0
 21 10  1  0
 30 25  1  0
 19 14  1  0
  1 31  1  0
  1 32  1  0
  1 33  1  0
  2 34  1  0
  2 35  1  0
  3 36  1  0
  6 37  1  0
 11 38  1  0
 12 39  1  0
 14 40  1  0
 15 41  1  0
 15 42  1  0
 16 43  1  0
 16 44  1  0
 17 45  1  0
 17 46  1  0
 18 47  1  0
 18 48  1  0
 19 49  1  0
 19 50  1  0
 20 51  1  0
 21 52  1  0
 26 53  1  0
 27 54  1  0
 28 55  1  0
 29 56  1  0
M  END
$$$$
