
     RDKit          3D

 52 55  0  0  0  0  0  0  0  0999 V2000
   -3.2482    2.1538   -0.2999 C   0  0  0  0  0  0  0  0  0  0  0  0
   -4.4956    1.3725    0.0097 C   0  0  0  0  0  0  0  0  0  0  0  0
   -5.6324    1.6112   -0.7870 C   0  0  0  0  0  0  0  0  0  0  0  0
   -6.8332    0.9338   -0.5622 C   0  0  0  0  0  0  0  0  0  0  0  0
   -6.9137    0.0031    0.4762 C   0  0  0  0  0  0  0  0  0  0  0  0
   -8.1712   -0.7168    0.7114 N   0  0  0  0  0  4  0  0  0  0  0  0
   -9.1682   -0.3595    0.0685 O   0  0  0  0  0  0  0  0  0  0  0  0
   -8.1574   -1.6442    1.5327 O   0  0  0  0  0  1  0  0  0  0  0  0
   -5.8047   -0.2501    1.2890 C   0  0  0  0  0  0  0  0  0  0  0  0
   -4.5959    0.4308    1.0542 C   0  0  0  0  0  0  0  0  0  0  0  0
   -3.2480    0.0466    2.1677 S   0  0  0  0  0  6  0  0  0  0  0  0
   -2.2019    1.0389    2.0662 O   0  0  0  0  0  0  0  0  0  0  0  0
   -3.8390   -0.2593    3.4543 O   0  0  0  0  0  0  0  0  0  0  0  0
   -2.6961   -1.4244    1.5537 N   0  0  0  0  0  0  0  0  0  0  0  0
   -1.8802   -1.4138    0.3931 C   0  0  0  0  0  0  0  0  0  0  0  0
   -2.4392   -1.7953   -0.8220 C   0  0  0  0  0  0  0  0  0  0  0  0
   -1.6514   -1.7940   -1.9686 C   0  0  0  0  0  0  0  0  0  0  0  0
   -0.3102   -1.4063   -1.8930 C   0  0  0  0  0  0  0  0  0  0  0  0
    0.2760   -1.0112   -0.6745 C   0  0  0  0  0  0  0  0  0  0  0  0
    1.6862   -0.5875   -0.6191 C   0  0  0  0  0  0  0  0  0  0  0  0
    2.1758    0.3655    0.2602 C   0  0  0  0  0  0  0  0  0  0  0  0
    3.5333    0.6988    0.2277 C   0  0  0  0  0  0  0  0  0  0  0  0
    4.3915    0.0808   -0.6716 C   0  0  0  0  0  0  0  0  0  0  0  0
    5.7311    0.3997   -0.7388 N   0  0  0  0  0  0  0  0  0  0  0  0
    6.5813   -0.3454   -1.6615 C   0  0  0  0  0  0  0  0  0  0  0  0
    7.9772    0.1732   -1.3318 C   0  0  0  0  0  0  0  0  0  0  0  0
    7.9082    0.3683    0.1746 C   0  0  0  0  0  0  0  0  0  0  0  0
    6.4882    0.8872    0.4091 C   0  0  0  0  0  0  0  0  0  0  0  0
    3.8704   -0.8251   -1.5253 N   0  0  0  0  0  0  0  0  0  0  0  0
    2.5250   -1.1659   -1.5006 N   0  0  0  0  0  0  0  0  0  0  0  0
   -0.5368   -1.0395    0.4729 C   0  0  0  0  0  0  0  0  0  0  0  0
   -2.3966    1.4871   -0.4569 H   0  0  0  0  0  0  0  0  0  0  0  0
   -3.3598    2.7337   -1.2231 H   0  0  0  0  0  0  0  0  0  0  0  0
   -3.0353    2.8666    0.5022 H   0  0  0  0  0  0  0  0  0  0  0  0
   -5.5899    2.3374   -1.5991 H   0  0  0  0  0  0  0  0  0  0  0  0
   -7.6883    1.1450   -1.2021 H   0  0  0  0  0  0  0  0  0  0  0  0
   -5.8711   -0.9707    2.1039 H   0  0  0  0  0  0  0  0  0  0  0  0
   -2.4727   -2.0932    2.2904 H   0  0  0  0  0  0  0  0  0  0  0  0
   -3.4799   -2.1006   -0.8828 H   0  0  0  0  0  0  0  0  0  0  0  0
   -2.0742   -2.0952   -2.9239 H   0  0  0  0  0  0  0  0  0  0  0  0
    0.2866   -1.4093   -2.8057 H   0  0  0  0  0  0  0  0  0  0  0  0
    1.5219    0.8778    0.9586 H   0  0  0  0  0  0  0  0  0  0  0  0
    3.8985    1.4641    0.9037 H   0  0  0  0  0  0  0  0  0  0  0  0
    6.3259   -0.1541   -2.7089 H   0  0  0  0  0  0  0  0  0  0  0  0
    6.5263   -1.4232   -1.4639 H   0  0  0  0  0  0  0  0  0  0  0  0
    8.7658   -0.5206   -1.6353 H   0  0  0  0  0  0  0  0  0  0  0  0
    8.1518    1.1359   -1.8271 H   0  0  0  0  0  0  0  0  0  0  0  0
    8.6716    1.0550    0.5507 H   0  0  0  0  0  0  0  0  0  0  0  0
    8.0399   -0.5962    0.6802 H   0  0  0  0  0  0  0  0  0  0  0  0
    6.4739    1.9826    0.4204 H   0  0  0  0  0  0  0  0  0  0  0  0
    6.1105    0.5154    1.3681 H   0  0  0  0  0  0  0  0  0  0  0  0
   -0.1259   -0.7633    1.4413 H   0  0  0  0  0  0  0  0  0  0  0  0
  1  2  1  0
  2  3  2  0
  3  4  1  0
  4  5  2  0
  5  6  1  0
  6  7  2  0
  6  8  1  0
  5  9  1  0
  9 10  2  0
 10 11  1  0
 11 12  2  0
 11 13  2  0
 11 14  1  0
 14 15  1  0
 15 16  2  0
 16 17  1  0
 17 18  2  0
 18 19  1  0
 19 20  1  0
 20 21  2  0
 21 22  1  0
 22 23  2  0
 23 24  1  0
 24 25  1  0
 25 26  1  0
 26 27  1  0
 27 28  1  0
 23 29  1  0
 29 30  2  0
 19 31  2  0
 10  2  1  0
 31 15  1  0
 30 20  1  0
 28 24  1  0
  1 32  1  0
  1 33  1  0
  1 34  1  0
  3 35  1  0
  4 36  1  0
  9 37  1  0
 14 38  1  0
 16 39  1  0
 17 40  1  0
 18 41  1  0
 21 42  1  0
 22 43  1  0
 25 44  1  0
 25 45  1  0
 26 46  1  0
 26 47  1  0
 27 48  1  0
 27 49  1  0
 28 50  1  0
 28 51  1  0
 31 52  1  0
M  CHG  2   6   1   8  -1
M  END
$$$$
