
     RDKit          3D

 61 63  0  0  0  0  0  0  0  0999 V2000
   -2.3503   -1.6798   -2.5223 C   0  0  0  0  0  0  0  0  0  0  0  0
   -1.0469   -1.6067   -1.7529 C   0  0  0  0  0  0  0  0  0  0  0  0
   -1.2073   -0.6530   -0.6984 O   0  0  0  0  0  0  0  0  0  0  0  0
   -0.0582   -0.1986   -0.1345 C   0  0  0  0  0  0  0  0  0  0  0  0
    1.0636   -0.5137   -0.5255 O   0  0  0  0  0  0  0  0  0  0  0  0
   -0.2849    0.7041    0.9987 C   0  0  0  0  0  0  0  0  0  0  0  0
   -1.5509    1.0628    1.6046 C   0  0  0  0  0  0  0  0  0  0  0  0
   -2.8861    0.6082    1.2518 C   0  0  0  0  0  0  0  0  0  0  0  0
   -3.4194   -0.5321    1.8590 C   0  0  0  0  0  0  0  0  0  0  0  0
   -4.6890   -0.9900    1.4942 C   0  0  0  0  0  0  0  0  0  0  0  0
   -5.4485   -0.3187    0.5199 C   0  0  0  0  0  0  0  0  0  0  0  0
   -6.7776   -0.8146    0.1246 C   0  0  0  0  0  0  0  0  0  0  0  0
   -6.9494   -2.1317   -0.3348 C   0  0  0  0  0  0  0  0  0  0  0  0
   -8.2108   -2.6053   -0.7016 C   0  0  0  0  0  0  0  0  0  0  0  0
   -9.3196   -1.7722   -0.6093 C   0  0  0  0  0  0  0  0  0  0  0  0
   -9.1708   -0.4614   -0.1608 C   0  0  0  0  0  0  0  0  0  0  0  0
   -7.9100    0.0136    0.2020 C   0  0  0  0  0  0  0  0  0  0  0  0
   -4.9017    0.8328   -0.0683 C   0  0  0  0  0  0  0  0  0  0  0  0
   -3.6322    1.2951    0.2908 C   0  0  0  0  0  0  0  0  0  0  0  0
   -1.3945    1.9365    2.6554 C   0  0  0  0  0  0  0  0  0  0  0  0
    0.2403    2.3188    2.9340 S   0  0  0  0  0  0  0  0  0  0  0  0
    0.7663    1.3298    1.6609 C   0  0  0  0  0  0  0  0  0  0  0  0
    2.1131    1.2109    1.3627 N   0  0  0  0  0  0  0  0  0  0  0  0
    3.1962    1.7560    2.0269 C   0  0  0  0  0  0  0  0  0  0  0  0
    3.1869    2.4497    3.0386 O   0  0  0  0  0  0  0  0  0  0  0  0
    4.5311    1.3288    1.3895 C   0  0  0  0  0  0  0  0  0  0  0  0
    4.3466    1.0163   -0.0420 N   0  0  0  0  0  0  0  0  0  0  0  0
    5.4782    0.2706   -0.6036 C   0  0  0  0  0  0  0  0  0  0  0  0
    6.8387    1.0022   -0.5674 C   0  0  0  0  0  0  0  0  0  0  0  0
    7.8974    0.3040   -1.3219 N   0  0  0  0  0  0  0  0  0  0  0  0
    8.2898   -0.9540   -0.6780 C   0  0  0  0  0  0  0  0  0  0  0  0
    9.0690    1.1744   -1.4605 C   0  0  0  0  0  0  0  0  0  0  0  0
   -2.3054   -2.4551   -3.2918 H   0  0  0  0  0  0  0  0  0  0  0  0
   -2.5668   -0.7214   -3.0051 H   0  0  0  0  0  0  0  0  0  0  0  0
   -3.1902   -1.8882   -1.8557 H   0  0  0  0  0  0  0  0  0  0  0  0
   -0.8367   -2.5863   -1.3060 H   0  0  0  0  0  0  0  0  0  0  0  0
   -0.2281   -1.3253   -2.4286 H   0  0  0  0  0  0  0  0  0  0  0  0
   -2.8559   -1.0741    2.6170 H   0  0  0  0  0  0  0  0  0  0  0  0
   -5.0896   -1.8755    1.9852 H   0  0  0  0  0  0  0  0  0  0  0  0
   -6.0912   -2.8006   -0.4135 H   0  0  0  0  0  0  0  0  0  0  0  0
   -8.3269   -3.6247   -1.0566 H   0  0  0  0  0  0  0  0  0  0  0  0
  -10.3013   -2.1436   -0.8861 H   0  0  0  0  0  0  0  0  0  0  0  0
  -10.0369    0.1940   -0.0884 H   0  0  0  0  0  0  0  0  0  0  0  0
   -7.8151    1.0357    0.5637 H   0  0  0  0  0  0  0  0  0  0  0  0
   -5.4589    1.3698   -0.8322 H   0  0  0  0  0  0  0  0  0  0  0  0
   -3.2279    2.1810   -0.1943 H   0  0  0  0  0  0  0  0  0  0  0  0
   -2.1629    2.3670    3.2803 H   0  0  0  0  0  0  0  0  0  0  0  0
    2.3627    0.6316    0.5528 H   0  0  0  0  0  0  0  0  0  0  0  0
    5.2405    2.1562    1.5031 H   0  0  0  0  0  0  0  0  0  0  0  0
    4.8910    0.4535    1.9481 H   0  0  0  0  0  0  0  0  0  0  0  0
    4.2334    1.8929   -0.5547 H   0  0  0  0  0  0  0  0  0  0  0  0
    5.2272    0.0536   -1.6497 H   0  0  0  0  0  0  0  0  0  0  0  0
    5.5445   -0.6978   -0.0963 H   0  0  0  0  0  0  0  0  0  0  0  0
    6.6860    1.9909   -1.0136 H   0  0  0  0  0  0  0  0  0  0  0  0
    7.1581    1.1658    0.4680 H   0  0  0  0  0  0  0  0  0  0  0  0
    9.0971   -1.4393   -1.2344 H   0  0  0  0  0  0  0  0  0  0  0  0
    8.6307   -0.8030    0.3482 H   0  0  0  0  0  0  0  0  0  0  0  0
    7.4672   -1.6659   -0.6633 H   0  0  0  0  0  0  0  0  0  0  0  0
    9.8362    0.6882   -2.0703 H   0  0  0  0  0  0  0  0  0  0  0  0
    8.8008    2.1051   -1.9754 H   0  0  0  0  0  0  0  0  0  0  0  0
    9.5090    1.4328   -0.4847 H   0  0  0  0  0  0  0  0  0  0  0  0
  1  2  1  0
  2  3  1  0
  3  4  1  0
  4  5  2  0
  4  6  1  0
  6  7  1  0
  7  8  1  0
  8  9  2  0
  9 10  1  0
 10 11  2  0
 11 12  1  0
 12 13  2  0
 13 14  1  0
 14 15  2  0
 15 16  1  0
 16 17  2  0
 11 18  1  0
 18 19  2  0
  7 20  2  0
 20 21  1  0
 21 22  1  0
 22 23  1  0
 23 24  1  0
 24 25  2  0
 24 26  1  0
 26 27  1  0
 27 28  1  0
 28 29  1  0
 29 30  1  0
 30 31  1  0
 30 32  1  0
 22  6  2  0
 19  8  1  0
 17 12  1  0
  1 33  1  0
  1 34  1  0
  1 35  1  0
  2 36  1  0
  2 37  1  0
  9 38  1  0
 10 39  1  0
 13 40  1  0
 14 41  1  0
 15 42  1  0
 16 43  1  0
 17 44  1  0
 18 45  1  0
 19 46  1  0
 20 47  1  0
 23 48  1  0
 26 49  1  0
 26 50  1  0
 27 51  1  0
 28 52  1  0
 28 53  1  0
 29 54  1  0
 29 55  1  0
 31 56  1  0
 31 57  1  0
 31 58  1  0
 32 59  1  0
 32 60  1  0
 32 61  1  0
M  END
$$$$
