
     RDKit          3D

 48 50  0  0  0  0  0  0  0  0999 V2000
    0.4851   -3.9191   -1.6802 C   0  0  0  0  0  0  0  0  0  0  0  0
    0.5905   -3.3622   -0.2686 C   0  0  0  0  0  0  0  0  0  0  0  0
    1.4865   -2.1634   -0.2128 C   0  0  0  0  0  0  0  0  0  0  0  0
    1.1669   -0.8804   -0.0557 C   0  0  0  0  0  0  0  0  0  0  0  0
   -0.1865   -0.3444    0.0695 C   0  0  0  0  0  0  0  0  0  0  0  0
   -0.9295   -0.0558   -1.0842 C   0  0  0  0  0  0  0  0  0  0  0  0
   -2.2322    0.4357   -0.9840 C   0  0  0  0  0  0  0  0  0  0  0  0
   -3.0336    0.7541   -2.0498 O   0  0  0  0  0  0  0  0  0  0  0  0
   -2.5695    0.4040   -3.3465 C   0  0  0  0  0  0  0  0  0  0  0  0
   -2.7813    0.6427    0.2928 C   0  0  0  0  0  0  0  0  0  0  0  0
   -4.0809    1.0885    0.4010 O   0  0  0  0  0  0  0  0  0  0  0  0
   -4.0971    2.5128    0.4797 C   0  0  0  0  0  0  0  0  0  0  0  0
   -2.0641    0.3232    1.4584 C   0  0  0  0  0  0  0  0  0  0  0  0
   -2.7114    0.5366    2.6478 O   0  0  0  0  0  0  0  0  0  0  0  0
   -2.0633    0.1026    3.8355 C   0  0  0  0  0  0  0  0  0  0  0  0
   -0.7636   -0.1701    1.3345 C   0  0  0  0  0  0  0  0  0  0  0  0
    2.4047   -0.0489   -0.0580 C   0  0  0  0  0  0  0  0  0  0  0  0
    2.5151    0.9667   -1.2076 C   0  0  0  0  0  0  0  0  0  0  0  0
    3.3663    2.0914   -0.6310 C   0  0  0  0  0  0  0  0  0  0  0  0
    2.8881    2.1809    0.8073 C   0  0  0  0  0  0  0  0  0  0  0  0
    2.7069    0.7270    1.2387 C   0  0  0  0  0  0  0  0  0  0  0  0
    3.4322   -1.1683   -0.2538 C   0  0  0  0  0  0  0  0  0  0  0  0
    4.6431   -0.9988   -0.3400 O   0  0  0  0  0  0  0  0  0  0  0  0
    2.8521   -2.4121   -0.3257 O   0  0  0  0  0  0  0  0  0  0  0  0
    0.0767   -3.1731   -2.3700 H   0  0  0  0  0  0  0  0  0  0  0  0
    1.4634   -4.2341   -2.0585 H   0  0  0  0  0  0  0  0  0  0  0  0
   -0.1773   -4.7902   -1.6941 H   0  0  0  0  0  0  0  0  0  0  0  0
    0.9828   -4.1359    0.4018 H   0  0  0  0  0  0  0  0  0  0  0  0
   -0.4144   -3.1212    0.0956 H   0  0  0  0  0  0  0  0  0  0  0  0
   -0.4677   -0.2221   -2.0524 H   0  0  0  0  0  0  0  0  0  0  0  0
   -2.3794   -0.6717   -3.4231 H   0  0  0  0  0  0  0  0  0  0  0  0
   -1.6803    0.9842   -3.6139 H   0  0  0  0  0  0  0  0  0  0  0  0
   -3.3578    0.6548   -4.0628 H   0  0  0  0  0  0  0  0  0  0  0  0
   -3.5866    2.8681    1.3814 H   0  0  0  0  0  0  0  0  0  0  0  0
   -5.1419    2.8331    0.5345 H   0  0  0  0  0  0  0  0  0  0  0  0
   -3.6502    2.9697   -0.4104 H   0  0  0  0  0  0  0  0  0  0  0  0
   -1.8627   -0.9735    3.8079 H   0  0  0  0  0  0  0  0  0  0  0  0
   -2.7395    0.2936    4.6743 H   0  0  0  0  0  0  0  0  0  0  0  0
   -1.1454    0.6723    4.0124 H   0  0  0  0  0  0  0  0  0  0  0  0
   -0.1813   -0.4329    2.2115 H   0  0  0  0  0  0  0  0  0  0  0  0
    2.9721    0.5537   -2.1134 H   0  0  0  0  0  0  0  0  0  0  0  0
    1.5370    1.3744   -1.4852 H   0  0  0  0  0  0  0  0  0  0  0  0
    3.2310    3.0319   -1.1730 H   0  0  0  0  0  0  0  0  0  0  0  0
    4.4290    1.8261   -0.6648 H   0  0  0  0  0  0  0  0  0  0  0  0
    3.5932    2.7178    1.4481 H   0  0  0  0  0  0  0  0  0  0  0  0
    1.9251    2.7039    0.8503 H   0  0  0  0  0  0  0  0  0  0  0  0
    3.6303    0.3728    1.7133 H   0  0  0  0  0  0  0  0  0  0  0  0
    1.9195    0.6557    1.9942 H   0  0  0  0  0  0  0  0  0  0  0  0
  1  2  1  0
  2  3  1  0
  3  4  2  0
  4  5  1  0
  5  6  2  0
  6  7  1  0
  7  8  1  0
  8  9  1  0
  7 10  2  0
 10 11  1  0
 11 12  1  0
 10 13  1  0
 13 14  1  0
 14 15  1  0
 13 16  2  0
  4 17  1  0
 17 18  1  0
 18 19  1  0
 19 20  1  0
 20 21  1  0
 17 22  1  0
 22 23  2  0
 22 24  1  0
 24  3  1  0
 16  5  1  0
 21 17  1  0
  1 25  1  0
  1 26  1  0
  1 27  1  0
  2 28  1  0
  2 29  1  0
  6 30  1  0
  9 31  1  0
  9 32  1  0
  9 33  1  0
 12 34  1  0
 12 35  1  0
 12 36  1  0
 15 37  1  0
 15 38  1  0
 15 39  1  0
 16 40  1  0
 18 41  1  0
 18 42  1  0
 19 43  1  0
 19 44  1  0
 20 45  1  0
 20 46  1  0
 21 47  1  0
 21 48  1  0
M  END
$$$$
