
     RDKit          3D

 35 36  0  0  0  0  0  0  0  0999 V2000
    2.0189   -2.2273   -0.2103 O   0  0  0  0  0  0  0  0  0  0  0  0
    2.2064   -1.1521    0.3480 C   0  0  0  0  0  0  0  0  0  0  0  0
    1.1853   -0.3303    0.7811 N   0  0  0  0  0  0  0  0  0  0  0  0
   -0.2099   -0.7010    0.6133 C   0  0  0  0  0  0  0  0  0  0  0  0
   -0.6918   -0.4558   -0.8155 C   0  0  0  0  0  0  0  0  0  0  0  0
   -2.1456   -0.8756   -1.0260 C   0  0  0  0  0  0  0  0  0  0  0  0
   -3.1086    0.0208   -0.4077 N   0  0  0  0  0  0  0  0  0  0  0  0
   -3.4095    1.3247   -0.9422 C   0  0  0  0  0  0  0  0  0  0  0  0
   -4.6235    1.7514   -0.1411 C   0  0  0  0  0  0  0  0  0  0  0  0
   -4.4114    1.0923    1.2167 C   0  0  0  0  0  0  0  0  0  0  0  0
   -3.6030   -0.1369    0.8795 C   0  0  0  0  0  0  0  0  0  0  0  0
   -3.3820   -1.0671    1.6363 O   0  0  0  0  0  0  0  0  0  0  0  0
    3.5890   -0.6589    0.5436 C   0  0  0  0  0  0  0  0  0  0  0  0
    4.6024   -1.0820   -0.3192 C   0  0  0  0  0  0  0  0  0  0  0  0
    5.9026   -0.6180   -0.1317 C   0  0  0  0  0  0  0  0  0  0  0  0
    6.1447    0.2515    0.9202 C   0  0  0  0  0  0  0  0  0  0  0  0
    5.1919    0.6705    1.7827 N   0  0  0  0  0  0  0  0  0  0  0  0
    3.9376    0.1942    1.5819 C   0  0  0  0  0  0  0  0  0  0  0  0
    1.3812    0.6209    1.0605 H   0  0  0  0  0  0  0  0  0  0  0  0
   -0.7770   -0.0980    1.3282 H   0  0  0  0  0  0  0  0  0  0  0  0
   -0.3247   -1.7571    0.8817 H   0  0  0  0  0  0  0  0  0  0  0  0
   -0.5519    0.5993   -1.0795 H   0  0  0  0  0  0  0  0  0  0  0  0
   -0.0670   -1.0320   -1.5089 H   0  0  0  0  0  0  0  0  0  0  0  0
   -2.3037   -1.8860   -0.6319 H   0  0  0  0  0  0  0  0  0  0  0  0
   -2.3721   -0.9017   -2.0978 H   0  0  0  0  0  0  0  0  0  0  0  0
   -3.6192    1.2654   -2.0137 H   0  0  0  0  0  0  0  0  0  0  0  0
   -2.5561    1.9863   -0.7618 H   0  0  0  0  0  0  0  0  0  0  0  0
   -5.5340    1.3491   -0.6029 H   0  0  0  0  0  0  0  0  0  0  0  0
   -4.7312    2.8377   -0.0766 H   0  0  0  0  0  0  0  0  0  0  0  0
   -3.8227    1.7298    1.8834 H   0  0  0  0  0  0  0  0  0  0  0  0
   -5.3593    0.8219    1.6878 H   0  0  0  0  0  0  0  0  0  0  0  0
    4.3799   -1.7693   -1.1323 H   0  0  0  0  0  0  0  0  0  0  0  0
    6.7066   -0.9302   -0.7890 H   0  0  0  0  0  0  0  0  0  0  0  0
    7.1420    0.6410    1.1061 H   0  0  0  0  0  0  0  0  0  0  0  0
    3.2157    0.5226    2.3231 H   0  0  0  0  0  0  0  0  0  0  0  0
  1  2  2  0
  2  3  1  0
  3  4  1  0
  4  5  1  0
  5  6  1  0
  6  7  1  0
  7  8  1  0
  8  9  1  0
  9 10  1  0
 10 11  1  0
 11 12  2  0
  2 13  1  0
 13 14  2  0
 14 15  1  0
 15 16  2  0
 16 17  1  0
 17 18  2  0
 11  7  1  0
 18 13  1  0
  3 19  1  0
  4 20  1  0
  4 21  1  0
  5 22  1  0
  5 23  1  0
  6 24  1  0
  6 25  1  0
  8 26  1  0
  8 27  1  0
  9 28  1  0
  9 29  1  0
 10 30  1  0
 10 31  1  0
 14 32  1  0
 15 33  1  0
 16 34  1  0
 18 35  1  0
M  END
$$$$
