
     RDKit          3D

 41 42  0  0  0  0  0  0  0  0999 V2000
   -7.3516    0.5175    0.8998 C   0  0  0  0  0  0  0  0  0  0  0  0
   -5.9458    0.5080    0.3417 C   0  0  0  0  0  0  0  0  0  0  0  0
   -5.8116    0.6622   -0.8734 O   0  0  0  0  0  0  0  0  0  0  0  0
   -4.8994    0.3492    1.2681 N   0  0  0  0  0  0  0  0  0  0  0  0
   -5.1601    0.3229    2.7098 C   0  0  0  0  0  0  0  0  0  0  0  0
   -3.5140    0.3244    0.8545 C   0  0  0  0  0  0  0  0  0  0  0  0
   -2.4836    0.6477    1.7515 C   0  0  0  0  0  0  0  0  0  0  0  0
   -1.1282    0.6156    1.3753 C   0  0  0  0  0  0  0  0  0  0  0  0
   -0.7547    0.2508    0.0888 C   0  0  0  0  0  0  0  0  0  0  0  0
    0.5634    0.1807   -0.4105 N   0  0  0  0  0  0  0  0  0  0  0  0
    1.8092    0.3779    0.1402 C   0  0  0  0  0  0  0  0  0  0  0  0
    2.2384    0.7729    1.7064 S   0  0  0  0  0  0  0  0  0  0  0  0
    2.8638    0.2264   -0.7538 N   0  0  0  0  0  0  0  0  0  0  0  0
    2.8383   -0.1378   -2.0788 C   0  0  0  0  0  0  0  0  0  0  0  0
    1.8026   -0.3549   -2.7070 O   0  0  0  0  0  0  0  0  0  0  0  0
    4.1342   -0.1653   -2.8097 C   0  0  0  0  0  0  0  0  0  0  0  0
    5.4101   -0.3749   -2.4543 C   0  0  0  0  0  0  0  0  0  0  0  0
    5.9048   -0.6871   -1.1610 C   0  0  0  0  0  0  0  0  0  0  0  0
    7.2325   -0.8039   -0.7598 C   0  0  0  0  0  0  0  0  0  0  0  0
    7.2504   -1.1357    0.6157 C   0  0  0  0  0  0  0  0  0  0  0  0
    5.9366   -1.2126    0.9956 C   0  0  0  0  0  0  0  0  0  0  0  0
    5.1279   -0.9466   -0.0577 O   0  0  0  0  0  0  0  0  0  0  0  0
   -1.7730   -0.0761   -0.8127 C   0  0  0  0  0  0  0  0  0  0  0  0
   -3.1251   -0.0427   -0.4368 C   0  0  0  0  0  0  0  0  0  0  0  0
   -8.0602    0.7144    0.0886 H   0  0  0  0  0  0  0  0  0  0  0  0
   -7.4676    1.3130    1.6405 H   0  0  0  0  0  0  0  0  0  0  0  0
   -7.5958   -0.4588    1.3263 H   0  0  0  0  0  0  0  0  0  0  0  0
   -6.1660   -0.0301    2.9430 H   0  0  0  0  0  0  0  0  0  0  0  0
   -5.0491    1.3365    3.1075 H   0  0  0  0  0  0  0  0  0  0  0  0
   -4.4730   -0.3665    3.2111 H   0  0  0  0  0  0  0  0  0  0  0  0
   -2.6954    0.9687    2.7673 H   0  0  0  0  0  0  0  0  0  0  0  0
   -0.4087    0.8989    2.1310 H   0  0  0  0  0  0  0  0  0  0  0  0
    0.6118   -0.0854   -1.3960 H   0  0  0  0  0  0  0  0  0  0  0  0
    3.7730    0.3366   -0.3205 H   0  0  0  0  0  0  0  0  0  0  0  0
    3.9553   -0.0024   -3.8735 H   0  0  0  0  0  0  0  0  0  0  0  0
    6.1542   -0.3284   -3.2479 H   0  0  0  0  0  0  0  0  0  0  0  0
    8.0947   -0.6630   -1.3980 H   0  0  0  0  0  0  0  0  0  0  0  0
    8.1118   -1.3005    1.2476 H   0  0  0  0  0  0  0  0  0  0  0  0
    5.4353   -1.4333    1.9286 H   0  0  0  0  0  0  0  0  0  0  0  0
   -1.5358   -0.3727   -1.8329 H   0  0  0  0  0  0  0  0  0  0  0  0
   -3.8495   -0.3456   -1.1869 H   0  0  0  0  0  0  0  0  0  0  0  0
  1  2  1  0
  2  3  2  0
  2  4  1  0
  4  5  1  0
  4  6  1  0
  6  7  2  0
  7  8  1  0
  8  9  2  0
  9 10  1  0
 10 11  1  0
 11 12  2  0
 11 13  1  0
 13 14  1  0
 14 15  2  0
 14 16  1  0
 16 17  2  3
 17 18  1  0
 18 19  2  0
 19 20  1  0
 20 21  2  0
 21 22  1  0
  9 23  1  0
 23 24  2  0
 24  6  1  0
 22 18  1  0
  1 25  1  0
  1 26  1  0
  1 27  1  0
  5 28  1  0
  5 29  1  0
  5 30  1  0
  7 31  1  0
  8 32  1  0
 10 33  1  0
 13 34  1  0
 16 35  1  0
 17 36  1  0
 19 37  1  0
 20 38  1  0
 21 39  1  0
 23 40  1  0
 24 41  1  0
M  END
$$$$
