
     RDKit          3D

 29 31  0  0  0  0  0  0  0  0999 V2000
    3.9858   -1.6729   -0.1646 N   0  0  0  0  0  0  0  0  0  0  0  0
    2.8811   -0.9043    0.2568 C   0  0  0  0  0  0  0  0  0  0  0  0
    1.7098   -0.9393   -0.5538 C   0  0  0  0  0  0  0  0  0  0  0  0
    0.5328   -0.1609   -0.3458 C   0  0  0  0  0  0  0  0  0  0  0  0
   -0.5584   -0.3585   -1.2274 N   0  0  0  0  0  0  0  0  0  0  0  0
   -1.9265   -0.0782   -1.0355 C   0  0  0  0  0  0  0  0  0  0  0  0
   -2.7092    0.3183   -2.1300 C   0  0  0  0  0  0  0  0  0  0  0  0
   -4.0746    0.5793   -1.9823 C   0  0  0  0  0  0  0  0  0  0  0  0
   -4.6806    0.4348   -0.7377 C   0  0  0  0  0  0  0  0  0  0  0  0
   -3.9228    0.0232    0.3550 C   0  0  0  0  0  0  0  0  0  0  0  0
   -2.5575   -0.2372    0.2035 C   0  0  0  0  0  0  0  0  0  0  0  0
    0.6335    0.7373    0.7539 C   0  0  0  0  0  0  0  0  0  0  0  0
   -0.2484    1.6301    1.2246 N   0  0  0  0  0  0  0  0  0  0  0  0
    0.3501    2.2458    2.3013 O   0  0  0  0  0  0  0  0  0  0  0  0
    1.6223    1.7611    2.5215 N   0  0  0  0  0  0  0  0  0  0  0  0
    1.8430    0.8419    1.5708 C   0  0  0  0  0  0  0  0  0  0  0  0
    2.9662    0.0437    1.2964 C   0  0  0  0  0  0  0  0  0  0  0  0
    4.1395    0.2058    2.1062 N   0  0  0  0  0  4  0  0  0  0  0  0
    4.5915    1.3484    2.2512 O   0  0  0  0  0  0  0  0  0  0  0  0
    4.6442   -0.8278    2.5716 O   0  0  0  0  0  1  0  0  0  0  0  0
    4.6599   -1.8834    0.5768 H   0  0  0  0  0  0  0  0  0  0  0  0
    3.7486   -2.5136   -0.6866 H   0  0  0  0  0  0  0  0  0  0  0  0
    1.6974   -1.6366   -1.3951 H   0  0  0  0  0  0  0  0  0  0  0  0
   -0.2734   -0.2518   -2.1972 H   0  0  0  0  0  0  0  0  0  0  0  0
   -2.2621    0.4386   -3.1131 H   0  0  0  0  0  0  0  0  0  0  0  0
   -4.6630    0.8957   -2.8395 H   0  0  0  0  0  0  0  0  0  0  0  0
   -5.7414    0.6387   -0.6194 H   0  0  0  0  0  0  0  0  0  0  0  0
   -4.3911   -0.0990    1.3280 H   0  0  0  0  0  0  0  0  0  0  0  0
   -1.9964   -0.5794    1.0682 H   0  0  0  0  0  0  0  0  0  0  0  0
  1  2  1  0
  2  3  1  0
  3  4  2  0
  4  5  1  0
  5  6  1  0
  6  7  2  0
  7  8  1  0
  8  9  2  0
  9 10  1  0
 10 11  2  0
  4 12  1  0
 12 13  2  0
 13 14  1  0
 14 15  1  0
 15 16  2  0
 16 17  1  0
 17 18  1  0
 18 19  2  0
 18 20  1  0
 17  2  2  0
 11  6  1  0
 16 12  1  0
  1 21  1  0
  1 22  1  0
  3 23  1  0
  5 24  1  0
  7 25  1  0
  8 26  1  0
  9 27  1  0
 10 28  1  0
 11 29  1  0
M  CHG  2  18   1  20  -1
M  END
$$$$
