
     RDKit          3D

 46 50  0  0  0  0  0  0  0  0999 V2000
   -5.8908    0.8953    2.7839 C   0  0  0  0  0  0  0  0  0  0  0  0
   -4.7680    0.4469    1.8837 C   0  0  0  0  0  0  0  0  0  0  0  0
   -3.4737    0.3367    2.4219 C   0  0  0  0  0  0  0  0  0  0  0  0
   -2.3827   -0.0707    1.6509 C   0  0  0  0  0  0  0  0  0  0  0  0
   -2.6379   -0.3655    0.3121 C   0  0  0  0  0  0  0  0  0  0  0  0
   -3.9088   -0.2696   -0.2666 C   0  0  0  0  0  0  0  0  0  0  0  0
   -3.8778   -0.6229   -1.6065 N   0  0  0  0  0  0  0  0  0  0  0  0
   -2.6258   -0.9146   -1.8164 C   0  0  0  0  0  0  0  0  0  0  0  0
   -1.7767   -1.4719   -3.2011 S   0  0  0  0  0  0  0  0  0  0  0  0
   -0.2685   -1.4563   -2.2858 C   0  0  0  0  0  0  0  0  0  0  0  0
    0.8915   -1.7600   -2.8868 C   0  0  0  0  0  0  0  0  0  0  0  0
    2.1623   -1.6703   -2.2636 C   0  0  0  0  0  0  0  0  0  0  0  0
    3.2920   -2.4513   -2.4729 C   0  0  0  0  0  0  0  0  0  0  0  0
    4.3244   -1.9535   -1.6400 C   0  0  0  0  0  0  0  0  0  0  0  0
    3.7958   -0.8666   -0.9818 C   0  0  0  0  0  0  0  0  0  0  0  0
    4.2934    0.0636    0.0239 C   0  0  0  0  0  0  0  0  0  0  0  0
    5.1065   -0.4332    1.0584 C   0  0  0  0  0  0  0  0  0  0  0  0
    5.5550    0.3993    2.0889 C   0  0  0  0  0  0  0  0  0  0  0  0
    5.1955    1.7440    2.1078 C   0  0  0  0  0  0  0  0  0  0  0  0
    4.3999    2.2612    1.0874 C   0  0  0  0  0  0  0  0  0  0  0  0
    3.9654    1.4314    0.0412 C   0  0  0  0  0  0  0  0  0  0  0  0
    3.1818    2.0838   -1.0245 C   0  0  0  0  0  0  0  0  0  0  0  0
    2.2276    2.8219   -0.8672 O   0  0  0  0  0  0  0  0  0  0  0  0
    3.7340    1.8808   -2.2347 O   0  0  0  0  0  0  0  0  0  0  0  0
    2.5010   -0.6946   -1.3605 O   0  0  0  0  0  0  0  0  0  0  0  0
   -0.5011   -1.0901   -0.8487 C   0  0  0  0  0  0  0  0  0  0  0  0
    0.2411   -1.0943    0.1132 O   0  0  0  0  0  0  0  0  0  0  0  0
   -1.8392   -0.7803   -0.7241 N   0  0  0  0  0  0  0  0  0  0  0  0
   -5.0101    0.1428    0.5170 C   0  0  0  0  0  0  0  0  0  0  0  0
   -6.3900    0.2576   -0.0695 C   0  0  0  0  0  0  0  0  0  0  0  0
   -6.6631    0.1220    2.8422 H   0  0  0  0  0  0  0  0  0  0  0  0
   -6.3296    1.8254    2.4092 H   0  0  0  0  0  0  0  0  0  0  0  0
   -5.5386    1.0852    3.8034 H   0  0  0  0  0  0  0  0  0  0  0  0
   -3.2998    0.5749    3.4709 H   0  0  0  0  0  0  0  0  0  0  0  0
   -1.3864   -0.1489    2.0767 H   0  0  0  0  0  0  0  0  0  0  0  0
    0.8918   -2.0693   -3.9290 H   0  0  0  0  0  0  0  0  0  0  0  0
    3.3565   -3.2963   -3.1449 H   0  0  0  0  0  0  0  0  0  0  0  0
    5.3310   -2.3340   -1.5415 H   0  0  0  0  0  0  0  0  0  0  0  0
    5.3752   -1.4875    1.0871 H   0  0  0  0  0  0  0  0  0  0  0  0
    6.1726   -0.0093    2.8853 H   0  0  0  0  0  0  0  0  0  0  0  0
    5.5340    2.3889    2.9150 H   0  0  0  0  0  0  0  0  0  0  0  0
    4.1243    3.3138    1.0991 H   0  0  0  0  0  0  0  0  0  0  0  0
    3.1500    2.3761   -2.8439 H   0  0  0  0  0  0  0  0  0  0  0  0
   -7.0806   -0.4156    0.4480 H   0  0  0  0  0  0  0  0  0  0  0  0
   -6.3989   -0.0115   -1.1305 H   0  0  0  0  0  0  0  0  0  0  0  0
   -6.7545    1.2863    0.0136 H   0  0  0  0  0  0  0  0  0  0  0  0
  1  2  1  0
  2  3  2  0
  3  4  1  0
  4  5  2  0
  5  6  1  0
  6  7  1  0
  7  8  2  0
  8  9  1  0
  9 10  1  0
 10 11  2  3
 11 12  1  0
 12 13  2  0
 13 14  1  0
 14 15  2  0
 15 16  1  0
 16 17  2  0
 17 18  1  0
 18 19  2  0
 19 20  1  0
 20 21  2  0
 21 22  1  0
 22 23  2  0
 22 24  1  0
 15 25  1  0
 10 26  1  0
 26 27  2  0
 26 28  1  0
  6 29  2  0
 29 30  1  0
 29  2  1  0
 28  5  1  0
 28  8  1  0
 25 12  1  0
 21 16  1  0
  1 31  1  0
  1 32  1  0
  1 33  1  0
  3 34  1  0
  4 35  1  0
 11 36  1  0
 13 37  1  0
 14 38  1  0
 17 39  1  0
 18 40  1  0
 19 41  1  0
 20 42  1  0
 24 43  1  0
 30 44  1  0
 30 45  1  0
 30 46  1  0
M  END
$$$$
