
     RDKit          3D

 55 58  0  0  0  0  0  0  0  0999 V2000
    4.1925   -5.3454    0.4343 N   0  0  0  0  0  0  0  0  0  0  0  0
    4.2287   -4.1385    1.0828 C   0  0  0  0  0  0  0  0  0  0  0  0
    5.0468   -3.9257    1.9740 O   0  0  0  0  0  0  0  0  0  0  0  0
    3.2347   -3.1546    0.6214 C   0  0  0  0  0  0  0  0  0  0  0  0
    2.4557   -3.4457   -0.4358 N   0  0  0  0  0  0  0  0  0  0  0  0
    1.4670   -2.1581   -0.7509 S   0  0  0  0  0  0  0  0  0  0  0  0
    1.9918   -1.1870    0.5513 C   0  0  0  0  0  0  0  0  0  0  0  0
    1.4658    0.1481    0.7539 C   0  0  0  0  0  0  0  0  0  0  0  0
    2.2333    1.1118    0.7557 O   0  0  0  0  0  0  0  0  0  0  0  0
    0.0648    0.3267    0.8277 N   0  0  0  0  0  0  0  0  0  0  0  0
   -0.8599   -0.6964    1.2080 C   0  0  0  0  0  0  0  0  0  0  0  0
   -2.1152   -0.7721    0.5872 C   0  0  0  0  0  0  0  0  0  0  0  0
   -3.0256   -1.7712    0.9415 C   0  0  0  0  0  0  0  0  0  0  0  0
   -2.6970   -2.6965    1.9289 C   0  0  0  0  0  0  0  0  0  0  0  0
   -1.4622   -2.6179    2.5696 C   0  0  0  0  0  0  0  0  0  0  0  0
   -0.5487   -1.6223    2.2130 C   0  0  0  0  0  0  0  0  0  0  0  0
   -0.4515    1.7215    0.8387 C   0  0  0  0  0  0  0  0  0  0  0  0
   -0.2432    2.4279   -0.5283 C   0  0  0  0  0  0  0  0  0  0  0  0
   -0.3809    3.6387   -0.6997 O   0  0  0  0  0  0  0  0  0  0  0  0
   -0.0488    1.5668   -1.5961 N   0  0  0  0  0  0  0  0  0  0  0  0
   -0.0268    2.0155   -2.9672 C   0  0  0  0  0  0  0  0  0  0  0  0
   -1.3389    1.6823   -3.6340 C   0  0  0  0  0  0  0  0  0  0  0  0
   -1.5083    0.4646   -4.3112 C   0  0  0  0  0  0  0  0  0  0  0  0
   -2.7373    0.1501   -4.8927 C   0  0  0  0  0  0  0  0  0  0  0  0
   -3.7971    1.0455   -4.7907 C   0  0  0  0  0  0  0  0  0  0  0  0
   -4.9767    0.7373   -5.3453 F   0  0  0  0  0  0  0  0  0  0  0  0
   -3.6530    2.2505   -4.1156 C   0  0  0  0  0  0  0  0  0  0  0  0
   -2.4253    2.5678   -3.5330 C   0  0  0  0  0  0  0  0  0  0  0  0
    0.0581    2.5114    2.0143 C   0  0  0  0  0  0  0  0  0  0  0  0
    0.2806    3.8562    2.2567 C   0  0  0  0  0  0  0  0  0  0  0  0
    0.7301    3.9661    3.5944 C   0  0  0  0  0  0  0  0  0  0  0  0
    0.7556    2.6849    4.0936 C   0  0  0  0  0  0  0  0  0  0  0  0
    0.3323    1.8010    3.1570 O   0  0  0  0  0  0  0  0  0  0  0  0
    3.0077   -1.8515    1.2073 C   0  0  0  0  0  0  0  0  0  0  0  0
    3.6682   -1.3547    2.2824 N   0  0  0  0  0  0  0  0  0  0  0  0
    4.8587   -6.0611    0.6787 H   0  0  0  0  0  0  0  0  0  0  0  0
    3.5305   -5.4860   -0.3188 H   0  0  0  0  0  0  0  0  0  0  0  0
   -2.4001   -0.0801   -0.2010 H   0  0  0  0  0  0  0  0  0  0  0  0
   -3.9923   -1.8271    0.4472 H   0  0  0  0  0  0  0  0  0  0  0  0
   -3.4063   -3.4727    2.2079 H   0  0  0  0  0  0  0  0  0  0  0  0
   -1.2102   -3.3266    3.3559 H   0  0  0  0  0  0  0  0  0  0  0  0
    0.3863   -1.5615    2.7668 H   0  0  0  0  0  0  0  0  0  0  0  0
   -1.5432    1.6985    0.9604 H   0  0  0  0  0  0  0  0  0  0  0  0
   -0.1171    0.5738   -1.4260 H   0  0  0  0  0  0  0  0  0  0  0  0
    0.1770    3.0914   -3.0313 H   0  0  0  0  0  0  0  0  0  0  0  0
    0.7998    1.4972   -3.4673 H   0  0  0  0  0  0  0  0  0  0  0  0
   -0.6849   -0.2425   -4.3915 H   0  0  0  0  0  0  0  0  0  0  0  0
   -2.8766   -0.7864   -5.4218 H   0  0  0  0  0  0  0  0  0  0  0  0
   -4.4950    2.9325   -4.0437 H   0  0  0  0  0  0  0  0  0  0  0  0
   -2.3143    3.5080   -2.9935 H   0  0  0  0  0  0  0  0  0  0  0  0
    0.1327    4.6647    1.5537 H   0  0  0  0  0  0  0  0  0  0  0  0
    1.0064    4.8672    4.1266 H   0  0  0  0  0  0  0  0  0  0  0  0
    1.0308    2.2583    5.0486 H   0  0  0  0  0  0  0  0  0  0  0  0
    4.5081   -1.8328    2.6207 H   0  0  0  0  0  0  0  0  0  0  0  0
    3.6922   -0.3517    2.4643 H   0  0  0  0  0  0  0  0  0  0  0  0
  1  2  1  0
  2  3  2  0
  2  4  1  0
  4  5  2  0
  5  6  1  0
  6  7  1  0
  7  8  1  0
  8  9  2  0
  8 10  1  0
 10 11  1  0
 11 12  2  0
 12 13  1  0
 13 14  2  0
 14 15  1  0
 15 16  2  0
 10 17  1  0
 17 18  1  0
 18 19  2  0
 18 20  1  0
 20 21  1  0
 21 22  1  0
 22 23  2  0
 23 24  1  0
 24 25  2  0
 25 26  1  0
 25 27  1  0
 27 28  2  0
 17 29  1  0
 29 30  2  0
 30 31  1  0
 31 32  2  0
 32 33  1  0
  7 34  2  0
 34 35  1  0
 34  4  1  0
 16 11  1  0
 28 22  1  0
 33 29  1  0
  1 36  1  0
  1 37  1  0
 12 38  1  0
 13 39  1  0
 14 40  1  0
 15 41  1  0
 16 42  1  0
 17 43  1  0
 20 44  1  0
 21 45  1  0
 21 46  1  0
 23 47  1  0
 24 48  1  0
 27 49  1  0
 28 50  1  0
 30 51  1  0
 31 52  1  0
 32 53  1  0
 35 54  1  0
 35 55  1  0
M  END
$$$$
