
     RDKit          3D

 41 43  0  0  0  0  0  0  0  0999 V2000
   -2.9674   -3.3501    1.7367 C   0  0  0  0  0  0  0  0  0  0  0  0
   -2.7185   -1.8879    2.0709 C   0  0  0  0  0  0  0  0  0  0  0  0
   -1.2345   -1.5323    1.9590 C   0  0  0  0  0  0  0  0  0  0  0  0
   -1.0006   -0.0598    2.2919 C   0  0  0  0  0  0  0  0  0  0  0  0
    0.7647    0.3710    2.2477 S   0  0  0  0  0  0  0  0  0  0  0  0
    0.9837    0.4709    0.5297 C   0  0  0  0  0  0  0  0  0  0  0  0
    1.4029   -0.5776   -0.1096 N   0  0  0  0  0  0  0  0  0  0  0  0
    1.3559   -0.2080   -1.4280 C   0  0  0  0  0  0  0  0  0  0  0  0
    1.6779   -0.9242   -2.5147 C   0  0  0  0  0  0  0  0  0  0  0  0
    2.1615   -2.2737   -2.5923 C   0  0  0  0  0  0  0  0  0  0  0  0
    2.4617   -2.9237   -3.8326 C   0  0  0  0  0  0  0  0  0  0  0  0
    2.9085   -4.2155   -3.6587 C   0  0  0  0  0  0  0  0  0  0  0  0
    2.9697   -4.6544   -2.0088 S   0  0  0  0  0  0  0  0  0  0  0  0
    2.3989   -3.1133   -1.5234 C   0  0  0  0  0  0  0  0  0  0  0  0
    0.8496    1.1916   -1.5376 C   0  0  0  0  0  0  0  0  0  0  0  0
    0.6903    1.7990   -2.5821 O   0  0  0  0  0  0  0  0  0  0  0  0
    0.6634    1.5669   -0.2261 N   0  0  0  0  0  0  0  0  0  0  0  0
    0.2396    2.8668    0.1641 C   0  0  0  0  0  0  0  0  0  0  0  0
    0.6616    3.4645    1.3601 C   0  0  0  0  0  0  0  0  0  0  0  0
    0.2300    4.7454    1.7251 C   0  0  0  0  0  0  0  0  0  0  0  0
   -0.6247    5.4597    0.8934 C   0  0  0  0  0  0  0  0  0  0  0  0
   -1.0382    4.8980   -0.3085 C   0  0  0  0  0  0  0  0  0  0  0  0
   -0.6046    3.6181   -0.6711 C   0  0  0  0  0  0  0  0  0  0  0  0
   -4.0334   -3.5825    1.8229 H   0  0  0  0  0  0  0  0  0  0  0  0
   -2.6517   -3.5779    0.7135 H   0  0  0  0  0  0  0  0  0  0  0  0
   -2.4200   -4.0074    2.4198 H   0  0  0  0  0  0  0  0  0  0  0  0
   -3.0746   -1.6858    3.0878 H   0  0  0  0  0  0  0  0  0  0  0  0
   -3.3042   -1.2589    1.3904 H   0  0  0  0  0  0  0  0  0  0  0  0
   -0.8939   -1.7534    0.9408 H   0  0  0  0  0  0  0  0  0  0  0  0
   -0.6591   -2.1690    2.6426 H   0  0  0  0  0  0  0  0  0  0  0  0
   -1.5580    0.5886    1.6075 H   0  0  0  0  0  0  0  0  0  0  0  0
   -1.3612    0.1516    3.3043 H   0  0  0  0  0  0  0  0  0  0  0  0
    1.5576   -0.4234   -3.4758 H   0  0  0  0  0  0  0  0  0  0  0  0
    2.3569   -2.4700   -4.8111 H   0  0  0  0  0  0  0  0  0  0  0  0
    3.2023   -4.9235   -4.4212 H   0  0  0  0  0  0  0  0  0  0  0  0
    2.2718   -2.9175   -0.4677 H   0  0  0  0  0  0  0  0  0  0  0  0
    1.3802    2.9834    2.0167 H   0  0  0  0  0  0  0  0  0  0  0  0
    0.5781    5.1887    2.6553 H   0  0  0  0  0  0  0  0  0  0  0  0
   -0.9565    6.4558    1.1746 H   0  0  0  0  0  0  0  0  0  0  0  0
   -1.6984    5.4529   -0.9709 H   0  0  0  0  0  0  0  0  0  0  0  0
   -0.9675    3.2167   -1.6150 H   0  0  0  0  0  0  0  0  0  0  0  0
  1  2  1  0
  2  3  1  0
  3  4  1  0
  4  5  1  0
  5  6  1  0
  6  7  2  0
  7  8  1  0
  8  9  2  3
  9 10  1  0
 10 11  1  0
 11 12  2  0
 12 13  1  0
 13 14  1  0
  8 15  1  0
 15 16  2  0
 15 17  1  0
 17 18  1  0
 18 19  2  0
 19 20  1  0
 20 21  2  0
 21 22  1  0
 22 23  2  0
 17  6  1  0
 23 18  1  0
 14 10  2  0
  1 24  1  0
  1 25  1  0
  1 26  1  0
  2 27  1  0
  2 28  1  0
  3 29  1  0
  3 30  1  0
  4 31  1  0
  4 32  1  0
  9 33  1  0
 11 34  1  0
 12 35  1  0
 14 36  1  0
 19 37  1  0
 20 38  1  0
 21 39  1  0
 22 40  1  0
 23 41  1  0
M  END
$$$$
