
     RDKit          3D

 57 61  0  0  0  0  0  0  0  0999 V2000
    5.7765   -3.5198   -4.4289 C   0  0  0  0  0  0  0  0  0  0  0  0
    5.4432   -3.0836   -3.0336 C   0  0  0  0  0  0  0  0  0  0  0  0
    5.6344   -3.9516   -1.9533 C   0  0  0  0  0  0  0  0  0  0  0  0
    5.2972   -3.5543   -0.6573 C   0  0  0  0  0  0  0  0  0  0  0  0
    4.7601   -2.2814   -0.4192 C   0  0  0  0  0  0  0  0  0  0  0  0
    4.3870   -1.8573    0.9789 C   0  0  0  0  0  0  0  0  0  0  0  0
    3.0515   -2.2945    1.3254 N   0  0  0  0  0  0  0  0  0  0  0  0
    2.8494   -3.4520    2.0036 N   0  0  0  0  0  0  0  0  0  0  0  0
    1.5364   -3.5883    2.1922 N   0  0  0  0  0  0  0  0  0  0  0  0
    0.9348   -2.4974    1.6455 C   0  0  0  0  0  0  0  0  0  0  0  0
   -0.4512   -2.1265    1.5601 C   0  0  0  0  0  0  0  0  0  0  0  0
   -1.3984   -2.7796    1.9852 O   0  0  0  0  0  0  0  0  0  0  0  0
   -0.6279   -0.9022    0.9237 N   0  0  0  0  0  0  0  0  0  0  0  0
    0.4087   -0.1275    0.4177 C   0  0  0  0  0  0  0  0  0  0  0  0
    0.0332    1.2004   -0.2288 C   0  0  0  0  0  0  0  0  0  0  0  0
   -0.4639    2.2070    0.8171 C   0  0  0  0  0  0  0  0  0  0  0  0
   -1.9763    2.2138    1.0113 C   0  0  0  0  0  0  0  0  0  0  0  0
   -2.7344    2.2333   -0.2727 N   0  0  0  0  0  0  0  0  0  0  0  0
   -3.9898    3.4072   -0.3683 S   0  0  0  0  0  6  0  0  0  0  0  0
   -4.7038    3.2081   -1.6108 O   0  0  0  0  0  0  0  0  0  0  0  0
   -3.3971    4.6863   -0.0306 O   0  0  0  0  0  0  0  0  0  0  0  0
   -5.0762    2.9125    0.9476 C   0  0  0  0  0  0  0  0  0  0  0  0
   -5.3068    3.7719    2.0277 C   0  0  0  0  0  0  0  0  0  0  0  0
   -6.1594    3.3611    3.0537 C   0  0  0  0  0  0  0  0  0  0  0  0
   -6.7693    2.1099    2.9862 C   0  0  0  0  0  0  0  0  0  0  0  0
   -7.5965    1.7296    3.9673 F   0  0  0  0  0  0  0  0  0  0  0  0
   -6.5422    1.2543    1.9114 C   0  0  0  0  0  0  0  0  0  0  0  0
   -5.6902    1.6558    0.8812 C   0  0  0  0  0  0  0  0  0  0  0  0
   -1.8972    2.1987   -1.4997 C   0  0  0  0  0  0  0  0  0  0  0  0
   -0.9321    1.0261   -1.4040 C   0  0  0  0  0  0  0  0  0  0  0  0
    1.6695   -0.4560    0.4927 N   0  0  0  0  0  0  0  0  0  0  0  0
    1.8694   -1.6480    1.1055 C   0  0  0  0  0  0  0  0  0  0  0  0
    4.5430   -1.4238   -1.5067 C   0  0  0  0  0  0  0  0  0  0  0  0
    4.8798   -1.8233   -2.8021 C   0  0  0  0  0  0  0  0  0  0  0  0
    6.1823   -2.6818   -5.0067 H   0  0  0  0  0  0  0  0  0  0  0  0
    6.5398   -4.3070   -4.4257 H   0  0  0  0  0  0  0  0  0  0  0  0
    4.8792   -3.9007   -4.9258 H   0  0  0  0  0  0  0  0  0  0  0  0
    6.0454   -4.9468   -2.1133 H   0  0  0  0  0  0  0  0  0  0  0  0
    5.4483   -4.2518    0.1664 H   0  0  0  0  0  0  0  0  0  0  0  0
    5.0858   -2.2742    1.7136 H   0  0  0  0  0  0  0  0  0  0  0  0
    4.4287   -0.7675    1.0857 H   0  0  0  0  0  0  0  0  0  0  0  0
   -1.5932   -0.6323    0.8097 H   0  0  0  0  0  0  0  0  0  0  0  0
    0.9686    1.6132   -0.6334 H   0  0  0  0  0  0  0  0  0  0  0  0
   -0.1588    3.2133    0.4949 H   0  0  0  0  0  0  0  0  0  0  0  0
    0.0262    2.0393    1.7849 H   0  0  0  0  0  0  0  0  0  0  0  0
   -2.2332    3.0707    1.6446 H   0  0  0  0  0  0  0  0  0  0  0  0
   -2.2927    1.3208    1.5626 H   0  0  0  0  0  0  0  0  0  0  0  0
   -4.8364    4.7515    2.0751 H   0  0  0  0  0  0  0  0  0  0  0  0
   -6.3587    4.0101    3.9014 H   0  0  0  0  0  0  0  0  0  0  0  0
   -7.0290    0.2873    1.8832 H   0  0  0  0  0  0  0  0  0  0  0  0
   -5.5136    0.9984    0.0335 H   0  0  0  0  0  0  0  0  0  0  0  0
   -1.3583    3.1457   -1.6258 H   0  0  0  0  0  0  0  0  0  0  0  0
   -2.5326    2.0481   -2.3799 H   0  0  0  0  0  0  0  0  0  0  0  0
   -0.3557    0.9481   -2.3362 H   0  0  0  0  0  0  0  0  0  0  0  0
   -1.5028    0.0919   -1.3270 H   0  0  0  0  0  0  0  0  0  0  0  0
    4.1015   -0.4407   -1.3544 H   0  0  0  0  0  0  0  0  0  0  0  0
    4.6978   -1.1445   -3.6316 H   0  0  0  0  0  0  0  0  0  0  0  0
  1  2  1  0
  2  3  2  0
  3  4  1  0
  4  5  2  0
  5  6  1  0
  6  7  1  0
  7  8  1  0
  8  9  2  0
  9 10  1  0
 10 11  1  0
 11 12  2  0
 11 13  1  0
 13 14  1  0
 14 15  1  0
 15 16  1  0
 16 17  1  0
 17 18  1  0
 18 19  1  0
 19 20  2  0
 19 21  2  0
 19 22  1  0
 22 23  2  0
 23 24  1  0
 24 25  2  0
 25 26  1  0
 25 27  1  0
 27 28  2  0
 18 29  1  0
 29 30  1  0
 14 31  2  0
 31 32  1  0
  5 33  1  0
 33 34  2  0
 34  2  1  0
 32  7  1  0
 32 10  2  0
 30 15  1  0
 28 22  1  0
  1 35  1  0
  1 36  1  0
  1 37  1  0
  3 38  1  0
  4 39  1  0
  6 40  1  0
  6 41  1  0
 13 42  1  0
 15 43  1  0
 16 44  1  0
 16 45  1  0
 17 46  1  0
 17 47  1  0
 23 48  1  0
 24 49  1  0
 27 50  1  0
 28 51  1  0
 29 52  1  0
 29 53  1  0
 30 54  1  0
 30 55  1  0
 33 56  1  0
 34 57  1  0
M  END
$$$$
