
     RDKit          3D

 38 39  0  0  0  0  0  0  0  0999 V2000
   -5.7240   -1.3623    1.1143 C   0  0  0  0  0  0  0  0  0  0  0  0
   -5.1812   -0.2139    0.4789 O   0  0  0  0  0  0  0  0  0  0  0  0
   -3.8547    0.0682    0.6927 C   0  0  0  0  0  0  0  0  0  0  0  0
   -3.0068   -0.6931    1.5061 C   0  0  0  0  0  0  0  0  0  0  0  0
   -1.6682   -0.3291    1.6652 C   0  0  0  0  0  0  0  0  0  0  0  0
   -1.1739    0.7987    1.0083 C   0  0  0  0  0  0  0  0  0  0  0  0
    0.2599    1.1787    1.1646 C   0  0  0  0  0  0  0  0  0  0  0  0
    0.8100    1.1720    2.3413 N   0  0  0  0  0  0  0  0  0  0  0  0
    0.9558    1.5273    0.0212 N   0  0  0  0  0  0  0  0  0  0  0  0
    2.3506    1.4388    0.2096 O   0  0  0  0  0  0  0  0  0  0  0  0
    2.8672    0.2858   -0.3336 C   0  0  0  0  0  0  0  0  0  0  0  0
    2.2207   -0.4636   -1.0579 O   0  0  0  0  0  0  0  0  0  0  0  0
    4.3172    0.1584    0.0735 C   0  0  0  0  0  0  0  0  0  0  0  0
    4.9073   -1.1378   -0.3960 C   0  0  0  0  0  0  0  0  0  0  0  0
    5.5238   -1.4127   -1.6015 C   0  0  0  0  0  0  0  0  0  0  0  0
    5.9679   -2.7638   -1.6868 C   0  0  0  0  0  0  0  0  0  0  0  0
    5.6805   -3.4741   -0.5433 C   0  0  0  0  0  0  0  0  0  0  0  0
    4.8816   -2.5154    0.6245 S   0  0  0  0  0  0  0  0  0  0  0  0
   -2.0081    1.5673    0.1898 C   0  0  0  0  0  0  0  0  0  0  0  0
   -3.3512    1.2097    0.0313 C   0  0  0  0  0  0  0  0  0  0  0  0
   -4.2496    1.9002   -0.7446 O   0  0  0  0  0  0  0  0  0  0  0  0
   -3.8025    3.0913   -1.3764 C   0  0  0  0  0  0  0  0  0  0  0  0
   -5.6792   -1.2687    2.2043 H   0  0  0  0  0  0  0  0  0  0  0  0
   -5.2250   -2.2755    0.7736 H   0  0  0  0  0  0  0  0  0  0  0  0
   -6.7783   -1.4347    0.8305 H   0  0  0  0  0  0  0  0  0  0  0  0
   -3.3564   -1.5793    2.0255 H   0  0  0  0  0  0  0  0  0  0  0  0
   -1.0150   -0.9425    2.2816 H   0  0  0  0  0  0  0  0  0  0  0  0
    0.1306    0.9292    3.0684 H   0  0  0  0  0  0  0  0  0  0  0  0
    0.6594    1.0225   -0.8184 H   0  0  0  0  0  0  0  0  0  0  0  0
    4.8715    0.9937   -0.3697 H   0  0  0  0  0  0  0  0  0  0  0  0
    4.3852    0.2394    1.1644 H   0  0  0  0  0  0  0  0  0  0  0  0
    5.6462   -0.6821   -2.3924 H   0  0  0  0  0  0  0  0  0  0  0  0
    6.4703   -3.1938   -2.5445 H   0  0  0  0  0  0  0  0  0  0  0  0
    5.8998   -4.5124   -0.3356 H   0  0  0  0  0  0  0  0  0  0  0  0
   -1.5956    2.4449   -0.2960 H   0  0  0  0  0  0  0  0  0  0  0  0
   -4.6491    3.5185   -1.9224 H   0  0  0  0  0  0  0  0  0  0  0  0
   -3.4748    3.8315   -0.6390 H   0  0  0  0  0  0  0  0  0  0  0  0
   -3.0118    2.8786   -2.1032 H   0  0  0  0  0  0  0  0  0  0  0  0
  1  2  1  0
  2  3  1  0
  3  4  2  0
  4  5  1  0
  5  6  2  0
  6  7  1  0
  7  8  2  3
  7  9  1  0
  9 10  1  0
 10 11  1  0
 11 12  2  0
 11 13  1  0
 13 14  1  0
 14 15  2  0
 15 16  1  0
 16 17  2  0
 17 18  1  0
  6 19  1  0
 19 20  2  0
 20 21  1  0
 21 22  1  0
 20  3  1  0
 18 14  1  0
  1 23  1  0
  1 24  1  0
  1 25  1  0
  4 26  1  0
  5 27  1  0
  8 28  1  0
  9 29  1  0
 13 30  1  0
 13 31  1  0
 15 32  1  0
 16 33  1  0
 17 34  1  0
 19 35  1  0
 22 36  1  0
 22 37  1  0
 22 38  1  0
M  END
$$$$
