
     RDKit          3D

 46 48  0  0  0  0  0  0  0  0999 V2000
    5.7646    0.6484   -2.6153 C   0  0  0  0  0  0  0  0  0  0  0  0
    4.7603    1.4382   -1.9916 O   0  0  0  0  0  0  0  0  0  0  0  0
    3.8349    0.7771   -1.2333 C   0  0  0  0  0  0  0  0  0  0  0  0
    2.8639    1.5922   -0.6536 C   0  0  0  0  0  0  0  0  0  0  0  0
    1.8576    1.0447    0.1464 C   0  0  0  0  0  0  0  0  0  0  0  0
    1.7908   -0.3404    0.3791 C   0  0  0  0  0  0  0  0  0  0  0  0
    0.6879   -0.8963    1.2775 C   0  0  0  0  0  0  0  0  0  0  0  0
    0.7104   -2.4011    1.5726 C   0  0  0  0  0  0  0  0  0  0  0  0
   -0.6717   -0.4731    0.8518 N   0  0  0  0  0  0  0  0  0  0  0  0
   -1.6087    0.1033    1.7203 C   0  0  0  0  0  0  0  0  0  0  0  0
   -1.3854    0.2069    3.1931 C   0  0  0  0  0  0  0  0  0  0  0  0
   -2.6626    0.5319    0.9355 C   0  0  0  0  0  0  0  0  0  0  0  0
   -3.8064    1.2539    1.3347 C   0  0  0  0  0  0  0  0  0  0  0  0
   -4.1981    1.7738    2.6721 C   0  0  0  0  0  0  0  0  0  0  0  0
   -4.6518    1.4843    0.2810 N   0  0  0  0  0  0  0  0  0  0  0  0
   -4.3968    1.0496   -1.0942 N   0  0  0  0  0  0  0  0  0  0  0  0
   -3.2818    0.3601   -1.4933 C   0  0  0  0  0  0  0  0  0  0  0  0
   -3.1571   -0.0007   -2.9311 C   0  0  0  0  0  0  0  0  0  0  0  0
   -2.4130    0.1060   -0.4119 C   0  0  0  0  0  0  0  0  0  0  0  0
   -1.2086   -0.5742   -0.4345 C   0  0  0  0  0  0  0  0  0  0  0  0
   -0.5208   -1.2591   -1.5680 C   0  0  0  0  0  0  0  0  0  0  0  0
    2.7819   -1.1481   -0.2000 C   0  0  0  0  0  0  0  0  0  0  0  0
    3.7909   -0.5958   -1.0016 C   0  0  0  0  0  0  0  0  0  0  0  0
    6.4139    1.3211   -3.1839 H   0  0  0  0  0  0  0  0  0  0  0  0
    5.3250   -0.0648   -3.3204 H   0  0  0  0  0  0  0  0  0  0  0  0
    6.3843    0.1381   -1.8706 H   0  0  0  0  0  0  0  0  0  0  0  0
    2.8885    2.6657   -0.8262 H   0  0  0  0  0  0  0  0  0  0  0  0
    1.1164    1.7141    0.5808 H   0  0  0  0  0  0  0  0  0  0  0  0
    0.8724   -0.3991    2.2380 H   0  0  0  0  0  0  0  0  0  0  0  0
   -0.0927   -2.6761    2.2656 H   0  0  0  0  0  0  0  0  0  0  0  0
    1.6585   -2.6938    2.0370 H   0  0  0  0  0  0  0  0  0  0  0  0
    0.5787   -3.0076    0.6717 H   0  0  0  0  0  0  0  0  0  0  0  0
   -0.8209   -0.6456    3.5821 H   0  0  0  0  0  0  0  0  0  0  0  0
   -2.3278    0.2078    3.7449 H   0  0  0  0  0  0  0  0  0  0  0  0
   -0.8420    1.1266    3.4304 H   0  0  0  0  0  0  0  0  0  0  0  0
   -5.0572    2.4475    2.5886 H   0  0  0  0  0  0  0  0  0  0  0  0
   -4.4811    0.9481    3.3310 H   0  0  0  0  0  0  0  0  0  0  0  0
   -3.3768    2.3378    3.1231 H   0  0  0  0  0  0  0  0  0  0  0  0
   -3.9298    0.5000   -3.5236 H   0  0  0  0  0  0  0  0  0  0  0  0
   -2.1849    0.3085   -3.3246 H   0  0  0  0  0  0  0  0  0  0  0  0
   -3.2788   -1.0794   -3.0627 H   0  0  0  0  0  0  0  0  0  0  0  0
    0.2028   -2.0060   -1.2418 H   0  0  0  0  0  0  0  0  0  0  0  0
   -1.2403   -1.8027   -2.1867 H   0  0  0  0  0  0  0  0  0  0  0  0
   -0.0055   -0.5279   -2.1984 H   0  0  0  0  0  0  0  0  0  0  0  0
    2.7898   -2.2246   -0.0477 H   0  0  0  0  0  0  0  0  0  0  0  0
    4.5272   -1.2693   -1.4277 H   0  0  0  0  0  0  0  0  0  0  0  0
  1  2  1  0
  2  3  1  0
  3  4  2  0
  4  5  1  0
  5  6  2  0
  6  7  1  0
  7  8  1  0
  7  9  1  0
  9 10  1  0
 10 11  1  0
 10 12  2  0
 12 13  1  0
 13 14  1  0
 13 15  2  0
 15 16  1  0
 16 17  2  0
 17 18  1  0
 17 19  1  0
 19 20  2  0
 20 21  1  0
  6 22  1  0
 22 23  2  0
 23  3  1  0
 20  9  1  0
 19 12  1  0
  1 24  1  0
  1 25  1  0
  1 26  1  0
  4 27  1  0
  5 28  1  0
  7 29  1  0
  8 30  1  0
  8 31  1  0
  8 32  1  0
 11 33  1  0
 11 34  1  0
 11 35  1  0
 14 36  1  0
 14 37  1  0
 14 38  1  0
 18 39  1  0
 18 40  1  0
 18 41  1  0
 21 42  1  0
 21 43  1  0
 21 44  1  0
 22 45  1  0
 23 46  1  0
M  END
$$$$
