
     RDKit          3D

 33 34  0  0  0  0  0  0  0  0999 V2000
   -5.3820   -0.1325    1.3449 C   0  0  0  0  0  0  0  0  0  0  0  0
   -4.7173    1.0963    1.0785 O   0  0  0  0  0  0  0  0  0  0  0  0
   -3.3701    1.0393    0.8564 C   0  0  0  0  0  0  0  0  0  0  0  0
   -2.7712    2.2721    0.5906 C   0  0  0  0  0  0  0  0  0  0  0  0
   -1.3960    2.3608    0.3604 C   0  0  0  0  0  0  0  0  0  0  0  0
   -0.5973    1.2102    0.3934 C   0  0  0  0  0  0  0  0  0  0  0  0
    0.8607    1.3880    0.1586 C   0  0  0  0  0  0  0  0  0  0  0  0
    1.2164    2.2514   -0.6464 O   0  0  0  0  0  0  0  0  0  0  0  0
    1.8589    0.5969    0.9766 C   0  0  0  0  0  0  0  0  0  0  0  0
    2.7618   -0.1514    0.0597 C   0  0  0  0  0  0  0  0  0  0  0  0
    2.5407   -1.3726   -0.3810 N   0  0  0  0  0  0  0  0  0  0  0  0
    3.5386   -1.8183   -1.2213 N   0  0  0  0  0  0  0  0  0  0  0  0
    4.4890   -0.9220   -1.3816 C   0  0  0  0  0  0  0  0  0  0  0  0
    5.6866   -1.0983   -2.2399 C   0  0  0  0  0  0  0  0  0  0  0  0
    4.2400    0.5300   -0.5003 S   0  0  0  0  0  0  0  0  0  0  0  0
   -1.2070   -0.0282    0.6141 C   0  0  0  0  0  0  0  0  0  0  0  0
   -0.4839   -1.1902    0.6289 O   0  0  0  0  0  0  0  0  0  0  0  0
   -0.5854   -1.8602   -0.6321 C   0  0  0  0  0  0  0  0  0  0  0  0
   -2.5830   -0.1115    0.8711 C   0  0  0  0  0  0  0  0  0  0  0  0
   -6.4438    0.0869    1.4941 H   0  0  0  0  0  0  0  0  0  0  0  0
   -5.2998   -0.8204    0.4973 H   0  0  0  0  0  0  0  0  0  0  0  0
   -5.0053   -0.5943    2.2637 H   0  0  0  0  0  0  0  0  0  0  0  0
   -3.3793    3.1742    0.5708 H   0  0  0  0  0  0  0  0  0  0  0  0
   -0.9498    3.3348    0.1638 H   0  0  0  0  0  0  0  0  0  0  0  0
    2.4165    1.3109    1.5945 H   0  0  0  0  0  0  0  0  0  0  0  0
    1.3748   -0.0841    1.6798 H   0  0  0  0  0  0  0  0  0  0  0  0
    5.8330   -2.1566   -2.4781 H   0  0  0  0  0  0  0  0  0  0  0  0
    6.5934   -0.7379   -1.7431 H   0  0  0  0  0  0  0  0  0  0  0  0
    5.5632   -0.5539   -3.1816 H   0  0  0  0  0  0  0  0  0  0  0  0
    0.0499   -2.7504   -0.5928 H   0  0  0  0  0  0  0  0  0  0  0  0
   -0.2306   -1.2227   -1.4494 H   0  0  0  0  0  0  0  0  0  0  0  0
   -1.6130   -2.1876   -0.8231 H   0  0  0  0  0  0  0  0  0  0  0  0
   -3.0085   -1.0888    1.0736 H   0  0  0  0  0  0  0  0  0  0  0  0
  1  2  1  0
  2  3  1  0
  3  4  2  0
  4  5  1  0
  5  6  2  0
  6  7  1  0
  7  8  2  0
  7  9  1  0
  9 10  1  0
 10 11  2  0
 11 12  1  0
 12 13  2  0
 13 14  1  0
 13 15  1  0
  6 16  1  0
 16 17  1  0
 17 18  1  0
 16 19  2  0
 19  3  1  0
 15 10  1  0
  1 20  1  0
  1 21  1  0
  1 22  1  0
  4 23  1  0
  5 24  1  0
  9 25  1  0
  9 26  1  0
 14 27  1  0
 14 28  1  0
 14 29  1  0
 18 30  1  0
 18 31  1  0
 18 32  1  0
 19 33  1  0
M  END
$$$$
