
     RDKit          3D

 51 53  0  0  0  0  0  0  0  0999 V2000
    6.8387   -1.7816   -2.2108 C   0  0  0  0  0  0  0  0  0  0  0  0
    6.3957   -1.6762   -0.8637 O   0  0  0  0  0  0  0  0  0  0  0  0
    7.0830   -0.6273   -0.1688 C   0  0  0  0  0  0  0  0  0  0  0  0
    6.5047   -0.5182    1.2429 C   0  0  0  0  0  0  0  0  0  0  0  0
    5.1094   -0.1144    1.2224 N   0  0  0  0  0  0  0  0  0  0  0  0
    4.7552    1.2077    1.0285 C   0  0  0  0  0  0  0  0  0  0  0  0
    5.5994    2.1011    1.0215 O   0  0  0  0  0  0  0  0  0  0  0  0
    3.3341    1.4193    0.7876 C   0  0  0  0  0  0  0  0  0  0  0  0
    2.8960    2.5987   -0.3783 S   0  0  0  0  0  0  0  0  0  0  0  0
    1.2402    2.2577   -0.2153 C   0  0  0  0  0  0  0  0  0  0  0  0
    0.3121    2.9001   -0.9681 N   0  0  0  0  0  0  0  0  0  0  0  0
   -0.9073    2.5413   -0.7275 C   0  0  0  0  0  0  0  0  0  0  0  0
   -1.3038    1.6157    0.2178 N   0  0  0  0  0  0  0  0  0  0  0  0
   -2.7130    1.2838    0.3610 C   0  0  0  0  0  0  0  0  0  0  0  0
   -3.1024    0.1567   -0.6058 C   0  0  0  0  0  0  0  0  0  0  0  0
   -2.2875   -0.3080   -1.4057 O   0  0  0  0  0  0  0  0  0  0  0  0
   -4.4263   -0.2770   -0.5679 N   0  0  0  0  0  0  0  0  0  0  0  0
   -4.8570   -1.2926   -1.5313 C   0  0  0  0  0  0  0  0  0  0  0  0
   -6.3015   -1.0720   -1.9644 C   0  0  0  0  0  0  0  0  0  0  0  0
   -7.2696   -1.0855   -0.7812 C   0  0  0  0  0  0  0  0  0  0  0  0
   -6.5954   -0.7475    0.5472 C   0  0  0  0  0  0  0  0  0  0  0  0
   -5.4327    0.2227    0.3719 C   0  0  0  0  0  0  0  0  0  0  0  0
   -0.3778    0.9104    0.9821 C   0  0  0  0  0  0  0  0  0  0  0  0
   -0.6953    0.0515    1.8014 O   0  0  0  0  0  0  0  0  0  0  0  0
    1.0066    1.2919    0.7385 C   0  0  0  0  0  0  0  0  0  0  0  0
    2.2187    0.8137    1.3611 C   0  0  0  0  0  0  0  0  0  0  0  0
    2.2433   -0.1880    2.4741 C   0  0  0  0  0  0  0  0  0  0  0  0
    6.2947   -2.6006   -2.6887 H   0  0  0  0  0  0  0  0  0  0  0  0
    7.9093   -2.0050   -2.2457 H   0  0  0  0  0  0  0  0  0  0  0  0
    6.6277   -0.8569   -2.7564 H   0  0  0  0  0  0  0  0  0  0  0  0
    8.1484   -0.8758   -0.1111 H   0  0  0  0  0  0  0  0  0  0  0  0
    6.9626    0.3160   -0.7135 H   0  0  0  0  0  0  0  0  0  0  0  0
    6.5369   -1.4913    1.7436 H   0  0  0  0  0  0  0  0  0  0  0  0
    7.0791    0.2040    1.8321 H   0  0  0  0  0  0  0  0  0  0  0  0
    4.4497   -0.8158    0.9100 H   0  0  0  0  0  0  0  0  0  0  0  0
   -1.7339    2.9953   -1.2977 H   0  0  0  0  0  0  0  0  0  0  0  0
   -2.9046    0.9677    1.3900 H   0  0  0  0  0  0  0  0  0  0  0  0
   -3.3167    2.1672    0.1273 H   0  0  0  0  0  0  0  0  0  0  0  0
   -4.7434   -2.2702   -1.0480 H   0  0  0  0  0  0  0  0  0  0  0  0
   -4.2057   -1.2853   -2.4116 H   0  0  0  0  0  0  0  0  0  0  0  0
   -6.3755   -0.1002   -2.4695 H   0  0  0  0  0  0  0  0  0  0  0  0
   -6.6005   -1.8297   -2.6973 H   0  0  0  0  0  0  0  0  0  0  0  0
   -8.0808   -0.3745   -0.9796 H   0  0  0  0  0  0  0  0  0  0  0  0
   -7.7421   -2.0717   -0.6969 H   0  0  0  0  0  0  0  0  0  0  0  0
   -6.2191   -1.6746    0.9990 H   0  0  0  0  0  0  0  0  0  0  0  0
   -7.3334   -0.3365    1.2450 H   0  0  0  0  0  0  0  0  0  0  0  0
   -5.7905    1.1827   -0.0184 H   0  0  0  0  0  0  0  0  0  0  0  0
   -4.9717    0.4118    1.3449 H   0  0  0  0  0  0  0  0  0  0  0  0
    2.1400   -1.2011    2.0733 H   0  0  0  0  0  0  0  0  0  0  0  0
    3.1716   -0.1329    3.0505 H   0  0  0  0  0  0  0  0  0  0  0  0
    1.4305   -0.0063    3.1839 H   0  0  0  0  0  0  0  0  0  0  0  0
  1  2  1  0
  2  3  1  0
  3  4  1  0
  4  5  1  0
  5  6  1  0
  6  7  2  0
  6  8  1  0
  8  9  1  0
  9 10  1  0
 10 11  1  0
 11 12  2  0
 12 13  1  0
 13 14  1  0
 14 15  1  0
 15 16  2  0
 15 17  1  0
 17 18  1  0
 18 19  1  0
 19 20  1  0
 20 21  1  0
 21 22  1  0
 13 23  1  0
 23 24  2  0
 23 25  1  0
 25 26  1  0
 26 27  1  0
 26  8  2  0
 25 10  2  0
 22 17  1  0
  1 28  1  0
  1 29  1  0
  1 30  1  0
  3 31  1  0
  3 32  1  0
  4 33  1  0
  4 34  1  0
  5 35  1  0
 12 36  1  0
 14 37  1  0
 14 38  1  0
 18 39  1  0
 18 40  1  0
 19 41  1  0
 19 42  1  0
 20 43  1  0
 20 44  1  0
 21 45  1  0
 21 46  1  0
 22 47  1  0
 22 48  1  0
 27 49  1  0
 27 50  1  0
 27 51  1  0
M  END
$$$$
