
     RDKit          3D

 65 68  0  0  0  0  0  0  0  0999 V2000
  -10.2820   -1.9641    0.6661 C   0  0  0  0  0  0  0  0  0  0  0  0
   -8.8541   -1.5052    0.6624 C   0  0  0  0  0  0  0  0  0  0  0  0
   -8.5360   -0.1855    0.3238 C   0  0  0  0  0  0  0  0  0  0  0  0
   -7.2051    0.2360    0.2885 C   0  0  0  0  0  0  0  0  0  0  0  0
   -6.1684   -0.6593    0.5789 C   0  0  0  0  0  0  0  0  0  0  0  0
   -4.7347   -0.1922    0.5624 C   0  0  0  0  0  0  0  0  0  0  0  0
   -4.3398    0.4688    1.8847 C   0  0  0  0  0  0  0  0  0  0  0  0
   -2.9516    0.8898    1.8935 N   0  0  0  0  0  0  0  0  0  0  0  0
   -2.5409    2.0501    1.2726 C   0  0  0  0  0  0  0  0  0  0  0  0
   -3.3045    2.8106    0.6891 O   0  0  0  0  0  0  0  0  0  0  0  0
   -1.0465    2.2747    1.3840 C   0  0  0  0  0  0  0  0  0  0  0  0
   -0.6109    3.5906    0.7424 C   0  0  0  0  0  0  0  0  0  0  0  0
    0.8711    3.8951    0.9614 C   0  0  0  0  0  0  0  0  0  0  0  0
    1.7522    2.9648    0.2624 N   0  0  0  0  0  0  0  0  0  0  0  0
    1.9517    3.2339   -1.0963 N   0  0  0  0  0  0  0  0  0  0  0  0
    2.7064    2.4675   -1.8329 C   0  0  0  0  0  0  0  0  0  0  0  0
    2.8871    2.8238   -3.2809 C   0  0  0  0  0  0  0  0  0  0  0  0
    3.3334    1.3118   -1.2399 C   0  0  0  0  0  0  0  0  0  0  0  0
    4.1182    0.2808   -1.7294 C   0  0  0  0  0  0  0  0  0  0  0  0
    4.4826   -0.0560   -3.1299 C   0  0  0  0  0  0  0  0  0  0  0  0
    4.4811   -0.4743   -0.6066 N   0  0  0  0  0  0  0  0  0  0  0  0
    5.4431   -1.5219   -0.4596 C   0  0  0  0  0  0  0  0  0  0  0  0
    6.4725   -1.7311   -1.3833 C   0  0  0  0  0  0  0  0  0  0  0  0
    7.3960   -2.7668   -1.1926 C   0  0  0  0  0  0  0  0  0  0  0  0
    7.3103   -3.6069   -0.0779 C   0  0  0  0  0  0  0  0  0  0  0  0
    8.3231   -4.6916    0.1395 C   0  0  0  0  0  0  0  0  0  0  0  0
    6.3081   -3.3737    0.8671 C   0  0  0  0  0  0  0  0  0  0  0  0
    5.3849   -2.3405    0.6807 C   0  0  0  0  0  0  0  0  0  0  0  0
    3.7639   -0.0918    0.4857 N   0  0  0  0  0  0  0  0  0  0  0  0
    3.1373    1.0265    0.1150 C   0  0  0  0  0  0  0  0  0  0  0  0
    2.2976    1.8660    0.9589 C   0  0  0  0  0  0  0  0  0  0  0  0
    2.0724    1.6321    2.1450 O   0  0  0  0  0  0  0  0  0  0  0  0
   -6.4859   -1.9824    0.9073 C   0  0  0  0  0  0  0  0  0  0  0  0
   -7.8179   -2.4032    0.9416 C   0  0  0  0  0  0  0  0  0  0  0  0
  -10.5615   -2.3255   -0.3282 H   0  0  0  0  0  0  0  0  0  0  0  0
  -10.9539   -1.1459    0.9473 H   0  0  0  0  0  0  0  0  0  0  0  0
  -10.4320   -2.7706    1.3918 H   0  0  0  0  0  0  0  0  0  0  0  0
   -9.3238    0.5258    0.0860 H   0  0  0  0  0  0  0  0  0  0  0  0
   -6.9802    1.2694    0.0302 H   0  0  0  0  0  0  0  0  0  0  0  0
   -4.5893    0.5017   -0.2753 H   0  0  0  0  0  0  0  0  0  0  0  0
   -4.0701   -1.0412    0.3565 H   0  0  0  0  0  0  0  0  0  0  0  0
   -4.4675   -0.2283    2.7203 H   0  0  0  0  0  0  0  0  0  0  0  0
   -4.9697    1.3442    2.0818 H   0  0  0  0  0  0  0  0  0  0  0  0
   -2.2581    0.2762    2.3036 H   0  0  0  0  0  0  0  0  0  0  0  0
   -0.7801    2.2713    2.4474 H   0  0  0  0  0  0  0  0  0  0  0  0
   -0.5469    1.4303    0.8964 H   0  0  0  0  0  0  0  0  0  0  0  0
   -1.1984    4.4128    1.1703 H   0  0  0  0  0  0  0  0  0  0  0  0
   -0.8371    3.5698   -0.3309 H   0  0  0  0  0  0  0  0  0  0  0  0
    1.1024    3.8897    2.0325 H   0  0  0  0  0  0  0  0  0  0  0  0
    1.0959    4.9029    0.5920 H   0  0  0  0  0  0  0  0  0  0  0  0
    2.3246    2.1219   -3.9022 H   0  0  0  0  0  0  0  0  0  0  0  0
    2.5121    3.8336   -3.4733 H   0  0  0  0  0  0  0  0  0  0  0  0
    3.9460    2.7896   -3.5502 H   0  0  0  0  0  0  0  0  0  0  0  0
    4.5847   -1.1348   -3.2792 H   0  0  0  0  0  0  0  0  0  0  0  0
    3.6995    0.2604   -3.8244 H   0  0  0  0  0  0  0  0  0  0  0  0
    5.4107    0.4445   -3.4206 H   0  0  0  0  0  0  0  0  0  0  0  0
    6.6269   -1.0848   -2.2383 H   0  0  0  0  0  0  0  0  0  0  0  0
    8.1953   -2.9048   -1.9184 H   0  0  0  0  0  0  0  0  0  0  0  0
    9.1728   -4.3019    0.7086 H   0  0  0  0  0  0  0  0  0  0  0  0
    7.8841   -5.5315    0.6881 H   0  0  0  0  0  0  0  0  0  0  0  0
    8.6866   -5.0834   -0.8165 H   0  0  0  0  0  0  0  0  0  0  0  0
    6.2366   -3.9922    1.7593 H   0  0  0  0  0  0  0  0  0  0  0  0
    4.6156   -2.1921    1.4377 H   0  0  0  0  0  0  0  0  0  0  0  0
   -5.6986   -2.6971    1.1348 H   0  0  0  0  0  0  0  0  0  0  0  0
   -8.0417   -3.4383    1.1894 H   0  0  0  0  0  0  0  0  0  0  0  0
  1  2  1  0
  2  3  2  0
  3  4  1  0
  4  5  2  0
  5  6  1  0
  6  7  1  0
  7  8  1  0
  8  9  1  0
  9 10  2  0
  9 11  1  0
 11 12  1  0
 12 13  1  0
 13 14  1  0
 14 15  1  0
 15 16  2  0
 16 17  1  0
 16 18  1  0
 18 19  2  0
 19 20  1  0
 19 21  1  0
 21 22  1  0
 22 23  2  0
 23 24  1  0
 24 25  2  0
 25 26  1  0
 25 27  1  0
 27 28  2  0
 21 29  1  0
 29 30  2  0
 30 31  1  0
 31 32  2  0
  5 33  1  0
 33 34  2  0
 34  2  1  0
 31 14  1  0
 30 18  1  0
 28 22  1  0
  1 35  1  0
  1 36  1  0
  1 37  1  0
  3 38  1  0
  4 39  1  0
  6 40  1  0
  6 41  1  0
  7 42  1  0
  7 43  1  0
  8 44  1  0
 11 45  1  0
 11 46  1  0
 12 47  1  0
 12 48  1  0
 13 49  1  0
 13 50  1  0
 17 51  1  0
 17 52  1  0
 17 53  1  0
 20 54  1  0
 20 55  1  0
 20 56  1  0
 23 57  1  0
 24 58  1  0
 26 59  1  0
 26 60  1  0
 26 61  1  0
 27 62  1  0
 28 63  1  0
 33 64  1  0
 34 65  1  0
M  END
$$$$
