
     RDKit          3D

 53 55  0  0  0  0  0  0  0  0999 V2000
   -1.5718   -0.6703    1.5772 O   0  0  0  0  0  0  0  0  0  0  0  0
   -1.2487   -0.8621    0.4106 C   0  0  0  0  0  0  0  0  0  0  0  0
   -2.1428   -0.8119   -0.6322 N   0  0  0  0  0  0  0  0  0  0  0  0
   -3.5669   -0.5272   -0.4085 C   0  0  0  0  0  0  0  0  0  0  0  0
   -3.8060    0.9825   -0.2751 C   0  0  0  0  0  0  0  0  0  0  0  0
   -5.1938    1.3357    0.2032 C   0  0  0  0  0  0  0  0  0  0  0  0
   -5.5529    1.1237    1.5415 C   0  0  0  0  0  0  0  0  0  0  0  0
   -6.8369    1.4391    1.9870 C   0  0  0  0  0  0  0  0  0  0  0  0
   -7.7724    1.9696    1.1009 C   0  0  0  0  0  0  0  0  0  0  0  0
   -7.4246    2.1865   -0.2311 C   0  0  0  0  0  0  0  0  0  0  0  0
   -6.1408    1.8716   -0.6796 C   0  0  0  0  0  0  0  0  0  0  0  0
   -4.3183   -1.0812   -1.6137 C   0  0  0  0  0  0  0  0  0  0  0  0
   -3.8918   -1.1166   -2.7606 O   0  0  0  0  0  0  0  0  0  0  0  0
   -5.5383   -1.5666   -1.3207 O   0  0  0  0  0  0  0  0  0  0  0  0
    0.1627   -1.1885    0.0681 C   0  0  0  0  0  0  0  0  0  0  0  0
    0.9522   -1.8119    1.0454 C   0  0  0  0  0  0  0  0  0  0  0  0
    2.2845   -2.1336    0.7772 C   0  0  0  0  0  0  0  0  0  0  0  0
    2.8363   -1.8033   -0.4638 C   0  0  0  0  0  0  0  0  0  0  0  0
    4.5307   -2.2359   -0.8192 S   0  0  0  0  0  6  0  0  0  0  0  0
    4.6580   -2.3248   -2.2587 O   0  0  0  0  0  0  0  0  0  0  0  0
    4.8748   -3.3539    0.0336 O   0  0  0  0  0  0  0  0  0  0  0  0
    5.3921   -0.8741   -0.2910 N   0  0  0  0  0  0  0  0  0  0  0  0
    5.5621   -0.6990    1.1696 C   0  0  0  0  0  0  0  0  0  0  0  0
    6.4048    0.5389    1.4537 C   0  0  0  0  0  0  0  0  0  0  0  0
    5.7323    1.8081    0.9325 C   0  0  0  0  0  0  0  0  0  0  0  0
    4.8162    1.5378   -0.2598 C   0  0  0  0  0  0  0  0  0  0  0  0
    5.3094    0.3658   -1.0983 C   0  0  0  0  0  0  0  0  0  0  0  0
    2.0546   -1.1920   -1.4499 C   0  0  0  0  0  0  0  0  0  0  0  0
    0.7201   -0.8744   -1.1795 C   0  0  0  0  0  0  0  0  0  0  0  0
   -1.8707   -1.0841   -1.5707 H   0  0  0  0  0  0  0  0  0  0  0  0
   -3.8760   -1.0759    0.4889 H   0  0  0  0  0  0  0  0  0  0  0  0
   -3.6081    1.4804   -1.2341 H   0  0  0  0  0  0  0  0  0  0  0  0
   -3.0874    1.4216    0.4297 H   0  0  0  0  0  0  0  0  0  0  0  0
   -4.8313    0.7128    2.2460 H   0  0  0  0  0  0  0  0  0  0  0  0
   -7.1062    1.2711    3.0265 H   0  0  0  0  0  0  0  0  0  0  0  0
   -8.7720    2.2154    1.4493 H   0  0  0  0  0  0  0  0  0  0  0  0
   -8.1540    2.6026   -0.9210 H   0  0  0  0  0  0  0  0  0  0  0  0
   -5.8875    2.0491   -1.7223 H   0  0  0  0  0  0  0  0  0  0  0  0
   -5.9045   -1.8753   -2.1749 H   0  0  0  0  0  0  0  0  0  0  0  0
    0.5245   -2.0578    2.0164 H   0  0  0  0  0  0  0  0  0  0  0  0
    2.8792   -2.6385    1.5357 H   0  0  0  0  0  0  0  0  0  0  0  0
    6.0760   -1.5739    1.5816 H   0  0  0  0  0  0  0  0  0  0  0  0
    4.5893   -0.6044    1.6621 H   0  0  0  0  0  0  0  0  0  0  0  0
    7.3848    0.4281    0.9716 H   0  0  0  0  0  0  0  0  0  0  0  0
    6.5928    0.6349    2.5289 H   0  0  0  0  0  0  0  0  0  0  0  0
    6.5075    2.5322    0.6545 H   0  0  0  0  0  0  0  0  0  0  0  0
    5.1452    2.2769    1.7313 H   0  0  0  0  0  0  0  0  0  0  0  0
    4.7378    2.4405   -0.8760 H   0  0  0  0  0  0  0  0  0  0  0  0
    3.8047    1.3206    0.1068 H   0  0  0  0  0  0  0  0  0  0  0  0
    6.3079    0.5776   -1.4989 H   0  0  0  0  0  0  0  0  0  0  0  0
    4.6480    0.2411   -1.9605 H   0  0  0  0  0  0  0  0  0  0  0  0
    2.4753   -0.9599   -2.4264 H   0  0  0  0  0  0  0  0  0  0  0  0
    0.1399   -0.3670   -1.9454 H   0  0  0  0  0  0  0  0  0  0  0  0
  1  2  2  0
  2  3  1  0
  3  4  1  0
  4  5  1  0
  5  6  1  0
  6  7  2  0
  7  8  1  0
  8  9  2  0
  9 10  1  0
 10 11  2  0
  4 12  1  0
 12 13  2  0
 12 14  1  0
  2 15  1  0
 15 16  2  0
 16 17  1  0
 17 18  2  0
 18 19  1  0
 19 20  2  0
 19 21  2  0
 19 22  1  0
 22 23  1  0
 23 24  1  0
 24 25  1  0
 25 26  1  0
 26 27  1  0
 18 28  1  0
 28 29  2  0
 11  6  1  0
 29 15  1  0
 27 22  1  0
  3 30  1  0
  4 31  1  0
  5 32  1  0
  5 33  1  0
  7 34  1  0
  8 35  1  0
  9 36  1  0
 10 37  1  0
 11 38  1  0
 14 39  1  0
 16 40  1  0
 17 41  1  0
 23 42  1  0
 23 43  1  0
 24 44  1  0
 24 45  1  0
 25 46  1  0
 25 47  1  0
 26 48  1  0
 26 49  1  0
 27 50  1  0
 27 51  1  0
 28 52  1  0
 29 53  1  0
M  END
$$$$
