
     RDKit          3D

 66 69  0  0  0  0  0  0  0  0999 V2000
   -0.5351    6.4014   -4.1343 C   0  0  0  0  0  0  0  0  0  0  0  0
   -0.6010    5.0494   -3.6780 O   0  0  0  0  0  0  0  0  0  0  0  0
    0.2272    4.7679   -2.6415 C   0  0  0  0  0  0  0  0  0  0  0  0
    1.0026    5.5449   -2.1080 O   0  0  0  0  0  0  0  0  0  0  0  0
    0.0286    3.3636   -2.1961 C   0  0  0  0  0  0  0  0  0  0  0  0
   -0.5825    2.4021   -3.0088 C   0  0  0  0  0  0  0  0  0  0  0  0
   -0.7689    1.0991   -2.5378 C   0  0  0  0  0  0  0  0  0  0  0  0
   -0.3449    0.7313   -1.2518 C   0  0  0  0  0  0  0  0  0  0  0  0
   -0.6426   -0.6747   -0.7481 C   0  0  0  0  0  0  0  0  0  0  0  0
   -1.8238   -0.6429    0.2559 C   0  0  0  0  0  0  0  0  0  0  0  0
   -2.8714   -1.6897   -0.0552 C   0  0  0  0  0  0  0  0  0  0  0  0
   -2.7362   -2.4842   -0.9849 O   0  0  0  0  0  0  0  0  0  0  0  0
   -4.1134   -1.7709    0.7727 C   0  0  0  0  0  0  0  0  0  0  0  0
   -4.5486   -0.7251    1.5939 C   0  0  0  0  0  0  0  0  0  0  0  0
   -5.7225   -0.8650    2.3379 C   0  0  0  0  0  0  0  0  0  0  0  0
   -6.4692   -2.0438    2.2685 C   0  0  0  0  0  0  0  0  0  0  0  0
   -6.0449   -3.0932    1.4533 C   0  0  0  0  0  0  0  0  0  0  0  0
   -6.6801   -4.2943    1.2953 O   0  0  0  0  0  0  0  0  0  0  0  0
   -7.7768   -4.5588    2.1636 C   0  0  0  0  0  0  0  0  0  0  0  0
   -4.8754   -2.9473    0.7020 C   0  0  0  0  0  0  0  0  0  0  0  0
   -1.1257   -0.9175    1.5495 C   0  0  0  0  0  0  0  0  0  0  0  0
   -1.5735   -0.7111    2.6636 O   0  0  0  0  0  0  0  0  0  0  0  0
    0.2547   -1.4891    1.2756 C   0  0  0  0  0  0  0  0  0  0  0  0
    0.9636   -2.0214    2.0985 O   0  0  0  0  0  0  0  0  0  0  0  0
    0.4881   -1.2892   -0.0623 N   0  0  0  0  0  0  0  0  0  0  0  0
    1.6313   -1.8531   -0.7652 C   0  0  0  0  0  0  0  0  0  0  0  0
    2.8317   -0.9130   -0.8864 C   0  0  0  0  0  0  0  0  0  0  0  0
    3.4220   -0.5285    0.4774 C   0  0  0  0  0  0  0  0  0  0  0  0
    4.6426    0.2885    0.3506 N   0  0  0  0  0  0  0  0  0  0  0  0
    5.7691   -0.4996   -0.2067 C   0  0  0  0  0  0  0  0  0  0  0  0
    7.1404   -0.0455    0.3190 C   0  0  0  0  0  0  0  0  0  0  0  0
    7.2654   -0.1886    1.7386 O   0  0  0  0  0  0  0  0  0  0  0  0
    6.0319    0.0254    2.4378 C   0  0  0  0  0  0  0  0  0  0  0  0
    5.0304    0.8842    1.6499 C   0  0  0  0  0  0  0  0  0  0  0  0
    0.2802    1.6984   -0.4499 C   0  0  0  0  0  0  0  0  0  0  0  0
    0.4725    3.0005   -0.9197 C   0  0  0  0  0  0  0  0  0  0  0  0
    0.3852    6.5559   -4.7058 H   0  0  0  0  0  0  0  0  0  0  0  0
   -0.5983    7.1059   -3.2981 H   0  0  0  0  0  0  0  0  0  0  0  0
   -1.3914    6.5798   -4.7930 H   0  0  0  0  0  0  0  0  0  0  0  0
   -0.9198    2.6517   -4.0121 H   0  0  0  0  0  0  0  0  0  0  0  0
   -1.2483    0.3726   -3.1899 H   0  0  0  0  0  0  0  0  0  0  0  0
   -0.8579   -1.3052   -1.6183 H   0  0  0  0  0  0  0  0  0  0  0  0
   -2.2873    0.3473    0.2759 H   0  0  0  0  0  0  0  0  0  0  0  0
   -4.0018    0.2101    1.6825 H   0  0  0  0  0  0  0  0  0  0  0  0
   -6.0599   -0.0503    2.9773 H   0  0  0  0  0  0  0  0  0  0  0  0
   -7.3756   -2.1108    2.8602 H   0  0  0  0  0  0  0  0  0  0  0  0
   -8.1360   -5.5707    1.9474 H   0  0  0  0  0  0  0  0  0  0  0  0
   -7.4621   -4.5356    3.2123 H   0  0  0  0  0  0  0  0  0  0  0  0
   -8.6035   -3.8648    1.9814 H   0  0  0  0  0  0  0  0  0  0  0  0
   -4.5545   -3.7729    0.0655 H   0  0  0  0  0  0  0  0  0  0  0  0
    1.9435   -2.7632   -0.2369 H   0  0  0  0  0  0  0  0  0  0  0  0
    1.3003   -2.1608   -1.7634 H   0  0  0  0  0  0  0  0  0  0  0  0
    3.5862   -1.4242   -1.4939 H   0  0  0  0  0  0  0  0  0  0  0  0
    2.5479   -0.0073   -1.4330 H   0  0  0  0  0  0  0  0  0  0  0  0
    3.6100   -1.4246    1.0833 H   0  0  0  0  0  0  0  0  0  0  0  0
    2.6644    0.0612    1.0074 H   0  0  0  0  0  0  0  0  0  0  0  0
    5.6585   -1.5637    0.0366 H   0  0  0  0  0  0  0  0  0  0  0  0
    5.7556   -0.4014   -1.2963 H   0  0  0  0  0  0  0  0  0  0  0  0
    7.3363    1.0009    0.0514 H   0  0  0  0  0  0  0  0  0  0  0  0
    7.9324   -0.6467   -0.1392 H   0  0  0  0  0  0  0  0  0  0  0  0
    6.2782    0.5129    3.3877 H   0  0  0  0  0  0  0  0  0  0  0  0
    5.6038   -0.9548    2.6735 H   0  0  0  0  0  0  0  0  0  0  0  0
    5.5007    1.8532    1.4319 H   0  0  0  0  0  0  0  0  0  0  0  0
    4.1515    1.1093    2.2659 H   0  0  0  0  0  0  0  0  0  0  0  0
    0.6368    1.4539    0.5486 H   0  0  0  0  0  0  0  0  0  0  0  0
    0.9593    3.7328   -0.2780 H   0  0  0  0  0  0  0  0  0  0  0  0
  1  2  1  0
  2  3  1  0
  3  4  2  0
  3  5  1  0
  5  6  2  0
  6  7  1  0
  7  8  2  0
  8  9  1  0
  9 10  1  0
 10 11  1  0
 11 12  2  0
 11 13  1  0
 13 14  2  0
 14 15  1  0
 15 16  2  0
 16 17  1  0
 17 18  1  0
 18 19  1  0
 17 20  2  0
 10 21  1  0
 21 22  2  0
 21 23  1  0
 23 24  2  0
 23 25  1  0
 25 26  1  0
 26 27  1  0
 27 28  1  0
 28 29  1  0
 29 30  1  0
 30 31  1  0
 31 32  1  0
 32 33  1  0
 33 34  1  0
  8 35  1  0
 35 36  2  0
 36  5  1  0
 25  9  1  0
 34 29  1  0
 20 13  1  0
  1 37  1  0
  1 38  1  0
  1 39  1  0
  6 40  1  0
  7 41  1  0
  9 42  1  0
 10 43  1  0
 14 44  1  0
 15 45  1  0
 16 46  1  0
 19 47  1  0
 19 48  1  0
 19 49  1  0
 20 50  1  0
 26 51  1  0
 26 52  1  0
 27 53  1  0
 27 54  1  0
 28 55  1  0
 28 56  1  0
 30 57  1  0
 30 58  1  0
 31 59  1  0
 31 60  1  0
 33 61  1  0
 33 62  1  0
 34 63  1  0
 34 64  1  0
 35 65  1  0
 36 66  1  0
M  END
$$$$
