
     RDKit          3D

 46 48  0  0  0  0  0  0  0  0999 V2000
    5.5126    1.3361   -2.0318 C   0  0  0  0  0  0  0  0  0  0  0  0
    5.3361    0.7951   -0.7285 O   0  0  0  0  0  0  0  0  0  0  0  0
    4.1184    0.2393   -0.4509 C   0  0  0  0  0  0  0  0  0  0  0  0
    3.9835   -0.2555    0.8464 C   0  0  0  0  0  0  0  0  0  0  0  0
    2.7894   -0.8487    1.2699 C   0  0  0  0  0  0  0  0  0  0  0  0
    1.6941   -0.9530    0.4011 C   0  0  0  0  0  0  0  0  0  0  0  0
    0.3754   -1.6090    0.8056 C   0  0  0  0  0  0  0  0  0  0  0  0
    0.2833   -2.1959    2.2194 C   0  0  0  0  0  0  0  0  0  0  0  0
   -0.8045   -0.7506    0.5232 N   0  0  0  0  0  0  0  0  0  0  0  0
   -0.9677    0.5861    0.8971 C   0  0  0  0  0  0  0  0  0  0  0  0
   -0.0134    1.3234    1.7766 C   0  0  0  0  0  0  0  0  0  0  0  0
   -2.1113    1.0347    0.2613 C   0  0  0  0  0  0  0  0  0  0  0  0
   -2.6394    2.3422    0.2554 C   0  0  0  0  0  0  0  0  0  0  0  0
   -2.1336    3.5854    0.8970 C   0  0  0  0  0  0  0  0  0  0  0  0
   -3.7995    2.4149   -0.4706 N   0  0  0  0  0  0  0  0  0  0  0  0
   -4.4118    1.2806   -1.1665 N   0  0  0  0  0  0  0  0  0  0  0  0
   -3.8990    0.0098   -1.1753 C   0  0  0  0  0  0  0  0  0  0  0  0
   -4.6307   -1.0344   -1.9412 C   0  0  0  0  0  0  0  0  0  0  0  0
   -2.7113   -0.0766   -0.4200 C   0  0  0  0  0  0  0  0  0  0  0  0
   -1.9290   -1.1920   -0.1872 C   0  0  0  0  0  0  0  0  0  0  0  0
   -2.1204   -2.6175   -0.5884 C   0  0  0  0  0  0  0  0  0  0  0  0
    1.8492   -0.4643   -0.9100 C   0  0  0  0  0  0  0  0  0  0  0  0
    3.0449    0.1304   -1.3304 C   0  0  0  0  0  0  0  0  0  0  0  0
    5.4276    0.5572   -2.7969 H   0  0  0  0  0  0  0  0  0  0  0  0
    6.5245    1.7487   -2.0882 H   0  0  0  0  0  0  0  0  0  0  0  0
    4.8087    2.1537   -2.2190 H   0  0  0  0  0  0  0  0  0  0  0  0
    4.8194   -0.1782    1.5381 H   0  0  0  0  0  0  0  0  0  0  0  0
    2.7403   -1.2162    2.2914 H   0  0  0  0  0  0  0  0  0  0  0  0
    0.2992   -2.4625    0.1203 H   0  0  0  0  0  0  0  0  0  0  0  0
    0.3934   -1.4353    2.9978 H   0  0  0  0  0  0  0  0  0  0  0  0
   -0.6860   -2.6817    2.3789 H   0  0  0  0  0  0  0  0  0  0  0  0
    1.0593   -2.9525    2.3793 H   0  0  0  0  0  0  0  0  0  0  0  0
    0.5792    0.6665    2.4131 H   0  0  0  0  0  0  0  0  0  0  0  0
   -0.5508    1.9853    2.4616 H   0  0  0  0  0  0  0  0  0  0  0  0
    0.6691    1.9299    1.1732 H   0  0  0  0  0  0  0  0  0  0  0  0
   -1.0828    3.7512    0.6439 H   0  0  0  0  0  0  0  0  0  0  0  0
   -2.6999    4.4565    0.5517 H   0  0  0  0  0  0  0  0  0  0  0  0
   -2.2426    3.5224    1.9832 H   0  0  0  0  0  0  0  0  0  0  0  0
   -5.1133   -1.7373   -1.2564 H   0  0  0  0  0  0  0  0  0  0  0  0
   -5.4094   -0.5825   -2.5642 H   0  0  0  0  0  0  0  0  0  0  0  0
   -3.9496   -1.5767   -2.6030 H   0  0  0  0  0  0  0  0  0  0  0  0
   -3.1788   -2.8750   -0.6682 H   0  0  0  0  0  0  0  0  0  0  0  0
   -1.6421   -2.8071   -1.5541 H   0  0  0  0  0  0  0  0  0  0  0  0
   -1.7069   -3.3096    0.1511 H   0  0  0  0  0  0  0  0  0  0  0  0
    1.0264   -0.5339   -1.6210 H   0  0  0  0  0  0  0  0  0  0  0  0
    3.0995    0.4965   -2.3502 H   0  0  0  0  0  0  0  0  0  0  0  0
  1  2  1  0
  2  3  1  0
  3  4  2  0
  4  5  1  0
  5  6  2  0
  6  7  1  0
  7  8  1  0
  7  9  1  0
  9 10  1  0
 10 11  1  0
 10 12  2  0
 12 13  1  0
 13 14  1  0
 13 15  2  0
 15 16  1  0
 16 17  2  0
 17 18  1  0
 17 19  1  0
 19 20  2  0
 20 21  1  0
  6 22  1  0
 22 23  2  0
 23  3  1  0
 20  9  1  0
 19 12  1  0
  1 24  1  0
  1 25  1  0
  1 26  1  0
  4 27  1  0
  5 28  1  0
  7 29  1  0
  8 30  1  0
  8 31  1  0
  8 32  1  0
 11 33  1  0
 11 34  1  0
 11 35  1  0
 14 36  1  0
 14 37  1  0
 14 38  1  0
 18 39  1  0
 18 40  1  0
 18 41  1  0
 21 42  1  0
 21 43  1  0
 21 44  1  0
 22 45  1  0
 23 46  1  0
M  END
$$$$
