
     RDKit          3D

 22 23  0  0  0  0  0  0  0  0999 V2000
   -4.1760    0.3579    0.1668 C   0  0  0  0  0  0  0  0  0  0  0  0
   -2.6857    0.1961    0.1187 C   0  0  0  0  0  0  0  0  0  0  0  0
   -1.9000    1.0694   -0.6382 C   0  0  0  0  0  0  0  0  0  0  0  0
   -0.5053    0.9395   -0.6588 C   0  0  0  0  0  0  0  0  0  0  0  0
    0.1406   -0.0613    0.0844 C   0  0  0  0  0  0  0  0  0  0  0  0
    1.6040   -0.2476    0.1027 C   0  0  0  0  0  0  0  0  0  0  0  0
    2.2341   -1.1295    0.8584 N   0  0  0  0  0  0  0  0  0  0  0  0
    3.6030   -1.1013    0.6874 N   0  0  0  0  0  0  0  0  0  0  0  0
    3.9778   -0.2066   -0.1953 C   0  0  0  0  0  0  0  0  0  0  0  0
    5.2555    0.0187   -0.5589 N   0  0  0  0  0  0  0  0  0  0  0  0
    2.6771    0.6663   -0.8903 S   0  0  0  0  0  0  0  0  0  0  0  0
   -0.6618   -0.9209    0.8542 C   0  0  0  0  0  0  0  0  0  0  0  0
   -2.0547   -0.7930    0.8762 C   0  0  0  0  0  0  0  0  0  0  0  0
   -4.6684   -0.6061    0.3322 H   0  0  0  0  0  0  0  0  0  0  0  0
   -4.5560    0.7582   -0.7790 H   0  0  0  0  0  0  0  0  0  0  0  0
   -4.4523    1.0401    0.9765 H   0  0  0  0  0  0  0  0  0  0  0  0
   -2.3672    1.8615   -1.2200 H   0  0  0  0  0  0  0  0  0  0  0  0
    0.0556    1.6457   -1.2655 H   0  0  0  0  0  0  0  0  0  0  0  0
    5.9064   -0.7221   -0.3188 H   0  0  0  0  0  0  0  0  0  0  0  0
    5.4149    0.4158   -1.4769 H   0  0  0  0  0  0  0  0  0  0  0  0
   -0.2021   -1.7065    1.4535 H   0  0  0  0  0  0  0  0  0  0  0  0
   -2.6394   -1.4742    1.4908 H   0  0  0  0  0  0  0  0  0  0  0  0
  1  2  1  0
  2  3  2  0
  3  4  1  0
  4  5  2  0
  5  6  1  0
  6  7  2  0
  7  8  1  0
  8  9  2  0
  9 10  1  0
  9 11  1  0
  5 12  1  0
 12 13  2  0
 13  2  1  0
 11  6  1  0
  1 14  1  0
  1 15  1  0
  1 16  1  0
  3 17  1  0
  4 18  1  0
 10 19  1  0
 10 20  1  0
 12 21  1  0
 13 22  1  0
M  END
$$$$
