
     RDKit          3D

 55 58  0  0  0  0  0  0  0  0999 V2000
    7.7033    1.2863   -0.1618 C   0  0  0  0  0  0  0  0  0  0  0  0
    6.3203    1.2653    0.1695 O   0  0  0  0  0  0  0  0  0  0  0  0
    5.7215    0.0387    0.2967 C   0  0  0  0  0  0  0  0  0  0  0  0
    6.3504   -1.1852    0.0450 C   0  0  0  0  0  0  0  0  0  0  0  0
    5.6440   -2.3842    0.1744 C   0  0  0  0  0  0  0  0  0  0  0  0
    4.3041   -2.3707    0.5490 C   0  0  0  0  0  0  0  0  0  0  0  0
    3.6670   -1.1585    0.8018 C   0  0  0  0  0  0  0  0  0  0  0  0
    4.3711    0.0549    0.6957 C   0  0  0  0  0  0  0  0  0  0  0  0
    3.6475    1.3523    0.9707 C   0  0  0  0  0  0  0  0  0  0  0  0
    3.1524    1.9432   -0.2701 N   0  0  0  0  0  0  0  0  0  0  0  0
    1.9654    3.1122   -0.1653 S   0  0  0  0  0  6  0  0  0  0  0  0
    2.1038    3.7995    1.0990 O   0  0  0  0  0  0  0  0  0  0  0  0
    1.9757    3.8243   -1.4247 O   0  0  0  0  0  0  0  0  0  0  0  0
    0.4919    2.1211   -0.1258 C   0  0  0  0  0  0  0  0  0  0  0  0
   -0.1598    1.8851    1.0957 C   0  0  0  0  0  0  0  0  0  0  0  0
   -1.3246    1.1095    1.1322 C   0  0  0  0  0  0  0  0  0  0  0  0
   -1.8275    0.6011   -0.0564 C   0  0  0  0  0  0  0  0  0  0  0  0
   -1.1757    0.8536   -1.2672 C   0  0  0  0  0  0  0  0  0  0  0  0
   -0.0132    1.6080   -1.3243 C   0  0  0  0  0  0  0  0  0  0  0  0
   -1.8537    0.1554   -2.4026 C   0  0  0  0  0  0  0  0  0  0  0  0
   -3.1824   -0.2853   -1.7509 C   0  0  0  0  0  0  0  0  0  0  0  0
   -4.3317    0.6166   -2.2147 C   0  0  0  0  0  0  0  0  0  0  0  0
   -2.9811   -0.1862   -0.2800 N   0  0  0  0  0  0  0  0  0  0  0  0
   -3.7925   -0.7223    0.7204 C   0  0  0  0  0  0  0  0  0  0  0  0
   -3.5650   -0.5474    1.9263 O   0  0  0  0  0  0  0  0  0  0  0  0
   -5.0115   -1.5868    0.2732 C   0  0  0  0  0  0  0  0  0  0  0  0
   -5.3218   -2.8617    1.1121 C   0  0  0  0  0  0  0  0  0  0  0  0
   -6.8171   -2.5601    0.8995 C   0  0  0  0  0  0  0  0  0  0  0  0
   -6.4203   -1.0851    0.7023 C   0  0  0  0  0  0  0  0  0  0  0  0
    8.2997    0.7683    0.5973 H   0  0  0  0  0  0  0  0  0  0  0  0
    8.0256    2.3322   -0.1823 H   0  0  0  0  0  0  0  0  0  0  0  0
    7.8748    0.8656   -1.1575 H   0  0  0  0  0  0  0  0  0  0  0  0
    7.3894   -1.2436   -0.2623 H   0  0  0  0  0  0  0  0  0  0  0  0
    6.1423   -3.3298   -0.0234 H   0  0  0  0  0  0  0  0  0  0  0  0
    3.7546   -3.3047    0.6441 H   0  0  0  0  0  0  0  0  0  0  0  0
    2.6162   -1.1600    1.0863 H   0  0  0  0  0  0  0  0  0  0  0  0
    2.8218    1.1585    1.6643 H   0  0  0  0  0  0  0  0  0  0  0  0
    4.3208    2.0550    1.4743 H   0  0  0  0  0  0  0  0  0  0  0  0
    3.8501    2.1314   -0.9885 H   0  0  0  0  0  0  0  0  0  0  0  0
    0.2309    2.3003    2.0219 H   0  0  0  0  0  0  0  0  0  0  0  0
   -1.8165    0.9395    2.0843 H   0  0  0  0  0  0  0  0  0  0  0  0
    0.4926    1.7881   -2.2689 H   0  0  0  0  0  0  0  0  0  0  0  0
   -1.2614   -0.7204   -2.6935 H   0  0  0  0  0  0  0  0  0  0  0  0
   -1.9947    0.8057   -3.2724 H   0  0  0  0  0  0  0  0  0  0  0  0
   -3.3983   -1.3238   -2.0268 H   0  0  0  0  0  0  0  0  0  0  0  0
   -5.2835    0.3229   -1.7639 H   0  0  0  0  0  0  0  0  0  0  0  0
   -4.4484    0.5641   -3.3027 H   0  0  0  0  0  0  0  0  0  0  0  0
   -4.1527    1.6625   -1.9421 H   0  0  0  0  0  0  0  0  0  0  0  0
   -5.0015   -1.8514   -0.7898 H   0  0  0  0  0  0  0  0  0  0  0  0
   -5.0085   -2.8100    2.1611 H   0  0  0  0  0  0  0  0  0  0  0  0
   -4.9688   -3.8048    0.6855 H   0  0  0  0  0  0  0  0  0  0  0  0
   -7.4709   -2.7680    1.7497 H   0  0  0  0  0  0  0  0  0  0  0  0
   -7.2376   -3.0264    0.0012 H   0  0  0  0  0  0  0  0  0  0  0  0
   -6.9861   -0.5469   -0.0630 H   0  0  0  0  0  0  0  0  0  0  0  0
   -6.4305   -0.4979    1.6279 H   0  0  0  0  0  0  0  0  0  0  0  0
  1  2  1  0
  2  3  1  0
  3  4  2  0
  4  5  1  0
  5  6  2  0
  6  7  1  0
  7  8  2  0
  8  9  1  0
  9 10  1  0
 10 11  1  0
 11 12  2  0
 11 13  2  0
 11 14  1  0
 14 15  2  0
 15 16  1  0
 16 17  2  0
 17 18  1  0
 18 19  2  0
 18 20  1  0
 20 21  1  0
 21 22  1  0
 21 23  1  0
 23 24  1  0
 24 25  2  0
 24 26  1  0
 26 27  1  0
 27 28  1  0
 28 29  1  0
  8  3  1  0
 19 14  1  0
 29 26  1  0
 23 17  1  0
  1 30  1  0
  1 31  1  0
  1 32  1  0
  4 33  1  0
  5 34  1  0
  6 35  1  0
  7 36  1  0
  9 37  1  0
  9 38  1  0
 10 39  1  0
 15 40  1  0
 16 41  1  0
 19 42  1  0
 20 43  1  0
 20 44  1  0
 21 45  1  0
 22 46  1  0
 22 47  1  0
 22 48  1  0
 26 49  1  0
 27 50  1  0
 27 51  1  0
 28 52  1  0
 28 53  1  0
 29 54  1  0
 29 55  1  0
M  END
$$$$
