
     RDKit          3D

 51 54  0  0  0  0  0  0  0  0999 V2000
    2.6194   -1.7361   -1.5575 C   0  0  0  0  0  0  0  0  0  0  0  0
    2.5643   -0.2061   -1.5028 C   0  0  0  0  0  0  0  0  0  0  0  0
    1.2767    0.3110   -2.1806 C   0  0  0  0  0  0  0  0  0  0  0  0
    0.4503    0.7129   -1.0022 C   0  0  0  0  0  0  0  0  0  0  0  0
   -0.8797    1.1069   -1.0101 C   0  0  0  0  0  0  0  0  0  0  0  0
   -1.4456    1.5178    0.2004 C   0  0  0  0  0  0  0  0  0  0  0  0
   -3.1475    2.0280    0.2162 S   0  0  0  0  0  6  0  0  0  0  0  0
   -3.5087    2.4112    1.5648 O   0  0  0  0  0  0  0  0  0  0  0  0
   -3.3304    2.9341   -0.8979 O   0  0  0  0  0  0  0  0  0  0  0  0
   -3.9701    0.5716   -0.1379 N   0  0  0  0  0  0  0  0  0  0  0  0
   -3.8392   -0.5193    0.8709 C   0  0  0  0  0  0  0  0  0  0  0  0
   -5.1580   -0.7966    1.5795 C   0  0  0  0  0  0  0  0  0  0  0  0
   -6.2519   -1.2077    0.5966 C   0  0  0  0  0  0  0  0  0  0  0  0
   -6.0866   -0.5413   -0.7676 C   0  0  0  0  0  0  0  0  0  0  0  0
   -5.3510    0.7874   -0.6522 C   0  0  0  0  0  0  0  0  0  0  0  0
   -0.6873    1.5555    1.3810 C   0  0  0  0  0  0  0  0  0  0  0  0
    0.6549    1.1581    1.3648 C   0  0  0  0  0  0  0  0  0  0  0  0
    1.2135    0.7307    0.1689 C   0  0  0  0  0  0  0  0  0  0  0  0
    2.5279    0.2826   -0.0990 N   0  0  0  0  0  0  0  0  0  0  0  0
    3.5753    0.2730    0.8230 C   0  0  0  0  0  0  0  0  0  0  0  0
    3.4275    0.6237    2.0023 O   0  0  0  0  0  0  0  0  0  0  0  0
    4.9773   -0.1868    0.3169 C   0  0  0  0  0  0  0  0  0  0  0  0
    5.5998   -1.4324    1.0110 C   0  0  0  0  0  0  0  0  0  0  0  0
    6.9696   -0.7395    0.8903 C   0  0  0  0  0  0  0  0  0  0  0  0
    6.2116    0.6001    0.8495 C   0  0  0  0  0  0  0  0  0  0  0  0
    3.5194   -2.1259   -1.0755 H   0  0  0  0  0  0  0  0  0  0  0  0
    2.6209   -2.0842   -2.5958 H   0  0  0  0  0  0  0  0  0  0  0  0
    1.7587   -2.1846   -1.0489 H   0  0  0  0  0  0  0  0  0  0  0  0
    3.4384    0.2088   -2.0154 H   0  0  0  0  0  0  0  0  0  0  0  0
    1.4938    1.1961   -2.7890 H   0  0  0  0  0  0  0  0  0  0  0  0
    0.7824   -0.4436   -2.7996 H   0  0  0  0  0  0  0  0  0  0  0  0
   -1.4618    1.1091   -1.9273 H   0  0  0  0  0  0  0  0  0  0  0  0
   -3.0756   -0.2841    1.6185 H   0  0  0  0  0  0  0  0  0  0  0  0
   -3.4913   -1.4179    0.3472 H   0  0  0  0  0  0  0  0  0  0  0  0
   -5.0272   -1.5815    2.3330 H   0  0  0  0  0  0  0  0  0  0  0  0
   -5.4767    0.1047    2.1186 H   0  0  0  0  0  0  0  0  0  0  0  0
   -7.2283   -0.9514    1.0247 H   0  0  0  0  0  0  0  0  0  0  0  0
   -6.2496   -2.2962    0.4638 H   0  0  0  0  0  0  0  0  0  0  0  0
   -5.5238   -1.2116   -1.4300 H   0  0  0  0  0  0  0  0  0  0  0  0
   -7.0697   -0.3956   -1.2290 H   0  0  0  0  0  0  0  0  0  0  0  0
   -5.2886    1.2419   -1.6471 H   0  0  0  0  0  0  0  0  0  0  0  0
   -5.9029    1.4691    0.0055 H   0  0  0  0  0  0  0  0  0  0  0  0
   -1.1305    1.8946    2.3152 H   0  0  0  0  0  0  0  0  0  0  0  0
    1.2252    1.1912    2.2871 H   0  0  0  0  0  0  0  0  0  0  0  0
    5.0499   -0.2723   -0.7730 H   0  0  0  0  0  0  0  0  0  0  0  0
    5.2720   -1.5857    2.0458 H   0  0  0  0  0  0  0  0  0  0  0  0
    5.5053   -2.3763    0.4677 H   0  0  0  0  0  0  0  0  0  0  0  0
    7.6490   -0.8771    1.7349 H   0  0  0  0  0  0  0  0  0  0  0  0
    7.5012   -0.9734   -0.0392 H   0  0  0  0  0  0  0  0  0  0  0  0
    6.0749    1.0568    1.8365 H   0  0  0  0  0  0  0  0  0  0  0  0
    6.6228    1.3502    0.1686 H   0  0  0  0  0  0  0  0  0  0  0  0
  1  2  1  0
  2  3  1  0
  3  4  1  0
  4  5  2  0
  5  6  1  0
  6  7  1  0
  7  8  2  0
  7  9  2  0
  7 10  1  0
 10 11  1  0
 11 12  1  0
 12 13  1  0
 13 14  1  0
 14 15  1  0
  6 16  2  0
 16 17  1  0
 17 18  2  0
 18 19  1  0
 19 20  1  0
 20 21  2  0
 20 22  1  0
 22 23  1  0
 23 24  1  0
 24 25  1  0
 19  2  1  0
 25 22  1  0
 18  4  1  0
 15 10  1  0
  1 26  1  0
  1 27  1  0
  1 28  1  0
  2 29  1  0
  3 30  1  0
  3 31  1  0
  5 32  1  0
 11 33  1  0
 11 34  1  0
 12 35  1  0
 12 36  1  0
 13 37  1  0
 13 38  1  0
 14 39  1  0
 14 40  1  0
 15 41  1  0
 15 42  1  0
 16 43  1  0
 17 44  1  0
 22 45  1  0
 23 46  1  0
 23 47  1  0
 24 48  1  0
 24 49  1  0
 25 50  1  0
 25 51  1  0
M  END
$$$$
