
     RDKit          3D

 58 62  0  0  0  0  0  0  0  0999 V2000
    2.7410   -3.1365    4.0090 C   0  0  0  0  0  0  0  0  0  0  0  0
    2.9066   -2.4301    2.7750 O   0  0  0  0  0  0  0  0  0  0  0  0
    3.7443   -1.3639    2.8398 C   0  0  0  0  0  0  0  0  0  0  0  0
    4.3369   -0.9873    3.8442 O   0  0  0  0  0  0  0  0  0  0  0  0
    3.8612   -0.7228    1.4986 C   0  0  0  0  0  0  0  0  0  0  0  0
    4.7781    0.2492    1.3907 C   0  0  0  0  0  0  0  0  0  0  0  0
    5.1180    0.9142    0.2463 O   0  0  0  0  0  0  0  0  0  0  0  0
    4.1970    0.7870   -0.8481 C   0  0  0  0  0  0  0  0  0  0  0  0
    4.9437    1.2846   -2.0869 C   0  0  0  0  0  0  0  0  0  0  0  0
    3.6778   -0.6597   -1.0142 C   0  0  0  0  0  0  0  0  0  0  0  0
    2.6283   -0.8250   -2.1212 C   0  0  0  0  0  0  0  0  0  0  0  0
    1.3692   -0.1006   -1.8809 N   0  0  0  0  0  0  0  0  0  0  0  0
    0.2944   -0.6978   -2.7163 C   0  0  0  0  0  0  0  0  0  0  0  0
   -1.0577    0.0449   -2.6383 C   0  0  0  0  0  0  0  0  0  0  0  0
   -1.4250    0.2463   -1.2166 C   0  0  0  0  0  0  0  0  0  0  0  0
   -0.4531    0.2371   -0.2423 C   0  0  0  0  0  0  0  0  0  0  0  0
   -1.0622    0.4940    0.9566 N   0  0  0  0  0  0  0  0  0  0  0  0
   -2.4181    0.6526    0.7710 C   0  0  0  0  0  0  0  0  0  0  0  0
   -3.4243    0.9333    1.7004 C   0  0  0  0  0  0  0  0  0  0  0  0
   -4.7280    1.0582    1.2107 C   0  0  0  0  0  0  0  0  0  0  0  0
   -5.7234    1.3124    2.1278 O   0  0  0  0  0  0  0  0  0  0  0  0
   -5.9423    2.7248    2.2113 C   0  0  0  0  0  0  0  0  0  0  0  0
   -5.0384    0.8647   -0.1417 C   0  0  0  0  0  0  0  0  0  0  0  0
   -6.3610    0.9909   -0.4800 O   0  0  0  0  0  0  0  0  0  0  0  0
   -6.7453    0.5018   -1.7582 C   0  0  0  0  0  0  0  0  0  0  0  0
   -4.0065    0.5967   -1.0523 C   0  0  0  0  0  0  0  0  0  0  0  0
   -2.6764    0.4891   -0.5918 C   0  0  0  0  0  0  0  0  0  0  0  0
    1.0198    0.0384   -0.4421 C   0  0  0  0  0  0  0  0  0  0  0  0
    1.5757   -1.1050    0.4104 C   0  0  0  0  0  0  0  0  0  0  0  0
    3.1119   -1.2472    0.3038 C   0  0  0  0  0  0  0  0  0  0  0  0
    2.6308   -2.4528    4.8549 H   0  0  0  0  0  0  0  0  0  0  0  0
    3.5917   -3.8047    4.1622 H   0  0  0  0  0  0  0  0  0  0  0  0
    1.8319   -3.7406    3.9292 H   0  0  0  0  0  0  0  0  0  0  0  0
    5.4039    0.5891    2.2118 H   0  0  0  0  0  0  0  0  0  0  0  0
    3.3854    1.4932   -0.6565 H   0  0  0  0  0  0  0  0  0  0  0  0
    5.7933    0.6320   -2.3170 H   0  0  0  0  0  0  0  0  0  0  0  0
    4.2963    1.3425   -2.9638 H   0  0  0  0  0  0  0  0  0  0  0  0
    5.3566    2.2816   -1.9065 H   0  0  0  0  0  0  0  0  0  0  0  0
    4.5482   -1.2783   -1.2826 H   0  0  0  0  0  0  0  0  0  0  0  0
    2.4311   -1.9044   -2.2221 H   0  0  0  0  0  0  0  0  0  0  0  0
    3.0392   -0.5073   -3.0867 H   0  0  0  0  0  0  0  0  0  0  0  0
    0.1411   -1.7464   -2.4261 H   0  0  0  0  0  0  0  0  0  0  0  0
    0.6143   -0.6990   -3.7647 H   0  0  0  0  0  0  0  0  0  0  0  0
   -0.9667    1.0241   -3.1260 H   0  0  0  0  0  0  0  0  0  0  0  0
   -1.8300   -0.5198   -3.1721 H   0  0  0  0  0  0  0  0  0  0  0  0
   -0.5943    0.5916    1.8480 H   0  0  0  0  0  0  0  0  0  0  0  0
   -3.2142    1.0503    2.7563 H   0  0  0  0  0  0  0  0  0  0  0  0
   -6.0536    3.1958    1.2250 H   0  0  0  0  0  0  0  0  0  0  0  0
   -5.1221    3.2035    2.7649 H   0  0  0  0  0  0  0  0  0  0  0  0
   -6.8707    2.8862    2.7669 H   0  0  0  0  0  0  0  0  0  0  0  0
   -6.3503    1.1396   -2.5560 H   0  0  0  0  0  0  0  0  0  0  0  0
   -7.8388    0.5368   -1.8169 H   0  0  0  0  0  0  0  0  0  0  0  0
   -6.4408   -0.5400   -1.8977 H   0  0  0  0  0  0  0  0  0  0  0  0
   -4.1939    0.4678   -2.1085 H   0  0  0  0  0  0  0  0  0  0  0  0
    1.4752    0.9699   -0.0884 H   0  0  0  0  0  0  0  0  0  0  0  0
    1.2659   -0.9787    1.4550 H   0  0  0  0  0  0  0  0  0  0  0  0
    1.1134   -2.0485    0.0877 H   0  0  0  0  0  0  0  0  0  0  0  0
    3.3148   -2.3275    0.2657 H   0  0  0  0  0  0  0  0  0  0  0  0
  1  2  1  0
  2  3  1  0
  3  4  2  0
  3  5  1  0
  5  6  2  0
  6  7  1  0
  7  8  1  0
  8  9  1  0
  8 10  1  0
 10 11  1  0
 11 12  1  0
 12 13  1  0
 13 14  1  0
 14 15  1  0
 15 16  2  0
 16 17  1  0
 17 18  1  0
 18 19  2  0
 19 20  1  0
 20 21  1  0
 21 22  1  0
 20 23  2  0
 23 24  1  0
 24 25  1  0
 23 26  1  0
 26 27  2  0
 16 28  1  0
 28 29  1  0
 29 30  1  0
 30  5  1  0
 30 10  1  0
 28 12  1  0
 27 15  1  0
 27 18  1  0
  1 31  1  0
  1 32  1  0
  1 33  1  0
  6 34  1  0
  8 35  1  0
  9 36  1  0
  9 37  1  0
  9 38  1  0
 10 39  1  0
 11 40  1  0
 11 41  1  0
 13 42  1  0
 13 43  1  0
 14 44  1  0
 14 45  1  0
 17 46  1  0
 19 47  1  0
 22 48  1  0
 22 49  1  0
 22 50  1  0
 25 51  1  0
 25 52  1  0
 25 53  1  0
 26 54  1  0
 28 55  1  0
 29 56  1  0
 29 57  1  0
 30 58  1  0
M  END
$$$$
