
     RDKit          3D

 54 56  0  0  0  0  0  0  0  0999 V2000
   -3.4345   -2.5097    2.6775 C   0  0  0  0  0  0  0  0  0  0  0  0
   -3.6394   -1.1210    2.1057 C   0  0  0  0  0  0  0  0  0  0  0  0
   -2.5511   -0.8422    1.2180 O   0  0  0  0  0  0  0  0  0  0  0  0
   -2.6036    0.3807    0.6175 C   0  0  0  0  0  0  0  0  0  0  0  0
   -3.5362    1.1588    0.7803 O   0  0  0  0  0  0  0  0  0  0  0  0
   -1.4482    0.6328   -0.2549 C   0  0  0  0  0  0  0  0  0  0  0  0
   -1.4737    1.5996   -1.2545 C   0  0  0  0  0  0  0  0  0  0  0  0
   -2.4413    2.4759   -1.6381 N   0  0  0  0  0  0  0  0  0  0  0  0
   -3.4284    1.9605   -2.2921 C   0  0  0  0  0  0  0  0  0  0  0  0
   -4.5149    2.6443   -2.7946 N   0  0  0  0  0  0  0  0  0  0  0  0
   -4.7415    4.0170   -2.3688 C   0  0  0  0  0  0  0  0  0  0  0  0
   -5.6941    1.9129   -3.2314 C   0  0  0  0  0  0  0  0  0  0  0  0
    0.0254    1.6941   -2.0857 S   0  0  0  0  0  0  0  0  0  0  0  0
    0.7300    0.4463   -1.1592 C   0  0  0  0  0  0  0  0  0  0  0  0
    2.1027    0.1091   -1.4723 C   0  0  0  0  0  0  0  0  0  0  0  0
    2.7765   -0.7742   -0.8001 N   0  0  0  0  0  0  0  0  0  0  0  0
    4.0575   -0.9318   -1.2531 N   0  0  0  0  0  0  0  0  0  0  0  0
    5.0995   -0.3431   -0.4813 C   0  0  0  0  0  0  0  0  0  0  0  0
    4.8665    0.6409    0.4860 C   0  0  0  0  0  0  0  0  0  0  0  0
    5.9298    1.2446    1.1658 C   0  0  0  0  0  0  0  0  0  0  0  0
    7.2424    0.8909    0.8668 C   0  0  0  0  0  0  0  0  0  0  0  0
    7.4952   -0.0646   -0.1116 C   0  0  0  0  0  0  0  0  0  0  0  0
    6.4301   -0.6703   -0.7877 C   0  0  0  0  0  0  0  0  0  0  0  0
   -0.1536   -0.0384   -0.2090 C   0  0  0  0  0  0  0  0  0  0  0  0
    0.2452   -1.0733    0.7389 C   0  0  0  0  0  0  0  0  0  0  0  0
    0.6609   -0.7173    2.0299 C   0  0  0  0  0  0  0  0  0  0  0  0
    1.0197   -1.7096    2.9448 C   0  0  0  0  0  0  0  0  0  0  0  0
    0.9652   -3.0514    2.5696 C   0  0  0  0  0  0  0  0  0  0  0  0
    1.4002   -4.2727    3.6989 Cl  0  0  0  0  0  0  0  0  0  0  0  0
    0.5535   -3.4135    1.2882 C   0  0  0  0  0  0  0  0  0  0  0  0
    0.1894   -2.4242    0.3713 C   0  0  0  0  0  0  0  0  0  0  0  0
   -2.4731   -2.5729    3.1996 H   0  0  0  0  0  0  0  0  0  0  0  0
   -4.2332   -2.7622    3.3811 H   0  0  0  0  0  0  0  0  0  0  0  0
   -3.4152   -3.2569    1.8787 H   0  0  0  0  0  0  0  0  0  0  0  0
   -4.5859   -1.0816    1.5564 H   0  0  0  0  0  0  0  0  0  0  0  0
   -3.6512   -0.3854    2.9162 H   0  0  0  0  0  0  0  0  0  0  0  0
   -3.4747    0.8784   -2.5170 H   0  0  0  0  0  0  0  0  0  0  0  0
   -3.8212    4.6037   -2.4316 H   0  0  0  0  0  0  0  0  0  0  0  0
   -5.4800    4.5109   -3.0109 H   0  0  0  0  0  0  0  0  0  0  0  0
   -5.1040    4.0428   -1.3371 H   0  0  0  0  0  0  0  0  0  0  0  0
   -5.4106    1.0304   -3.8126 H   0  0  0  0  0  0  0  0  0  0  0  0
   -6.2856    1.5852   -2.3742 H   0  0  0  0  0  0  0  0  0  0  0  0
   -6.3240    2.5370   -3.8752 H   0  0  0  0  0  0  0  0  0  0  0  0
    2.5832    0.6455   -2.3155 H   0  0  0  0  0  0  0  0  0  0  0  0
    4.3067   -1.9148   -1.3989 H   0  0  0  0  0  0  0  0  0  0  0  0
    3.8510    0.9370    0.7364 H   0  0  0  0  0  0  0  0  0  0  0  0
    5.7284    1.9956    1.9277 H   0  0  0  0  0  0  0  0  0  0  0  0
    8.0678    1.3647    1.3905 H   0  0  0  0  0  0  0  0  0  0  0  0
    8.5188   -0.3329   -0.3578 H   0  0  0  0  0  0  0  0  0  0  0  0
    6.6467   -1.3968   -1.5690 H   0  0  0  0  0  0  0  0  0  0  0  0
    0.7073    0.3263    2.3288 H   0  0  0  0  0  0  0  0  0  0  0  0
    1.3422   -1.4303    3.9455 H   0  0  0  0  0  0  0  0  0  0  0  0
    0.5110   -4.4617    0.9992 H   0  0  0  0  0  0  0  0  0  0  0  0
   -0.1337   -2.7128   -0.6250 H   0  0  0  0  0  0  0  0  0  0  0  0
  1  2  1  0
  2  3  1  0
  3  4  1  0
  4  5  2  0
  4  6  1  0
  6  7  2  0
  7  8  1  0
  8  9  2  3
  9 10  1  0
 10 11  1  0
 10 12  1  0
  7 13  1  0
 13 14  1  0
 14 15  1  0
 15 16  2  3
 16 17  1  0
 17 18  1  0
 18 19  2  0
 19 20  1  0
 20 21  2  0
 21 22  1  0
 22 23  2  0
 14 24  2  0
 24 25  1  0
 25 26  2  0
 26 27  1  0
 27 28  2  0
 28 29  1  0
 28 30  1  0
 30 31  2  0
 24  6  1  0
 31 25  1  0
 23 18  1  0
  1 32  1  0
  1 33  1  0
  1 34  1  0
  2 35  1  0
  2 36  1  0
  9 37  1  0
 11 38  1  0
 11 39  1  0
 11 40  1  0
 12 41  1  0
 12 42  1  0
 12 43  1  0
 15 44  1  0
 17 45  1  0
 19 46  1  0
 20 47  1  0
 21 48  1  0
 22 49  1  0
 23 50  1  0
 26 51  1  0
 27 52  1  0
 30 53  1  0
 31 54  1  0
M  END
$$$$
