
     RDKit          3D

 34 36  0  0  0  0  0  0  0  0999 V2000
   -2.6670   -2.9847   -2.3450 O   0  0  0  0  0  0  0  0  0  0  0  0
   -2.3460   -2.0096   -1.6762 C   0  0  0  0  0  0  0  0  0  0  0  0
   -3.3096   -1.1302   -1.1969 O   0  0  0  0  0  0  0  0  0  0  0  0
   -2.9584   -0.0221   -0.4038 C   0  0  0  0  0  0  0  0  0  0  0  0
   -4.0159    0.7671    0.0519 C   0  0  0  0  0  0  0  0  0  0  0  0
   -3.7461    1.8683    0.8583 C   0  0  0  0  0  0  0  0  0  0  0  0
   -2.4292    2.1659    1.2034 C   0  0  0  0  0  0  0  0  0  0  0  0
   -1.3800    1.3651    0.7374 C   0  0  0  0  0  0  0  0  0  0  0  0
   -1.6271    0.2561   -0.0861 C   0  0  0  0  0  0  0  0  0  0  0  0
   -0.5499   -0.6210   -0.6052 C   0  0  0  0  0  0  0  0  0  0  0  0
    0.7639   -0.2503   -0.2733 N   0  0  0  0  0  0  0  0  0  0  0  0
    1.5103    0.6521   -1.1802 C   0  0  0  0  0  0  0  0  0  0  0  0
    2.9910    0.7531   -0.8158 C   0  0  0  0  0  0  0  0  0  0  0  0
    3.1866    0.8846    0.6893 C   0  0  0  0  0  0  0  0  0  0  0  0
    2.4882   -0.2356    1.4644 C   0  0  0  0  0  0  0  0  0  0  0  0
    1.5978   -1.1095    0.5832 C   0  0  0  0  0  0  0  0  0  0  0  0
   -0.9691   -1.6728   -1.3321 C   0  0  0  0  0  0  0  0  0  0  0  0
    0.0189   -2.5489   -1.8725 N   0  0  0  0  0  4  0  0  0  0  0  0
    0.3318   -3.5355   -1.1903 O   0  0  0  0  0  0  0  0  0  0  0  0
    0.5017   -2.2491   -2.9739 O   0  0  0  0  0  1  0  0  0  0  0  0
   -5.0402    0.5224   -0.2158 H   0  0  0  0  0  0  0  0  0  0  0  0
   -4.5596    2.4911    1.2222 H   0  0  0  0  0  0  0  0  0  0  0  0
   -2.2144    3.0216    1.8395 H   0  0  0  0  0  0  0  0  0  0  0  0
   -0.3643    1.6190    1.0327 H   0  0  0  0  0  0  0  0  0  0  0  0
    1.4199    0.3112   -2.2180 H   0  0  0  0  0  0  0  0  0  0  0  0
    1.0598    1.6504   -1.1274 H   0  0  0  0  0  0  0  0  0  0  0  0
    3.4414    1.6085   -1.3318 H   0  0  0  0  0  0  0  0  0  0  0  0
    3.5205   -0.1391   -1.1735 H   0  0  0  0  0  0  0  0  0  0  0  0
    4.2560    0.8932    0.9291 H   0  0  0  0  0  0  0  0  0  0  0  0
    2.7883    1.8518    1.0209 H   0  0  0  0  0  0  0  0  0  0  0  0
    1.8864    0.2139    2.2643 H   0  0  0  0  0  0  0  0  0  0  0  0
    3.2342   -0.8675    1.9604 H   0  0  0  0  0  0  0  0  0  0  0  0
    2.2082   -1.7805   -0.0327 H   0  0  0  0  0  0  0  0  0  0  0  0
    0.9719   -1.7393    1.2272 H   0  0  0  0  0  0  0  0  0  0  0  0
  1  2  2  0
  2  3  1  0
  3  4  1  0
  4  5  2  0
  5  6  1  0
  6  7  2  0
  7  8  1  0
  8  9  2  0
  9 10  1  0
 10 11  1  0
 11 12  1  0
 12 13  1  0
 13 14  1  0
 14 15  1  0
 15 16  1  0
 10 17  2  0
 17 18  1  0
 18 19  2  0
 18 20  1  0
 17  2  1  0
  9  4  1  0
 16 11  1  0
  5 21  1  0
  6 22  1  0
  7 23  1  0
  8 24  1  0
 12 25  1  0
 12 26  1  0
 13 27  1  0
 13 28  1  0
 14 29  1  0
 14 30  1  0
 15 31  1  0
 15 32  1  0
 16 33  1  0
 16 34  1  0
M  CHG  2  18   1  20  -1
M  END
$$$$
