
     RDKit          3D

 50 53  0  0  0  0  0  0  0  0999 V2000
   -3.9443   -2.9788   -0.0119 C   0  0  0  0  0  0  0  0  0  0  0  0
   -2.8164   -2.2574   -0.5059 O   0  0  0  0  0  0  0  0  0  0  0  0
   -1.8914   -1.9625    0.4429 C   0  0  0  0  0  0  0  0  0  0  0  0
   -1.9297   -2.3241    1.6080 O   0  0  0  0  0  0  0  0  0  0  0  0
   -0.7487   -1.2331   -0.1612 C   0  0  0  0  0  0  0  0  0  0  0  0
   -0.8528   -0.2279   -1.0687 C   0  0  0  0  0  0  0  0  0  0  0  0
   -2.1257    0.3720   -1.4984 C   0  0  0  0  0  0  0  0  0  0  0  0
   -2.9030    1.0957   -0.5841 C   0  0  0  0  0  0  0  0  0  0  0  0
   -4.1132    1.6671   -0.9803 C   0  0  0  0  0  0  0  0  0  0  0  0
   -4.5558    1.5202   -2.2949 C   0  0  0  0  0  0  0  0  0  0  0  0
   -3.7871    0.8010   -3.2158 C   0  0  0  0  0  0  0  0  0  0  0  0
   -4.2418    0.6456   -4.5661 C   0  0  0  0  0  0  0  0  0  0  0  0
   -4.6046    0.5197   -5.6613 N   0  0  0  0  0  0  0  0  0  0  0  0
   -2.5722    0.2303   -2.8176 C   0  0  0  0  0  0  0  0  0  0  0  0
    0.4067    0.3846   -1.6808 C   0  0  0  0  0  0  0  0  0  0  0  0
    1.6927   -0.3474   -1.2188 C   0  0  0  0  0  0  0  0  0  0  0  0
    1.7824   -1.7694   -1.8079 C   0  0  0  0  0  0  0  0  0  0  0  0
    1.1827   -2.6900   -0.7250 C   0  0  0  0  0  0  0  0  0  0  0  0
    0.6131   -1.7220    0.3162 C   0  0  0  0  0  0  0  0  0  0  0  0
    1.5520   -0.6106    0.2067 N   0  0  0  0  0  0  0  0  0  0  0  0
    1.6927    0.2945    1.2340 C   0  0  0  0  0  0  0  0  0  0  0  0
    1.1369    0.1573    2.3181 O   0  0  0  0  0  0  0  0  0  0  0  0
    2.4941    1.3643    0.9310 N   0  0  0  0  0  0  0  0  0  0  0  0
    2.7883    2.3803    1.9166 C   0  0  0  0  0  0  0  0  0  0  0  0
    4.0888    2.0716    2.5917 C   0  0  0  0  0  0  0  0  0  0  0  0
    4.1539    1.0801    3.7257 C   0  0  0  0  0  0  0  0  0  0  0  0
    4.3437    2.5463    3.9999 C   0  0  0  0  0  0  0  0  0  0  0  0
   -4.6415   -3.1261   -0.8414 H   0  0  0  0  0  0  0  0  0  0  0  0
   -3.6365   -3.9607    0.3610 H   0  0  0  0  0  0  0  0  0  0  0  0
   -4.4542   -2.4080    0.7706 H   0  0  0  0  0  0  0  0  0  0  0  0
   -2.5682    1.2205    0.4451 H   0  0  0  0  0  0  0  0  0  0  0  0
   -4.7091    2.2255   -0.2620 H   0  0  0  0  0  0  0  0  0  0  0  0
   -5.5019    1.9680   -2.5936 H   0  0  0  0  0  0  0  0  0  0  0  0
   -1.9828   -0.3402   -3.5329 H   0  0  0  0  0  0  0  0  0  0  0  0
    0.3562    0.3747   -2.7757 H   0  0  0  0  0  0  0  0  0  0  0  0
    0.4632    1.4345   -1.3646 H   0  0  0  0  0  0  0  0  0  0  0  0
    2.5789    0.2456   -1.4598 H   0  0  0  0  0  0  0  0  0  0  0  0
    1.2612   -1.8638   -2.7661 H   0  0  0  0  0  0  0  0  0  0  0  0
    2.8298   -2.0471   -1.9747 H   0  0  0  0  0  0  0  0  0  0  0  0
    1.9883   -3.2863   -0.2788 H   0  0  0  0  0  0  0  0  0  0  0  0
    0.4431   -3.3862   -1.1341 H   0  0  0  0  0  0  0  0  0  0  0  0
    0.5992   -2.1310    1.3306 H   0  0  0  0  0  0  0  0  0  0  0  0
    3.2251    1.1718    0.2672 H   0  0  0  0  0  0  0  0  0  0  0  0
    1.9630    2.4670    2.6316 H   0  0  0  0  0  0  0  0  0  0  0  0
    2.8757    3.3304    1.3800 H   0  0  0  0  0  0  0  0  0  0  0  0
    4.9246    2.1046    1.9018 H   0  0  0  0  0  0  0  0  0  0  0  0
    5.0201    0.4316    3.7847 H   0  0  0  0  0  0  0  0  0  0  0  0
    3.2320    0.6153    4.0606 H   0  0  0  0  0  0  0  0  0  0  0  0
    5.3413    2.8893    4.2495 H   0  0  0  0  0  0  0  0  0  0  0  0
    3.5518    3.0632    4.5306 H   0  0  0  0  0  0  0  0  0  0  0  0
  1  2  1  0
  2  3  1  0
  3  4  2  0
  3  5  1  0
  5  6  2  0
  6  7  1  0
  7  8  2  0
  8  9  1  0
  9 10  2  0
 10 11  1  0
 11 12  1  0
 12 13  3  0
 11 14  2  0
  6 15  1  0
 15 16  1  0
 16 17  1  0
 17 18  1  0
 18 19  1  0
 19 20  1  0
 20 21  1  0
 21 22  2  0
 21 23  1  0
 23 24  1  0
 24 25  1  0
 25 26  1  0
 26 27  1  0
 19  5  1  0
 27 25  1  0
 14  7  1  0
 20 16  1  0
  1 28  1  0
  1 29  1  0
  1 30  1  0
  8 31  1  0
  9 32  1  0
 10 33  1  0
 14 34  1  0
 15 35  1  0
 15 36  1  0
 16 37  1  0
 17 38  1  0
 17 39  1  0
 18 40  1  0
 18 41  1  0
 19 42  1  0
 23 43  1  0
 24 44  1  0
 24 45  1  0
 25 46  1  0
 26 47  1  0
 26 48  1  0
 27 49  1  0
 27 50  1  0
M  END
$$$$
