
     RDKit          3D

 43 46  0  0  0  0  0  0  0  0999 V2000
   -1.0539    0.3291    2.6437 O   0  0  0  0  0  0  0  0  0  0  0  0
   -0.9329    0.5262    1.1511 P   0  0  0  0  0  5  0  0  0  0  0  0
   -1.5087   -0.6408    0.1243 N   0  0  0  0  0  0  0  0  0  0  0  0
   -2.7464   -1.3324    0.2145 C   0  0  0  0  0  0  0  0  0  0  0  0
   -2.8313   -2.6283   -0.3566 C   0  0  0  0  0  0  0  0  0  0  0  0
   -1.4440   -3.3574   -1.1031 Cl  0  0  0  0  0  0  0  0  0  0  0  0
   -4.0140   -3.3770   -0.3399 C   0  0  0  0  0  0  0  0  0  0  0  0
   -5.1584   -2.8471    0.2403 C   0  0  0  0  0  0  0  0  0  0  0  0
   -5.1173   -1.5662    0.7845 C   0  0  0  0  0  0  0  0  0  0  0  0
   -3.9331   -0.8073    0.7626 C   0  0  0  0  0  0  0  0  0  0  0  0
   -4.0749    0.7978    1.3872 Cl  0  0  0  0  0  0  0  0  0  0  0  0
   -1.1019    2.1921    0.5340 C   0  0  0  0  0  0  0  0  0  0  0  0
   -1.2393    2.4339   -0.8428 C   0  0  0  0  0  0  0  0  0  0  0  0
   -1.3725    3.7364   -1.3257 C   0  0  0  0  0  0  0  0  0  0  0  0
   -1.3741    4.8114   -0.4385 C   0  0  0  0  0  0  0  0  0  0  0  0
   -1.2460    4.5854    0.9316 C   0  0  0  0  0  0  0  0  0  0  0  0
   -1.1121    3.2827    1.4165 C   0  0  0  0  0  0  0  0  0  0  0  0
    0.7551    0.1295    0.6472 C   0  0  0  0  0  0  0  0  0  0  0  0
    1.0646   -0.9668   -0.0356 N   0  0  0  0  0  0  0  0  0  0  0  0
    2.4283   -1.0057   -0.2323 C   0  0  0  0  0  0  0  0  0  0  0  0
    3.1332    0.0641    0.2836 C   0  0  0  0  0  0  0  0  0  0  0  0
    2.0834    1.1564    1.0539 S   0  0  0  0  0  0  0  0  0  0  0  0
    4.6081    0.2519    0.1841 C   0  0  0  0  0  0  0  0  0  0  0  0
    5.2853   -1.0789   -0.2014 C   0  0  0  0  0  0  0  0  0  0  0  0
    4.5282   -1.8102   -1.3269 C   0  0  0  0  0  0  0  0  0  0  0  0
    3.0873   -2.1620   -0.9124 C   0  0  0  0  0  0  0  0  0  0  0  0
   -0.7740   -1.2843   -0.1938 H   0  0  0  0  0  0  0  0  0  0  0  0
   -4.0428   -4.3709   -0.7817 H   0  0  0  0  0  0  0  0  0  0  0  0
   -6.0824   -3.4223    0.2584 H   0  0  0  0  0  0  0  0  0  0  0  0
   -6.0235   -1.1484    1.2186 H   0  0  0  0  0  0  0  0  0  0  0  0
   -1.2447    1.6000   -1.5455 H   0  0  0  0  0  0  0  0  0  0  0  0
   -1.4778    3.9120   -2.3932 H   0  0  0  0  0  0  0  0  0  0  0  0
   -1.4809    5.8265   -0.8153 H   0  0  0  0  0  0  0  0  0  0  0  0
   -1.2554    5.4263    1.6219 H   0  0  0  0  0  0  0  0  0  0  0  0
   -1.0213    3.1132    2.4876 H   0  0  0  0  0  0  0  0  0  0  0  0
    4.8226    1.0076   -0.5846 H   0  0  0  0  0  0  0  0  0  0  0  0
    5.0255    0.6124    1.1328 H   0  0  0  0  0  0  0  0  0  0  0  0
    6.3189   -0.8823   -0.5073 H   0  0  0  0  0  0  0  0  0  0  0  0
    5.3318   -1.7337    0.6807 H   0  0  0  0  0  0  0  0  0  0  0  0
    5.0624   -2.7273   -1.6041 H   0  0  0  0  0  0  0  0  0  0  0  0
    4.5076   -1.1676   -2.2173 H   0  0  0  0  0  0  0  0  0  0  0  0
    2.5121   -2.4716   -1.7912 H   0  0  0  0  0  0  0  0  0  0  0  0
    3.1096   -3.0064   -0.2101 H   0  0  0  0  0  0  0  0  0  0  0  0
  1  2  2  0
  2  3  1  0
  3  4  1  0
  4  5  2  0
  5  6  1  0
  5  7  1  0
  7  8  2  0
  8  9  1  0
  9 10  2  0
 10 11  1  0
  2 12  1  0
 12 13  2  0
 13 14  1  0
 14 15  2  0
 15 16  1  0
 16 17  2  0
  2 18  1  0
 18 19  2  0
 19 20  1  0
 20 21  2  0
 21 22  1  0
 21 23  1  0
 23 24  1  0
 24 25  1  0
 25 26  1  0
 10  4  1  0
 17 12  1  0
 22 18  1  0
 26 20  1  0
  3 27  1  0
  7 28  1  0
  8 29  1  0
  9 30  1  0
 13 31  1  0
 14 32  1  0
 15 33  1  0
 16 34  1  0
 17 35  1  0
 23 36  1  0
 23 37  1  0
 24 38  1  0
 24 39  1  0
 25 40  1  0
 25 41  1  0
 26 42  1  0
 26 43  1  0
M  END
$$$$
