
     RDKit          3D

 40 41  0  0  0  0  0  0  0  0999 V2000
    4.6660    2.7902   -0.6157 C   0  0  0  0  0  0  0  0  0  0  0  0
    4.4760    1.2871   -0.5527 C   0  0  0  0  0  0  0  0  0  0  0  0
    3.0990    1.0296   -0.2580 O   0  0  0  0  0  0  0  0  0  0  0  0
    2.7632   -0.2935   -0.2167 C   0  0  0  0  0  0  0  0  0  0  0  0
    3.5689   -1.1972   -0.4110 O   0  0  0  0  0  0  0  0  0  0  0  0
    1.3495   -0.5268    0.0983 C   0  0  0  0  0  0  0  0  0  0  0  0
    0.3647    0.4270    0.3635 C   0  0  0  0  0  0  0  0  0  0  0  0
    0.4593    1.9187    0.3584 C   0  0  0  0  0  0  0  0  0  0  0  0
   -0.8076   -0.2485    0.6562 N   0  0  0  0  0  0  0  0  0  0  0  0
   -2.0516    0.3691    1.1057 C   0  0  0  0  0  0  0  0  0  0  0  0
   -2.7124    0.9212   -0.0287 O   0  0  0  0  0  0  0  0  0  0  0  0
   -3.9519    1.5330    0.3414 C   0  0  0  0  0  0  0  0  0  0  0  0
   -4.6017    2.0863   -0.9216 C   0  0  0  0  0  0  0  0  0  0  0  0
   -4.8715    1.0192   -1.8284 O   0  0  0  0  0  0  0  0  0  0  0  0
   -0.6283   -1.6116    0.5089 C   0  0  0  0  0  0  0  0  0  0  0  0
   -1.5306   -2.6845    0.6420 C   0  0  0  0  0  0  0  0  0  0  0  0
   -1.0530   -3.9832    0.4516 C   0  0  0  0  0  0  0  0  0  0  0  0
    0.2773   -4.2014    0.1374 C   0  0  0  0  0  0  0  0  0  0  0  0
    0.6843   -5.4931   -0.0354 O   0  0  0  0  0  0  0  0  0  0  0  0
    1.1721   -3.1403   -0.0028 C   0  0  0  0  0  0  0  0  0  0  0  0
    0.7144   -1.8138    0.1814 C   0  0  0  0  0  0  0  0  0  0  0  0
    4.0209    3.2260   -1.3876 H   0  0  0  0  0  0  0  0  0  0  0  0
    4.3833    3.2554    0.3348 H   0  0  0  0  0  0  0  0  0  0  0  0
    5.7064    3.0434   -0.8386 H   0  0  0  0  0  0  0  0  0  0  0  0
    4.7436    0.8396   -1.5175 H   0  0  0  0  0  0  0  0  0  0  0  0
    5.1066    0.8683    0.2397 H   0  0  0  0  0  0  0  0  0  0  0  0
    1.1270    2.2593    1.1563 H   0  0  0  0  0  0  0  0  0  0  0  0
    0.8488    2.2705   -0.6016 H   0  0  0  0  0  0  0  0  0  0  0  0
   -0.5029    2.4136    0.5032 H   0  0  0  0  0  0  0  0  0  0  0  0
   -2.6765   -0.3854    1.5920 H   0  0  0  0  0  0  0  0  0  0  0  0
   -1.8016    1.1456    1.8371 H   0  0  0  0  0  0  0  0  0  0  0  0
   -4.6007    0.7747    0.7943 H   0  0  0  0  0  0  0  0  0  0  0  0
   -3.7671    2.3403    1.0575 H   0  0  0  0  0  0  0  0  0  0  0  0
   -3.9369    2.7942   -1.4278 H   0  0  0  0  0  0  0  0  0  0  0  0
   -5.5458    2.5859   -0.6874 H   0  0  0  0  0  0  0  0  0  0  0  0
   -4.0245    0.5434   -1.9319 H   0  0  0  0  0  0  0  0  0  0  0  0
   -2.5781   -2.5281    0.8774 H   0  0  0  0  0  0  0  0  0  0  0  0
   -1.7296   -4.8288    0.5476 H   0  0  0  0  0  0  0  0  0  0  0  0
    1.6288   -5.4859   -0.2653 H   0  0  0  0  0  0  0  0  0  0  0  0
    2.2122   -3.3193   -0.2560 H   0  0  0  0  0  0  0  0  0  0  0  0
  1  2  1  0
  2  3  1  0
  3  4  1  0
  4  5  2  0
  4  6  1  0
  6  7  2  0
  7  8  1  0
  7  9  1  0
  9 10  1  0
 10 11  1  0
 11 12  1  0
 12 13  1  0
 13 14  1  0
  9 15  1  0
 15 16  2  0
 16 17  1  0
 17 18  2  0
 18 19  1  0
 18 20  1  0
 20 21  2  0
 21  6  1  0
 21 15  1  0
  1 22  1  0
  1 23  1  0
  1 24  1  0
  2 25  1  0
  2 26  1  0
  8 27  1  0
  8 28  1  0
  8 29  1  0
 10 30  1  0
 10 31  1  0
 12 32  1  0
 12 33  1  0
 13 34  1  0
 13 35  1  0
 14 36  1  0
 16 37  1  0
 17 38  1  0
 19 39  1  0
 20 40  1  0
M  END
$$$$
