
     RDKit          3D

 38 40  0  0  0  0  0  0  0  0999 V2000
    4.1765   -1.0221    3.0269 N   0  0  0  0  0  0  0  0  0  0  0  0
    3.6095   -1.1285    2.0191 C   0  0  0  0  0  0  0  0  0  0  0  0
    2.9467   -1.2046    0.7645 C   0  0  0  0  0  0  0  0  0  0  0  0
    3.5490   -1.1976   -0.4403 C   0  0  0  0  0  0  0  0  0  0  0  0
    4.9492   -1.0342   -0.6723 C   0  0  0  0  0  0  0  0  0  0  0  0
    5.9401   -0.3652    0.0326 C   0  0  0  0  0  0  0  0  0  0  0  0
    7.2292   -0.4592   -0.5775 C   0  0  0  0  0  0  0  0  0  0  0  0
    7.1747   -1.1821   -1.7380 C   0  0  0  0  0  0  0  0  0  0  0  0
    8.6969   -1.5215   -2.8418 Br  0  0  0  0  0  0  0  0  0  0  0  0
    5.6226   -1.7375   -2.1061 S   0  0  0  0  0  0  0  0  0  0  0  0
    1.4724   -1.4161    0.8012 C   0  0  0  0  0  0  0  0  0  0  0  0
    0.9645   -2.2225    1.5705 O   0  0  0  0  0  0  0  0  0  0  0  0
    0.7454   -0.6141   -0.0524 N   0  0  0  0  0  0  0  0  0  0  0  0
   -0.7082   -0.6604   -0.0777 C   0  0  0  0  0  0  0  0  0  0  0  0
   -1.3394    0.1230    1.0765 C   0  0  0  0  0  0  0  0  0  0  0  0
   -2.8316    0.1497    0.9870 C   0  0  0  0  0  0  0  0  0  0  0  0
   -3.7012   -0.7238    1.6102 C   0  0  0  0  0  0  0  0  0  0  0  0
   -4.9802   -0.3709    1.2760 N   0  0  0  0  0  0  0  0  0  0  0  0
   -4.9691    0.7198    0.4387 C   0  0  0  0  0  0  0  0  0  0  0  0
   -6.0323    1.4140   -0.1512 C   0  0  0  0  0  0  0  0  0  0  0  0
   -5.7206    2.5044   -0.9682 C   0  0  0  0  0  0  0  0  0  0  0  0
   -4.3981    2.8835   -1.1842 C   0  0  0  0  0  0  0  0  0  0  0  0
   -3.3471    2.1780   -0.5865 C   0  0  0  0  0  0  0  0  0  0  0  0
   -3.6338    1.0730    0.2417 C   0  0  0  0  0  0  0  0  0  0  0  0
    2.9370   -1.3718   -1.3256 H   0  0  0  0  0  0  0  0  0  0  0  0
    5.7724    0.1825    0.9529 H   0  0  0  0  0  0  0  0  0  0  0  0
    8.1313   -0.0134   -0.1766 H   0  0  0  0  0  0  0  0  0  0  0  0
    1.1988    0.1352   -0.5595 H   0  0  0  0  0  0  0  0  0  0  0  0
   -1.0196   -0.2483   -1.0440 H   0  0  0  0  0  0  0  0  0  0  0  0
   -1.0259   -1.7095   -0.0457 H   0  0  0  0  0  0  0  0  0  0  0  0
   -1.0365   -0.3142    2.0362 H   0  0  0  0  0  0  0  0  0  0  0  0
   -0.9536    1.1503    1.0802 H   0  0  0  0  0  0  0  0  0  0  0  0
   -3.5151   -1.5664    2.2640 H   0  0  0  0  0  0  0  0  0  0  0  0
   -5.8163   -0.8402    1.5949 H   0  0  0  0  0  0  0  0  0  0  0  0
   -7.0638    1.1223    0.0168 H   0  0  0  0  0  0  0  0  0  0  0  0
   -6.5242    3.0653   -1.4401 H   0  0  0  0  0  0  0  0  0  0  0  0
   -4.1786    3.7367   -1.8212 H   0  0  0  0  0  0  0  0  0  0  0  0
   -2.3211    2.4863   -0.7603 H   0  0  0  0  0  0  0  0  0  0  0  0
  1  2  3  0
  2  3  1  0
  3  4  2  3
  4  5  1  0
  5  6  2  0
  6  7  1  0
  7  8  2  0
  8  9  1  0
  8 10  1  0
  3 11  1  0
 11 12  2  0
 11 13  1  0
 13 14  1  0
 14 15  1  0
 15 16  1  0
 16 17  2  0
 17 18  1  0
 18 19  1  0
 19 20  2  0
 20 21  1  0
 21 22  2  0
 22 23  1  0
 23 24  2  0
 10  5  1  0
 24 16  1  0
 24 19  1  0
  4 25  1  0
  6 26  1  0
  7 27  1  0
 13 28  1  0
 14 29  1  0
 14 30  1  0
 15 31  1  0
 15 32  1  0
 17 33  1  0
 18 34  1  0
 20 35  1  0
 21 36  1  0
 22 37  1  0
 23 38  1  0
M  END
$$$$
