
     RDKit          3D

 43 44  0  0  0  0  0  0  0  0999 V2000
    6.0932    2.7537   -1.4341 C   0  0  0  0  0  0  0  0  0  0  0  0
    4.5875    2.9245   -1.3507 C   0  0  0  0  0  0  0  0  0  0  0  0
    4.1094    2.4548   -0.0813 O   0  0  0  0  0  0  0  0  0  0  0  0
    3.8136    1.1285   -0.0184 C   0  0  0  0  0  0  0  0  0  0  0  0
    3.9860    0.3119   -0.9174 O   0  0  0  0  0  0  0  0  0  0  0  0
    3.3140    0.7580    1.3710 C   0  0  0  0  0  0  0  0  0  0  0  0
    2.5804   -0.5006    1.2926 N   0  0  0  0  0  0  0  0  0  0  0  0
    1.2278   -0.5463    1.5412 C   0  0  0  0  0  0  0  0  0  0  0  0
    0.5985    0.3704    2.0623 O   0  0  0  0  0  0  0  0  0  0  0  0
    0.5480   -1.8332    1.1174 C   0  0  0  0  0  0  0  0  0  0  0  0
    0.3737   -1.9186   -0.6891 S   0  0  0  0  0  0  0  0  0  0  0  0
   -0.3036   -0.3575   -1.0440 C   0  0  0  0  0  0  0  0  0  0  0  0
    0.3646    0.5882   -1.6659 N   0  0  0  0  0  0  0  0  0  0  0  0
   -0.4022    1.7148   -1.5716 N   0  0  0  0  0  0  0  0  0  0  0  0
   -1.5202    1.4780   -0.9021 N   0  0  0  0  0  0  0  0  0  0  0  0
   -1.5132    0.1558   -0.5916 N   0  0  0  0  0  0  0  0  0  0  0  0
   -2.6358   -0.4746    0.0143 C   0  0  0  0  0  0  0  0  0  0  0  0
   -2.9442   -1.8019   -0.3435 C   0  0  0  0  0  0  0  0  0  0  0  0
   -4.0457   -2.4654    0.2126 C   0  0  0  0  0  0  0  0  0  0  0  0
   -4.3787   -3.8753   -0.1780 C   0  0  0  0  0  0  0  0  0  0  0  0
   -4.8513   -1.7898    1.1290 C   0  0  0  0  0  0  0  0  0  0  0  0
   -4.5661   -0.4703    1.4797 C   0  0  0  0  0  0  0  0  0  0  0  0
   -3.4580    0.2069    0.9384 C   0  0  0  0  0  0  0  0  0  0  0  0
   -3.2035    1.6136    1.4149 C   0  0  0  0  0  0  0  0  0  0  0  0
    6.3728    1.6969   -1.3705 H   0  0  0  0  0  0  0  0  0  0  0  0
    6.5850    3.2637   -0.5988 H   0  0  0  0  0  0  0  0  0  0  0  0
    6.4801    3.1606   -2.3728 H   0  0  0  0  0  0  0  0  0  0  0  0
    4.0800    2.4196   -2.1812 H   0  0  0  0  0  0  0  0  0  0  0  0
    4.3327    3.9880   -1.4163 H   0  0  0  0  0  0  0  0  0  0  0  0
    2.6787    1.5555    1.7643 H   0  0  0  0  0  0  0  0  0  0  0  0
    4.1787    0.6019    2.0212 H   0  0  0  0  0  0  0  0  0  0  0  0
    2.9435   -1.1604    0.6087 H   0  0  0  0  0  0  0  0  0  0  0  0
    1.1392   -2.6869    1.4651 H   0  0  0  0  0  0  0  0  0  0  0  0
   -0.4330   -1.8965    1.5978 H   0  0  0  0  0  0  0  0  0  0  0  0
   -2.3700   -2.3254   -1.1053 H   0  0  0  0  0  0  0  0  0  0  0  0
   -4.3427   -4.5295    0.6992 H   0  0  0  0  0  0  0  0  0  0  0  0
   -5.3803   -3.9181   -0.6167 H   0  0  0  0  0  0  0  0  0  0  0  0
   -3.6734   -4.2662   -0.9169 H   0  0  0  0  0  0  0  0  0  0  0  0
   -5.7149   -2.2835    1.5710 H   0  0  0  0  0  0  0  0  0  0  0  0
   -5.2167    0.0282    2.1959 H   0  0  0  0  0  0  0  0  0  0  0  0
   -2.1597    1.7380    1.7183 H   0  0  0  0  0  0  0  0  0  0  0  0
   -3.8120    1.8534    2.2951 H   0  0  0  0  0  0  0  0  0  0  0  0
   -3.4623    2.3352    0.6339 H   0  0  0  0  0  0  0  0  0  0  0  0
  1  2  1  0
  2  3  1  0
  3  4  1  0
  4  5  2  0
  4  6  1  0
  6  7  1  0
  7  8  1  0
  8  9  2  0
  8 10  1  0
 10 11  1  0
 11 12  1  0
 12 13  2  0
 13 14  1  0
 14 15  2  0
 15 16  1  0
 16 17  1  0
 17 18  2  0
 18 19  1  0
 19 20  1  0
 19 21  2  0
 21 22  1  0
 22 23  2  0
 23 24  1  0
 16 12  1  0
 23 17  1  0
  1 25  1  0
  1 26  1  0
  1 27  1  0
  2 28  1  0
  2 29  1  0
  6 30  1  0
  6 31  1  0
  7 32  1  0
 10 33  1  0
 10 34  1  0
 18 35  1  0
 20 36  1  0
 20 37  1  0
 20 38  1  0
 21 39  1  0
 22 40  1  0
 24 41  1  0
 24 42  1  0
 24 43  1  0
M  END
$$$$
