
     RDKit          3D

 51 54  0  0  0  0  0  0  0  0999 V2000
    3.3791    3.0214   -0.3618 C   0  0  0  0  0  0  0  0  0  0  0  0
    2.4096    2.1226   -1.1379 C   0  0  0  0  0  0  0  0  0  0  0  0
    0.9684    2.6533   -1.0447 C   0  0  0  0  0  0  0  0  0  0  0  0
    0.3700    1.7156   -0.0421 C   0  0  0  0  0  0  0  0  0  0  0  0
   -0.8665    1.8481    0.5752 C   0  0  0  0  0  0  0  0  0  0  0  0
   -1.2727    0.8353    1.4450 C   0  0  0  0  0  0  0  0  0  0  0  0
   -2.8374    0.9759    2.2901 S   0  0  0  0  0  6  0  0  0  0  0  0
   -3.1763    2.3827    2.3332 O   0  0  0  0  0  0  0  0  0  0  0  0
   -2.7451    0.1899    3.5024 O   0  0  0  0  0  0  0  0  0  0  0  0
   -3.9135    0.2006    1.2324 N   0  0  0  0  0  0  0  0  0  0  0  0
   -3.8479   -1.2761    1.1231 C   0  0  0  0  0  0  0  0  0  0  0  0
   -3.5980   -1.7103   -0.3150 C   0  0  0  0  0  0  0  0  0  0  0  0
   -4.6954   -1.2152   -1.2556 C   0  0  0  0  0  0  0  0  0  0  0  0
   -5.3064    0.1083   -0.7980 C   0  0  0  0  0  0  0  0  0  0  0  0
   -4.3140    0.9348    0.0106 C   0  0  0  0  0  0  0  0  0  0  0  0
   -0.4332   -0.2577    1.7135 C   0  0  0  0  0  0  0  0  0  0  0  0
    0.8084   -0.3748    1.0732 C   0  0  0  0  0  0  0  0  0  0  0  0
    1.2016    0.6098    0.1826 C   0  0  0  0  0  0  0  0  0  0  0  0
    2.3809    0.7499   -0.5753 N   0  0  0  0  0  0  0  0  0  0  0  0
    3.4308   -0.1296   -0.8352 C   0  0  0  0  0  0  0  0  0  0  0  0
    4.4097    0.2690   -1.4885 O   0  0  0  0  0  0  0  0  0  0  0  0
    3.3413   -1.6041   -0.3620 C   0  0  0  0  0  0  0  0  0  0  0  0
    3.9699   -1.9468    1.0188 C   0  0  0  0  0  0  0  0  0  0  0  0
    5.2433   -2.3849    0.2763 C   0  0  0  0  0  0  0  0  0  0  0  0
    4.3645   -2.6132   -0.9645 C   0  0  0  0  0  0  0  0  0  0  0  0
    3.1119    3.0760    0.6996 H   0  0  0  0  0  0  0  0  0  0  0  0
    3.3710    4.0379   -0.7686 H   0  0  0  0  0  0  0  0  0  0  0  0
    4.4056    2.6461   -0.4206 H   0  0  0  0  0  0  0  0  0  0  0  0
    2.7324    2.0804   -2.1855 H   0  0  0  0  0  0  0  0  0  0  0  0
    0.9140    3.6986   -0.7270 H   0  0  0  0  0  0  0  0  0  0  0  0
    0.4506    2.5337   -2.0027 H   0  0  0  0  0  0  0  0  0  0  0  0
   -1.4935    2.7149    0.3857 H   0  0  0  0  0  0  0  0  0  0  0  0
   -3.0652   -1.6930    1.7627 H   0  0  0  0  0  0  0  0  0  0  0  0
   -4.7977   -1.6861    1.4860 H   0  0  0  0  0  0  0  0  0  0  0  0
   -3.5251   -2.8016   -0.3755 H   0  0  0  0  0  0  0  0  0  0  0  0
   -2.6325   -1.3133   -0.6509 H   0  0  0  0  0  0  0  0  0  0  0  0
   -5.4913   -1.9655   -1.3313 H   0  0  0  0  0  0  0  0  0  0  0  0
   -4.2774   -1.1073   -2.2634 H   0  0  0  0  0  0  0  0  0  0  0  0
   -6.1913   -0.0994   -0.1824 H   0  0  0  0  0  0  0  0  0  0  0  0
   -5.6554    0.6752   -1.6688 H   0  0  0  0  0  0  0  0  0  0  0  0
   -4.7948    1.8759    0.2964 H   0  0  0  0  0  0  0  0  0  0  0  0
   -3.4391    1.1661   -0.6043 H   0  0  0  0  0  0  0  0  0  0  0  0
   -0.7335   -1.0175    2.4330 H   0  0  0  0  0  0  0  0  0  0  0  0
    1.4311   -1.2181    1.3333 H   0  0  0  0  0  0  0  0  0  0  0  0
    2.3288   -2.0015   -0.5041 H   0  0  0  0  0  0  0  0  0  0  0  0
    4.1005   -1.1112    1.7119 H   0  0  0  0  0  0  0  0  0  0  0  0
    3.4601   -2.7644    1.5424 H   0  0  0  0  0  0  0  0  0  0  0  0
    5.9811   -1.5833    0.1548 H   0  0  0  0  0  0  0  0  0  0  0  0
    5.7444   -3.2709    0.6742 H   0  0  0  0  0  0  0  0  0  0  0  0
    4.8199   -2.3411   -1.9203 H   0  0  0  0  0  0  0  0  0  0  0  0
    3.9742   -3.6355   -1.0449 H   0  0  0  0  0  0  0  0  0  0  0  0
  1  2  1  0
  2  3  1  0
  3  4  1  0
  4  5  2  0
  5  6  1  0
  6  7  1  0
  7  8  2  0
  7  9  2  0
  7 10  1  0
 10 11  1  0
 11 12  1  0
 12 13  1  0
 13 14  1  0
 14 15  1  0
  6 16  2  0
 16 17  1  0
 17 18  2  0
 18 19  1  0
 19 20  1  0
 20 21  2  0
 20 22  1  0
 22 23  1  0
 23 24  1  0
 24 25  1  0
 19  2  1  0
 25 22  1  0
 18  4  1  0
 15 10  1  0
  1 26  1  0
  1 27  1  0
  1 28  1  0
  2 29  1  0
  3 30  1  0
  3 31  1  0
  5 32  1  0
 11 33  1  0
 11 34  1  0
 12 35  1  0
 12 36  1  0
 13 37  1  0
 13 38  1  0
 14 39  1  0
 14 40  1  0
 15 41  1  0
 15 42  1  0
 16 43  1  0
 17 44  1  0
 22 45  1  0
 23 46  1  0
 23 47  1  0
 24 48  1  0
 24 49  1  0
 25 50  1  0
 25 51  1  0
M  END
$$$$
