
     RDKit          3D

 53 56  0  0  0  0  0  0  0  0999 V2000
   -2.8424    5.1162    2.8507 C   0  0  0  0  0  0  0  0  0  0  0  0
   -2.7280    5.0851    1.4330 O   0  0  0  0  0  0  0  0  0  0  0  0
   -2.1956    3.9518    0.8829 C   0  0  0  0  0  0  0  0  0  0  0  0
   -1.8170    2.8028    1.5746 C   0  0  0  0  0  0  0  0  0  0  0  0
   -1.2847    1.7078    0.8838 C   0  0  0  0  0  0  0  0  0  0  0  0
   -1.1128    1.7451   -0.5089 C   0  0  0  0  0  0  0  0  0  0  0  0
   -0.5605    0.5624   -1.2906 C   0  0  0  0  0  0  0  0  0  0  0  0
   -1.6796   -0.4208   -1.6463 C   0  0  0  0  0  0  0  0  0  0  0  0
   -1.2564   -1.6111   -0.8345 C   0  0  0  0  0  0  0  0  0  0  0  0
   -2.0827   -2.8311   -0.7647 C   0  0  0  0  0  0  0  0  0  0  0  0
   -3.4613   -2.6869   -0.5479 C   0  0  0  0  0  0  0  0  0  0  0  0
   -4.2778   -3.8124   -0.4398 C   0  0  0  0  0  0  0  0  0  0  0  0
   -3.7243   -5.0844   -0.5420 C   0  0  0  0  0  0  0  0  0  0  0  0
   -2.3534   -5.2328   -0.7581 C   0  0  0  0  0  0  0  0  0  0  0  0
   -1.5102   -4.1104   -0.8817 C   0  0  0  0  0  0  0  0  0  0  0  0
   -0.0395   -4.3203   -1.1578 C   0  0  0  0  0  0  0  0  0  0  0  0
    0.4469   -3.5189   -2.1459 F   0  0  0  0  0  0  0  0  0  0  0  0
    0.7545   -4.1525   -0.0675 F   0  0  0  0  0  0  0  0  0  0  0  0
    0.2239   -5.5924   -1.5907 F   0  0  0  0  0  0  0  0  0  0  0  0
   -0.1091   -1.5087   -0.2446 N   0  0  0  0  0  0  0  0  0  0  0  0
    0.3740   -0.2623   -0.5180 N   0  0  0  0  0  0  0  0  0  0  0  0
    1.7004    0.0579   -0.2303 C   0  0  0  0  0  0  0  0  0  0  0  0
    2.5254   -0.8562    0.4542 C   0  0  0  0  0  0  0  0  0  0  0  0
    3.8592   -0.5683    0.7598 C   0  0  0  0  0  0  0  0  0  0  0  0
    4.3979    0.6555    0.3710 C   0  0  0  0  0  0  0  0  0  0  0  0
    6.0920    1.0126    0.7417 S   0  0  0  0  0  6  0  0  0  0  0  0
    6.8912    0.1128   -0.4391 N   0  0  0  0  0  0  0  0  0  0  0  0
    6.4102    0.4452    2.0297 O   0  0  0  0  0  0  0  0  0  0  0  0
    6.3578    2.3942    0.4109 O   0  0  0  0  0  0  0  0  0  0  0  0
    3.6103    1.5939   -0.2920 C   0  0  0  0  0  0  0  0  0  0  0  0
    2.2749    1.2900   -0.5870 C   0  0  0  0  0  0  0  0  0  0  0  0
   -1.5059    2.9030   -1.1963 C   0  0  0  0  0  0  0  0  0  0  0  0
   -2.0401    3.9930   -0.5039 C   0  0  0  0  0  0  0  0  0  0  0  0
   -3.2512    6.0918    3.1319 H   0  0  0  0  0  0  0  0  0  0  0  0
   -3.5381    4.3489    3.2065 H   0  0  0  0  0  0  0  0  0  0  0  0
   -1.8625    5.0153    3.3295 H   0  0  0  0  0  0  0  0  0  0  0  0
   -1.9190    2.7213    2.6519 H   0  0  0  0  0  0  0  0  0  0  0  0
   -0.9929    0.8225    1.4485 H   0  0  0  0  0  0  0  0  0  0  0  0
   -0.0826    0.9159   -2.2133 H   0  0  0  0  0  0  0  0  0  0  0  0
   -1.6459   -0.6913   -2.7069 H   0  0  0  0  0  0  0  0  0  0  0  0
   -2.6813   -0.0697   -1.3899 H   0  0  0  0  0  0  0  0  0  0  0  0
   -3.9131   -1.7051   -0.4296 H   0  0  0  0  0  0  0  0  0  0  0  0
   -5.3449   -3.6968   -0.2627 H   0  0  0  0  0  0  0  0  0  0  0  0
   -4.3587   -5.9635   -0.4509 H   0  0  0  0  0  0  0  0  0  0  0  0
   -1.9410   -6.2389   -0.8380 H   0  0  0  0  0  0  0  0  0  0  0  0
    2.1184   -1.8180    0.7641 H   0  0  0  0  0  0  0  0  0  0  0  0
    4.4573   -1.2987    1.3004 H   0  0  0  0  0  0  0  0  0  0  0  0
    7.3790    0.7556   -1.0651 H   0  0  0  0  0  0  0  0  0  0  0  0
    6.2716   -0.5171   -0.9480 H   0  0  0  0  0  0  0  0  0  0  0  0
    4.0144    2.5621   -0.5790 H   0  0  0  0  0  0  0  0  0  0  0  0
    1.6889    2.0499   -1.0962 H   0  0  0  0  0  0  0  0  0  0  0  0
   -1.3995    2.9704   -2.2769 H   0  0  0  0  0  0  0  0  0  0  0  0
   -2.3364    4.8856   -1.0498 H   0  0  0  0  0  0  0  0  0  0  0  0
  1  2  1  0
  2  3  1  0
  3  4  2  0
  4  5  1  0
  5  6  2  0
  6  7  1  0
  7  8  1  0
  8  9  1  0
  9 10  1  0
 10 11  2  0
 11 12  1  0
 12 13  2  0
 13 14  1  0
 14 15  2  0
 15 16  1  0
 16 17  1  0
 16 18  1  0
 16 19  1  0
  9 20  2  0
 20 21  1  0
 21 22  1  0
 22 23  2  0
 23 24  1  0
 24 25  2  0
 25 26  1  0
 26 27  1  0
 26 28  2  0
 26 29  2  0
 25 30  1  0
 30 31  2  0
  6 32  1  0
 32 33  2  0
 33  3  1  0
 21  7  1  0
 31 22  1  0
 15 10  1  0
  1 34  1  0
  1 35  1  0
  1 36  1  0
  4 37  1  0
  5 38  1  0
  7 39  1  0
  8 40  1  0
  8 41  1  0
 11 42  1  0
 12 43  1  0
 13 44  1  0
 14 45  1  0
 23 46  1  0
 24 47  1  0
 27 48  1  0
 27 49  1  0
 30 50  1  0
 31 51  1  0
 32 52  1  0
 33 53  1  0
M  END
$$$$
