
     RDKit          3D

 53 56  0  0  0  0  0  0  0  0999 V2000
   -8.6446    1.2249    0.4680 C   0  0  0  0  0  0  0  0  0  0  0  0
   -7.3104    1.2025   -0.0229 O   0  0  0  0  0  0  0  0  0  0  0  0
   -6.4213    0.5615    0.8898 C   0  0  0  0  0  0  0  0  0  0  0  0
   -5.0271    0.5581    0.2835 C   0  0  0  0  0  0  0  0  0  0  0  0
   -3.9779   -0.1063    1.1751 C   0  0  0  0  0  0  0  0  0  0  0  0
   -2.8552   -0.4276    0.1933 C   0  0  0  0  0  0  0  0  0  0  0  0
   -3.5327   -0.6601   -1.0731 N   0  0  0  0  0  0  0  0  0  0  0  0
   -3.0664   -1.3956   -2.1590 C   0  0  0  0  0  0  0  0  0  0  0  0
   -3.8221   -1.7253   -3.0736 O   0  0  0  0  0  0  0  0  0  0  0  0
   -1.6426   -1.7485   -2.1724 C   0  0  0  0  0  0  0  0  0  0  0  0
   -0.5187   -0.9188   -1.9095 C   0  0  0  0  0  0  0  0  0  0  0  0
    0.5702   -1.7429   -2.0644 C   0  0  0  0  0  0  0  0  0  0  0  0
    2.0375   -1.5693   -1.9589 C   0  0  0  0  0  0  0  0  0  0  0  0
    2.2662   -0.4942   -1.0492 O   0  0  0  0  0  0  0  0  0  0  0  0
    3.5613   -0.2723   -0.6421 C   0  0  0  0  0  0  0  0  0  0  0  0
    4.6769   -0.8190   -1.2802 C   0  0  0  0  0  0  0  0  0  0  0  0
    5.9628   -0.5506   -0.8092 C   0  0  0  0  0  0  0  0  0  0  0  0
    6.1551    0.2728    0.3034 C   0  0  0  0  0  0  0  0  0  0  0  0
    7.3906    0.5745    0.8268 O   0  0  0  0  0  0  0  0  0  0  0  0
    8.5368    0.0496    0.1721 C   0  0  0  0  0  0  0  0  0  0  0  0
    5.0381    0.8514    0.9591 C   0  0  0  0  0  0  0  0  0  0  0  0
    5.1814    1.6985    2.0849 C   0  0  0  0  0  0  0  0  0  0  0  0
    4.0797    2.2683    2.7255 C   0  0  0  0  0  0  0  0  0  0  0  0
    2.8030    2.0043    2.2548 C   0  0  0  0  0  0  0  0  0  0  0  0
    2.6318    1.1712    1.1458 C   0  0  0  0  0  0  0  0  0  0  0  0
    3.7298    0.5802    0.4790 C   0  0  0  0  0  0  0  0  0  0  0  0
    0.1384   -2.9824   -2.4169 O   0  0  0  0  0  0  0  0  0  0  0  0
   -1.2395   -2.9883   -2.4994 N   0  0  0  0  0  0  0  0  0  0  0  0
   -4.9299   -0.2583   -1.0045 C   0  0  0  0  0  0  0  0  0  0  0  0
   -9.0229    0.2043    0.5917 H   0  0  0  0  0  0  0  0  0  0  0  0
   -9.2725    1.7453   -0.2619 H   0  0  0  0  0  0  0  0  0  0  0  0
   -8.6924    1.7636    1.4203 H   0  0  0  0  0  0  0  0  0  0  0  0
   -6.4134    1.1145    1.8375 H   0  0  0  0  0  0  0  0  0  0  0  0
   -6.7661   -0.4628    1.0846 H   0  0  0  0  0  0  0  0  0  0  0  0
   -4.7179    1.5895    0.0624 H   0  0  0  0  0  0  0  0  0  0  0  0
   -3.6452    0.5378    1.9955 H   0  0  0  0  0  0  0  0  0  0  0  0
   -4.3714   -1.0362    1.6088 H   0  0  0  0  0  0  0  0  0  0  0  0
   -2.1952    0.4369    0.0678 H   0  0  0  0  0  0  0  0  0  0  0  0
   -2.2696   -1.2979    0.5030 H   0  0  0  0  0  0  0  0  0  0  0  0
   -0.5040    0.1321   -1.6546 H   0  0  0  0  0  0  0  0  0  0  0  0
    2.4906   -2.4932   -1.5825 H   0  0  0  0  0  0  0  0  0  0  0  0
    2.4388   -1.3194   -2.9473 H   0  0  0  0  0  0  0  0  0  0  0  0
    4.5873   -1.4557   -2.1558 H   0  0  0  0  0  0  0  0  0  0  0  0
    6.7958   -1.0031   -1.3382 H   0  0  0  0  0  0  0  0  0  0  0  0
    9.4213    0.3990    0.7149 H   0  0  0  0  0  0  0  0  0  0  0  0
    8.5408   -1.0447    0.1999 H   0  0  0  0  0  0  0  0  0  0  0  0
    8.6095    0.4220   -0.8547 H   0  0  0  0  0  0  0  0  0  0  0  0
    6.1735    1.9227    2.4734 H   0  0  0  0  0  0  0  0  0  0  0  0
    4.2260    2.9154    3.5890 H   0  0  0  0  0  0  0  0  0  0  0  0
    1.9397    2.4417    2.7470 H   0  0  0  0  0  0  0  0  0  0  0  0
    1.6191    0.9802    0.7974 H   0  0  0  0  0  0  0  0  0  0  0  0
   -5.2016    0.3157   -1.8953 H   0  0  0  0  0  0  0  0  0  0  0  0
   -5.5417   -1.1662   -0.9680 H   0  0  0  0  0  0  0  0  0  0  0  0
  1  2  1  0
  2  3  1  0
  3  4  1  0
  4  5  1  0
  5  6  1  0
  6  7  1  0
  7  8  1  0
  8  9  2  0
  8 10  1  0
 10 11  1  0
 11 12  2  0
 12 13  1  0
 13 14  1  0
 14 15  1  0
 15 16  2  0
 16 17  1  0
 17 18  2  0
 18 19  1  0
 19 20  1  0
 18 21  1  0
 21 22  2  0
 22 23  1  0
 23 24  2  0
 24 25  1  0
 25 26  2  0
 12 27  1  0
 27 28  1  0
  7 29  1  0
 29  4  1  0
 28 10  2  0
 26 15  1  0
 26 21  1  0
  1 30  1  0
  1 31  1  0
  1 32  1  0
  3 33  1  0
  3 34  1  0
  4 35  1  0
  5 36  1  0
  5 37  1  0
  6 38  1  0
  6 39  1  0
 11 40  1  0
 13 41  1  0
 13 42  1  0
 16 43  1  0
 17 44  1  0
 20 45  1  0
 20 46  1  0
 20 47  1  0
 22 48  1  0
 23 49  1  0
 24 50  1  0
 25 51  1  0
 29 52  1  0
 29 53  1  0
M  END
$$$$
