
     RDKit          3D

 55 56  0  0  0  0  0  0  0  0999 V2000
   -4.7246   -0.8328    0.9838 C   0  0  0  0  0  0  0  0  0  0  0  0
   -3.9303    0.4513    1.2418 C   0  0  0  0  0  0  0  0  0  0  0  0
   -3.5807    1.1150   -0.0037 N   0  0  0  0  0  0  0  0  0  0  0  0
   -2.5602    0.6732   -0.8129 C   0  0  0  0  0  0  0  0  0  0  0  0
   -1.8900   -0.3237   -0.5672 O   0  0  0  0  0  0  0  0  0  0  0  0
   -2.3766    1.5238   -2.0526 C   0  0  0  0  0  0  0  0  0  0  0  0
   -1.0814    1.2338   -2.8037 C   0  0  0  0  0  0  0  0  0  0  0  0
    0.3175    2.3095   -2.3116 S   0  0  0  0  0  0  0  0  0  0  0  0
    0.7199    1.6692   -0.6428 C   0  0  0  0  0  0  0  0  0  0  0  0
    1.3122    0.2657   -0.6423 C   0  0  0  0  0  0  0  0  0  0  0  0
    2.7678    0.2350   -1.0647 C   0  0  0  0  0  0  0  0  0  0  0  0
    3.5331    1.1824   -0.9233 O   0  0  0  0  0  0  0  0  0  0  0  0
    3.1551   -0.9897   -1.5676 N   0  0  0  0  0  0  0  0  0  0  0  0
    4.5451   -1.2921   -1.8715 C   0  0  0  0  0  0  0  0  0  0  0  0
    4.6390   -1.9527   -3.2482 C   0  0  0  0  0  0  0  0  0  0  0  0
    5.1374   -2.1099   -0.7349 C   0  0  0  0  0  0  0  0  0  0  0  0
    5.1265   -3.5134   -0.7173 C   0  0  0  0  0  0  0  0  0  0  0  0
    5.6609   -4.2179    0.3650 C   0  0  0  0  0  0  0  0  0  0  0  0
    6.2030   -3.5316    1.4493 C   0  0  0  0  0  0  0  0  0  0  0  0
    6.2082   -2.1396    1.4560 C   0  0  0  0  0  0  0  0  0  0  0  0
    5.6757   -1.4348    0.3751 C   0  0  0  0  0  0  0  0  0  0  0  0
   -4.6584    1.4331    2.1431 C   0  0  0  0  0  0  0  0  0  0  0  0
   -6.0105    1.7614    1.9509 C   0  0  0  0  0  0  0  0  0  0  0  0
   -6.6432    2.6915    2.7793 C   0  0  0  0  0  0  0  0  0  0  0  0
   -5.9324    3.3134    3.8032 C   0  0  0  0  0  0  0  0  0  0  0  0
   -4.5871    3.0101    3.9980 C   0  0  0  0  0  0  0  0  0  0  0  0
   -3.9530    2.0804    3.1713 C   0  0  0  0  0  0  0  0  0  0  0  0
   -5.0394   -1.2968    1.9251 H   0  0  0  0  0  0  0  0  0  0  0  0
   -5.6187   -0.6481    0.3784 H   0  0  0  0  0  0  0  0  0  0  0  0
   -4.1178   -1.5632    0.4374 H   0  0  0  0  0  0  0  0  0  0  0  0
   -2.9932    0.1523    1.7298 H   0  0  0  0  0  0  0  0  0  0  0  0
   -4.0893    1.9545   -0.2509 H   0  0  0  0  0  0  0  0  0  0  0  0
   -3.2197    1.2748   -2.7103 H   0  0  0  0  0  0  0  0  0  0  0  0
   -2.4662    2.5861   -1.7979 H   0  0  0  0  0  0  0  0  0  0  0  0
   -1.2495    1.4626   -3.8625 H   0  0  0  0  0  0  0  0  0  0  0  0
   -0.7868    0.1820   -2.7640 H   0  0  0  0  0  0  0  0  0  0  0  0
   -0.1835    1.7049   -0.0287 H   0  0  0  0  0  0  0  0  0  0  0  0
    1.4188    2.3811   -0.1906 H   0  0  0  0  0  0  0  0  0  0  0  0
    1.2880   -0.1223    0.3842 H   0  0  0  0  0  0  0  0  0  0  0  0
    0.7273   -0.4251   -1.2564 H   0  0  0  0  0  0  0  0  0  0  0  0
    2.5343   -1.7763   -1.4329 H   0  0  0  0  0  0  0  0  0  0  0  0
    5.1109   -0.3540   -1.9414 H   0  0  0  0  0  0  0  0  0  0  0  0
    4.2946   -1.2604   -4.0251 H   0  0  0  0  0  0  0  0  0  0  0  0
    5.6707   -2.2367   -3.4821 H   0  0  0  0  0  0  0  0  0  0  0  0
    4.0102   -2.8470   -3.3212 H   0  0  0  0  0  0  0  0  0  0  0  0
    4.7025   -4.0814   -1.5410 H   0  0  0  0  0  0  0  0  0  0  0  0
    5.6518   -5.3051    0.3619 H   0  0  0  0  0  0  0  0  0  0  0  0
    6.6168   -4.0812    2.2903 H   0  0  0  0  0  0  0  0  0  0  0  0
    6.6223   -1.5990    2.3031 H   0  0  0  0  0  0  0  0  0  0  0  0
    5.6755   -0.3451    0.4013 H   0  0  0  0  0  0  0  0  0  0  0  0
   -6.5871    1.2998    1.1528 H   0  0  0  0  0  0  0  0  0  0  0  0
   -7.6918    2.9326    2.6233 H   0  0  0  0  0  0  0  0  0  0  0  0
   -6.4255    4.0372    4.4470 H   0  0  0  0  0  0  0  0  0  0  0  0
   -4.0293    3.4991    4.7929 H   0  0  0  0  0  0  0  0  0  0  0  0
   -2.8989    1.8642    3.3355 H   0  0  0  0  0  0  0  0  0  0  0  0
  1  2  1  0
  2  3  1  0
  3  4  1  0
  4  5  2  0
  4  6  1  0
  6  7  1  0
  7  8  1  0
  8  9  1  0
  9 10  1  0
 10 11  1  0
 11 12  2  0
 11 13  1  0
 13 14  1  0
 14 15  1  0
 14 16  1  0
 16 17  2  0
 17 18  1  0
 18 19  2  0
 19 20  1  0
 20 21  2  0
  2 22  1  0
 22 23  2  0
 23 24  1  0
 24 25  2  0
 25 26  1  0
 26 27  2  0
 21 16  1  0
 27 22  1  0
  1 28  1  0
  1 29  1  0
  1 30  1  0
  2 31  1  0
  3 32  1  0
  6 33  1  0
  6 34  1  0
  7 35  1  0
  7 36  1  0
  9 37  1  0
  9 38  1  0
 10 39  1  0
 10 40  1  0
 13 41  1  0
 14 42  1  0
 15 43  1  0
 15 44  1  0
 15 45  1  0
 17 46  1  0
 18 47  1  0
 19 48  1  0
 20 49  1  0
 21 50  1  0
 23 51  1  0
 24 52  1  0
 25 53  1  0
 26 54  1  0
 27 55  1  0
M  END
$$$$
