
     RDKit          3D

 41 43  0  0  0  0  0  0  0  0999 V2000
   -3.1775   -2.1811    3.1078 C   0  0  0  0  0  0  0  0  0  0  0  0
   -1.8316   -2.2905    2.4081 C   0  0  0  0  0  0  0  0  0  0  0  0
   -1.8341   -1.7296    0.9827 C   0  0  0  0  0  0  0  0  0  0  0  0
   -2.0669   -0.2197    0.9388 C   0  0  0  0  0  0  0  0  0  0  0  0
   -2.0033    0.4200   -0.7628 S   0  0  0  0  0  0  0  0  0  0  0  0
   -0.2825    0.4695   -0.9783 C   0  0  0  0  0  0  0  0  0  0  0  0
    0.3039   -0.5312   -1.5602 N   0  0  0  0  0  0  0  0  0  0  0  0
    1.6389   -0.2369   -1.4690 C   0  0  0  0  0  0  0  0  0  0  0  0
    2.6885   -0.9451   -1.9097 C   0  0  0  0  0  0  0  0  0  0  0  0
    2.6846   -2.2035   -2.5998 C   0  0  0  0  0  0  0  0  0  0  0  0
    1.5520   -2.9801   -2.9946 C   0  0  0  0  0  0  0  0  0  0  0  0
    1.9081   -4.1438   -3.6421 C   0  0  0  0  0  0  0  0  0  0  0  0
    3.6026   -4.3092   -3.7787 S   0  0  0  0  0  0  0  0  0  0  0  0
    3.8631   -2.8216   -2.9720 C   0  0  0  0  0  0  0  0  0  0  0  0
    1.8180    1.0599   -0.7525 C   0  0  0  0  0  0  0  0  0  0  0  0
    2.8913    1.5837   -0.5099 O   0  0  0  0  0  0  0  0  0  0  0  0
    0.5267    1.4651   -0.4996 N   0  0  0  0  0  0  0  0  0  0  0  0
    0.2015    2.7021    0.1214 C   0  0  0  0  0  0  0  0  0  0  0  0
    1.0731    3.2732    1.0641 C   0  0  0  0  0  0  0  0  0  0  0  0
    0.7741    4.4873    1.6919 C   0  0  0  0  0  0  0  0  0  0  0  0
   -0.3990    5.1635    1.3792 C   0  0  0  0  0  0  0  0  0  0  0  0
   -1.2652    4.6304    0.4315 C   0  0  0  0  0  0  0  0  0  0  0  0
   -0.9638    3.4149   -0.1944 C   0  0  0  0  0  0  0  0  0  0  0  0
   -3.1379   -2.6862    4.0783 H   0  0  0  0  0  0  0  0  0  0  0  0
   -3.4520   -1.1380    3.2896 H   0  0  0  0  0  0  0  0  0  0  0  0
   -3.9686   -2.6499    2.5141 H   0  0  0  0  0  0  0  0  0  0  0  0
   -1.5484   -3.3490    2.3632 H   0  0  0  0  0  0  0  0  0  0  0  0
   -1.0662   -1.7834    3.0071 H   0  0  0  0  0  0  0  0  0  0  0  0
   -2.6000   -2.2478    0.3920 H   0  0  0  0  0  0  0  0  0  0  0  0
   -0.8644   -1.9731    0.5328 H   0  0  0  0  0  0  0  0  0  0  0  0
   -1.3366    0.3068    1.5620 H   0  0  0  0  0  0  0  0  0  0  0  0
   -3.0609    0.0207    1.3276 H   0  0  0  0  0  0  0  0  0  0  0  0
    3.6737   -0.5169   -1.7215 H   0  0  0  0  0  0  0  0  0  0  0  0
    0.5170   -2.7116   -2.8209 H   0  0  0  0  0  0  0  0  0  0  0  0
    1.2516   -4.9042   -4.0418 H   0  0  0  0  0  0  0  0  0  0  0  0
    4.8773   -2.4803   -2.8138 H   0  0  0  0  0  0  0  0  0  0  0  0
    1.9963    2.7755    1.3535 H   0  0  0  0  0  0  0  0  0  0  0  0
    1.4632    4.9014    2.4241 H   0  0  0  0  0  0  0  0  0  0  0  0
   -0.6307    6.1093    1.8621 H   0  0  0  0  0  0  0  0  0  0  0  0
   -2.1725    5.1667    0.1629 H   0  0  0  0  0  0  0  0  0  0  0  0
   -1.6435    3.0824   -0.9732 H   0  0  0  0  0  0  0  0  0  0  0  0
  1  2  1  0
  2  3  1  0
  3  4  1  0
  4  5  1  0
  5  6  1  0
  6  7  2  0
  7  8  1  0
  8  9  2  3
  9 10  1  0
 10 11  1  0
 11 12  2  0
 12 13  1  0
 13 14  1  0
  8 15  1  0
 15 16  2  0
 15 17  1  0
 17 18  1  0
 18 19  2  0
 19 20  1  0
 20 21  2  0
 21 22  1  0
 22 23  2  0
 17  6  1  0
 23 18  1  0
 14 10  2  0
  1 24  1  0
  1 25  1  0
  1 26  1  0
  2 27  1  0
  2 28  1  0
  3 29  1  0
  3 30  1  0
  4 31  1  0
  4 32  1  0
  9 33  1  0
 11 34  1  0
 12 35  1  0
 14 36  1  0
 19 37  1  0
 20 38  1  0
 21 39  1  0
 22 40  1  0
 23 41  1  0
M  END
$$$$
