
     RDKit          3D

 47 49  0  0  0  0  0  0  0  0999 V2000
   -6.8367    1.4302    1.0878 C   0  0  0  0  0  0  0  0  0  0  0  0
   -6.9282    0.0567    0.4463 C   0  0  0  0  0  0  0  0  0  0  0  0
   -5.9203   -0.1025   -0.5509 O   0  0  0  0  0  0  0  0  0  0  0  0
   -4.7150   -0.6365   -0.1925 C   0  0  0  0  0  0  0  0  0  0  0  0
   -4.2781   -0.8923    1.1092 C   0  0  0  0  0  0  0  0  0  0  0  0
   -3.0100   -1.4390    1.3329 C   0  0  0  0  0  0  0  0  0  0  0  0
   -2.1776   -1.7196    0.2474 C   0  0  0  0  0  0  0  0  0  0  0  0
   -0.5647   -2.4094    0.5108 S   0  0  0  0  0  6  0  0  0  0  0  0
   -0.4407   -3.5627   -0.3534 O   0  0  0  0  0  0  0  0  0  0  0  0
   -0.3242   -2.5046    1.9353 O   0  0  0  0  0  0  0  0  0  0  0  0
    0.4675   -1.1871   -0.0865 N   0  0  0  0  0  0  0  0  0  0  0  0
    1.8547   -1.6879   -0.3579 C   0  0  0  0  0  0  0  0  0  0  0  0
    2.8315   -0.5373   -0.6316 C   0  0  0  0  0  0  0  0  0  0  0  0
    2.8773    0.4429    0.4620 N   0  0  0  0  0  0  0  0  0  0  0  0
    3.7570    1.5174    0.5121 C   0  0  0  0  0  0  0  0  0  0  0  0
    3.6692    2.4453    1.3096 O   0  0  0  0  0  0  0  0  0  0  0  0
    4.8604    1.5605   -0.4616 C   0  0  0  0  0  0  0  0  0  0  0  0
    4.8080    2.4818   -1.5028 C   0  0  0  0  0  0  0  0  0  0  0  0
    5.8698    2.4978   -2.3853 C   0  0  0  0  0  0  0  0  0  0  0  0
    6.9411    1.6788   -2.2837 N   0  0  0  0  0  0  0  0  0  0  0  0
    6.9696    0.8199   -1.2403 C   0  0  0  0  0  0  0  0  0  0  0  0
    5.9605    0.7224   -0.3028 C   0  0  0  0  0  0  0  0  0  0  0  0
    1.7462    0.4109    1.3934 C   0  0  0  0  0  0  0  0  0  0  0  0
    0.4299    0.1143    0.6667 C   0  0  0  0  0  0  0  0  0  0  0  0
   -2.6020   -1.4697   -1.0579 C   0  0  0  0  0  0  0  0  0  0  0  0
   -3.8687   -0.9244   -1.2698 C   0  0  0  0  0  0  0  0  0  0  0  0
   -5.8801    1.5709    1.6000 H   0  0  0  0  0  0  0  0  0  0  0  0
   -6.9046    2.2135    0.3254 H   0  0  0  0  0  0  0  0  0  0  0  0
   -7.6444    1.5735    1.8111 H   0  0  0  0  0  0  0  0  0  0  0  0
   -6.9210   -0.7517    1.1860 H   0  0  0  0  0  0  0  0  0  0  0  0
   -7.8913   -0.0207   -0.0712 H   0  0  0  0  0  0  0  0  0  0  0  0
   -4.8949   -0.6729    1.9744 H   0  0  0  0  0  0  0  0  0  0  0  0
   -2.6843   -1.6388    2.3515 H   0  0  0  0  0  0  0  0  0  0  0  0
    2.2121   -2.2700    0.5005 H   0  0  0  0  0  0  0  0  0  0  0  0
    1.8274   -2.3440   -1.2348 H   0  0  0  0  0  0  0  0  0  0  0  0
    2.5287    0.0051   -1.5356 H   0  0  0  0  0  0  0  0  0  0  0  0
    3.8331   -0.9410   -0.8029 H   0  0  0  0  0  0  0  0  0  0  0  0
    3.9727    3.1634   -1.6156 H   0  0  0  0  0  0  0  0  0  0  0  0
    5.8946    3.1901   -3.2227 H   0  0  0  0  0  0  0  0  0  0  0  0
    7.8572    0.1966   -1.1788 H   0  0  0  0  0  0  0  0  0  0  0  0
    6.0298    0.0267    0.5254 H   0  0  0  0  0  0  0  0  0  0  0  0
    1.6614    1.3559    1.9394 H   0  0  0  0  0  0  0  0  0  0  0  0
    1.9605   -0.3743    2.1285 H   0  0  0  0  0  0  0  0  0  0  0  0
   -0.3905    0.1351    1.3903 H   0  0  0  0  0  0  0  0  0  0  0  0
    0.2221    0.9023   -0.0679 H   0  0  0  0  0  0  0  0  0  0  0  0
   -1.9583   -1.6974   -1.9044 H   0  0  0  0  0  0  0  0  0  0  0  0
   -4.2069   -0.7283   -2.2851 H   0  0  0  0  0  0  0  0  0  0  0  0
  1  2  1  0
  2  3  1  0
  3  4  1  0
  4  5  2  0
  5  6  1  0
  6  7  2  0
  7  8  1  0
  8  9  2  0
  8 10  2  0
  8 11  1  0
 11 12  1  0
 12 13  1  0
 13 14  1  0
 14 15  1  0
 15 16  2  0
 15 17  1  0
 17 18  2  0
 18 19  1  0
 19 20  2  0
 20 21  1  0
 21 22  2  0
 14 23  1  0
 23 24  1  0
  7 25  1  0
 25 26  2  0
 26  4  1  0
 24 11  1  0
 22 17  1  0
  1 27  1  0
  1 28  1  0
  1 29  1  0
  2 30  1  0
  2 31  1  0
  5 32  1  0
  6 33  1  0
 12 34  1  0
 12 35  1  0
 13 36  1  0
 13 37  1  0
 18 38  1  0
 19 39  1  0
 21 40  1  0
 22 41  1  0
 23 42  1  0
 23 43  1  0
 24 44  1  0
 24 45  1  0
 25 46  1  0
 26 47  1  0
M  END
$$$$
