
     RDKit          3D

 39 41  0  0  0  0  0  0  0  0999 V2000
    2.6145    2.2850   -1.8514 C   0  0  0  0  0  0  0  0  0  0  0  0
    1.8226    2.3723   -0.5728 C   0  0  0  0  0  0  0  0  0  0  0  0
    2.2338    3.0108    0.3956 O   0  0  0  0  0  0  0  0  0  0  0  0
    0.5298    1.6461   -0.5226 C   0  0  0  0  0  0  0  0  0  0  0  0
    0.4807    0.4292    0.0653 C   0  0  0  0  0  0  0  0  0  0  0  0
    1.5352   -0.2191    0.7002 N   0  0  0  0  0  0  0  0  0  0  0  0
    2.1434    0.3053    1.9480 C   0  0  0  0  0  0  0  0  0  0  0  0
    3.6750    0.3199    1.8426 C   0  0  0  0  0  0  0  0  0  0  0  0
    4.2454   -0.9791    1.6070 O   0  0  0  0  0  0  0  0  0  0  0  0
    3.3646   -1.8752    0.9152 C   0  0  0  0  0  0  0  0  0  0  0  0
    2.3967   -1.1650   -0.0411 C   0  0  0  0  0  0  0  0  0  0  0  0
   -0.7103   -0.2490    0.0266 N   0  0  0  0  0  0  0  0  0  0  0  0
   -1.8585    0.2827   -0.4922 C   0  0  0  0  0  0  0  0  0  0  0  0
   -3.1412   -0.4839   -0.3996 C   0  0  0  0  0  0  0  0  0  0  0  0
   -3.1436   -1.8755   -0.2371 C   0  0  0  0  0  0  0  0  0  0  0  0
   -4.3544   -2.5675   -0.1473 C   0  0  0  0  0  0  0  0  0  0  0  0
   -5.5633   -1.8766   -0.2234 C   0  0  0  0  0  0  0  0  0  0  0  0
   -5.5669   -0.4935   -0.3959 C   0  0  0  0  0  0  0  0  0  0  0  0
   -4.3597    0.2019   -0.4871 C   0  0  0  0  0  0  0  0  0  0  0  0
   -1.8774    1.4483   -1.0661 N   0  0  0  0  0  0  0  0  0  0  0  0
   -0.7153    2.1934   -1.1685 C   0  0  0  0  0  0  0  0  0  0  0  0
   -0.7553    3.6706   -2.0004 S   0  0  0  0  0  0  0  0  0  0  0  0
    3.5989    1.8624   -1.6331 H   0  0  0  0  0  0  0  0  0  0  0  0
    2.7240    3.2843   -2.2801 H   0  0  0  0  0  0  0  0  0  0  0  0
    2.1180    1.6394   -2.5814 H   0  0  0  0  0  0  0  0  0  0  0  0
    1.7655    1.3026    2.1942 H   0  0  0  0  0  0  0  0  0  0  0  0
    1.8415   -0.3611    2.7650 H   0  0  0  0  0  0  0  0  0  0  0  0
    4.1135    0.7059    2.7682 H   0  0  0  0  0  0  0  0  0  0  0  0
    4.0029    0.9732    1.0270 H   0  0  0  0  0  0  0  0  0  0  0  0
    3.9874   -2.5855    0.3623 H   0  0  0  0  0  0  0  0  0  0  0  0
    2.8089   -2.4454    1.6689 H   0  0  0  0  0  0  0  0  0  0  0  0
    1.7763   -1.9092   -0.5529 H   0  0  0  0  0  0  0  0  0  0  0  0
    2.9665   -0.6123   -0.7969 H   0  0  0  0  0  0  0  0  0  0  0  0
   -0.7350   -1.0543    0.6371 H   0  0  0  0  0  0  0  0  0  0  0  0
   -2.2192   -2.4430   -0.2049 H   0  0  0  0  0  0  0  0  0  0  0  0
   -4.3564   -3.6482   -0.0264 H   0  0  0  0  0  0  0  0  0  0  0  0
   -6.5045   -2.4170   -0.1560 H   0  0  0  0  0  0  0  0  0  0  0  0
   -6.5086    0.0458   -0.4627 H   0  0  0  0  0  0  0  0  0  0  0  0
   -4.3757    1.2814   -0.6235 H   0  0  0  0  0  0  0  0  0  0  0  0
  1  2  1  0
  2  3  2  0
  2  4  1  0
  4  5  2  0
  5  6  1  0
  6  7  1  0
  7  8  1  0
  8  9  1  0
  9 10  1  0
 10 11  1  0
  5 12  1  0
 12 13  1  0
 13 14  1  0
 14 15  2  0
 15 16  1  0
 16 17  2  0
 17 18  1  0
 18 19  2  0
 13 20  2  0
 20 21  1  0
 21 22  2  0
 21  4  1  0
 11  6  1  0
 19 14  1  0
  1 23  1  0
  1 24  1  0
  1 25  1  0
  7 26  1  0
  7 27  1  0
  8 28  1  0
  8 29  1  0
 10 30  1  0
 10 31  1  0
 11 32  1  0
 11 33  1  0
 12 34  1  0
 15 35  1  0
 16 36  1  0
 17 37  1  0
 18 38  1  0
 19 39  1  0
M  END
$$$$
