
     RDKit          3D

 44 46  0  0  0  0  0  0  0  0999 V2000
   -1.4626    0.7572    2.9413 N   0  0  0  0  0  0  0  0  0  0  0  0
   -0.9717    0.4513    1.9347 C   0  0  0  0  0  0  0  0  0  0  0  0
   -0.4269    0.0376    0.6928 C   0  0  0  0  0  0  0  0  0  0  0  0
    0.8505    0.2386    0.3175 C   0  0  0  0  0  0  0  0  0  0  0  0
    1.8753    0.8735    1.0783 C   0  0  0  0  0  0  0  0  0  0  0  0
    2.0468    1.1009    2.4389 C   0  0  0  0  0  0  0  0  0  0  0  0
    3.2795    1.7769    2.6222 C   0  0  0  0  0  0  0  0  0  0  0  0
    3.8310    1.9301    1.3712 C   0  0  0  0  0  0  0  0  0  0  0  0
    5.0637    2.5238    0.8577 C   0  0  0  0  0  0  0  0  0  0  0  0
    5.3613    2.5127   -0.5148 C   0  0  0  0  0  0  0  0  0  0  0  0
    6.5426    3.0821   -1.0022 C   0  0  0  0  0  0  0  0  0  0  0  0
    7.4409    3.6704   -0.1171 C   0  0  0  0  0  0  0  0  0  0  0  0
    9.0378    4.4407   -0.7707 Br  0  0  0  0  0  0  0  0  0  0  0  0
    7.1685    3.6941    1.2478 C   0  0  0  0  0  0  0  0  0  0  0  0
    5.9855    3.1233    1.7307 C   0  0  0  0  0  0  0  0  0  0  0  0
    2.9926    1.3803    0.4483 O   0  0  0  0  0  0  0  0  0  0  0  0
   -1.3133   -0.6527   -0.3055 C   0  0  0  0  0  0  0  0  0  0  0  0
   -0.8784   -1.0470   -1.3848 O   0  0  0  0  0  0  0  0  0  0  0  0
   -2.6325   -0.8230    0.0608 N   0  0  0  0  0  0  0  0  0  0  0  0
   -3.5686   -1.5651   -0.7773 C   0  0  0  0  0  0  0  0  0  0  0  0
   -3.4265   -3.0746   -0.5401 C   0  0  0  0  0  0  0  0  0  0  0  0
   -4.4443   -3.8712   -1.3526 C   0  0  0  0  0  0  0  0  0  0  0  0
   -5.8707   -3.3986   -1.0889 C   0  0  0  0  0  0  0  0  0  0  0  0
   -6.0180   -1.8983   -1.3232 C   0  0  0  0  0  0  0  0  0  0  0  0
   -5.0044   -1.1003   -0.5076 C   0  0  0  0  0  0  0  0  0  0  0  0
    1.1668   -0.0755   -0.6769 H   0  0  0  0  0  0  0  0  0  0  0  0
    1.3752    0.8100    3.2347 H   0  0  0  0  0  0  0  0  0  0  0  0
    3.7072    2.1013    3.5600 H   0  0  0  0  0  0  0  0  0  0  0  0
    4.6718    2.0574   -1.2234 H   0  0  0  0  0  0  0  0  0  0  0  0
    6.7467    3.0588   -2.0693 H   0  0  0  0  0  0  0  0  0  0  0  0
    7.8657    4.1522    1.9445 H   0  0  0  0  0  0  0  0  0  0  0  0
    5.7965    3.1556    2.8009 H   0  0  0  0  0  0  0  0  0  0  0  0
   -2.9489   -0.5852    0.9937 H   0  0  0  0  0  0  0  0  0  0  0  0
   -3.3233   -1.3518   -1.8259 H   0  0  0  0  0  0  0  0  0  0  0  0
   -3.5587   -3.2967    0.5270 H   0  0  0  0  0  0  0  0  0  0  0  0
   -2.4144   -3.4065   -0.8009 H   0  0  0  0  0  0  0  0  0  0  0  0
   -4.2175   -3.7687   -2.4210 H   0  0  0  0  0  0  0  0  0  0  0  0
   -4.3580   -4.9361   -1.1088 H   0  0  0  0  0  0  0  0  0  0  0  0
   -6.5657   -3.9433   -1.7378 H   0  0  0  0  0  0  0  0  0  0  0  0
   -6.1476   -3.6350   -0.0540 H   0  0  0  0  0  0  0  0  0  0  0  0
   -7.0337   -1.5821   -1.0599 H   0  0  0  0  0  0  0  0  0  0  0  0
   -5.8814   -1.6798   -2.3895 H   0  0  0  0  0  0  0  0  0  0  0  0
   -5.2370   -1.2036    0.5605 H   0  0  0  0  0  0  0  0  0  0  0  0
   -5.1019   -0.0336   -0.7436 H   0  0  0  0  0  0  0  0  0  0  0  0
  1  2  3  0
  2  3  1  0
  3  4  2  3
  4  5  1  0
  5  6  2  0
  6  7  1  0
  7  8  2  0
  8  9  1  0
  9 10  2  0
 10 11  1  0
 11 12  2  0
 12 13  1  0
 12 14  1  0
 14 15  2  0
  8 16  1  0
  3 17  1  0
 17 18  2  0
 17 19  1  0
 19 20  1  0
 20 21  1  0
 21 22  1  0
 22 23  1  0
 23 24  1  0
 24 25  1  0
 16  5  1  0
 25 20  1  0
 15  9  1  0
  4 26  1  0
  6 27  1  0
  7 28  1  0
 10 29  1  0
 11 30  1  0
 14 31  1  0
 15 32  1  0
 19 33  1  0
 20 34  1  0
 21 35  1  0
 21 36  1  0
 22 37  1  0
 22 38  1  0
 23 39  1  0
 23 40  1  0
 24 41  1  0
 24 42  1  0
 25 43  1  0
 25 44  1  0
M  END
$$$$
