
     RDKit          3D

 56 59  0  0  0  0  0  0  0  0999 V2000
    6.2205   -1.8974    3.2439 C   0  0  0  0  0  0  0  0  0  0  0  0
    6.4049   -1.0105    2.1466 O   0  0  0  0  0  0  0  0  0  0  0  0
    5.3186   -0.7711    1.3518 C   0  0  0  0  0  0  0  0  0  0  0  0
    5.5437    0.1476    0.3249 C   0  0  0  0  0  0  0  0  0  0  0  0
    4.5190    0.4908   -0.5557 C   0  0  0  0  0  0  0  0  0  0  0  0
    3.2532   -0.0851   -0.4067 C   0  0  0  0  0  0  0  0  0  0  0  0
    2.2067    0.3525   -1.3574 C   0  0  0  0  0  0  0  0  0  0  0  0
    2.3458    0.1029   -2.5508 O   0  0  0  0  0  0  0  0  0  0  0  0
    1.0562    1.1772   -0.8049 C   0  0  0  0  0  0  0  0  0  0  0  0
    1.2272    2.6502   -1.2015 C   0  0  0  0  0  0  0  0  0  0  0  0
   -0.1051    3.3071   -1.5570 C   0  0  0  0  0  0  0  0  0  0  0  0
   -1.2358    2.7801   -0.6755 C   0  0  0  0  0  0  0  0  0  0  0  0
   -1.4303    1.3201   -0.7453 N   0  0  0  0  0  0  0  0  0  0  0  0
   -2.6875    0.9870   -1.4346 C   0  0  0  0  0  0  0  0  0  0  0  0
   -3.0160   -0.4743   -1.3992 C   0  0  0  0  0  0  0  0  0  0  0  0
   -2.7704   -1.3721   -2.4331 C   0  0  0  0  0  0  0  0  0  0  0  0
   -3.3353   -2.6108   -2.0971 C   0  0  0  0  0  0  0  0  0  0  0  0
   -3.9210   -2.4514   -0.8679 C   0  0  0  0  0  0  0  0  0  0  0  0
   -3.7007   -1.1619   -0.3900 N   0  0  0  0  0  0  0  0  0  0  0  0
   -4.1673   -0.7554    0.9113 C   0  0  0  0  0  0  0  0  0  0  0  0
   -3.7379    0.4103    1.5313 C   0  0  0  0  0  0  0  0  0  0  0  0
   -4.2313    0.7324    2.7984 C   0  0  0  0  0  0  0  0  0  0  0  0
   -5.1332   -0.1159    3.4231 C   0  0  0  0  0  0  0  0  0  0  0  0
   -5.5012   -1.2664    2.7560 C   0  0  0  0  0  0  0  0  0  0  0  0
   -5.0381   -1.6025    1.5329 N   0  0  0  0  0  0  0  0  0  0  0  0
   -0.2705    0.6126   -1.3232 C   0  0  0  0  0  0  0  0  0  0  0  0
    3.0121   -1.0404    0.5952 C   0  0  0  0  0  0  0  0  0  0  0  0
    1.6839   -1.7271    0.7527 C   0  0  0  0  0  0  0  0  0  0  0  0
    4.0578   -1.3616    1.4818 C   0  0  0  0  0  0  0  0  0  0  0  0
    7.1659   -1.9511    3.7923 H   0  0  0  0  0  0  0  0  0  0  0  0
    5.4580   -1.5199    3.9338 H   0  0  0  0  0  0  0  0  0  0  0  0
    5.9769   -2.9084    2.8981 H   0  0  0  0  0  0  0  0  0  0  0  0
    6.5272    0.5975    0.2094 H   0  0  0  0  0  0  0  0  0  0  0  0
    4.7102    1.2059   -1.3525 H   0  0  0  0  0  0  0  0  0  0  0  0
    1.0608    1.1134    0.2906 H   0  0  0  0  0  0  0  0  0  0  0  0
    1.6821    3.1859   -0.3583 H   0  0  0  0  0  0  0  0  0  0  0  0
    1.9218    2.7734   -2.0409 H   0  0  0  0  0  0  0  0  0  0  0  0
   -0.3423    3.1151   -2.6102 H   0  0  0  0  0  0  0  0  0  0  0  0
   -0.0188    4.3942   -1.4508 H   0  0  0  0  0  0  0  0  0  0  0  0
   -2.1581    3.3271   -0.9073 H   0  0  0  0  0  0  0  0  0  0  0  0
   -1.0058    3.0269    0.3693 H   0  0  0  0  0  0  0  0  0  0  0  0
   -2.6299    1.3162   -2.4818 H   0  0  0  0  0  0  0  0  0  0  0  0
   -3.5296    1.5439   -1.0051 H   0  0  0  0  0  0  0  0  0  0  0  0
   -2.2541   -1.1319   -3.3546 H   0  0  0  0  0  0  0  0  0  0  0  0
   -3.3359   -3.5172   -2.6876 H   0  0  0  0  0  0  0  0  0  0  0  0
   -4.4664   -3.1633   -0.2613 H   0  0  0  0  0  0  0  0  0  0  0  0
   -2.9998    1.0687    1.1041 H   0  0  0  0  0  0  0  0  0  0  0  0
   -3.8929    1.6366    3.2974 H   0  0  0  0  0  0  0  0  0  0  0  0
   -5.5281    0.1079    4.4074 H   0  0  0  0  0  0  0  0  0  0  0  0
   -6.1945   -1.9757    3.1984 H   0  0  0  0  0  0  0  0  0  0  0  0
   -0.3241   -0.4478   -1.0547 H   0  0  0  0  0  0  0  0  0  0  0  0
   -0.2898    0.6626   -2.4201 H   0  0  0  0  0  0  0  0  0  0  0  0
    1.3025   -2.0606   -0.2179 H   0  0  0  0  0  0  0  0  0  0  0  0
    0.9612   -1.0541    1.2233 H   0  0  0  0  0  0  0  0  0  0  0  0
    1.7700   -2.6205    1.3809 H   0  0  0  0  0  0  0  0  0  0  0  0
    3.8660   -2.0913    2.2630 H   0  0  0  0  0  0  0  0  0  0  0  0
  1  2  1  0
  2  3  1  0
  3  4  2  0
  4  5  1  0
  5  6  2  0
  6  7  1  0
  7  8  2  0
  7  9  1  0
  9 10  1  0
 10 11  1  0
 11 12  1  0
 12 13  1  0
 13 14  1  0
 14 15  1  0
 15 16  2  0
 16 17  1  0
 17 18  2  0
 18 19  1  0
 19 20  1  0
 20 21  2  0
 21 22  1  0
 22 23  2  0
 23 24  1  0
 24 25  2  0
 13 26  1  0
  6 27  1  0
 27 28  1  0
 27 29  2  0
 29  3  1  0
 26  9  1  0
 19 15  1  0
 25 20  1  0
  1 30  1  0
  1 31  1  0
  1 32  1  0
  4 33  1  0
  5 34  1  0
  9 35  1  0
 10 36  1  0
 10 37  1  0
 11 38  1  0
 11 39  1  0
 12 40  1  0
 12 41  1  0
 14 42  1  0
 14 43  1  0
 16 44  1  0
 17 45  1  0
 18 46  1  0
 21 47  1  0
 22 48  1  0
 23 49  1  0
 24 50  1  0
 26 51  1  0
 26 52  1  0
 28 53  1  0
 28 54  1  0
 28 55  1  0
 29 56  1  0
M  END
$$$$
