
     RDKit          3D

 46 49  0  0  0  0  0  0  0  0999 V2000
   -6.1459    0.9041    1.6276 C   0  0  0  0  0  0  0  0  0  0  0  0
   -4.7407    0.8410    1.8300 O   0  0  0  0  0  0  0  0  0  0  0  0
   -3.9780    0.4106    0.7787 C   0  0  0  0  0  0  0  0  0  0  0  0
   -4.4521    0.0564   -0.4826 C   0  0  0  0  0  0  0  0  0  0  0  0
   -3.5611   -0.3498   -1.4817 C   0  0  0  0  0  0  0  0  0  0  0  0
   -2.1899   -0.4110   -1.2205 C   0  0  0  0  0  0  0  0  0  0  0  0
   -1.2298   -0.7911   -2.1314 O   0  0  0  0  0  0  0  0  0  0  0  0
   -1.6737   -1.1136   -3.4432 C   0  0  0  0  0  0  0  0  0  0  0  0
   -1.6969   -0.0803    0.0630 C   0  0  0  0  0  0  0  0  0  0  0  0
   -0.3001   -0.1117    0.2718 N   0  0  0  0  0  0  0  0  0  0  0  0
    0.4695   -0.2946    1.4527 C   0  0  0  0  0  0  0  0  0  0  0  0
   -0.1550   -0.4368    2.6508 N   0  0  0  0  0  0  0  0  0  0  0  0
    0.7274   -0.6243    3.6663 C   0  0  0  0  0  0  0  0  0  0  0  0
    0.4289   -0.7992    4.9537 N   0  0  0  0  0  0  0  0  0  0  0  0
    1.6626   -0.9481    5.5861 O   0  0  0  0  0  0  0  0  0  0  0  0
    2.7270   -0.8659    4.6887 N   0  0  0  0  0  0  0  0  0  0  0  0
    2.1524   -0.6629    3.5028 C   0  0  0  0  0  0  0  0  0  0  0  0
    2.7934   -0.5098    2.3132 N   0  0  0  0  0  0  0  0  0  0  0  0
    1.9200   -0.3086    1.2889 C   0  0  0  0  0  0  0  0  0  0  0  0
    2.4560   -0.1235   -0.0256 N   0  0  0  0  0  0  0  0  0  0  0  0
    3.7897   -0.7171   -0.1822 C   0  0  0  0  0  0  0  0  0  0  0  0
    4.1589   -0.7184   -1.6677 C   0  0  0  0  0  0  0  0  0  0  0  0
    3.8033    0.5917   -2.3748 C   0  0  0  0  0  0  0  0  0  0  0  0
    3.4898    1.7042   -1.3827 C   0  0  0  0  0  0  0  0  0  0  0  0
    2.3650    1.3017   -0.4222 C   0  0  0  0  0  0  0  0  0  0  0  0
   -2.6050    0.3461    1.0395 C   0  0  0  0  0  0  0  0  0  0  0  0
   -6.5593   -0.0853    1.4036 H   0  0  0  0  0  0  0  0  0  0  0  0
   -6.6030    1.2521    2.5590 H   0  0  0  0  0  0  0  0  0  0  0  0
   -6.3993    1.6252    0.8434 H   0  0  0  0  0  0  0  0  0  0  0  0
   -5.5087    0.0914   -0.7257 H   0  0  0  0  0  0  0  0  0  0  0  0
   -3.9721   -0.6101   -2.4509 H   0  0  0  0  0  0  0  0  0  0  0  0
   -0.7931   -1.3729   -4.0384 H   0  0  0  0  0  0  0  0  0  0  0  0
   -2.3368   -1.9849   -3.4321 H   0  0  0  0  0  0  0  0  0  0  0  0
   -2.1554   -0.2539   -3.9204 H   0  0  0  0  0  0  0  0  0  0  0  0
    0.1800   -0.5493   -0.5180 H   0  0  0  0  0  0  0  0  0  0  0  0
    4.5430   -0.1582    0.3890 H   0  0  0  0  0  0  0  0  0  0  0  0
    3.8042   -1.7552    0.1747 H   0  0  0  0  0  0  0  0  0  0  0  0
    5.2320   -0.9188   -1.7678 H   0  0  0  0  0  0  0  0  0  0  0  0
    3.6441   -1.5420   -2.1775 H   0  0  0  0  0  0  0  0  0  0  0  0
    2.9294    0.4292   -3.0171 H   0  0  0  0  0  0  0  0  0  0  0  0
    4.6229    0.8924   -3.0360 H   0  0  0  0  0  0  0  0  0  0  0  0
    3.2107    2.6211   -1.9141 H   0  0  0  0  0  0  0  0  0  0  0  0
    4.3951    1.9403   -0.8097 H   0  0  0  0  0  0  0  0  0  0  0  0
    1.4085    1.4680   -0.9298 H   0  0  0  0  0  0  0  0  0  0  0  0
    2.3974    1.9738    0.4456 H   0  0  0  0  0  0  0  0  0  0  0  0
   -2.2552    0.6480    2.0227 H   0  0  0  0  0  0  0  0  0  0  0  0
  1  2  1  0
  2  3  1  0
  3  4  2  0
  4  5  1  0
  5  6  2  0
  6  7  1  0
  7  8  1  0
  6  9  1  0
  9 10  1  0
 10 11  1  0
 11 12  2  0
 12 13  1  0
 13 14  2  0
 14 15  1  0
 15 16  1  0
 16 17  2  0
 17 18  1  0
 18 19  2  0
 19 20  1  0
 20 21  1  0
 21 22  1  0
 22 23  1  0
 23 24  1  0
 24 25  1  0
  9 26  2  0
 26  3  1  0
 19 11  1  0
 25 20  1  0
 17 13  1  0
  1 27  1  0
  1 28  1  0
  1 29  1  0
  4 30  1  0
  5 31  1  0
  8 32  1  0
  8 33  1  0
  8 34  1  0
 10 35  1  0
 21 36  1  0
 21 37  1  0
 22 38  1  0
 22 39  1  0
 23 40  1  0
 23 41  1  0
 24 42  1  0
 24 43  1  0
 25 44  1  0
 25 45  1  0
 26 46  1  0
M  END
$$$$
