
     RDKit          3D

 44 46  0  0  0  0  0  0  0  0999 V2000
    2.9056    2.6555   -2.3076 C   0  0  0  0  0  0  0  0  0  0  0  0
    3.0737    1.2558   -1.9277 N   0  0  0  0  0  0  0  0  0  0  0  0
    3.0559    1.1106   -0.4550 C   0  0  0  0  0  0  0  0  0  0  0  0
    2.6465   -0.2932    0.0209 C   0  0  0  0  0  0  0  0  0  0  0  0
    1.3108   -0.6533   -0.4564 N   0  0  0  0  0  0  0  0  0  0  0  0
    0.5898   -1.6031    0.2507 C   0  0  0  0  0  0  0  0  0  0  0  0
    1.0402   -2.2354    1.2024 O   0  0  0  0  0  0  0  0  0  0  0  0
   -0.7965   -1.8927   -0.1671 C   0  0  0  0  0  0  0  0  0  0  0  0
   -1.0055   -3.0992   -0.8525 C   0  0  0  0  0  0  0  0  0  0  0  0
   -2.2871   -3.4501   -1.2682 C   0  0  0  0  0  0  0  0  0  0  0  0
   -3.3586   -2.6062   -0.9888 C   0  0  0  0  0  0  0  0  0  0  0  0
   -3.1514   -1.4135   -0.2876 C   0  0  0  0  0  0  0  0  0  0  0  0
   -1.8671   -1.0305    0.1475 C   0  0  0  0  0  0  0  0  0  0  0  0
   -1.7057    0.2388    0.8883 C   0  0  0  0  0  0  0  0  0  0  0  0
   -1.9590    1.4424    0.1915 C   0  0  0  0  0  0  0  0  0  0  0  0
   -1.7862    2.6922    0.7905 C   0  0  0  0  0  0  0  0  0  0  0  0
   -1.3569    2.7739    2.1082 C   0  0  0  0  0  0  0  0  0  0  0  0
   -1.1170    1.6051    2.8280 C   0  0  0  0  0  0  0  0  0  0  0  0
   -1.3024    0.3390    2.2390 C   0  0  0  0  0  0  0  0  0  0  0  0
   -1.0488   -0.8149    3.1399 C   0  0  0  0  0  0  0  0  0  0  0  0
   -0.3241   -0.7931    4.1194 O   0  0  0  0  0  0  0  0  0  0  0  0
   -1.7754   -1.9016    2.8373 O   0  0  0  0  0  0  0  0  0  0  0  0
    0.8881   -0.0354   -1.7179 C   0  0  0  0  0  0  0  0  0  0  0  0
    2.0885    0.3786   -2.5909 C   0  0  0  0  0  0  0  0  0  0  0  0
    1.9176    3.0419   -2.0328 H   0  0  0  0  0  0  0  0  0  0  0  0
    3.0354    2.7784   -3.3885 H   0  0  0  0  0  0  0  0  0  0  0  0
    3.6678    3.2797   -1.8278 H   0  0  0  0  0  0  0  0  0  0  0  0
    4.0519    1.3497   -0.0656 H   0  0  0  0  0  0  0  0  0  0  0  0
    2.3518    1.8283   -0.0112 H   0  0  0  0  0  0  0  0  0  0  0  0
    2.6688   -0.3381    1.1156 H   0  0  0  0  0  0  0  0  0  0  0  0
    3.3464   -1.0488   -0.3558 H   0  0  0  0  0  0  0  0  0  0  0  0
   -0.1675   -3.7633   -1.0523 H   0  0  0  0  0  0  0  0  0  0  0  0
   -2.4517   -4.3852   -1.7976 H   0  0  0  0  0  0  0  0  0  0  0  0
   -4.3631   -2.8819   -1.3014 H   0  0  0  0  0  0  0  0  0  0  0  0
   -4.0117   -0.7857   -0.0600 H   0  0  0  0  0  0  0  0  0  0  0  0
   -2.2822    1.4084   -0.8484 H   0  0  0  0  0  0  0  0  0  0  0  0
   -1.9821    3.5992    0.2239 H   0  0  0  0  0  0  0  0  0  0  0  0
   -1.2144    3.7427    2.5804 H   0  0  0  0  0  0  0  0  0  0  0  0
   -0.7903    1.6801    3.8647 H   0  0  0  0  0  0  0  0  0  0  0  0
   -1.4303   -2.5851    3.4486 H   0  0  0  0  0  0  0  0  0  0  0  0
    0.2472   -0.7239   -2.2766 H   0  0  0  0  0  0  0  0  0  0  0  0
    0.2966    0.8505   -1.4674 H   0  0  0  0  0  0  0  0  0  0  0  0
    2.6241   -0.5351   -2.8806 H   0  0  0  0  0  0  0  0  0  0  0  0
    1.7284    0.8184   -3.5291 H   0  0  0  0  0  0  0  0  0  0  0  0
  1  2  1  0
  2  3  1  0
  3  4  1  0
  4  5  1  0
  5  6  1  0
  6  7  2  0
  6  8  1  0
  8  9  2  0
  9 10  1  0
 10 11  2  0
 11 12  1  0
 12 13  2  0
 13 14  1  0
 14 15  2  0
 15 16  1  0
 16 17  2  0
 17 18  1  0
 18 19  2  0
 19 20  1  0
 20 21  2  0
 20 22  1  0
  5 23  1  0
 23 24  1  0
 24  2  1  0
 13  8  1  0
 19 14  1  0
  1 25  1  0
  1 26  1  0
  1 27  1  0
  3 28  1  0
  3 29  1  0
  4 30  1  0
  4 31  1  0
  9 32  1  0
 10 33  1  0
 11 34  1  0
 12 35  1  0
 15 36  1  0
 16 37  1  0
 17 38  1  0
 18 39  1  0
 22 40  1  0
 23 41  1  0
 23 42  1  0
 24 43  1  0
 24 44  1  0
M  END
$$$$
