
     RDKit          3D

 67 71  0  0  0  0  0  0  0  0999 V2000
    7.9633   -2.0795    0.7139 O   0  0  0  0  0  0  0  0  0  0  0  0
    8.4683   -1.0330    1.0872 C   0  0  0  0  0  0  0  0  0  0  0  0
    9.9490   -0.7566    1.1900 C   0  0  0  0  0  0  0  0  0  0  0  0
   10.0059    0.5864    1.9091 C   0  0  0  0  0  0  0  0  0  0  0  0
    8.6965    1.2523    1.5325 C   0  0  0  0  0  0  0  0  0  0  0  0
    7.7916    0.1386    1.4138 N   0  0  0  0  0  0  0  0  0  0  0  0
    6.3736    0.3060    1.1474 C   0  0  0  0  0  0  0  0  0  0  0  0
    6.1000    0.5860   -0.3315 C   0  0  0  0  0  0  0  0  0  0  0  0
    4.6394    0.3497   -0.7053 C   0  0  0  0  0  0  0  0  0  0  0  0
    4.3160   -1.0636   -0.6203 N   0  0  0  0  0  0  0  0  0  0  0  0
    3.0956   -1.5806   -0.9880 C   0  0  0  0  0  0  0  0  0  0  0  0
    2.9669   -3.0762   -1.0368 C   0  0  0  0  0  0  0  0  0  0  0  0
    1.8108   -3.6159   -1.4378 C   0  0  0  0  0  0  0  0  0  0  0  0
    0.7518   -2.7611   -1.7897 C   0  0  0  0  0  0  0  0  0  0  0  0
   -0.4561   -2.9867   -2.2554 N   0  0  0  0  0  0  0  0  0  0  0  0
   -1.0721   -1.7675   -2.4182 N   0  0  0  0  0  0  0  0  0  0  0  0
   -0.2295   -0.8257   -2.0343 C   0  0  0  0  0  0  0  0  0  0  0  0
   -0.4643    0.6457   -2.0238 C   0  0  0  0  0  0  0  0  0  0  0  0
   -1.9487    0.9911   -1.8863 C   0  0  0  0  0  0  0  0  0  0  0  0
   -2.4716    0.7631   -0.4747 C   0  0  0  0  0  0  0  0  0  0  0  0
   -1.7053    0.5339    0.4615 O   0  0  0  0  0  0  0  0  0  0  0  0
   -3.8398    0.8898   -0.2815 N   0  0  0  0  0  0  0  0  0  0  0  0
   -4.3793    0.7519    1.0778 C   0  0  0  0  0  0  0  0  0  0  0  0
   -5.6144    1.6380    1.3036 C   0  0  0  0  0  0  0  0  0  0  0  0
   -6.6946    1.3554    0.3327 N   0  0  0  0  0  0  0  0  0  0  0  0
   -7.8748    0.7531    0.7937 C   0  0  0  0  0  0  0  0  0  0  0  0
   -7.9220   -0.1290    1.8817 C   0  0  0  0  0  0  0  0  0  0  0  0
   -9.1270   -0.7085    2.2950 C   0  0  0  0  0  0  0  0  0  0  0  0
  -10.3114   -0.4145    1.6270 C   0  0  0  0  0  0  0  0  0  0  0  0
  -10.2888    0.4514    0.5385 C   0  0  0  0  0  0  0  0  0  0  0  0
   -9.0812    1.0222    0.1265 C   0  0  0  0  0  0  0  0  0  0  0  0
   -6.2546    0.7950   -0.9685 C   0  0  0  0  0  0  0  0  0  0  0  0
   -4.8185    1.2229   -1.3278 C   0  0  0  0  0  0  0  0  0  0  0  0
    0.9597   -1.4055   -1.6570 N   0  0  0  0  0  0  0  0  0  0  0  0
    2.1108   -0.7718   -1.2797 N   0  0  0  0  0  0  0  0  0  0  0  0
   10.3640   -0.6849    0.1798 H   0  0  0  0  0  0  0  0  0  0  0  0
   10.4572   -1.5418    1.7551 H   0  0  0  0  0  0  0  0  0  0  0  0
   10.8809    1.1814    1.6333 H   0  0  0  0  0  0  0  0  0  0  0  0
   10.0407    0.4187    2.9929 H   0  0  0  0  0  0  0  0  0  0  0  0
    8.7674    1.7571    0.5626 H   0  0  0  0  0  0  0  0  0  0  0  0
    8.3478    1.9528    2.2963 H   0  0  0  0  0  0  0  0  0  0  0  0
    5.9922    1.1151    1.7795 H   0  0  0  0  0  0  0  0  0  0  0  0
    5.8801   -0.6204    1.4611 H   0  0  0  0  0  0  0  0  0  0  0  0
    6.3693    1.6257   -0.5541 H   0  0  0  0  0  0  0  0  0  0  0  0
    6.7403   -0.0409   -0.9654 H   0  0  0  0  0  0  0  0  0  0  0  0
    3.9809    0.9296   -0.0482 H   0  0  0  0  0  0  0  0  0  0  0  0
    4.4810    0.6959   -1.7332 H   0  0  0  0  0  0  0  0  0  0  0  0
    5.1113   -1.7001   -0.6078 H   0  0  0  0  0  0  0  0  0  0  0  0
    3.8156   -3.6799   -0.7449 H   0  0  0  0  0  0  0  0  0  0  0  0
    1.6657   -4.6876   -1.4951 H   0  0  0  0  0  0  0  0  0  0  0  0
   -0.0964    1.0521   -2.9741 H   0  0  0  0  0  0  0  0  0  0  0  0
    0.1149    1.1251   -1.2258 H   0  0  0  0  0  0  0  0  0  0  0  0
   -2.5277    0.4031   -2.6047 H   0  0  0  0  0  0  0  0  0  0  0  0
   -2.0896    2.0543   -2.1156 H   0  0  0  0  0  0  0  0  0  0  0  0
   -3.6111    1.0024    1.8174 H   0  0  0  0  0  0  0  0  0  0  0  0
   -4.6378   -0.3056    1.2105 H   0  0  0  0  0  0  0  0  0  0  0  0
   -5.9514    1.5705    2.3445 H   0  0  0  0  0  0  0  0  0  0  0  0
   -5.3214    2.6860    1.1579 H   0  0  0  0  0  0  0  0  0  0  0  0
   -7.0181   -0.4074    2.4122 H   0  0  0  0  0  0  0  0  0  0  0  0
   -9.1340   -1.3924    3.1393 H   0  0  0  0  0  0  0  0  0  0  0  0
  -11.2476   -0.8595    1.9528 H   0  0  0  0  0  0  0  0  0  0  0  0
  -11.2084    0.6914    0.0130 H   0  0  0  0  0  0  0  0  0  0  0  0
   -9.0847    1.7116   -0.7148 H   0  0  0  0  0  0  0  0  0  0  0  0
   -6.9288    1.1281   -1.7672 H   0  0  0  0  0  0  0  0  0  0  0  0
   -6.2880   -0.3031   -0.9346 H   0  0  0  0  0  0  0  0  0  0  0  0
   -4.7731    2.3100   -1.4647 H   0  0  0  0  0  0  0  0  0  0  0  0
   -4.5361    0.7559   -2.2742 H   0  0  0  0  0  0  0  0  0  0  0  0
  1  2  2  0
  2  3  1  0
  3  4  1  0
  4  5  1  0
  5  6  1  0
  6  7  1  0
  7  8  1  0
  8  9  1  0
  9 10  1  0
 10 11  1  0
 11 12  1  0
 12 13  2  0
 13 14  1  0
 14 15  2  0
 15 16  1  0
 16 17  2  0
 17 18  1  0
 18 19  1  0
 19 20  1  0
 20 21  2  0
 20 22  1  0
 22 23  1  0
 23 24  1  0
 24 25  1  0
 25 26  1  0
 26 27  2  0
 27 28  1  0
 28 29  2  0
 29 30  1  0
 30 31  2  0
 25 32  1  0
 32 33  1  0
 17 34  1  0
 34 35  1  0
  6  2  1  0
 35 11  2  0
 34 14  1  0
 33 22  1  0
 31 26  1  0
  3 36  1  0
  3 37  1  0
  4 38  1  0
  4 39  1  0
  5 40  1  0
  5 41  1  0
  7 42  1  0
  7 43  1  0
  8 44  1  0
  8 45  1  0
  9 46  1  0
  9 47  1  0
 10 48  1  0
 12 49  1  0
 13 50  1  0
 18 51  1  0
 18 52  1  0
 19 53  1  0
 19 54  1  0
 23 55  1  0
 23 56  1  0
 24 57  1  0
 24 58  1  0
 27 59  1  0
 28 60  1  0
 29 61  1  0
 30 62  1  0
 31 63  1  0
 32 64  1  0
 32 65  1  0
 33 66  1  0
 33 67  1  0
M  END
$$$$
