
     RDKit          3D

 46 48  0  0  0  0  0  0  0  0999 V2000
   -3.0807    2.9960   -1.8699 C   0  0  0  0  0  0  0  0  0  0  0  0
   -2.2349    4.1275   -1.3153 C   0  0  0  0  0  0  0  0  0  0  0  0
   -1.0698    3.5962   -0.6696 O   0  0  0  0  0  0  0  0  0  0  0  0
   -1.2369    3.2610    0.6287 C   0  0  0  0  0  0  0  0  0  0  0  0
   -2.2364    3.3744    1.3110 O   0  0  0  0  0  0  0  0  0  0  0  0
    0.0569    2.6834    1.1431 C   0  0  0  0  0  0  0  0  0  0  0  0
    0.6346    3.0991    2.2294 N   0  0  0  0  0  0  0  0  0  0  0  0
    1.7990    2.3875    2.3475 N   0  0  0  0  0  0  0  0  0  0  0  0
    1.9715    1.3980    1.2762 C   0  0  0  0  0  0  0  0  0  0  0  0
    2.2569    0.0174    1.8777 C   0  0  0  0  0  0  0  0  0  0  0  0
    2.1863   -0.1955    3.0894 O   0  0  0  0  0  0  0  0  0  0  0  0
    2.6446   -1.1018    0.9683 C   0  0  0  0  0  0  0  0  0  0  0  0
    2.4312   -2.4144    1.4099 C   0  0  0  0  0  0  0  0  0  0  0  0
    2.7576   -3.4955    0.5904 C   0  0  0  0  0  0  0  0  0  0  0  0
    3.3064   -3.2721   -0.6707 C   0  0  0  0  0  0  0  0  0  0  0  0
    3.5325   -1.9691   -1.1125 C   0  0  0  0  0  0  0  0  0  0  0  0
    3.2045   -0.8828   -0.2966 C   0  0  0  0  0  0  0  0  0  0  0  0
    0.7188    1.5562    0.4016 C   0  0  0  0  0  0  0  0  0  0  0  0
   -0.1899    0.3600    0.2300 C   0  0  0  0  0  0  0  0  0  0  0  0
   -0.3451   -0.2208   -1.0370 C   0  0  0  0  0  0  0  0  0  0  0  0
   -1.1668   -1.3391   -1.2191 C   0  0  0  0  0  0  0  0  0  0  0  0
   -1.8497   -1.8925   -0.1379 C   0  0  0  0  0  0  0  0  0  0  0  0
   -2.6768   -2.9803   -0.1783 O   0  0  0  0  0  0  0  0  0  0  0  0
   -2.8504   -3.6111   -1.4403 C   0  0  0  0  0  0  0  0  0  0  0  0
   -1.7056   -1.3146    1.1237 C   0  0  0  0  0  0  0  0  0  0  0  0
   -0.8861   -0.1994    1.3106 C   0  0  0  0  0  0  0  0  0  0  0  0
   -3.4407    2.3447   -1.0671 H   0  0  0  0  0  0  0  0  0  0  0  0
   -2.4891    2.3698   -2.5459 H   0  0  0  0  0  0  0  0  0  0  0  0
   -3.9435    3.3879   -2.4157 H   0  0  0  0  0  0  0  0  0  0  0  0
   -1.8855    4.7626   -2.1358 H   0  0  0  0  0  0  0  0  0  0  0  0
   -2.8133    4.7657   -0.6372 H   0  0  0  0  0  0  0  0  0  0  0  0
    2.0387    2.1185    3.3073 H   0  0  0  0  0  0  0  0  0  0  0  0
    2.8678    1.7360    0.7443 H   0  0  0  0  0  0  0  0  0  0  0  0
    1.9982   -2.6001    2.3915 H   0  0  0  0  0  0  0  0  0  0  0  0
    2.5820   -4.5107    0.9381 H   0  0  0  0  0  0  0  0  0  0  0  0
    3.5630   -4.1158   -1.3070 H   0  0  0  0  0  0  0  0  0  0  0  0
    3.9708   -1.8011   -2.0936 H   0  0  0  0  0  0  0  0  0  0  0  0
    3.4101    0.1149   -0.6699 H   0  0  0  0  0  0  0  0  0  0  0  0
    1.0182    1.9422   -0.5813 H   0  0  0  0  0  0  0  0  0  0  0  0
    0.1759    0.1858   -1.9017 H   0  0  0  0  0  0  0  0  0  0  0  0
   -1.2492   -1.7542   -2.2181 H   0  0  0  0  0  0  0  0  0  0  0  0
   -3.3113   -2.9290   -2.1624 H   0  0  0  0  0  0  0  0  0  0  0  0
   -3.5304   -4.4570   -1.3007 H   0  0  0  0  0  0  0  0  0  0  0  0
   -1.9015   -4.0057   -1.8184 H   0  0  0  0  0  0  0  0  0  0  0  0
   -2.2357   -1.7382    1.9741 H   0  0  0  0  0  0  0  0  0  0  0  0
   -0.7960    0.2159    2.3149 H   0  0  0  0  0  0  0  0  0  0  0  0
  1  2  1  0
  2  3  1  0
  3  4  1  0
  4  5  2  0
  4  6  1  0
  6  7  2  0
  7  8  1  0
  8  9  1  0
  9 10  1  0
 10 11  2  0
 10 12  1  0
 12 13  2  0
 13 14  1  0
 14 15  2  0
 15 16  1  0
 16 17  2  0
  9 18  1  0
 18 19  1  0
 19 20  2  0
 20 21  1  0
 21 22  2  0
 22 23  1  0
 23 24  1  0
 22 25  1  0
 25 26  2  0
 18  6  1  0
 26 19  1  0
 17 12  1  0
  1 27  1  0
  1 28  1  0
  1 29  1  0
  2 30  1  0
  2 31  1  0
  8 32  1  0
  9 33  1  0
 13 34  1  0
 14 35  1  0
 15 36  1  0
 16 37  1  0
 17 38  1  0
 18 39  1  0
 20 40  1  0
 21 41  1  0
 24 42  1  0
 24 43  1  0
 24 44  1  0
 25 45  1  0
 26 46  1  0
M  END
$$$$
