
     RDKit          3D

 51 53  0  0  0  0  0  0  0  0999 V2000
    1.9898    0.1965   -0.8378 O   0  0  0  0  0  0  0  0  0  0  0  0
    1.8005   -0.4013    0.2152 C   0  0  0  0  0  0  0  0  0  0  0  0
    2.8155   -1.0625    0.8755 N   0  0  0  0  0  0  0  0  0  0  0  0
    4.1689   -1.1239    0.3484 C   0  0  0  0  0  0  0  0  0  0  0  0
    5.0424    0.0573    0.7862 C   0  0  0  0  0  0  0  0  0  0  0  0
    4.8036    1.3468    0.0120 C   0  0  0  0  0  0  0  0  0  0  0  0
    6.1388    2.0342    0.1442 C   0  0  0  0  0  0  0  0  0  0  0  0
    7.0967    0.8674    0.0279 C   0  0  0  0  0  0  0  0  0  0  0  0
    6.4367   -0.2690    0.6057 O   0  0  0  0  0  0  0  0  0  0  0  0
    0.4596   -0.4077    0.9546 C   0  0  0  0  0  0  0  0  0  0  0  0
   -0.0217   -1.8165    1.3393 C   0  0  0  0  0  0  0  0  0  0  0  0
   -0.5820   -2.5736    0.1371 C   0  0  0  0  0  0  0  0  0  0  0  0
   -1.7007   -1.7814   -0.5279 C   0  0  0  0  0  0  0  0  0  0  0  0
   -1.1833   -0.4589   -0.9414 N   0  0  0  0  0  0  0  0  0  0  0  0
   -2.0910    0.3807   -2.1194 S   0  0  0  0  0  6  0  0  0  0  0  0
   -1.4164    1.6198   -2.4448 O   0  0  0  0  0  0  0  0  0  0  0  0
   -2.4781   -0.5594   -3.1529 O   0  0  0  0  0  0  0  0  0  0  0  0
   -3.5802    0.8181   -1.2334 C   0  0  0  0  0  0  0  0  0  0  0  0
   -3.6588    2.0537   -0.5817 C   0  0  0  0  0  0  0  0  0  0  0  0
   -4.8295    2.4034    0.0900 C   0  0  0  0  0  0  0  0  0  0  0  0
   -5.9211    1.5289    0.0954 C   0  0  0  0  0  0  0  0  0  0  0  0
   -5.8623    0.2985   -0.5829 C   0  0  0  0  0  0  0  0  0  0  0  0
   -7.0371   -0.6501   -0.5563 C   0  0  0  0  0  0  0  0  0  0  0  0
   -8.2349   -0.0185   -0.4099 F   0  0  0  0  0  0  0  0  0  0  0  0
   -6.9507   -1.5355    0.4750 F   0  0  0  0  0  0  0  0  0  0  0  0
   -7.1447   -1.4011   -1.6864 F   0  0  0  0  0  0  0  0  0  0  0  0
   -4.6783   -0.0516   -1.2527 C   0  0  0  0  0  0  0  0  0  0  0  0
   -0.6245    0.3539    0.1749 C   0  0  0  0  0  0  0  0  0  0  0  0
    2.6655   -1.4067    1.8147 H   0  0  0  0  0  0  0  0  0  0  0  0
    4.6030   -2.0615    0.7133 H   0  0  0  0  0  0  0  0  0  0  0  0
    4.1371   -1.1956   -0.7461 H   0  0  0  0  0  0  0  0  0  0  0  0
    4.9076    0.2364    1.8617 H   0  0  0  0  0  0  0  0  0  0  0  0
    3.9740    1.9372    0.4089 H   0  0  0  0  0  0  0  0  0  0  0  0
    4.6051    1.1415   -1.0470 H   0  0  0  0  0  0  0  0  0  0  0  0
    6.2256    2.4917    1.1380 H   0  0  0  0  0  0  0  0  0  0  0  0
    6.3117    2.8064   -0.6104 H   0  0  0  0  0  0  0  0  0  0  0  0
    7.3099    0.6317   -1.0218 H   0  0  0  0  0  0  0  0  0  0  0  0
    8.0430    1.0462    0.5463 H   0  0  0  0  0  0  0  0  0  0  0  0
    0.6492    0.1527    1.8830 H   0  0  0  0  0  0  0  0  0  0  0  0
    0.7740   -2.4114    1.7997 H   0  0  0  0  0  0  0  0  0  0  0  0
   -0.8111   -1.7234    2.0984 H   0  0  0  0  0  0  0  0  0  0  0  0
   -0.9650   -3.5485    0.4638 H   0  0  0  0  0  0  0  0  0  0  0  0
    0.2205   -2.7663   -0.5865 H   0  0  0  0  0  0  0  0  0  0  0  0
   -2.0535   -2.3489   -1.3963 H   0  0  0  0  0  0  0  0  0  0  0  0
   -2.5387   -1.6584    0.1684 H   0  0  0  0  0  0  0  0  0  0  0  0
   -2.8191    2.7464   -0.5988 H   0  0  0  0  0  0  0  0  0  0  0  0
   -4.8966    3.3618    0.6040 H   0  0  0  0  0  0  0  0  0  0  0  0
   -6.8287    1.8189    0.6256 H   0  0  0  0  0  0  0  0  0  0  0  0
   -4.6170   -0.9982   -1.7911 H   0  0  0  0  0  0  0  0  0  0  0  0
   -0.2141    1.2948   -0.2085 H   0  0  0  0  0  0  0  0  0  0  0  0
   -1.4392    0.6049    0.8659 H   0  0  0  0  0  0  0  0  0  0  0  0
  1  2  2  0
  2  3  1  0
  3  4  1  0
  4  5  1  0
  5  6  1  0
  6  7  1  0
  7  8  1  0
  8  9  1  0
  2 10  1  0
 10 11  1  0
 11 12  1  0
 12 13  1  0
 13 14  1  0
 14 15  1  0
 15 16  2  0
 15 17  2  0
 15 18  1  0
 18 19  2  0
 19 20  1  0
 20 21  2  0
 21 22  1  0
 22 23  1  0
 23 24  1  0
 23 25  1  0
 23 26  1  0
 22 27  2  0
 14 28  1  0
  9  5  1  0
 28 10  1  0
 27 18  1  0
  3 29  1  0
  4 30  1  0
  4 31  1  0
  5 32  1  0
  6 33  1  0
  6 34  1  0
  7 35  1  0
  7 36  1  0
  8 37  1  0
  8 38  1  0
 10 39  1  0
 11 40  1  0
 11 41  1  0
 12 42  1  0
 12 43  1  0
 13 44  1  0
 13 45  1  0
 19 46  1  0
 20 47  1  0
 21 48  1  0
 27 49  1  0
 28 50  1  0
 28 51  1  0
M  END
$$$$
