
     RDKit          3D

 37 38  0  0  0  0  0  0  0  0999 V2000
    5.3911    1.3520   -1.1870 C   0  0  0  0  0  0  0  0  0  0  0  0
    4.0248    1.2433   -0.8105 O   0  0  0  0  0  0  0  0  0  0  0  0
    3.6246    0.0789   -0.2056 C   0  0  0  0  0  0  0  0  0  0  0  0
    4.4802   -0.9709    0.1411 C   0  0  0  0  0  0  0  0  0  0  0  0
    3.9761   -2.1205    0.7524 C   0  0  0  0  0  0  0  0  0  0  0  0
    2.6110   -2.2354    1.0105 C   0  0  0  0  0  0  0  0  0  0  0  0
    1.7305   -1.2002    0.6620 C   0  0  0  0  0  0  0  0  0  0  0  0
    0.2910   -1.4195    0.9640 C   0  0  0  0  0  0  0  0  0  0  0  0
   -0.0840   -2.2095    1.8200 O   0  0  0  0  0  0  0  0  0  0  0  0
   -0.4736   -0.6645    0.1293 O   0  0  0  0  0  0  0  0  0  0  0  0
   -1.8421   -0.8461    0.3986 N   0  0  0  0  0  0  0  0  0  0  0  0
   -2.5544    0.0305   -0.2467 C   0  0  0  0  0  0  0  0  0  0  0  0
   -1.9983    1.0021   -1.0515 N   0  0  0  0  0  0  0  0  0  0  0  0
   -4.0429   -0.0311   -0.1028 C   0  0  0  0  0  0  0  0  0  0  0  0
   -4.6418   -1.1749    0.4259 C   0  0  0  0  0  0  0  0  0  0  0  0
   -6.0196   -1.1951    0.5388 C   0  0  0  0  0  0  0  0  0  0  0  0
   -6.8178   -0.1702    0.1684 N   0  0  0  0  0  0  0  0  0  0  0  0
   -6.2103    0.9295   -0.3253 C   0  0  0  0  0  0  0  0  0  0  0  0
   -4.8405    1.0491   -0.4805 C   0  0  0  0  0  0  0  0  0  0  0  0
    2.2483   -0.0296    0.0807 C   0  0  0  0  0  0  0  0  0  0  0  0
    1.4186    1.0119   -0.2702 O   0  0  0  0  0  0  0  0  0  0  0  0
    1.3769    1.9827    0.7792 C   0  0  0  0  0  0  0  0  0  0  0  0
    6.0431    1.3426   -0.3075 H   0  0  0  0  0  0  0  0  0  0  0  0
    5.5238    2.3156   -1.6882 H   0  0  0  0  0  0  0  0  0  0  0  0
    5.6705    0.5665   -1.8970 H   0  0  0  0  0  0  0  0  0  0  0  0
    5.5480   -0.9261   -0.0477 H   0  0  0  0  0  0  0  0  0  0  0  0
    4.6481   -2.9316    1.0242 H   0  0  0  0  0  0  0  0  0  0  0  0
    2.2317   -3.1417    1.4814 H   0  0  0  0  0  0  0  0  0  0  0  0
   -1.0016    0.8413   -1.1904 H   0  0  0  0  0  0  0  0  0  0  0  0
   -2.4699    1.1464   -1.9371 H   0  0  0  0  0  0  0  0  0  0  0  0
   -4.0542   -2.0302    0.7427 H   0  0  0  0  0  0  0  0  0  0  0  0
   -6.5342   -2.0622    0.9431 H   0  0  0  0  0  0  0  0  0  0  0  0
   -6.8779    1.7422   -0.5976 H   0  0  0  0  0  0  0  0  0  0  0  0
   -4.4186    1.9702   -0.8632 H   0  0  0  0  0  0  0  0  0  0  0  0
    1.0194    1.5398    1.7153 H   0  0  0  0  0  0  0  0  0  0  0  0
    0.6694    2.7628    0.4827 H   0  0  0  0  0  0  0  0  0  0  0  0
    2.3547    2.4517    0.9303 H   0  0  0  0  0  0  0  0  0  0  0  0
  1  2  1  0
  2  3  1  0
  3  4  2  0
  4  5  1  0
  5  6  2  0
  6  7  1  0
  7  8  1  0
  8  9  2  0
  8 10  1  0
 10 11  1  0
 11 12  2  3
 12 13  1  0
 12 14  1  0
 14 15  2  0
 15 16  1  0
 16 17  2  0
 17 18  1  0
 18 19  2  0
  7 20  2  0
 20 21  1  0
 21 22  1  0
 20  3  1  0
 19 14  1  0
  1 23  1  0
  1 24  1  0
  1 25  1  0
  4 26  1  0
  5 27  1  0
  6 28  1  0
 13 29  1  0
 13 30  1  0
 15 31  1  0
 16 32  1  0
 18 33  1  0
 19 34  1  0
 22 35  1  0
 22 36  1  0
 22 37  1  0
M  END
$$$$
