
     RDKit          3D

 47 50  0  0  0  0  0  0  0  0999 V2000
   -3.2400    2.1507   -0.0870 O   0  0  0  0  0  0  0  0  0  0  0  0
   -3.4542    1.0280    0.3850 C   0  0  0  0  0  0  0  0  0  0  0  0
   -4.6823    0.7550    1.3026 C   0  0  0  0  0  0  0  0  0  0  0  0
   -5.9619    0.1804    0.6309 C   0  0  0  0  0  0  0  0  0  0  0  0
   -6.7861    1.0366    1.6093 C   0  0  0  0  0  0  0  0  0  0  0  0
   -5.5678    1.9723    1.7043 C   0  0  0  0  0  0  0  0  0  0  0  0
   -2.6274   -0.0660    0.1437 N   0  0  0  0  0  0  0  0  0  0  0  0
   -2.8191   -1.4180    0.6926 C   0  0  0  0  0  0  0  0  0  0  0  0
   -1.7065   -2.3129    0.1334 C   0  0  0  0  0  0  0  0  0  0  0  0
   -0.8971   -1.3445   -0.6663 C   0  0  0  0  0  0  0  0  0  0  0  0
    0.2636   -1.6130   -1.3780 C   0  0  0  0  0  0  0  0  0  0  0  0
    0.8597   -0.5580   -2.0756 C   0  0  0  0  0  0  0  0  0  0  0  0
    2.3451   -0.8414   -3.0087 S   0  0  0  0  0  6  0  0  0  0  0  0
    2.2445   -0.0838   -4.2352 O   0  0  0  0  0  0  0  0  0  0  0  0
    2.6113   -2.2634   -3.0086 O   0  0  0  0  0  0  0  0  0  0  0  0
    3.5173   -0.1062   -2.0751 N   0  0  0  0  0  0  0  0  0  0  0  0
    3.7297   -0.5875   -0.7078 C   0  0  0  0  0  0  0  0  0  0  0  0
    5.0215   -0.0495   -0.1316 C   0  0  0  0  0  0  0  0  0  0  0  0
    6.2339   -0.6681   -0.4309 C   0  0  0  0  0  0  0  0  0  0  0  0
    7.4087   -0.1251    0.0809 C   0  0  0  0  0  0  0  0  0  0  0  0
    7.3445    1.0203    0.8648 C   0  0  0  0  0  0  0  0  0  0  0  0
    6.1017    1.5823    1.1019 C   0  0  0  0  0  0  0  0  0  0  0  0
    4.9438    1.0797    0.6187 N   0  0  0  0  0  0  0  0  0  0  0  0
    0.2899    0.7265   -2.0767 C   0  0  0  0  0  0  0  0  0  0  0  0
   -0.8809    0.9755   -1.3523 C   0  0  0  0  0  0  0  0  0  0  0  0
   -1.4636   -0.0671   -0.6481 C   0  0  0  0  0  0  0  0  0  0  0  0
   -4.4003    0.1906    2.2033 H   0  0  0  0  0  0  0  0  0  0  0  0
   -6.0843    0.4659   -0.4205 H   0  0  0  0  0  0  0  0  0  0  0  0
   -6.1061   -0.8991    0.7239 H   0  0  0  0  0  0  0  0  0  0  0  0
   -7.0245    0.5259    2.5493 H   0  0  0  0  0  0  0  0  0  0  0  0
   -7.6978    1.4805    1.2024 H   0  0  0  0  0  0  0  0  0  0  0  0
   -5.3744    2.3908    2.6956 H   0  0  0  0  0  0  0  0  0  0  0  0
   -5.5875    2.7888    0.9731 H   0  0  0  0  0  0  0  0  0  0  0  0
   -2.7686   -1.3662    1.7860 H   0  0  0  0  0  0  0  0  0  0  0  0
   -3.8095   -1.7905    0.4118 H   0  0  0  0  0  0  0  0  0  0  0  0
   -2.1194   -3.1002   -0.5051 H   0  0  0  0  0  0  0  0  0  0  0  0
   -1.1174   -2.7626    0.9384 H   0  0  0  0  0  0  0  0  0  0  0  0
    0.6873   -2.6132   -1.3941 H   0  0  0  0  0  0  0  0  0  0  0  0
    3.6036    0.9002   -2.2132 H   0  0  0  0  0  0  0  0  0  0  0  0
    3.7518   -1.6820   -0.6724 H   0  0  0  0  0  0  0  0  0  0  0  0
    2.9051   -0.2480   -0.0711 H   0  0  0  0  0  0  0  0  0  0  0  0
    6.2654   -1.5520   -1.0611 H   0  0  0  0  0  0  0  0  0  0  0  0
    8.3667   -0.5887   -0.1372 H   0  0  0  0  0  0  0  0  0  0  0  0
    8.2421    1.4685    1.2758 H   0  0  0  0  0  0  0  0  0  0  0  0
    6.0009    2.4813    1.7034 H   0  0  0  0  0  0  0  0  0  0  0  0
    0.7477    1.5348   -2.6436 H   0  0  0  0  0  0  0  0  0  0  0  0
   -1.3095    1.9723   -1.3610 H   0  0  0  0  0  0  0  0  0  0  0  0
  1  2  2  0
  2  3  1  0
  3  4  1  0
  4  5  1  0
  5  6  1  0
  2  7  1  0
  7  8  1  0
  8  9  1  0
  9 10  1  0
 10 11  2  0
 11 12  1  0
 12 13  1  0
 13 14  2  0
 13 15  2  0
 13 16  1  0
 16 17  1  0
 17 18  1  0
 18 19  2  0
 19 20  1  0
 20 21  2  0
 21 22  1  0
 22 23  2  0
 12 24  2  0
 24 25  1  0
 25 26  2  0
  6  3  1  0
 26  7  1  0
 26 10  1  0
 23 18  1  0
  3 27  1  0
  4 28  1  0
  4 29  1  0
  5 30  1  0
  5 31  1  0
  6 32  1  0
  6 33  1  0
  8 34  1  0
  8 35  1  0
  9 36  1  0
  9 37  1  0
 11 38  1  0
 16 39  1  0
 17 40  1  0
 17 41  1  0
 19 42  1  0
 20 43  1  0
 21 44  1  0
 22 45  1  0
 24 46  1  0
 25 47  1  0
M  END
$$$$
