
     RDKit          3D

 40 40  0  0  0  0  0  0  0  0999 V2000
   -3.5019    2.4611    2.9076 C   0  0  0  0  0  0  0  0  0  0  0  0
   -2.4742    1.4499    2.4241 C   0  0  0  0  0  0  0  0  0  0  0  0
   -1.3850    2.1193    1.5825 C   0  0  0  0  0  0  0  0  0  0  0  0
   -0.3143    1.1296    1.1167 C   0  0  0  0  0  0  0  0  0  0  0  0
   -0.9108    0.2052    0.1644 N   0  0  0  0  0  0  0  0  0  0  0  0
   -0.2412   -0.8215   -0.2360 C   0  0  0  0  0  0  0  0  0  0  0  0
    1.0512   -1.2570    0.0588 N   0  0  0  0  0  0  0  0  0  0  0  0
    2.0512   -0.4786    0.5746 N   0  0  0  0  0  0  0  0  0  0  0  0
    3.0872    0.0699   -0.2111 C   0  0  0  0  0  0  0  0  0  0  0  0
    4.1899    0.6591    0.4240 C   0  0  0  0  0  0  0  0  0  0  0  0
    5.2106    1.2613   -0.3183 C   0  0  0  0  0  0  0  0  0  0  0  0
    5.1238    1.2974   -1.7070 C   0  0  0  0  0  0  0  0  0  0  0  0
    6.4985    2.1138   -2.7141 Br  0  0  0  0  0  0  0  0  0  0  0  0
    4.0230    0.7464   -2.3562 C   0  0  0  0  0  0  0  0  0  0  0  0
    3.0053    0.1454   -1.6082 C   0  0  0  0  0  0  0  0  0  0  0  0
   -0.9796   -1.7628   -1.2318 C   0  0  0  0  0  0  0  0  0  0  0  0
   -0.3382   -2.5656   -1.8955 O   0  0  0  0  0  0  0  0  0  0  0  0
   -2.3133   -1.5950   -1.2106 O   0  0  0  0  0  0  0  0  0  0  0  0
   -3.0646   -2.4287   -2.1000 C   0  0  0  0  0  0  0  0  0  0  0  0
   -3.3968   -3.7463   -1.4251 C   0  0  0  0  0  0  0  0  0  0  0  0
   -3.9945    2.9538    2.0633 H   0  0  0  0  0  0  0  0  0  0  0  0
   -4.2709    1.9631    3.5063 H   0  0  0  0  0  0  0  0  0  0  0  0
   -3.0331    3.2307    3.5291 H   0  0  0  0  0  0  0  0  0  0  0  0
   -2.9847    0.6766    1.8390 H   0  0  0  0  0  0  0  0  0  0  0  0
   -2.0219    0.9550    3.2915 H   0  0  0  0  0  0  0  0  0  0  0  0
   -1.8405    2.6086    0.7126 H   0  0  0  0  0  0  0  0  0  0  0  0
   -0.9009    2.9030    2.1777 H   0  0  0  0  0  0  0  0  0  0  0  0
    0.0917    0.6055    1.9893 H   0  0  0  0  0  0  0  0  0  0  0  0
    0.4861    1.7007    0.6336 H   0  0  0  0  0  0  0  0  0  0  0  0
    1.3547   -2.0503   -0.5157 H   0  0  0  0  0  0  0  0  0  0  0  0
    2.3439   -0.7189    1.5220 H   0  0  0  0  0  0  0  0  0  0  0  0
    4.2643    0.6577    1.5086 H   0  0  0  0  0  0  0  0  0  0  0  0
    6.0593    1.7036    0.1965 H   0  0  0  0  0  0  0  0  0  0  0  0
    3.9383    0.7868   -3.4389 H   0  0  0  0  0  0  0  0  0  0  0  0
    2.1431   -0.2550   -2.1347 H   0  0  0  0  0  0  0  0  0  0  0  0
   -2.5310   -2.5876   -3.0444 H   0  0  0  0  0  0  0  0  0  0  0  0
   -3.9895   -1.8934   -2.3386 H   0  0  0  0  0  0  0  0  0  0  0  0
   -3.9312   -3.5729   -0.4852 H   0  0  0  0  0  0  0  0  0  0  0  0
   -2.4861   -4.3001   -1.1760 H   0  0  0  0  0  0  0  0  0  0  0  0
   -4.0181   -4.3693   -2.0748 H   0  0  0  0  0  0  0  0  0  0  0  0
  1  2  1  0
  2  3  1  0
  3  4  1  0
  4  5  1  0
  5  6  2  3
  6  7  1  0
  7  8  1  0
  8  9  1  0
  9 10  2  0
 10 11  1  0
 11 12  2  0
 12 13  1  0
 12 14  1  0
 14 15  2  0
  6 16  1  0
 16 17  2  0
 16 18  1  0
 18 19  1  0
 19 20  1  0
 15  9  1  0
  1 21  1  0
  1 22  1  0
  1 23  1  0
  2 24  1  0
  2 25  1  0
  3 26  1  0
  3 27  1  0
  4 28  1  0
  4 29  1  0
  7 30  1  0
  8 31  1  0
 10 32  1  0
 11 33  1  0
 14 34  1  0
 15 35  1  0
 19 36  1  0
 19 37  1  0
 20 38  1  0
 20 39  1  0
 20 40  1  0
M  END
$$$$
