
     RDKit          3D

 67 71  0  0  0  0  0  0  0  0999 V2000
    8.3477   -0.4554   -1.9867 O   0  0  0  0  0  0  0  0  0  0  0  0
    8.2754   -1.0659   -0.9345 C   0  0  0  0  0  0  0  0  0  0  0  0
    9.0445   -0.7561    0.3278 C   0  0  0  0  0  0  0  0  0  0  0  0
    8.8590   -2.0189    1.1642 C   0  0  0  0  0  0  0  0  0  0  0  0
    7.5105   -2.5546    0.7183 C   0  0  0  0  0  0  0  0  0  0  0  0
    7.4304   -2.1335   -0.6598 N   0  0  0  0  0  0  0  0  0  0  0  0
    6.4427   -2.6455   -1.5946 C   0  0  0  0  0  0  0  0  0  0  0  0
    5.2403   -1.7252   -1.8066 C   0  0  0  0  0  0  0  0  0  0  0  0
    4.4385   -1.4985   -0.5288 C   0  0  0  0  0  0  0  0  0  0  0  0
    3.0810   -1.0289   -0.8058 N   0  0  0  0  0  0  0  0  0  0  0  0
    2.7692    0.3118   -0.8384 C   0  0  0  0  0  0  0  0  0  0  0  0
    3.4376    1.2580   -1.7870 C   0  0  0  0  0  0  0  0  0  0  0  0
    3.0765    2.5469   -1.7762 C   0  0  0  0  0  0  0  0  0  0  0  0
    2.0914    2.9689   -0.8635 C   0  0  0  0  0  0  0  0  0  0  0  0
    1.5449    4.1384   -0.6083 N   0  0  0  0  0  0  0  0  0  0  0  0
    0.6312    3.9617    0.4100 N   0  0  0  0  0  0  0  0  0  0  0  0
    0.6428    2.6877    0.7545 C   0  0  0  0  0  0  0  0  0  0  0  0
   -0.1364    2.0290    1.8404 C   0  0  0  0  0  0  0  0  0  0  0  0
   -1.3647    1.2879    1.3123 C   0  0  0  0  0  0  0  0  0  0  0  0
   -2.6454    2.1031    1.4000 C   0  0  0  0  0  0  0  0  0  0  0  0
   -2.6612    3.2368    1.8805 O   0  0  0  0  0  0  0  0  0  0  0  0
   -3.8108    1.4747    0.9623 N   0  0  0  0  0  0  0  0  0  0  0  0
   -3.8312    0.2719    0.1161 C   0  0  0  0  0  0  0  0  0  0  0  0
   -5.1378   -0.5363    0.2586 C   0  0  0  0  0  0  0  0  0  0  0  0
   -6.3132    0.3290    0.0540 N   0  0  0  0  0  0  0  0  0  0  0  0
   -7.5718   -0.2877   -0.0689 C   0  0  0  0  0  0  0  0  0  0  0  0
   -8.6424    0.4390   -0.6186 C   0  0  0  0  0  0  0  0  0  0  0  0
   -9.9167   -0.1198   -0.7678 C   0  0  0  0  0  0  0  0  0  0  0  0
  -10.1502   -1.4300   -0.3654 C   0  0  0  0  0  0  0  0  0  0  0  0
   -9.1045   -2.1760    0.1752 C   0  0  0  0  0  0  0  0  0  0  0  0
   -7.8300   -1.6119    0.3125 C   0  0  0  0  0  0  0  0  0  0  0  0
   -6.3255    1.4905    0.9821 C   0  0  0  0  0  0  0  0  0  0  0  0
   -5.0208    2.3022    0.8676 C   0  0  0  0  0  0  0  0  0  0  0  0
    1.5433    2.0117   -0.0390 N   0  0  0  0  0  0  0  0  0  0  0  0
    1.8341    0.6752    0.0020 N   0  0  0  0  0  0  0  0  0  0  0  0
   10.0980   -0.5652    0.1106 H   0  0  0  0  0  0  0  0  0  0  0  0
    8.5939    0.1158    0.8145 H   0  0  0  0  0  0  0  0  0  0  0  0
    8.9071   -1.8325    2.2419 H   0  0  0  0  0  0  0  0  0  0  0  0
    9.6487   -2.7389    0.9150 H   0  0  0  0  0  0  0  0  0  0  0  0
    7.4498   -3.6448    0.7947 H   0  0  0  0  0  0  0  0  0  0  0  0
    6.6932   -2.0919    1.2828 H   0  0  0  0  0  0  0  0  0  0  0  0
    6.1286   -3.6447   -1.2687 H   0  0  0  0  0  0  0  0  0  0  0  0
    6.9494   -2.7649   -2.5620 H   0  0  0  0  0  0  0  0  0  0  0  0
    5.5850   -0.7617   -2.2012 H   0  0  0  0  0  0  0  0  0  0  0  0
    4.5995   -2.1667   -2.5836 H   0  0  0  0  0  0  0  0  0  0  0  0
    4.9525   -0.7970    0.1420 H   0  0  0  0  0  0  0  0  0  0  0  0
    4.3479   -2.4471    0.0132 H   0  0  0  0  0  0  0  0  0  0  0  0
    2.4374   -1.4660   -0.1481 H   0  0  0  0  0  0  0  0  0  0  0  0
    4.1686    0.8820   -2.4893 H   0  0  0  0  0  0  0  0  0  0  0  0
    3.5167    3.2709   -2.4531 H   0  0  0  0  0  0  0  0  0  0  0  0
   -0.3936    2.7714    2.6054 H   0  0  0  0  0  0  0  0  0  0  0  0
    0.5185    1.3047    2.3441 H   0  0  0  0  0  0  0  0  0  0  0  0
   -1.2137    0.9735    0.2726 H   0  0  0  0  0  0  0  0  0  0  0  0
   -1.5145    0.3934    1.9299 H   0  0  0  0  0  0  0  0  0  0  0  0
   -3.7036    0.6146   -0.9196 H   0  0  0  0  0  0  0  0  0  0  0  0
   -2.9898   -0.3838    0.3541 H   0  0  0  0  0  0  0  0  0  0  0  0
   -5.1212   -1.3415   -0.4850 H   0  0  0  0  0  0  0  0  0  0  0  0
   -5.1707   -0.9855    1.2599 H   0  0  0  0  0  0  0  0  0  0  0  0
   -8.4771    1.4575   -0.9646 H   0  0  0  0  0  0  0  0  0  0  0  0
  -10.7226    0.4733   -1.1918 H   0  0  0  0  0  0  0  0  0  0  0  0
  -11.1383   -1.8681   -0.4754 H   0  0  0  0  0  0  0  0  0  0  0  0
   -9.2768   -3.1994    0.4997 H   0  0  0  0  0  0  0  0  0  0  0  0
   -7.0550   -2.2345    0.7445 H   0  0  0  0  0  0  0  0  0  0  0  0
   -7.1561    2.1748    0.7721 H   0  0  0  0  0  0  0  0  0  0  0  0
   -6.4443    1.1344    2.0189 H   0  0  0  0  0  0  0  0  0  0  0  0
   -5.0124    3.0766    1.6421 H   0  0  0  0  0  0  0  0  0  0  0  0
   -4.9833    2.8110   -0.1048 H   0  0  0  0  0  0  0  0  0  0  0  0
  1  2  2  0
  2  3  1  0
  3  4  1  0
  4  5  1  0
  5  6  1  0
  6  7  1  0
  7  8  1  0
  8  9  1  0
  9 10  1  0
 10 11  1  0
 11 12  1  0
 12 13  2  0
 13 14  1  0
 14 15  2  0
 15 16  1  0
 16 17  2  0
 17 18  1  0
 18 19  1  0
 19 20  1  0
 20 21  2  0
 20 22  1  0
 22 23  1  0
 23 24  1  0
 24 25  1  0
 25 26  1  0
 26 27  2  0
 27 28  1  0
 28 29  2  0
 29 30  1  0
 30 31  2  0
 25 32  1  0
 32 33  1  0
 17 34  1  0
 34 35  1  0
  6  2  1  0
 35 11  2  0
 34 14  1  0
 33 22  1  0
 31 26  1  0
  3 36  1  0
  3 37  1  0
  4 38  1  0
  4 39  1  0
  5 40  1  0
  5 41  1  0
  7 42  1  0
  7 43  1  0
  8 44  1  0
  8 45  1  0
  9 46  1  0
  9 47  1  0
 10 48  1  0
 12 49  1  0
 13 50  1  0
 18 51  1  0
 18 52  1  0
 19 53  1  0
 19 54  1  0
 23 55  1  0
 23 56  1  0
 24 57  1  0
 24 58  1  0
 27 59  1  0
 28 60  1  0
 29 61  1  0
 30 62  1  0
 31 63  1  0
 32 64  1  0
 32 65  1  0
 33 66  1  0
 33 67  1  0
M  END
$$$$
