
     RDKit          3D

 42 44  0  0  0  0  0  0  0  0999 V2000
    1.5134    3.5607    2.7260 C   0  0  0  0  0  0  0  0  0  0  0  0
   -0.0053    3.5750    1.7424 S   0  0  0  0  0  0  0  0  0  0  0  0
    0.0932    1.9561    0.9835 C   0  0  0  0  0  0  0  0  0  0  0  0
    1.3392    1.5155    0.7178 N   0  0  0  0  0  0  0  0  0  0  0  0
    1.4517    0.3479    0.0653 C   0  0  0  0  0  0  0  0  0  0  0  0
    2.8088   -0.1390   -0.2545 C   0  0  0  0  0  0  0  0  0  0  0  0
    3.0135   -1.3557   -0.9340 C   0  0  0  0  0  0  0  0  0  0  0  0
    4.2978   -1.8161   -1.2405 C   0  0  0  0  0  0  0  0  0  0  0  0
    5.4121   -1.0688   -0.8731 C   0  0  0  0  0  0  0  0  0  0  0  0
    5.2431    0.1372   -0.2019 C   0  0  0  0  0  0  0  0  0  0  0  0
    3.9574    0.5938    0.1031 C   0  0  0  0  0  0  0  0  0  0  0  0
    0.4050   -0.4009   -0.3276 N   0  0  0  0  0  0  0  0  0  0  0  0
   -0.8374    0.0348   -0.0445 C   0  0  0  0  0  0  0  0  0  0  0  0
   -1.9394   -0.7547   -0.4465 N   0  0  0  0  0  0  0  0  0  0  0  0
   -2.4841   -1.5292    0.6999 C   0  0  0  0  0  0  0  0  0  0  0  0
   -3.7215   -2.3182    0.2398 C   0  0  0  0  0  0  0  0  0  0  0  0
   -3.4148   -3.1890   -0.8631 O   0  0  0  0  0  0  0  0  0  0  0  0
   -2.8970   -2.4333   -1.9707 C   0  0  0  0  0  0  0  0  0  0  0  0
   -1.6255   -1.6655   -1.5752 C   0  0  0  0  0  0  0  0  0  0  0  0
   -1.0320    1.2452    0.6116 C   0  0  0  0  0  0  0  0  0  0  0  0
   -2.3860    1.7540    0.8552 C   0  0  0  0  0  0  0  0  0  0  0  0
   -3.1555    2.2667   -0.3309 C   0  0  0  0  0  0  0  0  0  0  0  0
   -2.8500    1.7298    1.9918 O   0  0  0  0  0  0  0  0  0  0  0  0
    1.5307    2.6975    3.3965 H   0  0  0  0  0  0  0  0  0  0  0  0
    2.3962    3.5460    2.0839 H   0  0  0  0  0  0  0  0  0  0  0  0
    1.5507    4.4702    3.3325 H   0  0  0  0  0  0  0  0  0  0  0  0
    2.1605   -1.9624   -1.2324 H   0  0  0  0  0  0  0  0  0  0  0  0
    4.4237   -2.7597   -1.7647 H   0  0  0  0  0  0  0  0  0  0  0  0
    6.4110   -1.4267   -1.1088 H   0  0  0  0  0  0  0  0  0  0  0  0
    6.1101    0.7253    0.0873 H   0  0  0  0  0  0  0  0  0  0  0  0
    3.8572    1.5424    0.6276 H   0  0  0  0  0  0  0  0  0  0  0  0
   -2.7720   -0.8798    1.5318 H   0  0  0  0  0  0  0  0  0  0  0  0
   -1.7222   -2.2322    1.0640 H   0  0  0  0  0  0  0  0  0  0  0  0
   -4.5283   -1.6404   -0.0589 H   0  0  0  0  0  0  0  0  0  0  0  0
   -4.0924   -2.9400    1.0607 H   0  0  0  0  0  0  0  0  0  0  0  0
   -3.6756   -1.7497   -2.3292 H   0  0  0  0  0  0  0  0  0  0  0  0
   -2.6720   -3.1386   -2.7762 H   0  0  0  0  0  0  0  0  0  0  0  0
   -1.2677   -1.0944   -2.4390 H   0  0  0  0  0  0  0  0  0  0  0  0
   -0.8556   -2.3917   -1.2822 H   0  0  0  0  0  0  0  0  0  0  0  0
   -3.4642    3.2969   -0.1384 H   0  0  0  0  0  0  0  0  0  0  0  0
   -4.0331    1.6361   -0.4913 H   0  0  0  0  0  0  0  0  0  0  0  0
   -2.5437    2.2546   -1.2372 H   0  0  0  0  0  0  0  0  0  0  0  0
  1  2  1  0
  2  3  1  0
  3  4  2  0
  4  5  1  0
  5  6  1  0
  6  7  2  0
  7  8  1  0
  8  9  2  0
  9 10  1  0
 10 11  2  0
  5 12  2  0
 12 13  1  0
 13 14  1  0
 14 15  1  0
 15 16  1  0
 16 17  1  0
 17 18  1  0
 18 19  1  0
 13 20  2  0
 20 21  1  0
 21 22  1  0
 21 23  2  0
 20  3  1  0
 11  6  1  0
 19 14  1  0
  1 24  1  0
  1 25  1  0
  1 26  1  0
  7 27  1  0
  8 28  1  0
  9 29  1  0
 10 30  1  0
 11 31  1  0
 15 32  1  0
 15 33  1  0
 16 34  1  0
 16 35  1  0
 18 36  1  0
 18 37  1  0
 19 38  1  0
 19 39  1  0
 22 40  1  0
 22 41  1  0
 22 42  1  0
M  END
$$$$
