
     RDKit          3D

 45 47  0  0  0  0  0  0  0  0999 V2000
    2.3078    0.8138   -4.0781 C   0  0  0  0  0  0  0  0  0  0  0  0
    2.1547    0.6737   -2.6732 O   0  0  0  0  0  0  0  0  0  0  0  0
    3.2705    0.8455   -1.8906 C   0  0  0  0  0  0  0  0  0  0  0  0
    4.5459    1.1475   -2.3788 C   0  0  0  0  0  0  0  0  0  0  0  0
    5.6131    1.3140   -1.4949 C   0  0  0  0  0  0  0  0  0  0  0  0
    5.4103    1.1810   -0.1241 C   0  0  0  0  0  0  0  0  0  0  0  0
    4.1401    0.8774    0.3719 C   0  0  0  0  0  0  0  0  0  0  0  0
    3.0627    0.7041   -0.5007 C   0  0  0  0  0  0  0  0  0  0  0  0
    1.7482    0.3990   -0.0735 N   0  0  0  0  0  0  0  0  0  0  0  0
    1.2787    0.2425    1.2140 C   0  0  0  0  0  0  0  0  0  0  0  0
    1.9776    0.2573    2.2277 O   0  0  0  0  0  0  0  0  0  0  0  0
   -0.2271   -0.0507    1.3114 C   0  0  0  0  0  0  0  0  0  0  0  0
   -0.7475    0.2440    2.7294 C   0  0  0  0  0  0  0  0  0  0  0  0
   -2.1703    0.7159    2.5140 C   0  0  0  0  0  0  0  0  0  0  0  0
   -2.0487    1.5457    1.2500 C   0  0  0  0  0  0  0  0  0  0  0  0
   -1.0758    0.8025    0.4189 N   0  0  0  0  0  0  0  0  0  0  0  0
   -1.6069    0.1580   -1.0485 S   0  0  0  0  0  6  0  0  0  0  0  0
   -2.3177    1.1938   -1.7652 O   0  0  0  0  0  0  0  0  0  0  0  0
   -0.4761   -0.5233   -1.6408 O   0  0  0  0  0  0  0  0  0  0  0  0
   -2.7967   -1.0863   -0.5864 C   0  0  0  0  0  0  0  0  0  0  0  0
   -4.1494   -0.7435   -0.4782 C   0  0  0  0  0  0  0  0  0  0  0  0
   -5.0858   -1.7242   -0.1441 C   0  0  0  0  0  0  0  0  0  0  0  0
   -4.6703   -3.0410    0.0572 C   0  0  0  0  0  0  0  0  0  0  0  0
   -5.8262   -4.2466    0.4690 Cl  0  0  0  0  0  0  0  0  0  0  0  0
   -3.3266   -3.3899   -0.0825 C   0  0  0  0  0  0  0  0  0  0  0  0
   -2.3855   -2.4133   -0.4162 C   0  0  0  0  0  0  0  0  0  0  0  0
    2.6289    1.8270   -4.3405 H   0  0  0  0  0  0  0  0  0  0  0  0
    1.3298    0.6449   -4.5390 H   0  0  0  0  0  0  0  0  0  0  0  0
    2.9978    0.0633   -4.4773 H   0  0  0  0  0  0  0  0  0  0  0  0
    4.7419    1.2612   -3.4396 H   0  0  0  0  0  0  0  0  0  0  0  0
    6.6034    1.5501   -1.8761 H   0  0  0  0  0  0  0  0  0  0  0  0
    6.2403    1.3135    0.5661 H   0  0  0  0  0  0  0  0  0  0  0  0
    4.0266    0.7821    1.4464 H   0  0  0  0  0  0  0  0  0  0  0  0
    1.0831    0.2906   -0.8422 H   0  0  0  0  0  0  0  0  0  0  0  0
   -0.3723   -1.1133    1.0943 H   0  0  0  0  0  0  0  0  0  0  0  0
   -0.6973   -0.6381    3.3752 H   0  0  0  0  0  0  0  0  0  0  0  0
   -0.1725    1.0422    3.2150 H   0  0  0  0  0  0  0  0  0  0  0  0
   -2.8322   -0.1424    2.3548 H   0  0  0  0  0  0  0  0  0  0  0  0
   -2.5562    1.2938    3.3584 H   0  0  0  0  0  0  0  0  0  0  0  0
   -1.6298    2.5356    1.4664 H   0  0  0  0  0  0  0  0  0  0  0  0
   -3.0181    1.6943    0.7698 H   0  0  0  0  0  0  0  0  0  0  0  0
   -4.4829    0.2763   -0.6594 H   0  0  0  0  0  0  0  0  0  0  0  0
   -6.1367   -1.4596   -0.0537 H   0  0  0  0  0  0  0  0  0  0  0  0
   -3.0092   -4.4209    0.0560 H   0  0  0  0  0  0  0  0  0  0  0  0
   -1.3435   -2.6979   -0.5494 H   0  0  0  0  0  0  0  0  0  0  0  0
  1  2  1  0
  2  3  1  0
  3  4  2  0
  4  5  1  0
  5  6  2  0
  6  7  1  0
  7  8  2  0
  8  9  1  0
  9 10  1  0
 10 11  2  0
 10 12  1  0
 12 13  1  0
 13 14  1  0
 14 15  1  0
 15 16  1  0
 16 17  1  0
 17 18  2  0
 17 19  2  0
 17 20  1  0
 20 21  2  0
 21 22  1  0
 22 23  2  0
 23 24  1  0
 23 25  1  0
 25 26  2  0
  8  3  1  0
 16 12  1  0
 26 20  1  0
  1 27  1  0
  1 28  1  0
  1 29  1  0
  4 30  1  0
  5 31  1  0
  6 32  1  0
  7 33  1  0
  9 34  1  0
 12 35  1  0
 13 36  1  0
 13 37  1  0
 14 38  1  0
 14 39  1  0
 15 40  1  0
 15 41  1  0
 21 42  1  0
 22 43  1  0
 25 44  1  0
 26 45  1  0
M  END
$$$$
