
     RDKit          3D

 44 46  0  0  0  0  0  0  0  0999 V2000
    4.4754    1.9065   -1.5112 C   0  0  0  0  0  0  0  0  0  0  0  0
    3.8958    0.8157   -0.8004 O   0  0  0  0  0  0  0  0  0  0  0  0
    4.7450   -0.0796   -0.1951 C   0  0  0  0  0  0  0  0  0  0  0  0
    6.1367   -0.0588   -0.3825 C   0  0  0  0  0  0  0  0  0  0  0  0
    6.9622   -0.9880    0.2556 C   0  0  0  0  0  0  0  0  0  0  0  0
    6.4112   -1.9523    1.0884 C   0  0  0  0  0  0  0  0  0  0  0  0
    5.0310   -1.9905    1.2800 C   0  0  0  0  0  0  0  0  0  0  0  0
    4.1789   -1.0653    0.6440 C   0  0  0  0  0  0  0  0  0  0  0  0
    2.7053   -1.2185    0.9313 C   0  0  0  0  0  0  0  0  0  0  0  0
    2.3578   -2.0427    1.7725 O   0  0  0  0  0  0  0  0  0  0  0  0
    1.8473   -0.4158    0.2061 N   0  0  0  0  0  0  0  0  0  0  0  0
    0.4416   -0.3630    0.2643 C   0  0  0  0  0  0  0  0  0  0  0  0
   -0.3396   -1.1548    1.1033 C   0  0  0  0  0  0  0  0  0  0  0  0
   -1.7361   -1.0377    1.0947 C   0  0  0  0  0  0  0  0  0  0  0  0
   -2.3778   -0.1280    0.2445 C   0  0  0  0  0  0  0  0  0  0  0  0
   -3.8779   -0.0478    0.2703 C   0  0  0  0  0  0  0  0  0  0  0  0
   -4.5202   -0.6227    1.2461 N   0  0  0  0  0  0  0  0  0  0  0  0
   -5.8802   -0.5787    1.2465 N   0  0  0  0  0  0  0  0  0  0  0  0
   -6.6761   -0.2625    0.1762 C   0  0  0  0  0  0  0  0  0  0  0  0
   -7.9021   -0.2878    0.2429 O   0  0  0  0  0  0  0  0  0  0  0  0
   -5.9417    0.0420   -1.0989 C   0  0  0  0  0  0  0  0  0  0  0  0
   -4.6109    0.7262   -0.8189 C   0  0  0  0  0  0  0  0  0  0  0  0
   -4.8038    2.1818   -0.3886 C   0  0  0  0  0  0  0  0  0  0  0  0
   -1.5940    0.6694   -0.5945 C   0  0  0  0  0  0  0  0  0  0  0  0
   -0.1975    0.5503   -0.5825 C   0  0  0  0  0  0  0  0  0  0  0  0
    5.1268    2.5022   -0.8627 H   0  0  0  0  0  0  0  0  0  0  0  0
    5.0076    1.5546   -2.4008 H   0  0  0  0  0  0  0  0  0  0  0  0
    3.6596    2.5546   -1.8481 H   0  0  0  0  0  0  0  0  0  0  0  0
    6.6188    0.6704   -1.0262 H   0  0  0  0  0  0  0  0  0  0  0  0
    8.0382   -0.9565    0.1002 H   0  0  0  0  0  0  0  0  0  0  0  0
    7.0496   -2.6762    1.5892 H   0  0  0  0  0  0  0  0  0  0  0  0
    4.6167   -2.7564    1.9350 H   0  0  0  0  0  0  0  0  0  0  0  0
    2.2945    0.2221   -0.4445 H   0  0  0  0  0  0  0  0  0  0  0  0
    0.1029   -1.8774    1.7823 H   0  0  0  0  0  0  0  0  0  0  0  0
   -2.3130   -1.6735    1.7643 H   0  0  0  0  0  0  0  0  0  0  0  0
   -6.3441   -0.8948    2.0927 H   0  0  0  0  0  0  0  0  0  0  0  0
   -5.7786   -0.9120   -1.6145 H   0  0  0  0  0  0  0  0  0  0  0  0
   -6.5740    0.6689   -1.7370 H   0  0  0  0  0  0  0  0  0  0  0  0
   -4.0354    0.7049   -1.7502 H   0  0  0  0  0  0  0  0  0  0  0  0
   -3.8418    2.6726   -0.2098 H   0  0  0  0  0  0  0  0  0  0  0  0
   -5.3292    2.7482   -1.1647 H   0  0  0  0  0  0  0  0  0  0  0  0
   -5.3810    2.2612    0.5389 H   0  0  0  0  0  0  0  0  0  0  0  0
   -2.0318    1.4035   -1.2625 H   0  0  0  0  0  0  0  0  0  0  0  0
    0.3841    1.1860   -1.2462 H   0  0  0  0  0  0  0  0  0  0  0  0
  1  2  1  0
  2  3  1  0
  3  4  2  0
  4  5  1  0
  5  6  2  0
  6  7  1  0
  7  8  2  0
  8  9  1  0
  9 10  2  0
  9 11  1  0
 11 12  1  0
 12 13  2  0
 13 14  1  0
 14 15  2  0
 15 16  1  0
 16 17  2  0
 17 18  1  0
 18 19  1  0
 19 20  2  0
 19 21  1  0
 21 22  1  0
 22 23  1  0
 15 24  1  0
 24 25  2  0
  8  3  1  0
 25 12  1  0
 22 16  1  0
  1 26  1  0
  1 27  1  0
  1 28  1  0
  4 29  1  0
  5 30  1  0
  6 31  1  0
  7 32  1  0
 11 33  1  0
 13 34  1  0
 14 35  1  0
 18 36  1  0
 21 37  1  0
 21 38  1  0
 22 39  1  0
 23 40  1  0
 23 41  1  0
 23 42  1  0
 24 43  1  0
 25 44  1  0
M  END
$$$$
