
     RDKit          3D

 39 41  0  0  0  0  0  0  0  0999 V2000
    4.9221   -0.0936   -1.5656 C   0  0  0  0  0  0  0  0  0  0  0  0
    4.2697   -0.1123   -0.1811 C   0  0  0  0  0  0  0  0  0  0  0  0
    4.8497    1.0123    0.6777 C   0  0  0  0  0  0  0  0  0  0  0  0
    2.7404   -0.0126   -0.3235 C   0  0  0  0  0  0  0  0  0  0  0  0
    1.9926   -0.1719    1.0059 C   0  0  0  0  0  0  0  0  0  0  0  0
    0.5449   -0.1979    0.8052 N   0  0  0  0  0  0  0  0  0  0  0  0
   -0.0509   -1.4322    0.5567 C   0  0  0  0  0  0  0  0  0  0  0  0
    0.5712   -2.4902    0.4963 O   0  0  0  0  0  0  0  0  0  0  0  0
   -1.5175   -1.4419    0.3464 C   0  0  0  0  0  0  0  0  0  0  0  0
   -2.1633   -2.6696    0.1582 C   0  0  0  0  0  0  0  0  0  0  0  0
   -3.5382   -2.7065   -0.0250 C   0  0  0  0  0  0  0  0  0  0  0  0
   -4.2667   -1.5166   -0.0342 C   0  0  0  0  0  0  0  0  0  0  0  0
   -3.6437   -0.2578    0.1337 C   0  0  0  0  0  0  0  0  0  0  0  0
   -4.3574    0.9731    0.0978 C   0  0  0  0  0  0  0  0  0  0  0  0
   -5.7611    1.0231   -0.0161 N   0  0  0  0  0  0  0  0  0  0  0  0
   -3.6851    2.1677    0.3831 C   0  0  0  0  0  0  0  0  0  0  0  0
   -2.3095    2.1797    0.5886 C   0  0  0  0  0  0  0  0  0  0  0  0
   -1.5889    0.9829    0.5570 C   0  0  0  0  0  0  0  0  0  0  0  0
   -2.2371   -0.2384    0.3442 C   0  0  0  0  0  0  0  0  0  0  0  0
   -0.1244    1.0231    0.7756 C   0  0  0  0  0  0  0  0  0  0  0  0
    0.4324    2.1104    0.9093 O   0  0  0  0  0  0  0  0  0  0  0  0
    4.5503   -0.9186   -2.1825 H   0  0  0  0  0  0  0  0  0  0  0  0
    4.7127    0.8444   -2.0912 H   0  0  0  0  0  0  0  0  0  0  0  0
    6.0089   -0.2023   -1.4856 H   0  0  0  0  0  0  0  0  0  0  0  0
    4.5174   -1.0702    0.2937 H   0  0  0  0  0  0  0  0  0  0  0  0
    4.5718    1.9959    0.2843 H   0  0  0  0  0  0  0  0  0  0  0  0
    4.4984    0.9462    1.7117 H   0  0  0  0  0  0  0  0  0  0  0  0
    5.9434    0.9559    0.7040 H   0  0  0  0  0  0  0  0  0  0  0  0
    2.3975   -0.7905   -1.0183 H   0  0  0  0  0  0  0  0  0  0  0  0
    2.4704    0.9463   -0.7845 H   0  0  0  0  0  0  0  0  0  0  0  0
    2.3057   -1.0988    1.5004 H   0  0  0  0  0  0  0  0  0  0  0  0
    2.2381    0.6529    1.6835 H   0  0  0  0  0  0  0  0  0  0  0  0
   -1.5967   -3.5991    0.1643 H   0  0  0  0  0  0  0  0  0  0  0  0
   -4.0461   -3.6589   -0.1576 H   0  0  0  0  0  0  0  0  0  0  0  0
   -5.3435   -1.5890   -0.1654 H   0  0  0  0  0  0  0  0  0  0  0  0
   -6.1546    0.2888   -0.5943 H   0  0  0  0  0  0  0  0  0  0  0  0
   -6.1165    1.9349   -0.2891 H   0  0  0  0  0  0  0  0  0  0  0  0
   -4.2309    3.1068    0.4368 H   0  0  0  0  0  0  0  0  0  0  0  0
   -1.8052    3.1245    0.7832 H   0  0  0  0  0  0  0  0  0  0  0  0
  1  2  1  0
  2  3  1  0
  2  4  1  0
  4  5  1  0
  5  6  1  0
  6  7  1  0
  7  8  2  0
  7  9  1  0
  9 10  1  0
 10 11  2  0
 11 12  1  0
 12 13  2  0
 13 14  1  0
 14 15  1  0
 14 16  2  0
 16 17  1  0
 17 18  2  0
 18 19  1  0
 18 20  1  0
 20 21  2  0
 20  6  1  0
 19  9  2  0
 19 13  1  0
  1 22  1  0
  1 23  1  0
  1 24  1  0
  2 25  1  0
  3 26  1  0
  3 27  1  0
  3 28  1  0
  4 29  1  0
  4 30  1  0
  5 31  1  0
  5 32  1  0
 10 33  1  0
 11 34  1  0
 12 35  1  0
 15 36  1  0
 15 37  1  0
 16 38  1  0
 17 39  1  0
M  END
$$$$
