
     RDKit          3D

 39 41  0  0  0  0  0  0  0  0999 V2000
   -0.7576    0.3745    2.7831 S   0  0  0  0  0  0  0  0  0  0  0  0
   -0.3142    0.5898    1.1763 C   0  0  0  0  0  0  0  0  0  0  0  0
    0.9797    0.3900    0.7324 N   0  0  0  0  0  0  0  0  0  0  0  0
    2.1310    0.0241    1.5593 C   0  0  0  0  0  0  0  0  0  0  0  0
    3.3370   -0.3096    0.6817 C   0  0  0  0  0  0  0  0  0  0  0  0
    4.5780   -0.6730    1.4783 C   0  0  0  0  0  0  0  0  0  0  0  0
    5.6759   -0.3093    0.5106 C   0  0  0  0  0  0  0  0  0  0  0  0
    5.1298    0.9518   -0.1243 C   0  0  0  0  0  0  0  0  0  0  0  0
    3.6986    0.8356   -0.1233 O   0  0  0  0  0  0  0  0  0  0  0  0
   -1.1862    0.9788    0.1467 N   0  0  0  0  0  0  0  0  0  0  0  0
   -0.9780    0.5740   -1.2515 C   0  0  0  0  0  0  0  0  0  0  0  0
   -1.7667   -0.7065   -1.5427 C   0  0  0  0  0  0  0  0  0  0  0  0
   -3.1988   -0.6122   -1.0679 C   0  0  0  0  0  0  0  0  0  0  0  0
   -4.1486   -1.5304   -1.5355 C   0  0  0  0  0  0  0  0  0  0  0  0
   -5.4648   -1.4781   -1.0776 C   0  0  0  0  0  0  0  0  0  0  0  0
   -5.8415   -0.5145   -0.1449 C   0  0  0  0  0  0  0  0  0  0  0  0
   -4.9021    0.3980    0.3355 C   0  0  0  0  0  0  0  0  0  0  0  0
   -3.5728    0.3519   -0.1092 C   0  0  0  0  0  0  0  0  0  0  0  0
   -2.5797    1.3798    0.3942 C   0  0  0  0  0  0  0  0  0  0  0  0
    1.2445    1.0113   -0.0227 H   0  0  0  0  0  0  0  0  0  0  0  0
    1.8694   -0.8332    2.1877 H   0  0  0  0  0  0  0  0  0  0  0  0
    2.3473    0.8867    2.2000 H   0  0  0  0  0  0  0  0  0  0  0  0
    3.0831   -1.1167   -0.0172 H   0  0  0  0  0  0  0  0  0  0  0  0
    4.6623   -0.0541    2.3799 H   0  0  0  0  0  0  0  0  0  0  0  0
    4.5958   -1.7237    1.7808 H   0  0  0  0  0  0  0  0  0  0  0  0
    6.6495   -0.1611    0.9847 H   0  0  0  0  0  0  0  0  0  0  0  0
    5.7789   -1.0954   -0.2468 H   0  0  0  0  0  0  0  0  0  0  0  0
    5.4870    1.0954   -1.1478 H   0  0  0  0  0  0  0  0  0  0  0  0
    5.3913    1.8372    0.4648 H   0  0  0  0  0  0  0  0  0  0  0  0
    0.0733    0.4037   -1.4936 H   0  0  0  0  0  0  0  0  0  0  0  0
   -1.3243    1.3965   -1.8900 H   0  0  0  0  0  0  0  0  0  0  0  0
   -1.2952   -1.5526   -1.0275 H   0  0  0  0  0  0  0  0  0  0  0  0
   -1.7390   -0.9061   -2.6201 H   0  0  0  0  0  0  0  0  0  0  0  0
   -3.8656   -2.2941   -2.2561 H   0  0  0  0  0  0  0  0  0  0  0  0
   -6.1962   -2.1930   -1.4451 H   0  0  0  0  0  0  0  0  0  0  0  0
   -6.8673   -0.4759    0.2120 H   0  0  0  0  0  0  0  0  0  0  0  0
   -5.2108    1.1436    1.0650 H   0  0  0  0  0  0  0  0  0  0  0  0
   -2.7610    1.6057    1.4473 H   0  0  0  0  0  0  0  0  0  0  0  0
   -2.7420    2.3111   -0.1635 H   0  0  0  0  0  0  0  0  0  0  0  0
  1  2  2  0
  2  3  1  0
  3  4  1  0
  4  5  1  0
  5  6  1  0
  6  7  1  0
  7  8  1  0
  8  9  1  0
  2 10  1  0
 10 11  1  0
 11 12  1  0
 12 13  1  0
 13 14  2  0
 14 15  1  0
 15 16  2  0
 16 17  1  0
 17 18  2  0
 18 19  1  0
  9  5  1  0
 19 10  1  0
 18 13  1  0
  3 20  1  0
  4 21  1  0
  4 22  1  0
  5 23  1  0
  6 24  1  0
  6 25  1  0
  7 26  1  0
  7 27  1  0
  8 28  1  0
  8 29  1  0
 11 30  1  0
 11 31  1  0
 12 32  1  0
 12 33  1  0
 14 34  1  0
 15 35  1  0
 16 36  1  0
 17 37  1  0
 19 38  1  0
 19 39  1  0
M  END
$$$$
