
     RDKit          3D

 45 47  0  0  0  0  0  0  0  0999 V2000
    2.5016   -2.1592   -1.9386 C   0  0  0  0  0  0  0  0  0  0  0  0
    2.6934   -1.3523   -0.7725 O   0  0  0  0  0  0  0  0  0  0  0  0
    3.4036   -0.2033   -1.0386 C   0  0  0  0  0  0  0  0  0  0  0  0
    4.6446   -0.2331   -1.6792 C   0  0  0  0  0  0  0  0  0  0  0  0
    5.3427    0.9561   -1.8841 C   0  0  0  0  0  0  0  0  0  0  0  0
    4.8090    2.1634   -1.4363 C   0  0  0  0  0  0  0  0  0  0  0  0
    3.5761    2.1906   -0.7754 C   0  0  0  0  0  0  0  0  0  0  0  0
    2.8645    1.0090   -0.5680 C   0  0  0  0  0  0  0  0  0  0  0  0
    1.6183    0.9378    0.0908 N   0  0  0  0  0  0  0  0  0  0  0  0
    0.8719    1.9674    0.6283 C   0  0  0  0  0  0  0  0  0  0  0  0
    1.1787    3.1586    0.6127 O   0  0  0  0  0  0  0  0  0  0  0  0
   -0.3598    1.5094    1.4085 C   0  0  0  0  0  0  0  0  0  0  0  0
    0.0848    0.9207    2.7605 C   0  0  0  0  0  0  0  0  0  0  0  0
   -0.9268   -0.1714    3.0545 C   0  0  0  0  0  0  0  0  0  0  0  0
   -1.2182   -0.7382    1.6752 C   0  0  0  0  0  0  0  0  0  0  0  0
   -1.2583    0.4677    0.8331 N   0  0  0  0  0  0  0  0  0  0  0  0
   -1.4233    0.3273   -0.8283 S   0  0  0  0  0  6  0  0  0  0  0  0
   -1.5015    1.6524   -1.3958 O   0  0  0  0  0  0  0  0  0  0  0  0
   -0.4406   -0.6401   -1.2682 O   0  0  0  0  0  0  0  0  0  0  0  0
   -3.0338   -0.4065   -0.9851 C   0  0  0  0  0  0  0  0  0  0  0  0
   -3.1706   -1.7095   -1.4733 C   0  0  0  0  0  0  0  0  0  0  0  0
   -4.4470   -2.2662   -1.5889 C   0  0  0  0  0  0  0  0  0  0  0  0
   -5.5684   -1.5201   -1.2205 C   0  0  0  0  0  0  0  0  0  0  0  0
   -7.1365   -2.2147   -1.3589 Cl  0  0  0  0  0  0  0  0  0  0  0  0
   -5.4289   -0.2169   -0.7408 C   0  0  0  0  0  0  0  0  0  0  0  0
   -4.1571    0.3476   -0.6251 C   0  0  0  0  0  0  0  0  0  0  0  0
    2.2331   -1.5573   -2.8175 H   0  0  0  0  0  0  0  0  0  0  0  0
    1.6719   -2.8430   -1.7354 H   0  0  0  0  0  0  0  0  0  0  0  0
    3.3937   -2.7661   -2.1403 H   0  0  0  0  0  0  0  0  0  0  0  0
    5.0844   -1.1707   -2.0023 H   0  0  0  0  0  0  0  0  0  0  0  0
    6.3079    0.9406   -2.3831 H   0  0  0  0  0  0  0  0  0  0  0  0
    5.3545    3.0907   -1.5936 H   0  0  0  0  0  0  0  0  0  0  0  0
    3.2005    3.1511   -0.4390 H   0  0  0  0  0  0  0  0  0  0  0  0
    1.2186    0.0008    0.0892 H   0  0  0  0  0  0  0  0  0  0  0  0
   -0.9886    2.3918    1.5836 H   0  0  0  0  0  0  0  0  0  0  0  0
    0.1054    1.6820    3.5472 H   0  0  0  0  0  0  0  0  0  0  0  0
    1.0906    0.4874    2.7058 H   0  0  0  0  0  0  0  0  0  0  0  0
   -1.8366    0.2666    3.4826 H   0  0  0  0  0  0  0  0  0  0  0  0
   -0.5477   -0.9252    3.7490 H   0  0  0  0  0  0  0  0  0  0  0  0
   -0.4179   -1.4123    1.3530 H   0  0  0  0  0  0  0  0  0  0  0  0
   -2.1757   -1.2660    1.6726 H   0  0  0  0  0  0  0  0  0  0  0  0
   -2.2996   -2.2905   -1.7696 H   0  0  0  0  0  0  0  0  0  0  0  0
   -4.5632   -3.2808   -1.9648 H   0  0  0  0  0  0  0  0  0  0  0  0
   -6.3042    0.3599   -0.4546 H   0  0  0  0  0  0  0  0  0  0  0  0
   -4.0457    1.3648   -0.2560 H   0  0  0  0  0  0  0  0  0  0  0  0
  1  2  1  0
  2  3  1  0
  3  4  2  0
  4  5  1  0
  5  6  2  0
  6  7  1  0
  7  8  2  0
  8  9  1  0
  9 10  1  0
 10 11  2  0
 10 12  1  0
 12 13  1  0
 13 14  1  0
 14 15  1  0
 15 16  1  0
 16 17  1  0
 17 18  2  0
 17 19  2  0
 17 20  1  0
 20 21  2  0
 21 22  1  0
 22 23  2  0
 23 24  1  0
 23 25  1  0
 25 26  2  0
  8  3  1  0
 16 12  1  0
 26 20  1  0
  1 27  1  0
  1 28  1  0
  1 29  1  0
  4 30  1  0
  5 31  1  0
  6 32  1  0
  7 33  1  0
  9 34  1  0
 12 35  1  0
 13 36  1  0
 13 37  1  0
 14 38  1  0
 14 39  1  0
 15 40  1  0
 15 41  1  0
 21 42  1  0
 22 43  1  0
 25 44  1  0
 26 45  1  0
M  END
$$$$
