
     RDKit          3D

 52 54  0  0  0  0  0  0  0  0999 V2000
   -6.1830   -1.4923   -1.3821 C   0  0  0  0  0  0  0  0  0  0  0  0
   -6.8909   -1.1614   -0.0680 C   0  0  0  0  0  0  0  0  0  0  0  0
   -7.5830    0.1995   -0.1670 C   0  0  0  0  0  0  0  0  0  0  0  0
   -5.9695   -1.2646    1.1653 C   0  0  0  0  0  0  0  0  0  0  0  0
   -4.7982   -0.2803    1.2313 C   0  0  0  0  0  0  0  0  0  0  0  0
   -3.8086   -0.6559    0.2769 O   0  0  0  0  0  0  0  0  0  0  0  0
   -2.6638    0.0904    0.2349 C   0  0  0  0  0  0  0  0  0  0  0  0
   -2.3907    1.2181    1.0108 C   0  0  0  0  0  0  0  0  0  0  0  0
   -1.1715    1.8880    0.8697 C   0  0  0  0  0  0  0  0  0  0  0  0
   -0.2164    1.4211   -0.0353 C   0  0  0  0  0  0  0  0  0  0  0  0
    1.0601    2.1601   -0.1643 C   0  0  0  0  0  0  0  0  0  0  0  0
    1.0025    3.3721   -0.3514 O   0  0  0  0  0  0  0  0  0  0  0  0
    2.2579    1.4651   -0.0627 N   0  0  0  0  0  0  0  0  0  0  0  0
    2.3973    0.0999    0.4716 C   0  0  0  0  0  0  0  0  0  0  0  0
    3.6879   -0.1083    1.2885 C   0  0  0  0  0  0  0  0  0  0  0  0
    4.8672    0.3083    0.5352 N   0  0  0  0  0  0  0  0  0  0  0  0
    6.0164   -0.4472    0.5731 C   0  0  0  0  0  0  0  0  0  0  0  0
    7.0239   -0.1343   -0.2611 N   0  0  0  0  0  0  0  0  0  0  0  0
    8.1499   -0.8657   -0.1870 C   0  0  0  0  0  0  0  0  0  0  0  0
    8.3208   -1.9090    0.6823 C   0  0  0  0  0  0  0  0  0  0  0  0
    7.2464   -2.1657    1.4908 C   0  0  0  0  0  0  0  0  0  0  0  0
    6.1023   -1.4572    1.4545 N   0  0  0  0  0  0  0  0  0  0  0  0
    4.7226    1.3190   -0.5111 C   0  0  0  0  0  0  0  0  0  0  0  0
    3.5029    2.2169   -0.2480 C   0  0  0  0  0  0  0  0  0  0  0  0
   -0.4949    0.3113   -0.8359 C   0  0  0  0  0  0  0  0  0  0  0  0
   -1.7152   -0.3523   -0.6920 C   0  0  0  0  0  0  0  0  0  0  0  0
   -5.6571   -2.4511   -1.3162 H   0  0  0  0  0  0  0  0  0  0  0  0
   -5.4609   -0.7187   -1.6633 H   0  0  0  0  0  0  0  0  0  0  0  0
   -6.9117   -1.5676   -2.1968 H   0  0  0  0  0  0  0  0  0  0  0  0
   -7.6780   -1.9150    0.0732 H   0  0  0  0  0  0  0  0  0  0  0  0
   -8.0684    0.4621    0.7803 H   0  0  0  0  0  0  0  0  0  0  0  0
   -8.3555    0.1784   -0.9431 H   0  0  0  0  0  0  0  0  0  0  0  0
   -6.8788    0.9979   -0.4280 H   0  0  0  0  0  0  0  0  0  0  0  0
   -5.5741   -2.2872    1.2105 H   0  0  0  0  0  0  0  0  0  0  0  0
   -6.5862   -1.1214    2.0627 H   0  0  0  0  0  0  0  0  0  0  0  0
   -4.3653   -0.3400    2.2375 H   0  0  0  0  0  0  0  0  0  0  0  0
   -5.1442    0.7414    1.0477 H   0  0  0  0  0  0  0  0  0  0  0  0
   -3.1052    1.6091    1.7256 H   0  0  0  0  0  0  0  0  0  0  0  0
   -0.9680    2.7757    1.4630 H   0  0  0  0  0  0  0  0  0  0  0  0
    1.5358   -0.1541    1.0958 H   0  0  0  0  0  0  0  0  0  0  0  0
    2.4035   -0.5730   -0.3948 H   0  0  0  0  0  0  0  0  0  0  0  0
    3.7218   -1.1614    1.5887 H   0  0  0  0  0  0  0  0  0  0  0  0
    3.6363    0.4899    2.2062 H   0  0  0  0  0  0  0  0  0  0  0  0
    8.9416   -0.5608   -0.8647 H   0  0  0  0  0  0  0  0  0  0  0  0
    9.2338   -2.4802    0.7329 H   0  0  0  0  0  0  0  0  0  0  0  0
    7.2741   -2.9628    2.2276 H   0  0  0  0  0  0  0  0  0  0  0  0
    5.6094    1.9621   -0.5632 H   0  0  0  0  0  0  0  0  0  0  0  0
    4.6032    0.8217   -1.4824 H   0  0  0  0  0  0  0  0  0  0  0  0
    3.6605    2.7981    0.6690 H   0  0  0  0  0  0  0  0  0  0  0  0
    3.3774    2.9295   -1.0705 H   0  0  0  0  0  0  0  0  0  0  0  0
    0.2205   -0.0309   -1.5773 H   0  0  0  0  0  0  0  0  0  0  0  0
   -1.9370   -1.2169   -1.3146 H   0  0  0  0  0  0  0  0  0  0  0  0
  1  2  1  0
  2  3  1  0
  2  4  1  0
  4  5  1  0
  5  6  1  0
  6  7  1  0
  7  8  2  0
  8  9  1  0
  9 10  2  0
 10 11  1  0
 11 12  2  0
 11 13  1  0
 13 14  1  0
 14 15  1  0
 15 16  1  0
 16 17  1  0
 17 18  2  0
 18 19  1  0
 19 20  2  0
 20 21  1  0
 21 22  2  0
 16 23  1  0
 23 24  1  0
 10 25  1  0
 25 26  2  0
 26  7  1  0
 24 13  1  0
 22 17  1  0
  1 27  1  0
  1 28  1  0
  1 29  1  0
  2 30  1  0
  3 31  1  0
  3 32  1  0
  3 33  1  0
  4 34  1  0
  4 35  1  0
  5 36  1  0
  5 37  1  0
  8 38  1  0
  9 39  1  0
 14 40  1  0
 14 41  1  0
 15 42  1  0
 15 43  1  0
 19 44  1  0
 20 45  1  0
 21 46  1  0
 23 47  1  0
 23 48  1  0
 24 49  1  0
 24 50  1  0
 25 51  1  0
 26 52  1  0
M  END
$$$$
