
     RDKit          3D

 58 61  0  0  0  0  0  0  0  0999 V2000
    3.2792    0.7220    1.8012 O   0  0  0  0  0  0  0  0  0  0  0  0
    3.0890    1.0335    0.6306 C   0  0  0  0  0  0  0  0  0  0  0  0
    4.0670    1.5764   -0.1757 N   0  0  0  0  0  0  0  0  0  0  0  0
    5.4402    1.7390    0.2697 C   0  0  0  0  0  0  0  0  0  0  0  0
    6.4063    0.7620   -0.4236 C   0  0  0  0  0  0  0  0  0  0  0  0
    6.1583   -0.7160   -0.1922 C   0  0  0  0  0  0  0  0  0  0  0  0
    6.2823   -1.6177   -1.2642 C   0  0  0  0  0  0  0  0  0  0  0  0
    6.0855   -2.9874   -1.0705 C   0  0  0  0  0  0  0  0  0  0  0  0
    5.7731   -3.4686    0.1999 C   0  0  0  0  0  0  0  0  0  0  0  0
    5.5231   -5.1513    0.4389 Cl  0  0  0  0  0  0  0  0  0  0  0  0
    5.6650   -2.5947    1.2761 C   0  0  0  0  0  0  0  0  0  0  0  0
    5.8655   -1.2251    1.0817 C   0  0  0  0  0  0  0  0  0  0  0  0
    1.7387    0.8806   -0.0685 C   0  0  0  0  0  0  0  0  0  0  0  0
    0.8006   -0.0238    0.7397 C   0  0  0  0  0  0  0  0  0  0  0  0
   -0.5778   -0.1388    0.0908 C   0  0  0  0  0  0  0  0  0  0  0  0
   -1.2242    1.2431   -0.1096 C   0  0  0  0  0  0  0  0  0  0  0  0
   -2.5985    1.1526   -0.8029 C   0  0  0  0  0  0  0  0  0  0  0  0
   -3.5841    0.5363    0.0802 N   0  0  0  0  0  0  0  0  0  0  0  0
   -4.9576    0.5110   -0.1399 C   0  0  0  0  0  0  0  0  0  0  0  0
   -5.5364    1.5571   -0.8098 N   0  0  0  0  0  0  0  0  0  0  0  0
   -6.8709    1.6989   -1.0854 C   0  0  0  0  0  0  0  0  0  0  0  0
   -7.3602    3.0968   -1.8753 S   0  0  0  0  0  0  0  0  0  0  0  0
   -7.7263    0.7058   -0.7047 N   0  0  0  0  0  0  0  0  0  0  0  0
   -7.2236   -0.2992   -0.0644 C   0  0  0  0  0  0  0  0  0  0  0  0
   -8.1419   -1.3891    0.3692 C   0  0  0  0  0  0  0  0  0  0  0  0
   -7.6775   -2.4555    1.0339 C   0  0  0  0  0  0  0  0  0  0  0  0
   -6.2824   -2.6008    1.3730 C   0  0  0  0  0  0  0  0  0  0  0  0
   -5.3802   -1.6736    1.0269 C   0  0  0  0  0  0  0  0  0  0  0  0
   -5.7726   -0.4812    0.2884 C   0  0  0  0  0  0  0  0  0  0  0  0
   -0.2864    2.1458   -0.9295 C   0  0  0  0  0  0  0  0  0  0  0  0
    1.1006    2.2570   -0.2991 C   0  0  0  0  0  0  0  0  0  0  0  0
    3.8504    1.7776   -1.1432 H   0  0  0  0  0  0  0  0  0  0  0  0
    5.4999    1.6492    1.3619 H   0  0  0  0  0  0  0  0  0  0  0  0
    5.7288    2.7672    0.0113 H   0  0  0  0  0  0  0  0  0  0  0  0
    6.3716    0.9632   -1.5049 H   0  0  0  0  0  0  0  0  0  0  0  0
    7.4306    0.9856   -0.0984 H   0  0  0  0  0  0  0  0  0  0  0  0
    6.5332   -1.2603   -2.2621 H   0  0  0  0  0  0  0  0  0  0  0  0
    6.1837   -3.6691   -1.9118 H   0  0  0  0  0  0  0  0  0  0  0  0
    5.4248   -2.9650    2.2706 H   0  0  0  0  0  0  0  0  0  0  0  0
    5.7727   -0.5629    1.9421 H   0  0  0  0  0  0  0  0  0  0  0  0
    1.9219    0.4018   -1.0415 H   0  0  0  0  0  0  0  0  0  0  0  0
    0.6846    0.3656    1.7611 H   0  0  0  0  0  0  0  0  0  0  0  0
    1.2410   -1.0247    0.8388 H   0  0  0  0  0  0  0  0  0  0  0  0
   -0.4860   -0.6527   -0.8753 H   0  0  0  0  0  0  0  0  0  0  0  0
   -1.2037   -0.7708    0.7299 H   0  0  0  0  0  0  0  0  0  0  0  0
   -1.3639    1.7041    0.8798 H   0  0  0  0  0  0  0  0  0  0  0  0
   -2.9177    2.1671   -1.0695 H   0  0  0  0  0  0  0  0  0  0  0  0
   -2.5248    0.5727   -1.7328 H   0  0  0  0  0  0  0  0  0  0  0  0
   -3.2434   -0.3210    0.5009 H   0  0  0  0  0  0  0  0  0  0  0  0
   -4.9581    2.3349   -1.0822 H   0  0  0  0  0  0  0  0  0  0  0  0
   -9.1905   -1.2734    0.1201 H   0  0  0  0  0  0  0  0  0  0  0  0
   -8.3577   -3.2404    1.3478 H   0  0  0  0  0  0  0  0  0  0  0  0
   -5.9821   -3.4888    1.9288 H   0  0  0  0  0  0  0  0  0  0  0  0
   -4.3440   -1.8196    1.3132 H   0  0  0  0  0  0  0  0  0  0  0  0
   -0.1891    1.7493   -1.9490 H   0  0  0  0  0  0  0  0  0  0  0  0
   -0.7198    3.1501   -1.0205 H   0  0  0  0  0  0  0  0  0  0  0  0
    1.7384    2.8706   -0.9467 H   0  0  0  0  0  0  0  0  0  0  0  0
    1.0253    2.7948    0.6557 H   0  0  0  0  0  0  0  0  0  0  0  0
  1  2  2  0
  2  3  1  0
  3  4  1  0
  4  5  1  0
  5  6  1  0
  6  7  2  0
  7  8  1  0
  8  9  2  0
  9 10  1  0
  9 11  1  0
 11 12  2  0
  2 13  1  0
 13 14  1  0
 14 15  1  0
 15 16  1  0
 16 17  1  0
 17 18  1  0
 18 19  1  0
 19 20  1  0
 20 21  1  0
 21 22  2  0
 21 23  1  0
 23 24  2  0
 24 25  1  0
 25 26  2  0
 26 27  1  0
 27 28  2  0
 28 29  1  0
 16 30  1  0
 30 31  1  0
 12  6  1  0
 31 13  1  0
 29 19  2  0
 29 24  1  0
  3 32  1  0
  4 33  1  0
  4 34  1  0
  5 35  1  0
  5 36  1  0
  7 37  1  0
  8 38  1  0
 11 39  1  0
 12 40  1  0
 13 41  1  0
 14 42  1  0
 14 43  1  0
 15 44  1  0
 15 45  1  0
 16 46  1  0
 17 47  1  0
 17 48  1  0
 18 49  1  0
 20 50  1  0
 25 51  1  0
 26 52  1  0
 27 53  1  0
 28 54  1  0
 30 55  1  0
 30 56  1  0
 31 57  1  0
 31 58  1  0
M  END
$$$$
