
     RDKit          3D

 49 52  0  0  0  0  0  0  0  0999 V2000
    4.3958   -1.9589    0.4974 O   0  0  0  0  0  0  0  0  0  0  0  0
    3.7779   -0.9059    0.6350 C   0  0  0  0  0  0  0  0  0  0  0  0
    2.4398   -0.8703    1.3544 C   0  0  0  0  0  0  0  0  0  0  0  0
    1.1070   -0.9772    0.1221 S   0  0  0  0  0  0  0  0  0  0  0  0
   -0.2727   -0.8443    1.1544 C   0  0  0  0  0  0  0  0  0  0  0  0
   -0.2508   -0.4525    2.4033 N   0  0  0  0  0  0  0  0  0  0  0  0
   -1.5407   -0.4696    2.8643 N   0  0  0  0  0  0  0  0  0  0  0  0
   -2.3316   -0.8983    1.8962 C   0  0  0  0  0  0  0  0  0  0  0  0
   -3.7734   -1.0762    2.0266 C   0  0  0  0  0  0  0  0  0  0  0  0
   -4.5664    0.0029    2.4181 C   0  0  0  0  0  0  0  0  0  0  0  0
   -5.9293   -0.1932    2.5564 C   0  0  0  0  0  0  0  0  0  0  0  0
   -6.5413   -1.3778    2.3465 N   0  0  0  0  0  0  0  0  0  0  0  0
   -5.7513   -2.4140    1.9949 C   0  0  0  0  0  0  0  0  0  0  0  0
   -4.3794   -2.3169    1.8285 C   0  0  0  0  0  0  0  0  0  0  0  0
   -1.5623   -1.1005    0.7653 N   0  0  0  0  0  0  0  0  0  0  0  0
   -2.0190   -1.4945   -0.5525 C   0  0  0  0  0  0  0  0  0  0  0  0
   -2.5557   -0.3593   -1.4285 C   0  0  0  0  0  0  0  0  0  0  0  0
   -1.6830    0.8752   -1.5880 C   0  0  0  0  0  0  0  0  0  0  0  0
   -2.7007    1.8958   -2.0393 C   0  0  0  0  0  0  0  0  0  0  0  0
   -3.9059    1.5289   -1.1985 C   0  0  0  0  0  0  0  0  0  0  0  0
   -3.8259    0.1156   -0.9497 O   0  0  0  0  0  0  0  0  0  0  0  0
    4.1674    0.3385    0.1676 N   0  0  0  0  0  0  0  0  0  0  0  0
    5.3438    0.6784   -0.5419 C   0  0  0  0  0  0  0  0  0  0  0  0
    6.3609   -0.2374   -0.8274 C   0  0  0  0  0  0  0  0  0  0  0  0
    7.5022    0.1626   -1.5326 C   0  0  0  0  0  0  0  0  0  0  0  0
    7.6416    1.4815   -1.9605 C   0  0  0  0  0  0  0  0  0  0  0  0
    6.6382    2.4077   -1.6839 C   0  0  0  0  0  0  0  0  0  0  0  0
    5.4992    2.0086   -0.9794 C   0  0  0  0  0  0  0  0  0  0  0  0
    4.2772    3.1979   -0.6658 Cl  0  0  0  0  0  0  0  0  0  0  0  0
    2.3900   -1.7164    2.0478 H   0  0  0  0  0  0  0  0  0  0  0  0
    2.3615    0.0544    1.9368 H   0  0  0  0  0  0  0  0  0  0  0  0
   -4.1318    0.9782    2.6104 H   0  0  0  0  0  0  0  0  0  0  0  0
   -6.5837    0.6209    2.8532 H   0  0  0  0  0  0  0  0  0  0  0  0
   -6.2663   -3.3616    1.8564 H   0  0  0  0  0  0  0  0  0  0  0  0
   -3.8046   -3.1990    1.5712 H   0  0  0  0  0  0  0  0  0  0  0  0
   -2.7937   -2.2548   -0.4151 H   0  0  0  0  0  0  0  0  0  0  0  0
   -1.1933   -1.9973   -1.0660 H   0  0  0  0  0  0  0  0  0  0  0  0
   -2.7554   -0.7804   -2.4232 H   0  0  0  0  0  0  0  0  0  0  0  0
   -0.8675    0.7313   -2.3017 H   0  0  0  0  0  0  0  0  0  0  0  0
   -1.2588    1.2051   -0.6343 H   0  0  0  0  0  0  0  0  0  0  0  0
   -2.9276    1.7502   -3.1023 H   0  0  0  0  0  0  0  0  0  0  0  0
   -2.3800    2.9313   -1.8975 H   0  0  0  0  0  0  0  0  0  0  0  0
   -3.8828    2.0375   -0.2294 H   0  0  0  0  0  0  0  0  0  0  0  0
   -4.8523    1.7621   -1.6949 H   0  0  0  0  0  0  0  0  0  0  0  0
    3.5211    1.1112    0.3082 H   0  0  0  0  0  0  0  0  0  0  0  0
    6.3025   -1.2753   -0.5130 H   0  0  0  0  0  0  0  0  0  0  0  0
    8.2835   -0.5648   -1.7460 H   0  0  0  0  0  0  0  0  0  0  0  0
    8.5306    1.7848   -2.5081 H   0  0  0  0  0  0  0  0  0  0  0  0
    6.7470    3.4356   -2.0201 H   0  0  0  0  0  0  0  0  0  0  0  0
  1  2  2  0
  2  3  1  0
  3  4  1  0
  4  5  1  0
  5  6  2  0
  6  7  1  0
  7  8  2  0
  8  9  1  0
  9 10  2  0
 10 11  1  0
 11 12  2  0
 12 13  1  0
 13 14  2  0
  8 15  1  0
 15 16  1  0
 16 17  1  0
 17 18  1  0
 18 19  1  0
 19 20  1  0
 20 21  1  0
  2 22  1  0
 22 23  1  0
 23 24  2  0
 24 25  1  0
 25 26  2  0
 26 27  1  0
 27 28  2  0
 28 29  1  0
 15  5  1  0
 21 17  1  0
 28 23  1  0
 14  9  1  0
  3 30  1  0
  3 31  1  0
 10 32  1  0
 11 33  1  0
 13 34  1  0
 14 35  1  0
 16 36  1  0
 16 37  1  0
 17 38  1  0
 18 39  1  0
 18 40  1  0
 19 41  1  0
 19 42  1  0
 20 43  1  0
 20 44  1  0
 22 45  1  0
 24 46  1  0
 25 47  1  0
 26 48  1  0
 27 49  1  0
M  END
$$$$
