
     RDKit          3D

 31 33  0  0  0  0  0  0  0  0999 V2000
   -2.1260   -0.7815    1.0877 C   0  0  0  0  0  0  0  0  0  0  0  0
   -2.5143   -0.3592   -0.2365 N   0  0  0  0  0  0  0  0  0  0  0  0
   -3.8046   -0.1351   -0.6349 C   0  0  0  0  0  0  0  0  0  0  0  0
   -3.8768    0.1531   -1.9144 N   0  0  0  0  0  0  0  0  0  0  0  0
   -2.5671    0.1114   -2.3613 C   0  0  0  0  0  0  0  0  0  0  0  0
   -2.2500    0.3656   -3.7473 N   0  0  0  0  0  4  0  0  0  0  0  0
   -3.1956    0.5360   -4.5294 O   0  0  0  0  0  0  0  0  0  0  0  0
   -1.0509    0.3997   -4.0592 O   0  0  0  0  0  1  0  0  0  0  0  0
   -1.6916   -0.1686   -1.3267 C   0  0  0  0  0  0  0  0  0  0  0  0
   -0.3663   -0.3287   -1.2998 O   0  0  0  0  0  0  0  0  0  0  0  0
    0.4153    0.4211   -0.4413 C   0  0  0  0  0  0  0  0  0  0  0  0
    0.1883    1.7932   -0.2805 C   0  0  0  0  0  0  0  0  0  0  0  0
    0.9861    2.5301    0.5886 C   0  0  0  0  0  0  0  0  0  0  0  0
    2.0162    1.9025    1.2891 C   0  0  0  0  0  0  0  0  0  0  0  0
    2.2735    0.5317    1.1224 C   0  0  0  0  0  0  0  0  0  0  0  0
    3.3197   -0.0930    1.8211 C   0  0  0  0  0  0  0  0  0  0  0  0
    3.5828   -1.4527    1.6524 C   0  0  0  0  0  0  0  0  0  0  0  0
    2.8051   -2.2064    0.7811 C   0  0  0  0  0  0  0  0  0  0  0  0
    1.7608   -1.6011    0.0803 C   0  0  0  0  0  0  0  0  0  0  0  0
    1.4720   -0.2282    0.2372 C   0  0  0  0  0  0  0  0  0  0  0  0
   -1.7161    0.0795    1.6202 H   0  0  0  0  0  0  0  0  0  0  0  0
   -1.3865   -1.5814    1.0046 H   0  0  0  0  0  0  0  0  0  0  0  0
   -3.0040   -1.1599    1.6183 H   0  0  0  0  0  0  0  0  0  0  0  0
   -4.6488   -0.2056    0.0406 H   0  0  0  0  0  0  0  0  0  0  0  0
   -0.5958    2.2978   -0.8380 H   0  0  0  0  0  0  0  0  0  0  0  0
    0.8142    3.5962    0.7147 H   0  0  0  0  0  0  0  0  0  0  0  0
    2.6307    2.4984    1.9614 H   0  0  0  0  0  0  0  0  0  0  0  0
    3.9451    0.4798    2.5027 H   0  0  0  0  0  0  0  0  0  0  0  0
    4.3995   -1.9198    2.1968 H   0  0  0  0  0  0  0  0  0  0  0  0
    3.0127   -3.2640    0.6402 H   0  0  0  0  0  0  0  0  0  0  0  0
    1.1722   -2.2105   -0.6028 H   0  0  0  0  0  0  0  0  0  0  0  0
  1  2  1  0
  2  3  1  0
  3  4  2  0
  4  5  1  0
  5  6  1  0
  6  7  2  0
  6  8  1  0
  5  9  2  0
  9 10  1  0
 10 11  1  0
 11 12  2  0
 12 13  1  0
 13 14  2  0
 14 15  1  0
 15 16  2  0
 16 17  1  0
 17 18  2  0
 18 19  1  0
 19 20  2  0
  9  2  1  0
 20 11  1  0
 20 15  1  0
  1 21  1  0
  1 22  1  0
  1 23  1  0
  3 24  1  0
 12 25  1  0
 13 26  1  0
 14 27  1  0
 16 28  1  0
 17 29  1  0
 18 30  1  0
 19 31  1  0
M  CHG  2   6   1   8  -1
M  END
$$$$
