
     RDKit          3D

 56 59  0  0  0  0  0  0  0  0999 V2000
   -1.9777   -1.7926   -3.1916 C   0  0  0  0  0  0  0  0  0  0  0  0
   -1.4150   -1.6598   -1.7731 C   0  0  0  0  0  0  0  0  0  0  0  0
   -2.1211   -0.4719   -1.0560 C   0  0  0  0  0  0  0  0  0  0  0  0
   -1.6283    0.6581   -1.0809 O   0  0  0  0  0  0  0  0  0  0  0  0
   -3.3231   -0.7668   -0.4212 N   0  0  0  0  0  0  0  0  0  0  0  0
   -3.9139   -2.1060   -0.2367 C   0  0  0  0  0  0  0  0  0  0  0  0
   -5.2701   -1.9304    0.4548 C   0  0  0  0  0  0  0  0  0  0  0  0
   -5.2412   -0.4843    0.8233 C   0  0  0  0  0  0  0  0  0  0  0  0
   -6.1867    0.2082    1.5672 C   0  0  0  0  0  0  0  0  0  0  0  0
   -5.9968    1.5741    1.7728 C   0  0  0  0  0  0  0  0  0  0  0  0
   -4.8794    2.2235    1.2301 C   0  0  0  0  0  0  0  0  0  0  0  0
   -3.9362    1.5157    0.4768 C   0  0  0  0  0  0  0  0  0  0  0  0
   -4.1250    0.1576    0.2824 C   0  0  0  0  0  0  0  0  0  0  0  0
    0.0692   -1.5863   -1.7390 N   0  0  0  0  0  0  0  0  0  0  0  0
    0.6253   -1.4638   -0.3771 C   0  0  0  0  0  0  0  0  0  0  0  0
    1.4722   -0.1965   -0.1296 C   0  0  0  0  0  0  0  0  0  0  0  0
    2.6114   -0.1239   -1.0949 N   0  0  0  0  0  0  0  0  0  0  0  0
    3.5292    1.3097   -1.0490 S   0  0  0  0  0  6  0  0  0  0  0  0
    2.6196    2.4234   -1.2135 O   0  0  0  0  0  0  0  0  0  0  0  0
    4.6702    1.1417   -1.9247 O   0  0  0  0  0  0  0  0  0  0  0  0
    4.1504    1.3300    0.6149 C   0  0  0  0  0  0  0  0  0  0  0  0
    5.0989    0.3767    0.9943 C   0  0  0  0  0  0  0  0  0  0  0  0
    5.6024    0.3880    2.2960 C   0  0  0  0  0  0  0  0  0  0  0  0
    5.1718    1.3562    3.2192 C   0  0  0  0  0  0  0  0  0  0  0  0
    5.7042    1.3570    4.6330 C   0  0  0  0  0  0  0  0  0  0  0  0
    6.9633    0.8466    4.7322 F   0  0  0  0  0  0  0  0  0  0  0  0
    5.7641    2.6025    5.1799 F   0  0  0  0  0  0  0  0  0  0  0  0
    4.9319    0.6151    5.4736 F   0  0  0  0  0  0  0  0  0  0  0  0
    4.2153    2.3056    2.8190 C   0  0  0  0  0  0  0  0  0  0  0  0
    3.7081    2.2989    1.5180 C   0  0  0  0  0  0  0  0  0  0  0  0
    2.2203   -0.5425   -2.4825 C   0  0  0  0  0  0  0  0  0  0  0  0
    0.6932   -0.6380   -2.6762 C   0  0  0  0  0  0  0  0  0  0  0  0
   -1.4986   -2.6178   -3.7293 H   0  0  0  0  0  0  0  0  0  0  0  0
   -3.0537   -1.9917   -3.1729 H   0  0  0  0  0  0  0  0  0  0  0  0
   -1.8413   -0.8724   -3.7706 H   0  0  0  0  0  0  0  0  0  0  0  0
   -1.6580   -2.5868   -1.2437 H   0  0  0  0  0  0  0  0  0  0  0  0
   -3.2320   -2.6933    0.3899 H   0  0  0  0  0  0  0  0  0  0  0  0
   -4.0203   -2.6157   -1.1983 H   0  0  0  0  0  0  0  0  0  0  0  0
   -6.0920   -2.1312   -0.2402 H   0  0  0  0  0  0  0  0  0  0  0  0
   -5.3598   -2.5810    1.3293 H   0  0  0  0  0  0  0  0  0  0  0  0
   -7.0568   -0.2945    1.9774 H   0  0  0  0  0  0  0  0  0  0  0  0
   -6.7207    2.1420    2.3522 H   0  0  0  0  0  0  0  0  0  0  0  0
   -4.7434    3.2898    1.3932 H   0  0  0  0  0  0  0  0  0  0  0  0
   -3.0834    2.0440    0.0655 H   0  0  0  0  0  0  0  0  0  0  0  0
   -0.1524   -1.5296    0.3934 H   0  0  0  0  0  0  0  0  0  0  0  0
    1.2691   -2.3391   -0.2208 H   0  0  0  0  0  0  0  0  0  0  0  0
    0.8476    0.6992   -0.2041 H   0  0  0  0  0  0  0  0  0  0  0  0
    1.8708   -0.2516    0.8884 H   0  0  0  0  0  0  0  0  0  0  0  0
    5.4453   -0.3690    0.2809 H   0  0  0  0  0  0  0  0  0  0  0  0
    6.3405   -0.3586    2.5877 H   0  0  0  0  0  0  0  0  0  0  0  0
    3.8670    3.0617    3.5223 H   0  0  0  0  0  0  0  0  0  0  0  0
    2.9770    3.0474    1.2188 H   0  0  0  0  0  0  0  0  0  0  0  0
    2.6217    0.1461   -3.2341 H   0  0  0  0  0  0  0  0  0  0  0  0
    2.6836   -1.5188   -2.6711 H   0  0  0  0  0  0  0  0  0  0  0  0
    0.2661    0.3658   -2.5821 H   0  0  0  0  0  0  0  0  0  0  0  0
    0.5172   -0.9707   -3.7051 H   0  0  0  0  0  0  0  0  0  0  0  0
  1  2  1  0
  2  3  1  0
  3  4  2  0
  3  5  1  0
  5  6  1  0
  6  7  1  0
  7  8  1  0
  8  9  2  0
  9 10  1  0
 10 11  2  0
 11 12  1  0
 12 13  2  0
  2 14  1  0
 14 15  1  0
 15 16  1  0
 16 17  1  0
 17 18  1  0
 18 19  2  0
 18 20  2  0
 18 21  1  0
 21 22  2  0
 22 23  1  0
 23 24  2  0
 24 25  1  0
 25 26  1  0
 25 27  1  0
 25 28  1  0
 24 29  1  0
 29 30  2  0
 17 31  1  0
 31 32  1  0
 13  5  1  0
 32 14  1  0
 13  8  1  0
 30 21  1  0
  1 33  1  0
  1 34  1  0
  1 35  1  0
  2 36  1  0
  6 37  1  0
  6 38  1  0
  7 39  1  0
  7 40  1  0
  9 41  1  0
 10 42  1  0
 11 43  1  0
 12 44  1  0
 15 45  1  0
 15 46  1  0
 16 47  1  0
 16 48  1  0
 22 49  1  0
 23 50  1  0
 29 51  1  0
 30 52  1  0
 31 53  1  0
 31 54  1  0
 32 55  1  0
 32 56  1  0
M  END
$$$$
