
     RDKit          3D

 74 78  0  0  0  0  0  0  0  0999 V2000
    0.5887   -4.7679    2.1454 C   0  0  0  0  0  0  0  0  0  0  0  0
    0.3489   -3.4978    2.9510 C   0  0  0  0  0  0  0  0  0  0  0  0
   -0.9245   -2.7995    2.5548 C   0  0  0  0  0  0  0  0  0  0  0  0
   -2.2385   -3.1654    3.2086 C   0  0  0  0  0  0  0  0  0  0  0  0
   -2.2423   -4.2292    4.2854 C   0  0  0  0  0  0  0  0  0  0  0  0
   -3.3880   -2.6132    2.9448 N   0  0  0  0  0  0  0  0  0  0  0  0
   -3.3952   -1.6234    2.0117 C   0  0  0  0  0  0  0  0  0  0  0  0
   -4.4208   -0.8572    1.5145 C   0  0  0  0  0  0  0  0  0  0  0  0
   -3.8350    0.0270    0.5760 C   0  0  0  0  0  0  0  0  0  0  0  0
   -4.4943    1.0607   -0.2340 C   0  0  0  0  0  0  0  0  0  0  0  0
   -3.7291    1.9952   -0.9492 C   0  0  0  0  0  0  0  0  0  0  0  0
   -4.3334    3.0030   -1.7054 C   0  0  0  0  0  0  0  0  0  0  0  0
   -3.4618    3.8425   -2.3428 O   0  0  0  0  0  0  0  0  0  0  0  0
   -4.0287    4.9161   -3.0847 C   0  0  0  0  0  0  0  0  0  0  0  0
   -5.7232    3.0751   -1.7557 C   0  0  0  0  0  0  0  0  0  0  0  0
   -6.5047    2.1371   -1.0756 C   0  0  0  0  0  0  0  0  0  0  0  0
   -7.8568    2.3103   -1.2127 O   0  0  0  0  0  0  0  0  0  0  0  0
   -8.6680    1.1709   -0.9565 C   0  0  0  0  0  0  0  0  0  0  0  0
   -5.8926    1.1432   -0.3085 C   0  0  0  0  0  0  0  0  0  0  0  0
   -2.5133   -0.1811    0.4940 N   0  0  0  0  0  0  0  0  0  0  0  0
   -2.2385   -1.1904    1.3702 N   0  0  0  0  0  0  0  0  0  0  0  0
   -0.9798   -1.7893    1.6539 C   0  0  0  0  0  0  0  0  0  0  0  0
    0.1736   -1.3140    0.9871 N   0  0  0  0  0  0  0  0  0  0  0  0
    0.3399   -1.6601   -0.4538 C   0  0  0  0  0  0  0  0  0  0  0  0
    1.3369   -0.7366   -1.1989 C   0  0  0  0  0  0  0  0  0  0  0  0
    2.5256   -0.4364   -0.3868 N   0  0  0  0  0  0  0  0  0  0  0  0
    3.5382    0.3204   -1.1401 C   0  0  0  0  0  0  0  0  0  0  0  0
    4.8998    0.3840   -0.4039 C   0  0  0  0  0  0  0  0  0  0  0  0
    5.9309    1.1979   -1.0852 N   0  0  0  0  0  0  0  0  0  0  0  0
    6.3452    0.6066   -2.3759 C   0  0  0  0  0  0  0  0  0  0  0  0
    7.5174    1.3780   -3.0082 C   0  0  0  0  0  0  0  0  0  0  0  0
    8.6461    1.4321   -2.1261 O   0  0  0  0  0  0  0  0  0  0  0  0
    8.2693    2.0653   -0.8972 C   0  0  0  0  0  0  0  0  0  0  0  0
    7.1253    1.3034   -0.2126 C   0  0  0  0  0  0  0  0  0  0  0  0
    2.1231    0.2390    0.8696 C   0  0  0  0  0  0  0  0  0  0  0  0
    0.6419    0.0548    1.2873 C   0  0  0  0  0  0  0  0  0  0  0  0
    0.6924   -4.5474    1.0784 H   0  0  0  0  0  0  0  0  0  0  0  0
    1.5122   -5.2540    2.4761 H   0  0  0  0  0  0  0  0  0  0  0  0
   -0.2281   -5.4867    2.2625 H   0  0  0  0  0  0  0  0  0  0  0  0
    1.2108   -2.8328    2.8178 H   0  0  0  0  0  0  0  0  0  0  0  0
    0.3410   -3.7322    4.0211 H   0  0  0  0  0  0  0  0  0  0  0  0
   -1.7110   -5.1241    3.9577 H   0  0  0  0  0  0  0  0  0  0  0  0
   -1.7790   -3.8302    5.1909 H   0  0  0  0  0  0  0  0  0  0  0  0
   -3.2706   -4.5188    4.5239 H   0  0  0  0  0  0  0  0  0  0  0  0
   -5.4547   -0.9355    1.8151 H   0  0  0  0  0  0  0  0  0  0  0  0
   -2.6424    1.9497   -0.9137 H   0  0  0  0  0  0  0  0  0  0  0  0
   -4.6642    4.5463   -3.8959 H   0  0  0  0  0  0  0  0  0  0  0  0
   -3.2070    5.4779   -3.5395 H   0  0  0  0  0  0  0  0  0  0  0  0
   -4.5793    5.5978   -2.4272 H   0  0  0  0  0  0  0  0  0  0  0  0
   -6.2341    3.8437   -2.3252 H   0  0  0  0  0  0  0  0  0  0  0  0
   -8.7372    0.9722    0.1163 H   0  0  0  0  0  0  0  0  0  0  0  0
   -9.6754    1.3929   -1.3208 H   0  0  0  0  0  0  0  0  0  0  0  0
   -8.3034    0.2904   -1.4971 H   0  0  0  0  0  0  0  0  0  0  0  0
   -6.4997    0.4355    0.2416 H   0  0  0  0  0  0  0  0  0  0  0  0
    0.6989   -2.6956   -0.5097 H   0  0  0  0  0  0  0  0  0  0  0  0
   -0.6222   -1.6199   -0.9776 H   0  0  0  0  0  0  0  0  0  0  0  0
    0.8281    0.1929   -1.4863 H   0  0  0  0  0  0  0  0  0  0  0  0
    1.6254   -1.2387   -2.1296 H   0  0  0  0  0  0  0  0  0  0  0  0
    3.1809    1.3352   -1.3627 H   0  0  0  0  0  0  0  0  0  0  0  0
    3.6940   -0.1851   -2.1009 H   0  0  0  0  0  0  0  0  0  0  0  0
    5.2650   -0.6378   -0.2349 H   0  0  0  0  0  0  0  0  0  0  0  0
    4.7332    0.8276    0.5853 H   0  0  0  0  0  0  0  0  0  0  0  0
    6.6478   -0.4377   -2.2267 H   0  0  0  0  0  0  0  0  0  0  0  0
    5.5124    0.6224   -3.0872 H   0  0  0  0  0  0  0  0  0  0  0  0
    7.2199    2.3984   -3.2767 H   0  0  0  0  0  0  0  0  0  0  0  0
    7.8373    0.8756   -3.9255 H   0  0  0  0  0  0  0  0  0  0  0  0
    9.1502    2.0746   -0.2462 H   0  0  0  0  0  0  0  0  0  0  0  0
    7.9913    3.1075   -1.0935 H   0  0  0  0  0  0  0  0  0  0  0  0
    7.4798    0.2991    0.0537 H   0  0  0  0  0  0  0  0  0  0  0  0
    6.8639    1.8252    0.7146 H   0  0  0  0  0  0  0  0  0  0  0  0
    2.3101    1.3198    0.8207 H   0  0  0  0  0  0  0  0  0  0  0  0
    2.7596   -0.1582    1.6698 H   0  0  0  0  0  0  0  0  0  0  0  0
    0.5504    0.2596    2.3606 H   0  0  0  0  0  0  0  0  0  0  0  0
    0.0215    0.7888    0.7577 H   0  0  0  0  0  0  0  0  0  0  0  0
  1  2  1  0
  2  3  1  0
  3  4  1  0
  4  5  1  0
  4  6  2  0
  6  7  1  0
  7  8  2  0
  8  9  1  0
  9 10  1  0
 10 11  2  0
 11 12  1  0
 12 13  1  0
 13 14  1  0
 12 15  2  0
 15 16  1  0
 16 17  1  0
 17 18  1  0
 16 19  2  0
  9 20  2  0
 20 21  1  0
 21 22  1  0
 22 23  1  0
 23 24  1  0
 24 25  1  0
 25 26  1  0
 26 27  1  0
 27 28  1  0
 28 29  1  0
 29 30  1  0
 30 31  1  0
 31 32  1  0
 32 33  1  0
 33 34  1  0
 26 35  1  0
 35 36  1  0
 22  3  2  0
 36 23  1  0
 21  7  1  0
 34 29  1  0
 19 10  1  0
  1 37  1  0
  1 38  1  0
  1 39  1  0
  2 40  1  0
  2 41  1  0
  5 42  1  0
  5 43  1  0
  5 44  1  0
  8 45  1  0
 11 46  1  0
 14 47  1  0
 14 48  1  0
 14 49  1  0
 15 50  1  0
 18 51  1  0
 18 52  1  0
 18 53  1  0
 19 54  1  0
 24 55  1  0
 24 56  1  0
 25 57  1  0
 25 58  1  0
 27 59  1  0
 27 60  1  0
 28 61  1  0
 28 62  1  0
 30 63  1  0
 30 64  1  0
 31 65  1  0
 31 66  1  0
 33 67  1  0
 33 68  1  0
 34 69  1  0
 34 70  1  0
 35 71  1  0
 35 72  1  0
 36 73  1  0
 36 74  1  0
M  END
$$$$
