
     RDKit          3D

 40 42  0  0  0  0  0  0  0  0999 V2000
   -2.7749   -1.2055   -0.5471 C   0  0  0  0  0  0  0  0  0  0  0  0
   -1.4057   -1.2466   -1.2265 C   0  0  0  0  0  0  0  0  0  0  0  0
   -1.4723   -2.1427   -2.4654 C   0  0  0  0  0  0  0  0  0  0  0  0
   -0.8981    0.1526   -1.6244 C   0  0  0  0  0  0  0  0  0  0  0  0
   -0.5714    1.0111   -0.5030 N   0  0  0  0  0  0  0  0  0  0  0  0
    0.5945    1.0053    0.2216 C   0  0  0  0  0  0  0  0  0  0  0  0
    1.9062   -0.0892   -0.0425 S   0  0  0  0  0  0  0  0  0  0  0  0
    3.1837    0.6892    0.9915 C   0  0  0  0  0  0  0  0  0  0  0  0
    4.4232   -0.1874    1.0139 C   0  0  0  0  0  0  0  0  0  0  0  0
    5.3395    0.0464    0.2210 O   0  0  0  0  0  0  0  0  0  0  0  0
    4.4591   -1.2833    1.9837 C   0  0  0  0  0  0  0  0  0  0  0  0
    3.5139   -1.6892    2.9138 C   0  0  0  0  0  0  0  0  0  0  0  0
    3.9442   -2.8181    3.6770 C   0  0  0  0  0  0  0  0  0  0  0  0
    5.1952   -3.2231    3.2956 C   0  0  0  0  0  0  0  0  0  0  0  0
    6.0888   -4.5360    3.9471 Cl  0  0  0  0  0  0  0  0  0  0  0  0
    5.8565   -2.2876    2.0553 S   0  0  0  0  0  0  0  0  0  0  0  0
    0.5581    1.9361    1.1435 N   0  0  0  0  0  0  0  0  0  0  0  0
   -0.6415    2.5872    1.0239 N   0  0  0  0  0  0  0  0  0  0  0  0
   -1.3176    2.0398    0.0296 C   0  0  0  0  0  0  0  0  0  0  0  0
   -2.6169    2.4906   -0.3705 C   0  0  0  0  0  0  0  0  0  0  0  0
   -3.3498    3.5358    0.1727 C   0  0  0  0  0  0  0  0  0  0  0  0
   -4.5727    3.6131   -0.5346 C   0  0  0  0  0  0  0  0  0  0  0  0
   -4.5263    2.6129   -1.4727 C   0  0  0  0  0  0  0  0  0  0  0  0
   -3.3564    1.9330   -1.3826 O   0  0  0  0  0  0  0  0  0  0  0  0
   -3.1029   -2.2164   -0.2811 H   0  0  0  0  0  0  0  0  0  0  0  0
   -2.7443   -0.6207    0.3770 H   0  0  0  0  0  0  0  0  0  0  0  0
   -3.5344   -0.7728   -1.2061 H   0  0  0  0  0  0  0  0  0  0  0  0
   -0.7006   -1.7043   -0.5223 H   0  0  0  0  0  0  0  0  0  0  0  0
   -2.1692   -1.7414   -3.2091 H   0  0  0  0  0  0  0  0  0  0  0  0
   -1.8044   -3.1518   -2.1991 H   0  0  0  0  0  0  0  0  0  0  0  0
   -0.4871   -2.2304   -2.9355 H   0  0  0  0  0  0  0  0  0  0  0  0
   -1.6138    0.6627   -2.2734 H   0  0  0  0  0  0  0  0  0  0  0  0
    0.0134    0.0637   -2.2288 H   0  0  0  0  0  0  0  0  0  0  0  0
    3.4557    1.6608    0.5642 H   0  0  0  0  0  0  0  0  0  0  0  0
    2.8316    0.8689    2.0119 H   0  0  0  0  0  0  0  0  0  0  0  0
    2.5500   -1.2135    3.0544 H   0  0  0  0  0  0  0  0  0  0  0  0
    3.3638   -3.2974    4.4556 H   0  0  0  0  0  0  0  0  0  0  0  0
   -3.0242    4.1654    0.9908 H   0  0  0  0  0  0  0  0  0  0  0  0
   -5.3839    4.3103   -0.3785 H   0  0  0  0  0  0  0  0  0  0  0  0
   -5.2091    2.2723   -2.2387 H   0  0  0  0  0  0  0  0  0  0  0  0
  1  2  1  0
  2  3  1  0
  2  4  1  0
  4  5  1  0
  5  6  1  0
  6  7  1  0
  7  8  1  0
  8  9  1  0
  9 10  2  0
  9 11  1  0
 11 12  2  0
 12 13  1  0
 13 14  2  0
 14 15  1  0
 14 16  1  0
  6 17  2  0
 17 18  1  0
 18 19  2  0
 19 20  1  0
 20 21  2  0
 21 22  1  0
 22 23  2  0
 23 24  1  0
 19  5  1  0
 24 20  1  0
 16 11  1  0
  1 25  1  0
  1 26  1  0
  1 27  1  0
  2 28  1  0
  3 29  1  0
  3 30  1  0
  3 31  1  0
  4 32  1  0
  4 33  1  0
  8 34  1  0
  8 35  1  0
 12 36  1  0
 13 37  1  0
 21 38  1  0
 22 39  1  0
 23 40  1  0
M  END
$$$$
