
     RDKit          3D

 57 60  0  0  0  0  0  0  0  0999 V2000
    6.5153    0.9650   -2.4041 C   0  0  0  0  0  0  0  0  0  0  0  0
    5.2716    0.8861   -1.7202 O   0  0  0  0  0  0  0  0  0  0  0  0
    5.1144   -0.1256   -0.8078 C   0  0  0  0  0  0  0  0  0  0  0  0
    6.1343   -0.9906   -0.3998 C   0  0  0  0  0  0  0  0  0  0  0  0
    5.8743   -2.0021    0.5269 C   0  0  0  0  0  0  0  0  0  0  0  0
    4.5894   -2.1672    1.0422 C   0  0  0  0  0  0  0  0  0  0  0  0
    3.5479   -1.3183    0.6419 C   0  0  0  0  0  0  0  0  0  0  0  0
    2.1982   -1.5821    1.2220 C   0  0  0  0  0  0  0  0  0  0  0  0
    2.0903   -2.2024    2.2750 O   0  0  0  0  0  0  0  0  0  0  0  0
    1.1147   -1.1181    0.5149 N   0  0  0  0  0  0  0  0  0  0  0  0
   -0.2297   -1.1903    1.0433 C   0  0  0  0  0  0  0  0  0  0  0  0
   -0.4685   -0.0672    2.0808 C   0  0  0  0  0  0  0  0  0  0  0  0
   -1.9728    0.2226    2.3591 C   0  0  0  0  0  0  0  0  0  0  0  0
   -2.6546   -1.0090    2.9895 C   0  0  0  0  0  0  0  0  0  0  0  0
   -2.0755    1.3873    3.3624 C   0  0  0  0  0  0  0  0  0  0  0  0
   -2.7015    0.6332    1.0401 C   0  0  0  0  0  0  0  0  0  0  0  0
   -2.2956   -0.2394   -0.1021 C   0  0  0  0  0  0  0  0  0  0  0  0
   -1.1877   -1.0690   -0.0915 C   0  0  0  0  0  0  0  0  0  0  0  0
   -1.2639   -1.7781   -1.2944 C   0  0  0  0  0  0  0  0  0  0  0  0
   -2.3116   -1.4158   -2.0299 N   0  0  0  0  0  0  0  0  0  0  0  0
   -2.9267   -0.4198   -1.3268 N   0  0  0  0  0  0  0  0  0  0  0  0
   -4.0483    0.2433   -1.9156 C   0  0  0  0  0  0  0  0  0  0  0  0
   -4.6133   -0.2945   -3.0900 C   0  0  0  0  0  0  0  0  0  0  0  0
   -5.7107    0.3143   -3.7078 C   0  0  0  0  0  0  0  0  0  0  0  0
   -6.2526    1.4741   -3.1658 C   0  0  0  0  0  0  0  0  0  0  0  0
   -5.6869    2.0147   -2.0186 C   0  0  0  0  0  0  0  0  0  0  0  0
   -6.1968    3.1425   -1.5051 F   0  0  0  0  0  0  0  0  0  0  0  0
   -4.5935    1.4180   -1.3914 C   0  0  0  0  0  0  0  0  0  0  0  0
    3.8255   -0.2745   -0.2575 C   0  0  0  0  0  0  0  0  0  0  0  0
    2.8173    0.5808   -0.6480 O   0  0  0  0  0  0  0  0  0  0  0  0
    2.9172    1.8189    0.0622 C   0  0  0  0  0  0  0  0  0  0  0  0
    7.3266    1.2188   -1.7142 H   0  0  0  0  0  0  0  0  0  0  0  0
    6.7307    0.0385   -2.9464 H   0  0  0  0  0  0  0  0  0  0  0  0
    6.4411    1.7714   -3.1401 H   0  0  0  0  0  0  0  0  0  0  0  0
    7.1462   -0.9039   -0.7824 H   0  0  0  0  0  0  0  0  0  0  0  0
    6.6728   -2.6703    0.8420 H   0  0  0  0  0  0  0  0  0  0  0  0
    4.3982   -2.9697    1.7532 H   0  0  0  0  0  0  0  0  0  0  0  0
    1.2912   -0.5097   -0.2797 H   0  0  0  0  0  0  0  0  0  0  0  0
   -0.3647   -2.1658    1.5264 H   0  0  0  0  0  0  0  0  0  0  0  0
    0.0021    0.8603    1.7215 H   0  0  0  0  0  0  0  0  0  0  0  0
    0.0506   -0.3203    3.0146 H   0  0  0  0  0  0  0  0  0  0  0  0
   -2.6729   -1.8685    2.3125 H   0  0  0  0  0  0  0  0  0  0  0  0
   -3.6937   -0.7865    3.2584 H   0  0  0  0  0  0  0  0  0  0  0  0
   -2.1355   -1.3184    3.9037 H   0  0  0  0  0  0  0  0  0  0  0  0
   -3.1217    1.6364    3.5727 H   0  0  0  0  0  0  0  0  0  0  0  0
   -1.5900    2.2898    2.9744 H   0  0  0  0  0  0  0  0  0  0  0  0
   -1.5935    1.1340    4.3134 H   0  0  0  0  0  0  0  0  0  0  0  0
   -2.4312    1.6668    0.7901 H   0  0  0  0  0  0  0  0  0  0  0  0
   -3.7843    0.5880    1.2015 H   0  0  0  0  0  0  0  0  0  0  0  0
   -0.6055   -2.5553   -1.6622 H   0  0  0  0  0  0  0  0  0  0  0  0
   -4.2101   -1.2032   -3.5370 H   0  0  0  0  0  0  0  0  0  0  0  0
   -6.1349   -0.1198   -4.6097 H   0  0  0  0  0  0  0  0  0  0  0  0
   -7.1022    1.9629   -3.6312 H   0  0  0  0  0  0  0  0  0  0  0  0
   -4.1949    1.9295   -0.5283 H   0  0  0  0  0  0  0  0  0  0  0  0
    2.0137    2.3974   -0.1532 H   0  0  0  0  0  0  0  0  0  0  0  0
    2.9621    1.6563    1.1451 H   0  0  0  0  0  0  0  0  0  0  0  0
    3.7792    2.4045   -0.2712 H   0  0  0  0  0  0  0  0  0  0  0  0
  1  2  1  0
  2  3  1  0
  3  4  2  0
  4  5  1  0
  5  6  2  0
  6  7  1  0
  7  8  1  0
  8  9  2  0
  8 10  1  0
 10 11  1  0
 11 12  1  0
 12 13  1  0
 13 14  1  0
 13 15  1  0
 13 16  1  0
 16 17  1  0
 17 18  2  0
 18 19  1  0
 19 20  2  0
 20 21  1  0
 21 22  1  0
 22 23  2  0
 23 24  1  0
 24 25  2  0
 25 26  1  0
 26 27  1  0
 26 28  2  0
  7 29  2  0
 29 30  1  0
 30 31  1  0
 29  3  1  0
 18 11  1  0
 28 22  1  0
 21 17  1  0
  1 32  1  0
  1 33  1  0
  1 34  1  0
  4 35  1  0
  5 36  1  0
  6 37  1  0
 10 38  1  0
 11 39  1  0
 12 40  1  0
 12 41  1  0
 14 42  1  0
 14 43  1  0
 14 44  1  0
 15 45  1  0
 15 46  1  0
 15 47  1  0
 16 48  1  0
 16 49  1  0
 19 50  1  0
 23 51  1  0
 24 52  1  0
 25 53  1  0
 28 54  1  0
 31 55  1  0
 31 56  1  0
 31 57  1  0
M  END
$$$$
