
     RDKit          3D

 34 35  0  0  0  0  0  0  0  0999 V2000
   -2.8484   -0.3080    1.3482 C   0  0  0  0  0  0  0  0  0  0  0  0
   -2.5160   -1.2057    0.2824 O   0  0  0  0  0  0  0  0  0  0  0  0
   -2.9785   -0.7269   -0.9152 C   0  0  0  0  0  0  0  0  0  0  0  0
   -4.1835   -1.2632   -1.3773 C   0  0  0  0  0  0  0  0  0  0  0  0
   -4.7291   -0.8229   -2.5819 C   0  0  0  0  0  0  0  0  0  0  0  0
   -4.0572    0.1384   -3.3373 C   0  0  0  0  0  0  0  0  0  0  0  0
   -4.7234    0.6689   -4.8307 Cl  0  0  0  0  0  0  0  0  0  0  0  0
   -2.8475    0.6684   -2.8970 C   0  0  0  0  0  0  0  0  0  0  0  0
   -2.2893    0.2265   -1.6848 C   0  0  0  0  0  0  0  0  0  0  0  0
   -0.9926    0.8302   -1.2916 C   0  0  0  0  0  0  0  0  0  0  0  0
   -0.6639    1.9559   -1.6457 O   0  0  0  0  0  0  0  0  0  0  0  0
   -0.2702   -0.0708   -0.5678 O   0  0  0  0  0  0  0  0  0  0  0  0
    0.9353    0.5059   -0.1280 N   0  0  0  0  0  0  0  0  0  0  0  0
    1.6240   -0.3311    0.5905 C   0  0  0  0  0  0  0  0  0  0  0  0
    1.1918   -1.6157    0.8624 N   0  0  0  0  0  0  0  0  0  0  0  0
    2.9427    0.1364    1.1376 C   0  0  0  0  0  0  0  0  0  0  0  0
    3.6483   -0.6324    2.0698 C   0  0  0  0  0  0  0  0  0  0  0  0
    4.8716   -0.1768    2.5743 C   0  0  0  0  0  0  0  0  0  0  0  0
    5.3868    1.0510    2.1541 C   0  0  0  0  0  0  0  0  0  0  0  0
    6.8876    1.6068    2.7820 Cl  0  0  0  0  0  0  0  0  0  0  0  0
    4.6900    1.8292    1.2358 C   0  0  0  0  0  0  0  0  0  0  0  0
    3.4693    1.3719    0.7299 C   0  0  0  0  0  0  0  0  0  0  0  0
   -2.2389    0.6058    1.3001 H   0  0  0  0  0  0  0  0  0  0  0  0
   -3.9119   -0.0400    1.3377 H   0  0  0  0  0  0  0  0  0  0  0  0
   -2.6303   -0.8142    2.2942 H   0  0  0  0  0  0  0  0  0  0  0  0
   -4.7115   -2.0099   -0.7853 H   0  0  0  0  0  0  0  0  0  0  0  0
   -5.6731   -1.2362   -2.9271 H   0  0  0  0  0  0  0  0  0  0  0  0
   -2.3371    1.4264   -3.4934 H   0  0  0  0  0  0  0  0  0  0  0  0
    0.3715   -1.8562    0.3136 H   0  0  0  0  0  0  0  0  0  0  0  0
    1.9041   -2.3366    0.7898 H   0  0  0  0  0  0  0  0  0  0  0  0
    3.2521   -1.5772    2.4330 H   0  0  0  0  0  0  0  0  0  0  0  0
    5.4100   -0.7773    3.3020 H   0  0  0  0  0  0  0  0  0  0  0  0
    5.0845    2.7893    0.9118 H   0  0  0  0  0  0  0  0  0  0  0  0
    2.9330    1.9903    0.0138 H   0  0  0  0  0  0  0  0  0  0  0  0
  1  2  1  0
  2  3  1  0
  3  4  2  0
  4  5  1  0
  5  6  2  0
  6  7  1  0
  6  8  1  0
  8  9  2  0
  9 10  1  0
 10 11  2  0
 10 12  1  0
 12 13  1  0
 13 14  2  3
 14 15  1  0
 14 16  1  0
 16 17  2  0
 17 18  1  0
 18 19  2  0
 19 20  1  0
 19 21  1  0
 21 22  2  0
  9  3  1  0
 22 16  1  0
  1 23  1  0
  1 24  1  0
  1 25  1  0
  4 26  1  0
  5 27  1  0
  8 28  1  0
 15 29  1  0
 15 30  1  0
 17 31  1  0
 18 32  1  0
 21 33  1  0
 22 34  1  0
M  END
$$$$
