
     RDKit          3D

 50 52  0  0  0  0  0  0  0  0999 V2000
   -8.8643    0.4624    0.6643 C   0  0  0  0  0  0  0  0  0  0  0  0
   -8.0326    0.0479   -0.4097 O   0  0  0  0  0  0  0  0  0  0  0  0
   -6.6735    0.1250   -0.2353 C   0  0  0  0  0  0  0  0  0  0  0  0
   -6.0516    0.5786    0.9334 C   0  0  0  0  0  0  0  0  0  0  0  0
   -4.6572    0.6260    1.0219 C   0  0  0  0  0  0  0  0  0  0  0  0
   -3.8751    0.2267   -0.0658 C   0  0  0  0  0  0  0  0  0  0  0  0
   -2.3886    0.2591   -0.0197 C   0  0  0  0  0  0  0  0  0  0  0  0
   -1.7342   -0.5544   -0.6660 O   0  0  0  0  0  0  0  0  0  0  0  0
   -1.8204    1.2706    0.7438 N   0  0  0  0  0  0  0  0  0  0  0  0
   -0.4806    1.5158    1.0210 C   0  0  0  0  0  0  0  0  0  0  0  0
   -0.1888    2.8568    1.9717 S   0  0  0  0  0  0  0  0  0  0  0  0
    0.3907    0.6104    0.4654 N   0  0  0  0  0  0  0  0  0  0  0  0
    1.7922    0.4479    0.5049 C   0  0  0  0  0  0  0  0  0  0  0  0
    2.6880    1.2157    1.2354 C   0  0  0  0  0  0  0  0  0  0  0  0
    4.0687    0.9466    1.1911 C   0  0  0  0  0  0  0  0  0  0  0  0
    4.6117   -0.0922    0.4235 C   0  0  0  0  0  0  0  0  0  0  0  0
    5.9612   -0.3452    0.3876 N   0  0  0  0  0  0  0  0  0  0  0  0
    6.9484    0.3375    1.2203 C   0  0  0  0  0  0  0  0  0  0  0  0
    8.2214   -0.4827    1.0269 C   0  0  0  0  0  0  0  0  0  0  0  0
    8.0825   -1.0001   -0.3938 C   0  0  0  0  0  0  0  0  0  0  0  0
    6.5929   -1.3172   -0.5012 C   0  0  0  0  0  0  0  0  0  0  0  0
    3.6920   -0.8574   -0.3018 C   0  0  0  0  0  0  0  0  0  0  0  0
    2.3132   -0.5974   -0.2634 C   0  0  0  0  0  0  0  0  0  0  0  0
   -4.4900   -0.2477   -1.2318 C   0  0  0  0  0  0  0  0  0  0  0  0
   -5.8849   -0.2982   -1.3255 C   0  0  0  0  0  0  0  0  0  0  0  0
   -6.5712   -0.7359   -2.4313 O   0  0  0  0  0  0  0  0  0  0  0  0
   -5.8148   -1.2515   -3.5180 C   0  0  0  0  0  0  0  0  0  0  0  0
   -8.7112    1.5214    0.8968 H   0  0  0  0  0  0  0  0  0  0  0  0
   -9.9048    0.3388    0.3489 H   0  0  0  0  0  0  0  0  0  0  0  0
   -8.7085   -0.1642    1.5486 H   0  0  0  0  0  0  0  0  0  0  0  0
   -6.6266    0.8939    1.7984 H   0  0  0  0  0  0  0  0  0  0  0  0
   -4.2081    0.9487    1.9575 H   0  0  0  0  0  0  0  0  0  0  0  0
   -2.4310    1.9678    1.1468 H   0  0  0  0  0  0  0  0  0  0  0  0
   -0.0840   -0.0800   -0.1196 H   0  0  0  0  0  0  0  0  0  0  0  0
    2.3758    2.0369    1.8649 H   0  0  0  0  0  0  0  0  0  0  0  0
    4.7161    1.5908    1.7798 H   0  0  0  0  0  0  0  0  0  0  0  0
    6.6689    0.3550    2.2791 H   0  0  0  0  0  0  0  0  0  0  0  0
    7.0954    1.3640    0.8655 H   0  0  0  0  0  0  0  0  0  0  0  0
    9.1281    0.1092    1.1791 H   0  0  0  0  0  0  0  0  0  0  0  0
    8.2376   -1.3238    1.7306 H   0  0  0  0  0  0  0  0  0  0  0  0
    8.7116   -1.8717   -0.5943 H   0  0  0  0  0  0  0  0  0  0  0  0
    8.3513   -0.2109   -1.1065 H   0  0  0  0  0  0  0  0  0  0  0  0
    6.3904   -2.3354   -0.1497 H   0  0  0  0  0  0  0  0  0  0  0  0
    6.2613   -1.2188   -1.5405 H   0  0  0  0  0  0  0  0  0  0  0  0
    4.0269   -1.6894   -0.9142 H   0  0  0  0  0  0  0  0  0  0  0  0
    1.6557   -1.2343   -0.8511 H   0  0  0  0  0  0  0  0  0  0  0  0
   -3.8573   -0.5658   -2.0551 H   0  0  0  0  0  0  0  0  0  0  0  0
   -5.2182   -2.1168   -3.2107 H   0  0  0  0  0  0  0  0  0  0  0  0
   -5.1860   -0.4739   -3.9637 H   0  0  0  0  0  0  0  0  0  0  0  0
   -6.5187   -1.5889   -4.2848 H   0  0  0  0  0  0  0  0  0  0  0  0
  1  2  1  0
  2  3  1  0
  3  4  2  0
  4  5  1  0
  5  6  2  0
  6  7  1  0
  7  8  2  0
  7  9  1  0
  9 10  1  0
 10 11  2  0
 10 12  1  0
 12 13  1  0
 13 14  2  0
 14 15  1  0
 15 16  2  0
 16 17  1  0
 17 18  1  0
 18 19  1  0
 19 20  1  0
 20 21  1  0
 16 22  1  0
 22 23  2  0
  6 24  1  0
 24 25  2  0
 25 26  1  0
 26 27  1  0
 25  3  1  0
 23 13  1  0
 21 17  1  0
  1 28  1  0
  1 29  1  0
  1 30  1  0
  4 31  1  0
  5 32  1  0
  9 33  1  0
 12 34  1  0
 14 35  1  0
 15 36  1  0
 18 37  1  0
 18 38  1  0
 19 39  1  0
 19 40  1  0
 20 41  1  0
 20 42  1  0
 21 43  1  0
 21 44  1  0
 22 45  1  0
 23 46  1  0
 24 47  1  0
 27 48  1  0
 27 49  1  0
 27 50  1  0
M  END
$$$$
