
     RDKit          3D

 59 62  0  0  0  0  0  0  0  0999 V2000
   -1.5938   -3.3064   -2.0822 C   0  0  0  0  0  0  0  0  0  0  0  0
   -2.6431   -2.4503   -1.3987 C   0  0  0  0  0  0  0  0  0  0  0  0
   -2.0524   -1.2286   -0.9326 O   0  0  0  0  0  0  0  0  0  0  0  0
   -1.4819   -1.2659    0.2998 C   0  0  0  0  0  0  0  0  0  0  0  0
   -1.4417   -2.2612    1.0143 O   0  0  0  0  0  0  0  0  0  0  0  0
   -0.9123    0.0947    0.7176 C   0  0  0  0  0  0  0  0  0  0  0  0
   -1.8886    0.7181    1.7520 C   0  0  0  0  0  0  0  0  0  0  0  0
   -3.2873    1.0104    1.2577 C   0  0  0  0  0  0  0  0  0  0  0  0
   -4.2935    0.0397    1.3525 C   0  0  0  0  0  0  0  0  0  0  0  0
   -5.5872    0.3002    0.8866 C   0  0  0  0  0  0  0  0  0  0  0  0
   -5.8936    1.5379    0.3233 C   0  0  0  0  0  0  0  0  0  0  0  0
   -7.1106    1.9203   -0.1694 O   0  0  0  0  0  0  0  0  0  0  0  0
   -8.1631    0.9676   -0.0908 C   0  0  0  0  0  0  0  0  0  0  0  0
   -4.8959    2.5104    0.2347 C   0  0  0  0  0  0  0  0  0  0  0  0
   -3.6038    2.2534    0.6993 C   0  0  0  0  0  0  0  0  0  0  0  0
    0.4455   -0.1511    1.4291 C   0  0  0  0  0  0  0  0  0  0  0  0
    1.5214   -0.6441    0.4668 C   0  0  0  0  0  0  0  0  0  0  0  0
    1.6895    0.2823   -0.6507 N   0  0  0  0  0  0  0  0  0  0  0  0
    2.8703    0.2523   -1.4092 C   0  0  0  0  0  0  0  0  0  0  0  0
    2.8452    0.2642   -2.6395 O   0  0  0  0  0  0  0  0  0  0  0  0
    4.1351    0.2470   -0.7024 C   0  0  0  0  0  0  0  0  0  0  0  0
    4.4976    0.6834    0.5612 C   0  0  0  0  0  0  0  0  0  0  0  0
    5.8918    0.4630    0.7331 C   0  0  0  0  0  0  0  0  0  0  0  0
    6.7966    0.6833    1.7890 C   0  0  0  0  0  0  0  0  0  0  0  0
    8.1447    0.3480    1.6156 C   0  0  0  0  0  0  0  0  0  0  0  0
    8.5934   -0.1936    0.4127 C   0  0  0  0  0  0  0  0  0  0  0  0
    7.7136   -0.4152   -0.6513 C   0  0  0  0  0  0  0  0  0  0  0  0
    6.3693   -0.0772   -0.4586 C   0  0  0  0  0  0  0  0  0  0  0  0
    5.2983   -0.1682   -1.3144 N   0  0  0  0  0  0  0  0  0  0  0  0
    0.4667    0.5632   -1.3922 C   0  0  0  0  0  0  0  0  0  0  0  0
   -0.6560    1.0474   -0.4741 C   0  0  0  0  0  0  0  0  0  0  0  0
   -2.0416   -4.2162   -2.4915 H   0  0  0  0  0  0  0  0  0  0  0  0
   -1.1152   -2.7509   -2.8954 H   0  0  0  0  0  0  0  0  0  0  0  0
   -0.8014   -3.5903   -1.3824 H   0  0  0  0  0  0  0  0  0  0  0  0
   -3.1356   -2.9916   -0.5828 H   0  0  0  0  0  0  0  0  0  0  0  0
   -3.4211   -2.1753   -2.1182 H   0  0  0  0  0  0  0  0  0  0  0  0
   -1.4616    1.6510    2.1459 H   0  0  0  0  0  0  0  0  0  0  0  0
   -1.9721    0.0568    2.6266 H   0  0  0  0  0  0  0  0  0  0  0  0
   -4.0800   -0.9330    1.7931 H   0  0  0  0  0  0  0  0  0  0  0  0
   -6.3294   -0.4850    0.9815 H   0  0  0  0  0  0  0  0  0  0  0  0
   -8.3857    0.7098    0.9499 H   0  0  0  0  0  0  0  0  0  0  0  0
   -9.0603    1.4246   -0.5194 H   0  0  0  0  0  0  0  0  0  0  0  0
   -7.9314    0.0738   -0.6795 H   0  0  0  0  0  0  0  0  0  0  0  0
   -5.1282    3.4797   -0.2000 H   0  0  0  0  0  0  0  0  0  0  0  0
   -2.8505    3.0336    0.6189 H   0  0  0  0  0  0  0  0  0  0  0  0
    0.3364   -0.8765    2.2449 H   0  0  0  0  0  0  0  0  0  0  0  0
    0.7902    0.7856    1.8880 H   0  0  0  0  0  0  0  0  0  0  0  0
    1.2576   -1.6219    0.0446 H   0  0  0  0  0  0  0  0  0  0  0  0
    2.4535   -0.7990    1.0122 H   0  0  0  0  0  0  0  0  0  0  0  0
    3.8304    1.1240    1.2903 H   0  0  0  0  0  0  0  0  0  0  0  0
    6.4560    1.1083    2.7283 H   0  0  0  0  0  0  0  0  0  0  0  0
    8.8475    0.5148    2.4281 H   0  0  0  0  0  0  0  0  0  0  0  0
    9.6452   -0.4453    0.2968 H   0  0  0  0  0  0  0  0  0  0  0  0
    8.0668   -0.8314   -1.5890 H   0  0  0  0  0  0  0  0  0  0  0  0
    5.3405   -0.4936   -2.2712 H   0  0  0  0  0  0  0  0  0  0  0  0
    0.6687    1.3367   -2.1429 H   0  0  0  0  0  0  0  0  0  0  0  0
    0.1831   -0.3449   -1.9364 H   0  0  0  0  0  0  0  0  0  0  0  0
   -1.5588    1.1952   -1.0773 H   0  0  0  0  0  0  0  0  0  0  0  0
   -0.3770    2.0358   -0.0840 H   0  0  0  0  0  0  0  0  0  0  0  0
  1  2  1  0
  2  3  1  0
  3  4  1  0
  4  5  2  0
  4  6  1  0
  6  7  1  0
  7  8  1  0
  8  9  2  0
  9 10  1  0
 10 11  2  0
 11 12  1  0
 12 13  1  0
 11 14  1  0
 14 15  2  0
  6 16  1  0
 16 17  1  0
 17 18  1  0
 18 19  1  0
 19 20  2  0
 19 21  1  0
 21 22  2  0
 22 23  1  0
 23 24  2  0
 24 25  1  0
 25 26  2  0
 26 27  1  0
 27 28  2  0
 28 29  1  0
 18 30  1  0
 30 31  1  0
 31  6  1  0
 15  8  1  0
 29 21  1  0
 28 23  1  0
  1 32  1  0
  1 33  1  0
  1 34  1  0
  2 35  1  0
  2 36  1  0
  7 37  1  0
  7 38  1  0
  9 39  1  0
 10 40  1  0
 13 41  1  0
 13 42  1  0
 13 43  1  0
 14 44  1  0
 15 45  1  0
 16 46  1  0
 16 47  1  0
 17 48  1  0
 17 49  1  0
 22 50  1  0
 24 51  1  0
 25 52  1  0
 26 53  1  0
 27 54  1  0
 29 55  1  0
 30 56  1  0
 30 57  1  0
 31 58  1  0
 31 59  1  0
M  END
$$$$
