
     RDKit          3D

 29 31  0  0  0  0  0  0  0  0999 V2000
   -3.5718   -2.0628   -1.5402 O   0  0  0  0  0  0  0  0  0  0  0  0
   -3.9518   -0.9741   -1.9346 C   0  0  0  0  0  0  0  0  0  0  0  0
   -5.2377   -0.7355   -2.3362 N   0  0  0  0  0  0  0  0  0  0  0  0
   -5.5813    0.5272   -2.7004 C   0  0  0  0  0  0  0  0  0  0  0  0
   -7.1040    0.9649   -3.1772 S   0  0  0  0  0  0  0  0  0  0  0  0
   -4.1878    1.5697   -2.5808 S   0  0  0  0  0  0  0  0  0  0  0  0
   -3.1457    0.2788   -2.0373 C   0  0  0  0  0  0  0  0  0  0  0  0
   -1.8556    0.5077   -1.7584 C   0  0  0  0  0  0  0  0  0  0  0  0
   -0.8964   -0.4434   -1.3198 C   0  0  0  0  0  0  0  0  0  0  0  0
   -0.6696   -1.7684   -1.6675 C   0  0  0  0  0  0  0  0  0  0  0  0
    0.4571   -2.2257   -0.9427 C   0  0  0  0  0  0  0  0  0  0  0  0
    0.8982   -1.1606   -0.1935 C   0  0  0  0  0  0  0  0  0  0  0  0
    2.2568   -1.1108    0.8951 S   0  0  0  0  0  0  0  0  0  0  0  0
    2.1625    0.6110    1.4674 C   0  0  0  0  0  0  0  0  0  0  0  0
    3.2370    0.8988    2.4511 C   0  0  0  0  0  0  0  0  0  0  0  0
    3.4278    0.5625    3.7768 C   0  0  0  0  0  0  0  0  0  0  0  0
    4.6541    1.1520    4.1670 C   0  0  0  0  0  0  0  0  0  0  0  0
    5.1305    1.8135    3.0601 C   0  0  0  0  0  0  0  0  0  0  0  0
    4.2759    1.6701    2.0152 O   0  0  0  0  0  0  0  0  0  0  0  0
    0.0954   -0.0868   -0.4309 O   0  0  0  0  0  0  0  0  0  0  0  0
   -5.9154   -1.4825   -2.3145 H   0  0  0  0  0  0  0  0  0  0  0  0
   -1.4757    1.5246   -1.8349 H   0  0  0  0  0  0  0  0  0  0  0  0
   -1.2497   -2.3498   -2.3711 H   0  0  0  0  0  0  0  0  0  0  0  0
    0.8981   -3.2122   -0.9706 H   0  0  0  0  0  0  0  0  0  0  0  0
    1.1879    0.7852    1.9363 H   0  0  0  0  0  0  0  0  0  0  0  0
    2.2484    1.2840    0.6074 H   0  0  0  0  0  0  0  0  0  0  0  0
    2.7643   -0.0402    4.3815 H   0  0  0  0  0  0  0  0  0  0  0  0
    5.1335    1.1004    5.1342 H   0  0  0  0  0  0  0  0  0  0  0  0
    6.0152    2.4023    2.8618 H   0  0  0  0  0  0  0  0  0  0  0  0
  1  2  2  0
  2  3  1  0
  3  4  1  0
  4  5  2  0
  4  6  1  0
  6  7  1  0
  7  8  2  3
  8  9  1  0
  9 10  2  0
 10 11  1  0
 11 12  2  0
 12 13  1  0
 13 14  1  0
 14 15  1  0
 15 16  2  0
 16 17  1  0
 17 18  2  0
 18 19  1  0
 12 20  1  0
  7  2  1  0
 20  9  1  0
 19 15  1  0
  3 21  1  0
  8 22  1  0
 10 23  1  0
 11 24  1  0
 14 25  1  0
 14 26  1  0
 16 27  1  0
 17 28  1  0
 18 29  1  0
M  END
$$$$
