
     RDKit          3D

 32 34  0  0  0  0  0  0  0  0999 V2000
    6.6445   -0.6657   -0.7752 C   0  0  0  0  0  0  0  0  0  0  0  0
    5.6516   -0.3839    0.2033 O   0  0  0  0  0  0  0  0  0  0  0  0
    4.3453   -0.4160   -0.2060 C   0  0  0  0  0  0  0  0  0  0  0  0
    3.9039   -0.6958   -1.4971 C   0  0  0  0  0  0  0  0  0  0  0  0
    2.5341   -0.6992   -1.7979 C   0  0  0  0  0  0  0  0  0  0  0  0
    1.5912   -0.4186   -0.7900 C   0  0  0  0  0  0  0  0  0  0  0  0
    0.2152   -0.3867   -0.9455 N   0  0  0  0  0  0  0  0  0  0  0  0
   -0.3505   -0.1015    0.2026 C   0  0  0  0  0  0  0  0  0  0  0  0
   -1.7139   -0.0015    0.2962 N   0  0  0  0  0  0  0  0  0  0  0  0
   -2.4590    0.2048    1.4307 C   0  0  0  0  0  0  0  0  0  0  0  0
   -2.0342    0.2558    2.5782 O   0  0  0  0  0  0  0  0  0  0  0  0
   -3.8970    0.3086    1.1850 C   0  0  0  0  0  0  0  0  0  0  0  0
   -4.9280   -0.0147    2.1212 C   0  0  0  0  0  0  0  0  0  0  0  0
   -6.1253    0.2254    1.4960 C   0  0  0  0  0  0  0  0  0  0  0  0
   -5.9134    0.6991    0.2451 O   0  0  0  0  0  0  0  0  0  0  0  0
   -4.5639    0.7742    0.0593 C   0  0  0  0  0  0  0  0  0  0  0  0
   -4.1475    1.3460   -1.2411 C   0  0  0  0  0  0  0  0  0  0  0  0
    0.6984    0.1645    1.5128 S   0  0  0  0  0  0  0  0  0  0  0  0
    2.0521   -0.1406    0.4967 C   0  0  0  0  0  0  0  0  0  0  0  0
    3.4211   -0.1342    0.8079 C   0  0  0  0  0  0  0  0  0  0  0  0
    6.5345   -1.6821   -1.1675 H   0  0  0  0  0  0  0  0  0  0  0  0
    7.6220   -0.6010   -0.2877 H   0  0  0  0  0  0  0  0  0  0  0  0
    6.6248    0.0747   -1.5817 H   0  0  0  0  0  0  0  0  0  0  0  0
    4.5962   -0.9175   -2.3030 H   0  0  0  0  0  0  0  0  0  0  0  0
    2.1918   -0.9175   -2.8048 H   0  0  0  0  0  0  0  0  0  0  0  0
   -2.1785   -0.1907   -0.5776 H   0  0  0  0  0  0  0  0  0  0  0  0
   -4.7939   -0.3863    3.1285 H   0  0  0  0  0  0  0  0  0  0  0  0
   -7.1604    0.1245    1.7916 H   0  0  0  0  0  0  0  0  0  0  0  0
   -4.9451    1.9574   -1.6755 H   0  0  0  0  0  0  0  0  0  0  0  0
   -3.2678    1.9860   -1.1234 H   0  0  0  0  0  0  0  0  0  0  0  0
   -3.9086    0.5475   -1.9498 H   0  0  0  0  0  0  0  0  0  0  0  0
    3.7601    0.0848    1.8164 H   0  0  0  0  0  0  0  0  0  0  0  0
  1  2  1  0
  2  3  1  0
  3  4  2  0
  4  5  1  0
  5  6  2  0
  6  7  1  0
  7  8  2  0
  8  9  1  0
  9 10  1  0
 10 11  2  0
 10 12  1  0
 12 13  1  0
 13 14  2  0
 14 15  1  0
 15 16  1  0
 16 17  1  0
  8 18  1  0
 18 19  1  0
 19 20  2  0
 20  3  1  0
 19  6  1  0
 16 12  2  0
  1 21  1  0
  1 22  1  0
  1 23  1  0
  4 24  1  0
  5 25  1  0
  9 26  1  0
 13 27  1  0
 14 28  1  0
 17 29  1  0
 17 30  1  0
 17 31  1  0
 20 32  1  0
M  END
$$$$
