
     RDKit          3D

 53 55  0  0  0  0  0  0  0  0999 V2000
    7.7398   -2.2503    1.0911 C   0  0  0  0  0  0  0  0  0  0  0  0
    6.8983   -3.3407    0.7355 O   0  0  0  0  0  0  0  0  0  0  0  0
    5.6637   -3.0333    0.2329 C   0  0  0  0  0  0  0  0  0  0  0  0
    4.8391   -4.1339    0.0075 C   0  0  0  0  0  0  0  0  0  0  0  0
    3.5511   -3.9657   -0.5029 C   0  0  0  0  0  0  0  0  0  0  0  0
    3.0640   -2.6864   -0.8001 C   0  0  0  0  0  0  0  0  0  0  0  0
    1.7688   -2.4986   -1.3125 C   0  0  0  0  0  0  0  0  0  0  0  0
    1.2838   -1.2160   -1.6111 C   0  0  0  0  0  0  0  0  0  0  0  0
   -0.1238   -1.0442   -2.1616 C   0  0  0  0  0  0  0  0  0  0  0  0
   -0.0746   -0.7271   -3.6575 C   0  0  0  0  0  0  0  0  0  0  0  0
   -0.9441    0.0051   -1.3890 C   0  0  0  0  0  0  0  0  0  0  0  0
   -1.4792    0.9521   -1.9579 O   0  0  0  0  0  0  0  0  0  0  0  0
   -1.0343   -0.2797   -0.0323 N   0  0  0  0  0  0  0  0  0  0  0  0
   -1.7205    0.4501    0.9588 C   0  0  0  0  0  0  0  0  0  0  0  0
   -1.6245   -0.0256    2.2749 C   0  0  0  0  0  0  0  0  0  0  0  0
   -2.2790    0.6237    3.3262 C   0  0  0  0  0  0  0  0  0  0  0  0
   -3.0443    1.7574    3.0725 C   0  0  0  0  0  0  0  0  0  0  0  0
   -3.1353    2.2368    1.7649 C   0  0  0  0  0  0  0  0  0  0  0  0
   -4.1190    3.6747    1.4241 S   0  0  0  0  0  6  0  0  0  0  0  0
   -3.2124    4.7204    1.0030 O   0  0  0  0  0  0  0  0  0  0  0  0
   -5.0280    3.8723    2.5356 O   0  0  0  0  0  0  0  0  0  0  0  0
   -5.0701    3.1954    0.0857 N   0  0  0  0  0  0  0  0  0  0  0  0
   -6.0700    2.1415    0.3734 C   0  0  0  0  0  0  0  0  0  0  0  0
   -5.6719    4.3350   -0.6407 C   0  0  0  0  0  0  0  0  0  0  0  0
   -2.4768    1.5939    0.7086 C   0  0  0  0  0  0  0  0  0  0  0  0
    2.1229   -0.1136   -1.4059 C   0  0  0  0  0  0  0  0  0  0  0  0
    3.4109   -0.2880   -0.8947 C   0  0  0  0  0  0  0  0  0  0  0  0
    3.8961   -1.5668   -0.5830 C   0  0  0  0  0  0  0  0  0  0  0  0
    5.1917   -1.7546   -0.0660 C   0  0  0  0  0  0  0  0  0  0  0  0
    8.0176   -1.6601    0.2133 H   0  0  0  0  0  0  0  0  0  0  0  0
    8.6591   -2.6630    1.5168 H   0  0  0  0  0  0  0  0  0  0  0  0
    7.2700   -1.6274    1.8573 H   0  0  0  0  0  0  0  0  0  0  0  0
    5.2037   -5.1339    0.2306 H   0  0  0  0  0  0  0  0  0  0  0  0
    2.9360   -4.8449   -0.6697 H   0  0  0  0  0  0  0  0  0  0  0  0
    1.1349   -3.3664   -1.4864 H   0  0  0  0  0  0  0  0  0  0  0  0
   -0.6730   -1.9903   -2.0464 H   0  0  0  0  0  0  0  0  0  0  0  0
   -1.0862   -0.6777   -4.0759 H   0  0  0  0  0  0  0  0  0  0  0  0
    0.4096    0.2378   -3.8529 H   0  0  0  0  0  0  0  0  0  0  0  0
    0.4782   -1.4982   -4.2058 H   0  0  0  0  0  0  0  0  0  0  0  0
   -0.4957   -1.0738    0.2948 H   0  0  0  0  0  0  0  0  0  0  0  0
   -1.0337   -0.9099    2.5028 H   0  0  0  0  0  0  0  0  0  0  0  0
   -2.1870    0.2439    4.3412 H   0  0  0  0  0  0  0  0  0  0  0  0
   -3.5544    2.2627    3.8900 H   0  0  0  0  0  0  0  0  0  0  0  0
   -6.4938    1.7719   -0.5661 H   0  0  0  0  0  0  0  0  0  0  0  0
   -5.6091    1.2853    0.8742 H   0  0  0  0  0  0  0  0  0  0  0  0
   -6.8832    2.5331    0.9938 H   0  0  0  0  0  0  0  0  0  0  0  0
   -4.8966    5.0250   -0.9858 H   0  0  0  0  0  0  0  0  0  0  0  0
   -6.3863    4.8696   -0.0090 H   0  0  0  0  0  0  0  0  0  0  0  0
   -6.1954    3.9727   -1.5308 H   0  0  0  0  0  0  0  0  0  0  0  0
   -2.5733    2.0086   -0.2894 H   0  0  0  0  0  0  0  0  0  0  0  0
    1.7834    0.8946   -1.6413 H   0  0  0  0  0  0  0  0  0  0  0  0
    4.0361    0.5892   -0.7479 H   0  0  0  0  0  0  0  0  0  0  0  0
    5.8166   -0.8826    0.0895 H   0  0  0  0  0  0  0  0  0  0  0  0
  1  2  1  0
  2  3  1  0
  3  4  2  0
  4  5  1  0
  5  6  2  0
  6  7  1  0
  7  8  2  0
  8  9  1  0
  9 10  1  0
  9 11  1  0
 11 12  2  0
 11 13  1  0
 13 14  1  0
 14 15  2  0
 15 16  1  0
 16 17  2  0
 17 18  1  0
 18 19  1  0
 19 20  2  0
 19 21  2  0
 19 22  1  0
 22 23  1  0
 22 24  1  0
 18 25  2  0
  8 26  1  0
 26 27  2  0
 27 28  1  0
 28 29  2  0
 29  3  1  0
 28  6  1  0
 25 14  1  0
  1 30  1  0
  1 31  1  0
  1 32  1  0
  4 33  1  0
  5 34  1  0
  7 35  1  0
  9 36  1  0
 10 37  1  0
 10 38  1  0
 10 39  1  0
 13 40  1  0
 15 41  1  0
 16 42  1  0
 17 43  1  0
 23 44  1  0
 23 45  1  0
 23 46  1  0
 24 47  1  0
 24 48  1  0
 24 49  1  0
 25 50  1  0
 26 51  1  0
 27 52  1  0
 29 53  1  0
M  END
$$$$
