
     RDKit          3D

 42 44  0  0  0  0  0  0  0  0999 V2000
    6.3037   -3.5314    1.8294 N   0  0  0  0  0  0  0  0  0  0  0  0
    5.2649   -3.0398    1.9920 C   0  0  0  0  0  0  0  0  0  0  0  0
    3.9891   -2.4292    2.1755 C   0  0  0  0  0  0  0  0  0  0  0  0
    3.4281   -2.5233    3.4837 C   0  0  0  0  0  0  0  0  0  0  0  0
    2.9632   -2.5919    4.5451 N   0  0  0  0  0  0  0  0  0  0  0  0
    3.3575   -1.7883    1.1586 C   0  0  0  0  0  0  0  0  0  0  0  0
    2.0584   -1.1235    1.3175 C   0  0  0  0  0  0  0  0  0  0  0  0
    1.3565   -0.5938    0.2972 C   0  0  0  0  0  0  0  0  0  0  0  0
    0.0767    0.0600    0.5307 C   0  0  0  0  0  0  0  0  0  0  0  0
   -0.7543    0.4973   -0.4402 C   0  0  0  0  0  0  0  0  0  0  0  0
   -1.9811    1.1430   -0.1863 N   0  0  0  0  0  0  0  0  0  0  0  0
   -2.6577    1.0614    1.1249 C   0  0  0  0  0  0  0  0  0  0  0  0
   -4.1678    1.2269    0.9864 C   0  0  0  0  0  0  0  0  0  0  0  0
   -4.5389    2.5721    0.3714 C   0  0  0  0  0  0  0  0  0  0  0  0
   -3.4663    3.0850   -0.5841 C   0  0  0  0  0  0  0  0  0  0  0  0
   -2.6741    1.9444   -1.2154 C   0  0  0  0  0  0  0  0  0  0  0  0
   -0.3742    0.2646   -1.8981 C   0  0  0  0  0  0  0  0  0  0  0  0
    0.6625   -0.8430   -2.0939 C   0  0  0  0  0  0  0  0  0  0  0  0
    1.8390   -0.6539   -1.1353 C   0  0  0  0  0  0  0  0  0  0  0  0
    2.8763   -1.7656   -1.3283 C   0  0  0  0  0  0  0  0  0  0  0  0
    3.9490   -1.6903   -0.2428 C   0  0  0  0  0  0  0  0  0  0  0  0
    1.6359   -1.0594    2.3198 H   0  0  0  0  0  0  0  0  0  0  0  0
   -0.1947    0.2123    1.5715 H   0  0  0  0  0  0  0  0  0  0  0  0
   -2.2488    1.8290    1.7929 H   0  0  0  0  0  0  0  0  0  0  0  0
   -2.4758    0.0836    1.5866 H   0  0  0  0  0  0  0  0  0  0  0  0
   -4.5605    0.4219    0.3515 H   0  0  0  0  0  0  0  0  0  0  0  0
   -4.6539    1.1200    1.9627 H   0  0  0  0  0  0  0  0  0  0  0  0
   -4.6985    3.3165    1.1606 H   0  0  0  0  0  0  0  0  0  0  0  0
   -5.4956    2.4712   -0.1549 H   0  0  0  0  0  0  0  0  0  0  0  0
   -2.7776    3.7380   -0.0323 H   0  0  0  0  0  0  0  0  0  0  0  0
   -3.9290    3.7037   -1.3612 H   0  0  0  0  0  0  0  0  0  0  0  0
   -3.3362    1.2941   -1.7994 H   0  0  0  0  0  0  0  0  0  0  0  0
   -1.9511    2.3901   -1.9077 H   0  0  0  0  0  0  0  0  0  0  0  0
   -1.2622   -0.0092   -2.4806 H   0  0  0  0  0  0  0  0  0  0  0  0
    0.0162    1.2018   -2.3142 H   0  0  0  0  0  0  0  0  0  0  0  0
    0.1877   -1.8194   -1.9265 H   0  0  0  0  0  0  0  0  0  0  0  0
    1.0115   -0.8349   -3.1335 H   0  0  0  0  0  0  0  0  0  0  0  0
    2.3195    0.3087   -1.3639 H   0  0  0  0  0  0  0  0  0  0  0  0
    3.3445   -1.6697   -2.3154 H   0  0  0  0  0  0  0  0  0  0  0  0
    2.3946   -2.7524   -1.2995 H   0  0  0  0  0  0  0  0  0  0  0  0
    4.4897   -0.7386   -0.3293 H   0  0  0  0  0  0  0  0  0  0  0  0
    4.6737   -2.4878   -0.4381 H   0  0  0  0  0  0  0  0  0  0  0  0
  1  2  3  0
  2  3  1  0
  3  4  1  0
  4  5  3  0
  3  6  2  3
  6  7  1  0
  7  8  2  0
  8  9  1  0
  9 10  2  0
 10 11  1  0
 11 12  1  0
 12 13  1  0
 13 14  1  0
 14 15  1  0
 15 16  1  0
 10 17  1  0
 17 18  1  0
 18 19  1  0
 19 20  1  0
 20 21  1  0
 21  6  1  0
 19  8  1  0
 16 11  1  0
  7 22  1  0
  9 23  1  0
 12 24  1  0
 12 25  1  0
 13 26  1  0
 13 27  1  0
 14 28  1  0
 14 29  1  0
 15 30  1  0
 15 31  1  0
 16 32  1  0
 16 33  1  0
 17 34  1  0
 17 35  1  0
 18 36  1  0
 18 37  1  0
 19 38  1  0
 20 39  1  0
 20 40  1  0
 21 41  1  0
 21 42  1  0
M  END
$$$$
