
     RDKit          3D

 43 44  0  0  0  0  0  0  0  0999 V2000
    6.1170   -2.2930   -4.4402 C   0  0  0  0  0  0  0  0  0  0  0  0
    5.3384   -1.2830   -3.8057 O   0  0  0  0  0  0  0  0  0  0  0  0
    4.8262   -1.5790   -2.5722 C   0  0  0  0  0  0  0  0  0  0  0  0
    5.0476   -2.7513   -1.8520 C   0  0  0  0  0  0  0  0  0  0  0  0
    4.4451   -2.9232   -0.6021 C   0  0  0  0  0  0  0  0  0  0  0  0
    3.6224   -1.9273   -0.0679 C   0  0  0  0  0  0  0  0  0  0  0  0
    3.3979   -0.7458   -0.7743 C   0  0  0  0  0  0  0  0  0  0  0  0
    2.5904    0.3142   -0.3066 N   0  0  0  0  0  0  0  0  0  0  0  0
    1.9296    0.4033    0.9083 C   0  0  0  0  0  0  0  0  0  0  0  0
    1.9372   -0.4334    1.8089 O   0  0  0  0  0  0  0  0  0  0  0  0
    1.1752    1.7033    1.0782 C   0  0  0  0  0  0  0  0  0  0  0  0
   -0.2571    1.4786    1.5088 C   0  0  0  0  0  0  0  0  0  0  0  0
   -0.5171    1.1159    2.9527 C   0  0  0  0  0  0  0  0  0  0  0  0
   -1.1740    1.6050    0.5949 N   0  0  0  0  0  0  0  0  0  0  0  0
   -2.4755    1.3880    0.9337 N   0  0  0  0  0  0  0  0  0  0  0  0
   -3.4711    1.5603   -0.0142 C   0  0  0  0  0  0  0  0  0  0  0  0
   -3.2774    1.8979   -1.1797 O   0  0  0  0  0  0  0  0  0  0  0  0
   -4.8658    1.2560    0.4210 C   0  0  0  0  0  0  0  0  0  0  0  0
   -5.7231    0.7373   -0.5686 C   0  0  0  0  0  0  0  0  0  0  0  0
   -7.0483    0.4094   -0.2722 C   0  0  0  0  0  0  0  0  0  0  0  0
   -7.5380    0.6027    1.0153 C   0  0  0  0  0  0  0  0  0  0  0  0
   -6.7048    1.1280    2.0043 C   0  0  0  0  0  0  0  0  0  0  0  0
   -5.3729    1.4595    1.7131 C   0  0  0  0  0  0  0  0  0  0  0  0
   -4.4560    2.1446    3.0098 Cl  0  0  0  0  0  0  0  0  0  0  0  0
    4.0042   -0.5843   -2.0283 C   0  0  0  0  0  0  0  0  0  0  0  0
    7.0374   -2.4895   -3.8790 H   0  0  0  0  0  0  0  0  0  0  0  0
    5.5357   -3.2099   -4.5861 H   0  0  0  0  0  0  0  0  0  0  0  0
    6.4044   -1.9236   -5.4303 H   0  0  0  0  0  0  0  0  0  0  0  0
    5.6795   -3.5481   -2.2285 H   0  0  0  0  0  0  0  0  0  0  0  0
    4.6132   -3.8378   -0.0377 H   0  0  0  0  0  0  0  0  0  0  0  0
    3.1665   -2.1118    0.9024 H   0  0  0  0  0  0  0  0  0  0  0  0
    2.4800    1.0894   -0.9497 H   0  0  0  0  0  0  0  0  0  0  0  0
    1.1782    2.2851    0.1507 H   0  0  0  0  0  0  0  0  0  0  0  0
    1.6929    2.3039    1.8361 H   0  0  0  0  0  0  0  0  0  0  0  0
   -1.1774    1.8613    3.4040 H   0  0  0  0  0  0  0  0  0  0  0  0
   -0.9823    0.1276    3.0055 H   0  0  0  0  0  0  0  0  0  0  0  0
    0.4158    1.0972    3.5236 H   0  0  0  0  0  0  0  0  0  0  0  0
   -2.7138    1.1203    1.8820 H   0  0  0  0  0  0  0  0  0  0  0  0
   -5.3536    0.5837   -1.5835 H   0  0  0  0  0  0  0  0  0  0  0  0
   -7.6948    0.0081   -1.0495 H   0  0  0  0  0  0  0  0  0  0  0  0
   -8.5705    0.3519    1.2480 H   0  0  0  0  0  0  0  0  0  0  0  0
   -7.1067    1.2863    3.0047 H   0  0  0  0  0  0  0  0  0  0  0  0
    3.8456    0.3223   -2.6076 H   0  0  0  0  0  0  0  0  0  0  0  0
  1  2  1  0
  2  3  1  0
  3  4  2  0
  4  5  1  0
  5  6  2  0
  6  7  1  0
  7  8  1  0
  8  9  1  0
  9 10  2  0
  9 11  1  0
 11 12  1  0
 12 13  1  0
 12 14  2  3
 14 15  1  0
 15 16  1  0
 16 17  2  0
 16 18  1  0
 18 19  2  0
 19 20  1  0
 20 21  2  0
 21 22  1  0
 22 23  2  0
 23 24  1  0
  7 25  2  0
 25  3  1  0
 23 18  1  0
  1 26  1  0
  1 27  1  0
  1 28  1  0
  4 29  1  0
  5 30  1  0
  6 31  1  0
  8 32  1  0
 11 33  1  0
 11 34  1  0
 13 35  1  0
 13 36  1  0
 13 37  1  0
 15 38  1  0
 19 39  1  0
 20 40  1  0
 21 41  1  0
 22 42  1  0
 25 43  1  0
M  END
$$$$
