
     RDKit          3D

 62 64  0  0  0  0  0  0  0  0999 V2000
    8.5066    4.4301    0.3895 C   0  0  0  0  0  0  0  0  0  0  0  0
    7.8300    3.9900    1.5629 O   0  0  0  0  0  0  0  0  0  0  0  0
    6.5244    3.6064    1.4188 C   0  0  0  0  0  0  0  0  0  0  0  0
    5.7939    3.6095    0.2297 C   0  0  0  0  0  0  0  0  0  0  0  0
    4.4601    3.1861    0.2224 C   0  0  0  0  0  0  0  0  0  0  0  0
    3.8409    2.7536    1.4014 C   0  0  0  0  0  0  0  0  0  0  0  0
    2.4143    2.2584    1.3839 C   0  0  0  0  0  0  0  0  0  0  0  0
    2.3193    0.8702    0.7447 C   0  0  0  0  0  0  0  0  0  0  0  0
    0.9027    0.3240    0.7756 C   0  0  0  0  0  0  0  0  0  0  0  0
   -0.0084    0.8890    1.3694 O   0  0  0  0  0  0  0  0  0  0  0  0
    0.8041   -0.8508    0.0640 N   0  0  0  0  0  0  0  0  0  0  0  0
   -0.3180   -1.6865   -0.1080 C   0  0  0  0  0  0  0  0  0  0  0  0
   -1.5330   -1.5106    0.5516 C   0  0  0  0  0  0  0  0  0  0  0  0
   -2.5746   -2.4144    0.3171 C   0  0  0  0  0  0  0  0  0  0  0  0
   -4.1006   -2.2114    1.2026 S   0  0  0  0  0  6  0  0  0  0  0  0
   -5.0291   -3.2244    0.7434 O   0  0  0  0  0  0  0  0  0  0  0  0
   -3.7670   -2.0913    2.6050 O   0  0  0  0  0  0  0  0  0  0  0  0
   -4.6791   -0.7056    0.6408 N   0  0  0  0  0  0  0  0  0  0  0  0
   -4.9220   -0.6177   -0.8269 C   0  0  0  0  0  0  0  0  0  0  0  0
   -5.7251    0.6345   -1.1704 C   0  0  0  0  0  0  0  0  0  0  0  0
   -7.1026    0.6199   -0.5101 C   0  0  0  0  0  0  0  0  0  0  0  0
   -7.1055   -0.1685    0.7996 C   0  0  0  0  0  0  0  0  0  0  0  0
   -5.7495   -0.1048    1.4900 C   0  0  0  0  0  0  0  0  0  0  0  0
   -2.4168   -3.4878   -0.5650 C   0  0  0  0  0  0  0  0  0  0  0  0
   -1.1988   -3.6651   -1.2246 C   0  0  0  0  0  0  0  0  0  0  0  0
   -0.1347   -2.7778   -0.9992 C   0  0  0  0  0  0  0  0  0  0  0  0
    1.1370   -2.9218   -1.6315 N   0  0  0  0  0  0  0  0  0  0  0  0
    1.7414   -4.2290   -1.3560 C   0  0  0  0  0  0  0  0  0  0  0  0
    1.0448   -2.6083   -3.0616 C   0  0  0  0  0  0  0  0  0  0  0  0
    4.5770    2.7564    2.5934 C   0  0  0  0  0  0  0  0  0  0  0  0
    5.9067    3.1816    2.5986 C   0  0  0  0  0  0  0  0  0  0  0  0
    9.5305    4.6984    0.6751 H   0  0  0  0  0  0  0  0  0  0  0  0
    8.0300    5.3219   -0.0324 H   0  0  0  0  0  0  0  0  0  0  0  0
    8.5701    3.6301   -0.3544 H   0  0  0  0  0  0  0  0  0  0  0  0
    6.2309    3.9332   -0.7095 H   0  0  0  0  0  0  0  0  0  0  0  0
    3.9067    3.1970   -0.7153 H   0  0  0  0  0  0  0  0  0  0  0  0
    2.0197    2.2313    2.4092 H   0  0  0  0  0  0  0  0  0  0  0  0
    1.7905    2.9761    0.8352 H   0  0  0  0  0  0  0  0  0  0  0  0
    2.9665    0.1631    1.2804 H   0  0  0  0  0  0  0  0  0  0  0  0
    2.6485    0.9165   -0.3008 H   0  0  0  0  0  0  0  0  0  0  0  0
    1.6159   -1.1947   -0.4465 H   0  0  0  0  0  0  0  0  0  0  0  0
   -1.6804   -0.7075    1.2753 H   0  0  0  0  0  0  0  0  0  0  0  0
   -5.4511   -1.5059   -1.1878 H   0  0  0  0  0  0  0  0  0  0  0  0
   -3.9532   -0.5592   -1.3415 H   0  0  0  0  0  0  0  0  0  0  0  0
   -5.1724    1.5213   -0.8343 H   0  0  0  0  0  0  0  0  0  0  0  0
   -5.8384    0.7309   -2.2570 H   0  0  0  0  0  0  0  0  0  0  0  0
   -7.4171    1.6547   -0.3272 H   0  0  0  0  0  0  0  0  0  0  0  0
   -7.8475    0.1834   -1.1901 H   0  0  0  0  0  0  0  0  0  0  0  0
   -7.8874    0.2209    1.4618 H   0  0  0  0  0  0  0  0  0  0  0  0
   -7.3583   -1.2196    0.5938 H   0  0  0  0  0  0  0  0  0  0  0  0
   -5.4714    0.9351    1.7005 H   0  0  0  0  0  0  0  0  0  0  0  0
   -5.8145   -0.6059    2.4629 H   0  0  0  0  0  0  0  0  0  0  0  0
   -3.2272   -4.1939   -0.7317 H   0  0  0  0  0  0  0  0  0  0  0  0
   -1.0836   -4.5057   -1.9019 H   0  0  0  0  0  0  0  0  0  0  0  0
    2.7924   -4.2121   -1.6623 H   0  0  0  0  0  0  0  0  0  0  0  0
    1.2434   -5.0408   -1.8994 H   0  0  0  0  0  0  0  0  0  0  0  0
    1.7237   -4.4575   -0.2827 H   0  0  0  0  0  0  0  0  0  0  0  0
    0.5742   -1.6326   -3.2240 H   0  0  0  0  0  0  0  0  0  0  0  0
    0.4805   -3.3674   -3.6145 H   0  0  0  0  0  0  0  0  0  0  0  0
    2.0520   -2.5567   -3.4883 H   0  0  0  0  0  0  0  0  0  0  0  0
    4.1192    2.4336    3.5285 H   0  0  0  0  0  0  0  0  0  0  0  0
    6.4694    3.1779    3.5315 H   0  0  0  0  0  0  0  0  0  0  0  0
  1  2  1  0
  2  3  1  0
  3  4  2  0
  4  5  1  0
  5  6  2  0
  6  7  1  0
  7  8  1  0
  8  9  1  0
  9 10  2  0
  9 11  1  0
 11 12  1  0
 12 13  2  0
 13 14  1  0
 14 15  1  0
 15 16  2  0
 15 17  2  0
 15 18  1  0
 18 19  1  0
 19 20  1  0
 20 21  1  0
 21 22  1  0
 22 23  1  0
 14 24  2  0
 24 25  1  0
 25 26  2  0
 26 27  1  0
 27 28  1  0
 27 29  1  0
  6 30  1  0
 30 31  2  0
 31  3  1  0
 26 12  1  0
 23 18  1  0
  1 32  1  0
  1 33  1  0
  1 34  1  0
  4 35  1  0
  5 36  1  0
  7 37  1  0
  7 38  1  0
  8 39  1  0
  8 40  1  0
 11 41  1  0
 13 42  1  0
 19 43  1  0
 19 44  1  0
 20 45  1  0
 20 46  1  0
 21 47  1  0
 21 48  1  0
 22 49  1  0
 22 50  1  0
 23 51  1  0
 23 52  1  0
 24 53  1  0
 25 54  1  0
 28 55  1  0
 28 56  1  0
 28 57  1  0
 29 58  1  0
 29 59  1  0
 29 60  1  0
 30 61  1  0
 31 62  1  0
M  END
$$$$
