
     RDKit          3D

 42 43  0  0  0  0  0  0  0  0999 V2000
   -3.5314   -2.0598    4.3444 C   0  0  0  0  0  0  0  0  0  0  0  0
   -3.9432   -0.8657    3.4798 C   0  0  0  0  0  0  0  0  0  0  0  0
   -4.0979    0.3968    4.3314 C   0  0  0  0  0  0  0  0  0  0  0  0
   -2.9746   -0.6483    2.3309 C   0  0  0  0  0  0  0  0  0  0  0  0
   -1.6267   -0.3368    2.5510 C   0  0  0  0  0  0  0  0  0  0  0  0
   -0.7569   -0.1418    1.4746 C   0  0  0  0  0  0  0  0  0  0  0  0
   -1.2123   -0.2527    0.1601 C   0  0  0  0  0  0  0  0  0  0  0  0
   -0.2588   -0.0371   -0.7959 O   0  0  0  0  0  0  0  0  0  0  0  0
   -0.6785   -0.1316   -2.1559 C   0  0  0  0  0  0  0  0  0  0  0  0
    0.4887    0.1432   -3.1050 C   0  0  0  0  0  0  0  0  0  0  0  0
    0.4320   -0.1243   -4.3026 O   0  0  0  0  0  0  0  0  0  0  0  0
    1.5787    0.7418   -2.5082 N   0  0  0  0  0  0  0  0  0  0  0  0
    2.8178    0.9500   -3.2198 C   0  0  0  0  0  0  0  0  0  0  0  0
    3.6650   -0.3196   -3.3239 C   0  0  0  0  0  0  0  0  0  0  0  0
    5.1187    0.1547   -3.3716 C   0  0  0  0  0  0  0  0  0  0  0  0
    5.0840    1.6666   -3.1673 C   0  0  0  0  0  0  0  0  0  0  0  0
    3.7390    1.9364   -2.5133 C   0  0  0  0  0  0  0  0  0  0  0  0
   -2.5514   -0.5631   -0.0698 C   0  0  0  0  0  0  0  0  0  0  0  0
   -3.4241   -0.7589    1.0076 C   0  0  0  0  0  0  0  0  0  0  0  0
   -3.4319   -2.9668    3.7376 H   0  0  0  0  0  0  0  0  0  0  0  0
   -2.5744   -1.8897    4.8496 H   0  0  0  0  0  0  0  0  0  0  0  0
   -4.2844   -2.2538    5.1160 H   0  0  0  0  0  0  0  0  0  0  0  0
   -4.9327   -1.0961    3.0631 H   0  0  0  0  0  0  0  0  0  0  0  0
   -4.8612    0.2491    5.1031 H   0  0  0  0  0  0  0  0  0  0  0  0
   -4.4047    1.2494    3.7154 H   0  0  0  0  0  0  0  0  0  0  0  0
   -3.1641    0.6682    4.8356 H   0  0  0  0  0  0  0  0  0  0  0  0
   -1.2380   -0.2427    3.5623 H   0  0  0  0  0  0  0  0  0  0  0  0
    0.2854    0.0986    1.6679 H   0  0  0  0  0  0  0  0  0  0  0  0
   -1.0342   -1.1464   -2.3681 H   0  0  0  0  0  0  0  0  0  0  0  0
   -1.4516    0.6144   -2.3726 H   0  0  0  0  0  0  0  0  0  0  0  0
    1.5844    0.7236   -1.4922 H   0  0  0  0  0  0  0  0  0  0  0  0
    2.5865    1.3146   -4.2291 H   0  0  0  0  0  0  0  0  0  0  0  0
    3.5184   -0.9686   -2.4513 H   0  0  0  0  0  0  0  0  0  0  0  0
    3.4006   -0.9078   -4.2093 H   0  0  0  0  0  0  0  0  0  0  0  0
    5.6953   -0.3291   -2.5745 H   0  0  0  0  0  0  0  0  0  0  0  0
    5.5968   -0.1020   -4.3229 H   0  0  0  0  0  0  0  0  0  0  0  0
    5.9216    2.0224   -2.5599 H   0  0  0  0  0  0  0  0  0  0  0  0
    5.1351    2.1724   -4.1390 H   0  0  0  0  0  0  0  0  0  0  0  0
    3.7913    1.7294   -1.4371 H   0  0  0  0  0  0  0  0  0  0  0  0
    3.4148    2.9739   -2.6402 H   0  0  0  0  0  0  0  0  0  0  0  0
   -2.9559   -0.6626   -1.0716 H   0  0  0  0  0  0  0  0  0  0  0  0
   -4.4649   -1.0004    0.8005 H   0  0  0  0  0  0  0  0  0  0  0  0
  1  2  1  0
  2  3  1  0
  2  4  1  0
  4  5  2  0
  5  6  1  0
  6  7  2  0
  7  8  1  0
  8  9  1  0
  9 10  1  0
 10 11  2  0
 10 12  1  0
 12 13  1  0
 13 14  1  0
 14 15  1  0
 15 16  1  0
 16 17  1  0
  7 18  1  0
 18 19  2  0
 19  4  1  0
 17 13  1  0
  1 20  1  0
  1 21  1  0
  1 22  1  0
  2 23  1  0
  3 24  1  0
  3 25  1  0
  3 26  1  0
  5 27  1  0
  6 28  1  0
  9 29  1  0
  9 30  1  0
 12 31  1  0
 13 32  1  0
 14 33  1  0
 14 34  1  0
 15 35  1  0
 15 36  1  0
 16 37  1  0
 16 38  1  0
 17 39  1  0
 17 40  1  0
 18 41  1  0
 19 42  1  0
M  END
$$$$
