
     RDKit          3D

 42 44  0  0  0  0  0  0  0  0999 V2000
   -6.9858   -0.1033   -1.3191 C   0  0  0  0  0  0  0  0  0  0  0  0
   -5.6099   -0.0274   -0.7253 C   0  0  0  0  0  0  0  0  0  0  0  0
   -4.9035    1.1798   -0.7287 C   0  0  0  0  0  0  0  0  0  0  0  0
   -3.6030    1.2611   -0.2053 C   0  0  0  0  0  0  0  0  0  0  0  0
   -2.8861    2.5854   -0.2322 C   0  0  0  0  0  0  0  0  0  0  0  0
   -3.0010    0.1010    0.3296 C   0  0  0  0  0  0  0  0  0  0  0  0
   -1.6627    0.1738    0.8945 C   0  0  0  0  0  0  0  0  0  0  0  0
   -1.4276    0.3970    2.2361 C   0  0  0  0  0  0  0  0  0  0  0  0
    0.2623    0.4177    2.5168 S   0  0  0  0  0  0  0  0  0  0  0  0
    0.5356    0.1351    0.8594 C   0  0  0  0  0  0  0  0  0  0  0  0
    1.7858    0.0228    0.3074 N   0  0  0  0  0  0  0  0  0  0  0  0
    2.9890    0.1135    0.9598 C   0  0  0  0  0  0  0  0  0  0  0  0
    3.1842    0.3108    2.1513 O   0  0  0  0  0  0  0  0  0  0  0  0
    4.1348   -0.0628    0.0194 C   0  0  0  0  0  0  0  0  0  0  0  0
    5.3907   -0.0032    0.4896 C   0  0  0  0  0  0  0  0  0  0  0  0
    6.5641   -0.1566   -0.3126 C   0  0  0  0  0  0  0  0  0  0  0  0
    7.8773   -0.1024    0.1331 C   0  0  0  0  0  0  0  0  0  0  0  0
    8.8386   -0.2914   -0.9012 C   0  0  0  0  0  0  0  0  0  0  0  0
    8.2404   -0.4873   -2.1224 C   0  0  0  0  0  0  0  0  0  0  0  0
    6.5387   -0.4422   -2.0139 S   0  0  0  0  0  0  0  0  0  0  0  0
   -0.5354    0.0260    0.1085 N   0  0  0  0  0  0  0  0  0  0  0  0
   -3.6930   -1.1299    0.3088 C   0  0  0  0  0  0  0  0  0  0  0  0
   -3.0758   -2.3966    0.8407 C   0  0  0  0  0  0  0  0  0  0  0  0
   -4.9934   -1.1765   -0.2193 C   0  0  0  0  0  0  0  0  0  0  0  0
   -7.5832   -0.8757   -0.8235 H   0  0  0  0  0  0  0  0  0  0  0  0
   -6.9202   -0.3367   -2.3863 H   0  0  0  0  0  0  0  0  0  0  0  0
   -7.5174    0.8461   -1.1960 H   0  0  0  0  0  0  0  0  0  0  0  0
   -5.3724    2.0691   -1.1466 H   0  0  0  0  0  0  0  0  0  0  0  0
   -2.6745    2.9262    0.7862 H   0  0  0  0  0  0  0  0  0  0  0  0
   -1.9509    2.5040   -0.7954 H   0  0  0  0  0  0  0  0  0  0  0  0
   -3.4910    3.3590   -0.7176 H   0  0  0  0  0  0  0  0  0  0  0  0
   -2.1400    0.5434    3.0352 H   0  0  0  0  0  0  0  0  0  0  0  0
    1.7493   -0.1440   -0.6875 H   0  0  0  0  0  0  0  0  0  0  0  0
    3.9085   -0.2349   -1.0240 H   0  0  0  0  0  0  0  0  0  0  0  0
    5.5498    0.1734    1.5531 H   0  0  0  0  0  0  0  0  0  0  0  0
    8.1400    0.0680    1.1711 H   0  0  0  0  0  0  0  0  0  0  0  0
    9.9116   -0.2837   -0.7541 H   0  0  0  0  0  0  0  0  0  0  0  0
    8.7215   -0.6553   -3.0762 H   0  0  0  0  0  0  0  0  0  0  0  0
   -2.9275   -2.3228    1.9226 H   0  0  0  0  0  0  0  0  0  0  0  0
   -3.7179   -3.2642    0.6538 H   0  0  0  0  0  0  0  0  0  0  0  0
   -2.1173   -2.5939    0.3499 H   0  0  0  0  0  0  0  0  0  0  0  0
   -5.5326   -2.1221   -0.2400 H   0  0  0  0  0  0  0  0  0  0  0  0
  1  2  1  0
  2  3  2  0
  3  4  1  0
  4  5  1  0
  4  6  2  0
  6  7  1  0
  7  8  2  0
  8  9  1  0
  9 10  1  0
 10 11  1  0
 11 12  1  0
 12 13  2  0
 12 14  1  0
 14 15  2  3
 15 16  1  0
 16 17  2  0
 17 18  1  0
 18 19  2  0
 19 20  1  0
 10 21  2  0
  6 22  1  0
 22 23  1  0
 22 24  2  0
 24  2  1  0
 21  7  1  0
 20 16  1  0
  1 25  1  0
  1 26  1  0
  1 27  1  0
  3 28  1  0
  5 29  1  0
  5 30  1  0
  5 31  1  0
  8 32  1  0
 11 33  1  0
 14 34  1  0
 15 35  1  0
 17 36  1  0
 18 37  1  0
 19 38  1  0
 23 39  1  0
 23 40  1  0
 23 41  1  0
 24 42  1  0
M  END
$$$$
