
     RDKit          3D

 43 45  0  0  0  0  0  0  0  0999 V2000
   -5.6995   -1.6815   -0.9929 C   0  0  0  0  0  0  0  0  0  0  0  0
   -5.0188   -0.5827   -0.3150 N   0  0  0  0  0  0  0  0  0  0  0  0
   -4.2539   -1.0788    0.8487 C   0  0  0  0  0  0  0  0  0  0  0  0
   -3.1509   -0.1089    1.3355 C   0  0  0  0  0  0  0  0  0  0  0  0
   -2.1796    0.1930    0.2563 N   0  0  0  0  0  0  0  0  0  0  0  0
   -0.8240    0.2639    0.5513 C   0  0  0  0  0  0  0  0  0  0  0  0
    0.1115   -0.4594   -0.2134 C   0  0  0  0  0  0  0  0  0  0  0  0
    1.4897   -0.4309    0.0558 C   0  0  0  0  0  0  0  0  0  0  0  0
    1.9866    0.3497    1.1004 C   0  0  0  0  0  0  0  0  0  0  0  0
    3.4320    0.3941    1.4298 C   0  0  0  0  0  0  0  0  0  0  0  0
    3.7675    0.4936    2.6066 O   0  0  0  0  0  0  0  0  0  0  0  0
    4.4775    0.3192    0.3790 C   0  0  0  0  0  0  0  0  0  0  0  0
    5.6801   -0.3318    0.6816 C   0  0  0  0  0  0  0  0  0  0  0  0
    6.6939   -0.4131   -0.2757 C   0  0  0  0  0  0  0  0  0  0  0  0
    6.5079    0.1688   -1.5288 C   0  0  0  0  0  0  0  0  0  0  0  0
    7.8787    0.0606   -2.8256 Br  0  0  0  0  0  0  0  0  0  0  0  0
    5.3219    0.8381   -1.8313 C   0  0  0  0  0  0  0  0  0  0  0  0
    4.3060    0.9201   -0.8747 C   0  0  0  0  0  0  0  0  0  0  0  0
    1.1011    1.0797    1.8888 C   0  0  0  0  0  0  0  0  0  0  0  0
   -0.2723    1.0339    1.5975 C   0  0  0  0  0  0  0  0  0  0  0  0
   -1.1058    1.9167    2.3837 N   0  0  0  0  0  4  0  0  0  0  0  0
   -1.3652    3.0282    1.9027 O   0  0  0  0  0  0  0  0  0  0  0  0
   -1.4534    1.5110    3.5021 O   0  0  0  0  0  1  0  0  0  0  0  0
   -2.6490   -0.0840   -1.1144 C   0  0  0  0  0  0  0  0  0  0  0  0
   -4.1648    0.1963   -1.2367 C   0  0  0  0  0  0  0  0  0  0  0  0
   -6.3494   -1.2985   -1.7874 H   0  0  0  0  0  0  0  0  0  0  0  0
   -6.3454   -2.2246   -0.2941 H   0  0  0  0  0  0  0  0  0  0  0  0
   -4.9941   -2.3929   -1.4371 H   0  0  0  0  0  0  0  0  0  0  0  0
   -4.9501   -1.2684    1.6741 H   0  0  0  0  0  0  0  0  0  0  0  0
   -3.7723   -2.0364    0.6065 H   0  0  0  0  0  0  0  0  0  0  0  0
   -2.6514   -0.5769    2.1923 H   0  0  0  0  0  0  0  0  0  0  0  0
   -3.6136    0.8256    1.6735 H   0  0  0  0  0  0  0  0  0  0  0  0
   -0.2208   -1.0995   -1.0277 H   0  0  0  0  0  0  0  0  0  0  0  0
    2.1518   -1.0457   -0.5501 H   0  0  0  0  0  0  0  0  0  0  0  0
    5.8303   -0.7748    1.6648 H   0  0  0  0  0  0  0  0  0  0  0  0
    7.6220   -0.9238   -0.0313 H   0  0  0  0  0  0  0  0  0  0  0  0
    5.1843    1.3073   -2.8026 H   0  0  0  0  0  0  0  0  0  0  0  0
    3.4011    1.4721   -1.1158 H   0  0  0  0  0  0  0  0  0  0  0  0
    1.4742    1.6900    2.7100 H   0  0  0  0  0  0  0  0  0  0  0  0
   -2.1183    0.5593   -1.8266 H   0  0  0  0  0  0  0  0  0  0  0  0
   -2.4537   -1.1292   -1.3839 H   0  0  0  0  0  0  0  0  0  0  0  0
   -4.3338    1.2566   -1.0074 H   0  0  0  0  0  0  0  0  0  0  0  0
   -4.4780    0.0642   -2.2798 H   0  0  0  0  0  0  0  0  0  0  0  0
  1  2  1  0
  2  3  1  0
  3  4  1  0
  4  5  1  0
  5  6  1  0
  6  7  2  0
  7  8  1  0
  8  9  2  0
  9 10  1  0
 10 11  2  0
 10 12  1  0
 12 13  2  0
 13 14  1  0
 14 15  2  0
 15 16  1  0
 15 17  1  0
 17 18  2  0
  9 19  1  0
 19 20  2  0
 20 21  1  0
 21 22  2  0
 21 23  1  0
  5 24  1  0
 24 25  1  0
 25  2  1  0
 20  6  1  0
 18 12  1  0
  1 26  1  0
  1 27  1  0
  1 28  1  0
  3 29  1  0
  3 30  1  0
  4 31  1  0
  4 32  1  0
  7 33  1  0
  8 34  1  0
 13 35  1  0
 14 36  1  0
 17 37  1  0
 18 38  1  0
 19 39  1  0
 24 40  1  0
 24 41  1  0
 25 42  1  0
 25 43  1  0
M  CHG  2  21   1  23  -1
M  END
$$$$
