
     RDKit          3D

 48 50  0  0  0  0  0  0  0  0999 V2000
    3.3154   -4.7756   -1.3076 C   0  0  0  0  0  0  0  0  0  0  0  0
    3.1711   -3.3680   -1.1848 O   0  0  0  0  0  0  0  0  0  0  0  0
    2.1340   -2.8987   -0.4165 C   0  0  0  0  0  0  0  0  0  0  0  0
    1.1831   -3.7122    0.2102 C   0  0  0  0  0  0  0  0  0  0  0  0
    0.1598   -3.1426    0.9713 C   0  0  0  0  0  0  0  0  0  0  0  0
    0.0861   -1.7567    1.1098 C   0  0  0  0  0  0  0  0  0  0  0  0
   -0.9805   -1.1301    1.9156 C   0  0  0  0  0  0  0  0  0  0  0  0
   -1.8973   -1.8322    2.5070 N   0  0  0  0  0  0  0  0  0  0  0  0
   -2.8500   -1.1191    3.1904 N   0  0  0  0  0  0  0  0  0  0  0  0
   -3.5862   -0.0809    2.6923 C   0  0  0  0  0  0  0  0  0  0  0  0
   -3.3142    0.6284    1.6201 N   0  0  0  0  0  0  0  0  0  0  0  0
   -4.2791    1.5778    1.4017 C   0  0  0  0  0  0  0  0  0  0  0  0
   -4.2021    2.3980    0.3392 O   0  0  0  0  0  0  0  0  0  0  0  0
   -5.2915    1.6395    2.3424 C   0  0  0  0  0  0  0  0  0  0  0  0
   -6.4440    2.5805    2.5195 C   0  0  0  0  0  0  0  0  0  0  0  0
   -7.2435    2.7450    1.2533 C   0  0  0  0  0  0  0  0  0  0  0  0
   -6.8085    2.7441    0.1103 O   0  0  0  0  0  0  0  0  0  0  0  0
   -8.5508    2.9781    1.4861 O   0  0  0  0  0  0  0  0  0  0  0  0
   -5.0237    0.4037    3.5124 S   0  0  0  0  0  0  0  0  0  0  0  0
    1.0264   -0.9309    0.4857 C   0  0  0  0  0  0  0  0  0  0  0  0
    2.0508   -1.4960   -0.2821 C   0  0  0  0  0  0  0  0  0  0  0  0
    3.0260   -0.7735   -0.9248 O   0  0  0  0  0  0  0  0  0  0  0  0
    2.8689    0.6417   -0.9957 C   0  0  0  0  0  0  0  0  0  0  0  0
    3.9492    1.2172   -1.8847 C   0  0  0  0  0  0  0  0  0  0  0  0
    4.2152    0.6502   -3.1414 C   0  0  0  0  0  0  0  0  0  0  0  0
    5.1924    1.1965   -3.9764 C   0  0  0  0  0  0  0  0  0  0  0  0
    5.9048    2.3198   -3.5626 C   0  0  0  0  0  0  0  0  0  0  0  0
    7.1080    2.9960   -4.5901 Cl  0  0  0  0  0  0  0  0  0  0  0  0
    5.6473    2.9018   -2.3227 C   0  0  0  0  0  0  0  0  0  0  0  0
    4.6696    2.3543   -1.4876 C   0  0  0  0  0  0  0  0  0  0  0  0
    4.1978   -4.9687   -1.9256 H   0  0  0  0  0  0  0  0  0  0  0  0
    3.4847   -5.2431   -0.3319 H   0  0  0  0  0  0  0  0  0  0  0  0
    2.4518   -5.2177   -1.8151 H   0  0  0  0  0  0  0  0  0  0  0  0
    1.2076   -4.7934    0.1251 H   0  0  0  0  0  0  0  0  0  0  0  0
   -0.5747   -3.7846    1.4524 H   0  0  0  0  0  0  0  0  0  0  0  0
   -0.9431   -0.0291    1.9995 H   0  0  0  0  0  0  0  0  0  0  0  0
   -3.3486   -1.6760    3.8816 H   0  0  0  0  0  0  0  0  0  0  0  0
   -5.0966    2.6573    0.0386 H   0  0  0  0  0  0  0  0  0  0  0  0
   -6.0763    3.5686    2.8179 H   0  0  0  0  0  0  0  0  0  0  0  0
   -7.1177    2.2206    3.3066 H   0  0  0  0  0  0  0  0  0  0  0  0
   -8.9538    3.0870    0.5980 H   0  0  0  0  0  0  0  0  0  0  0  0
    0.9418    0.1424    0.6143 H   0  0  0  0  0  0  0  0  0  0  0  0
    1.8959    0.9072   -1.4281 H   0  0  0  0  0  0  0  0  0  0  0  0
    2.9576    1.0664    0.0116 H   0  0  0  0  0  0  0  0  0  0  0  0
    3.6637   -0.2305   -3.4688 H   0  0  0  0  0  0  0  0  0  0  0  0
    5.3914    0.7392   -4.9426 H   0  0  0  0  0  0  0  0  0  0  0  0
    6.2024    3.7793   -2.0007 H   0  0  0  0  0  0  0  0  0  0  0  0
    4.4793    2.8192   -0.5230 H   0  0  0  0  0  0  0  0  0  0  0  0
  1  2  1  0
  2  3  1  0
  3  4  2  0
  4  5  1  0
  5  6  2  0
  6  7  1  0
  7  8  2  3
  8  9  1  0
  9 10  1  0
 10 11  2  0
 11 12  1  0
 12 13  1  0
 12 14  2  0
 14 15  1  0
 15 16  1  0
 16 17  2  0
 16 18  1  0
 14 19  1  0
  6 20  1  0
 20 21  2  0
 21 22  1  0
 22 23  1  0
 23 24  1  0
 24 25  2  0
 25 26  1  0
 26 27  2  0
 27 28  1  0
 27 29  1  0
 29 30  2  0
 21  3  1  0
 30 24  1  0
 19 10  1  0
  1 31  1  0
  1 32  1  0
  1 33  1  0
  4 34  1  0
  5 35  1  0
  7 36  1  0
  9 37  1  0
 13 38  1  0
 15 39  1  0
 15 40  1  0
 18 41  1  0
 20 42  1  0
 23 43  1  0
 23 44  1  0
 25 45  1  0
 26 46  1  0
 29 47  1  0
 30 48  1  0
M  END
$$$$
