
     RDKit          3D

 40 43  0  0  0  0  0  0  0  0999 V2000
   -1.4228    4.6096    0.4889 C   0  0  0  0  0  0  0  0  0  0  0  0
   -1.4385    3.5855   -0.3746 C   0  0  0  0  0  0  0  0  0  0  0  0
   -0.3861    2.5135   -0.4557 C   0  0  0  0  0  0  0  0  0  0  0  0
   -0.9943    1.2200   -0.1420 N   0  0  0  0  0  0  0  0  0  0  0  0
   -1.0307    0.6729    1.1300 C   0  0  0  0  0  0  0  0  0  0  0  0
   -0.3041    1.5504    2.4597 S   0  0  0  0  0  0  0  0  0  0  0  0
    0.9105    0.3039    2.9890 C   0  0  0  0  0  0  0  0  0  0  0  0
    1.7639   -0.1940    1.8374 C   0  0  0  0  0  0  0  0  0  0  0  0
    1.7402   -1.4920    1.4878 C   0  0  0  0  0  0  0  0  0  0  0  0
    2.5508   -1.9575    0.3428 C   0  0  0  0  0  0  0  0  0  0  0  0
    2.5384   -3.1424    0.0235 O   0  0  0  0  0  0  0  0  0  0  0  0
    3.2692   -0.9680   -0.2785 N   0  0  0  0  0  0  0  0  0  0  0  0
    4.0839   -1.1535   -1.3742 C   0  0  0  0  0  0  0  0  0  0  0  0
    4.6842   -0.0353   -1.7980 C   0  0  0  0  0  0  0  0  0  0  0  0
    4.2468    1.3372   -0.8160 S   0  0  0  0  0  0  0  0  0  0  0  0
    3.2185    0.3257    0.1848 C   0  0  0  0  0  0  0  0  0  0  0  0
    2.5300    0.7528    1.1870 N   0  0  0  0  0  0  0  0  0  0  0  0
   -1.5566   -0.4724    1.4231 N   0  0  0  0  0  0  0  0  0  0  0  0
   -2.1385   -1.2199    0.3974 C   0  0  0  0  0  0  0  0  0  0  0  0
   -2.7130   -2.4556    0.7047 C   0  0  0  0  0  0  0  0  0  0  0  0
   -3.2970   -3.2373   -0.2957 C   0  0  0  0  0  0  0  0  0  0  0  0
   -3.3108   -2.7867   -1.6151 C   0  0  0  0  0  0  0  0  0  0  0  0
   -2.7409   -1.5545   -1.9324 C   0  0  0  0  0  0  0  0  0  0  0  0
   -2.1587   -0.7802   -0.9215 C   0  0  0  0  0  0  0  0  0  0  0  0
   -1.5434    0.5243   -1.2175 C   0  0  0  0  0  0  0  0  0  0  0  0
   -1.5377    0.9260   -2.3795 O   0  0  0  0  0  0  0  0  0  0  0  0
   -0.6302    4.7283    1.2219 H   0  0  0  0  0  0  0  0  0  0  0  0
   -2.2138    5.3534    0.4823 H   0  0  0  0  0  0  0  0  0  0  0  0
   -2.2511    3.5179   -1.0960 H   0  0  0  0  0  0  0  0  0  0  0  0
    0.0208    2.4990   -1.4736 H   0  0  0  0  0  0  0  0  0  0  0  0
    0.4606    2.7267    0.2023 H   0  0  0  0  0  0  0  0  0  0  0  0
    1.5579    0.7597    3.7461 H   0  0  0  0  0  0  0  0  0  0  0  0
    0.3773   -0.5171    3.4812 H   0  0  0  0  0  0  0  0  0  0  0  0
    1.1321   -2.2354    1.9877 H   0  0  0  0  0  0  0  0  0  0  0  0
    4.1860   -2.1406   -1.8080 H   0  0  0  0  0  0  0  0  0  0  0  0
    5.3597    0.0374   -2.6396 H   0  0  0  0  0  0  0  0  0  0  0  0
   -2.7060   -2.8099    1.7325 H   0  0  0  0  0  0  0  0  0  0  0  0
   -3.7409   -4.1974   -0.0433 H   0  0  0  0  0  0  0  0  0  0  0  0
   -3.7648   -3.3940   -2.3946 H   0  0  0  0  0  0  0  0  0  0  0  0
   -2.7506   -1.2003   -2.9608 H   0  0  0  0  0  0  0  0  0  0  0  0
  1  2  2  0
  2  3  1  0
  3  4  1  0
  4  5  1  0
  5  6  1  0
  6  7  1  0
  7  8  1  0
  8  9  2  0
  9 10  1  0
 10 11  2  0
 10 12  1  0
 12 13  1  0
 13 14  2  0
 14 15  1  0
 15 16  1  0
 16 17  2  0
  5 18  2  0
 18 19  1  0
 19 20  2  0
 20 21  1  0
 21 22  2  0
 22 23  1  0
 23 24  2  0
 24 25  1  0
 25 26  2  0
 25  4  1  0
 17  8  1  0
 24 19  1  0
 16 12  1  0
  1 27  1  0
  1 28  1  0
  2 29  1  0
  3 30  1  0
  3 31  1  0
  7 32  1  0
  7 33  1  0
  9 34  1  0
 13 35  1  0
 14 36  1  0
 20 37  1  0
 21 38  1  0
 22 39  1  0
 23 40  1  0
M  END
$$$$
