
     RDKit          3D

 45 47  0  0  0  0  0  0  0  0999 V2000
    7.0973   -2.5956    1.2889 C   0  0  0  0  0  0  0  0  0  0  0  0
    6.5528   -1.3401    0.6735 C   0  0  0  0  0  0  0  0  0  0  0  0
    7.4184   -0.3700    0.1548 C   0  0  0  0  0  0  0  0  0  0  0  0
    6.9124    0.7780   -0.4575 C   0  0  0  0  0  0  0  0  0  0  0  0
    5.5337    0.9697   -0.5595 C   0  0  0  0  0  0  0  0  0  0  0  0
    4.6572    0.0084   -0.0417 C   0  0  0  0  0  0  0  0  0  0  0  0
    3.1803    0.1604   -0.1316 C   0  0  0  0  0  0  0  0  0  0  0  0
    2.4587   -0.8300   -0.2140 O   0  0  0  0  0  0  0  0  0  0  0  0
    2.6939    1.4604   -0.0703 N   0  0  0  0  0  0  0  0  0  0  0  0
    1.3854    1.9152   -0.1819 C   0  0  0  0  0  0  0  0  0  0  0  0
    1.1918    3.5663   -0.0266 S   0  0  0  0  0  0  0  0  0  0  0  0
    0.4564    0.9266   -0.4010 N   0  0  0  0  0  0  0  0  0  0  0  0
   -0.9399    0.9198   -0.6097 C   0  0  0  0  0  0  0  0  0  0  0  0
   -1.5371   -0.3450   -0.7185 C   0  0  0  0  0  0  0  0  0  0  0  0
   -2.9130   -0.4843   -0.9275 C   0  0  0  0  0  0  0  0  0  0  0  0
   -3.7298    0.6448   -1.0339 C   0  0  0  0  0  0  0  0  0  0  0  0
   -5.2178    0.5069   -1.2603 C   0  0  0  0  0  0  0  0  0  0  0  0
   -5.9604   -0.1500   -0.1206 C   0  0  0  0  0  0  0  0  0  0  0  0
   -6.6668   -1.3399   -0.3187 C   0  0  0  0  0  0  0  0  0  0  0  0
   -7.3428   -1.9001    0.7549 C   0  0  0  0  0  0  0  0  0  0  0  0
   -7.3653   -1.3639    1.9931 N   0  0  0  0  0  0  0  0  0  0  0  0
   -6.6782   -0.2146    2.1650 C   0  0  0  0  0  0  0  0  0  0  0  0
   -5.9746    0.4233    1.1551 C   0  0  0  0  0  0  0  0  0  0  0  0
   -3.1362    1.9078   -0.9352 C   0  0  0  0  0  0  0  0  0  0  0  0
   -1.7559    2.0422   -0.7263 C   0  0  0  0  0  0  0  0  0  0  0  0
    5.1695   -1.1515    0.5553 C   0  0  0  0  0  0  0  0  0  0  0  0
    6.4264   -2.9704    2.0691 H   0  0  0  0  0  0  0  0  0  0  0  0
    8.0694   -2.4109    1.7582 H   0  0  0  0  0  0  0  0  0  0  0  0
    7.2154   -3.3672    0.5221 H   0  0  0  0  0  0  0  0  0  0  0  0
    8.4964   -0.5083    0.2167 H   0  0  0  0  0  0  0  0  0  0  0  0
    7.5972    1.5172   -0.8673 H   0  0  0  0  0  0  0  0  0  0  0  0
    5.1693    1.8541   -1.0744 H   0  0  0  0  0  0  0  0  0  0  0  0
    3.3499    2.2064    0.1156 H   0  0  0  0  0  0  0  0  0  0  0  0
    0.8715   -0.0073   -0.3806 H   0  0  0  0  0  0  0  0  0  0  0  0
   -0.9356   -1.2483   -0.6361 H   0  0  0  0  0  0  0  0  0  0  0  0
   -3.3396   -1.4823   -0.9991 H   0  0  0  0  0  0  0  0  0  0  0  0
   -5.3679   -0.0567   -2.1907 H   0  0  0  0  0  0  0  0  0  0  0  0
   -5.6712    1.4907   -1.4392 H   0  0  0  0  0  0  0  0  0  0  0  0
   -6.6947   -1.8283   -1.2870 H   0  0  0  0  0  0  0  0  0  0  0  0
   -7.9021   -2.8244    0.6419 H   0  0  0  0  0  0  0  0  0  0  0  0
   -6.7075    0.1964    3.1699 H   0  0  0  0  0  0  0  0  0  0  0  0
   -5.4424    1.3453    1.3657 H   0  0  0  0  0  0  0  0  0  0  0  0
   -3.7406    2.8087   -1.0208 H   0  0  0  0  0  0  0  0  0  0  0  0
   -1.3687    3.0502   -0.6720 H   0  0  0  0  0  0  0  0  0  0  0  0
    4.4848   -1.9098    0.9334 H   0  0  0  0  0  0  0  0  0  0  0  0
  1  2  1  0
  2  3  2  0
  3  4  1  0
  4  5  2  0
  5  6  1  0
  6  7  1  0
  7  8  2  0
  7  9  1  0
  9 10  1  0
 10 11  2  0
 10 12  1  0
 12 13  1  0
 13 14  2  0
 14 15  1  0
 15 16  2  0
 16 17  1  0
 17 18  1  0
 18 19  2  0
 19 20  1  0
 20 21  2  0
 21 22  1  0
 22 23  2  0
 16 24  1  0
 24 25  2  0
  6 26  2  0
 26  2  1  0
 25 13  1  0
 23 18  1  0
  1 27  1  0
  1 28  1  0
  1 29  1  0
  3 30  1  0
  4 31  1  0
  5 32  1  0
  9 33  1  0
 12 34  1  0
 14 35  1  0
 15 36  1  0
 17 37  1  0
 17 38  1  0
 19 39  1  0
 20 40  1  0
 22 41  1  0
 23 42  1  0
 24 43  1  0
 25 44  1  0
 26 45  1  0
M  END
$$$$
