
     RDKit          3D

 67 72  0  0  0  0  0  0  0  0999 V2000
    0.6591   -1.7145    0.1494 O   0  0  0  0  0  0  0  0  0  0  0  0
    1.2658   -0.6663   -0.0793 C   0  0  0  0  0  0  0  0  0  0  0  0
    0.6087    0.4678   -0.8672 C   0  0  0  0  0  0  0  0  0  0  0  0
    1.2567    0.6256   -2.2540 C   0  0  0  0  0  0  0  0  0  0  0  0
    0.2385    0.7268   -3.3843 C   0  0  0  0  0  0  0  0  0  0  0  0
   -0.9118    1.6676   -3.0320 C   0  0  0  0  0  0  0  0  0  0  0  0
   -1.5217    1.3039   -1.7539 N   0  0  0  0  0  0  0  0  0  0  0  0
   -2.8950    1.5419   -1.6589 C   0  0  0  0  0  0  0  0  0  0  0  0
   -3.4176    2.5822   -2.3826 N   0  0  0  0  0  0  0  0  0  0  0  0
   -4.7349    2.8599   -2.3032 C   0  0  0  0  0  0  0  0  0  0  0  0
   -5.6766    2.2285   -1.5836 N   0  0  0  0  0  0  0  0  0  0  0  0
   -5.1422    1.2098   -0.8902 C   0  0  0  0  0  0  0  0  0  0  0  0
   -3.8150    0.8115   -0.8614 C   0  0  0  0  0  0  0  0  0  0  0  0
   -3.6757   -0.2800   -0.0257 N   0  0  0  0  0  0  0  0  0  0  0  0
   -4.8780   -0.5382    0.4556 C   0  0  0  0  0  0  0  0  0  0  0  0
   -5.8055    0.3418   -0.0587 N   0  0  0  0  0  0  0  0  0  0  0  0
   -7.2277    0.4142    0.2146 C   0  0  0  0  0  0  0  0  0  0  0  0
   -7.8963   -0.9265    0.4977 C   0  0  0  0  0  0  0  0  0  0  0  0
   -7.6653   -1.4393    1.9191 C   0  0  0  0  0  0  0  0  0  0  0  0
   -6.2361   -1.3030    2.4467 C   0  0  0  0  0  0  0  0  0  0  0  0
   -5.1714   -1.6498    1.4133 C   0  0  0  0  0  0  0  0  0  0  0  0
   -0.9102    0.2345   -0.9586 C   0  0  0  0  0  0  0  0  0  0  0  0
    2.5783   -0.4951    0.3398 N   0  0  0  0  0  0  0  0  0  0  0  0
    3.2547   -1.6119    1.0076 C   0  0  0  0  0  0  0  0  0  0  0  0
    4.7702   -1.6427    0.7381 C   0  0  0  0  0  0  0  0  0  0  0  0
    5.4198   -0.3627    1.0759 N   0  0  0  0  0  0  0  0  0  0  0  0
    6.7614   -0.3208    1.4263 C   0  0  0  0  0  0  0  0  0  0  0  0
    7.6623   -1.3170    1.0117 C   0  0  0  0  0  0  0  0  0  0  0  0
    9.0206   -1.2820    1.3514 C   0  0  0  0  0  0  0  0  0  0  0  0
    9.5195   -0.2377    2.1199 C   0  0  0  0  0  0  0  0  0  0  0  0
    8.6578    0.7646    2.5467 C   0  0  0  0  0  0  0  0  0  0  0  0
    7.3005    0.7196    2.2015 C   0  0  0  0  0  0  0  0  0  0  0  0
    4.5537    0.8199    1.1861 C   0  0  0  0  0  0  0  0  0  0  0  0
    3.3648    0.7378    0.2073 C   0  0  0  0  0  0  0  0  0  0  0  0
    0.7432    1.3993   -0.3038 H   0  0  0  0  0  0  0  0  0  0  0  0
    1.9468   -0.1981   -2.4745 H   0  0  0  0  0  0  0  0  0  0  0  0
    1.8640    1.5401   -2.2530 H   0  0  0  0  0  0  0  0  0  0  0  0
   -0.1621   -0.2724   -3.6028 H   0  0  0  0  0  0  0  0  0  0  0  0
    0.7333    1.0698   -4.3002 H   0  0  0  0  0  0  0  0  0  0  0  0
   -0.5427    2.6978   -2.9700 H   0  0  0  0  0  0  0  0  0  0  0  0
   -1.6312    1.6204   -3.8584 H   0  0  0  0  0  0  0  0  0  0  0  0
   -5.0751    3.7015   -2.8992 H   0  0  0  0  0  0  0  0  0  0  0  0
   -7.7042    0.8484   -0.6728 H   0  0  0  0  0  0  0  0  0  0  0  0
   -7.3628    1.1162    1.0455 H   0  0  0  0  0  0  0  0  0  0  0  0
   -7.5596   -1.6772   -0.2286 H   0  0  0  0  0  0  0  0  0  0  0  0
   -8.9786   -0.8225    0.3503 H   0  0  0  0  0  0  0  0  0  0  0  0
   -7.9623   -2.4956    1.9537 H   0  0  0  0  0  0  0  0  0  0  0  0
   -8.3380   -0.9136    2.6091 H   0  0  0  0  0  0  0  0  0  0  0  0
   -6.1328   -1.9745    3.3081 H   0  0  0  0  0  0  0  0  0  0  0  0
   -6.0783   -0.2871    2.8321 H   0  0  0  0  0  0  0  0  0  0  0  0
   -5.4431   -2.5545    0.8572 H   0  0  0  0  0  0  0  0  0  0  0  0
   -4.2404   -1.8809    1.9474 H   0  0  0  0  0  0  0  0  0  0  0  0
   -1.2931    0.2454    0.0683 H   0  0  0  0  0  0  0  0  0  0  0  0
   -1.1450   -0.7433   -1.3968 H   0  0  0  0  0  0  0  0  0  0  0  0
    3.0677   -1.4946    2.0828 H   0  0  0  0  0  0  0  0  0  0  0  0
    2.8117   -2.5658    0.7008 H   0  0  0  0  0  0  0  0  0  0  0  0
    5.1921   -2.4651    1.3280 H   0  0  0  0  0  0  0  0  0  0  0  0
    4.9451   -1.8549   -0.3235 H   0  0  0  0  0  0  0  0  0  0  0  0
    7.3258   -2.1391    0.3862 H   0  0  0  0  0  0  0  0  0  0  0  0
    9.6841   -2.0696    1.0050 H   0  0  0  0  0  0  0  0  0  0  0  0
   10.5727   -0.2076    2.3844 H   0  0  0  0  0  0  0  0  0  0  0  0
    9.0334    1.5866    3.1513 H   0  0  0  0  0  0  0  0  0  0  0  0
    6.6658    1.5160    2.5787 H   0  0  0  0  0  0  0  0  0  0  0  0
    5.1048    1.7373    0.9495 H   0  0  0  0  0  0  0  0  0  0  0  0
    4.1831    0.8983    2.2150 H   0  0  0  0  0  0  0  0  0  0  0  0
    2.7215    1.6100    0.3497 H   0  0  0  0  0  0  0  0  0  0  0  0
    3.7431    0.7592   -0.8213 H   0  0  0  0  0  0  0  0  0  0  0  0
  1  2  2  0
  2  3  1  0
  3  4  1  0
  4  5  1  0
  5  6  1  0
  6  7  1  0
  7  8  1  0
  8  9  2  0
  9 10  1  0
 10 11  2  0
 11 12  1  0
 12 13  2  0
 13 14  1  0
 14 15  2  0
 15 16  1  0
 16 17  1  0
 17 18  1  0
 18 19  1  0
 19 20  1  0
 20 21  1  0
  7 22  1  0
  2 23  1  0
 23 24  1  0
 24 25  1  0
 25 26  1  0
 26 27  1  0
 27 28  2  0
 28 29  1  0
 29 30  2  0
 30 31  1  0
 31 32  2  0
 26 33  1  0
 33 34  1  0
 22  3  1  0
 34 23  1  0
 13  8  1  0
 21 15  1  0
 32 27  1  0
 16 12  1  0
  3 35  1  0
  4 36  1  0
  4 37  1  0
  5 38  1  0
  5 39  1  0
  6 40  1  0
  6 41  1  0
 10 42  1  0
 17 43  1  0
 17 44  1  0
 18 45  1  0
 18 46  1  0
 19 47  1  0
 19 48  1  0
 20 49  1  0
 20 50  1  0
 21 51  1  0
 21 52  1  0
 22 53  1  0
 22 54  1  0
 24 55  1  0
 24 56  1  0
 25 57  1  0
 25 58  1  0
 28 59  1  0
 29 60  1  0
 30 61  1  0
 31 62  1  0
 32 63  1  0
 33 64  1  0
 33 65  1  0
 34 66  1  0
 34 67  1  0
M  END
$$$$
