
     RDKit          3D

 45 47  0  0  0  0  0  0  0  0999 V2000
    1.4929   -1.6983   -1.2683 O   0  0  0  0  0  0  0  0  0  0  0  0
    2.5154   -1.2941   -0.7252 C   0  0  0  0  0  0  0  0  0  0  0  0
    2.7444    0.1478   -0.2911 C   0  0  0  0  0  0  0  0  0  0  0  0
    1.4729    0.8177   -0.0582 N   0  0  0  0  0  0  0  0  0  0  0  0
    0.8844    0.7533    1.1889 C   0  0  0  0  0  0  0  0  0  0  0  0
    1.4406    0.2652    2.1660 O   0  0  0  0  0  0  0  0  0  0  0  0
   -0.5079    1.2729    1.2929 C   0  0  0  0  0  0  0  0  0  0  0  0
   -1.3274    0.7840    2.3150 C   0  0  0  0  0  0  0  0  0  0  0  0
   -2.6404    1.2473    2.4488 C   0  0  0  0  0  0  0  0  0  0  0  0
   -3.1607    2.2128    1.5717 C   0  0  0  0  0  0  0  0  0  0  0  0
   -4.5421    2.7010    1.7142 C   0  0  0  0  0  0  0  0  0  0  0  0
   -5.4385    2.6630    0.6330 C   0  0  0  0  0  0  0  0  0  0  0  0
   -6.7502    3.1263    0.7675 C   0  0  0  0  0  0  0  0  0  0  0  0
   -7.1876    3.6372    1.9868 C   0  0  0  0  0  0  0  0  0  0  0  0
   -6.3154    3.6844    3.0711 C   0  0  0  0  0  0  0  0  0  0  0  0
   -5.0044    3.2195    2.9354 C   0  0  0  0  0  0  0  0  0  0  0  0
   -2.3206    2.7054    0.5588 C   0  0  0  0  0  0  0  0  0  0  0  0
   -1.0054    2.2460    0.4199 C   0  0  0  0  0  0  0  0  0  0  0  0
    3.6312   -2.0361   -0.4858 O   0  0  0  0  0  0  0  0  0  0  0  0
    3.5585   -3.4089   -0.8851 C   0  0  0  0  0  0  0  0  0  0  0  0
    4.1669   -3.5639   -2.2558 C   0  0  0  0  0  0  0  0  0  0  0  0
    5.5601   -3.5968   -2.4153 C   0  0  0  0  0  0  0  0  0  0  0  0
    6.1238   -3.7190   -3.6874 C   0  0  0  0  0  0  0  0  0  0  0  0
    5.2973   -3.8009   -4.8061 C   0  0  0  0  0  0  0  0  0  0  0  0
    5.9923   -3.9485   -6.3732 Cl  0  0  0  0  0  0  0  0  0  0  0  0
    3.9122   -3.7583   -4.6643 C   0  0  0  0  0  0  0  0  0  0  0  0
    3.3483   -3.6365   -3.3923 C   0  0  0  0  0  0  0  0  0  0  0  0
    3.3500    0.1727    0.6198 H   0  0  0  0  0  0  0  0  0  0  0  0
    3.2594    0.6772   -1.0973 H   0  0  0  0  0  0  0  0  0  0  0  0
    0.8528    0.8785   -0.8566 H   0  0  0  0  0  0  0  0  0  0  0  0
   -0.9492    0.0358    3.0091 H   0  0  0  0  0  0  0  0  0  0  0  0
   -3.2620    0.8385    3.2436 H   0  0  0  0  0  0  0  0  0  0  0  0
   -5.1219    2.2567   -0.3255 H   0  0  0  0  0  0  0  0  0  0  0  0
   -7.4297    3.0843   -0.0798 H   0  0  0  0  0  0  0  0  0  0  0  0
   -8.2075    3.9976    2.0921 H   0  0  0  0  0  0  0  0  0  0  0  0
   -6.6525    4.0847    4.0237 H   0  0  0  0  0  0  0  0  0  0  0  0
   -4.3366    3.2757    3.7929 H   0  0  0  0  0  0  0  0  0  0  0  0
   -2.6841    3.4735   -0.1221 H   0  0  0  0  0  0  0  0  0  0  0  0
   -0.3802    2.6798   -0.3551 H   0  0  0  0  0  0  0  0  0  0  0  0
    4.1355   -3.9943   -0.1596 H   0  0  0  0  0  0  0  0  0  0  0  0
    2.5364   -3.8053   -0.8456 H   0  0  0  0  0  0  0  0  0  0  0  0
    6.2132   -3.5241   -1.5478 H   0  0  0  0  0  0  0  0  0  0  0  0
    7.2045   -3.7464   -3.7984 H   0  0  0  0  0  0  0  0  0  0  0  0
    3.2665   -3.8155   -5.5364 H   0  0  0  0  0  0  0  0  0  0  0  0
    2.2646   -3.5919   -3.2919 H   0  0  0  0  0  0  0  0  0  0  0  0
  1  2  2  0
  2  3  1  0
  3  4  1  0
  4  5  1  0
  5  6  2  0
  5  7  1  0
  7  8  2  0
  8  9  1  0
  9 10  2  0
 10 11  1  0
 11 12  2  0
 12 13  1  0
 13 14  2  0
 14 15  1  0
 15 16  2  0
 10 17  1  0
 17 18  2  0
  2 19  1  0
 19 20  1  0
 20 21  1  0
 21 22  2  0
 22 23  1  0
 23 24  2  0
 24 25  1  0
 24 26  1  0
 26 27  2  0
 18  7  1  0
 27 21  1  0
 16 11  1  0
  3 28  1  0
  3 29  1  0
  4 30  1  0
  8 31  1  0
  9 32  1  0
 12 33  1  0
 13 34  1  0
 14 35  1  0
 15 36  1  0
 16 37  1  0
 17 38  1  0
 18 39  1  0
 20 40  1  0
 20 41  1  0
 22 42  1  0
 23 43  1  0
 26 44  1  0
 27 45  1  0
M  END
$$$$
