
     RDKit          3D

 47 49  0  0  0  0  0  0  0  0999 V2000
   -7.5302    0.4647    0.5793 C   0  0  0  0  0  0  0  0  0  0  0  0
   -6.6913    0.3472   -0.6813 C   0  0  0  0  0  0  0  0  0  0  0  0
   -5.9679   -0.8823   -0.6980 O   0  0  0  0  0  0  0  0  0  0  0  0
   -4.7339   -0.9357   -0.1141 C   0  0  0  0  0  0  0  0  0  0  0  0
   -4.0818   -2.1663   -0.2603 C   0  0  0  0  0  0  0  0  0  0  0  0
   -2.8137   -2.3755    0.2849 C   0  0  0  0  0  0  0  0  0  0  0  0
   -2.1938   -1.3374    0.9792 C   0  0  0  0  0  0  0  0  0  0  0  0
   -0.5818   -1.5673    1.6830 S   0  0  0  0  0  6  0  0  0  0  0  0
   -0.1017   -2.8879    1.3349 O   0  0  0  0  0  0  0  0  0  0  0  0
   -0.6443   -1.1248    3.0592 O   0  0  0  0  0  0  0  0  0  0  0  0
    0.3685   -0.4461    0.8120 N   0  0  0  0  0  0  0  0  0  0  0  0
    0.5083   -0.7234   -0.6585 C   0  0  0  0  0  0  0  0  0  0  0  0
    1.9341   -1.1197   -1.0543 C   0  0  0  0  0  0  0  0  0  0  0  0
    2.9157   -0.1051   -0.6653 N   0  0  0  0  0  0  0  0  0  0  0  0
    4.1301   -0.0754   -1.3413 C   0  0  0  0  0  0  0  0  0  0  0  0
    4.4415   -0.8938   -2.2025 O   0  0  0  0  0  0  0  0  0  0  0  0
    5.1047    0.9882   -1.0207 C   0  0  0  0  0  0  0  0  0  0  0  0
    6.4140    0.6240   -0.7163 C   0  0  0  0  0  0  0  0  0  0  0  0
    7.3108    1.6370   -0.4384 C   0  0  0  0  0  0  0  0  0  0  0  0
    6.9868    2.9492   -0.4564 N   0  0  0  0  0  0  0  0  0  0  0  0
    5.7174    3.2684   -0.7900 C   0  0  0  0  0  0  0  0  0  0  0  0
    4.7440    2.3326   -1.0836 C   0  0  0  0  0  0  0  0  0  0  0  0
    2.6268    0.6255    0.5762 C   0  0  0  0  0  0  0  0  0  0  0  0
    1.6681   -0.1437    1.4950 C   0  0  0  0  0  0  0  0  0  0  0  0
   -2.8361   -0.1076    1.1442 C   0  0  0  0  0  0  0  0  0  0  0  0
   -4.1073    0.0908    0.5952 C   0  0  0  0  0  0  0  0  0  0  0  0
   -6.9046    0.4909    1.4764 H   0  0  0  0  0  0  0  0  0  0  0  0
   -8.1927   -0.4014    0.6804 H   0  0  0  0  0  0  0  0  0  0  0  0
   -8.1400    1.3723    0.5541 H   0  0  0  0  0  0  0  0  0  0  0  0
   -6.0445    1.2174   -0.8375 H   0  0  0  0  0  0  0  0  0  0  0  0
   -7.3674    0.3189   -1.5435 H   0  0  0  0  0  0  0  0  0  0  0  0
   -4.5728   -2.9715   -0.8032 H   0  0  0  0  0  0  0  0  0  0  0  0
   -2.3281   -3.3411    0.1651 H   0  0  0  0  0  0  0  0  0  0  0  0
   -0.1851   -1.5023   -0.9890 H   0  0  0  0  0  0  0  0  0  0  0  0
    0.2190    0.1959   -1.1827 H   0  0  0  0  0  0  0  0  0  0  0  0
    2.2230   -2.0568   -0.5631 H   0  0  0  0  0  0  0  0  0  0  0  0
    1.9875   -1.2840   -2.1363 H   0  0  0  0  0  0  0  0  0  0  0  0
    6.7222   -0.4157   -0.7016 H   0  0  0  0  0  0  0  0  0  0  0  0
    8.3456    1.4181   -0.1900 H   0  0  0  0  0  0  0  0  0  0  0  0
    5.5020    4.3330   -0.8209 H   0  0  0  0  0  0  0  0  0  0  0  0
    3.7462    2.6429   -1.3691 H   0  0  0  0  0  0  0  0  0  0  0  0
    2.1728    1.5797    0.2849 H   0  0  0  0  0  0  0  0  0  0  0  0
    3.5567    0.8350    1.1135 H   0  0  0  0  0  0  0  0  0  0  0  0
    1.4649    0.4646    2.3830 H   0  0  0  0  0  0  0  0  0  0  0  0
    2.1451   -1.0786    1.8139 H   0  0  0  0  0  0  0  0  0  0  0  0
   -2.3554    0.6932    1.7023 H   0  0  0  0  0  0  0  0  0  0  0  0
   -4.5815    1.0537    0.7514 H   0  0  0  0  0  0  0  0  0  0  0  0
  1  2  1  0
  2  3  1  0
  3  4  1  0
  4  5  2  0
  5  6  1  0
  6  7  2  0
  7  8  1  0
  8  9  2  0
  8 10  2  0
  8 11  1  0
 11 12  1  0
 12 13  1  0
 13 14  1  0
 14 15  1  0
 15 16  2  0
 15 17  1  0
 17 18  2  0
 18 19  1  0
 19 20  2  0
 20 21  1  0
 21 22  2  0
 14 23  1  0
 23 24  1  0
  7 25  1  0
 25 26  2  0
 26  4  1  0
 24 11  1  0
 22 17  1  0
  1 27  1  0
  1 28  1  0
  1 29  1  0
  2 30  1  0
  2 31  1  0
  5 32  1  0
  6 33  1  0
 12 34  1  0
 12 35  1  0
 13 36  1  0
 13 37  1  0
 18 38  1  0
 19 39  1  0
 21 40  1  0
 22 41  1  0
 23 42  1  0
 23 43  1  0
 24 44  1  0
 24 45  1  0
 25 46  1  0
 26 47  1  0
M  END
$$$$
