
     RDKit          3D

 51 54  0  0  0  0  0  0  0  0999 V2000
    8.1003   -1.9102    1.6863 C   0  0  0  0  0  0  0  0  0  0  0  0
    6.7614   -1.6281    1.0712 C   0  0  0  0  0  0  0  0  0  0  0  0
    6.5739   -1.7665   -0.3087 C   0  0  0  0  0  0  0  0  0  0  0  0
    5.3375   -1.4746   -0.8884 C   0  0  0  0  0  0  0  0  0  0  0  0
    4.2682   -1.0301   -0.0985 C   0  0  0  0  0  0  0  0  0  0  0  0
    2.9402   -0.7112   -0.7403 C   0  0  0  0  0  0  0  0  0  0  0  0
    3.0406    0.4683   -1.5845 N   0  0  0  0  0  0  0  0  0  0  0  0
    1.9806    0.6873   -2.8479 S   0  0  0  0  0  6  0  0  0  0  0  0
    2.0352   -0.4907   -3.6835 O   0  0  0  0  0  0  0  0  0  0  0  0
    2.2256    2.0099   -3.3772 O   0  0  0  0  0  0  0  0  0  0  0  0
    0.3998    0.7139   -2.0362 C   0  0  0  0  0  0  0  0  0  0  0  0
    0.0170    1.8635   -1.3240 C   0  0  0  0  0  0  0  0  0  0  0  0
   -1.2333    1.9179   -0.6971 C   0  0  0  0  0  0  0  0  0  0  0  0
   -2.0809    0.8279   -0.8090 C   0  0  0  0  0  0  0  0  0  0  0  0
   -1.6928   -0.3088   -1.5250 C   0  0  0  0  0  0  0  0  0  0  0  0
   -0.4552   -0.3877   -2.1452 C   0  0  0  0  0  0  0  0  0  0  0  0
   -2.7487   -1.3650   -1.4790 C   0  0  0  0  0  0  0  0  0  0  0  0
   -3.9139   -0.6173   -0.8191 C   0  0  0  0  0  0  0  0  0  0  0  0
   -3.3861    0.6591   -0.3084 N   0  0  0  0  0  0  0  0  0  0  0  0
   -4.0937    1.5765    0.4627 C   0  0  0  0  0  0  0  0  0  0  0  0
   -3.5917    2.6220    0.8920 O   0  0  0  0  0  0  0  0  0  0  0  0
   -5.5779    1.2056    0.7592 C   0  0  0  0  0  0  0  0  0  0  0  0
   -5.8630    0.3642    2.0363 C   0  0  0  0  0  0  0  0  0  0  0  0
   -7.1579    1.1785    2.2117 C   0  0  0  0  0  0  0  0  0  0  0  0
   -6.4790    2.2997    1.4038 C   0  0  0  0  0  0  0  0  0  0  0  0
    4.4610   -0.8777    1.2812 C   0  0  0  0  0  0  0  0  0  0  0  0
    5.6992   -1.1714    1.8599 C   0  0  0  0  0  0  0  0  0  0  0  0
    8.7258   -1.0142    1.6469 H   0  0  0  0  0  0  0  0  0  0  0  0
    8.6096   -2.7208    1.1559 H   0  0  0  0  0  0  0  0  0  0  0  0
    7.9917   -2.2245    2.7301 H   0  0  0  0  0  0  0  0  0  0  0  0
    7.3900   -2.1017   -0.9451 H   0  0  0  0  0  0  0  0  0  0  0  0
    5.2107   -1.5870   -1.9634 H   0  0  0  0  0  0  0  0  0  0  0  0
    2.6102   -1.5882   -1.3097 H   0  0  0  0  0  0  0  0  0  0  0  0
    2.1894   -0.5264    0.0377 H   0  0  0  0  0  0  0  0  0  0  0  0
    3.4836    1.3059   -1.2135 H   0  0  0  0  0  0  0  0  0  0  0  0
    0.6823    2.7239   -1.2651 H   0  0  0  0  0  0  0  0  0  0  0  0
   -1.5207    2.8140   -0.1569 H   0  0  0  0  0  0  0  0  0  0  0  0
   -0.1668   -1.2754   -2.7022 H   0  0  0  0  0  0  0  0  0  0  0  0
   -3.0196   -1.7305   -2.4741 H   0  0  0  0  0  0  0  0  0  0  0  0
   -2.4189   -2.2010   -0.8543 H   0  0  0  0  0  0  0  0  0  0  0  0
   -4.6978   -0.3924   -1.5537 H   0  0  0  0  0  0  0  0  0  0  0  0
   -4.3613   -1.1984   -0.0058 H   0  0  0  0  0  0  0  0  0  0  0  0
   -6.0822    0.7913   -0.1277 H   0  0  0  0  0  0  0  0  0  0  0  0
   -6.0057   -0.7083    1.8757 H   0  0  0  0  0  0  0  0  0  0  0  0
   -5.1346    0.5095    2.8457 H   0  0  0  0  0  0  0  0  0  0  0  0
   -7.4265    1.4306    3.2401 H   0  0  0  0  0  0  0  0  0  0  0  0
   -8.0283    0.7376    1.7110 H   0  0  0  0  0  0  0  0  0  0  0  0
   -5.9457    3.0266    2.0283 H   0  0  0  0  0  0  0  0  0  0  0  0
   -7.1326    2.8395    0.7120 H   0  0  0  0  0  0  0  0  0  0  0  0
    3.6517   -0.5253    1.9187 H   0  0  0  0  0  0  0  0  0  0  0  0
    5.8292   -1.0402    2.9323 H   0  0  0  0  0  0  0  0  0  0  0  0
  1  2  1  0
  2  3  2  0
  3  4  1  0
  4  5  2  0
  5  6  1  0
  6  7  1  0
  7  8  1  0
  8  9  2  0
  8 10  2  0
  8 11  1  0
 11 12  2  0
 12 13  1  0
 13 14  2  0
 14 15  1  0
 15 16  2  0
 15 17  1  0
 17 18  1  0
 18 19  1  0
 19 20  1  0
 20 21  2  0
 20 22  1  0
 22 23  1  0
 23 24  1  0
 24 25  1  0
  5 26  1  0
 26 27  2  0
 27  2  1  0
 16 11  1  0
 25 22  1  0
 19 14  1  0
  1 28  1  0
  1 29  1  0
  1 30  1  0
  3 31  1  0
  4 32  1  0
  6 33  1  0
  6 34  1  0
  7 35  1  0
 12 36  1  0
 13 37  1  0
 16 38  1  0
 17 39  1  0
 17 40  1  0
 18 41  1  0
 18 42  1  0
 22 43  1  0
 23 44  1  0
 23 45  1  0
 24 46  1  0
 24 47  1  0
 25 48  1  0
 25 49  1  0
 26 50  1  0
 27 51  1  0
M  END
$$$$
