
     RDKit          3D

 46 48  0  0  0  0  0  0  0  0999 V2000
   -4.8311   -0.9292    1.3144 C   0  0  0  0  0  0  0  0  0  0  0  0
   -5.3021    0.2633    0.5755 C   0  0  0  0  0  0  0  0  0  0  0  0
   -6.5609    0.1611    0.0591 O   0  0  0  0  0  0  0  0  0  0  0  0
   -6.8032    1.2946   -0.6421 C   0  0  0  0  0  0  0  0  0  0  0  0
   -5.7185    2.1327   -0.5798 C   0  0  0  0  0  0  0  0  0  0  0  0
   -4.7418    1.4876    0.2389 C   0  0  0  0  0  0  0  0  0  0  0  0
   -3.4269    2.0129    0.5745 C   0  0  0  0  0  0  0  0  0  0  0  0
   -2.8466    2.8091   -0.1564 O   0  0  0  0  0  0  0  0  0  0  0  0
   -2.9096    1.5854    1.7730 N   0  0  0  0  0  0  0  0  0  0  0  0
   -1.5789    1.9342    2.2070 C   0  0  0  0  0  0  0  0  0  0  0  0
   -0.6799    0.7265    2.1462 C   0  0  0  0  0  0  0  0  0  0  0  0
   -0.3575    0.0116    3.3067 C   0  0  0  0  0  0  0  0  0  0  0  0
    0.4590   -1.1170    3.2358 C   0  0  0  0  0  0  0  0  0  0  0  0
    0.9533   -1.5474    2.0048 C   0  0  0  0  0  0  0  0  0  0  0  0
    0.6293   -0.8587    0.8286 C   0  0  0  0  0  0  0  0  0  0  0  0
    1.1857   -1.3113   -0.4944 C   0  0  0  0  0  0  0  0  0  0  0  0
    2.5195   -0.7976   -0.6856 N   0  0  0  0  0  0  0  0  0  0  0  0
    3.3046   -1.2535   -1.7190 C   0  0  0  0  0  0  0  0  0  0  0  0
    2.9524   -2.1675   -2.4580 O   0  0  0  0  0  0  0  0  0  0  0  0
    4.5781   -0.5614   -1.8739 C   0  0  0  0  0  0  0  0  0  0  0  0
    5.1977    0.4357   -1.0581 C   0  0  0  0  0  0  0  0  0  0  0  0
    6.3958    0.7493   -1.6537 C   0  0  0  0  0  0  0  0  0  0  0  0
    6.5690    0.0169   -2.7794 O   0  0  0  0  0  0  0  0  0  0  0  0
    5.4724   -0.7802   -2.9122 C   0  0  0  0  0  0  0  0  0  0  0  0
    5.4615   -1.6760   -4.0905 C   0  0  0  0  0  0  0  0  0  0  0  0
   -0.1821    0.2819    0.9106 C   0  0  0  0  0  0  0  0  0  0  0  0
   -5.3857   -1.8233    1.0117 H   0  0  0  0  0  0  0  0  0  0  0  0
   -3.7708   -1.1169    1.1196 H   0  0  0  0  0  0  0  0  0  0  0  0
   -4.9711   -0.7917    2.3904 H   0  0  0  0  0  0  0  0  0  0  0  0
   -7.7686    1.3506   -1.1255 H   0  0  0  0  0  0  0  0  0  0  0  0
   -5.6275    3.1002   -1.0547 H   0  0  0  0  0  0  0  0  0  0  0  0
   -3.4545    0.9815    2.3679 H   0  0  0  0  0  0  0  0  0  0  0  0
   -1.6594    2.3049    3.2347 H   0  0  0  0  0  0  0  0  0  0  0  0
   -1.1593    2.7451    1.6016 H   0  0  0  0  0  0  0  0  0  0  0  0
   -0.7367    0.3301    4.2752 H   0  0  0  0  0  0  0  0  0  0  0  0
    0.7119   -1.6631    4.1414 H   0  0  0  0  0  0  0  0  0  0  0  0
    1.5948   -2.4260    1.9646 H   0  0  0  0  0  0  0  0  0  0  0  0
    1.2015   -2.4063   -0.5510 H   0  0  0  0  0  0  0  0  0  0  0  0
    0.5613   -0.9582   -1.3235 H   0  0  0  0  0  0  0  0  0  0  0  0
    2.7607    0.0654   -0.2232 H   0  0  0  0  0  0  0  0  0  0  0  0
    4.8286    0.8729   -0.1418 H   0  0  0  0  0  0  0  0  0  0  0  0
    7.1979    1.4331   -1.4128 H   0  0  0  0  0  0  0  0  0  0  0  0
    4.6072   -1.4497   -4.7356 H   0  0  0  0  0  0  0  0  0  0  0  0
    5.3948   -2.7222   -3.7766 H   0  0  0  0  0  0  0  0  0  0  0  0
    6.3730   -1.5612   -4.6853 H   0  0  0  0  0  0  0  0  0  0  0  0
   -0.4375    0.8319    0.0043 H   0  0  0  0  0  0  0  0  0  0  0  0
  1  2  1  0
  2  3  1  0
  3  4  1  0
  4  5  2  0
  5  6  1  0
  6  7  1  0
  7  8  2  0
  7  9  1  0
  9 10  1  0
 10 11  1  0
 11 12  2  0
 12 13  1  0
 13 14  2  0
 14 15  1  0
 15 16  1  0
 16 17  1  0
 17 18  1  0
 18 19  2  0
 18 20  1  0
 20 21  1  0
 21 22  2  0
 22 23  1  0
 23 24  1  0
 24 25  1  0
 15 26  2  0
  6  2  2  0
 26 11  1  0
 24 20  2  0
  1 27  1  0
  1 28  1  0
  1 29  1  0
  4 30  1  0
  5 31  1  0
  9 32  1  0
 10 33  1  0
 10 34  1  0
 12 35  1  0
 13 36  1  0
 14 37  1  0
 16 38  1  0
 16 39  1  0
 17 40  1  0
 21 41  1  0
 22 42  1  0
 25 43  1  0
 25 44  1  0
 25 45  1  0
 26 46  1  0
M  END
$$$$
