
     RDKit          3D

 53 55  0  0  0  0  0  0  0  0999 V2000
    6.5484   -5.0001   -0.8590 C   0  0  0  0  0  0  0  0  0  0  0  0
    6.3635   -3.9560    0.0924 O   0  0  0  0  0  0  0  0  0  0  0  0
    5.4482   -2.9910   -0.2194 C   0  0  0  0  0  0  0  0  0  0  0  0
    4.8151   -2.8321   -1.4514 C   0  0  0  0  0  0  0  0  0  0  0  0
    3.9006   -1.7916   -1.6390 C   0  0  0  0  0  0  0  0  0  0  0  0
    3.5982   -0.8973   -0.5954 C   0  0  0  0  0  0  0  0  0  0  0  0
    2.6776    0.1539   -0.7669 C   0  0  0  0  0  0  0  0  0  0  0  0
    2.3717    1.0421    0.2820 C   0  0  0  0  0  0  0  0  0  0  0  0
    1.3772    2.1832    0.1273 C   0  0  0  0  0  0  0  0  0  0  0  0
    1.5876    3.0179   -1.1411 C   0  0  0  0  0  0  0  0  0  0  0  0
   -0.0779    1.7150    0.3032 C   0  0  0  0  0  0  0  0  0  0  0  0
   -0.6678    1.9282    1.3635 O   0  0  0  0  0  0  0  0  0  0  0  0
   -0.6117    1.0735   -0.8041 N   0  0  0  0  0  0  0  0  0  0  0  0
   -1.9112    0.5466   -0.9521 C   0  0  0  0  0  0  0  0  0  0  0  0
   -2.2524    0.0516   -2.2215 C   0  0  0  0  0  0  0  0  0  0  0  0
   -3.5233   -0.4725   -2.4720 C   0  0  0  0  0  0  0  0  0  0  0  0
   -4.4700   -0.5186   -1.4526 C   0  0  0  0  0  0  0  0  0  0  0  0
   -4.1277   -0.0405   -0.1857 C   0  0  0  0  0  0  0  0  0  0  0  0
   -5.3205   -0.0909    1.1298 S   0  0  0  0  0  6  0  0  0  0  0  0
   -4.7482   -0.8889    2.1942 O   0  0  0  0  0  0  0  0  0  0  0  0
   -6.6121   -0.4202    0.5605 O   0  0  0  0  0  0  0  0  0  0  0  0
   -5.3999    1.5381    1.6433 N   0  0  0  0  0  0  0  0  0  0  0  0
   -5.9575    2.4848    0.6535 C   0  0  0  0  0  0  0  0  0  0  0  0
   -6.0277    1.7006    2.9708 C   0  0  0  0  0  0  0  0  0  0  0  0
   -2.8580    0.4938    0.0726 C   0  0  0  0  0  0  0  0  0  0  0  0
    3.0016    0.8518    1.5219 C   0  0  0  0  0  0  0  0  0  0  0  0
    3.9257   -0.1792    1.7040 C   0  0  0  0  0  0  0  0  0  0  0  0
    4.2340   -1.0597    0.6542 C   0  0  0  0  0  0  0  0  0  0  0  0
    5.1589   -2.1017    0.8224 C   0  0  0  0  0  0  0  0  0  0  0  0
    5.6055   -5.5190   -1.0656 H   0  0  0  0  0  0  0  0  0  0  0  0
    7.2378   -5.7279   -0.4220 H   0  0  0  0  0  0  0  0  0  0  0  0
    7.0052   -4.6203   -1.7821 H   0  0  0  0  0  0  0  0  0  0  0  0
    5.0116   -3.4955   -2.2863 H   0  0  0  0  0  0  0  0  0  0  0  0
    3.4209   -1.6862   -2.6119 H   0  0  0  0  0  0  0  0  0  0  0  0
    2.2012    0.2676   -1.7386 H   0  0  0  0  0  0  0  0  0  0  0  0
    1.5530    2.8894    0.9541 H   0  0  0  0  0  0  0  0  0  0  0  0
    0.8648    3.8438   -1.1826 H   0  0  0  0  0  0  0  0  0  0  0  0
    2.5960    3.4496   -1.1510 H   0  0  0  0  0  0  0  0  0  0  0  0
    1.4706    2.4375   -2.0658 H   0  0  0  0  0  0  0  0  0  0  0  0
   -0.0064    0.9705   -1.6101 H   0  0  0  0  0  0  0  0  0  0  0  0
   -1.5369    0.0807   -3.0415 H   0  0  0  0  0  0  0  0  0  0  0  0
   -3.7820   -0.8286   -3.4694 H   0  0  0  0  0  0  0  0  0  0  0  0
   -5.4590   -0.9276   -1.6465 H   0  0  0  0  0  0  0  0  0  0  0  0
   -5.7937    3.5117    0.9996 H   0  0  0  0  0  0  0  0  0  0  0  0
   -7.0326    2.3296    0.5201 H   0  0  0  0  0  0  0  0  0  0  0  0
   -5.4560    2.3920   -0.3114 H   0  0  0  0  0  0  0  0  0  0  0  0
   -7.0768    1.3909    2.9526 H   0  0  0  0  0  0  0  0  0  0  0  0
   -5.9786    2.7471    3.2755 H   0  0  0  0  0  0  0  0  0  0  0  0
   -5.4876    1.1236    3.7255 H   0  0  0  0  0  0  0  0  0  0  0  0
   -2.6402    0.8483    1.0756 H   0  0  0  0  0  0  0  0  0  0  0  0
    2.7792    1.5094    2.3632 H   0  0  0  0  0  0  0  0  0  0  0  0
    4.4010   -0.2920    2.6783 H   0  0  0  0  0  0  0  0  0  0  0  0
    5.6605   -2.2356    1.7814 H   0  0  0  0  0  0  0  0  0  0  0  0
  1  2  1  0
  2  3  1  0
  3  4  2  0
  4  5  1  0
  5  6  2  0
  6  7  1  0
  7  8  2  0
  8  9  1  0
  9 10  1  0
  9 11  1  0
 11 12  2  0
 11 13  1  0
 13 14  1  0
 14 15  2  0
 15 16  1  0
 16 17  2  0
 17 18  1  0
 18 19  1  0
 19 20  2  0
 19 21  2  0
 19 22  1  0
 22 23  1  0
 22 24  1  0
 18 25  2  0
  8 26  1  0
 26 27  2  0
 27 28  1  0
 28 29  2  0
 29  3  1  0
 28  6  1  0
 25 14  1  0
  1 30  1  0
  1 31  1  0
  1 32  1  0
  4 33  1  0
  5 34  1  0
  7 35  1  0
  9 36  1  0
 10 37  1  0
 10 38  1  0
 10 39  1  0
 13 40  1  0
 15 41  1  0
 16 42  1  0
 17 43  1  0
 23 44  1  0
 23 45  1  0
 23 46  1  0
 24 47  1  0
 24 48  1  0
 24 49  1  0
 25 50  1  0
 26 51  1  0
 27 52  1  0
 29 53  1  0
M  END
$$$$
