
     RDKit          3D

 42 44  0  0  0  0  0  0  0  0999 V2000
   -4.2049    3.2526    4.0784 C   0  0  0  0  0  0  0  0  0  0  0  0
   -4.3993    2.0219    3.2089 C   0  0  0  0  0  0  0  0  0  0  0  0
   -3.7788    0.7478    3.7940 C   0  0  0  0  0  0  0  0  0  0  0  0
   -2.2563    0.7766    3.9707 C   0  0  0  0  0  0  0  0  0  0  0  0
   -1.4968    0.8848    2.6707 C   0  0  0  0  0  0  0  0  0  0  0  0
   -1.3896   -0.2218    1.8178 C   0  0  0  0  0  0  0  0  0  0  0  0
   -0.6973   -0.1171    0.6073 C   0  0  0  0  0  0  0  0  0  0  0  0
   -0.1104    1.0967    0.2199 C   0  0  0  0  0  0  0  0  0  0  0  0
    0.5860    1.1836   -1.0582 C   0  0  0  0  0  0  0  0  0  0  0  0
    0.5915    2.3047   -1.8609 C   0  0  0  0  0  0  0  0  0  0  0  0
    1.4981    2.0047   -3.2768 S   0  0  0  0  0  0  0  0  0  0  0  0
    1.8059    0.3721   -2.7593 C   0  0  0  0  0  0  0  0  0  0  0  0
    2.5788   -0.5382   -3.5683 C   0  0  0  0  0  0  0  0  0  0  0  0
    2.8225   -0.2376   -4.9461 C   0  0  0  0  0  0  0  0  0  0  0  0
    2.9703    0.0415   -6.0656 N   0  0  0  0  0  0  0  0  0  0  0  0
    3.0217   -1.6675   -2.9729 C   0  0  0  0  0  0  0  0  0  0  0  0
    3.7704   -2.6977   -3.6125 C   0  0  0  0  0  0  0  0  0  0  0  0
    4.3437   -3.8266   -3.0341 C   0  0  0  0  0  0  0  0  0  0  0  0
    4.9697   -4.5781   -4.0578 C   0  0  0  0  0  0  0  0  0  0  0  0
    4.7562   -3.8766   -5.2152 C   0  0  0  0  0  0  0  0  0  0  0  0
    4.0441   -2.7539   -4.9589 O   0  0  0  0  0  0  0  0  0  0  0  0
    1.2715    0.0956   -1.5773 N   0  0  0  0  0  0  0  0  0  0  0  0
   -0.2089    2.1987    1.0791 C   0  0  0  0  0  0  0  0  0  0  0  0
   -0.8941    2.0934    2.2935 C   0  0  0  0  0  0  0  0  0  0  0  0
   -4.6110    3.0893    5.0820 H   0  0  0  0  0  0  0  0  0  0  0  0
   -3.1480    3.5166    4.1718 H   0  0  0  0  0  0  0  0  0  0  0  0
   -4.7225    4.1136    3.6416 H   0  0  0  0  0  0  0  0  0  0  0  0
   -5.4789    1.8524    3.0903 H   0  0  0  0  0  0  0  0  0  0  0  0
   -4.0040    2.2154    2.2051 H   0  0  0  0  0  0  0  0  0  0  0  0
   -4.2385    0.5541    4.7687 H   0  0  0  0  0  0  0  0  0  0  0  0
   -4.0550   -0.0967    3.1525 H   0  0  0  0  0  0  0  0  0  0  0  0
   -1.9631    1.5884    4.6486 H   0  0  0  0  0  0  0  0  0  0  0  0
   -1.9395   -0.1482    4.4757 H   0  0  0  0  0  0  0  0  0  0  0  0
   -1.8457   -1.1741    2.0884 H   0  0  0  0  0  0  0  0  0  0  0  0
   -0.6271   -0.9889   -0.0405 H   0  0  0  0  0  0  0  0  0  0  0  0
    0.1109    3.2561   -1.7024 H   0  0  0  0  0  0  0  0  0  0  0  0
    2.7917   -1.8376   -1.9271 H   0  0  0  0  0  0  0  0  0  0  0  0
    4.3059   -4.0787   -1.9822 H   0  0  0  0  0  0  0  0  0  0  0  0
    5.5053   -5.5122   -3.9634 H   0  0  0  0  0  0  0  0  0  0  0  0
    5.0274   -4.0311   -6.2523 H   0  0  0  0  0  0  0  0  0  0  0  0
    0.2537    3.1490    0.8249 H   0  0  0  0  0  0  0  0  0  0  0  0
   -0.9556    2.9660    2.9420 H   0  0  0  0  0  0  0  0  0  0  0  0
  1  2  1  0
  2  3  1  0
  3  4  1  0
  4  5  1  0
  5  6  2  0
  6  7  1  0
  7  8  2  0
  8  9  1  0
  9 10  2  0
 10 11  1  0
 11 12  1  0
 12 13  1  0
 13 14  1  0
 14 15  3  0
 13 16  2  3
 16 17  1  0
 17 18  2  0
 18 19  1  0
 19 20  2  0
 20 21  1  0
 12 22  2  0
  8 23  1  0
 23 24  2  0
 24  5  1  0
 22  9  1  0
 21 17  1  0
  1 25  1  0
  1 26  1  0
  1 27  1  0
  2 28  1  0
  2 29  1  0
  3 30  1  0
  3 31  1  0
  4 32  1  0
  4 33  1  0
  6 34  1  0
  7 35  1  0
 10 36  1  0
 16 37  1  0
 18 38  1  0
 19 39  1  0
 20 40  1  0
 23 41  1  0
 24 42  1  0
M  END
$$$$
