
     RDKit          3D

 56 58  0  0  0  0  0  0  0  0999 V2000
   -4.5127    3.6641    0.3454 C   0  0  0  0  0  0  0  0  0  0  0  0
   -4.0409    2.3227    0.8734 C   0  0  0  0  0  0  0  0  0  0  0  0
   -3.3651    1.5944   -0.1630 O   0  0  0  0  0  0  0  0  0  0  0  0
   -4.1563    0.8476   -0.9820 C   0  0  0  0  0  0  0  0  0  0  0  0
   -5.3710    0.7433   -0.8670 O   0  0  0  0  0  0  0  0  0  0  0  0
   -3.3483    0.1338   -2.0370 C   0  0  0  0  0  0  0  0  0  0  0  0
   -2.4004    1.0751   -2.7411 C   0  0  0  0  0  0  0  0  0  0  0  0
   -2.7768    1.8378   -3.6302 O   0  0  0  0  0  0  0  0  0  0  0  0
   -0.9785    1.1298   -2.3152 C   0  0  0  0  0  0  0  0  0  0  0  0
   -0.4938    0.3373   -1.3430 C   0  0  0  0  0  0  0  0  0  0  0  0
    0.8945    0.5012   -0.9223 C   0  0  0  0  0  0  0  0  0  0  0  0
    1.4958   -0.1330    0.0981 C   0  0  0  0  0  0  0  0  0  0  0  0
    2.9014    0.0822    0.4686 C   0  0  0  0  0  0  0  0  0  0  0  0
    3.4775    1.3504    0.5190 C   0  0  0  0  0  0  0  0  0  0  0  0
    4.8173    1.5139    0.9067 C   0  0  0  0  0  0  0  0  0  0  0  0
    5.6323    0.4307    1.2791 C   0  0  0  0  0  0  0  0  0  0  0  0
    6.9726    0.5970    1.6468 N   0  0  0  0  0  0  0  0  0  0  0  0
    7.6646   -0.5012    2.3193 C   0  0  0  0  0  0  0  0  0  0  0  0
    7.4633    1.9380    1.9593 C   0  0  0  0  0  0  0  0  0  0  0  0
    5.0246   -0.8354    1.2186 C   0  0  0  0  0  0  0  0  0  0  0  0
    3.6857   -1.0102    0.8334 C   0  0  0  0  0  0  0  0  0  0  0  0
   -1.3521   -0.7190   -0.6782 C   0  0  0  0  0  0  0  0  0  0  0  0
   -2.5852   -1.0970   -1.5254 C   0  0  0  0  0  0  0  0  0  0  0  0
   -3.4871   -2.1388   -0.8810 C   0  0  0  0  0  0  0  0  0  0  0  0
   -4.0283   -3.1613   -1.6785 C   0  0  0  0  0  0  0  0  0  0  0  0
   -4.8703   -4.1297   -1.1288 C   0  0  0  0  0  0  0  0  0  0  0  0
   -5.1901   -4.0877    0.2249 C   0  0  0  0  0  0  0  0  0  0  0  0
   -4.6711   -3.0754    1.0275 C   0  0  0  0  0  0  0  0  0  0  0  0
   -3.8274   -2.1060    0.4794 C   0  0  0  0  0  0  0  0  0  0  0  0
   -4.9768    4.2530    1.1415 H   0  0  0  0  0  0  0  0  0  0  0  0
   -5.2394    3.5349   -0.4629 H   0  0  0  0  0  0  0  0  0  0  0  0
   -3.6726    4.2306   -0.0697 H   0  0  0  0  0  0  0  0  0  0  0  0
   -4.8687    1.7413    1.2950 H   0  0  0  0  0  0  0  0  0  0  0  0
   -3.3153    2.4783    1.6784 H   0  0  0  0  0  0  0  0  0  0  0  0
   -4.0617   -0.2020   -2.8036 H   0  0  0  0  0  0  0  0  0  0  0  0
   -0.3825    1.8867   -2.8149 H   0  0  0  0  0  0  0  0  0  0  0  0
    1.4818    1.2123   -1.5049 H   0  0  0  0  0  0  0  0  0  0  0  0
    0.9711   -0.8617    0.7089 H   0  0  0  0  0  0  0  0  0  0  0  0
    2.8980    2.2347    0.2660 H   0  0  0  0  0  0  0  0  0  0  0  0
    5.2019    2.5291    0.9087 H   0  0  0  0  0  0  0  0  0  0  0  0
    7.1639   -0.7669    3.2569 H   0  0  0  0  0  0  0  0  0  0  0  0
    7.7303   -1.3831    1.6733 H   0  0  0  0  0  0  0  0  0  0  0  0
    8.6983   -0.2308    2.5626 H   0  0  0  0  0  0  0  0  0  0  0  0
    7.3855    2.6012    1.0910 H   0  0  0  0  0  0  0  0  0  0  0  0
    6.9165    2.3704    2.8044 H   0  0  0  0  0  0  0  0  0  0  0  0
    8.5257    1.9201    2.2275 H   0  0  0  0  0  0  0  0  0  0  0  0
    5.5802   -1.7342    1.4677 H   0  0  0  0  0  0  0  0  0  0  0  0
    3.2754   -2.0172    0.8108 H   0  0  0  0  0  0  0  0  0  0  0  0
   -0.7702   -1.6383   -0.5294 H   0  0  0  0  0  0  0  0  0  0  0  0
   -1.6335   -0.3573    0.3171 H   0  0  0  0  0  0  0  0  0  0  0  0
   -2.1610   -1.5845   -2.4194 H   0  0  0  0  0  0  0  0  0  0  0  0
   -3.8006   -3.2133   -2.7415 H   0  0  0  0  0  0  0  0  0  0  0  0
   -5.2811   -4.9137   -1.7597 H   0  0  0  0  0  0  0  0  0  0  0  0
   -5.8502   -4.8376    0.6525 H   0  0  0  0  0  0  0  0  0  0  0  0
   -4.9308   -3.0343    2.0823 H   0  0  0  0  0  0  0  0  0  0  0  0
   -3.4590   -1.3222    1.1360 H   0  0  0  0  0  0  0  0  0  0  0  0
  1  2  1  0
  2  3  1  0
  3  4  1  0
  4  5  2  0
  4  6  1  0
  6  7  1  0
  7  8  2  0
  7  9  1  0
  9 10  2  0
 10 11  1  0
 11 12  2  3
 12 13  1  0
 13 14  2  0
 14 15  1  0
 15 16  2  0
 16 17  1  0
 17 18  1  0
 17 19  1  0
 16 20  1  0
 20 21  2  0
 10 22  1  0
 22 23  1  0
 23 24  1  0
 24 25  2  0
 25 26  1  0
 26 27  2  0
 27 28  1  0
 28 29  2  0
 23  6  1  0
 29 24  1  0
 21 13  1  0
  1 30  1  0
  1 31  1  0
  1 32  1  0
  2 33  1  0
  2 34  1  0
  6 35  1  0
  9 36  1  0
 11 37  1  0
 12 38  1  0
 14 39  1  0
 15 40  1  0
 18 41  1  0
 18 42  1  0
 18 43  1  0
 19 44  1  0
 19 45  1  0
 19 46  1  0
 20 47  1  0
 21 48  1  0
 22 49  1  0
 22 50  1  0
 23 51  1  0
 25 52  1  0
 26 53  1  0
 27 54  1  0
 28 55  1  0
 29 56  1  0
M  END
$$$$
