
     RDKit          3D

 36 38  0  0  0  0  0  0  0  0999 V2000
    2.6816    1.6671    2.8380 N   0  0  0  0  0  0  0  0  0  0  0  0
    1.9847    1.0629    2.1323 C   0  0  0  0  0  0  0  0  0  0  0  0
    1.1150    0.3304    1.2562 C   0  0  0  0  0  0  0  0  0  0  0  0
   -0.1098    0.8819    0.8362 C   0  0  0  0  0  0  0  0  0  0  0  0
   -0.5766    2.2051    1.2727 C   0  0  0  0  0  0  0  0  0  0  0  0
   -0.4320    3.3256    0.4400 C   0  0  0  0  0  0  0  0  0  0  0  0
   -0.8866    4.5808    0.8497 C   0  0  0  0  0  0  0  0  0  0  0  0
   -1.4930    4.7305    2.0948 C   0  0  0  0  0  0  0  0  0  0  0  0
   -1.6445    3.6273    2.9322 C   0  0  0  0  0  0  0  0  0  0  0  0
   -1.1904    2.3716    2.5239 C   0  0  0  0  0  0  0  0  0  0  0  0
   -0.9212    0.1364   -0.0326 C   0  0  0  0  0  0  0  0  0  0  0  0
   -0.5058   -1.1188   -0.4495 C   0  0  0  0  0  0  0  0  0  0  0  0
   -1.3070   -1.9413   -1.3699 C   0  0  0  0  0  0  0  0  0  0  0  0
   -2.2920   -1.5518   -2.2648 C   0  0  0  0  0  0  0  0  0  0  0  0
   -2.8550   -2.6451   -2.9867 C   0  0  0  0  0  0  0  0  0  0  0  0
   -2.2886   -3.8443   -2.6253 C   0  0  0  0  0  0  0  0  0  0  0  0
   -1.0900   -3.6502   -1.4253 S   0  0  0  0  0  0  0  0  0  0  0  0
    0.6677   -1.6508   -0.0446 N   0  0  0  0  0  0  0  0  0  0  0  0
    1.4625   -0.9376    0.7884 C   0  0  0  0  0  0  0  0  0  0  0  0
    2.9793   -1.7546    1.2825 S   0  0  0  0  0  0  0  0  0  0  0  0
    3.1353   -3.0157   -0.0268 C   0  0  0  0  0  0  0  0  0  0  0  0
    3.2681   -2.4592   -1.4240 C   0  0  0  0  0  0  0  0  0  0  0  0
    3.0604   -3.0916   -2.4514 O   0  0  0  0  0  0  0  0  0  0  0  0
    3.7447   -1.2022   -1.5190 O   0  0  0  0  0  0  0  0  0  0  0  0
    0.0443    3.2314   -0.5341 H   0  0  0  0  0  0  0  0  0  0  0  0
   -0.7623    5.4432    0.1996 H   0  0  0  0  0  0  0  0  0  0  0  0
   -1.8420    5.7086    2.4158 H   0  0  0  0  0  0  0  0  0  0  0  0
   -2.1126    3.7451    3.9066 H   0  0  0  0  0  0  0  0  0  0  0  0
   -1.3189    1.5232    3.1936 H   0  0  0  0  0  0  0  0  0  0  0  0
   -1.8753    0.5417   -0.3598 H   0  0  0  0  0  0  0  0  0  0  0  0
   -2.5984   -0.5235   -2.4122 H   0  0  0  0  0  0  0  0  0  0  0  0
   -3.6328   -2.5547   -3.7348 H   0  0  0  0  0  0  0  0  0  0  0  0
   -2.5170   -4.8292   -3.0093 H   0  0  0  0  0  0  0  0  0  0  0  0
    4.0360   -3.6014    0.1817 H   0  0  0  0  0  0  0  0  0  0  0  0
    2.2729   -3.6888    0.0115 H   0  0  0  0  0  0  0  0  0  0  0  0
    3.7994   -1.0515   -2.4858 H   0  0  0  0  0  0  0  0  0  0  0  0
  1  2  3  0
  2  3  1  0
  3  4  2  0
  4  5  1  0
  5  6  2  0
  6  7  1  0
  7  8  2  0
  8  9  1  0
  9 10  2  0
  4 11  1  0
 11 12  2  0
 12 13  1  0
 13 14  2  0
 14 15  1  0
 15 16  2  0
 16 17  1  0
 12 18  1  0
 18 19  2  0
 19 20  1  0
 20 21  1  0
 21 22  1  0
 22 23  2  0
 22 24  1  0
 19  3  1  0
 10  5  1  0
 17 13  1  0
  6 25  1  0
  7 26  1  0
  8 27  1  0
  9 28  1  0
 10 29  1  0
 11 30  1  0
 14 31  1  0
 15 32  1  0
 16 33  1  0
 21 34  1  0
 21 35  1  0
 24 36  1  0
M  END
$$$$
