
     RDKit          3D

 26 27  0  0  0  0  0  0  0  0999 V2000
    4.4643    1.6988   -0.8341 C   0  0  0  0  0  0  0  0  0  0  0  0
    3.4803    0.6111   -0.7106 C   0  0  0  0  0  0  0  0  0  0  0  0
    2.8398   -0.0548   -1.6460 N   0  0  0  0  0  0  0  0  0  0  0  0
    2.0457   -0.9696   -0.9872 N   0  0  0  0  0  0  0  0  0  0  0  0
    2.2456   -0.7913    0.3034 C   0  0  0  0  0  0  0  0  0  0  0  0
    1.4815   -1.6974    1.5702 S   0  0  0  0  0  0  0  0  0  0  0  0
    0.0065   -2.3152    0.7134 C   0  0  0  0  0  0  0  0  0  0  0  0
   -1.0748   -1.2667    0.5828 C   0  0  0  0  0  0  0  0  0  0  0  0
   -1.8836   -0.9380    1.6835 C   0  0  0  0  0  0  0  0  0  0  0  0
   -2.8734    0.0419    1.5728 C   0  0  0  0  0  0  0  0  0  0  0  0
   -3.0568    0.7024    0.3518 C   0  0  0  0  0  0  0  0  0  0  0  0
   -4.0907    1.7374    0.2329 N   0  0  0  0  0  4  0  0  0  0  0  0
   -4.7665    1.9956    1.2393 O   0  0  0  0  0  0  0  0  0  0  0  0
   -4.2276    2.2938   -0.8660 O   0  0  0  0  0  1  0  0  0  0  0  0
   -2.2590    0.3873   -0.7543 C   0  0  0  0  0  0  0  0  0  0  0  0
   -1.2723   -0.5946   -0.6340 C   0  0  0  0  0  0  0  0  0  0  0  0
    3.1614    0.1983    0.5529 O   0  0  0  0  0  0  0  0  0  0  0  0
    5.4478    1.3638   -0.4914 H   0  0  0  0  0  0  0  0  0  0  0  0
    4.1621    2.5626   -0.2347 H   0  0  0  0  0  0  0  0  0  0  0  0
    4.5557    2.0206   -1.8757 H   0  0  0  0  0  0  0  0  0  0  0  0
   -0.3917   -3.1541    1.2964 H   0  0  0  0  0  0  0  0  0  0  0  0
    0.2690   -2.7361   -0.2638 H   0  0  0  0  0  0  0  0  0  0  0  0
   -1.7422   -1.4426    2.6383 H   0  0  0  0  0  0  0  0  0  0  0  0
   -3.4840    0.2787    2.4417 H   0  0  0  0  0  0  0  0  0  0  0  0
   -2.3862    0.8945   -1.7086 H   0  0  0  0  0  0  0  0  0  0  0  0
   -0.6508   -0.8266   -1.4989 H   0  0  0  0  0  0  0  0  0  0  0  0
  1  2  1  0
  2  3  2  0
  3  4  1  0
  4  5  2  0
  5  6  1  0
  6  7  1  0
  7  8  1  0
  8  9  2  0
  9 10  1  0
 10 11  2  0
 11 12  1  0
 12 13  2  0
 12 14  1  0
 11 15  1  0
 15 16  2  0
  5 17  1  0
 17  2  1  0
 16  8  1  0
  1 18  1  0
  1 19  1  0
  1 20  1  0
  7 21  1  0
  7 22  1  0
  9 23  1  0
 10 24  1  0
 15 25  1  0
 16 26  1  0
M  CHG  2  12   1  14  -1
M  END
$$$$
