
     RDKit          3D

 53 56  0  0  0  0  0  0  0  0999 V2000
   -9.3481   -1.0987   -0.4061 C   0  0  0  0  0  0  0  0  0  0  0  0
   -7.9389   -0.9045   -0.4435 O   0  0  0  0  0  0  0  0  0  0  0  0
   -7.5977    0.4788   -0.4504 C   0  0  0  0  0  0  0  0  0  0  0  0
   -6.0880    0.6591   -0.5283 C   0  0  0  0  0  0  0  0  0  0  0  0
   -5.4281   -0.0075   -1.7376 C   0  0  0  0  0  0  0  0  0  0  0  0
   -3.9565   -0.0523   -1.3379 C   0  0  0  0  0  0  0  0  0  0  0  0
   -3.9740   -0.1502    0.1156 N   0  0  0  0  0  0  0  0  0  0  0  0
   -2.9202   -0.4304    0.9745 C   0  0  0  0  0  0  0  0  0  0  0  0
   -3.1281   -0.5867    2.1807 O   0  0  0  0  0  0  0  0  0  0  0  0
   -1.5461   -0.5406    0.4539 C   0  0  0  0  0  0  0  0  0  0  0  0
   -0.4098   -0.9444    1.2120 C   0  0  0  0  0  0  0  0  0  0  0  0
    0.6432   -0.8862    0.3346 C   0  0  0  0  0  0  0  0  0  0  0  0
    2.0915   -1.1680    0.4331 C   0  0  0  0  0  0  0  0  0  0  0  0
    2.6785   -0.0351    1.0873 O   0  0  0  0  0  0  0  0  0  0  0  0
    4.0369   -0.0191    0.8786 C   0  0  0  0  0  0  0  0  0  0  0  0
    4.8393   -0.8557    1.6522 C   0  0  0  0  0  0  0  0  0  0  0  0
    6.2203   -0.8531    1.4689 C   0  0  0  0  0  0  0  0  0  0  0  0
    6.8054   -0.0085    0.5181 C   0  0  0  0  0  0  0  0  0  0  0  0
    8.1580    0.0445    0.2721 O   0  0  0  0  0  0  0  0  0  0  0  0
    8.9886   -0.8985    0.9366 C   0  0  0  0  0  0  0  0  0  0  0  0
    5.9968    0.8715   -0.2513 C   0  0  0  0  0  0  0  0  0  0  0  0
    6.5394    1.7594   -1.2078 C   0  0  0  0  0  0  0  0  0  0  0  0
    5.7322    2.6233   -1.9508 C   0  0  0  0  0  0  0  0  0  0  0  0
    4.3587    2.6240   -1.7553 C   0  0  0  0  0  0  0  0  0  0  0  0
    3.7941    1.7564   -0.8210 C   0  0  0  0  0  0  0  0  0  0  0  0
    4.5919    0.8720   -0.0617 C   0  0  0  0  0  0  0  0  0  0  0  0
    0.1874   -0.4609   -0.8715 O   0  0  0  0  0  0  0  0  0  0  0  0
   -1.1721   -0.2379   -0.8006 N   0  0  0  0  0  0  0  0  0  0  0  0
   -5.3239    0.0209    0.6302 C   0  0  0  0  0  0  0  0  0  0  0  0
   -9.5467   -2.1734   -0.3763 H   0  0  0  0  0  0  0  0  0  0  0  0
   -9.7751   -0.6387    0.4902 H   0  0  0  0  0  0  0  0  0  0  0  0
   -9.8155   -0.6809   -1.3031 H   0  0  0  0  0  0  0  0  0  0  0  0
   -8.0678    0.9652   -1.3131 H   0  0  0  0  0  0  0  0  0  0  0  0
   -7.9781    0.9477    0.4648 H   0  0  0  0  0  0  0  0  0  0  0  0
   -5.8593    1.7338   -0.5506 H   0  0  0  0  0  0  0  0  0  0  0  0
   -5.5896    0.5431   -2.6687 H   0  0  0  0  0  0  0  0  0  0  0  0
   -5.8016   -1.0288   -1.8785 H   0  0  0  0  0  0  0  0  0  0  0  0
   -3.4536    0.8789   -1.6177 H   0  0  0  0  0  0  0  0  0  0  0  0
   -3.4448   -0.9078   -1.7878 H   0  0  0  0  0  0  0  0  0  0  0  0
   -0.3851   -1.2263    2.2553 H   0  0  0  0  0  0  0  0  0  0  0  0
    2.5152   -1.3217   -0.5686 H   0  0  0  0  0  0  0  0  0  0  0  0
    2.2561   -2.0674    1.0395 H   0  0  0  0  0  0  0  0  0  0  0  0
    4.3945   -1.5018    2.4039 H   0  0  0  0  0  0  0  0  0  0  0  0
    6.8141   -1.5153    2.0902 H   0  0  0  0  0  0  0  0  0  0  0  0
    8.6825   -1.9261    0.7126 H   0  0  0  0  0  0  0  0  0  0  0  0
   10.0080   -0.7691    0.5608 H   0  0  0  0  0  0  0  0  0  0  0  0
    9.0056   -0.7147    2.0160 H   0  0  0  0  0  0  0  0  0  0  0  0
    7.6146    1.7836   -1.3770 H   0  0  0  0  0  0  0  0  0  0  0  0
    6.1819    3.2971   -2.6755 H   0  0  0  0  0  0  0  0  0  0  0  0
    3.7254    3.2985   -2.3241 H   0  0  0  0  0  0  0  0  0  0  0  0
    2.7139    1.7752   -0.6816 H   0  0  0  0  0  0  0  0  0  0  0  0
   -5.7047   -0.9714    0.8982 H   0  0  0  0  0  0  0  0  0  0  0  0
   -5.3207    0.6490    1.5269 H   0  0  0  0  0  0  0  0  0  0  0  0
  1  2  1  0
  2  3  1  0
  3  4  1  0
  4  5  1  0
  5  6  1  0
  6  7  1  0
  7  8  1  0
  8  9  2  0
  8 10  1  0
 10 11  1  0
 11 12  2  0
 12 13  1  0
 13 14  1  0
 14 15  1  0
 15 16  2  0
 16 17  1  0
 17 18  2  0
 18 19  1  0
 19 20  1  0
 18 21  1  0
 21 22  2  0
 22 23  1  0
 23 24  2  0
 24 25  1  0
 25 26  2  0
 12 27  1  0
 27 28  1  0
  7 29  1  0
 29  4  1  0
 28 10  2  0
 26 15  1  0
 26 21  1  0
  1 30  1  0
  1 31  1  0
  1 32  1  0
  3 33  1  0
  3 34  1  0
  4 35  1  0
  5 36  1  0
  5 37  1  0
  6 38  1  0
  6 39  1  0
 11 40  1  0
 13 41  1  0
 13 42  1  0
 16 43  1  0
 17 44  1  0
 20 45  1  0
 20 46  1  0
 20 47  1  0
 22 48  1  0
 23 49  1  0
 24 50  1  0
 25 51  1  0
 29 52  1  0
 29 53  1  0
M  END
$$$$
