
     RDKit          3D

 52 54  0  0  0  0  0  0  0  0999 V2000
   -7.7905    0.7381    0.3974 C   0  0  0  0  0  0  0  0  0  0  0  0
   -6.8540   -0.4716    0.3531 C   0  0  0  0  0  0  0  0  0  0  0  0
   -7.6375   -1.7167   -0.0643 C   0  0  0  0  0  0  0  0  0  0  0  0
   -5.6700   -0.1813   -0.5840 C   0  0  0  0  0  0  0  0  0  0  0  0
   -4.6117   -1.2855   -0.5936 C   0  0  0  0  0  0  0  0  0  0  0  0
   -3.5012   -0.9074   -1.4097 O   0  0  0  0  0  0  0  0  0  0  0  0
   -2.4584   -0.2368   -0.8350 C   0  0  0  0  0  0  0  0  0  0  0  0
   -2.4116    0.2598    0.4688 C   0  0  0  0  0  0  0  0  0  0  0  0
   -1.2737    0.9355    0.9235 C   0  0  0  0  0  0  0  0  0  0  0  0
   -0.1746    1.1058    0.0772 C   0  0  0  0  0  0  0  0  0  0  0  0
    1.0068    1.8427    0.5822 C   0  0  0  0  0  0  0  0  0  0  0  0
    0.8179    2.9392    1.1038 O   0  0  0  0  0  0  0  0  0  0  0  0
    2.2664    1.2684    0.4514 N   0  0  0  0  0  0  0  0  0  0  0  0
    3.4285    2.0495    0.8822 C   0  0  0  0  0  0  0  0  0  0  0  0
    4.7495    1.5837    0.2444 C   0  0  0  0  0  0  0  0  0  0  0  0
    4.9475    0.1396    0.3939 N   0  0  0  0  0  0  0  0  0  0  0  0
    6.2185   -0.3281    0.6498 C   0  0  0  0  0  0  0  0  0  0  0  0
    6.3658   -1.5761    1.1289 N   0  0  0  0  0  0  0  0  0  0  0  0
    7.6173   -2.0196    1.3536 C   0  0  0  0  0  0  0  0  0  0  0  0
    8.7400   -1.2710    1.1187 C   0  0  0  0  0  0  0  0  0  0  0  0
    8.5018   -0.0142    0.6291 C   0  0  0  0  0  0  0  0  0  0  0  0
    7.2684    0.4703    0.3906 N   0  0  0  0  0  0  0  0  0  0  0  0
    3.8118   -0.6854    0.7956 C   0  0  0  0  0  0  0  0  0  0  0  0
    2.5089   -0.1549    0.1682 C   0  0  0  0  0  0  0  0  0  0  0  0
   -0.2273    0.6413   -1.2385 C   0  0  0  0  0  0  0  0  0  0  0  0
   -1.3657   -0.0333   -1.6853 C   0  0  0  0  0  0  0  0  0  0  0  0
   -8.6197    0.5636    1.0912 H   0  0  0  0  0  0  0  0  0  0  0  0
   -8.2136    0.9498   -0.5905 H   0  0  0  0  0  0  0  0  0  0  0  0
   -7.2562    1.6320    0.7364 H   0  0  0  0  0  0  0  0  0  0  0  0
   -6.4670   -0.6335    1.3672 H   0  0  0  0  0  0  0  0  0  0  0  0
   -8.5100   -1.8611    0.5821 H   0  0  0  0  0  0  0  0  0  0  0  0
   -7.0235   -2.6189    0.0155 H   0  0  0  0  0  0  0  0  0  0  0  0
   -7.9924   -1.6347   -1.0972 H   0  0  0  0  0  0  0  0  0  0  0  0
   -5.2026    0.7672   -0.2923 H   0  0  0  0  0  0  0  0  0  0  0  0
   -6.0264   -0.0215   -1.6103 H   0  0  0  0  0  0  0  0  0  0  0  0
   -5.0311   -2.1826   -1.0620 H   0  0  0  0  0  0  0  0  0  0  0  0
   -4.3031   -1.5894    0.4131 H   0  0  0  0  0  0  0  0  0  0  0  0
   -3.2459    0.1569    1.1542 H   0  0  0  0  0  0  0  0  0  0  0  0
   -1.2472    1.3351    1.9351 H   0  0  0  0  0  0  0  0  0  0  0  0
    3.2627    3.1097    0.6595 H   0  0  0  0  0  0  0  0  0  0  0  0
    3.4872    1.9509    1.9736 H   0  0  0  0  0  0  0  0  0  0  0  0
    5.5559    2.1698    0.7013 H   0  0  0  0  0  0  0  0  0  0  0  0
    4.7366    1.8174   -0.8270 H   0  0  0  0  0  0  0  0  0  0  0  0
    7.6860   -3.0317    1.7405 H   0  0  0  0  0  0  0  0  0  0  0  0
    9.7366   -1.6435    1.3036 H   0  0  0  0  0  0  0  0  0  0  0  0
    9.3167    0.6669    0.4038 H   0  0  0  0  0  0  0  0  0  0  0  0
    3.9392   -1.7246    0.4683 H   0  0  0  0  0  0  0  0  0  0  0  0
    3.7204   -0.6811    1.8892 H   0  0  0  0  0  0  0  0  0  0  0  0
    2.5688   -0.2513   -0.9221 H   0  0  0  0  0  0  0  0  0  0  0  0
    1.6642   -0.7552    0.5206 H   0  0  0  0  0  0  0  0  0  0  0  0
    0.5994    0.8149   -1.9215 H   0  0  0  0  0  0  0  0  0  0  0  0
   -1.4081   -0.3970   -2.7096 H   0  0  0  0  0  0  0  0  0  0  0  0
  1  2  1  0
  2  3  1  0
  2  4  1  0
  4  5  1  0
  5  6  1  0
  6  7  1  0
  7  8  2  0
  8  9  1  0
  9 10  2  0
 10 11  1  0
 11 12  2  0
 11 13  1  0
 13 14  1  0
 14 15  1  0
 15 16  1  0
 16 17  1  0
 17 18  2  0
 18 19  1  0
 19 20  2  0
 20 21  1  0
 21 22  2  0
 16 23  1  0
 23 24  1  0
 10 25  1  0
 25 26  2  0
 26  7  1  0
 24 13  1  0
 22 17  1  0
  1 27  1  0
  1 28  1  0
  1 29  1  0
  2 30  1  0
  3 31  1  0
  3 32  1  0
  3 33  1  0
  4 34  1  0
  4 35  1  0
  5 36  1  0
  5 37  1  0
  8 38  1  0
  9 39  1  0
 14 40  1  0
 14 41  1  0
 15 42  1  0
 15 43  1  0
 19 44  1  0
 20 45  1  0
 21 46  1  0
 23 47  1  0
 23 48  1  0
 24 49  1  0
 24 50  1  0
 25 51  1  0
 26 52  1  0
M  END
$$$$
