
     RDKit          3D

 46 49  0  0  0  0  0  0  0  0999 V2000
   -2.9150    0.9135    0.8053 O   0  0  0  0  0  0  0  0  0  0  0  0
   -3.2987    0.2012   -0.1155 C   0  0  0  0  0  0  0  0  0  0  0  0
   -2.4852   -0.4740   -1.0063 N   0  0  0  0  0  0  0  0  0  0  0  0
   -1.0743   -0.4912   -1.0449 C   0  0  0  0  0  0  0  0  0  0  0  0
   -0.4801   -1.2551   -2.0585 C   0  0  0  0  0  0  0  0  0  0  0  0
    0.9116   -1.3315   -2.1746 C   0  0  0  0  0  0  0  0  0  0  0  0
    1.7348   -0.6471   -1.2827 C   0  0  0  0  0  0  0  0  0  0  0  0
    3.1199   -0.7567   -1.4264 N   0  0  0  0  0  0  0  0  0  0  0  0
    3.8829   -0.1010   -0.6112 C   0  0  0  0  0  0  0  0  0  0  0  0
    3.4104    0.7082    0.4008 N   0  0  0  0  0  0  0  0  0  0  0  0
    2.0418    0.8246    0.6478 C   0  0  0  0  0  0  0  0  0  0  0  0
    1.5626    1.4711    1.5758 O   0  0  0  0  0  0  0  0  0  0  0  0
    1.1443    0.1101   -0.2777 C   0  0  0  0  0  0  0  0  0  0  0  0
   -0.2516    0.1939   -0.1503 C   0  0  0  0  0  0  0  0  0  0  0  0
    4.3157    1.4423    1.2836 C   0  0  0  0  0  0  0  0  0  0  0  0
    5.0667    0.5191    2.2410 C   0  0  0  0  0  0  0  0  0  0  0  0
    6.2918   -0.1405    1.6104 C   0  0  0  0  0  0  0  0  0  0  0  0
    5.9861   -1.0273    0.4058 C   0  0  0  0  0  0  0  0  0  0  0  0
    5.3823   -0.2670   -0.7708 C   0  0  0  0  0  0  0  0  0  0  0  0
   -4.7754    0.0451   -0.2981 C   0  0  0  0  0  0  0  0  0  0  0  0
   -5.6316    0.7178    0.5931 C   0  0  0  0  0  0  0  0  0  0  0  0
   -7.0227    0.5976    0.4564 C   0  0  0  0  0  0  0  0  0  0  0  0
   -7.9138    1.3020    1.3893 N   0  0  0  0  0  4  0  0  0  0  0  0
   -7.3933    1.9896    2.2770 O   0  0  0  0  0  0  0  0  0  0  0  0
   -9.1346    1.1635    1.2289 O   0  0  0  0  0  1  0  0  0  0  0  0
   -7.5733   -0.1898   -0.5641 C   0  0  0  0  0  0  0  0  0  0  0  0
   -6.7245   -0.8568   -1.4478 C   0  0  0  0  0  0  0  0  0  0  0  0
   -5.3409   -0.7366   -1.3110 C   0  0  0  0  0  0  0  0  0  0  0  0
   -4.5684   -1.3978   -2.1865 F   0  0  0  0  0  0  0  0  0  0  0  0
   -2.9437   -1.0261   -1.7236 H   0  0  0  0  0  0  0  0  0  0  0  0
   -1.0881   -1.8037   -2.7739 H   0  0  0  0  0  0  0  0  0  0  0  0
    1.3594   -1.9296   -2.9644 H   0  0  0  0  0  0  0  0  0  0  0  0
   -0.6600    0.7993    0.6532 H   0  0  0  0  0  0  0  0  0  0  0  0
    3.7513    2.1714    1.8751 H   0  0  0  0  0  0  0  0  0  0  0  0
    5.0147    2.0237    0.6718 H   0  0  0  0  0  0  0  0  0  0  0  0
    5.4160    1.1151    3.0933 H   0  0  0  0  0  0  0  0  0  0  0  0
    4.3930   -0.2468    2.6439 H   0  0  0  0  0  0  0  0  0  0  0  0
    7.0122    0.6339    1.3184 H   0  0  0  0  0  0  0  0  0  0  0  0
    6.7887   -0.7506    2.3747 H   0  0  0  0  0  0  0  0  0  0  0  0
    6.9294   -1.4806    0.0770 H   0  0  0  0  0  0  0  0  0  0  0  0
    5.3283   -1.8504    0.7107 H   0  0  0  0  0  0  0  0  0  0  0  0
    5.8598    0.7069   -0.9177 H   0  0  0  0  0  0  0  0  0  0  0  0
    5.5605   -0.8432   -1.6876 H   0  0  0  0  0  0  0  0  0  0  0  0
   -5.2051    1.3308    1.3878 H   0  0  0  0  0  0  0  0  0  0  0  0
   -8.6510   -0.2924   -0.6823 H   0  0  0  0  0  0  0  0  0  0  0  0
   -7.1330   -1.4720   -2.2455 H   0  0  0  0  0  0  0  0  0  0  0  0
  1  2  2  0
  2  3  1  0
  3  4  1  0
  4  5  2  0
  5  6  1  0
  6  7  2  0
  7  8  1  0
  8  9  2  0
  9 10  1  0
 10 11  1  0
 11 12  2  0
 11 13  1  0
 13 14  2  0
 10 15  1  0
 15 16  1  0
 16 17  1  0
 17 18  1  0
 18 19  1  0
  2 20  1  0
 20 21  2  0
 21 22  1  0
 22 23  1  0
 23 24  2  0
 23 25  1  0
 22 26  2  0
 26 27  1  0
 27 28  2  0
 28 29  1  0
 14  4  1  0
 28 20  1  0
 13  7  1  0
 19  9  1  0
  3 30  1  0
  5 31  1  0
  6 32  1  0
 14 33  1  0
 15 34  1  0
 15 35  1  0
 16 36  1  0
 16 37  1  0
 17 38  1  0
 17 39  1  0
 18 40  1  0
 18 41  1  0
 19 42  1  0
 19 43  1  0
 21 44  1  0
 26 45  1  0
 27 46  1  0
M  CHG  2  23   1  25  -1
M  END
$$$$
