
     RDKit          3D

 40 41  0  0  0  0  0  0  0  0999 V2000
    5.3644    0.9593   -1.5166 C   0  0  0  0  0  0  0  0  0  0  0  0
    4.6352    1.6905   -0.4051 C   0  0  0  0  0  0  0  0  0  0  0  0
    3.2441    1.3434   -0.4139 O   0  0  0  0  0  0  0  0  0  0  0  0
    2.9012    0.2235    0.2904 C   0  0  0  0  0  0  0  0  0  0  0  0
    3.7146   -0.4718    0.8886 O   0  0  0  0  0  0  0  0  0  0  0  0
    1.4666   -0.0781    0.2337 C   0  0  0  0  0  0  0  0  0  0  0  0
    0.4454    0.7278   -0.2741 C   0  0  0  0  0  0  0  0  0  0  0  0
    0.5080    2.1121   -0.8327 C   0  0  0  0  0  0  0  0  0  0  0  0
   -0.7369    0.0162   -0.1812 N   0  0  0  0  0  0  0  0  0  0  0  0
   -2.0235    0.4328   -0.7313 C   0  0  0  0  0  0  0  0  0  0  0  0
   -2.6626    1.2781    0.2181 O   0  0  0  0  0  0  0  0  0  0  0  0
   -3.9490    1.7166   -0.2059 C   0  0  0  0  0  0  0  0  0  0  0  0
   -5.0342    0.6809    0.0845 C   0  0  0  0  0  0  0  0  0  0  0  0
   -6.3111    1.1500   -0.3280 O   0  0  0  0  0  0  0  0  0  0  0  0
   -0.5272   -1.1842    0.4710 C   0  0  0  0  0  0  0  0  0  0  0  0
   -1.4261   -2.1973    0.8543 C   0  0  0  0  0  0  0  0  0  0  0  0
   -0.9190   -3.3332    1.4918 C   0  0  0  0  0  0  0  0  0  0  0  0
    0.4414   -3.4477    1.7343 C   0  0  0  0  0  0  0  0  0  0  0  0
    0.9587   -4.5497    2.3524 O   0  0  0  0  0  0  0  0  0  0  0  0
    1.3305   -2.4416    1.3609 C   0  0  0  0  0  0  0  0  0  0  0  0
    0.8436   -1.2778    0.7225 C   0  0  0  0  0  0  0  0  0  0  0  0
    5.3198   -0.1245   -1.3701 H   0  0  0  0  0  0  0  0  0  0  0  0
    6.4141    1.2632   -1.5571 H   0  0  0  0  0  0  0  0  0  0  0  0
    4.8980    1.1690   -2.4848 H   0  0  0  0  0  0  0  0  0  0  0  0
    5.0913    1.4957    0.5723 H   0  0  0  0  0  0  0  0  0  0  0  0
    4.6953    2.7704   -0.5759 H   0  0  0  0  0  0  0  0  0  0  0  0
    1.1532    2.7480   -0.2181 H   0  0  0  0  0  0  0  0  0  0  0  0
   -0.4689    2.6025   -0.8568 H   0  0  0  0  0  0  0  0  0  0  0  0
    0.9041    2.0900   -1.8527 H   0  0  0  0  0  0  0  0  0  0  0  0
   -2.6191   -0.4594   -0.9438 H   0  0  0  0  0  0  0  0  0  0  0  0
   -1.8401    0.9623   -1.6723 H   0  0  0  0  0  0  0  0  0  0  0  0
   -3.9392    1.9958   -1.2667 H   0  0  0  0  0  0  0  0  0  0  0  0
   -4.1821    2.6347    0.3454 H   0  0  0  0  0  0  0  0  0  0  0  0
   -4.8323   -0.2685   -0.4205 H   0  0  0  0  0  0  0  0  0  0  0  0
   -5.0721    0.4672    1.1578 H   0  0  0  0  0  0  0  0  0  0  0  0
   -6.3059    1.2312   -1.2968 H   0  0  0  0  0  0  0  0  0  0  0  0
   -2.4928   -2.1087    0.6765 H   0  0  0  0  0  0  0  0  0  0  0  0
   -1.6077   -4.1170    1.7920 H   0  0  0  0  0  0  0  0  0  0  0  0
    0.2295   -5.1459    2.5860 H   0  0  0  0  0  0  0  0  0  0  0  0
    2.3905   -2.5554    1.5720 H   0  0  0  0  0  0  0  0  0  0  0  0
  1  2  1  0
  2  3  1  0
  3  4  1  0
  4  5  2  0
  4  6  1  0
  6  7  2  0
  7  8  1  0
  7  9  1  0
  9 10  1  0
 10 11  1  0
 11 12  1  0
 12 13  1  0
 13 14  1  0
  9 15  1  0
 15 16  2  0
 16 17  1  0
 17 18  2  0
 18 19  1  0
 18 20  1  0
 20 21  2  0
 21  6  1  0
 21 15  1  0
  1 22  1  0
  1 23  1  0
  1 24  1  0
  2 25  1  0
  2 26  1  0
  8 27  1  0
  8 28  1  0
  8 29  1  0
 10 30  1  0
 10 31  1  0
 12 32  1  0
 12 33  1  0
 13 34  1  0
 13 35  1  0
 14 36  1  0
 16 37  1  0
 17 38  1  0
 19 39  1  0
 20 40  1  0
M  END
$$$$
