
     RDKit          3D

 59 62  0  0  0  0  0  0  0  0999 V2000
    7.2387    4.8076    1.8243 C   0  0  0  0  0  0  0  0  0  0  0  0
    6.9508    3.5977    0.9571 C   0  0  0  0  0  0  0  0  0  0  0  0
    6.3190    2.6119    1.7765 O   0  0  0  0  0  0  0  0  0  0  0  0
    6.0346    1.4088    1.1902 C   0  0  0  0  0  0  0  0  0  0  0  0
    5.5111    0.4462    2.0575 C   0  0  0  0  0  0  0  0  0  0  0  0
    5.1855   -0.8325    1.5951 C   0  0  0  0  0  0  0  0  0  0  0  0
    5.3727   -1.1637    0.2475 C   0  0  0  0  0  0  0  0  0  0  0  0
    5.0064   -2.5402   -0.2606 C   0  0  0  0  0  0  0  0  0  0  0  0
    3.6704   -2.5647   -1.0097 C   0  0  0  0  0  0  0  0  0  0  0  0
    2.5511   -2.1996   -0.1570 N   0  0  0  0  0  0  0  0  0  0  0  0
    1.4005   -2.9573   -0.0775 C   0  0  0  0  0  0  0  0  0  0  0  0
    1.2640   -4.0442   -0.6339 O   0  0  0  0  0  0  0  0  0  0  0  0
    0.3078   -2.3357    0.7763 C   0  0  0  0  0  0  0  0  0  0  0  0
   -0.8342   -1.7849   -0.0435 C   0  0  0  0  0  0  0  0  0  0  0  0
   -1.7619   -2.6532   -0.6321 C   0  0  0  0  0  0  0  0  0  0  0  0
   -2.8062   -2.1519   -1.4122 C   0  0  0  0  0  0  0  0  0  0  0  0
   -2.9459   -0.7790   -1.6115 C   0  0  0  0  0  0  0  0  0  0  0  0
   -3.9955   -0.2922   -2.4015 N   0  0  0  0  0  0  0  0  0  0  0  0
   -5.0431    0.1592   -1.8104 C   0  0  0  0  0  0  0  0  0  0  0  0
   -5.3616    0.2528   -0.4683 N   0  0  0  0  0  0  0  0  0  0  0  0
   -6.7888    0.3814   -0.2656 C   0  0  0  0  0  0  0  0  0  0  0  0
   -7.2701    0.9963    1.0252 C   0  0  0  0  0  0  0  0  0  0  0  0
   -8.9476    1.4808    0.5800 S   0  0  0  0  0  6  0  0  0  0  0  0
   -9.1434    2.8591    0.9792 O   0  0  0  0  0  0  0  0  0  0  0  0
   -9.8439    0.4228    0.9860 O   0  0  0  0  0  0  0  0  0  0  0  0
   -8.7495    1.4106   -1.2185 C   0  0  0  0  0  0  0  0  0  0  0  0
   -7.2469    1.3685   -1.3460 C   0  0  0  0  0  0  0  0  0  0  0  0
   -6.4062    0.7340   -2.8159 S   0  0  0  0  0  0  0  0  0  0  0  0
   -2.0126    0.0894   -1.0408 C   0  0  0  0  0  0  0  0  0  0  0  0
   -0.9659   -0.4056   -0.2568 C   0  0  0  0  0  0  0  0  0  0  0  0
    5.8890   -0.1930   -0.6237 C   0  0  0  0  0  0  0  0  0  0  0  0
    6.2199    1.0843   -0.1541 C   0  0  0  0  0  0  0  0  0  0  0  0
    7.9399    4.5489    2.6250 H   0  0  0  0  0  0  0  0  0  0  0  0
    7.6659    5.6203    1.2322 H   0  0  0  0  0  0  0  0  0  0  0  0
    6.3244    5.1593    2.3087 H   0  0  0  0  0  0  0  0  0  0  0  0
    6.2816    3.8921    0.1377 H   0  0  0  0  0  0  0  0  0  0  0  0
    7.8943    3.2101    0.5545 H   0  0  0  0  0  0  0  0  0  0  0  0
    5.3641    0.6926    3.1069 H   0  0  0  0  0  0  0  0  0  0  0  0
    4.7886   -1.5659    2.2971 H   0  0  0  0  0  0  0  0  0  0  0  0
    4.9762   -3.2495    0.5788 H   0  0  0  0  0  0  0  0  0  0  0  0
    5.8077   -2.8908   -0.9260 H   0  0  0  0  0  0  0  0  0  0  0  0
    3.5110   -3.5634   -1.4288 H   0  0  0  0  0  0  0  0  0  0  0  0
    3.6746   -1.8538   -1.8439 H   0  0  0  0  0  0  0  0  0  0  0  0
    2.5481   -1.2562    0.2160 H   0  0  0  0  0  0  0  0  0  0  0  0
   -0.0627   -3.1059    1.4613 H   0  0  0  0  0  0  0  0  0  0  0  0
    0.7285   -1.5531    1.4154 H   0  0  0  0  0  0  0  0  0  0  0  0
   -1.6616   -3.7284   -0.5043 H   0  0  0  0  0  0  0  0  0  0  0  0
   -3.5066   -2.8358   -1.8791 H   0  0  0  0  0  0  0  0  0  0  0  0
   -4.8510   -0.3965    0.1203 H   0  0  0  0  0  0  0  0  0  0  0  0
   -7.2598   -0.6058   -0.3974 H   0  0  0  0  0  0  0  0  0  0  0  0
   -7.2942    0.2927    1.8576 H   0  0  0  0  0  0  0  0  0  0  0  0
   -6.7114    1.8929    1.3025 H   0  0  0  0  0  0  0  0  0  0  0  0
   -9.2374    0.4986   -1.5802 H   0  0  0  0  0  0  0  0  0  0  0  0
   -9.1968    2.2988   -1.6733 H   0  0  0  0  0  0  0  0  0  0  0  0
   -6.8319    2.3694   -1.1542 H   0  0  0  0  0  0  0  0  0  0  0  0
   -2.1014    1.1571   -1.2157 H   0  0  0  0  0  0  0  0  0  0  0  0
   -0.2523    0.2947    0.1769 H   0  0  0  0  0  0  0  0  0  0  0  0
    6.0425   -0.4241   -1.6777 H   0  0  0  0  0  0  0  0  0  0  0  0
    6.6213    1.7987   -0.8658 H   0  0  0  0  0  0  0  0  0  0  0  0
  1  2  1  0
  2  3  1  0
  3  4  1  0
  4  5  2  0
  5  6  1  0
  6  7  2  0
  7  8  1  0
  8  9  1  0
  9 10  1  0
 10 11  1  0
 11 12  2  0
 11 13  1  0
 13 14  1  0
 14 15  2  0
 15 16  1  0
 16 17  2  0
 17 18  1  0
 18 19  2  3
 19 20  1  0
 20 21  1  0
 21 22  1  0
 22 23  1  0
 23 24  2  0
 23 25  2  0
 23 26  1  0
 26 27  1  0
 27 28  1  0
 17 29  1  0
 29 30  2  0
  7 31  1  0
 31 32  2  0
 32  4  1  0
 30 14  1  0
 28 19  1  0
 27 21  1  0
  1 33  1  0
  1 34  1  0
  1 35  1  0
  2 36  1  0
  2 37  1  0
  5 38  1  0
  6 39  1  0
  8 40  1  0
  8 41  1  0
  9 42  1  0
  9 43  1  0
 10 44  1  0
 13 45  1  0
 13 46  1  0
 15 47  1  0
 16 48  1  0
 20 49  1  0
 21 50  1  0
 22 51  1  0
 22 52  1  0
 26 53  1  0
 26 54  1  0
 27 55  1  0
 29 56  1  0
 30 57  1  0
 31 58  1  0
 32 59  1  0
M  END
$$$$
