
     RDKit          3D

 45 47  0  0  0  0  0  0  0  0999 V2000
   -2.2358   -0.7391    2.6907 O   0  0  0  0  0  0  0  0  0  0  0  0
   -1.9639    0.0622    1.8019 C   0  0  0  0  0  0  0  0  0  0  0  0
   -0.5451    0.5797    1.5662 C   0  0  0  0  0  0  0  0  0  0  0  0
   -0.3109    0.9922    0.2155 O   0  0  0  0  0  0  0  0  0  0  0  0
    0.0158   -0.0163   -0.6412 C   0  0  0  0  0  0  0  0  0  0  0  0
    0.0152   -1.2050   -0.3464 O   0  0  0  0  0  0  0  0  0  0  0  0
    0.2931    0.4885   -2.0384 C   0  0  0  0  0  0  0  0  0  0  0  0
    1.4280    1.9151   -2.0814 S   0  0  0  0  0  0  0  0  0  0  0  0
    2.8365    1.2490   -1.2102 C   0  0  0  0  0  0  0  0  0  0  0  0
    3.3333    1.9478   -0.1086 C   0  0  0  0  0  0  0  0  0  0  0  0
    4.4316    1.4579    0.6021 C   0  0  0  0  0  0  0  0  0  0  0  0
    5.0580    0.2637    0.2172 C   0  0  0  0  0  0  0  0  0  0  0  0
    6.1619   -0.2433    0.9214 C   0  0  0  0  0  0  0  0  0  0  0  0
    6.7771   -1.4312    0.5232 C   0  0  0  0  0  0  0  0  0  0  0  0
    6.2959   -2.1267   -0.5818 C   0  0  0  0  0  0  0  0  0  0  0  0
    5.1994   -1.6356   -1.2924 C   0  0  0  0  0  0  0  0  0  0  0  0
    4.5692   -0.4417   -0.9059 C   0  0  0  0  0  0  0  0  0  0  0  0
    3.4640    0.0653   -1.6116 C   0  0  0  0  0  0  0  0  0  0  0  0
   -2.9114    0.6343    0.9739 N   0  0  0  0  0  0  0  0  0  0  0  0
   -4.2802    0.1711    0.9660 C   0  0  0  0  0  0  0  0  0  0  0  0
   -5.2250    1.1498    0.2802 C   0  0  0  0  0  0  0  0  0  0  0  0
   -6.4499    0.2946    0.0024 C   0  0  0  0  0  0  0  0  0  0  0  0
   -5.8889   -1.0710   -0.3834 C   0  0  0  0  0  0  0  0  0  0  0  0
   -4.4630   -1.1217    0.1682 C   0  0  0  0  0  0  0  0  0  0  0  0
    0.1816   -0.1799    1.8770 H   0  0  0  0  0  0  0  0  0  0  0  0
   -0.4021    1.4569    2.2057 H   0  0  0  0  0  0  0  0  0  0  0  0
   -0.6601    0.7769   -2.4923 H   0  0  0  0  0  0  0  0  0  0  0  0
    0.7125   -0.3265   -2.6358 H   0  0  0  0  0  0  0  0  0  0  0  0
    2.8699    2.8784    0.2110 H   0  0  0  0  0  0  0  0  0  0  0  0
    4.7960    2.0191    1.4599 H   0  0  0  0  0  0  0  0  0  0  0  0
    6.5520    0.2853    1.7883 H   0  0  0  0  0  0  0  0  0  0  0  0
    7.6301   -1.8135    1.0778 H   0  0  0  0  0  0  0  0  0  0  0  0
    6.7719   -3.0535   -0.8908 H   0  0  0  0  0  0  0  0  0  0  0  0
    4.8378   -2.1963   -2.1513 H   0  0  0  0  0  0  0  0  0  0  0  0
    3.1037   -0.4708   -2.4861 H   0  0  0  0  0  0  0  0  0  0  0  0
   -2.5703    1.1737    0.1876 H   0  0  0  0  0  0  0  0  0  0  0  0
   -4.6034    0.0064    2.0021 H   0  0  0  0  0  0  0  0  0  0  0  0
   -4.7986    1.5196   -0.6608 H   0  0  0  0  0  0  0  0  0  0  0  0
   -5.4556    2.0160    0.9075 H   0  0  0  0  0  0  0  0  0  0  0  0
   -7.0849    0.7184   -0.7812 H   0  0  0  0  0  0  0  0  0  0  0  0
   -7.0555    0.2021    0.9119 H   0  0  0  0  0  0  0  0  0  0  0  0
   -5.8716   -1.1867   -1.4731 H   0  0  0  0  0  0  0  0  0  0  0  0
   -6.5083   -1.8783    0.0217 H   0  0  0  0  0  0  0  0  0  0  0  0
   -4.3011   -2.0062    0.7939 H   0  0  0  0  0  0  0  0  0  0  0  0
   -3.7489   -1.1810   -0.6629 H   0  0  0  0  0  0  0  0  0  0  0  0
  1  2  2  0
  2  3  1  0
  3  4  1  0
  4  5  1  0
  5  6  2  0
  5  7  1  0
  7  8  1  0
  8  9  1  0
  9 10  2  0
 10 11  1  0
 11 12  2  0
 12 13  1  0
 13 14  2  0
 14 15  1  0
 15 16  2  0
 16 17  1  0
 17 18  2  0
  2 19  1  0
 19 20  1  0
 20 21  1  0
 21 22  1  0
 22 23  1  0
 23 24  1  0
 18  9  1  0
 24 20  1  0
 17 12  1  0
  3 25  1  0
  3 26  1  0
  7 27  1  0
  7 28  1  0
 10 29  1  0
 11 30  1  0
 13 31  1  0
 14 32  1  0
 15 33  1  0
 16 34  1  0
 18 35  1  0
 19 36  1  0
 20 37  1  0
 21 38  1  0
 21 39  1  0
 22 40  1  0
 22 41  1  0
 23 42  1  0
 23 43  1  0
 24 44  1  0
 24 45  1  0
M  END
$$$$
