
     RDKit          3D

 47 49  0  0  0  0  0  0  0  0999 V2000
    7.5854   -0.4902    0.0129 C   0  0  0  0  0  0  0  0  0  0  0  0
    6.8273    0.1916    1.1387 C   0  0  0  0  0  0  0  0  0  0  0  0
    5.7071   -0.5932    1.5431 O   0  0  0  0  0  0  0  0  0  0  0  0
    4.5061   -0.3949    0.9239 C   0  0  0  0  0  0  0  0  0  0  0  0
    4.2651    0.4177   -0.1795 C   0  0  0  0  0  0  0  0  0  0  0  0
    2.9724    0.5239   -0.7163 C   0  0  0  0  0  0  0  0  0  0  0  0
    1.8980   -0.1851   -0.1625 C   0  0  0  0  0  0  0  0  0  0  0  0
    0.5715   -0.0734   -0.7080 N   0  0  0  0  0  0  0  0  0  0  0  0
    0.0662    0.9773   -1.4902 C   0  0  0  0  0  0  0  0  0  0  0  0
    0.7774    2.0602   -1.8027 O   0  0  0  0  0  0  0  0  0  0  0  0
   -1.2526    0.7089   -1.7962 C   0  0  0  0  0  0  0  0  0  0  0  0
   -1.5997   -0.5030   -1.1770 C   0  0  0  0  0  0  0  0  0  0  0  0
   -2.8126   -1.1356   -1.1928 N   0  0  0  0  0  0  0  0  0  0  0  0
   -3.7106   -0.8941   -2.3246 C   0  0  0  0  0  0  0  0  0  0  0  0
   -3.4970   -1.3643    0.0989 C   0  0  0  0  0  0  0  0  0  0  0  0
   -4.2523   -0.1482    0.5947 C   0  0  0  0  0  0  0  0  0  0  0  0
   -5.6416   -0.0486    0.4234 C   0  0  0  0  0  0  0  0  0  0  0  0
   -6.3337    1.0757    0.8777 C   0  0  0  0  0  0  0  0  0  0  0  0
   -5.6462    2.1119    1.5066 C   0  0  0  0  0  0  0  0  0  0  0  0
   -4.2666    2.0260    1.6822 C   0  0  0  0  0  0  0  0  0  0  0  0
   -3.5732    0.9027    1.2294 C   0  0  0  0  0  0  0  0  0  0  0  0
   -0.4677   -1.0006   -0.5659 C   0  0  0  0  0  0  0  0  0  0  0  0
   -0.3107   -2.2009   -0.0042 O   0  0  0  0  0  0  0  0  0  0  0  0
    2.1517   -1.0061    0.9434 C   0  0  0  0  0  0  0  0  0  0  0  0
    3.4427   -1.1077    1.4764 C   0  0  0  0  0  0  0  0  0  0  0  0
    8.4839    0.0770   -0.2466 H   0  0  0  0  0  0  0  0  0  0  0  0
    7.8816   -1.5021    0.3089 H   0  0  0  0  0  0  0  0  0  0  0  0
    6.9665   -0.5913   -0.8835 H   0  0  0  0  0  0  0  0  0  0  0  0
    7.4893    0.2566    2.0098 H   0  0  0  0  0  0  0  0  0  0  0  0
    6.5532    1.2238    0.8943 H   0  0  0  0  0  0  0  0  0  0  0  0
    5.0568    0.9772   -0.6650 H   0  0  0  0  0  0  0  0  0  0  0  0
    2.8513    1.1458   -1.5977 H   0  0  0  0  0  0  0  0  0  0  0  0
    0.1923    2.6610   -2.2968 H   0  0  0  0  0  0  0  0  0  0  0  0
   -1.9043    1.3536   -2.3682 H   0  0  0  0  0  0  0  0  0  0  0  0
   -3.1803   -1.0310   -3.2741 H   0  0  0  0  0  0  0  0  0  0  0  0
   -4.1282    0.1184   -2.3018 H   0  0  0  0  0  0  0  0  0  0  0  0
   -4.5395   -1.6104   -2.3174 H   0  0  0  0  0  0  0  0  0  0  0  0
   -4.1908   -2.2076   -0.0145 H   0  0  0  0  0  0  0  0  0  0  0  0
   -2.7934   -1.6841    0.8779 H   0  0  0  0  0  0  0  0  0  0  0  0
   -6.1937   -0.8474   -0.0661 H   0  0  0  0  0  0  0  0  0  0  0  0
   -7.4099    1.1433    0.7414 H   0  0  0  0  0  0  0  0  0  0  0  0
   -6.1851    2.9868    1.8605 H   0  0  0  0  0  0  0  0  0  0  0  0
   -3.7281    2.8335    2.1714 H   0  0  0  0  0  0  0  0  0  0  0  0
   -2.4952    0.8503    1.3703 H   0  0  0  0  0  0  0  0  0  0  0  0
   -1.1088   -2.6961   -0.2699 H   0  0  0  0  0  0  0  0  0  0  0  0
    1.3613   -1.5600    1.4402 H   0  0  0  0  0  0  0  0  0  0  0  0
    3.6144   -1.7475    2.3387 H   0  0  0  0  0  0  0  0  0  0  0  0
  1  2  1  0
  2  3  1  0
  3  4  1  0
  4  5  2  0
  5  6  1  0
  6  7  2  0
  7  8  1  0
  8  9  1  0
  9 10  1  0
  9 11  2  0
 11 12  1  0
 12 13  1  0
 13 14  1  0
 13 15  1  0
 15 16  1  0
 16 17  2  0
 17 18  1  0
 18 19  2  0
 19 20  1  0
 20 21  2  0
 12 22  2  0
 22 23  1  0
  7 24  1  0
 24 25  2  0
 25  4  1  0
 22  8  1  0
 21 16  1  0
  1 26  1  0
  1 27  1  0
  1 28  1  0
  2 29  1  0
  2 30  1  0
  5 31  1  0
  6 32  1  0
 10 33  1  0
 11 34  1  0
 14 35  1  0
 14 36  1  0
 14 37  1  0
 15 38  1  0
 15 39  1  0
 17 40  1  0
 18 41  1  0
 19 42  1  0
 20 43  1  0
 21 44  1  0
 23 45  1  0
 24 46  1  0
 25 47  1  0
M  END
$$$$
