
     RDKit          3D

 47 49  0  0  0  0  0  0  0  0999 V2000
    6.8428    1.1635    1.5417 C   0  0  0  0  0  0  0  0  0  0  0  0
    6.1898    0.4460    0.3655 C   0  0  0  0  0  0  0  0  0  0  0  0
    6.9326   -0.8470    0.0377 C   0  0  0  0  0  0  0  0  0  0  0  0
    4.7948    0.1724    0.6594 N   0  0  0  0  0  0  0  0  0  0  0  0
    3.8507    0.0009   -0.3300 C   0  0  0  0  0  0  0  0  0  0  0  0
    4.0200    0.1721   -1.5280 O   0  0  0  0  0  0  0  0  0  0  0  0
    2.4783   -0.4570    0.2011 C   0  0  0  0  0  0  0  0  0  0  0  0
    2.3041   -0.6569    1.3979 O   0  0  0  0  0  0  0  0  0  0  0  0
    1.5227   -0.5981   -0.7819 N   0  0  0  0  0  0  0  0  0  0  0  0
    0.1820   -0.7363   -0.3888 N   0  0  0  0  0  0  0  0  0  0  0  0
   -0.7611   -0.0027   -1.0847 C   0  0  0  0  0  0  0  0  0  0  0  0
   -0.4732    0.6015   -2.1176 O   0  0  0  0  0  0  0  0  0  0  0  0
   -2.1692   -0.0004   -0.4718 C   0  0  0  0  0  0  0  0  0  0  0  0
   -2.7087   -1.4435   -0.3233 C   0  0  0  0  0  0  0  0  0  0  0  0
   -4.1252   -1.4307    0.2779 C   0  0  0  0  0  0  0  0  0  0  0  0
   -4.0821   -0.7536    1.6586 C   0  0  0  0  0  0  0  0  0  0  0  0
   -3.5746    0.6923    1.5231 C   0  0  0  0  0  0  0  0  0  0  0  0
   -4.5155    1.4738    0.5925 C   0  0  0  0  0  0  0  0  0  0  0  0
   -4.5588    0.8071   -0.7916 C   0  0  0  0  0  0  0  0  0  0  0  0
   -5.0628   -0.6375   -0.6461 C   0  0  0  0  0  0  0  0  0  0  0  0
   -3.1413    0.7893   -1.3864 C   0  0  0  0  0  0  0  0  0  0  0  0
   -2.1585    0.6766    0.9203 C   0  0  0  0  0  0  0  0  0  0  0  0
    7.8876    1.4058    1.3217 H   0  0  0  0  0  0  0  0  0  0  0  0
    6.3175    2.0987    1.7647 H   0  0  0  0  0  0  0  0  0  0  0  0
    6.8179    0.5477    2.4478 H   0  0  0  0  0  0  0  0  0  0  0  0
    6.2281    1.1005   -0.5136 H   0  0  0  0  0  0  0  0  0  0  0  0
    6.8974   -1.5482    0.8789 H   0  0  0  0  0  0  0  0  0  0  0  0
    6.4851   -1.3486   -0.8272 H   0  0  0  0  0  0  0  0  0  0  0  0
    7.9831   -0.6455   -0.1963 H   0  0  0  0  0  0  0  0  0  0  0  0
    4.5211   -0.1245    1.5931 H   0  0  0  0  0  0  0  0  0  0  0  0
    1.6983   -0.1994   -1.7085 H   0  0  0  0  0  0  0  0  0  0  0  0
    0.0338   -1.0123    0.5801 H   0  0  0  0  0  0  0  0  0  0  0  0
   -2.7204   -1.9442   -1.3003 H   0  0  0  0  0  0  0  0  0  0  0  0
   -2.0516   -2.0427    0.3196 H   0  0  0  0  0  0  0  0  0  0  0  0
   -4.4913   -2.4583    0.3815 H   0  0  0  0  0  0  0  0  0  0  0  0
   -5.0825   -0.7581    2.1086 H   0  0  0  0  0  0  0  0  0  0  0  0
   -3.4273   -1.3190    2.3330 H   0  0  0  0  0  0  0  0  0  0  0  0
   -3.5504    1.1695    2.5092 H   0  0  0  0  0  0  0  0  0  0  0  0
   -4.1729    2.5116    0.4986 H   0  0  0  0  0  0  0  0  0  0  0  0
   -5.5239    1.5093    1.0229 H   0  0  0  0  0  0  0  0  0  0  0  0
   -5.2299    1.3681   -1.4514 H   0  0  0  0  0  0  0  0  0  0  0  0
   -5.1135   -1.1181   -1.6308 H   0  0  0  0  0  0  0  0  0  0  0  0
   -6.0810   -0.6396   -0.2380 H   0  0  0  0  0  0  0  0  0  0  0  0
   -3.1678    0.3411   -2.3885 H   0  0  0  0  0  0  0  0  0  0  0  0
   -2.7861    1.8199   -1.5194 H   0  0  0  0  0  0  0  0  0  0  0  0
   -1.4831    0.1526    1.6076 H   0  0  0  0  0  0  0  0  0  0  0  0
   -1.7747    1.7019    0.8378 H   0  0  0  0  0  0  0  0  0  0  0  0
  1  2  1  0
  2  3  1  0
  2  4  1  0
  4  5  1  0
  5  6  2  0
  5  7  1  0
  7  8  2  0
  7  9  1  0
  9 10  1  0
 10 11  1  0
 11 12  2  0
 11 13  1  0
 13 14  1  0
 14 15  1  0
 15 16  1  0
 16 17  1  0
 17 18  1  0
 18 19  1  0
 19 20  1  0
 19 21  1  0
 17 22  1  0
 21 13  1  0
 22 13  1  0
 20 15  1  0
  1 23  1  0
  1 24  1  0
  1 25  1  0
  2 26  1  0
  3 27  1  0
  3 28  1  0
  3 29  1  0
  4 30  1  0
  9 31  1  0
 10 32  1  0
 14 33  1  0
 14 34  1  0
 15 35  1  0
 16 36  1  0
 16 37  1  0
 17 38  1  0
 18 39  1  0
 18 40  1  0
 19 41  1  0
 20 42  1  0
 20 43  1  0
 21 44  1  0
 21 45  1  0
 22 46  1  0
 22 47  1  0
M  END
$$$$
