
     RDKit          3D

 53 57  0  0  0  0  0  0  0  0999 V2000
    3.3285    2.1610    2.2016 C   0  0  0  0  0  0  0  0  0  0  0  0
    3.4026    1.0981    3.2594 C   0  0  0  0  0  0  0  0  0  0  0  0
    4.5647    1.0304    4.0492 C   0  0  0  0  0  0  0  0  0  0  0  0
    4.7121    0.0571    5.0386 C   0  0  0  0  0  0  0  0  0  0  0  0
    3.7018   -0.8733    5.2564 C   0  0  0  0  0  0  0  0  0  0  0  0
    2.5433   -0.8327    4.4816 C   0  0  0  0  0  0  0  0  0  0  0  0
    2.3911    0.1419    3.4803 C   0  0  0  0  0  0  0  0  0  0  0  0
    0.8793    0.1094    2.5254 S   0  0  0  0  0  6  0  0  0  0  0  0
    0.2852    1.4254    2.5679 O   0  0  0  0  0  0  0  0  0  0  0  0
    0.1234   -1.0470    2.9634 O   0  0  0  0  0  0  0  0  0  0  0  0
    1.4399   -0.2981    0.9855 N   0  0  0  0  0  0  0  0  0  0  0  0
    0.7754    0.4092   -0.0627 C   0  0  0  0  0  0  0  0  0  0  0  0
    1.2680    1.6328   -0.3255 N   0  0  0  0  0  0  0  0  0  0  0  0
    0.6711    2.2934   -1.3311 C   0  0  0  0  0  0  0  0  0  0  0  0
    1.1068    3.5711   -1.6571 C   0  0  0  0  0  0  0  0  0  0  0  0
    0.5244    4.2934   -2.6994 C   0  0  0  0  0  0  0  0  0  0  0  0
   -0.5140    3.7285   -3.4282 C   0  0  0  0  0  0  0  0  0  0  0  0
   -0.9619    2.4456   -3.1098 C   0  0  0  0  0  0  0  0  0  0  0  0
   -0.3911    1.7168   -2.0748 C   0  0  0  0  0  0  0  0  0  0  0  0
   -0.8575    0.4822   -1.8040 N   0  0  0  0  0  0  0  0  0  0  0  0
   -0.2907   -0.1809   -0.7767 C   0  0  0  0  0  0  0  0  0  0  0  0
   -0.7196   -1.4854   -0.4350 N   0  0  0  0  0  0  0  0  0  0  0  0
   -1.9112   -1.4514    0.4375 C   0  0  0  0  0  0  0  0  0  0  0  0
   -3.1997   -1.0826   -0.3021 C   0  0  0  0  0  0  0  0  0  0  0  0
   -3.3744   -1.8748   -1.5683 C   0  0  0  0  0  0  0  0  0  0  0  0
   -4.6446   -1.9911   -2.1499 C   0  0  0  0  0  0  0  0  0  0  0  0
   -4.8148   -2.6973   -3.3393 C   0  0  0  0  0  0  0  0  0  0  0  0
   -3.7173   -3.2830   -3.9627 C   0  0  0  0  0  0  0  0  0  0  0  0
   -2.4476   -3.1584   -3.3985 C   0  0  0  0  0  0  0  0  0  0  0  0
   -2.2595   -2.4467   -2.2017 C   0  0  0  0  0  0  0  0  0  0  0  0
   -0.8665   -2.3626   -1.6113 C   0  0  0  0  0  0  0  0  0  0  0  0
    3.4314    1.7131    1.2103 H   0  0  0  0  0  0  0  0  0  0  0  0
    2.3999    2.7319    2.2708 H   0  0  0  0  0  0  0  0  0  0  0  0
    4.1433    2.8858    2.3112 H   0  0  0  0  0  0  0  0  0  0  0  0
    5.3755    1.7411    3.8937 H   0  0  0  0  0  0  0  0  0  0  0  0
    5.6199    0.0252    5.6367 H   0  0  0  0  0  0  0  0  0  0  0  0
    3.8161   -1.6314    6.0260 H   0  0  0  0  0  0  0  0  0  0  0  0
    1.7674   -1.5715    4.6646 H   0  0  0  0  0  0  0  0  0  0  0  0
    1.2076   -1.2895    0.8685 H   0  0  0  0  0  0  0  0  0  0  0  0
    1.9184    4.0135   -1.0835 H   0  0  0  0  0  0  0  0  0  0  0  0
    0.8816    5.2926   -2.9354 H   0  0  0  0  0  0  0  0  0  0  0  0
   -0.9776    4.2802   -4.2427 H   0  0  0  0  0  0  0  0  0  0  0  0
   -1.7765    2.0025   -3.6785 H   0  0  0  0  0  0  0  0  0  0  0  0
   -1.7733   -0.7561    1.2720 H   0  0  0  0  0  0  0  0  0  0  0  0
   -2.0233   -2.4480    0.8851 H   0  0  0  0  0  0  0  0  0  0  0  0
   -3.2058   -0.0159   -0.5537 H   0  0  0  0  0  0  0  0  0  0  0  0
   -4.0481   -1.2620    0.3689 H   0  0  0  0  0  0  0  0  0  0  0  0
   -5.5069   -1.5280   -1.6766 H   0  0  0  0  0  0  0  0  0  0  0  0
   -5.8039   -2.7885   -3.7814 H   0  0  0  0  0  0  0  0  0  0  0  0
   -3.8486   -3.8339   -4.8898 H   0  0  0  0  0  0  0  0  0  0  0  0
   -1.5997   -3.6201   -3.9000 H   0  0  0  0  0  0  0  0  0  0  0  0
   -0.1431   -2.0962   -2.3933 H   0  0  0  0  0  0  0  0  0  0  0  0
   -0.6014   -3.3760   -1.2815 H   0  0  0  0  0  0  0  0  0  0  0  0
  1  2  1  0
  2  3  2  0
  3  4  1  0
  4  5  2  0
  5  6  1  0
  6  7  2  0
  7  8  1  0
  8  9  2  0
  8 10  2  0
  8 11  1  0
 11 12  1  0
 12 13  2  0
 13 14  1  0
 14 15  2  0
 15 16  1  0
 16 17  2  0
 17 18  1  0
 18 19  2  0
 19 20  1  0
 20 21  2  0
 21 22  1  0
 22 23  1  0
 23 24  1  0
 24 25  1  0
 25 26  2  0
 26 27  1  0
 27 28  2  0
 28 29  1  0
 29 30  2  0
 30 31  1  0
  7  2  1  0
 21 12  1  0
 31 22  1  0
 19 14  1  0
 30 25  1  0
  1 32  1  0
  1 33  1  0
  1 34  1  0
  3 35  1  0
  4 36  1  0
  5 37  1  0
  6 38  1  0
 11 39  1  0
 15 40  1  0
 16 41  1  0
 17 42  1  0
 18 43  1  0
 23 44  1  0
 23 45  1  0
 24 46  1  0
 24 47  1  0
 26 48  1  0
 27 49  1  0
 28 50  1  0
 29 51  1  0
 31 52  1  0
 31 53  1  0
M  END
$$$$
