
     RDKit          3D

 33 36  0  0  0  0  0  0  0  0999 V2000
    7.0244   -0.0444   -0.0952 C   0  0  0  0  0  0  0  0  0  0  0  0
    5.5259    0.0166   -0.1203 C   0  0  0  0  0  0  0  0  0  0  0  0
    4.8598    0.6515   -1.1741 C   0  0  0  0  0  0  0  0  0  0  0  0
    3.4621    0.6813   -1.2143 C   0  0  0  0  0  0  0  0  0  0  0  0
    2.7044    0.0677   -0.2073 C   0  0  0  0  0  0  0  0  0  0  0  0
    1.2441    0.0944   -0.2425 C   0  0  0  0  0  0  0  0  0  0  0  0
    0.4729   -0.5096    0.7491 N   0  0  0  0  0  0  0  0  0  0  0  0
   -0.7353   -0.2561    0.3402 C   0  0  0  0  0  0  0  0  0  0  0  0
   -2.3152   -0.5961    0.9085 S   0  0  0  0  0  0  0  0  0  0  0  0
   -2.9924    0.2562   -0.4650 C   0  0  0  0  0  0  0  0  0  0  0  0
   -4.2769    0.4352   -0.8009 C   0  0  0  0  0  0  0  0  0  0  0  0
   -5.4178   -0.0202   -0.0836 C   0  0  0  0  0  0  0  0  0  0  0  0
   -5.6574   -0.2344    1.2706 C   0  0  0  0  0  0  0  0  0  0  0  0
   -6.9951   -0.6752    1.4198 C   0  0  0  0  0  0  0  0  0  0  0  0
   -7.5231   -0.6958    0.1566 C   0  0  0  0  0  0  0  0  0  0  0  0
   -6.5971   -0.2963   -0.7457 O   0  0  0  0  0  0  0  0  0  0  0  0
   -1.9316    0.8021   -1.3719 C   0  0  0  0  0  0  0  0  0  0  0  0
   -2.0425    1.4381   -2.4042 O   0  0  0  0  0  0  0  0  0  0  0  0
   -0.7265    0.4469   -0.8065 N   0  0  0  0  0  0  0  0  0  0  0  0
    0.5266    0.6960   -1.2188 N   0  0  0  0  0  0  0  0  0  0  0  0
    3.3759   -0.5798    0.8385 C   0  0  0  0  0  0  0  0  0  0  0  0
    4.7736   -0.6098    0.8791 C   0  0  0  0  0  0  0  0  0  0  0  0
    7.3967   -0.0800    0.9341 H   0  0  0  0  0  0  0  0  0  0  0  0
    7.4594    0.8431   -0.5668 H   0  0  0  0  0  0  0  0  0  0  0  0
    7.3716   -0.9348   -0.6283 H   0  0  0  0  0  0  0  0  0  0  0  0
    5.4228    1.1295   -1.9728 H   0  0  0  0  0  0  0  0  0  0  0  0
    2.9693    1.1869   -2.0429 H   0  0  0  0  0  0  0  0  0  0  0  0
   -4.5058    0.9450   -1.7368 H   0  0  0  0  0  0  0  0  0  0  0  0
   -4.9549   -0.0781    2.0770 H   0  0  0  0  0  0  0  0  0  0  0  0
   -7.5088   -0.9337    2.3349 H   0  0  0  0  0  0  0  0  0  0  0  0
   -8.4928   -0.9501   -0.2482 H   0  0  0  0  0  0  0  0  0  0  0  0
    2.8146   -1.0704    1.6315 H   0  0  0  0  0  0  0  0  0  0  0  0
    5.2691   -1.1259    1.6985 H   0  0  0  0  0  0  0  0  0  0  0  0
  1  2  1  0
  2  3  2  0
  3  4  1  0
  4  5  2  0
  5  6  1  0
  6  7  1  0
  7  8  2  0
  8  9  1  0
  9 10  1  0
 10 11  2  3
 11 12  1  0
 12 13  2  0
 13 14  1  0
 14 15  2  0
 15 16  1  0
 10 17  1  0
 17 18  2  0
 17 19  1  0
 19 20  1  0
  5 21  1  0
 21 22  2  0
 22  2  1  0
 20  6  2  0
 19  8  1  0
 16 12  1  0
  1 23  1  0
  1 24  1  0
  1 25  1  0
  3 26  1  0
  4 27  1  0
 11 28  1  0
 13 29  1  0
 14 30  1  0
 15 31  1  0
 21 32  1  0
 22 33  1  0
M  END
$$$$
