
     RDKit          3D

 40 41  0  0  0  0  0  0  0  0999 V2000
    4.9004    2.6893   -0.5104 C   0  0  0  0  0  0  0  0  0  0  0  0
    4.6324    1.1996   -0.6019 C   0  0  0  0  0  0  0  0  0  0  0  0
    3.2565    0.9755   -0.2781 O   0  0  0  0  0  0  0  0  0  0  0  0
    2.8688   -0.3338   -0.3322 C   0  0  0  0  0  0  0  0  0  0  0  0
    3.6336   -1.2482   -0.6201 O   0  0  0  0  0  0  0  0  0  0  0  0
    1.4570   -0.5346    0.0104 C   0  0  0  0  0  0  0  0  0  0  0  0
    0.4775    0.4437    0.1935 C   0  0  0  0  0  0  0  0  0  0  0  0
    0.5694    1.9276    0.0420 C   0  0  0  0  0  0  0  0  0  0  0  0
   -0.6922   -0.1961    0.5626 N   0  0  0  0  0  0  0  0  0  0  0  0
   -1.9251    0.4666    0.9765 C   0  0  0  0  0  0  0  0  0  0  0  0
   -2.6554    0.8216   -0.1925 O   0  0  0  0  0  0  0  0  0  0  0  0
   -3.8856    1.4567    0.1359 C   0  0  0  0  0  0  0  0  0  0  0  0
   -4.5916    1.8862   -1.1451 C   0  0  0  0  0  0  0  0  0  0  0  0
   -5.8567    2.4650   -0.8507 O   0  0  0  0  0  0  0  0  0  0  0  0
   -0.5232   -1.5675    0.5269 C   0  0  0  0  0  0  0  0  0  0  0  0
   -1.4317   -2.6177    0.7579 C   0  0  0  0  0  0  0  0  0  0  0  0
   -0.9675   -3.9334    0.6720 C   0  0  0  0  0  0  0  0  0  0  0  0
    0.3610   -4.1853    0.3653 C   0  0  0  0  0  0  0  0  0  0  0  0
    0.8366   -5.4621    0.2792 O   0  0  0  0  0  0  0  0  0  0  0  0
    1.2590   -3.1460    0.1300 C   0  0  0  0  0  0  0  0  0  0  0  0
    0.8146   -1.8058    0.2031 C   0  0  0  0  0  0  0  0  0  0  0  0
    4.2521    3.2404   -1.1998 H   0  0  0  0  0  0  0  0  0  0  0  0
    5.9434    2.9137   -0.7501 H   0  0  0  0  0  0  0  0  0  0  0  0
    4.6811    3.0591    0.4967 H   0  0  0  0  0  0  0  0  0  0  0  0
    4.8362    0.8499   -1.6202 H   0  0  0  0  0  0  0  0  0  0  0  0
    5.2723    0.6649    0.1089 H   0  0  0  0  0  0  0  0  0  0  0  0
    1.1143    2.1888   -0.8708 H   0  0  0  0  0  0  0  0  0  0  0  0
    1.0914    2.3627    0.9000 H   0  0  0  0  0  0  0  0  0  0  0  0
   -0.4096    2.4074   -0.0391 H   0  0  0  0  0  0  0  0  0  0  0  0
   -1.6589    1.3517    1.5644 H   0  0  0  0  0  0  0  0  0  0  0  0
   -2.5028   -0.2147    1.6086 H   0  0  0  0  0  0  0  0  0  0  0  0
   -4.5236    0.7651    0.6991 H   0  0  0  0  0  0  0  0  0  0  0  0
   -3.7052    2.3339    0.7689 H   0  0  0  0  0  0  0  0  0  0  0  0
   -4.7308    1.0386   -1.8249 H   0  0  0  0  0  0  0  0  0  0  0  0
   -3.9863    2.6267   -1.6784 H   0  0  0  0  0  0  0  0  0  0  0  0
   -6.4695    1.7369   -0.6489 H   0  0  0  0  0  0  0  0  0  0  0  0
   -2.4745   -2.4270    0.9893 H   0  0  0  0  0  0  0  0  0  0  0  0
   -1.6641   -4.7473    0.8478 H   0  0  0  0  0  0  0  0  0  0  0  0
    0.1042   -6.0781    0.4401 H   0  0  0  0  0  0  0  0  0  0  0  0
    2.2927   -3.3741   -0.1160 H   0  0  0  0  0  0  0  0  0  0  0  0
  1  2  1  0
  2  3  1  0
  3  4  1  0
  4  5  2  0
  4  6  1  0
  6  7  2  0
  7  8  1  0
  7  9  1  0
  9 10  1  0
 10 11  1  0
 11 12  1  0
 12 13  1  0
 13 14  1  0
  9 15  1  0
 15 16  2  0
 16 17  1  0
 17 18  2  0
 18 19  1  0
 18 20  1  0
 20 21  2  0
 21  6  1  0
 21 15  1  0
  1 22  1  0
  1 23  1  0
  1 24  1  0
  2 25  1  0
  2 26  1  0
  8 27  1  0
  8 28  1  0
  8 29  1  0
 10 30  1  0
 10 31  1  0
 12 32  1  0
 12 33  1  0
 13 34  1  0
 13 35  1  0
 14 36  1  0
 16 37  1  0
 17 38  1  0
 19 39  1  0
 20 40  1  0
M  END
$$$$
