
     RDKit          3D

 49 51  0  0  0  0  0  0  0  0999 V2000
   -6.3712   -1.2114    0.1932 C   0  0  0  0  0  0  0  0  0  0  0  0
   -5.1746   -0.3533   -0.0928 C   0  0  0  0  0  0  0  0  0  0  0  0
   -5.3362    0.9420   -0.5944 C   0  0  0  0  0  0  0  0  0  0  0  0
   -4.2237    1.7548   -0.8392 C   0  0  0  0  0  0  0  0  0  0  0  0
   -4.4025    3.1544   -1.3507 C   0  0  0  0  0  0  0  0  0  0  0  0
   -2.9388    1.2724   -0.5444 C   0  0  0  0  0  0  0  0  0  0  0  0
   -2.7574   -0.0130   -0.0322 C   0  0  0  0  0  0  0  0  0  0  0  0
   -1.5007   -0.5657    0.2900 N   0  0  0  0  0  0  0  0  0  0  0  0
   -0.2452   -0.0010    0.0903 C   0  0  0  0  0  0  0  0  0  0  0  0
   -0.0190    1.0862   -0.4380 O   0  0  0  0  0  0  0  0  0  0  0  0
    0.9065   -0.9070    0.6100 C   0  0  0  0  0  0  0  0  0  0  0  0
    2.1778   -0.2542    0.5754 O   0  0  0  0  0  0  0  0  0  0  0  0
    2.3557    0.6584    1.5592 C   0  0  0  0  0  0  0  0  0  0  0  0
    1.5846    0.8679    2.4827 O   0  0  0  0  0  0  0  0  0  0  0  0
    3.6483    1.3743    1.3852 C   0  0  0  0  0  0  0  0  0  0  0  0
    4.5339    1.0843    0.3376 C   0  0  0  0  0  0  0  0  0  0  0  0
    5.7372    1.7851    0.2248 C   0  0  0  0  0  0  0  0  0  0  0  0
    6.0527    2.7715    1.1527 C   0  0  0  0  0  0  0  0  0  0  0  0
    7.2371    3.4286    1.0010 O   0  0  0  0  0  0  0  0  0  0  0  0
    5.1852    3.0735    2.1975 C   0  0  0  0  0  0  0  0  0  0  0  0
    3.9815    2.3729    2.3130 C   0  0  0  0  0  0  0  0  0  0  0  0
    1.0397   -2.1712   -0.2257 C   0  0  0  0  0  0  0  0  0  0  0  0
    1.0220   -3.4328    0.3899 C   0  0  0  0  0  0  0  0  0  0  0  0
    1.1412   -4.5949   -0.3742 C   0  0  0  0  0  0  0  0  0  0  0  0
    1.2857   -4.5102   -1.7576 C   0  0  0  0  0  0  0  0  0  0  0  0
    1.3178   -3.2639   -2.3795 C   0  0  0  0  0  0  0  0  0  0  0  0
    1.2002   -2.1000   -1.6190 C   0  0  0  0  0  0  0  0  0  0  0  0
   -3.8831   -0.8165    0.1954 C   0  0  0  0  0  0  0  0  0  0  0  0
   -6.1322   -2.2716    0.0586 H   0  0  0  0  0  0  0  0  0  0  0  0
   -7.1941   -0.9757   -0.4898 H   0  0  0  0  0  0  0  0  0  0  0  0
   -6.7087   -1.0519    1.2219 H   0  0  0  0  0  0  0  0  0  0  0  0
   -6.3356    1.3223   -0.7971 H   0  0  0  0  0  0  0  0  0  0  0  0
   -3.5597    3.4486   -1.9849 H   0  0  0  0  0  0  0  0  0  0  0  0
   -5.3094    3.2362   -1.9590 H   0  0  0  0  0  0  0  0  0  0  0  0
   -4.4762    3.8526   -0.5113 H   0  0  0  0  0  0  0  0  0  0  0  0
   -2.0933    1.9312   -0.7177 H   0  0  0  0  0  0  0  0  0  0  0  0
   -1.5182   -1.5086    0.6589 H   0  0  0  0  0  0  0  0  0  0  0  0
    0.6639   -1.1939    1.6429 H   0  0  0  0  0  0  0  0  0  0  0  0
    4.3020    0.3188   -0.3986 H   0  0  0  0  0  0  0  0  0  0  0  0
    6.4250    1.5631   -0.5867 H   0  0  0  0  0  0  0  0  0  0  0  0
    7.3142    4.0987    1.6999 H   0  0  0  0  0  0  0  0  0  0  0  0
    5.4232    3.8432    2.9250 H   0  0  0  0  0  0  0  0  0  0  0  0
    3.3007    2.6103    3.1287 H   0  0  0  0  0  0  0  0  0  0  0  0
    0.9245   -3.5225    1.4699 H   0  0  0  0  0  0  0  0  0  0  0  0
    1.1285   -5.5683    0.1100 H   0  0  0  0  0  0  0  0  0  0  0  0
    1.3812   -5.4156   -2.3515 H   0  0  0  0  0  0  0  0  0  0  0  0
    1.4387   -3.1967   -3.4579 H   0  0  0  0  0  0  0  0  0  0  0  0
    1.2369   -1.1334   -2.1206 H   0  0  0  0  0  0  0  0  0  0  0  0
   -3.7656   -1.8180    0.6025 H   0  0  0  0  0  0  0  0  0  0  0  0
  1  2  1  0
  2  3  2  0
  3  4  1  0
  4  5  1  0
  4  6  2  0
  6  7  1  0
  7  8  1  0
  8  9  1  0
  9 10  2  0
  9 11  1  0
 11 12  1  0
 12 13  1  0
 13 14  2  0
 13 15  1  0
 15 16  2  0
 16 17  1  0
 17 18  2  0
 18 19  1  0
 18 20  1  0
 20 21  2  0
 11 22  1  0
 22 23  2  0
 23 24  1  0
 24 25  2  0
 25 26  1  0
 26 27  2  0
  7 28  2  0
 28  2  1  0
 21 15  1  0
 27 22  1  0
  1 29  1  0
  1 30  1  0
  1 31  1  0
  3 32  1  0
  5 33  1  0
  5 34  1  0
  5 35  1  0
  6 36  1  0
  8 37  1  0
 11 38  1  0
 16 39  1  0
 17 40  1  0
 19 41  1  0
 20 42  1  0
 21 43  1  0
 23 44  1  0
 24 45  1  0
 25 46  1  0
 26 47  1  0
 27 48  1  0
 28 49  1  0
M  END
$$$$
