
     RDKit          3D

 36 38  0  0  0  0  0  0  0  0999 V2000
   -3.8634    2.8551   -2.4115 N   0  0  0  0  0  0  0  0  0  0  0  0
   -2.9288    2.3656   -1.9238 C   0  0  0  0  0  0  0  0  0  0  0  0
   -1.7972    1.7684   -1.2952 C   0  0  0  0  0  0  0  0  0  0  0  0
   -0.5283    1.9913   -1.7897 N   0  0  0  0  0  0  0  0  0  0  0  0
    0.2368    1.2727   -0.9938 C   0  0  0  0  0  0  0  0  0  0  0  0
    1.7157    1.1013   -1.0202 C   0  0  0  0  0  0  0  0  0  0  0  0
    1.9759   -0.2762   -1.2854 O   0  0  0  0  0  0  0  0  0  0  0  0
    3.2795   -0.6959   -1.2754 C   0  0  0  0  0  0  0  0  0  0  0  0
    4.3868    0.1543   -1.1838 C   0  0  0  0  0  0  0  0  0  0  0  0
    5.6832   -0.3728   -1.1887 C   0  0  0  0  0  0  0  0  0  0  0  0
    5.8784   -1.7487   -1.2874 C   0  0  0  0  0  0  0  0  0  0  0  0
    7.4762   -2.3851   -1.2917 Cl  0  0  0  0  0  0  0  0  0  0  0  0
    4.7905   -2.6088   -1.3833 C   0  0  0  0  0  0  0  0  0  0  0  0
    3.4968   -2.0820   -1.3785 C   0  0  0  0  0  0  0  0  0  0  0  0
    2.1738   -3.1910   -1.4945 Cl  0  0  0  0  0  0  0  0  0  0  0  0
   -0.4369    0.6281    0.0055 O   0  0  0  0  0  0  0  0  0  0  0  0
   -1.7619    0.9399   -0.1848 C   0  0  0  0  0  0  0  0  0  0  0  0
   -2.6568    0.3856    0.6886 N   0  0  0  0  0  0  0  0  0  0  0  0
   -2.1160   -0.2222    1.9273 C   0  0  0  0  0  0  0  0  0  0  0  0
   -3.1739   -1.0897    2.6221 C   0  0  0  0  0  0  0  0  0  0  0  0
   -4.3718   -0.3453    2.8821 O   0  0  0  0  0  0  0  0  0  0  0  0
   -4.9348    0.1087    1.6444 C   0  0  0  0  0  0  0  0  0  0  0  0
   -3.9692    1.0344    0.8879 C   0  0  0  0  0  0  0  0  0  0  0  0
    2.1350    1.7270   -1.8160 H   0  0  0  0  0  0  0  0  0  0  0  0
    2.1291    1.3949   -0.0485 H   0  0  0  0  0  0  0  0  0  0  0  0
    4.2842    1.2327   -1.1148 H   0  0  0  0  0  0  0  0  0  0  0  0
    6.5370    0.2976   -1.1182 H   0  0  0  0  0  0  0  0  0  0  0  0
    4.9451   -3.6814   -1.4616 H   0  0  0  0  0  0  0  0  0  0  0  0
   -1.8015    0.5822    2.6041 H   0  0  0  0  0  0  0  0  0  0  0  0
   -1.2477   -0.8567    1.7147 H   0  0  0  0  0  0  0  0  0  0  0  0
   -3.4219   -1.9697    2.0163 H   0  0  0  0  0  0  0  0  0  0  0  0
   -2.7886   -1.4457    3.5828 H   0  0  0  0  0  0  0  0  0  0  0  0
   -5.8584    0.6483    1.8770 H   0  0  0  0  0  0  0  0  0  0  0  0
   -5.2038   -0.7612    1.0329 H   0  0  0  0  0  0  0  0  0  0  0  0
   -3.8227    1.9580    1.4613 H   0  0  0  0  0  0  0  0  0  0  0  0
   -4.4402    1.2860   -0.0656 H   0  0  0  0  0  0  0  0  0  0  0  0
  1  2  3  0
  2  3  1  0
  3  4  1  0
  4  5  2  0
  5  6  1  0
  6  7  1  0
  7  8  1  0
  8  9  2  0
  9 10  1  0
 10 11  2  0
 11 12  1  0
 11 13  1  0
 13 14  2  0
 14 15  1  0
  5 16  1  0
 16 17  1  0
 17 18  1  0
 18 19  1  0
 19 20  1  0
 20 21  1  0
 21 22  1  0
 22 23  1  0
 17  3  2  0
 23 18  1  0
 14  8  1  0
  6 24  1  0
  6 25  1  0
  9 26  1  0
 10 27  1  0
 13 28  1  0
 19 29  1  0
 19 30  1  0
 20 31  1  0
 20 32  1  0
 22 33  1  0
 22 34  1  0
 23 35  1  0
 23 36  1  0
M  END
$$$$
