
     RDKit          3D

 38 39  0  0  0  0  0  0  0  0999 V2000
   -2.2249    1.9112    2.9253 C   0  0  0  0  0  0  0  0  0  0  0  0
   -1.8144    2.4298    1.6260 N   0  0  0  0  0  0  0  0  0  0  0  0
   -2.7666    2.0904    0.5581 C   0  0  0  0  0  0  0  0  0  0  0  0
   -2.7182    0.6350    0.1419 C   0  0  0  0  0  0  0  0  0  0  0  0
   -3.6828   -0.2582    0.6450 C   0  0  0  0  0  0  0  0  0  0  0  0
   -3.6463   -1.6139    0.3086 C   0  0  0  0  0  0  0  0  0  0  0  0
   -2.6450   -2.0913   -0.5332 C   0  0  0  0  0  0  0  0  0  0  0  0
   -1.6900   -1.2137   -1.0588 C   0  0  0  0  0  0  0  0  0  0  0  0
   -1.7277    0.1478   -0.7362 C   0  0  0  0  0  0  0  0  0  0  0  0
   -0.8053    1.0595   -1.1866 O   0  0  0  0  0  0  0  0  0  0  0  0
   -0.2505    0.8210   -2.4789 C   0  0  0  0  0  0  0  0  0  0  0  0
    1.0916    0.0807   -2.4512 C   0  0  0  0  0  0  0  0  0  0  0  0
    1.5507   -0.4122   -3.4793 O   0  0  0  0  0  0  0  0  0  0  0  0
    1.6740    0.0807   -1.1953 N   0  0  0  0  0  0  0  0  0  0  0  0
    2.8844   -0.5188   -0.7985 C   0  0  0  0  0  0  0  0  0  0  0  0
    3.2196   -0.4406    0.5600 C   0  0  0  0  0  0  0  0  0  0  0  0
    4.3972   -1.0262    1.0379 C   0  0  0  0  0  0  0  0  0  0  0  0
    5.2560   -1.6817    0.1560 C   0  0  0  0  0  0  0  0  0  0  0  0
    4.9348   -1.7549   -1.1984 C   0  0  0  0  0  0  0  0  0  0  0  0
    3.7508   -1.1807   -1.6728 C   0  0  0  0  0  0  0  0  0  0  0  0
   -3.2240    2.2618    3.2018 H   0  0  0  0  0  0  0  0  0  0  0  0
   -1.5284    2.2686    3.6933 H   0  0  0  0  0  0  0  0  0  0  0  0
   -2.2004    0.8163    2.9655 H   0  0  0  0  0  0  0  0  0  0  0  0
   -1.7623    3.4454    1.6812 H   0  0  0  0  0  0  0  0  0  0  0  0
   -2.5392    2.7118   -0.3190 H   0  0  0  0  0  0  0  0  0  0  0  0
   -3.7903    2.3751    0.8424 H   0  0  0  0  0  0  0  0  0  0  0  0
   -4.4655    0.1013    1.3125 H   0  0  0  0  0  0  0  0  0  0  0  0
   -4.3920   -2.2954    0.7113 H   0  0  0  0  0  0  0  0  0  0  0  0
   -2.6015   -3.1528   -0.7720 H   0  0  0  0  0  0  0  0  0  0  0  0
   -0.9089   -1.6347   -1.6869 H   0  0  0  0  0  0  0  0  0  0  0  0
   -0.0546    1.8033   -2.9232 H   0  0  0  0  0  0  0  0  0  0  0  0
   -0.9510    0.3022   -3.1439 H   0  0  0  0  0  0  0  0  0  0  0  0
    1.1043    0.4927   -0.4537 H   0  0  0  0  0  0  0  0  0  0  0  0
    2.5678    0.0736    1.2621 H   0  0  0  0  0  0  0  0  0  0  0  0
    4.6443   -0.9731    2.0969 H   0  0  0  0  0  0  0  0  0  0  0  0
    6.1761   -2.1348    0.5208 H   0  0  0  0  0  0  0  0  0  0  0  0
    5.6025   -2.2584   -1.8956 H   0  0  0  0  0  0  0  0  0  0  0  0
    3.5357   -1.2666   -2.7346 H   0  0  0  0  0  0  0  0  0  0  0  0
  1  2  1  0
  2  3  1  0
  3  4  1  0
  4  5  2  0
  5  6  1  0
  6  7  2  0
  7  8  1  0
  8  9  2  0
  9 10  1  0
 10 11  1  0
 11 12  1  0
 12 13  2  0
 12 14  1  0
 14 15  1  0
 15 16  2  0
 16 17  1  0
 17 18  2  0
 18 19  1  0
 19 20  2  0
  9  4  1  0
 20 15  1  0
  1 21  1  0
  1 22  1  0
  1 23  1  0
  2 24  1  0
  3 25  1  0
  3 26  1  0
  5 27  1  0
  6 28  1  0
  7 29  1  0
  8 30  1  0
 11 31  1  0
 11 32  1  0
 14 33  1  0
 16 34  1  0
 17 35  1  0
 18 36  1  0
 19 37  1  0
 20 38  1  0
M  END
$$$$
