
     RDKit          3D

 53 56  0  0  0  0  0  0  0  0999 V2000
   -6.7157    0.6627   -0.9453 C   0  0  0  0  0  0  0  0  0  0  0  0
   -5.8521    1.1272    0.2475 C   0  0  0  0  0  0  0  0  0  0  0  0
   -6.4449    0.4790    1.5189 C   0  0  0  0  0  0  0  0  0  0  0  0
   -5.9884    2.6567    0.4077 C   0  0  0  0  0  0  0  0  0  0  0  0
   -4.3789    0.7643   -0.0064 C   0  0  0  0  0  0  0  0  0  0  0  0
   -3.6381   -0.0591    0.8546 C   0  0  0  0  0  0  0  0  0  0  0  0
   -2.2937   -0.3768    0.5988 C   0  0  0  0  0  0  0  0  0  0  0  0
   -1.6482    0.1166   -0.5353 C   0  0  0  0  0  0  0  0  0  0  0  0
   -0.2834   -0.1761   -0.8438 N   0  0  0  0  0  0  0  0  0  0  0  0
    0.3359    0.5329   -1.8352 N   0  0  0  0  0  0  0  0  0  0  0  0
    1.5987    0.1141   -1.8400 C   0  0  0  0  0  0  0  0  0  0  0  0
    1.8316   -0.8871   -0.8920 C   0  0  0  0  0  0  0  0  0  0  0  0
    0.5989   -1.1005   -0.2986 C   0  0  0  0  0  0  0  0  0  0  0  0
    0.3338   -2.1715    0.7036 C   0  0  0  0  0  0  0  0  0  0  0  0
    1.4713   -3.2121    0.6858 C   0  0  0  0  0  0  0  0  0  0  0  0
    2.8580   -2.5489    0.6678 C   0  0  0  0  0  0  0  0  0  0  0  0
    3.0629   -1.6723   -0.5893 C   0  0  0  0  0  0  0  0  0  0  0  0
    4.1595   -0.7520   -0.4003 N   0  0  0  0  0  0  0  0  0  0  0  0
    5.4762   -1.1406   -0.5105 C   0  0  0  0  0  0  0  0  0  0  0  0
    5.8357   -2.2527   -0.8766 O   0  0  0  0  0  0  0  0  0  0  0  0
    6.4616   -0.0898   -0.1332 C   0  0  0  0  0  0  0  0  0  0  0  0
    7.8214   -0.3403   -0.2345 C   0  0  0  0  0  0  0  0  0  0  0  0
    8.7531    0.5894    0.1002 N   0  0  0  0  0  0  0  0  0  0  0  0
    8.2605    1.7724    0.5365 C   0  0  0  0  0  0  0  0  0  0  0  0
    6.8996    2.0214    0.6389 C   0  0  0  0  0  0  0  0  0  0  0  0
    5.9622    1.1017    0.3110 N   0  0  0  0  0  0  0  0  0  0  0  0
   -2.3710    0.9563   -1.3940 C   0  0  0  0  0  0  0  0  0  0  0  0
   -3.7110    1.2690   -1.1348 C   0  0  0  0  0  0  0  0  0  0  0  0
   -6.4363    1.1627   -1.8792 H   0  0  0  0  0  0  0  0  0  0  0  0
   -7.7768    0.8778   -0.7726 H   0  0  0  0  0  0  0  0  0  0  0  0
   -6.6163   -0.4172   -1.1073 H   0  0  0  0  0  0  0  0  0  0  0  0
   -7.4960    0.7618    1.6532 H   0  0  0  0  0  0  0  0  0  0  0  0
   -6.4096   -0.6155    1.4674 H   0  0  0  0  0  0  0  0  0  0  0  0
   -5.9094    0.7962    2.4213 H   0  0  0  0  0  0  0  0  0  0  0  0
   -5.6877    3.1966   -0.4971 H   0  0  0  0  0  0  0  0  0  0  0  0
   -5.3655    3.0240    1.2321 H   0  0  0  0  0  0  0  0  0  0  0  0
   -7.0256    2.9409    0.6209 H   0  0  0  0  0  0  0  0  0  0  0  0
   -4.0816   -0.4732    1.7565 H   0  0  0  0  0  0  0  0  0  0  0  0
   -1.7912   -0.9859    1.3379 H   0  0  0  0  0  0  0  0  0  0  0  0
    2.2944    0.5511   -2.5453 H   0  0  0  0  0  0  0  0  0  0  0  0
   -0.6074   -2.6894    0.4941 H   0  0  0  0  0  0  0  0  0  0  0  0
    0.2803   -1.7276    1.7042 H   0  0  0  0  0  0  0  0  0  0  0  0
    1.3701   -3.8525   -0.1999 H   0  0  0  0  0  0  0  0  0  0  0  0
    1.3806   -3.8630    1.5629 H   0  0  0  0  0  0  0  0  0  0  0  0
    3.6393   -3.3168    0.7144 H   0  0  0  0  0  0  0  0  0  0  0  0
    2.9684   -1.9405    1.5760 H   0  0  0  0  0  0  0  0  0  0  0  0
    3.2902   -2.3224   -1.4435 H   0  0  0  0  0  0  0  0  0  0  0  0
    3.9898    0.1588    0.0196 H   0  0  0  0  0  0  0  0  0  0  0  0
    8.2042   -1.2921   -0.5872 H   0  0  0  0  0  0  0  0  0  0  0  0
    8.9962    2.5232    0.8043 H   0  0  0  0  0  0  0  0  0  0  0  0
    6.5273    2.9775    0.9910 H   0  0  0  0  0  0  0  0  0  0  0  0
   -1.9085    1.3755   -2.2865 H   0  0  0  0  0  0  0  0  0  0  0  0
   -4.2246    1.9202   -1.8391 H   0  0  0  0  0  0  0  0  0  0  0  0
  1  2  1  0
  2  3  1  0
  2  4  1  0
  2  5  1  0
  5  6  2  0
  6  7  1  0
  7  8  2  0
  8  9  1  0
  9 10  1  0
 10 11  2  0
 11 12  1  0
 12 13  2  0
 13 14  1  0
 14 15  1  0
 15 16  1  0
 16 17  1  0
 17 18  1  0
 18 19  1  0
 19 20  2  0
 19 21  1  0
 21 22  2  0
 22 23  1  0
 23 24  2  0
 24 25  1  0
 25 26  2  0
  8 27  1  0
 27 28  2  0
 28  5  1  0
 13  9  1  0
 26 21  1  0
 17 12  1  0
  1 29  1  0
  1 30  1  0
  1 31  1  0
  3 32  1  0
  3 33  1  0
  3 34  1  0
  4 35  1  0
  4 36  1  0
  4 37  1  0
  6 38  1  0
  7 39  1  0
 11 40  1  0
 14 41  1  0
 14 42  1  0
 15 43  1  0
 15 44  1  0
 16 45  1  0
 16 46  1  0
 17 47  1  0
 18 48  1  0
 22 49  1  0
 24 50  1  0
 25 51  1  0
 27 52  1  0
 28 53  1  0
M  END
$$$$
