
     RDKit          3D

 54 55  0  0  0  0  0  0  0  0999 V2000
   -0.5772    2.9371    1.3728 C   0  0  0  0  0  0  0  0  0  0  0  0
   -1.1950    1.7300    0.9411 O   0  0  0  0  0  0  0  0  0  0  0  0
   -0.3611    0.7234    0.5272 C   0  0  0  0  0  0  0  0  0  0  0  0
    0.9642    0.9200    0.1240 C   0  0  0  0  0  0  0  0  0  0  0  0
    1.7699   -0.1624   -0.2734 C   0  0  0  0  0  0  0  0  0  0  0  0
    3.2049    0.0737   -0.6883 C   0  0  0  0  0  0  0  0  0  0  0  0
    3.9608    0.5433    0.4643 N   0  0  0  0  0  0  0  0  0  0  0  0
    5.3377    0.7541    0.3533 C   0  0  0  0  0  0  0  0  0  0  0  0
    6.0906    0.8657    1.5324 C   0  0  0  0  0  0  0  0  0  0  0  0
    7.4619    1.1455    1.5027 C   0  0  0  0  0  0  0  0  0  0  0  0
    8.1051    1.3483    0.2805 C   0  0  0  0  0  0  0  0  0  0  0  0
    9.5534    1.6503    0.1887 C   0  0  0  0  0  0  0  0  0  0  0  0
   10.1757    1.8529   -0.8376 O   0  0  0  0  0  0  0  0  0  0  0  0
   10.1579    1.6817    1.3897 O   0  0  0  0  0  0  0  0  0  0  0  0
    7.3629    1.2805   -0.9011 C   0  0  0  0  0  0  0  0  0  0  0  0
    5.9908    1.0005   -0.8599 C   0  0  0  0  0  0  0  0  0  0  0  0
    1.2307   -1.4546   -0.2618 C   0  0  0  0  0  0  0  0  0  0  0  0
   -0.0956   -1.6587    0.1251 C   0  0  0  0  0  0  0  0  0  0  0  0
   -0.7671   -3.4341    0.1093 Br  0  0  0  0  0  0  0  0  0  0  0  0
   -0.8989   -0.5742    0.4981 C   0  0  0  0  0  0  0  0  0  0  0  0
   -2.1868   -0.8141    0.9142 O   0  0  0  0  0  0  0  0  0  0  0  0
   -3.1331   -0.3772   -0.0566 C   0  0  0  0  0  0  0  0  0  0  0  0
   -4.4965   -1.0501    0.1423 C   0  0  0  0  0  0  0  0  0  0  0  0
   -4.7071   -1.9335    0.9661 O   0  0  0  0  0  0  0  0  0  0  0  0
   -5.4667   -0.5589   -0.7197 N   0  0  0  0  0  0  0  0  0  0  0  0
   -6.8757   -0.9830   -0.7225 C   0  0  0  0  0  0  0  0  0  0  0  0
   -7.5525   -0.6390    0.6135 C   0  0  0  0  0  0  0  0  0  0  0  0
   -7.0033   -2.4878   -1.0097 C   0  0  0  0  0  0  0  0  0  0  0  0
   -7.5992   -0.2178   -1.8465 C   0  0  0  0  0  0  0  0  0  0  0  0
   -0.1850    3.4993    0.5192 H   0  0  0  0  0  0  0  0  0  0  0  0
   -1.3458    3.5526    1.8503 H   0  0  0  0  0  0  0  0  0  0  0  0
    0.2055    2.7462    2.1151 H   0  0  0  0  0  0  0  0  0  0  0  0
    1.4082    1.9124    0.1149 H   0  0  0  0  0  0  0  0  0  0  0  0
    3.6415   -0.8530   -1.0805 H   0  0  0  0  0  0  0  0  0  0  0  0
    3.2071    0.8167   -1.4949 H   0  0  0  0  0  0  0  0  0  0  0  0
    3.7242    0.0326    1.3128 H   0  0  0  0  0  0  0  0  0  0  0  0
    5.6087    0.7352    2.4993 H   0  0  0  0  0  0  0  0  0  0  0  0
    8.0099    1.2113    2.4390 H   0  0  0  0  0  0  0  0  0  0  0  0
   11.0925    1.8863    1.1767 H   0  0  0  0  0  0  0  0  0  0  0  0
    7.8442    1.4557   -1.8615 H   0  0  0  0  0  0  0  0  0  0  0  0
    5.4517    0.9852   -1.8022 H   0  0  0  0  0  0  0  0  0  0  0  0
    1.8456   -2.3040   -0.5519 H   0  0  0  0  0  0  0  0  0  0  0  0
   -3.2867    0.7038    0.0348 H   0  0  0  0  0  0  0  0  0  0  0  0
   -2.7987   -0.6183   -1.0746 H   0  0  0  0  0  0  0  0  0  0  0  0
   -5.2274    0.2547   -1.2722 H   0  0  0  0  0  0  0  0  0  0  0  0
   -7.4473    0.4274    0.8440 H   0  0  0  0  0  0  0  0  0  0  0  0
   -8.6225   -0.8739    0.5871 H   0  0  0  0  0  0  0  0  0  0  0  0
   -7.1166   -1.1971    1.4482 H   0  0  0  0  0  0  0  0  0  0  0  0
   -6.5751   -3.0986   -0.2091 H   0  0  0  0  0  0  0  0  0  0  0  0
   -6.4857   -2.7557   -1.9380 H   0  0  0  0  0  0  0  0  0  0  0  0
   -8.0540   -2.7823   -1.1131 H   0  0  0  0  0  0  0  0  0  0  0  0
   -7.1449   -0.4274   -2.8221 H   0  0  0  0  0  0  0  0  0  0  0  0
   -8.6584   -0.4929   -1.9019 H   0  0  0  0  0  0  0  0  0  0  0  0
   -7.5417    0.8655   -1.6877 H   0  0  0  0  0  0  0  0  0  0  0  0
  1  2  1  0
  2  3  1  0
  3  4  2  0
  4  5  1  0
  5  6  1  0
  6  7  1  0
  7  8  1  0
  8  9  2  0
  9 10  1  0
 10 11  2  0
 11 12  1  0
 12 13  2  0
 12 14  1  0
 11 15  1  0
 15 16  2  0
  5 17  2  0
 17 18  1  0
 18 19  1  0
 18 20  2  0
 20 21  1  0
 21 22  1  0
 22 23  1  0
 23 24  2  0
 23 25  1  0
 25 26  1  0
 26 27  1  0
 26 28  1  0
 26 29  1  0
 20  3  1  0
 16  8  1  0
  1 30  1  0
  1 31  1  0
  1 32  1  0
  4 33  1  0
  6 34  1  0
  6 35  1  0
  7 36  1  0
  9 37  1  0
 10 38  1  0
 14 39  1  0
 15 40  1  0
 16 41  1  0
 17 42  1  0
 22 43  1  0
 22 44  1  0
 25 45  1  0
 27 46  1  0
 27 47  1  0
 27 48  1  0
 28 49  1  0
 28 50  1  0
 28 51  1  0
 29 52  1  0
 29 53  1  0
 29 54  1  0
M  END
$$$$
