
     RDKit          3D

 58 60  0  0  0  0  0  0  0  0999 V2000
   -3.9084    3.3492    1.7185 C   0  0  0  0  0  0  0  0  0  0  0  0
   -4.3763    2.3451    0.8232 O   0  0  0  0  0  0  0  0  0  0  0  0
   -3.9410    1.0670    1.0634 C   0  0  0  0  0  0  0  0  0  0  0  0
   -2.6840    0.7754    1.6107 C   0  0  0  0  0  0  0  0  0  0  0  0
   -2.2927   -0.5529    1.8028 C   0  0  0  0  0  0  0  0  0  0  0  0
   -1.0838   -0.9564    2.3177 O   0  0  0  0  0  0  0  0  0  0  0  0
   -0.2839    0.0404    2.9420 C   0  0  0  0  0  0  0  0  0  0  0  0
   -3.1601   -1.5940    1.4240 C   0  0  0  0  0  0  0  0  0  0  0  0
   -2.7263   -2.9419    1.6255 N   0  0  0  0  0  0  0  0  0  0  0  0
   -2.5921   -3.9794    0.3052 S   0  0  0  0  0  6  0  0  0  0  0  0
   -3.9071   -4.2014   -0.2550 O   0  0  0  0  0  0  0  0  0  0  0  0
   -1.7561   -5.0818    0.7252 O   0  0  0  0  0  0  0  0  0  0  0  0
   -1.6524   -3.0303   -0.8736 C   0  0  0  0  0  0  0  0  0  0  0  0
   -2.2686   -2.5486   -2.0284 C   0  0  0  0  0  0  0  0  0  0  0  0
   -1.5103   -1.8475   -2.9667 C   0  0  0  0  0  0  0  0  0  0  0  0
   -0.1411   -1.6217   -2.7584 C   0  0  0  0  0  0  0  0  0  0  0  0
    0.7004   -0.8292   -4.0434 Cl  0  0  0  0  0  0  0  0  0  0  0  0
    0.4730   -2.0855   -1.5837 C   0  0  0  0  0  0  0  0  0  0  0  0
    1.9067   -1.9033   -1.2468 C   0  0  0  0  0  0  0  0  0  0  0  0
    2.5246   -2.6953   -0.5527 O   0  0  0  0  0  0  0  0  0  0  0  0
    2.3843   -0.7336   -1.7203 O   0  0  0  0  0  0  0  0  0  0  0  0
    3.7874   -0.4940   -1.5143 C   0  0  0  0  0  0  0  0  0  0  0  0
    4.5883   -1.2710   -2.5582 C   0  0  0  0  0  0  0  0  0  0  0  0
    4.0616    1.0179   -1.6384 C   0  0  0  0  0  0  0  0  0  0  0  0
    4.8461    1.4742   -2.4730 O   0  0  0  0  0  0  0  0  0  0  0  0
    3.4187    1.8515   -0.7435 N   0  0  0  0  0  0  0  0  0  0  0  0
    2.5120    1.4729    0.3254 C   0  0  0  0  0  0  0  0  0  0  0  0
    2.3739    2.7363    1.1653 C   0  0  0  0  0  0  0  0  0  0  0  0
    2.5476    3.8484    0.1387 C   0  0  0  0  0  0  0  0  0  0  0  0
    3.6184    3.2897   -0.7861 C   0  0  0  0  0  0  0  0  0  0  0  0
   -0.2892   -2.8119   -0.6498 C   0  0  0  0  0  0  0  0  0  0  0  0
   -4.4090   -1.3123    0.8768 C   0  0  0  0  0  0  0  0  0  0  0  0
   -4.7918    0.0155    0.6869 C   0  0  0  0  0  0  0  0  0  0  0  0
   -6.3443    0.3222   -0.0070 Cl  0  0  0  0  0  0  0  0  0  0  0  0
   -4.5510    4.2271    1.6014 H   0  0  0  0  0  0  0  0  0  0  0  0
   -3.9737    3.0235    2.7631 H   0  0  0  0  0  0  0  0  0  0  0  0
   -2.8862    3.6480    1.4640 H   0  0  0  0  0  0  0  0  0  0  0  0
   -2.0095    1.5855    1.8555 H   0  0  0  0  0  0  0  0  0  0  0  0
    0.0890    0.7566    2.2041 H   0  0  0  0  0  0  0  0  0  0  0  0
    0.5813   -0.4578    3.3888 H   0  0  0  0  0  0  0  0  0  0  0  0
   -0.8326    0.5468    3.7433 H   0  0  0  0  0  0  0  0  0  0  0  0
   -1.9296   -3.0422    2.2592 H   0  0  0  0  0  0  0  0  0  0  0  0
   -3.3260   -2.7274   -2.2169 H   0  0  0  0  0  0  0  0  0  0  0  0
   -1.9918   -1.4936   -3.8775 H   0  0  0  0  0  0  0  0  0  0  0  0
    4.0974   -0.8011   -0.5076 H   0  0  0  0  0  0  0  0  0  0  0  0
    5.6615   -1.0799   -2.4586 H   0  0  0  0  0  0  0  0  0  0  0  0
    4.2807   -0.9911   -3.5726 H   0  0  0  0  0  0  0  0  0  0  0  0
    4.4214   -2.3486   -2.4639 H   0  0  0  0  0  0  0  0  0  0  0  0
    2.8988    0.6263    0.8983 H   0  0  0  0  0  0  0  0  0  0  0  0
    1.5523    1.1986   -0.1253 H   0  0  0  0  0  0  0  0  0  0  0  0
    3.1797    2.7851    1.9080 H   0  0  0  0  0  0  0  0  0  0  0  0
    1.4176    2.7917    1.6925 H   0  0  0  0  0  0  0  0  0  0  0  0
    2.8312    4.8055    0.5835 H   0  0  0  0  0  0  0  0  0  0  0  0
    1.6107    3.9903   -0.4138 H   0  0  0  0  0  0  0  0  0  0  0  0
    3.5375    3.6692   -1.8096 H   0  0  0  0  0  0  0  0  0  0  0  0
    4.6245    3.5006   -0.4062 H   0  0  0  0  0  0  0  0  0  0  0  0
    0.1830   -3.2113    0.2476 H   0  0  0  0  0  0  0  0  0  0  0  0
   -5.0909   -2.1156    0.6089 H   0  0  0  0  0  0  0  0  0  0  0  0
  1  2  1  0
  2  3  1  0
  3  4  2  0
  4  5  1  0
  5  6  1  0
  6  7  1  0
  5  8  2  0
  8  9  1  0
  9 10  1  0
 10 11  2  0
 10 12  2  0
 10 13  1  0
 13 14  2  0
 14 15  1  0
 15 16  2  0
 16 17  1  0
 16 18  1  0
 18 19  1  0
 19 20  2  0
 19 21  1  0
 21 22  1  0
 22 23  1  0
 22 24  1  0
 24 25  2  0
 24 26  1  0
 26 27  1  0
 27 28  1  0
 28 29  1  0
 29 30  1  0
 18 31  2  0
  8 32  1  0
 32 33  2  0
 33 34  1  0
 33  3  1  0
 31 13  1  0
 30 26  1  0
  1 35  1  0
  1 36  1  0
  1 37  1  0
  4 38  1  0
  7 39  1  0
  7 40  1  0
  7 41  1  0
  9 42  1  0
 14 43  1  0
 15 44  1  0
 22 45  1  0
 23 46  1  0
 23 47  1  0
 23 48  1  0
 27 49  1  0
 27 50  1  0
 28 51  1  0
 28 52  1  0
 29 53  1  0
 29 54  1  0
 30 55  1  0
 30 56  1  0
 31 57  1  0
 32 58  1  0
M  END
$$$$
