
     RDKit          3D

 38 40  0  0  0  0  0  0  0  0999 V2000
   -0.0406    1.4290   -2.6631 C   0  0  0  0  0  0  0  0  0  0  0  0
   -0.5197    0.0487   -2.3001 C   0  0  0  0  0  0  0  0  0  0  0  0
   -0.1225   -0.9552   -2.8875 O   0  0  0  0  0  0  0  0  0  0  0  0
   -1.4508   -0.1136   -1.1758 C   0  0  0  0  0  0  0  0  0  0  0  0
   -1.2445   -1.0419   -0.1625 C   0  0  0  0  0  0  0  0  0  0  0  0
   -0.0040   -1.9019   -0.1020 C   0  0  0  0  0  0  0  0  0  0  0  0
    1.1404   -1.0435   -0.0156 O   0  0  0  0  0  0  0  0  0  0  0  0
    2.3153   -1.7189    0.0250 C   0  0  0  0  0  0  0  0  0  0  0  0
    2.4364   -2.9331    0.0432 O   0  0  0  0  0  0  0  0  0  0  0  0
    3.4644   -0.7737    0.0443 C   0  0  0  0  0  0  0  0  0  0  0  0
    4.7597   -1.3089    0.0211 C   0  0  0  0  0  0  0  0  0  0  0  0
    5.8714   -0.4644    0.0363 C   0  0  0  0  0  0  0  0  0  0  0  0
    5.6959    0.9180    0.0754 C   0  0  0  0  0  0  0  0  0  0  0  0
    4.4109    1.4591    0.1000 C   0  0  0  0  0  0  0  0  0  0  0  0
    3.2957    0.6176    0.0850 C   0  0  0  0  0  0  0  0  0  0  0  0
   -2.1241   -1.1868    0.8617 N   0  0  0  0  0  0  0  0  0  0  0  0
   -3.2265   -0.4281    0.8966 C   0  0  0  0  0  0  0  0  0  0  0  0
   -4.1278   -0.5828    1.9417 C   0  0  0  0  0  0  0  0  0  0  0  0
   -5.2938    0.1847    2.0279 C   0  0  0  0  0  0  0  0  0  0  0  0
   -5.5744    1.1321    1.0510 C   0  0  0  0  0  0  0  0  0  0  0  0
   -4.6857    1.3057   -0.0061 C   0  0  0  0  0  0  0  0  0  0  0  0
   -3.5067    0.5288   -0.0911 C   0  0  0  0  0  0  0  0  0  0  0  0
   -2.5838    0.6781   -1.1483 N   0  0  0  0  0  4  0  0  0  0  0  0
   -2.8146    1.5412   -2.0694 O   0  0  0  0  0  1  0  0  0  0  0  0
   -0.2184    2.1391   -1.8508 H   0  0  0  0  0  0  0  0  0  0  0  0
   -0.5433    1.7675   -3.5722 H   0  0  0  0  0  0  0  0  0  0  0  0
    1.0396    1.3924   -2.8334 H   0  0  0  0  0  0  0  0  0  0  0  0
    0.0515   -2.5510   -0.9831 H   0  0  0  0  0  0  0  0  0  0  0  0
   -0.0461   -2.5336    0.7941 H   0  0  0  0  0  0  0  0  0  0  0  0
    4.9080   -2.3869   -0.0114 H   0  0  0  0  0  0  0  0  0  0  0  0
    6.8735   -0.8861    0.0163 H   0  0  0  0  0  0  0  0  0  0  0  0
    6.5627    1.5748    0.0862 H   0  0  0  0  0  0  0  0  0  0  0  0
    4.2780    2.5380    0.1307 H   0  0  0  0  0  0  0  0  0  0  0  0
    2.3051    1.0626    0.1071 H   0  0  0  0  0  0  0  0  0  0  0  0
   -3.9203   -1.3223    2.7130 H   0  0  0  0  0  0  0  0  0  0  0  0
   -5.9797    0.0374    2.8592 H   0  0  0  0  0  0  0  0  0  0  0  0
   -6.4797    1.7319    1.1096 H   0  0  0  0  0  0  0  0  0  0  0  0
   -4.9013    2.0458   -0.7762 H   0  0  0  0  0  0  0  0  0  0  0  0
  1  2  1  0
  2  3  2  0
  2  4  1  0
  4  5  2  0
  5  6  1  0
  6  7  1  0
  7  8  1  0
  8  9  2  0
  8 10  1  0
 10 11  2  0
 11 12  1  0
 12 13  2  0
 13 14  1  0
 14 15  2  0
  5 16  1  0
 16 17  2  0
 17 18  1  0
 18 19  2  0
 19 20  1  0
 20 21  2  0
 21 22  1  0
 22 23  2  0
 23 24  1  0
 23  4  1  0
 15 10  1  0
 22 17  1  0
  1 25  1  0
  1 26  1  0
  1 27  1  0
  6 28  1  0
  6 29  1  0
 11 30  1  0
 12 31  1  0
 13 32  1  0
 14 33  1  0
 15 34  1  0
 18 35  1  0
 19 36  1  0
 20 37  1  0
 21 38  1  0
M  CHG  2  23   1  24  -1
M  END
$$$$
