
     RDKit          3D

 42 44  0  0  0  0  0  0  0  0999 V2000
   -6.9268    0.4509    1.6912 N   0  0  0  0  0  0  0  0  0  0  0  0
   -5.9954    0.7628    1.0736 C   0  0  0  0  0  0  0  0  0  0  0  0
   -4.8070    1.1446    0.2998 C   0  0  0  0  0  0  0  0  0  0  0  0
   -4.1775   -0.0938   -0.3529 C   0  0  0  0  0  0  0  0  0  0  0  0
   -3.0313    0.2362   -1.2203 N   0  0  0  0  0  0  0  0  0  0  0  0
   -2.6828   -0.8968   -2.1081 C   0  0  0  0  0  0  0  0  0  0  0  0
   -1.9987   -2.0900   -1.4100 C   0  0  0  0  0  0  0  0  0  0  0  0
   -0.8384   -1.6778   -0.6006 N   0  0  0  0  0  0  0  0  0  0  0  0
    0.2071   -2.5720   -0.3002 C   0  0  0  0  0  0  0  0  0  0  0  0
    0.1820   -4.2245   -0.6378 S   0  0  0  0  0  0  0  0  0  0  0  0
    1.4220   -2.0562    0.3106 C   0  0  0  0  0  0  0  0  0  0  0  0
    2.3236   -2.5793    1.2226 C   0  0  0  0  0  0  0  0  0  0  0  0
    3.3406   -1.6096    1.4066 C   0  0  0  0  0  0  0  0  0  0  0  0
    3.0243   -0.5431    0.5910 C   0  0  0  0  0  0  0  0  0  0  0  0
    3.6375    0.7528    0.3090 C   0  0  0  0  0  0  0  0  0  0  0  0
    4.8095    1.1476    0.9701 C   0  0  0  0  0  0  0  0  0  0  0  0
    5.3985    2.3896    0.7081 C   0  0  0  0  0  0  0  0  0  0  0  0
    4.8235    3.2589   -0.2206 C   0  0  0  0  0  0  0  0  0  0  0  0
    5.6007    4.7769   -0.4920 Cl  0  0  0  0  0  0  0  0  0  0  0  0
    3.6564    2.8806   -0.8891 C   0  0  0  0  0  0  0  0  0  0  0  0
    2.8819    3.9011   -2.0492 Cl  0  0  0  0  0  0  0  0  0  0  0  0
    3.0717    1.6360   -0.6249 C   0  0  0  0  0  0  0  0  0  0  0  0
    1.8656   -0.8166   -0.0765 O   0  0  0  0  0  0  0  0  0  0  0  0
   -1.1059   -0.5190    0.2683 C   0  0  0  0  0  0  0  0  0  0  0  0
   -1.8144    0.6298   -0.4757 C   0  0  0  0  0  0  0  0  0  0  0  0
   -5.0890    1.8714   -0.4709 H   0  0  0  0  0  0  0  0  0  0  0  0
   -4.0946    1.6385    0.9686 H   0  0  0  0  0  0  0  0  0  0  0  0
   -4.9567   -0.5666   -0.9671 H   0  0  0  0  0  0  0  0  0  0  0  0
   -3.9096   -0.8312    0.4137 H   0  0  0  0  0  0  0  0  0  0  0  0
   -3.5717   -1.2446   -2.6485 H   0  0  0  0  0  0  0  0  0  0  0  0
   -2.0030   -0.5136   -2.8811 H   0  0  0  0  0  0  0  0  0  0  0  0
   -2.7019   -2.6048   -0.7446 H   0  0  0  0  0  0  0  0  0  0  0  0
   -1.6847   -2.7995   -2.1818 H   0  0  0  0  0  0  0  0  0  0  0  0
    2.2556   -3.5486    1.6986 H   0  0  0  0  0  0  0  0  0  0  0  0
    4.2023   -1.6922    2.0536 H   0  0  0  0  0  0  0  0  0  0  0  0
    5.2833    0.4948    1.7003 H   0  0  0  0  0  0  0  0  0  0  0  0
    6.3077    2.6715    1.2346 H   0  0  0  0  0  0  0  0  0  0  0  0
    2.1654    1.3548   -1.1584 H   0  0  0  0  0  0  0  0  0  0  0  0
   -0.1992   -0.1333    0.7356 H   0  0  0  0  0  0  0  0  0  0  0  0
   -1.7321   -0.8839    1.0916 H   0  0  0  0  0  0  0  0  0  0  0  0
   -1.1071    1.0561   -1.1999 H   0  0  0  0  0  0  0  0  0  0  0  0
   -2.0315    1.4425    0.2252 H   0  0  0  0  0  0  0  0  0  0  0  0
  1  2  3  0
  2  3  1  0
  3  4  1  0
  4  5  1  0
  5  6  1  0
  6  7  1  0
  7  8  1  0
  8  9  1  0
  9 10  2  0
  9 11  1  0
 11 12  2  0
 12 13  1  0
 13 14  2  0
 14 15  1  0
 15 16  2  0
 16 17  1  0
 17 18  2  0
 18 19  1  0
 18 20  1  0
 20 21  1  0
 20 22  2  0
 14 23  1  0
  8 24  1  0
 24 25  1  0
 25  5  1  0
 23 11  1  0
 22 15  1  0
  3 26  1  0
  3 27  1  0
  4 28  1  0
  4 29  1  0
  6 30  1  0
  6 31  1  0
  7 32  1  0
  7 33  1  0
 12 34  1  0
 13 35  1  0
 16 36  1  0
 17 37  1  0
 22 38  1  0
 24 39  1  0
 24 40  1  0
 25 41  1  0
 25 42  1  0
M  END
$$$$
