
     RDKit          3D

 47 50  0  0  0  0  0  0  0  0999 V2000
   -7.3675    0.6203    0.4884 C   0  0  0  0  0  0  0  0  0  0  0  0
   -5.9925    0.2983   -0.0931 C   0  0  0  0  0  0  0  0  0  0  0  0
   -5.4319    1.5036   -0.8742 C   0  0  0  0  0  0  0  0  0  0  0  0
   -4.1015    1.1611   -1.5629 C   0  0  0  0  0  0  0  0  0  0  0  0
   -3.1533    0.4308   -0.6528 C   0  0  0  0  0  0  0  0  0  0  0  0
   -3.6064   -0.1474    0.5193 C   0  0  0  0  0  0  0  0  0  0  0  0
   -2.3649   -0.8665    1.4184 S   0  0  0  0  0  0  0  0  0  0  0  0
   -1.1853   -0.4056    0.2930 C   0  0  0  0  0  0  0  0  0  0  0  0
    0.1574   -0.6746    0.5050 N   0  0  0  0  0  0  0  0  0  0  0  0
    0.7518   -1.2987    1.5860 C   0  0  0  0  0  0  0  0  0  0  0  0
    0.1794   -1.7856    2.5548 O   0  0  0  0  0  0  0  0  0  0  0  0
    2.2019   -1.3294    1.4714 C   0  0  0  0  0  0  0  0  0  0  0  0
    3.1720   -1.7992    2.3353 C   0  0  0  0  0  0  0  0  0  0  0  0
    4.4222   -1.5567    1.7181 C   0  0  0  0  0  0  0  0  0  0  0  0
    4.1535   -0.9419    0.5107 C   0  0  0  0  0  0  0  0  0  0  0  0
    4.9838   -0.4292   -0.6109 C   0  0  0  0  0  0  0  0  0  0  0  0
    6.3137   -0.0273   -0.1644 N   0  0  0  0  0  0  0  0  0  0  0  0
    7.4453   -0.8020   -0.1737 C   0  0  0  0  0  0  0  0  0  0  0  0
    8.4402    0.0057    0.3107 C   0  0  0  0  0  0  0  0  0  0  0  0
   10.2385   -0.4122    0.5850 Br  0  0  0  0  0  0  0  0  0  0  0  0
    7.8404    1.2455    0.5692 C   0  0  0  0  0  0  0  0  0  0  0  0
    6.5353    1.2369    0.2712 N   0  0  0  0  0  0  0  0  0  0  0  0
    2.8024   -0.8209    0.3488 O   0  0  0  0  0  0  0  0  0  0  0  0
   -1.7236    0.2367   -0.8202 C   0  0  0  0  0  0  0  0  0  0  0  0
   -0.8701    0.6545   -1.9343 C   0  0  0  0  0  0  0  0  0  0  0  0
   -1.4711    0.8234   -3.1472 N   0  0  0  0  0  0  0  0  0  0  0  0
    0.3471    0.7866   -1.8354 O   0  0  0  0  0  0  0  0  0  0  0  0
   -5.0174   -0.1237    1.0256 C   0  0  0  0  0  0  0  0  0  0  0  0
   -8.0800    0.8612   -0.3083 H   0  0  0  0  0  0  0  0  0  0  0  0
   -7.7630   -0.2340    1.0475 H   0  0  0  0  0  0  0  0  0  0  0  0
   -7.3214    1.4772    1.1698 H   0  0  0  0  0  0  0  0  0  0  0  0
   -6.1064   -0.5405   -0.7935 H   0  0  0  0  0  0  0  0  0  0  0  0
   -6.1511    1.8375   -1.6317 H   0  0  0  0  0  0  0  0  0  0  0  0
   -5.2804    2.3453   -0.1856 H   0  0  0  0  0  0  0  0  0  0  0  0
   -3.6439    2.0912   -1.9166 H   0  0  0  0  0  0  0  0  0  0  0  0
   -4.3093    0.5348   -2.4369 H   0  0  0  0  0  0  0  0  0  0  0  0
    0.7957   -0.3082   -0.2031 H   0  0  0  0  0  0  0  0  0  0  0  0
    2.9855   -2.2450    3.3020 H   0  0  0  0  0  0  0  0  0  0  0  0
    5.4019   -1.7851    2.1187 H   0  0  0  0  0  0  0  0  0  0  0  0
    5.1121   -1.2037   -1.3743 H   0  0  0  0  0  0  0  0  0  0  0  0
    4.5208    0.4445   -1.0826 H   0  0  0  0  0  0  0  0  0  0  0  0
    7.4367   -1.8303   -0.5062 H   0  0  0  0  0  0  0  0  0  0  0  0
    8.2842    2.1548    0.9569 H   0  0  0  0  0  0  0  0  0  0  0  0
   -0.8399    0.9574   -3.9253 H   0  0  0  0  0  0  0  0  0  0  0  0
   -2.3567    0.3850   -3.3463 H   0  0  0  0  0  0  0  0  0  0  0  0
   -5.3075   -1.1099    1.4097 H   0  0  0  0  0  0  0  0  0  0  0  0
   -5.0767    0.5854    1.8624 H   0  0  0  0  0  0  0  0  0  0  0  0
  1  2  1  0
  2  3  1  0
  3  4  1  0
  4  5  1  0
  5  6  2  0
  6  7  1  0
  7  8  1  0
  8  9  1  0
  9 10  1  0
 10 11  2  0
 10 12  1  0
 12 13  2  0
 13 14  1  0
 14 15  2  0
 15 16  1  0
 16 17  1  0
 17 18  1  0
 18 19  2  0
 19 20  1  0
 19 21  1  0
 21 22  2  0
 15 23  1  0
  8 24  2  0
 24 25  1  0
 25 26  1  0
 25 27  2  0
  6 28  1  0
 28  2  1  0
 24  5  1  0
 23 12  1  0
 22 17  1  0
  1 29  1  0
  1 30  1  0
  1 31  1  0
  2 32  1  0
  3 33  1  0
  3 34  1  0
  4 35  1  0
  4 36  1  0
  9 37  1  0
 13 38  1  0
 14 39  1  0
 16 40  1  0
 16 41  1  0
 18 42  1  0
 21 43  1  0
 26 44  1  0
 26 45  1  0
 28 46  1  0
 28 47  1  0
M  END
$$$$
