
     RDKit          3D

 37 39  0  0  0  0  0  0  0  0999 V2000
   -4.5179    1.9711    0.4420 C   0  0  0  0  0  0  0  0  0  0  0  0
   -4.0528    0.6335    0.9363 C   0  0  0  0  0  0  0  0  0  0  0  0
   -4.8448   -0.1513    1.6817 C   0  0  0  0  0  0  0  0  0  0  0  0
   -4.4357   -1.4697    2.1907 C   0  0  0  0  0  0  0  0  0  0  0  0
   -5.2039   -2.1441    2.8669 O   0  0  0  0  0  0  0  0  0  0  0  0
   -3.1598   -1.8961    1.8681 O   0  0  0  0  0  0  0  0  0  0  0  0
   -2.3034   -1.0969    1.0866 C   0  0  0  0  0  0  0  0  0  0  0  0
   -1.0384   -1.6223    0.8203 C   0  0  0  0  0  0  0  0  0  0  0  0
   -0.1373   -0.8966    0.0446 C   0  0  0  0  0  0  0  0  0  0  0  0
    1.0770   -1.4945   -0.1403 O   0  0  0  0  0  0  0  0  0  0  0  0
    1.8507   -1.1105   -1.2874 C   0  0  0  0  0  0  0  0  0  0  0  0
    2.5991   -2.3560   -1.7871 C   0  0  0  0  0  0  0  0  0  0  0  0
    3.7643   -2.4392   -2.1459 O   0  0  0  0  0  0  0  0  0  0  0  0
    1.8066   -3.4510   -1.8815 O   0  0  0  0  0  0  0  0  0  0  0  0
    2.8078    0.0269   -0.9555 C   0  0  0  0  0  0  0  0  0  0  0  0
    3.3652    0.1658    0.3256 C   0  0  0  0  0  0  0  0  0  0  0  0
    4.2450    1.2119    0.6084 C   0  0  0  0  0  0  0  0  0  0  0  0
    4.5854    2.1265   -0.3857 C   0  0  0  0  0  0  0  0  0  0  0  0
    4.0501    1.9949   -1.6651 C   0  0  0  0  0  0  0  0  0  0  0  0
    3.1690    0.9505   -1.9508 C   0  0  0  0  0  0  0  0  0  0  0  0
   -0.5083    0.3608   -0.4307 C   0  0  0  0  0  0  0  0  0  0  0  0
   -1.7833    0.8779   -0.1535 C   0  0  0  0  0  0  0  0  0  0  0  0
   -2.7044    0.1512    0.6096 C   0  0  0  0  0  0  0  0  0  0  0  0
   -3.8797    2.7725    0.8294 H   0  0  0  0  0  0  0  0  0  0  0  0
   -4.5073    2.0066   -0.6525 H   0  0  0  0  0  0  0  0  0  0  0  0
   -5.5426    2.1900    0.7628 H   0  0  0  0  0  0  0  0  0  0  0  0
   -5.8505    0.1446    1.9586 H   0  0  0  0  0  0  0  0  0  0  0  0
   -0.7607   -2.5971    1.2118 H   0  0  0  0  0  0  0  0  0  0  0  0
    1.1929   -0.8183   -2.1180 H   0  0  0  0  0  0  0  0  0  0  0  0
    2.4122   -4.1533   -2.1981 H   0  0  0  0  0  0  0  0  0  0  0  0
    3.1161   -0.5409    1.1152 H   0  0  0  0  0  0  0  0  0  0  0  0
    4.6682    1.3094    1.6049 H   0  0  0  0  0  0  0  0  0  0  0  0
    5.2746    2.9374   -0.1647 H   0  0  0  0  0  0  0  0  0  0  0  0
    4.3256    2.7024   -2.4430 H   0  0  0  0  0  0  0  0  0  0  0  0
    2.7729    0.8596   -2.9600 H   0  0  0  0  0  0  0  0  0  0  0  0
    0.1767    0.9809   -1.0005 H   0  0  0  0  0  0  0  0  0  0  0  0
   -2.0284    1.8634   -0.5415 H   0  0  0  0  0  0  0  0  0  0  0  0
  1  2  1  0
  2  3  2  0
  3  4  1  0
  4  5  2  0
  4  6  1  0
  6  7  1  0
  7  8  2  0
  8  9  1  0
  9 10  1  0
 10 11  1  0
 11 12  1  0
 12 13  2  0
 12 14  1  0
 11 15  1  0
 15 16  2  0
 16 17  1  0
 17 18  2  0
 18 19  1  0
 19 20  2  0
  9 21  2  0
 21 22  1  0
 22 23  2  0
 23  2  1  0
 23  7  1  0
 20 15  1  0
  1 24  1  0
  1 25  1  0
  1 26  1  0
  3 27  1  0
  8 28  1  0
 11 29  1  0
 14 30  1  0
 16 31  1  0
 17 32  1  0
 18 33  1  0
 19 34  1  0
 20 35  1  0
 21 36  1  0
 22 37  1  0
M  END
$$$$
