
     RDKit          3D

 49 52  0  0  0  0  0  0  0  0999 V2000
   -7.1963   -3.5047   -0.8466 C   0  0  0  0  0  0  0  0  0  0  0  0
   -7.1282   -2.1788   -1.3562 O   0  0  0  0  0  0  0  0  0  0  0  0
   -6.4230   -1.2699   -0.6164 C   0  0  0  0  0  0  0  0  0  0  0  0
   -5.7491   -1.5278    0.5767 C   0  0  0  0  0  0  0  0  0  0  0  0
   -5.0625   -0.5000    1.2325 C   0  0  0  0  0  0  0  0  0  0  0  0
   -5.0439    0.7997    0.7079 C   0  0  0  0  0  0  0  0  0  0  0  0
   -4.2774    1.8911    1.4090 C   0  0  0  0  0  0  0  0  0  0  0  0
   -2.8732    1.8211    1.0767 N   0  0  0  0  0  0  0  0  0  0  0  0
   -1.9577    1.2150    1.9173 C   0  0  0  0  0  0  0  0  0  0  0  0
   -2.2891    0.8160    3.0323 O   0  0  0  0  0  0  0  0  0  0  0  0
   -0.6112    1.0844    1.3674 C   0  0  0  0  0  0  0  0  0  0  0  0
   -0.0455    1.6311    0.2147 C   0  0  0  0  0  0  0  0  0  0  0  0
    1.3007    1.2322    0.0684 C   0  0  0  0  0  0  0  0  0  0  0  0
    1.7094    0.4292    1.0858 C   0  0  0  0  0  0  0  0  0  0  0  0
    0.5449    0.1117    2.2324 S   0  0  0  0  0  0  0  0  0  0  0  0
    3.1188    0.0199    0.9448 C   0  0  0  0  0  0  0  0  0  0  0  0
    3.5904    0.9254   -0.1494 N   0  0  0  0  0  0  0  0  0  0  0  0
    4.5616    0.2912   -1.0388 C   0  0  0  0  0  0  0  0  0  0  0  0
    5.8536   -0.0754   -0.3406 C   0  0  0  0  0  0  0  0  0  0  0  0
    6.6271    0.9110    0.2899 C   0  0  0  0  0  0  0  0  0  0  0  0
    7.8222    0.5765    0.9279 C   0  0  0  0  0  0  0  0  0  0  0  0
    8.2593   -0.7465    0.9399 C   0  0  0  0  0  0  0  0  0  0  0  0
    7.5020   -1.7355    0.3146 C   0  0  0  0  0  0  0  0  0  0  0  0
    6.3056   -1.4028   -0.3237 C   0  0  0  0  0  0  0  0  0  0  0  0
    2.4054    1.4492   -0.8940 C   0  0  0  0  0  0  0  0  0  0  0  0
   -5.7154    1.0508   -0.4941 C   0  0  0  0  0  0  0  0  0  0  0  0
   -6.4006    0.0223   -1.1461 C   0  0  0  0  0  0  0  0  0  0  0  0
   -6.2014   -3.9593   -0.7955 H   0  0  0  0  0  0  0  0  0  0  0  0
   -7.6935   -3.5285    0.1287 H   0  0  0  0  0  0  0  0  0  0  0  0
   -7.7979   -4.0990   -1.5411 H   0  0  0  0  0  0  0  0  0  0  0  0
   -5.7326   -2.5154    1.0252 H   0  0  0  0  0  0  0  0  0  0  0  0
   -4.5343   -0.7198    2.1600 H   0  0  0  0  0  0  0  0  0  0  0  0
   -4.4326    1.8306    2.4918 H   0  0  0  0  0  0  0  0  0  0  0  0
   -4.6364    2.8749    1.0867 H   0  0  0  0  0  0  0  0  0  0  0  0
   -2.6279    1.9550    0.1088 H   0  0  0  0  0  0  0  0  0  0  0  0
   -0.5650    2.2854   -0.4724 H   0  0  0  0  0  0  0  0  0  0  0  0
    3.6982    0.1921    1.8565 H   0  0  0  0  0  0  0  0  0  0  0  0
    3.1696   -1.0376    0.6603 H   0  0  0  0  0  0  0  0  0  0  0  0
    4.8237    0.9823   -1.8510 H   0  0  0  0  0  0  0  0  0  0  0  0
    4.1248   -0.5950   -1.5181 H   0  0  0  0  0  0  0  0  0  0  0  0
    6.2899    1.9457    0.2923 H   0  0  0  0  0  0  0  0  0  0  0  0
    8.4095    1.3486    1.4178 H   0  0  0  0  0  0  0  0  0  0  0  0
    9.1894   -1.0068    1.4379 H   0  0  0  0  0  0  0  0  0  0  0  0
    7.8435   -2.7673    0.3249 H   0  0  0  0  0  0  0  0  0  0  0  0
    5.7283   -2.1884   -0.8056 H   0  0  0  0  0  0  0  0  0  0  0  0
    2.2091    0.8835   -1.8123 H   0  0  0  0  0  0  0  0  0  0  0  0
    2.5454    2.5076   -1.1314 H   0  0  0  0  0  0  0  0  0  0  0  0
   -5.7148    2.0458   -0.9325 H   0  0  0  0  0  0  0  0  0  0  0  0
   -6.9231    0.2288   -2.0771 H   0  0  0  0  0  0  0  0  0  0  0  0
  1  2  1  0
  2  3  1  0
  3  4  2  0
  4  5  1  0
  5  6  2  0
  6  7  1  0
  7  8  1  0
  8  9  1  0
  9 10  2  0
  9 11  1  0
 11 12  2  0
 12 13  1  0
 13 14  2  0
 14 15  1  0
 14 16  1  0
 16 17  1  0
 17 18  1  0
 18 19  1  0
 19 20  2  0
 20 21  1  0
 21 22  2  0
 22 23  1  0
 23 24  2  0
 17 25  1  0
  6 26  1  0
 26 27  2  0
 27  3  1  0
 15 11  1  0
 24 19  1  0
 25 13  1  0
  1 28  1  0
  1 29  1  0
  1 30  1  0
  4 31  1  0
  5 32  1  0
  7 33  1  0
  7 34  1  0
  8 35  1  0
 12 36  1  0
 16 37  1  0
 16 38  1  0
 18 39  1  0
 18 40  1  0
 20 41  1  0
 21 42  1  0
 22 43  1  0
 23 44  1  0
 24 45  1  0
 25 46  1  0
 25 47  1  0
 26 48  1  0
 27 49  1  0
M  END
$$$$
