
     RDKit          3D

 37 37  0  0  0  0  0  0  0  0999 V2000
    6.5488    0.2200   -0.4166 C   0  0  0  0  0  0  0  0  0  0  0  0
    5.0991    0.0996    0.0282 C   0  0  0  0  0  0  0  0  0  0  0  0
    4.2987   -0.7963   -0.9179 C   0  0  0  0  0  0  0  0  0  0  0  0
    2.8606   -1.0397   -0.4527 C   0  0  0  0  0  0  0  0  0  0  0  0
    2.0008    0.2235   -0.4514 C   0  0  0  0  0  0  0  0  0  0  0  0
    0.5473   -0.0698   -0.1156 C   0  0  0  0  0  0  0  0  0  0  0  0
    0.1412   -1.1860    0.1920 O   0  0  0  0  0  0  0  0  0  0  0  0
   -0.2398    1.0834   -0.2117 N   0  0  0  0  0  0  0  0  0  0  0  0
   -1.5080    1.1034    0.3066 N   0  0  0  0  0  0  0  0  0  0  0  0
   -2.4243    0.3515   -0.2388 C   0  0  0  0  0  0  0  0  0  0  0  0
   -2.2398   -0.4389   -1.5211 C   0  0  0  0  0  0  0  0  0  0  0  0
   -3.7689    0.2884    0.4198 C   0  0  0  0  0  0  0  0  0  0  0  0
   -4.1724    1.3379    1.2580 C   0  0  0  0  0  0  0  0  0  0  0  0
   -5.4204    1.3010    1.8864 C   0  0  0  0  0  0  0  0  0  0  0  0
   -6.2643    0.2114    1.6839 C   0  0  0  0  0  0  0  0  0  0  0  0
   -7.8005    0.1641    2.4564 Cl  0  0  0  0  0  0  0  0  0  0  0  0
   -5.8695   -0.8433    0.8625 C   0  0  0  0  0  0  0  0  0  0  0  0
   -4.6212   -0.8075    0.2322 C   0  0  0  0  0  0  0  0  0  0  0  0
    7.0382   -0.7591   -0.4300 H   0  0  0  0  0  0  0  0  0  0  0  0
    7.1033    0.8671    0.2703 H   0  0  0  0  0  0  0  0  0  0  0  0
    6.6163    0.6523   -1.4201 H   0  0  0  0  0  0  0  0  0  0  0  0
    4.6604    1.1024    0.0657 H   0  0  0  0  0  0  0  0  0  0  0  0
    5.0680   -0.3094    1.0446 H   0  0  0  0  0  0  0  0  0  0  0  0
    4.8003   -1.7686   -1.0005 H   0  0  0  0  0  0  0  0  0  0  0  0
    4.2907   -0.3595   -1.9240 H   0  0  0  0  0  0  0  0  0  0  0  0
    2.8666   -1.4864    0.5494 H   0  0  0  0  0  0  0  0  0  0  0  0
    2.4065   -1.7841   -1.1191 H   0  0  0  0  0  0  0  0  0  0  0  0
    2.0357    0.6985   -1.4388 H   0  0  0  0  0  0  0  0  0  0  0  0
    2.3758    0.9372    0.2903 H   0  0  0  0  0  0  0  0  0  0  0  0
    0.2612    1.9494   -0.0330 H   0  0  0  0  0  0  0  0  0  0  0  0
   -3.1673   -0.4480   -2.1018 H   0  0  0  0  0  0  0  0  0  0  0  0
   -1.9576   -1.4684   -1.2872 H   0  0  0  0  0  0  0  0  0  0  0  0
   -1.4758    0.0133   -2.1588 H   0  0  0  0  0  0  0  0  0  0  0  0
   -3.5184    2.1911    1.4257 H   0  0  0  0  0  0  0  0  0  0  0  0
   -5.7226    2.1213    2.5320 H   0  0  0  0  0  0  0  0  0  0  0  0
   -6.5234   -1.6989    0.7142 H   0  0  0  0  0  0  0  0  0  0  0  0
   -4.3251   -1.6529   -0.3831 H   0  0  0  0  0  0  0  0  0  0  0  0
  1  2  1  0
  2  3  1  0
  3  4  1  0
  4  5  1  0
  5  6  1  0
  6  7  2  0
  6  8  1  0
  8  9  1  0
  9 10  2  3
 10 11  1  0
 10 12  1  0
 12 13  2  0
 13 14  1  0
 14 15  2  0
 15 16  1  0
 15 17  1  0
 17 18  2  0
 18 12  1  0
  1 19  1  0
  1 20  1  0
  1 21  1  0
  2 22  1  0
  2 23  1  0
  3 24  1  0
  3 25  1  0
  4 26  1  0
  4 27  1  0
  5 28  1  0
  5 29  1  0
  8 30  1  0
 11 31  1  0
 11 32  1  0
 11 33  1  0
 13 34  1  0
 14 35  1  0
 17 36  1  0
 18 37  1  0
M  END
$$$$
