
     RDKit          3D

 35 37  0  0  0  0  0  0  0  0999 V2000
    5.6283   -1.2598    0.1395 C   0  0  0  0  0  0  0  0  0  0  0  0
    4.3407   -0.5412    0.4371 C   0  0  0  0  0  0  0  0  0  0  0  0
    4.0031    0.5998   -0.3066 C   0  0  0  0  0  0  0  0  0  0  0  0
    2.8170    1.2911   -0.0538 C   0  0  0  0  0  0  0  0  0  0  0  0
    1.9415    0.8492    0.9363 C   0  0  0  0  0  0  0  0  0  0  0  0
    0.7594    1.5531    1.2022 N   0  0  0  0  0  0  0  0  0  0  0  0
   -0.3233    1.2272    0.5859 C   0  0  0  0  0  0  0  0  0  0  0  0
   -1.4697    1.9017    0.8358 N   0  0  0  0  0  0  0  0  0  0  0  0
   -2.5972    1.5480    0.1511 C   0  0  0  0  0  0  0  0  0  0  0  0
   -3.6633    2.1256    0.2802 O   0  0  0  0  0  0  0  0  0  0  0  0
   -2.3010    0.3945   -0.7517 C   0  0  0  0  0  0  0  0  0  0  0  0
   -3.0981   -0.2728   -1.5986 C   0  0  0  0  0  0  0  0  0  0  0  0
   -4.4869   -0.0387   -1.8003 C   0  0  0  0  0  0  0  0  0  0  0  0
   -5.5186    0.1769   -0.9030 C   0  0  0  0  0  0  0  0  0  0  0  0
   -6.7865    0.3440   -1.5334 C   0  0  0  0  0  0  0  0  0  0  0  0
   -6.6989    0.2290   -2.9002 C   0  0  0  0  0  0  0  0  0  0  0  0
   -5.1019   -0.0859   -3.4136 S   0  0  0  0  0  0  0  0  0  0  0  0
   -0.6117   -0.0136   -0.5999 S   0  0  0  0  0  0  0  0  0  0  0  0
    2.2825   -0.2723    1.6968 C   0  0  0  0  0  0  0  0  0  0  0  0
    3.4725   -0.9802    1.4567 C   0  0  0  0  0  0  0  0  0  0  0  0
    3.7919   -2.1873    2.2949 C   0  0  0  0  0  0  0  0  0  0  0  0
    5.4304   -2.3036   -0.1238 H   0  0  0  0  0  0  0  0  0  0  0  0
    6.1573   -0.8040   -0.7043 H   0  0  0  0  0  0  0  0  0  0  0  0
    6.2938   -1.2210    1.0077 H   0  0  0  0  0  0  0  0  0  0  0  0
    4.6657    0.9633   -1.0890 H   0  0  0  0  0  0  0  0  0  0  0  0
    2.5762    2.1785   -0.6319 H   0  0  0  0  0  0  0  0  0  0  0  0
   -1.4790    2.6710    1.4853 H   0  0  0  0  0  0  0  0  0  0  0  0
   -2.6570   -1.0562   -2.2139 H   0  0  0  0  0  0  0  0  0  0  0  0
   -5.3780    0.2228    0.1705 H   0  0  0  0  0  0  0  0  0  0  0  0
   -7.7127    0.5376   -1.0067 H   0  0  0  0  0  0  0  0  0  0  0  0
   -7.4980    0.3095   -3.6241 H   0  0  0  0  0  0  0  0  0  0  0  0
    1.6074   -0.5923    2.4867 H   0  0  0  0  0  0  0  0  0  0  0  0
    3.8581   -3.0802    1.6653 H   0  0  0  0  0  0  0  0  0  0  0  0
    4.7381   -2.0427    2.8258 H   0  0  0  0  0  0  0  0  0  0  0  0
    3.0176   -2.3710    3.0474 H   0  0  0  0  0  0  0  0  0  0  0  0
  1  2  1  0
  2  3  2  0
  3  4  1  0
  4  5  2  0
  5  6  1  0
  6  7  2  3
  7  8  1  0
  8  9  1  0
  9 10  2  0
  9 11  1  0
 11 12  2  3
 12 13  1  0
 13 14  2  0
 14 15  1  0
 15 16  2  0
 16 17  1  0
 11 18  1  0
  5 19  1  0
 19 20  2  0
 20 21  1  0
 20  2  1  0
 18  7  1  0
 17 13  1  0
  1 22  1  0
  1 23  1  0
  1 24  1  0
  3 25  1  0
  4 26  1  0
  8 27  1  0
 12 28  1  0
 14 29  1  0
 15 30  1  0
 16 31  1  0
 19 32  1  0
 21 33  1  0
 21 34  1  0
 21 35  1  0
M  END
$$$$
