
     RDKit          3D

 37 40  0  0  0  0  0  0  0  0999 V2000
    6.0154    0.0139   -0.3209 C   0  0  0  0  0  0  0  0  0  0  0  0
    4.7585   -0.5983   -0.0627 O   0  0  0  0  0  0  0  0  0  0  0  0
    3.6435    0.1820   -0.2189 C   0  0  0  0  0  0  0  0  0  0  0  0
    3.6311    1.5172   -0.6100 C   0  0  0  0  0  0  0  0  0  0  0  0
    2.4255    2.2131   -0.7490 C   0  0  0  0  0  0  0  0  0  0  0  0
    1.2371    1.5264   -0.4752 C   0  0  0  0  0  0  0  0  0  0  0  0
   -0.0599    1.9578   -0.5489 N   0  0  0  0  0  0  0  0  0  0  0  0
   -0.9502    0.9582   -0.2199 C   0  0  0  0  0  0  0  0  0  0  0  0
   -2.3595    0.9912   -0.2151 C   0  0  0  0  0  0  0  0  0  0  0  0
   -3.1263    2.2321   -0.5989 C   0  0  0  0  0  0  0  0  0  0  0  0
   -3.0349   -0.2088    0.1416 C   0  0  0  0  0  0  0  0  0  0  0  0
   -4.4436   -0.2956    0.1307 C   0  0  0  0  0  0  0  0  0  0  0  0
   -5.0761   -1.4788    0.4704 C   0  0  0  0  0  0  0  0  0  0  0  0
   -4.4180   -2.5907    0.8190 N   0  0  0  0  0  0  0  0  0  0  0  0
   -3.0666   -2.4998    0.8312 C   0  0  0  0  0  0  0  0  0  0  0  0
   -2.3017   -1.3575    0.5196 C   0  0  0  0  0  0  0  0  0  0  0  0
   -0.8681   -1.3325    0.5704 C   0  0  0  0  0  0  0  0  0  0  0  0
   -0.1118   -2.5483    1.0514 C   0  0  0  0  0  0  0  0  0  0  0  0
   -0.1915   -0.1583    0.1331 C   0  0  0  0  0  0  0  0  0  0  0  0
    1.1980    0.1978   -0.0638 C   0  0  0  0  0  0  0  0  0  0  0  0
    2.4349   -0.4783    0.0503 C   0  0  0  0  0  0  0  0  0  0  0  0
    6.1987    0.8452    0.3679 H   0  0  0  0  0  0  0  0  0  0  0  0
    6.0893    0.3394   -1.3638 H   0  0  0  0  0  0  0  0  0  0  0  0
    6.7937   -0.7363   -0.1510 H   0  0  0  0  0  0  0  0  0  0  0  0
    4.5487    2.0552   -0.8250 H   0  0  0  0  0  0  0  0  0  0  0  0
    2.4203    3.2518   -1.0643 H   0  0  0  0  0  0  0  0  0  0  0  0
   -0.3255    2.8872   -0.8355 H   0  0  0  0  0  0  0  0  0  0  0  0
   -3.7179    2.0477   -1.5015 H   0  0  0  0  0  0  0  0  0  0  0  0
   -2.4682    3.0794   -0.8091 H   0  0  0  0  0  0  0  0  0  0  0  0
   -3.7885    2.5376    0.2180 H   0  0  0  0  0  0  0  0  0  0  0  0
   -5.0664    0.5484   -0.1451 H   0  0  0  0  0  0  0  0  0  0  0  0
   -6.1590   -1.5578    0.4644 H   0  0  0  0  0  0  0  0  0  0  0  0
   -2.5949   -3.4392    1.1060 H   0  0  0  0  0  0  0  0  0  0  0  0
   -0.6321   -3.0507    1.8724 H   0  0  0  0  0  0  0  0  0  0  0  0
    0.8575   -2.2745    1.4708 H   0  0  0  0  0  0  0  0  0  0  0  0
    0.0357   -3.2519    0.2270 H   0  0  0  0  0  0  0  0  0  0  0  0
    2.4730   -1.5241    0.3344 H   0  0  0  0  0  0  0  0  0  0  0  0
  1  2  1  0
  2  3  1  0
  3  4  2  0
  4  5  1  0
  5  6  2  0
  6  7  1  0
  7  8  1  0
  8  9  2  0
  9 10  1  0
  9 11  1  0
 11 12  2  0
 12 13  1  0
 13 14  2  0
 14 15  1  0
 15 16  2  0
 16 17  1  0
 17 18  1  0
 17 19  2  0
 19 20  1  0
 20 21  2  0
 21  3  1  0
 20  6  1  0
 19  8  1  0
 16 11  1  0
  1 22  1  0
  1 23  1  0
  1 24  1  0
  4 25  1  0
  5 26  1  0
  7 27  1  0
 10 28  1  0
 10 29  1  0
 10 30  1  0
 12 31  1  0
 13 32  1  0
 15 33  1  0
 18 34  1  0
 18 35  1  0
 18 36  1  0
 21 37  1  0
M  END
$$$$
