
     RDKit          3D

 43 45  0  0  0  0  0  0  0  0999 V2000
    3.7766    2.3367   -2.1219 C   0  0  0  0  0  0  0  0  0  0  0  0
    3.1237    1.0832   -1.5945 C   0  0  0  0  0  0  0  0  0  0  0  0
    3.6523    0.5248   -0.3136 C   0  0  0  0  0  0  0  0  0  0  0  0
    3.0575   -0.5860    0.1626 C   0  0  0  0  0  0  0  0  0  0  0  0
    3.5266   -1.1997    1.4464 C   0  0  0  0  0  0  0  0  0  0  0  0
    1.9970   -1.1392   -0.5804 N   0  0  0  0  0  0  0  0  0  0  0  0
    1.1481   -2.2176   -0.4222 C   0  0  0  0  0  0  0  0  0  0  0  0
    1.0857   -3.2704    0.9498 S   0  0  0  0  0  0  0  0  0  0  0  0
   -0.6719   -3.0946    1.4043 C   0  0  0  0  0  0  0  0  0  0  0  0
   -1.0475   -1.6207    1.5390 C   0  0  0  0  0  0  0  0  0  0  0  0
   -0.4528   -0.9239    2.3720 O   0  0  0  0  0  0  0  0  0  0  0  0
   -2.0477   -1.0665    0.7355 N   0  0  0  0  0  0  0  0  0  0  0  0
   -2.6170   -1.7154   -0.4472 C   0  0  0  0  0  0  0  0  0  0  0  0
   -2.3194    0.3711    0.9210 C   0  0  0  0  0  0  0  0  0  0  0  0
   -1.3230    1.2559    0.1499 C   0  0  0  0  0  0  0  0  0  0  0  0
   -1.7666    2.6916    0.3944 C   0  0  0  0  0  0  0  0  0  0  0  0
   -3.5509    2.6324    0.4554 S   0  0  0  0  0  6  0  0  0  0  0  0
   -4.0820    3.1058   -0.8058 O   0  0  0  0  0  0  0  0  0  0  0  0
   -3.9885    3.1713    1.7263 O   0  0  0  0  0  0  0  0  0  0  0  0
   -3.7088    0.8565    0.5055 C   0  0  0  0  0  0  0  0  0  0  0  0
    0.3119   -2.3033   -1.4295 N   0  0  0  0  0  0  0  0  0  0  0  0
    0.5655   -1.2555   -2.2715 N   0  0  0  0  0  0  0  0  0  0  0  0
    1.5672   -0.5544   -1.7782 C   0  0  0  0  0  0  0  0  0  0  0  0
    2.1408    0.5781   -2.2755 N   0  0  0  0  0  0  0  0  0  0  0  0
    4.6696    2.5975   -1.5486 H   0  0  0  0  0  0  0  0  0  0  0  0
    3.0627    3.1635   -2.0647 H   0  0  0  0  0  0  0  0  0  0  0  0
    4.0625    2.1845   -3.1669 H   0  0  0  0  0  0  0  0  0  0  0  0
    4.4737    1.0280    0.1808 H   0  0  0  0  0  0  0  0  0  0  0  0
    4.3844   -0.6586    1.8632 H   0  0  0  0  0  0  0  0  0  0  0  0
    2.7389   -1.1699    2.2053 H   0  0  0  0  0  0  0  0  0  0  0  0
    3.8550   -2.2320    1.2910 H   0  0  0  0  0  0  0  0  0  0  0  0
   -1.2904   -3.6675    0.7190 H   0  0  0  0  0  0  0  0  0  0  0  0
   -0.8130   -3.5518    2.3901 H   0  0  0  0  0  0  0  0  0  0  0  0
   -2.3934   -1.1087   -1.3296 H   0  0  0  0  0  0  0  0  0  0  0  0
   -3.7006   -1.7846   -0.3156 H   0  0  0  0  0  0  0  0  0  0  0  0
   -2.2364   -2.7158   -0.6319 H   0  0  0  0  0  0  0  0  0  0  0  0
   -2.2036    0.5946    1.9911 H   0  0  0  0  0  0  0  0  0  0  0  0
   -1.3638    1.0298   -0.9226 H   0  0  0  0  0  0  0  0  0  0  0  0
   -0.2889    1.1038    0.4750 H   0  0  0  0  0  0  0  0  0  0  0  0
   -1.4108    3.0527    1.3638 H   0  0  0  0  0  0  0  0  0  0  0  0
   -1.4442    3.3692   -0.3986 H   0  0  0  0  0  0  0  0  0  0  0  0
   -4.4852    0.5709    1.2187 H   0  0  0  0  0  0  0  0  0  0  0  0
   -3.9933    0.5339   -0.4996 H   0  0  0  0  0  0  0  0  0  0  0  0
  1  2  1  0
  2  3  1  0
  3  4  2  0
  4  5  1  0
  4  6  1  0
  6  7  1  0
  7  8  1  0
  8  9  1  0
  9 10  1  0
 10 11  2  0
 10 12  1  0
 12 13  1  0
 12 14  1  0
 14 15  1  0
 15 16  1  0
 16 17  1  0
 17 18  2  0
 17 19  2  0
 17 20  1  0
  7 21  2  0
 21 22  1  0
 22 23  2  0
 23 24  1  0
 24  2  2  0
 23  6  1  0
 20 14  1  0
  1 25  1  0
  1 26  1  0
  1 27  1  0
  3 28  1  0
  5 29  1  0
  5 30  1  0
  5 31  1  0
  9 32  1  0
  9 33  1  0
 13 34  1  0
 13 35  1  0
 13 36  1  0
 14 37  1  0
 15 38  1  0
 15 39  1  0
 16 40  1  0
 16 41  1  0
 20 42  1  0
 20 43  1  0
M  END
$$$$
