
     RDKit          3D

 66 69  0  0  0  0  0  0  0  0999 V2000
   -1.5595    7.8920   -0.3362 C   0  0  0  0  0  0  0  0  0  0  0  0
   -1.4057    6.4729   -0.3925 O   0  0  0  0  0  0  0  0  0  0  0  0
   -0.7401    5.9484    0.6689 C   0  0  0  0  0  0  0  0  0  0  0  0
   -0.2965    6.5771    1.6166 O   0  0  0  0  0  0  0  0  0  0  0  0
   -0.6295    4.4693    0.5406 C   0  0  0  0  0  0  0  0  0  0  0  0
   -1.1055    3.7721   -0.5767 C   0  0  0  0  0  0  0  0  0  0  0  0
   -0.9805    2.3808   -0.6448 C   0  0  0  0  0  0  0  0  0  0  0  0
   -0.3761    1.6616    0.3994 C   0  0  0  0  0  0  0  0  0  0  0  0
   -0.2951    0.1433    0.3062 C   0  0  0  0  0  0  0  0  0  0  0  0
   -1.5048   -0.5071    1.0167 C   0  0  0  0  0  0  0  0  0  0  0  0
   -2.2827   -1.3929    0.0734 C   0  0  0  0  0  0  0  0  0  0  0  0
   -1.7398   -1.9275   -0.8941 O   0  0  0  0  0  0  0  0  0  0  0  0
   -3.7413   -1.6216    0.3018 C   0  0  0  0  0  0  0  0  0  0  0  0
   -4.3746   -1.3325    1.5139 C   0  0  0  0  0  0  0  0  0  0  0  0
   -5.7460   -1.5565    1.6550 C   0  0  0  0  0  0  0  0  0  0  0  0
   -6.4922   -2.0759    0.5939 C   0  0  0  0  0  0  0  0  0  0  0  0
   -5.8684   -2.3809   -0.6147 C   0  0  0  0  0  0  0  0  0  0  0  0
   -6.4768   -2.8959   -1.7260 O   0  0  0  0  0  0  0  0  0  0  0  0
   -7.8374   -3.2901   -1.5912 C   0  0  0  0  0  0  0  0  0  0  0  0
   -4.4972   -2.1500   -0.7550 C   0  0  0  0  0  0  0  0  0  0  0  0
   -0.8547   -1.3026    2.1014 C   0  0  0  0  0  0  0  0  0  0  0  0
   -1.4315   -1.8885    2.9993 O   0  0  0  0  0  0  0  0  0  0  0  0
    0.6544   -1.2815    1.9283 C   0  0  0  0  0  0  0  0  0  0  0  0
    1.4301   -1.9540    2.5732 O   0  0  0  0  0  0  0  0  0  0  0  0
    0.9142   -0.3873    0.9186 N   0  0  0  0  0  0  0  0  0  0  0  0
    2.2218   -0.2807    0.2830 C   0  0  0  0  0  0  0  0  0  0  0  0
    2.4472   -1.3977   -0.7376 C   0  0  0  0  0  0  0  0  0  0  0  0
    3.7688   -1.2493   -1.5024 C   0  0  0  0  0  0  0  0  0  0  0  0
    4.9638   -1.2002   -0.6507 N   0  0  0  0  0  0  0  0  0  0  0  0
    5.1250   -2.4333    0.1572 C   0  0  0  0  0  0  0  0  0  0  0  0
    6.5864   -2.6645    0.5716 C   0  0  0  0  0  0  0  0  0  0  0  0
    7.4532   -2.8771   -0.5523 O   0  0  0  0  0  0  0  0  0  0  0  0
    7.0116   -2.2011   -1.7366 C   0  0  0  0  0  0  0  0  0  0  0  0
    6.1892   -0.9367   -1.4403 C   0  0  0  0  0  0  0  0  0  0  0  0
    0.0922    2.3663    1.5200 C   0  0  0  0  0  0  0  0  0  0  0  0
   -0.0294    3.7576    1.5868 C   0  0  0  0  0  0  0  0  0  0  0  0
   -2.0860    8.2105   -1.2399 H   0  0  0  0  0  0  0  0  0  0  0  0
   -2.1605    8.1772    0.5323 H   0  0  0  0  0  0  0  0  0  0  0  0
   -0.5825    8.3846   -0.3137 H   0  0  0  0  0  0  0  0  0  0  0  0
   -1.5782    4.2986   -1.4035 H   0  0  0  0  0  0  0  0  0  0  0  0
   -1.3619    1.8643   -1.5253 H   0  0  0  0  0  0  0  0  0  0  0  0
   -0.2461   -0.1189   -0.7570 H   0  0  0  0  0  0  0  0  0  0  0  0
   -2.1539    0.2573    1.4551 H   0  0  0  0  0  0  0  0  0  0  0  0
   -3.8310   -0.9542    2.3753 H   0  0  0  0  0  0  0  0  0  0  0  0
   -6.2356   -1.3337    2.6011 H   0  0  0  0  0  0  0  0  0  0  0  0
   -7.5552   -2.2325    0.7456 H   0  0  0  0  0  0  0  0  0  0  0  0
   -8.4816   -2.4225   -1.4134 H   0  0  0  0  0  0  0  0  0  0  0  0
   -8.1476   -3.7474   -2.5356 H   0  0  0  0  0  0  0  0  0  0  0  0
   -7.9573   -4.0411   -0.8030 H   0  0  0  0  0  0  0  0  0  0  0  0
   -4.0193   -2.3925   -1.7033 H   0  0  0  0  0  0  0  0  0  0  0  0
    2.9762   -0.3401    1.0752 H   0  0  0  0  0  0  0  0  0  0  0  0
    2.3033    0.7060   -0.1848 H   0  0  0  0  0  0  0  0  0  0  0  0
    2.3988   -2.3750   -0.2416 H   0  0  0  0  0  0  0  0  0  0  0  0
    1.6287   -1.3967   -1.4688 H   0  0  0  0  0  0  0  0  0  0  0  0
    3.8503   -2.0654   -2.2323 H   0  0  0  0  0  0  0  0  0  0  0  0
    3.7062   -0.3173   -2.0798 H   0  0  0  0  0  0  0  0  0  0  0  0
    4.7949   -3.3092   -0.4167 H   0  0  0  0  0  0  0  0  0  0  0  0
    4.5023   -2.3625    1.0557 H   0  0  0  0  0  0  0  0  0  0  0  0
    6.6592   -3.5495    1.2115 H   0  0  0  0  0  0  0  0  0  0  0  0
    6.9709   -1.8138    1.1463 H   0  0  0  0  0  0  0  0  0  0  0  0
    7.9045   -1.9418   -2.3154 H   0  0  0  0  0  0  0  0  0  0  0  0
    6.4298   -2.9098   -2.3370 H   0  0  0  0  0  0  0  0  0  0  0  0
    6.8102   -0.2549   -0.8452 H   0  0  0  0  0  0  0  0  0  0  0  0
    5.9634   -0.4070   -2.3737 H   0  0  0  0  0  0  0  0  0  0  0  0
    0.5598    1.8455    2.3537 H   0  0  0  0  0  0  0  0  0  0  0  0
    0.3456    4.2857    2.4632 H   0  0  0  0  0  0  0  0  0  0  0  0
  1  2  1  0
  2  3  1  0
  3  4  2  0
  3  5  1  0
  5  6  2  0
  6  7  1  0
  7  8  2  0
  8  9  1  0
  9 10  1  0
 10 11  1  0
 11 12  2  0
 11 13  1  0
 13 14  2  0
 14 15  1  0
 15 16  2  0
 16 17  1  0
 17 18  1  0
 18 19  1  0
 17 20  2  0
 10 21  1  0
 21 22  2  0
 21 23  1  0
 23 24  2  0
 23 25  1  0
 25 26  1  0
 26 27  1  0
 27 28  1  0
 28 29  1  0
 29 30  1  0
 30 31  1  0
 31 32  1  0
 32 33  1  0
 33 34  1  0
  8 35  1  0
 35 36  2  0
 36  5  1  0
 25  9  1  0
 34 29  1  0
 20 13  1  0
  1 37  1  0
  1 38  1  0
  1 39  1  0
  6 40  1  0
  7 41  1  0
  9 42  1  0
 10 43  1  0
 14 44  1  0
 15 45  1  0
 16 46  1  0
 19 47  1  0
 19 48  1  0
 19 49  1  0
 20 50  1  0
 26 51  1  0
 26 52  1  0
 27 53  1  0
 27 54  1  0
 28 55  1  0
 28 56  1  0
 30 57  1  0
 30 58  1  0
 31 59  1  0
 31 60  1  0
 33 61  1  0
 33 62  1  0
 34 63  1  0
 34 64  1  0
 35 65  1  0
 36 66  1  0
M  END
$$$$
