
     RDKit          3D

 61 65  0  0  0  0  0  0  0  0999 V2000
  -10.6305   -0.2105    0.7464 C   0  0  0  0  0  0  0  0  0  0  0  0
   -9.6103   -1.1067    0.3249 O   0  0  0  0  0  0  0  0  0  0  0  0
   -8.3343   -0.6171    0.2951 C   0  0  0  0  0  0  0  0  0  0  0  0
   -7.9398    0.6725    0.6402 C   0  0  0  0  0  0  0  0  0  0  0  0
   -6.5891    1.0462    0.5646 C   0  0  0  0  0  0  0  0  0  0  0  0
   -5.6092    0.1377    0.1410 C   0  0  0  0  0  0  0  0  0  0  0  0
   -4.2237    0.5186    0.0654 N   0  0  0  0  0  0  0  0  0  0  0  0
   -3.5995    1.5767    0.7472 C   0  0  0  0  0  0  0  0  0  0  0  0
   -4.2387    2.3597    1.6156 O   0  0  0  0  0  0  0  0  0  0  0  0
   -2.2622    1.6015    0.4040 C   0  0  0  0  0  0  0  0  0  0  0  0
   -2.0282    0.5360   -0.4782 C   0  0  0  0  0  0  0  0  0  0  0  0
   -0.8533    0.1618   -1.0710 N   0  0  0  0  0  0  0  0  0  0  0  0
   -0.2693   -1.1264   -0.5907 C   0  0  0  0  0  0  0  0  0  0  0  0
    0.8807   -1.6043   -1.5086 C   0  0  0  0  0  0  0  0  0  0  0  0
    1.9127   -0.5603   -1.7120 N   0  0  0  0  0  0  0  0  0  0  0  0
    2.9944   -0.4436   -0.8375 C   0  0  0  0  0  0  0  0  0  0  0  0
    4.0935    0.3642   -1.1846 C   0  0  0  0  0  0  0  0  0  0  0  0
    5.2104    0.5076   -0.3512 C   0  0  0  0  0  0  0  0  0  0  0  0
    5.2645   -0.1848    0.8566 C   0  0  0  0  0  0  0  0  0  0  0  0
    6.4153   -0.0578    1.7822 C   0  0  0  0  0  0  0  0  0  0  0  0
    6.2065   -0.0255    2.9917 O   0  0  0  0  0  0  0  0  0  0  0  0
    7.8050    0.0285    1.2857 C   0  0  0  0  0  0  0  0  0  0  0  0
    8.2384   -0.6039    0.1185 C   0  0  0  0  0  0  0  0  0  0  0  0
    9.5714   -0.4792   -0.2693 C   0  0  0  0  0  0  0  0  0  0  0  0
   10.4247    0.2668    0.5293 C   0  0  0  0  0  0  0  0  0  0  0  0
   10.0401    0.8775    1.6709 N   0  0  0  0  0  0  0  0  0  0  0  0
    8.7404    0.7342    2.0318 C   0  0  0  0  0  0  0  0  0  0  0  0
    4.1924   -0.9941    1.2289 C   0  0  0  0  0  0  0  0  0  0  0  0
    3.0836   -1.1309    0.3823 C   0  0  0  0  0  0  0  0  0  0  0  0
    1.3081    0.7066   -2.2022 C   0  0  0  0  0  0  0  0  0  0  0  0
    0.1975    1.2005   -1.2469 C   0  0  0  0  0  0  0  0  0  0  0  0
   -3.2329   -0.0916   -0.7122 C   0  0  0  0  0  0  0  0  0  0  0  0
   -3.4752   -1.0632   -1.5942 O   0  0  0  0  0  0  0  0  0  0  0  0
   -6.0175   -1.1570   -0.2051 C   0  0  0  0  0  0  0  0  0  0  0  0
   -7.3661   -1.5266   -0.1268 C   0  0  0  0  0  0  0  0  0  0  0  0
  -10.4685    0.1144    1.7796 H   0  0  0  0  0  0  0  0  0  0  0  0
  -10.7081    0.6467    0.0690 H   0  0  0  0  0  0  0  0  0  0  0  0
  -11.5831   -0.7482    0.7123 H   0  0  0  0  0  0  0  0  0  0  0  0
   -8.6530    1.4211    0.9683 H   0  0  0  0  0  0  0  0  0  0  0  0
   -6.3452    2.0743    0.8131 H   0  0  0  0  0  0  0  0  0  0  0  0
   -3.5858    2.9732    1.9959 H   0  0  0  0  0  0  0  0  0  0  0  0
   -1.5337    2.3006    0.7889 H   0  0  0  0  0  0  0  0  0  0  0  0
    0.0923   -0.9908    0.4356 H   0  0  0  0  0  0  0  0  0  0  0  0
   -1.0336   -1.9121   -0.5668 H   0  0  0  0  0  0  0  0  0  0  0  0
    0.4577   -1.8435   -2.4933 H   0  0  0  0  0  0  0  0  0  0  0  0
    1.3148   -2.5408   -1.1403 H   0  0  0  0  0  0  0  0  0  0  0  0
    4.1065    0.8812   -2.1416 H   0  0  0  0  0  0  0  0  0  0  0  0
    6.0162    1.1668   -0.6623 H   0  0  0  0  0  0  0  0  0  0  0  0
    7.5642   -1.2068   -0.4833 H   0  0  0  0  0  0  0  0  0  0  0  0
    9.9396   -0.9599   -1.1693 H   0  0  0  0  0  0  0  0  0  0  0  0
   11.4721    0.3912    0.2681 H   0  0  0  0  0  0  0  0  0  0  0  0
    8.4667    1.2231    2.9640 H   0  0  0  0  0  0  0  0  0  0  0  0
    4.2124   -1.5260    2.1783 H   0  0  0  0  0  0  0  0  0  0  0  0
    2.2856   -1.7814    0.7249 H   0  0  0  0  0  0  0  0  0  0  0  0
    2.0424    1.5048   -2.3489 H   0  0  0  0  0  0  0  0  0  0  0  0
    0.8697    0.5107   -3.1893 H   0  0  0  0  0  0  0  0  0  0  0  0
   -0.2453    2.1076   -1.6763 H   0  0  0  0  0  0  0  0  0  0  0  0
    0.6330    1.4605   -0.2736 H   0  0  0  0  0  0  0  0  0  0  0  0
   -2.6496   -1.1209   -2.1123 H   0  0  0  0  0  0  0  0  0  0  0  0
   -5.3085   -1.9200   -0.5106 H   0  0  0  0  0  0  0  0  0  0  0  0
   -7.6587   -2.5389   -0.3945 H   0  0  0  0  0  0  0  0  0  0  0  0
  1  2  1  0
  2  3  1  0
  3  4  2  0
  4  5  1  0
  5  6  2  0
  6  7  1  0
  7  8  1  0
  8  9  1  0
  8 10  2  0
 10 11  1  0
 11 12  1  0
 12 13  1  0
 13 14  1  0
 14 15  1  0
 15 16  1  0
 16 17  2  0
 17 18  1  0
 18 19  2  0
 19 20  1  0
 20 21  2  0
 20 22  1  0
 22 23  2  0
 23 24  1  0
 24 25  2  0
 25 26  1  0
 26 27  2  0
 19 28  1  0
 28 29  2  0
 15 30  1  0
 30 31  1  0
 11 32  2  0
 32 33  1  0
  6 34  1  0
 34 35  2  0
 35  3  1  0
 32  7  1  0
 31 12  1  0
 29 16  1  0
 27 22  1  0
  1 36  1  0
  1 37  1  0
  1 38  1  0
  4 39  1  0
  5 40  1  0
  9 41  1  0
 10 42  1  0
 13 43  1  0
 13 44  1  0
 14 45  1  0
 14 46  1  0
 17 47  1  0
 18 48  1  0
 23 49  1  0
 24 50  1  0
 25 51  1  0
 27 52  1  0
 28 53  1  0
 29 54  1  0
 30 55  1  0
 30 56  1  0
 31 57  1  0
 31 58  1  0
 33 59  1  0
 34 60  1  0
 35 61  1  0
M  END
$$$$
