
     RDKit          3D

 55 58  0  0  0  0  0  0  0  0999 V2000
   -7.6133   -2.8961    2.6217 C   0  0  0  0  0  0  0  0  0  0  0  0
   -7.3608   -2.3002    1.2411 C   0  0  0  0  0  0  0  0  0  0  0  0
   -6.9144   -3.3784    0.2603 C   0  0  0  0  0  0  0  0  0  0  0  0
   -6.3149   -1.3217    1.3869 O   0  0  0  0  0  0  0  0  0  0  0  0
   -6.2922   -0.3286    0.4638 C   0  0  0  0  0  0  0  0  0  0  0  0
   -7.0741   -0.1930   -0.4638 O   0  0  0  0  0  0  0  0  0  0  0  0
   -5.1658    0.6070    0.7304 C   0  0  0  0  0  0  0  0  0  0  0  0
   -4.2473    0.4034    1.7680 C   0  0  0  0  0  0  0  0  0  0  0  0
   -3.2040    1.3116    1.9717 C   0  0  0  0  0  0  0  0  0  0  0  0
   -3.0673    2.4377    1.1487 C   0  0  0  0  0  0  0  0  0  0  0  0
   -1.9220    3.3963    1.3536 C   0  0  0  0  0  0  0  0  0  0  0  0
   -0.8541    3.0489    0.4640 O   0  0  0  0  0  0  0  0  0  0  0  0
    0.1313    2.2886    0.9979 C   0  0  0  0  0  0  0  0  0  0  0  0
    0.2089    1.9211    2.1585 O   0  0  0  0  0  0  0  0  0  0  0  0
    1.1394    1.9392   -0.0409 C   0  0  0  0  0  0  0  0  0  0  0  0
    1.0415    2.3916   -1.3629 C   0  0  0  0  0  0  0  0  0  0  0  0
    2.0113    2.0326   -2.2987 C   0  0  0  0  0  0  0  0  0  0  0  0
    3.0816    1.2187   -1.9209 C   0  0  0  0  0  0  0  0  0  0  0  0
    3.1996    0.7509   -0.6027 C   0  0  0  0  0  0  0  0  0  0  0  0
    4.3027   -0.1076   -0.1883 C   0  0  0  0  0  0  0  0  0  0  0  0
    4.5672   -0.6410    0.9875 N   0  0  0  0  0  0  0  0  0  0  0  0
    5.7245   -1.3773    0.8333 N   0  0  0  0  0  0  0  0  0  0  0  0
    6.0890   -1.2442   -0.4269 C   0  0  0  0  0  0  0  0  0  0  0  0
    7.2297   -1.8071   -1.1380 C   0  0  0  0  0  0  0  0  0  0  0  0
    7.4480   -1.5627   -2.5030 C   0  0  0  0  0  0  0  0  0  0  0  0
    8.5490   -2.1184   -3.1612 C   0  0  0  0  0  0  0  0  0  0  0  0
    9.4455   -2.9247   -2.4633 C   0  0  0  0  0  0  0  0  0  0  0  0
    9.2442   -3.1762   -1.1076 C   0  0  0  0  0  0  0  0  0  0  0  0
    8.1431   -2.6213   -0.4503 C   0  0  0  0  0  0  0  0  0  0  0  0
    5.2303   -0.4464   -1.1395 O   0  0  0  0  0  0  0  0  0  0  0  0
    2.2187    1.1221    0.3309 C   0  0  0  0  0  0  0  0  0  0  0  0
   -3.9808    2.6323    0.1043 C   0  0  0  0  0  0  0  0  0  0  0  0
   -5.0243    1.7256   -0.1012 C   0  0  0  0  0  0  0  0  0  0  0  0
   -8.4042   -3.6517    2.5915 H   0  0  0  0  0  0  0  0  0  0  0  0
   -6.7034   -3.3559    3.0247 H   0  0  0  0  0  0  0  0  0  0  0  0
   -7.9071   -2.1111    3.3282 H   0  0  0  0  0  0  0  0  0  0  0  0
   -8.2870   -1.8253    0.8929 H   0  0  0  0  0  0  0  0  0  0  0  0
   -6.7296   -2.9522   -0.7318 H   0  0  0  0  0  0  0  0  0  0  0  0
   -7.6715   -4.1624    0.1634 H   0  0  0  0  0  0  0  0  0  0  0  0
   -5.9725   -3.8369    0.5840 H   0  0  0  0  0  0  0  0  0  0  0  0
   -4.3244   -0.4607    2.4235 H   0  0  0  0  0  0  0  0  0  0  0  0
   -2.4893    1.1301    2.7742 H   0  0  0  0  0  0  0  0  0  0  0  0
   -2.2422    4.4142    1.1019 H   0  0  0  0  0  0  0  0  0  0  0  0
   -1.6071    3.4308    2.4038 H   0  0  0  0  0  0  0  0  0  0  0  0
    0.2143    3.0224   -1.6804 H   0  0  0  0  0  0  0  0  0  0  0  0
    1.9325    2.3848   -3.3247 H   0  0  0  0  0  0  0  0  0  0  0  0
    3.8228    0.9510   -2.6721 H   0  0  0  0  0  0  0  0  0  0  0  0
    6.7625   -0.9372   -3.0712 H   0  0  0  0  0  0  0  0  0  0  0  0
    8.7053   -1.9223   -4.2195 H   0  0  0  0  0  0  0  0  0  0  0  0
   10.3015   -3.3571   -2.9753 H   0  0  0  0  0  0  0  0  0  0  0  0
    9.9430   -3.8044   -0.5595 H   0  0  0  0  0  0  0  0  0  0  0  0
    8.0007   -2.8298    0.6094 H   0  0  0  0  0  0  0  0  0  0  0  0
    2.2933    0.7677    1.3604 H   0  0  0  0  0  0  0  0  0  0  0  0
   -3.8826    3.4887   -0.5597 H   0  0  0  0  0  0  0  0  0  0  0  0
   -5.7255    1.8937   -0.9169 H   0  0  0  0  0  0  0  0  0  0  0  0
  1  2  1  0
  2  3  1  0
  2  4  1  0
  4  5  1  0
  5  6  2  0
  5  7  1  0
  7  8  2  0
  8  9  1  0
  9 10  2  0
 10 11  1  0
 11 12  1  0
 12 13  1  0
 13 14  2  0
 13 15  1  0
 15 16  2  0
 16 17  1  0
 17 18  2  0
 18 19  1  0
 19 20  1  0
 20 21  2  0
 21 22  1  0
 22 23  2  0
 23 24  1  0
 24 25  2  0
 25 26  1  0
 26 27  2  0
 27 28  1  0
 28 29  2  0
 23 30  1  0
 19 31  2  0
 10 32  1  0
 32 33  2  0
 33  7  1  0
 31 15  1  0
 30 20  1  0
 29 24  1  0
  1 34  1  0
  1 35  1  0
  1 36  1  0
  2 37  1  0
  3 38  1  0
  3 39  1  0
  3 40  1  0
  8 41  1  0
  9 42  1  0
 11 43  1  0
 11 44  1  0
 16 45  1  0
 17 46  1  0
 18 47  1  0
 25 48  1  0
 26 49  1  0
 27 50  1  0
 28 51  1  0
 29 52  1  0
 31 53  1  0
 32 54  1  0
 33 55  1  0
M  END
$$$$
