
     RDKit          3D

 37 40  0  0  0  0  0  0  0  0999 V2000
    5.2261   -1.0571   -0.0023 C   0  0  0  0  0  0  0  0  0  0  0  0
    5.0097    0.2930   -0.3919 O   0  0  0  0  0  0  0  0  0  0  0  0
    3.7124    0.7318   -0.4193 C   0  0  0  0  0  0  0  0  0  0  0  0
    3.5640    2.0659   -0.7911 C   0  0  0  0  0  0  0  0  0  0  0  0
    2.3040    2.6604   -0.8804 C   0  0  0  0  0  0  0  0  0  0  0  0
    1.1933    1.8677   -0.5743 C   0  0  0  0  0  0  0  0  0  0  0  0
   -0.1381    2.1847   -0.5980 N   0  0  0  0  0  0  0  0  0  0  0  0
   -0.9258    1.1079   -0.2524 C   0  0  0  0  0  0  0  0  0  0  0  0
   -2.3317    1.0176   -0.2008 C   0  0  0  0  0  0  0  0  0  0  0  0
   -3.2160    2.1903   -0.5448 C   0  0  0  0  0  0  0  0  0  0  0  0
   -2.8878   -0.2399    0.1630 C   0  0  0  0  0  0  0  0  0  0  0  0
   -4.2831   -0.4494    0.1956 C   0  0  0  0  0  0  0  0  0  0  0  0
   -4.7989   -1.6862    0.5415 C   0  0  0  0  0  0  0  0  0  0  0  0
   -4.0354   -2.7392    0.8563 N   0  0  0  0  0  0  0  0  0  0  0  0
   -2.6975   -2.5305    0.8270 C   0  0  0  0  0  0  0  0  0  0  0  0
   -2.0452   -1.3231    0.5047 C   0  0  0  0  0  0  0  0  0  0  0  0
   -0.6181   -1.1725    0.5107 C   0  0  0  0  0  0  0  0  0  0  0  0
    0.2568   -2.3191    0.9591 C   0  0  0  0  0  0  0  0  0  0  0  0
   -0.0611    0.0592    0.0621 C   0  0  0  0  0  0  0  0  0  0  0  0
    1.2858    0.5364   -0.1796 C   0  0  0  0  0  0  0  0  0  0  0  0
    2.5808   -0.0381   -0.1178 C   0  0  0  0  0  0  0  0  0  0  0  0
    4.8739   -1.2354    1.0191 H   0  0  0  0  0  0  0  0  0  0  0  0
    6.3047   -1.2408   -0.0188 H   0  0  0  0  0  0  0  0  0  0  0  0
    4.7599   -1.7511   -0.7095 H   0  0  0  0  0  0  0  0  0  0  0  0
    4.4477    2.6560   -1.0245 H   0  0  0  0  0  0  0  0  0  0  0  0
    2.2006    3.6976   -1.1818 H   0  0  0  0  0  0  0  0  0  0  0  0
   -0.4927    3.0904   -0.8639 H   0  0  0  0  0  0  0  0  0  0  0  0
   -3.8754    2.4286    0.2963 H   0  0  0  0  0  0  0  0  0  0  0  0
   -2.6415    3.0941   -0.7648 H   0  0  0  0  0  0  0  0  0  0  0  0
   -3.8181    1.9635   -1.4306 H   0  0  0  0  0  0  0  0  0  0  0  0
   -4.9857    0.3393   -0.0508 H   0  0  0  0  0  0  0  0  0  0  0  0
   -5.8705   -1.8595    0.5687 H   0  0  0  0  0  0  0  0  0  0  0  0
   -2.1378   -3.4279    1.0754 H   0  0  0  0  0  0  0  0  0  0  0  0
    0.4564   -2.9924    0.1205 H   0  0  0  0  0  0  0  0  0  0  0  0
   -0.1980   -2.8820    1.7795 H   0  0  0  0  0  0  0  0  0  0  0  0
    1.2024   -1.9597    1.3688 H   0  0  0  0  0  0  0  0  0  0  0  0
    2.6796   -1.0806    0.1487 H   0  0  0  0  0  0  0  0  0  0  0  0
  1  2  1  0
  2  3  1  0
  3  4  2  0
  4  5  1  0
  5  6  2  0
  6  7  1  0
  7  8  1  0
  8  9  2  0
  9 10  1  0
  9 11  1  0
 11 12  2  0
 12 13  1  0
 13 14  2  0
 14 15  1  0
 15 16  2  0
 16 17  1  0
 17 18  1  0
 17 19  2  0
 19 20  1  0
 20 21  2  0
 21  3  1  0
 20  6  1  0
 19  8  1  0
 16 11  1  0
  1 22  1  0
  1 23  1  0
  1 24  1  0
  4 25  1  0
  5 26  1  0
  7 27  1  0
 10 28  1  0
 10 29  1  0
 10 30  1  0
 12 31  1  0
 13 32  1  0
 15 33  1  0
 18 34  1  0
 18 35  1  0
 18 36  1  0
 21 37  1  0
M  END
$$$$
