
     RDKit          3D

 36 39  0  0  0  0  0  0  0  0999 V2000
   -6.1531   -0.0539   -2.6349 C   0  0  0  0  0  0  0  0  0  0  0  0
   -5.0170   -0.0651   -1.6414 C   0  0  0  0  0  0  0  0  0  0  0  0
   -5.3826   -0.0473   -0.1935 C   0  0  0  0  0  0  0  0  0  0  0  0
   -4.3705   -0.1027    0.6928 C   0  0  0  0  0  0  0  0  0  0  0  0
   -4.6582   -0.1096    2.1627 C   0  0  0  0  0  0  0  0  0  0  0  0
   -3.0537   -0.1548    0.1962 N   0  0  0  0  0  0  0  0  0  0  0  0
   -1.8169   -0.2227    0.8087 C   0  0  0  0  0  0  0  0  0  0  0  0
   -1.3820   -0.3091    2.6642 Br  0  0  0  0  0  0  0  0  0  0  0  0
   -0.8775   -0.2220   -0.2048 C   0  0  0  0  0  0  0  0  0  0  0  0
    0.6129   -0.2775   -0.1402 C   0  0  0  0  0  0  0  0  0  0  0  0
    1.3029    1.3414    0.3164 S   0  0  0  0  0  0  0  0  0  0  0  0
    3.0096    0.9580    0.3212 C   0  0  0  0  0  0  0  0  0  0  0  0
    3.4460   -0.2753    0.2222 N   0  0  0  0  0  0  0  0  0  0  0  0
    4.8302   -0.2848    0.2633 C   0  0  0  0  0  0  0  0  0  0  0  0
    5.6519   -1.4273    0.1791 C   0  0  0  0  0  0  0  0  0  0  0  0
    7.0426   -1.2899    0.2368 C   0  0  0  0  0  0  0  0  0  0  0  0
    7.6215   -0.0314    0.3790 C   0  0  0  0  0  0  0  0  0  0  0  0
    6.8295    1.1184    0.4602 C   0  0  0  0  0  0  0  0  0  0  0  0
    5.4339    0.9681    0.4009 C   0  0  0  0  0  0  0  0  0  0  0  0
    4.2062    2.1726    0.4738 S   0  0  0  0  0  0  0  0  0  0  0  0
   -1.5047   -0.1918   -1.4265 N   0  0  0  0  0  0  0  0  0  0  0  0
   -2.7975   -0.1507   -1.1836 C   0  0  0  0  0  0  0  0  0  0  0  0
   -3.8057   -0.1191   -2.1010 N   0  0  0  0  0  0  0  0  0  0  0  0
   -6.3371   -1.0780   -2.9739 H   0  0  0  0  0  0  0  0  0  0  0  0
   -7.0672    0.3432   -2.1855 H   0  0  0  0  0  0  0  0  0  0  0  0
   -5.8879    0.5669   -3.4963 H   0  0  0  0  0  0  0  0  0  0  0  0
   -6.4280   -0.0071    0.0842 H   0  0  0  0  0  0  0  0  0  0  0  0
   -5.7342   -0.0540    2.3645 H   0  0  0  0  0  0  0  0  0  0  0  0
   -4.3025   -1.0358    2.6235 H   0  0  0  0  0  0  0  0  0  0  0  0
   -4.2018    0.7527    2.6574 H   0  0  0  0  0  0  0  0  0  0  0  0
    1.0094   -0.5643   -1.1201 H   0  0  0  0  0  0  0  0  0  0  0  0
    0.9223   -1.0391    0.5829 H   0  0  0  0  0  0  0  0  0  0  0  0
    5.1968   -2.4069    0.0627 H   0  0  0  0  0  0  0  0  0  0  0  0
    7.6743   -2.1727    0.1651 H   0  0  0  0  0  0  0  0  0  0  0  0
    8.7051    0.0618    0.4210 H   0  0  0  0  0  0  0  0  0  0  0  0
    7.2829    2.0999    0.5631 H   0  0  0  0  0  0  0  0  0  0  0  0
  1  2  1  0
  2  3  1  0
  3  4  2  0
  4  5  1  0
  4  6  1  0
  6  7  1  0
  7  8  1  0
  7  9  2  0
  9 10  1  0
 10 11  1  0
 11 12  1  0
 12 13  2  0
 13 14  1  0
 14 15  2  0
 15 16  1  0
 16 17  2  0
 17 18  1  0
 18 19  2  0
 19 20  1  0
  9 21  1  0
 21 22  2  0
 22 23  1  0
 23  2  2  0
 22  6  1  0
 20 12  1  0
 19 14  1  0
  1 24  1  0
  1 25  1  0
  1 26  1  0
  3 27  1  0
  5 28  1  0
  5 29  1  0
  5 30  1  0
 10 31  1  0
 10 32  1  0
 15 33  1  0
 16 34  1  0
 17 35  1  0
 18 36  1  0
M  END
$$$$
