
     RDKit          3D

 41 42  0  0  0  0  0  0  0  0999 V2000
   -1.1486    1.9945   -0.6488 O   0  0  0  0  0  0  0  0  0  0  0  0
   -0.4608    0.8287   -0.1645 C   0  0  0  0  0  0  0  0  0  0  0  0
    0.8708    1.2965    0.4386 C   0  0  0  0  0  0  0  0  0  0  0  0
    1.6050    1.9790   -0.5911 O   0  0  0  0  0  0  0  0  0  0  0  0
    2.8807    2.4385   -0.1389 C   0  0  0  0  0  0  0  0  0  0  0  0
    3.9023    1.3267   -0.1167 C   0  0  0  0  0  0  0  0  0  0  0  0
    4.0280    0.4521   -1.2072 C   0  0  0  0  0  0  0  0  0  0  0  0
    4.9840   -0.5658   -1.1952 C   0  0  0  0  0  0  0  0  0  0  0  0
    5.8259   -0.7095   -0.0953 C   0  0  0  0  0  0  0  0  0  0  0  0
    7.0048   -1.9626   -0.0780 Cl  0  0  0  0  0  0  0  0  0  0  0  0
    5.7214    0.1571    0.9908 C   0  0  0  0  0  0  0  0  0  0  0  0
    4.7643    1.1751    0.9790 C   0  0  0  0  0  0  0  0  0  0  0  0
   -1.3112    0.0887    0.8926 C   0  0  0  0  0  0  0  0  0  0  0  0
   -2.3996   -0.7406    0.3341 N   0  0  0  0  0  0  0  0  0  0  0  0
   -3.0509   -1.5417    1.3714 C   0  0  0  0  0  0  0  0  0  0  0  0
   -3.9532   -2.6042    0.7323 C   0  0  0  0  0  0  0  0  0  0  0  0
   -4.6774   -2.1072   -0.5204 C   0  0  0  0  0  0  0  0  0  0  0  0
   -4.7690   -0.5892   -0.5275 C   0  0  0  0  0  0  0  0  0  0  0  0
   -3.3801    0.0599   -0.4226 C   0  0  0  0  0  0  0  0  0  0  0  0
   -0.4907    2.4569   -1.2040 H   0  0  0  0  0  0  0  0  0  0  0  0
   -0.2643    0.1829   -1.0287 H   0  0  0  0  0  0  0  0  0  0  0  0
    0.6878    2.0003    1.2590 H   0  0  0  0  0  0  0  0  0  0  0  0
    1.4443    0.4398    0.8077 H   0  0  0  0  0  0  0  0  0  0  0  0
    3.2237    3.2034   -0.8445 H   0  0  0  0  0  0  0  0  0  0  0  0
    2.7795    2.9222    0.8400 H   0  0  0  0  0  0  0  0  0  0  0  0
    3.3730    0.5606   -2.0703 H   0  0  0  0  0  0  0  0  0  0  0  0
    5.0655   -1.2387   -2.0445 H   0  0  0  0  0  0  0  0  0  0  0  0
    6.3819    0.0471    1.8468 H   0  0  0  0  0  0  0  0  0  0  0  0
    4.6978    1.8473    1.8319 H   0  0  0  0  0  0  0  0  0  0  0  0
   -0.6406   -0.5788    1.4485 H   0  0  0  0  0  0  0  0  0  0  0  0
   -1.7245    0.8123    1.6076 H   0  0  0  0  0  0  0  0  0  0  0  0
   -2.3091   -2.0626    1.9893 H   0  0  0  0  0  0  0  0  0  0  0  0
   -3.6329   -0.9030    2.0489 H   0  0  0  0  0  0  0  0  0  0  0  0
   -4.6886   -2.9317    1.4770 H   0  0  0  0  0  0  0  0  0  0  0  0
   -3.3628   -3.4904    0.4683 H   0  0  0  0  0  0  0  0  0  0  0  0
   -4.1303   -2.4391   -1.4119 H   0  0  0  0  0  0  0  0  0  0  0  0
   -5.6754   -2.5552   -0.5803 H   0  0  0  0  0  0  0  0  0  0  0  0
   -5.3888   -0.2650    0.3185 H   0  0  0  0  0  0  0  0  0  0  0  0
   -5.2709   -0.2442   -1.4385 H   0  0  0  0  0  0  0  0  0  0  0  0
   -2.9906    0.2083   -1.4366 H   0  0  0  0  0  0  0  0  0  0  0  0
   -3.5201    1.0519    0.0252 H   0  0  0  0  0  0  0  0  0  0  0  0
  1  2  1  0
  2  3  1  0
  3  4  1  0
  4  5  1  0
  5  6  1  0
  6  7  2  0
  7  8  1  0
  8  9  2  0
  9 10  1  0
  9 11  1  0
 11 12  2  0
  2 13  1  0
 13 14  1  0
 14 15  1  0
 15 16  1  0
 16 17  1  0
 17 18  1  0
 18 19  1  0
 12  6  1  0
 19 14  1  0
  1 20  1  0
  2 21  1  0
  3 22  1  0
  3 23  1  0
  5 24  1  0
  5 25  1  0
  7 26  1  0
  8 27  1  0
 11 28  1  0
 12 29  1  0
 13 30  1  0
 13 31  1  0
 15 32  1  0
 15 33  1  0
 16 34  1  0
 16 35  1  0
 17 36  1  0
 17 37  1  0
 18 38  1  0
 18 39  1  0
 19 40  1  0
 19 41  1  0
M  END
$$$$
