
     RDKit          3D

 36 37  0  0  0  0  0  0  0  0999 V2000
    1.2598    2.2432    0.9104 C   0  0  0  0  0  0  0  0  0  0  0  0
    1.3641    0.8222    0.8507 O   0  0  0  0  0  0  0  0  0  0  0  0
    2.1655    0.3071   -0.1398 C   0  0  0  0  0  0  0  0  0  0  0  0
    2.6616    1.0425   -1.2209 C   0  0  0  0  0  0  0  0  0  0  0  0
    3.4357    0.4204   -2.2033 C   0  0  0  0  0  0  0  0  0  0  0  0
    3.7125   -0.9402   -2.1189 C   0  0  0  0  0  0  0  0  0  0  0  0
    3.2195   -1.6831   -1.0485 C   0  0  0  0  0  0  0  0  0  0  0  0
    2.4510   -1.0692   -0.0458 C   0  0  0  0  0  0  0  0  0  0  0  0
    1.9233   -1.9166    1.0912 C   0  0  0  0  0  0  0  0  0  0  0  0
    0.5150   -2.4293    0.8392 C   0  0  0  0  0  0  0  0  0  0  0  0
    0.2884   -3.6284    0.7124 O   0  0  0  0  0  0  0  0  0  0  0  0
   -0.4395   -1.4266    0.8863 N   0  0  0  0  0  0  0  0  0  0  0  0
   -1.7026   -1.5216    0.3377 C   0  0  0  0  0  0  0  0  0  0  0  0
   -2.2021   -2.5224   -0.1663 O   0  0  0  0  0  0  0  0  0  0  0  0
   -2.5016   -0.2636    0.3220 C   0  0  0  0  0  0  0  0  0  0  0  0
   -2.3065    0.7426    1.2815 C   0  0  0  0  0  0  0  0  0  0  0  0
   -3.0554    1.9217    1.2262 C   0  0  0  0  0  0  0  0  0  0  0  0
   -4.0062    2.1006    0.2219 C   0  0  0  0  0  0  0  0  0  0  0  0
   -4.2238    1.0961   -0.7204 C   0  0  0  0  0  0  0  0  0  0  0  0
   -3.4848   -0.0836   -0.6624 C   0  0  0  0  0  0  0  0  0  0  0  0
   -3.7781   -1.0291   -1.6093 O   0  0  0  0  0  0  0  0  0  0  0  0
    0.6966    2.6283    0.0544 H   0  0  0  0  0  0  0  0  0  0  0  0
    0.7007    2.4964    1.8163 H   0  0  0  0  0  0  0  0  0  0  0  0
    2.2459    2.7137    0.9852 H   0  0  0  0  0  0  0  0  0  0  0  0
    2.4548    2.1008   -1.3412 H   0  0  0  0  0  0  0  0  0  0  0  0
    3.8147    0.9983   -3.0429 H   0  0  0  0  0  0  0  0  0  0  0  0
    4.3060   -1.4256   -2.8898 H   0  0  0  0  0  0  0  0  0  0  0  0
    3.4340   -2.7499   -1.0026 H   0  0  0  0  0  0  0  0  0  0  0  0
    2.5811   -2.7809    1.2482 H   0  0  0  0  0  0  0  0  0  0  0  0
    1.9442   -1.3601    2.0361 H   0  0  0  0  0  0  0  0  0  0  0  0
   -0.0645   -0.4921    1.0001 H   0  0  0  0  0  0  0  0  0  0  0  0
   -1.5989    0.6190    2.0966 H   0  0  0  0  0  0  0  0  0  0  0  0
   -2.9075    2.6978    1.9737 H   0  0  0  0  0  0  0  0  0  0  0  0
   -4.5917    3.0160    0.1801 H   0  0  0  0  0  0  0  0  0  0  0  0
   -4.9763    1.2246   -1.4944 H   0  0  0  0  0  0  0  0  0  0  0  0
   -3.3349   -1.8689   -1.3470 H   0  0  0  0  0  0  0  0  0  0  0  0
  1  2  1  0
  2  3  1  0
  3  4  2  0
  4  5  1  0
  5  6  2  0
  6  7  1  0
  7  8  2  0
  8  9  1  0
  9 10  1  0
 10 11  2  0
 10 12  1  0
 12 13  1  0
 13 14  2  0
 13 15  1  0
 15 16  2  0
 16 17  1  0
 17 18  2  0
 18 19  1  0
 19 20  2  0
 20 21  1  0
  8  3  1  0
 20 15  1  0
  1 22  1  0
  1 23  1  0
  1 24  1  0
  4 25  1  0
  5 26  1  0
  6 27  1  0
  7 28  1  0
  9 29  1  0
  9 30  1  0
 12 31  1  0
 16 32  1  0
 17 33  1  0
 18 34  1  0
 19 35  1  0
 21 36  1  0
M  END
$$$$
