
     RDKit          3D

 42 44  0  0  0  0  0  0  0  0999 V2000
    5.6287   -1.2453    0.4682 C   0  0  0  0  0  0  0  0  0  0  0  0
    5.1616    0.1181   -0.0180 C   0  0  0  0  0  0  0  0  0  0  0  0
    3.6612    0.2499    0.0412 C   0  0  0  0  0  0  0  0  0  0  0  0
    3.0350    0.7295    1.1972 C   0  0  0  0  0  0  0  0  0  0  0  0
    1.6437    0.8356    1.2588 C   0  0  0  0  0  0  0  0  0  0  0  0
    0.8481    0.4577    0.1666 C   0  0  0  0  0  0  0  0  0  0  0  0
   -0.6744    0.5657    0.2584 C   0  0  0  0  0  0  0  0  0  0  0  0
   -1.3269   -0.8323    0.1276 C   0  0  0  0  0  0  0  0  0  0  0  0
   -0.8447   -1.7256    1.2549 C   0  0  0  0  0  0  0  0  0  0  0  0
   -0.4568   -2.8781    1.1335 O   0  0  0  0  0  0  0  0  0  0  0  0
   -0.9469   -1.1819    2.4844 O   0  0  0  0  0  0  0  0  0  0  0  0
   -2.8384   -0.7392    0.0556 C   0  0  0  0  0  0  0  0  0  0  0  0
   -3.6613   -1.8335    0.3816 C   0  0  0  0  0  0  0  0  0  0  0  0
   -5.0507   -1.7386    0.2838 C   0  0  0  0  0  0  0  0  0  0  0  0
   -5.6396   -0.5596   -0.1600 C   0  0  0  0  0  0  0  0  0  0  0  0
   -4.8365    0.5211   -0.5196 C   0  0  0  0  0  0  0  0  0  0  0  0
   -3.4387    0.4347   -0.4229 C   0  0  0  0  0  0  0  0  0  0  0  0
   -2.6254    1.5989   -0.8752 C   0  0  0  0  0  0  0  0  0  0  0  0
   -3.1976    2.5599   -1.3838 O   0  0  0  0  0  0  0  0  0  0  0  0
   -1.2374    1.5364   -0.7047 N   0  0  0  0  0  0  0  0  0  0  0  0
   -0.5097    2.7781   -0.9531 C   0  0  0  0  0  0  0  0  0  0  0  0
    1.4805   -0.0240   -0.9905 C   0  0  0  0  0  0  0  0  0  0  0  0
    2.8718   -0.1295   -1.0503 C   0  0  0  0  0  0  0  0  0  0  0  0
    6.7199   -1.3127    0.4144 H   0  0  0  0  0  0  0  0  0  0  0  0
    5.2084   -2.0508   -0.1436 H   0  0  0  0  0  0  0  0  0  0  0  0
    5.3287   -1.4210    1.5068 H   0  0  0  0  0  0  0  0  0  0  0  0
    5.6254    0.9065    0.5872 H   0  0  0  0  0  0  0  0  0  0  0  0
    5.5063    0.2833   -1.0461 H   0  0  0  0  0  0  0  0  0  0  0  0
    3.6294    1.0236    2.0597 H   0  0  0  0  0  0  0  0  0  0  0  0
    1.1863    1.2136    2.1712 H   0  0  0  0  0  0  0  0  0  0  0  0
   -0.9322    0.9887    1.2406 H   0  0  0  0  0  0  0  0  0  0  0  0
   -1.0062   -1.3021   -0.8125 H   0  0  0  0  0  0  0  0  0  0  0  0
   -0.6371   -1.8938    3.0848 H   0  0  0  0  0  0  0  0  0  0  0  0
   -3.2341   -2.7800    0.7099 H   0  0  0  0  0  0  0  0  0  0  0  0
   -5.6732   -2.5908    0.5468 H   0  0  0  0  0  0  0  0  0  0  0  0
   -6.7210   -0.4843   -0.2419 H   0  0  0  0  0  0  0  0  0  0  0  0
   -5.3045    1.4323   -0.8886 H   0  0  0  0  0  0  0  0  0  0  0  0
    0.4869    2.5689   -1.3464 H   0  0  0  0  0  0  0  0  0  0  0  0
   -1.0252    3.4022   -1.6890 H   0  0  0  0  0  0  0  0  0  0  0  0
   -0.4352    3.3361   -0.0147 H   0  0  0  0  0  0  0  0  0  0  0  0
    0.8949   -0.3091   -1.8624 H   0  0  0  0  0  0  0  0  0  0  0  0
    3.3368   -0.5086   -1.9579 H   0  0  0  0  0  0  0  0  0  0  0  0
  1  2  1  0
  2  3  1  0
  3  4  2  0
  4  5  1  0
  5  6  2  0
  6  7  1  0
  7  8  1  0
  8  9  1  0
  9 10  2  0
  9 11  1  0
  8 12  1  0
 12 13  2  0
 13 14  1  0
 14 15  2  0
 15 16  1  0
 16 17  2  0
 17 18  1  0
 18 19  2  0
 18 20  1  0
 20 21  1  0
  6 22  1  0
 22 23  2  0
 23  3  1  0
 20  7  1  0
 17 12  1  0
  1 24  1  0
  1 25  1  0
  1 26  1  0
  2 27  1  0
  2 28  1  0
  4 29  1  0
  5 30  1  0
  7 31  1  0
  8 32  1  0
 11 33  1  0
 13 34  1  0
 14 35  1  0
 15 36  1  0
 16 37  1  0
 21 38  1  0
 21 39  1  0
 21 40  1  0
 22 41  1  0
 23 42  1  0
M  END
$$$$
