
     RDKit          3D

 73 75  0  0  0  0  0  0  0  0999 V2000
    7.1372   -4.2803   -0.4190 C   0  0  0  0  0  0  0  0  0  0  0  0
    7.9106   -3.5498   -1.5082 C   0  0  0  0  0  0  0  0  0  0  0  0
    7.1272   -2.4153   -2.1739 C   0  0  0  0  0  0  0  0  0  0  0  0
    7.3198   -1.0312   -1.5431 C   0  0  0  0  0  0  0  0  0  0  0  0
    6.7418   -0.8278   -0.1423 C   0  0  0  0  0  0  0  0  0  0  0  0
    5.2433   -1.1122    0.0140 C   0  0  0  0  0  0  0  0  0  0  0  0
    4.3549   -0.2391   -0.8776 C   0  0  0  0  0  0  0  0  0  0  0  0
    2.8571   -0.4989   -0.6604 C   0  0  0  0  0  0  0  0  0  0  0  0
    2.3268    0.1217    0.6369 C   0  0  0  0  0  0  0  0  0  0  0  0
    0.9260   -0.3683    1.0318 C   0  0  0  0  0  0  0  0  0  0  0  0
   -0.1963   -0.1821    0.0061 C   0  0  0  0  0  0  0  0  0  0  0  0
   -0.9889    1.1326    0.1188 N   0  0  0  0  0  4  0  0  0  0  0  0
   -1.7203    1.2370    1.4593 C   0  0  0  0  0  0  0  0  0  0  0  0
   -0.0717    2.3545    0.0032 C   0  0  0  0  0  0  0  0  0  0  0  0
   -2.0011    1.2475   -1.0685 C   0  0  0  0  0  0  0  0  0  0  0  0
   -2.9523    0.0548   -1.2960 C   0  0  0  0  0  0  0  0  0  0  0  0
   -3.9249   -0.2448   -0.1851 C   0  0  0  0  0  0  0  0  0  0  0  0
   -5.0140    0.4595    0.2064 C   0  0  0  0  0  0  0  0  0  0  0  0
   -5.4300    1.7184   -0.4610 C   0  0  0  0  0  0  0  0  0  0  0  0
   -5.6892    1.7796   -1.8375 C   0  0  0  0  0  0  0  0  0  0  0  0
   -6.0556    2.9879   -2.4326 C   0  0  0  0  0  0  0  0  0  0  0  0
   -6.1928    4.1374   -1.6584 C   0  0  0  0  0  0  0  0  0  0  0  0
   -5.9894    4.0774   -0.2797 C   0  0  0  0  0  0  0  0  0  0  0  0
   -5.6272    2.8691    0.3275 C   0  0  0  0  0  0  0  0  0  0  0  0
   -5.4317    2.8399    2.1087 S   0  0  0  0  0  0  0  0  0  0  0  0
   -5.8042    1.1204    2.4716 C   0  0  0  0  0  0  0  0  0  0  0  0
   -6.2861    0.8033    3.7478 C   0  0  0  0  0  0  0  0  0  0  0  0
   -6.5983   -0.5187    4.0741 C   0  0  0  0  0  0  0  0  0  0  0  0
   -6.4411   -1.5230    3.1236 C   0  0  0  0  0  0  0  0  0  0  0  0
   -6.8270   -3.1499    3.5286 Cl  0  0  0  0  0  0  0  0  0  0  0  0
   -5.9543   -1.2232    1.8504 C   0  0  0  0  0  0  0  0  0  0  0  0
   -5.6049    0.0953    1.5239 C   0  0  0  0  0  0  0  0  0  0  0  0
    6.1785   -4.6485   -0.8006 H   0  0  0  0  0  0  0  0  0  0  0  0
    7.7105   -5.1464   -0.0689 H   0  0  0  0  0  0  0  0  0  0  0  0
    6.9476   -3.6429    0.4478 H   0  0  0  0  0  0  0  0  0  0  0  0
    8.1589   -4.2903   -2.2805 H   0  0  0  0  0  0  0  0  0  0  0  0
    8.8638   -3.1827   -1.1044 H   0  0  0  0  0  0  0  0  0  0  0  0
    6.0644   -2.6685   -2.2502 H   0  0  0  0  0  0  0  0  0  0  0  0
    7.4898   -2.3361   -3.2077 H   0  0  0  0  0  0  0  0  0  0  0  0
    6.8822   -0.2822   -2.2152 H   0  0  0  0  0  0  0  0  0  0  0  0
    8.3945   -0.8033   -1.5092 H   0  0  0  0  0  0  0  0  0  0  0  0
    7.2932   -1.4472    0.5738 H   0  0  0  0  0  0  0  0  0  0  0  0
    6.9328    0.2109    0.1578 H   0  0  0  0  0  0  0  0  0  0  0  0
    5.0378   -2.1682   -0.1858 H   0  0  0  0  0  0  0  0  0  0  0  0
    4.9893   -0.9459    1.0669 H   0  0  0  0  0  0  0  0  0  0  0  0
    4.5843   -0.4532   -1.9290 H   0  0  0  0  0  0  0  0  0  0  0  0
    4.5769    0.8216   -0.7137 H   0  0  0  0  0  0  0  0  0  0  0  0
    2.3179   -0.0616   -1.5104 H   0  0  0  0  0  0  0  0  0  0  0  0
    2.6608   -1.5800   -0.6772 H   0  0  0  0  0  0  0  0  0  0  0  0
    2.3512    1.2124    0.5501 H   0  0  0  0  0  0  0  0  0  0  0  0
    2.9941   -0.1275    1.4671 H   0  0  0  0  0  0  0  0  0  0  0  0
    0.6618    0.0649    2.0012 H   0  0  0  0  0  0  0  0  0  0  0  0
    1.0166   -1.4479    1.2140 H   0  0  0  0  0  0  0  0  0  0  0  0
    0.1685   -0.2500   -1.0224 H   0  0  0  0  0  0  0  0  0  0  0  0
   -0.9257   -0.9871    0.1593 H   0  0  0  0  0  0  0  0  0  0  0  0
   -2.1941    0.2816    1.6881 H   0  0  0  0  0  0  0  0  0  0  0  0
   -0.9950    1.4707    2.2420 H   0  0  0  0  0  0  0  0  0  0  0  0
   -2.4522    2.0438    1.3886 H   0  0  0  0  0  0  0  0  0  0  0  0
    0.5558    2.4097    0.8959 H   0  0  0  0  0  0  0  0  0  0  0  0
   -0.6979    3.2522   -0.0517 H   0  0  0  0  0  0  0  0  0  0  0  0
    0.5295    2.2503   -0.9048 H   0  0  0  0  0  0  0  0  0  0  0  0
   -2.5595    2.1794   -0.9186 H   0  0  0  0  0  0  0  0  0  0  0  0
   -1.3895    1.3721   -1.9691 H   0  0  0  0  0  0  0  0  0  0  0  0
   -3.5029    0.2345   -2.2273 H   0  0  0  0  0  0  0  0  0  0  0  0
   -2.3783   -0.8572   -1.5108 H   0  0  0  0  0  0  0  0  0  0  0  0
   -3.6310   -1.1192    0.4010 H   0  0  0  0  0  0  0  0  0  0  0  0
   -5.6376    0.8847   -2.4556 H   0  0  0  0  0  0  0  0  0  0  0  0
   -6.2547    3.0312   -3.5016 H   0  0  0  0  0  0  0  0  0  0  0  0
   -6.4868    5.0753   -2.1224 H   0  0  0  0  0  0  0  0  0  0  0  0
   -6.1358    4.9757    0.3170 H   0  0  0  0  0  0  0  0  0  0  0  0
   -6.4329    1.5807    4.4953 H   0  0  0  0  0  0  0  0  0  0  0  0
   -6.9729   -0.7574    5.0684 H   0  0  0  0  0  0  0  0  0  0  0  0
   -5.8572   -2.0202    1.1207 H   0  0  0  0  0  0  0  0  0  0  0  0
  1  2  1  0
  2  3  1  0
  3  4  1  0
  4  5  1  0
  5  6  1  0
  6  7  1  0
  7  8  1  0
  8  9  1  0
  9 10  1  0
 10 11  1  0
 11 12  1  0
 12 13  1  0
 12 14  1  0
 12 15  1  0
 15 16  1  0
 16 17  1  0
 17 18  2  3
 18 19  1  0
 19 20  2  0
 20 21  1  0
 21 22  2  0
 22 23  1  0
 23 24  2  0
 24 25  1  0
 25 26  1  0
 26 27  2  0
 27 28  1  0
 28 29  2  0
 29 30  1  0
 29 31  1  0
 31 32  2  0
 32 18  1  0
 24 19  1  0
 32 26  1  0
  1 33  1  0
  1 34  1  0
  1 35  1  0
  2 36  1  0
  2 37  1  0
  3 38  1  0
  3 39  1  0
  4 40  1  0
  4 41  1  0
  5 42  1  0
  5 43  1  0
  6 44  1  0
  6 45  1  0
  7 46  1  0
  7 47  1  0
  8 48  1  0
  8 49  1  0
  9 50  1  0
  9 51  1  0
 10 52  1  0
 10 53  1  0
 11 54  1  0
 11 55  1  0
 13 56  1  0
 13 57  1  0
 13 58  1  0
 14 59  1  0
 14 60  1  0
 14 61  1  0
 15 62  1  0
 15 63  1  0
 16 64  1  0
 16 65  1  0
 17 66  1  0
 20 67  1  0
 21 68  1  0
 22 69  1  0
 23 70  1  0
 27 71  1  0
 28 72  1  0
 31 73  1  0
M  CHG  1  12   1
M  END
$$$$
