
     RDKit          3D

 50 53  0  0  0  0  0  0  0  0999 V2000
   -7.5332    2.3680    1.0051 C   0  0  0  0  0  0  0  0  0  0  0  0
   -6.2045    1.6915    0.8296 C   0  0  0  0  0  0  0  0  0  0  0  0
   -5.9912    0.7864   -0.2147 C   0  0  0  0  0  0  0  0  0  0  0  0
   -4.7548    0.1505   -0.3637 C   0  0  0  0  0  0  0  0  0  0  0  0
   -3.7197    0.4043    0.5369 C   0  0  0  0  0  0  0  0  0  0  0  0
   -2.3207   -0.2924    0.3684 C   0  0  0  0  0  0  0  0  0  0  0  0
   -1.1985   -0.0952    1.1657 C   0  0  0  0  0  0  0  0  0  0  0  0
   -0.1456   -0.8614    0.6688 N   0  0  0  0  0  4  0  0  0  0  0  0
    1.2353   -0.9013    1.1707 C   0  0  0  0  0  0  0  0  0  0  0  0
    2.2273   -0.2777    0.1774 C   0  0  0  0  0  0  0  0  0  0  0  0
    1.8641    0.0390   -0.9533 O   0  0  0  0  0  0  0  0  0  0  0  0
    3.5137   -0.1786    0.6906 N   0  0  0  0  0  0  0  0  0  0  0  0
    4.6434    0.4098    0.0674 C   0  0  0  0  0  0  0  0  0  0  0  0
    4.5422    1.1614   -1.1104 C   0  0  0  0  0  0  0  0  0  0  0  0
    5.6681    1.7588   -1.6833 C   0  0  0  0  0  0  0  0  0  0  0  0
    6.9140    1.6121   -1.0873 C   0  0  0  0  0  0  0  0  0  0  0  0
    7.0356    0.8673    0.0840 C   0  0  0  0  0  0  0  0  0  0  0  0
    5.9122    0.2584    0.6737 C   0  0  0  0  0  0  0  0  0  0  0  0
    6.1249   -0.5269    1.9397 C   0  0  0  0  0  0  0  0  0  0  0  0
   -0.5900   -1.4828   -0.4210 C   0  0  0  0  0  0  0  0  0  0  0  0
   -1.8834   -1.2089   -0.5708 N   0  0  0  0  0  0  0  0  0  0  0  0
   -2.4502   -1.8890   -1.7264 C   0  0  0  0  0  0  0  0  0  0  0  0
   -1.3637   -2.9329   -2.0991 C   0  0  0  0  0  0  0  0  0  0  0  0
   -0.0657   -2.3996   -1.4618 C   0  0  0  0  0  0  0  0  0  0  0  0
   -3.9320    1.3017    1.5922 C   0  0  0  0  0  0  0  0  0  0  0  0
   -5.1680    1.9384    1.7360 C   0  0  0  0  0  0  0  0  0  0  0  0
   -8.0627    1.9369    1.8603 H   0  0  0  0  0  0  0  0  0  0  0  0
   -8.1625    2.2523    0.1157 H   0  0  0  0  0  0  0  0  0  0  0  0
   -7.3952    3.4412    1.1714 H   0  0  0  0  0  0  0  0  0  0  0  0
   -6.7882    0.5757   -0.9262 H   0  0  0  0  0  0  0  0  0  0  0  0
   -4.6392   -0.5276   -1.2002 H   0  0  0  0  0  0  0  0  0  0  0  0
   -1.0097    0.5199    2.0279 H   0  0  0  0  0  0  0  0  0  0  0  0
    1.2843   -0.3600    2.1205 H   0  0  0  0  0  0  0  0  0  0  0  0
    1.5055   -1.9488    1.3381 H   0  0  0  0  0  0  0  0  0  0  0  0
    3.6960   -0.5975    1.5940 H   0  0  0  0  0  0  0  0  0  0  0  0
    3.5946    1.3277   -1.6091 H   0  0  0  0  0  0  0  0  0  0  0  0
    5.5666    2.3484   -2.5931 H   0  0  0  0  0  0  0  0  0  0  0  0
    7.7905    2.0794   -1.5304 H   0  0  0  0  0  0  0  0  0  0  0  0
    8.0215    0.7658    0.5364 H   0  0  0  0  0  0  0  0  0  0  0  0
    7.1905   -0.6425    2.1692 H   0  0  0  0  0  0  0  0  0  0  0  0
    5.6518   -0.0174    2.7850 H   0  0  0  0  0  0  0  0  0  0  0  0
    5.7105   -1.5354    1.8380 H   0  0  0  0  0  0  0  0  0  0  0  0
   -3.3918   -2.3797   -1.4712 H   0  0  0  0  0  0  0  0  0  0  0  0
   -2.5924   -1.1616   -2.5298 H   0  0  0  0  0  0  0  0  0  0  0  0
   -1.6206   -3.8918   -1.6381 H   0  0  0  0  0  0  0  0  0  0  0  0
   -1.2792   -3.0886   -3.1766 H   0  0  0  0  0  0  0  0  0  0  0  0
    0.5400   -3.1726   -0.9882 H   0  0  0  0  0  0  0  0  0  0  0  0
    0.5113   -1.7941   -2.1621 H   0  0  0  0  0  0  0  0  0  0  0  0
   -3.1601    1.5322    2.3204 H   0  0  0  0  0  0  0  0  0  0  0  0
   -5.3209    2.6372    2.5592 H   0  0  0  0  0  0  0  0  0  0  0  0
  1  2  1  0
  2  3  2  0
  3  4  1  0
  4  5  2  0
  5  6  1  0
  6  7  2  0
  7  8  1  0
  8  9  1  0
  9 10  1  0
 10 11  2  0
 10 12  1  0
 12 13  1  0
 13 14  2  0
 14 15  1  0
 15 16  2  0
 16 17  1  0
 17 18  2  0
 18 19  1  0
  8 20  2  0
 20 21  1  0
 21 22  1  0
 22 23  1  0
 23 24  1  0
  5 25  1  0
 25 26  2  0
 26  2  1  0
 21  6  1  0
 18 13  1  0
 24 20  1  0
  1 27  1  0
  1 28  1  0
  1 29  1  0
  3 30  1  0
  4 31  1  0
  7 32  1  0
  9 33  1  0
  9 34  1  0
 12 35  1  0
 14 36  1  0
 15 37  1  0
 16 38  1  0
 17 39  1  0
 19 40  1  0
 19 41  1  0
 19 42  1  0
 22 43  1  0
 22 44  1  0
 23 45  1  0
 23 46  1  0
 24 47  1  0
 24 48  1  0
 25 49  1  0
 26 50  1  0
M  CHG  1   8   1
M  END
$$$$
