
     RDKit          3D

 44 45  0  0  0  0  0  0  0  0999 V2000
    5.7470   -0.8228   -1.8739 C   0  0  0  0  0  0  0  0  0  0  0  0
    4.8723   -0.6796   -0.6628 C   0  0  0  0  0  0  0  0  0  0  0  0
    4.9166    0.4868    0.1122 C   0  0  0  0  0  0  0  0  0  0  0  0
    4.1313    0.6196    1.2654 C   0  0  0  0  0  0  0  0  0  0  0  0
    3.2803   -0.4131    1.6632 C   0  0  0  0  0  0  0  0  0  0  0  0
    2.5303   -0.3643    2.8076 O   0  0  0  0  0  0  0  0  0  0  0  0
    1.9095    0.8802    3.1124 C   0  0  0  0  0  0  0  0  0  0  0  0
    0.8788    1.3818    2.0944 C   0  0  0  0  0  0  0  0  0  0  0  0
    0.7689    2.5796    1.8431 O   0  0  0  0  0  0  0  0  0  0  0  0
    0.1068    0.3667    1.5615 N   0  0  0  0  0  0  0  0  0  0  0  0
   -0.8898    0.5583    0.6270 C   0  0  0  0  0  0  0  0  0  0  0  0
   -1.4017    1.7262    0.0223 C   0  0  0  0  0  0  0  0  0  0  0  0
   -2.3820    1.4605   -0.8489 N   0  0  0  0  0  0  0  0  0  0  0  0
   -2.4969    0.1210   -0.7947 N   0  0  0  0  0  0  0  0  0  0  0  0
   -3.4799   -0.5524   -1.6219 C   0  0  0  0  0  0  0  0  0  0  0  0
   -4.8322   -0.7352   -0.9272 C   0  0  0  0  0  0  0  0  0  0  0  0
   -5.5874    0.5669   -0.6474 C   0  0  0  0  0  0  0  0  0  0  0  0
   -6.0158    1.2702   -1.9067 C   0  0  0  0  0  0  0  0  0  0  0  0
   -5.9776    0.8293   -3.0433 O   0  0  0  0  0  0  0  0  0  0  0  0
   -6.5185    2.4944   -1.6589 O   0  0  0  0  0  0  0  0  0  0  0  0
   -1.6199   -0.4656    0.0721 C   0  0  0  0  0  0  0  0  0  0  0  0
    3.2555   -1.5838    0.8928 C   0  0  0  0  0  0  0  0  0  0  0  0
    2.3614   -2.6745    1.2511 N   0  0  0  0  0  4  0  0  0  0  0  0
    2.8247   -3.8229    1.2197 O   0  0  0  0  0  0  0  0  0  0  0  0
    1.1841   -2.3860    1.5241 O   0  0  0  0  0  1  0  0  0  0  0  0
    4.0441   -1.7304   -0.2577 C   0  0  0  0  0  0  0  0  0  0  0  0
    5.9416    0.1518   -2.3336 H   0  0  0  0  0  0  0  0  0  0  0  0
    5.2635   -1.4484   -2.6311 H   0  0  0  0  0  0  0  0  0  0  0  0
    6.7016   -1.2785   -1.5940 H   0  0  0  0  0  0  0  0  0  0  0  0
    5.5762    1.3060   -0.1727 H   0  0  0  0  0  0  0  0  0  0  0  0
    4.2299    1.5344    1.8423 H   0  0  0  0  0  0  0  0  0  0  0  0
    2.6557    1.6586    3.3037 H   0  0  0  0  0  0  0  0  0  0  0  0
    1.3682    0.7404    4.0558 H   0  0  0  0  0  0  0  0  0  0  0  0
    0.3150   -0.5979    1.8186 H   0  0  0  0  0  0  0  0  0  0  0  0
   -1.1038    2.7558    0.1752 H   0  0  0  0  0  0  0  0  0  0  0  0
   -3.0625   -1.5355   -1.8713 H   0  0  0  0  0  0  0  0  0  0  0  0
   -3.5647    0.0058   -2.5601 H   0  0  0  0  0  0  0  0  0  0  0  0
   -5.4557   -1.3859   -1.5529 H   0  0  0  0  0  0  0  0  0  0  0  0
   -4.6836   -1.2612    0.0241 H   0  0  0  0  0  0  0  0  0  0  0  0
   -6.4960    0.3322   -0.0808 H   0  0  0  0  0  0  0  0  0  0  0  0
   -4.9788    1.2469   -0.0442 H   0  0  0  0  0  0  0  0  0  0  0  0
   -6.7316    2.8523   -2.5457 H   0  0  0  0  0  0  0  0  0  0  0  0
   -1.5933   -1.5365    0.2165 H   0  0  0  0  0  0  0  0  0  0  0  0
    4.0083   -2.6511   -0.8379 H   0  0  0  0  0  0  0  0  0  0  0  0
  1  2  1  0
  2  3  2  0
  3  4  1  0
  4  5  2  0
  5  6  1  0
  6  7  1  0
  7  8  1  0
  8  9  2  0
  8 10  1  0
 10 11  1  0
 11 12  1  0
 12 13  2  0
 13 14  1  0
 14 15  1  0
 15 16  1  0
 16 17  1  0
 17 18  1  0
 18 19  2  0
 18 20  1  0
 14 21  1  0
  5 22  1  0
 22 23  1  0
 23 24  2  0
 23 25  1  0
 22 26  2  0
 26  2  1  0
 21 11  2  0
  1 27  1  0
  1 28  1  0
  1 29  1  0
  3 30  1  0
  4 31  1  0
  7 32  1  0
  7 33  1  0
 10 34  1  0
 12 35  1  0
 15 36  1  0
 15 37  1  0
 16 38  1  0
 16 39  1  0
 17 40  1  0
 17 41  1  0
 20 42  1  0
 21 43  1  0
 26 44  1  0
M  CHG  2  23   1  25  -1
M  END
$$$$
