
     RDKit          3D

 49 52  0  0  0  0  0  0  0  0999 V2000
   -7.2120   -0.0795   -2.3938 C   0  0  0  0  0  0  0  0  0  0  0  0
   -6.2831    0.1657   -1.2404 C   0  0  0  0  0  0  0  0  0  0  0  0
   -5.0281    0.7517   -1.4561 C   0  0  0  0  0  0  0  0  0  0  0  0
   -4.1503    0.9544   -0.3908 C   0  0  0  0  0  0  0  0  0  0  0  0
   -4.5253    0.5526    0.8943 C   0  0  0  0  0  0  0  0  0  0  0  0
   -3.3997    0.8066    2.2362 S   0  0  0  0  0  6  0  0  0  0  0  0
   -3.9806    0.2894    3.4600 O   0  0  0  0  0  0  0  0  0  0  0  0
   -2.8917    2.1611    2.1424 O   0  0  0  0  0  0  0  0  0  0  0  0
   -2.0560   -0.2410    1.8968 C   0  0  0  0  0  0  0  0  0  0  0  0
   -0.8214    0.2726    1.4966 N   0  0  0  0  0  0  0  0  0  0  0  0
    0.0453   -0.6938    1.2930 C   0  0  0  0  0  0  0  0  0  0  0  0
    1.3302   -0.5728    0.9086 N   0  0  0  0  0  0  0  0  0  0  0  0
    2.1515    0.5754    0.7924 C   0  0  0  0  0  0  0  0  0  0  0  0
    1.7139    1.8765    1.0666 C   0  0  0  0  0  0  0  0  0  0  0  0
    2.5898    2.9573    0.9673 C   0  0  0  0  0  0  0  0  0  0  0  0
    3.9112    2.7498    0.5891 C   0  0  0  0  0  0  0  0  0  0  0  0
    4.3613    1.4620    0.2899 C   0  0  0  0  0  0  0  0  0  0  0  0
    3.4974    0.3613    0.3608 C   0  0  0  0  0  0  0  0  0  0  0  0
    3.8871   -0.9523    0.0214 N   0  0  0  0  0  0  0  0  0  0  0  0
    3.4532   -1.3687   -1.3366 C   0  0  0  0  0  0  0  0  0  0  0  0
    4.5408   -1.1031   -2.3846 C   0  0  0  0  0  0  0  0  0  0  0  0
    5.7649   -1.7632   -2.0286 O   0  0  0  0  0  0  0  0  0  0  0  0
    6.2606   -1.2448   -0.7863 C   0  0  0  0  0  0  0  0  0  0  0  0
    5.2510   -1.4116    0.3628 C   0  0  0  0  0  0  0  0  0  0  0  0
   -0.6017   -2.2824    1.5273 S   0  0  0  0  0  0  0  0  0  0  0  0
   -2.1050   -1.6112    1.9399 C   0  0  0  0  0  0  0  0  0  0  0  0
   -3.4046   -2.6683    2.3091 Cl  0  0  0  0  0  0  0  0  0  0  0  0
   -5.7713   -0.0330    1.1257 C   0  0  0  0  0  0  0  0  0  0  0  0
   -6.6430   -0.2335    0.0544 C   0  0  0  0  0  0  0  0  0  0  0  0
   -7.0091   -1.0604   -2.8349 H   0  0  0  0  0  0  0  0  0  0  0  0
   -8.2570   -0.0467   -2.0680 H   0  0  0  0  0  0  0  0  0  0  0  0
   -7.0883    0.6885   -3.1646 H   0  0  0  0  0  0  0  0  0  0  0  0
   -4.7315    1.0604   -2.4569 H   0  0  0  0  0  0  0  0  0  0  0  0
   -3.1864    1.4283   -0.5691 H   0  0  0  0  0  0  0  0  0  0  0  0
    1.9078   -1.4081    0.8304 H   0  0  0  0  0  0  0  0  0  0  0  0
    0.6940    2.0744    1.3818 H   0  0  0  0  0  0  0  0  0  0  0  0
    2.2365    3.9596    1.1960 H   0  0  0  0  0  0  0  0  0  0  0  0
    4.5935    3.5933    0.5200 H   0  0  0  0  0  0  0  0  0  0  0  0
    5.3934    1.3510   -0.0166 H   0  0  0  0  0  0  0  0  0  0  0  0
    3.2609   -2.4478   -1.2942 H   0  0  0  0  0  0  0  0  0  0  0  0
    2.5158   -0.8880   -1.6403 H   0  0  0  0  0  0  0  0  0  0  0  0
    4.7297   -0.0305   -2.5091 H   0  0  0  0  0  0  0  0  0  0  0  0
    4.2235   -1.5001   -3.3540 H   0  0  0  0  0  0  0  0  0  0  0  0
    6.5466   -0.1999   -0.9366 H   0  0  0  0  0  0  0  0  0  0  0  0
    7.1777   -1.7924   -0.5449 H   0  0  0  0  0  0  0  0  0  0  0  0
    5.6204   -0.9356    1.2787 H   0  0  0  0  0  0  0  0  0  0  0  0
    5.1686   -2.4834    0.5830 H   0  0  0  0  0  0  0  0  0  0  0  0
   -6.0711   -0.3395    2.1258 H   0  0  0  0  0  0  0  0  0  0  0  0
   -7.6096   -0.7001    0.2356 H   0  0  0  0  0  0  0  0  0  0  0  0
  1  2  1  0
  2  3  2  0
  3  4  1  0
  4  5  2  0
  5  6  1  0
  6  7  2  0
  6  8  2  0
  6  9  1  0
  9 10  1  0
 10 11  2  0
 11 12  1  0
 12 13  1  0
 13 14  2  0
 14 15  1  0
 15 16  2  0
 16 17  1  0
 17 18  2  0
 18 19  1  0
 19 20  1  0
 20 21  1  0
 21 22  1  0
 22 23  1  0
 23 24  1  0
 11 25  1  0
 25 26  1  0
 26 27  1  0
  5 28  1  0
 28 29  2  0
 29  2  1  0
 26  9  2  0
 18 13  1  0
 24 19  1  0
  1 30  1  0
  1 31  1  0
  1 32  1  0
  3 33  1  0
  4 34  1  0
 12 35  1  0
 14 36  1  0
 15 37  1  0
 16 38  1  0
 17 39  1  0
 20 40  1  0
 20 41  1  0
 21 42  1  0
 21 43  1  0
 23 44  1  0
 23 45  1  0
 24 46  1  0
 24 47  1  0
 28 48  1  0
 29 49  1  0
M  END
$$$$
