
     RDKit          3D

 33 34  0  0  0  0  0  0  0  0999 V2000
    0.9540   -0.6956   -3.9601 C   0  0  0  0  0  0  0  0  0  0  0  0
    1.7906   -0.7202   -2.6933 C   0  0  0  0  0  0  0  0  0  0  0  0
    1.1129   -1.4749   -1.5570 C   0  0  0  0  0  0  0  0  0  0  0  0
   -0.0000   -1.9866   -1.6952 O   0  0  0  0  0  0  0  0  0  0  0  0
    1.8674   -1.5167   -0.2429 C   0  0  0  0  0  0  0  0  0  0  0  0
    1.6221   -2.7500    0.5109 C   0  0  0  0  0  0  0  0  0  0  0  0
    1.4383   -3.7184    1.1257 N   0  0  0  0  0  0  0  0  0  0  0  0
    1.5296   -0.2921    0.5394 C   0  0  0  0  0  0  0  0  0  0  0  0
    2.3845    0.6883    0.7505 N   0  0  0  0  0  0  0  0  0  0  0  0
    1.7553    1.6638    1.4665 N   0  0  0  0  0  0  0  0  0  0  0  0
    0.5139    1.2864    1.6901 C   0  0  0  0  0  0  0  0  0  0  0  0
    0.3240    0.0496    1.1160 N   0  0  0  0  0  0  0  0  0  0  0  0
   -0.9123   -0.6979    1.1521 C   0  0  0  0  0  0  0  0  0  0  0  0
   -2.0536   -0.0239    0.3933 C   0  0  0  0  0  0  0  0  0  0  0  0
   -2.3409    1.4314    0.7799 C   0  0  0  0  0  0  0  0  0  0  0  0
   -1.9717    1.7719    2.2211 C   0  0  0  0  0  0  0  0  0  0  0  0
   -0.4939    2.1093    2.4230 C   0  0  0  0  0  0  0  0  0  0  0  0
    1.4756   -0.1474   -4.7506 H   0  0  0  0  0  0  0  0  0  0  0  0
   -0.0105   -0.2077   -3.7845 H   0  0  0  0  0  0  0  0  0  0  0  0
    0.7561   -1.7104   -4.3207 H   0  0  0  0  0  0  0  0  0  0  0  0
    2.7504   -1.2049   -2.9004 H   0  0  0  0  0  0  0  0  0  0  0  0
    1.9793    0.3067   -2.3638 H   0  0  0  0  0  0  0  0  0  0  0  0
    2.9383   -1.4964   -0.4849 H   0  0  0  0  0  0  0  0  0  0  0  0
   -0.7532   -1.6944    0.7393 H   0  0  0  0  0  0  0  0  0  0  0  0
   -1.1643   -0.8503    2.2077 H   0  0  0  0  0  0  0  0  0  0  0  0
   -2.9617   -0.6167    0.5615 H   0  0  0  0  0  0  0  0  0  0  0  0
   -1.8610   -0.0636   -0.6860 H   0  0  0  0  0  0  0  0  0  0  0  0
   -1.8180    2.1081    0.0924 H   0  0  0  0  0  0  0  0  0  0  0  0
   -3.4112    1.6179    0.6271 H   0  0  0  0  0  0  0  0  0  0  0  0
   -2.2765    0.9623    2.8947 H   0  0  0  0  0  0  0  0  0  0  0  0
   -2.5559    2.6462    2.5363 H   0  0  0  0  0  0  0  0  0  0  0  0
   -0.2650    2.0732    3.4950 H   0  0  0  0  0  0  0  0  0  0  0  0
   -0.3425    3.1531    2.1165 H   0  0  0  0  0  0  0  0  0  0  0  0
  1  2  1  0
  2  3  1  0
  3  4  2  0
  3  5  1  0
  5  6  1  0
  6  7  3  0
  5  8  1  0
  8  9  2  0
  9 10  1  0
 10 11  2  0
 11 12  1  0
 12 13  1  0
 13 14  1  0
 14 15  1  0
 15 16  1  0
 16 17  1  0
 12  8  1  0
 17 11  1  0
  1 18  1  0
  1 19  1  0
  1 20  1  0
  2 21  1  0
  2 22  1  0
  5 23  1  0
 13 24  1  0
 13 25  1  0
 14 26  1  0
 14 27  1  0
 15 28  1  0
 15 29  1  0
 16 30  1  0
 16 31  1  0
 17 32  1  0
 17 33  1  0
M  END
$$$$
