
     RDKit          3D

 48 50  0  0  0  0  0  0  0  0999 V2000
   -6.6881    2.8355    0.1836 C   0  0  0  0  0  0  0  0  0  0  0  0
   -6.2601    2.3811    1.5662 C   0  0  0  0  0  0  0  0  0  0  0  0
   -5.4109    1.2260    1.4667 O   0  0  0  0  0  0  0  0  0  0  0  0
   -4.0902    1.4789    1.2811 C   0  0  0  0  0  0  0  0  0  0  0  0
   -3.5750    2.5795    1.2015 O   0  0  0  0  0  0  0  0  0  0  0  0
   -3.3638    0.2055    1.1820 C   0  0  0  0  0  0  0  0  0  0  0  0
   -3.8024   -0.9408    1.8067 C   0  0  0  0  0  0  0  0  0  0  0  0
   -3.1508   -2.1243    1.7546 N   0  0  0  0  0  0  0  0  0  0  0  0
   -2.0142   -2.1533    1.0397 C   0  0  0  0  0  0  0  0  0  0  0  0
   -1.1181   -3.6771    0.8922 S   0  0  0  0  0  0  0  0  0  0  0  0
   -1.8699   -4.6232    2.2379 C   0  0  0  0  0  0  0  0  0  0  0  0
   -1.5049   -1.1002    0.3877 N   0  0  0  0  0  0  0  0  0  0  0  0
   -2.1789    0.0701    0.4923 C   0  0  0  0  0  0  0  0  0  0  0  0
   -1.7002    1.1449   -0.2424 O   0  0  0  0  0  0  0  0  0  0  0  0
   -0.3759    1.4484   -0.0305 C   0  0  0  0  0  0  0  0  0  0  0  0
   -0.0688    2.5365    0.7819 C   0  0  0  0  0  0  0  0  0  0  0  0
    1.2642    2.8906    0.9737 C   0  0  0  0  0  0  0  0  0  0  0  0
    2.2835    2.1643    0.3467 C   0  0  0  0  0  0  0  0  0  0  0  0
    1.9789    1.0822   -0.4831 C   0  0  0  0  0  0  0  0  0  0  0  0
    2.9462    0.3036   -1.1538 N   0  0  0  0  0  0  0  0  0  0  0  0
    4.3214    0.4093   -1.0597 C   0  0  0  0  0  0  0  0  0  0  0  0
    4.9560    1.1618   -0.3306 O   0  0  0  0  0  0  0  0  0  0  0  0
    5.0838   -0.5355   -1.9263 C   0  0  0  0  0  0  0  0  0  0  0  0
    6.2998   -1.0453   -1.4503 C   0  0  0  0  0  0  0  0  0  0  0  0
    7.0467   -1.9293   -2.2333 C   0  0  0  0  0  0  0  0  0  0  0  0
    6.5833   -2.2947   -3.4960 C   0  0  0  0  0  0  0  0  0  0  0  0
    7.5022   -3.3813   -4.4622 Cl  0  0  0  0  0  0  0  0  0  0  0  0
    5.3837   -1.7783   -3.9864 C   0  0  0  0  0  0  0  0  0  0  0  0
    4.6334   -0.8940   -3.2049 C   0  0  0  0  0  0  0  0  0  0  0  0
    0.6362    0.7393   -0.6819 C   0  0  0  0  0  0  0  0  0  0  0  0
   -7.1753    2.0170   -0.3565 H   0  0  0  0  0  0  0  0  0  0  0  0
   -7.3826    3.6776    0.2501 H   0  0  0  0  0  0  0  0  0  0  0  0
   -5.8240    3.1416   -0.4146 H   0  0  0  0  0  0  0  0  0  0  0  0
   -7.1399    2.0814    2.1447 H   0  0  0  0  0  0  0  0  0  0  0  0
   -5.7688    3.1888    2.1207 H   0  0  0  0  0  0  0  0  0  0  0  0
   -4.7158   -0.9581    2.3964 H   0  0  0  0  0  0  0  0  0  0  0  0
   -1.3680   -5.5918    2.3139 H   0  0  0  0  0  0  0  0  0  0  0  0
   -2.9307   -4.8038    2.0424 H   0  0  0  0  0  0  0  0  0  0  0  0
   -1.7538   -4.1016    3.1921 H   0  0  0  0  0  0  0  0  0  0  0  0
   -0.8609    3.1096    1.2569 H   0  0  0  0  0  0  0  0  0  0  0  0
    1.5171    3.7366    1.6077 H   0  0  0  0  0  0  0  0  0  0  0  0
    3.3087    2.4757    0.5225 H   0  0  0  0  0  0  0  0  0  0  0  0
    2.5778   -0.4648   -1.6989 H   0  0  0  0  0  0  0  0  0  0  0  0
    6.6663   -0.7541   -0.4671 H   0  0  0  0  0  0  0  0  0  0  0  0
    7.9865   -2.3226   -1.8540 H   0  0  0  0  0  0  0  0  0  0  0  0
    5.0341   -2.0516   -4.9790 H   0  0  0  0  0  0  0  0  0  0  0  0
    3.7213   -0.4722   -3.6190 H   0  0  0  0  0  0  0  0  0  0  0  0
    0.3611   -0.0880   -1.3300 H   0  0  0  0  0  0  0  0  0  0  0  0
  1  2  1  0
  2  3  1  0
  3  4  1  0
  4  5  2  0
  4  6  1  0
  6  7  2  0
  7  8  1  0
  8  9  2  0
  9 10  1  0
 10 11  1  0
  9 12  1  0
 12 13  2  0
 13 14  1  0
 14 15  1  0
 15 16  2  0
 16 17  1  0
 17 18  2  0
 18 19  1  0
 19 20  1  0
 20 21  1  0
 21 22  2  0
 21 23  1  0
 23 24  2  0
 24 25  1  0
 25 26  2  0
 26 27  1  0
 26 28  1  0
 28 29  2  0
 19 30  2  0
 13  6  1  0
 30 15  1  0
 29 23  1  0
  1 31  1  0
  1 32  1  0
  1 33  1  0
  2 34  1  0
  2 35  1  0
  7 36  1  0
 11 37  1  0
 11 38  1  0
 11 39  1  0
 16 40  1  0
 17 41  1  0
 18 42  1  0
 20 43  1  0
 24 44  1  0
 25 45  1  0
 28 46  1  0
 29 47  1  0
 30 48  1  0
M  END
$$$$
