
     RDKit          3D

 32 32  0  0  0  0  0  0  0  0999 V2000
    5.1177   -1.7891    0.1352 C   0  0  0  0  0  0  0  0  0  0  0  0
    5.4375   -0.3087    0.2562 C   0  0  0  0  0  0  0  0  0  0  0  0
    4.5435    0.6754   -0.9824 S   0  0  0  0  0  0  0  0  0  0  0  0
    2.9345    0.7257   -0.3014 C   0  0  0  0  0  0  0  0  0  0  0  0
    2.6602    0.3545    0.9294 N   0  0  0  0  0  0  0  0  0  0  0  0
    1.3206    0.4955    1.2276 N   0  0  0  0  0  0  0  0  0  0  0  0
    0.6206    0.9268    0.2040 C   0  0  0  0  0  0  0  0  0  0  0  0
   -0.7142    1.1883    0.2749 N   0  0  0  0  0  0  0  0  0  0  0  0
   -1.6827    0.1010   -0.1598 C   0  0  0  0  0  0  0  0  0  0  0  0
   -2.8791    0.9745   -0.1572 N   0  0  0  0  0  0  0  0  0  0  0  0
   -4.1483    0.5195   -0.3765 C   0  0  0  0  0  0  0  0  0  0  0  0
   -5.1881    1.5989   -0.5071 C   0  0  0  0  0  0  0  0  0  0  0  0
   -4.4218   -0.6676   -0.4628 O   0  0  0  0  0  0  0  0  0  0  0  0
   -1.3947   -0.5550   -1.5401 C   0  0  0  0  0  0  0  0  0  0  0  0
   -0.2152   -1.2175   -1.5664 F   0  0  0  0  0  0  0  0  0  0  0  0
   -1.3262    0.4005   -2.5082 F   0  0  0  0  0  0  0  0  0  0  0  0
   -2.3396   -1.4296   -1.9392 F   0  0  0  0  0  0  0  0  0  0  0  0
   -1.7082   -1.1030    0.8346 C   0  0  0  0  0  0  0  0  0  0  0  0
   -0.4943   -1.6967    0.9315 F   0  0  0  0  0  0  0  0  0  0  0  0
   -2.0122   -0.6536    2.0841 F   0  0  0  0  0  0  0  0  0  0  0  0
   -2.5841   -2.0773    0.5349 F   0  0  0  0  0  0  0  0  0  0  0  0
    1.5771    1.2908   -1.1800 S   0  0  0  0  0  0  0  0  0  0  0  0
    4.0611   -1.9985    0.3298 H   0  0  0  0  0  0  0  0  0  0  0  0
    5.3701   -2.1731   -0.8591 H   0  0  0  0  0  0  0  0  0  0  0  0
    5.7046   -2.3556    0.8659 H   0  0  0  0  0  0  0  0  0  0  0  0
    6.5083   -0.1608    0.0808 H   0  0  0  0  0  0  0  0  0  0  0  0
    5.2270    0.0567    1.2664 H   0  0  0  0  0  0  0  0  0  0  0  0
   -0.9465    1.3505    1.2593 H   0  0  0  0  0  0  0  0  0  0  0  0
   -2.6766    1.9424   -0.3689 H   0  0  0  0  0  0  0  0  0  0  0  0
   -4.8000    2.5721   -0.1936 H   0  0  0  0  0  0  0  0  0  0  0  0
   -5.5082    1.6627   -1.5503 H   0  0  0  0  0  0  0  0  0  0  0  0
   -6.0429    1.3505    0.1280 H   0  0  0  0  0  0  0  0  0  0  0  0
  1  2  1  0
  2  3  1  0
  3  4  1  0
  4  5  2  0
  5  6  1  0
  6  7  2  0
  7  8  1  0
  8  9  1  0
  9 10  1  0
 10 11  1  0
 11 12  1  0
 11 13  2  0
  9 14  1  0
 14 15  1  0
 14 16  1  0
 14 17  1  0
  9 18  1  0
 18 19  1  0
 18 20  1  0
 18 21  1  0
  7 22  1  0
 22  4  1  0
  1 23  1  0
  1 24  1  0
  1 25  1  0
  2 26  1  0
  2 27  1  0
  8 28  1  0
 10 29  1  0
 12 30  1  0
 12 31  1  0
 12 32  1  0
M  END
$$$$
