
     RDKit          3D

 61 64  0  0  0  0  0  0  0  0999 V2000
    5.2898   -3.6640    6.1842 C   0  0  0  0  0  0  0  0  0  0  0  0
    4.7809   -3.4127    4.7864 C   0  0  0  0  0  0  0  0  0  0  0  0
    4.3392   -4.3387    4.1119 O   0  0  0  0  0  0  0  0  0  0  0  0
    4.8499   -2.0797    4.4222 N   0  0  0  0  0  0  0  0  0  0  0  0
    4.5514   -1.5223    3.1624 C   0  0  0  0  0  0  0  0  0  0  0  0
    4.6681   -0.1313    3.0382 C   0  0  0  0  0  0  0  0  0  0  0  0
    4.4126    0.5013    1.8173 C   0  0  0  0  0  0  0  0  0  0  0  0
    4.0328   -0.2602    0.7115 C   0  0  0  0  0  0  0  0  0  0  0  0
    3.7835    0.5209   -0.8698 S   0  0  0  0  0  6  0  0  0  0  0  0
    4.1902   -0.4269   -1.8884 O   0  0  0  0  0  0  0  0  0  0  0  0
    4.3679    1.8486   -0.8064 O   0  0  0  0  0  0  0  0  0  0  0  0
    2.1147    0.7022   -0.9577 N   0  0  0  0  0  0  0  0  0  0  0  0
    1.2718   -0.4854   -1.2413 C   0  0  0  0  0  0  0  0  0  0  0  0
   -0.0931   -0.0137   -1.7726 C   0  0  0  0  0  0  0  0  0  0  0  0
   -0.7909    0.9197   -0.8493 N   0  0  0  0  0  0  0  0  0  0  0  0
   -2.0495    0.5223   -0.5211 C   0  0  0  0  0  0  0  0  0  0  0  0
   -2.3988   -0.3848    0.3628 N   0  0  0  0  0  0  0  0  0  0  0  0
   -3.7709   -0.4362    0.3143 C   0  0  0  0  0  0  0  0  0  0  0  0
   -4.6586   -1.2403    1.0466 C   0  0  0  0  0  0  0  0  0  0  0  0
   -6.0341   -1.1038    0.8253 C   0  0  0  0  0  0  0  0  0  0  0  0
   -6.5189   -0.1849   -0.1081 C   0  0  0  0  0  0  0  0  0  0  0  0
   -5.6504    0.6270   -0.8461 C   0  0  0  0  0  0  0  0  0  0  0  0
   -4.2764    0.4727   -0.6133 C   0  0  0  0  0  0  0  0  0  0  0  0
   -3.1527    1.0754   -1.1364 N   0  0  0  0  0  0  0  0  0  0  0  0
   -3.1339    2.1807   -2.0777 C   0  0  0  0  0  0  0  0  0  0  0  0
   -2.9236    1.7684   -3.5443 C   0  0  0  0  0  0  0  0  0  0  0  0
   -2.6339    3.0144   -4.3939 C   0  0  0  0  0  0  0  0  0  0  0  0
   -4.1334    1.0297   -4.1200 C   0  0  0  0  0  0  0  0  0  0  0  0
    0.0302    1.3324    0.3125 C   0  0  0  0  0  0  0  0  0  0  0  0
    1.4577    1.7343   -0.1128 C   0  0  0  0  0  0  0  0  0  0  0  0
    3.9351   -1.6470    0.8146 C   0  0  0  0  0  0  0  0  0  0  0  0
    4.1839   -2.2721    2.0416 C   0  0  0  0  0  0  0  0  0  0  0  0
    5.9223   -4.5566    6.1791 H   0  0  0  0  0  0  0  0  0  0  0  0
    5.8886   -2.8286    6.5591 H   0  0  0  0  0  0  0  0  0  0  0  0
    4.4367   -3.8227    6.8503 H   0  0  0  0  0  0  0  0  0  0  0  0
    5.1607   -1.4260    5.1296 H   0  0  0  0  0  0  0  0  0  0  0  0
    4.9729    0.4775    3.8863 H   0  0  0  0  0  0  0  0  0  0  0  0
    4.5280    1.5781    1.7335 H   0  0  0  0  0  0  0  0  0  0  0  0
    1.7372   -1.1170   -2.0067 H   0  0  0  0  0  0  0  0  0  0  0  0
    1.1487   -1.0848   -0.3315 H   0  0  0  0  0  0  0  0  0  0  0  0
    0.0689    0.5304   -2.7074 H   0  0  0  0  0  0  0  0  0  0  0  0
   -0.7068   -0.8885   -2.0154 H   0  0  0  0  0  0  0  0  0  0  0  0
   -4.2766   -1.9513    1.7720 H   0  0  0  0  0  0  0  0  0  0  0  0
   -6.7285   -1.7215    1.3881 H   0  0  0  0  0  0  0  0  0  0  0  0
   -7.5918   -0.0952   -0.2662 H   0  0  0  0  0  0  0  0  0  0  0  0
   -6.0324    1.3384   -1.5698 H   0  0  0  0  0  0  0  0  0  0  0  0
   -4.0706    2.7379   -1.9600 H   0  0  0  0  0  0  0  0  0  0  0  0
   -2.3364    2.8614   -1.7540 H   0  0  0  0  0  0  0  0  0  0  0  0
   -2.0556    1.1003   -3.6174 H   0  0  0  0  0  0  0  0  0  0  0  0
   -2.4547    2.7431   -5.4423 H   0  0  0  0  0  0  0  0  0  0  0  0
   -3.4763    3.7189   -4.3645 H   0  0  0  0  0  0  0  0  0  0  0  0
   -1.7388    3.5355   -4.0322 H   0  0  0  0  0  0  0  0  0  0  0  0
   -3.9735    0.7969   -5.1765 H   0  0  0  0  0  0  0  0  0  0  0  0
   -4.3116    0.0822   -3.6007 H   0  0  0  0  0  0  0  0  0  0  0  0
   -5.0420    1.6379   -4.0436 H   0  0  0  0  0  0  0  0  0  0  0  0
   -0.4410    2.1939    0.8059 H   0  0  0  0  0  0  0  0  0  0  0  0
    0.0873    0.5244    1.0561 H   0  0  0  0  0  0  0  0  0  0  0  0
    1.4125    2.6558   -0.6999 H   0  0  0  0  0  0  0  0  0  0  0  0
    2.0423    1.9387    0.7885 H   0  0  0  0  0  0  0  0  0  0  0  0
    3.6869   -2.2529   -0.0544 H   0  0  0  0  0  0  0  0  0  0  0  0
    4.1027   -3.3524    2.0817 H   0  0  0  0  0  0  0  0  0  0  0  0
  1  2  1  0
  2  3  2  0
  2  4  1  0
  4  5  1  0
  5  6  2  0
  6  7  1  0
  7  8  2  0
  8  9  1  0
  9 10  2  0
  9 11  2  0
  9 12  1  0
 12 13  1  0
 13 14  1  0
 14 15  1  0
 15 16  1  0
 16 17  2  0
 17 18  1  0
 18 19  2  0
 19 20  1  0
 20 21  2  0
 21 22  1  0
 22 23  2  0
 23 24  1  0
 24 25  1  0
 25 26  1  0
 26 27  1  0
 26 28  1  0
 15 29  1  0
 29 30  1  0
  8 31  1  0
 31 32  2  0
 32  5  1  0
 30 12  1  0
 24 16  1  0
 23 18  1  0
  1 33  1  0
  1 34  1  0
  1 35  1  0
  4 36  1  0
  6 37  1  0
  7 38  1  0
 13 39  1  0
 13 40  1  0
 14 41  1  0
 14 42  1  0
 19 43  1  0
 20 44  1  0
 21 45  1  0
 22 46  1  0
 25 47  1  0
 25 48  1  0
 26 49  1  0
 27 50  1  0
 27 51  1  0
 27 52  1  0
 28 53  1  0
 28 54  1  0
 28 55  1  0
 29 56  1  0
 29 57  1  0
 30 58  1  0
 30 59  1  0
 31 60  1  0
 32 61  1  0
M  END
$$$$
