
     RDKit          3D

 46 48  0  0  0  0  0  0  0  0999 V2000
    7.0787    2.8669   -0.0858 C   0  0  0  0  0  0  0  0  0  0  0  0
    5.7247    2.4819    0.4263 C   0  0  0  0  0  0  0  0  0  0  0  0
    4.9549    3.2463    0.9906 O   0  0  0  0  0  0  0  0  0  0  0  0
    5.4826    1.1686    0.1614 O   0  0  0  0  0  0  0  0  0  0  0  0
    4.2231    0.6615    0.6346 C   0  0  0  0  0  0  0  0  0  0  0  0
    3.1235    0.9527   -0.3835 C   0  0  0  0  0  0  0  0  0  0  0  0
    1.7515    0.4910    0.1009 C   0  0  0  0  0  0  0  0  0  0  0  0
    1.7037   -0.9698    0.1718 N   0  0  0  0  0  0  0  0  0  0  0  0
    0.5159   -1.6387    0.5327 C   0  0  0  0  0  0  0  0  0  0  0  0
   -0.5223   -0.9669    1.2446 C   0  0  0  0  0  0  0  0  0  0  0  0
   -1.7203   -1.5783    1.6947 C   0  0  0  0  0  0  0  0  0  0  0  0
   -2.9921   -0.7034    2.5487 S   0  0  0  0  0  0  0  0  0  0  0  0
   -3.7763    0.1261    1.1794 C   0  0  0  0  0  0  0  0  0  0  0  0
   -3.5749    1.4952    0.9859 C   0  0  0  0  0  0  0  0  0  0  0  0
   -4.1806    2.1513   -0.0894 C   0  0  0  0  0  0  0  0  0  0  0  0
   -5.0081    1.4494   -0.9741 C   0  0  0  0  0  0  0  0  0  0  0  0
   -5.6370    2.1463   -2.1448 C   0  0  0  0  0  0  0  0  0  0  0  0
   -5.2038    0.0770   -0.7795 C   0  0  0  0  0  0  0  0  0  0  0  0
   -4.5984   -0.5792    0.2956 C   0  0  0  0  0  0  0  0  0  0  0  0
   -1.8424   -2.9591    1.4229 C   0  0  0  0  0  0  0  0  0  0  0  0
   -2.8370   -3.8166    1.6919 N   0  0  0  0  0  0  0  0  0  0  0  0
   -2.4335   -5.0418    1.2013 O   0  0  0  0  0  0  0  0  0  0  0  0
   -1.1902   -4.9669    0.6061 N   0  0  0  0  0  0  0  0  0  0  0  0
   -0.7876   -3.6949    0.7360 C   0  0  0  0  0  0  0  0  0  0  0  0
    0.3866   -3.0378    0.3234 C   0  0  0  0  0  0  0  0  0  0  0  0
    1.4007   -3.8196   -0.3269 N   0  0  0  0  0  4  0  0  0  0  0  0
    1.8276   -3.3896   -1.4099 O   0  0  0  0  0  0  0  0  0  0  0  0
    1.8072   -4.8364    0.2491 O   0  0  0  0  0  1  0  0  0  0  0  0
    7.1192    2.7277   -1.1694 H   0  0  0  0  0  0  0  0  0  0  0  0
    7.8468    2.2678    0.4095 H   0  0  0  0  0  0  0  0  0  0  0  0
    7.2632    3.9219    0.1372 H   0  0  0  0  0  0  0  0  0  0  0  0
    4.3492   -0.4191    0.7622 H   0  0  0  0  0  0  0  0  0  0  0  0
    3.9862    1.0742    1.6229 H   0  0  0  0  0  0  0  0  0  0  0  0
    3.3788    0.4805   -1.3404 H   0  0  0  0  0  0  0  0  0  0  0  0
    3.0847    2.0298   -0.5843 H   0  0  0  0  0  0  0  0  0  0  0  0
    1.5555    0.9359    1.0829 H   0  0  0  0  0  0  0  0  0  0  0  0
    0.9897    0.8493   -0.6018 H   0  0  0  0  0  0  0  0  0  0  0  0
    2.1401   -1.4021   -0.6523 H   0  0  0  0  0  0  0  0  0  0  0  0
   -0.4146    0.0943    1.4675 H   0  0  0  0  0  0  0  0  0  0  0  0
   -2.9485    2.0638    1.6686 H   0  0  0  0  0  0  0  0  0  0  0  0
   -4.0079    3.2166   -0.2274 H   0  0  0  0  0  0  0  0  0  0  0  0
   -5.8074    3.2054   -1.9245 H   0  0  0  0  0  0  0  0  0  0  0  0
   -6.6099    1.7039   -2.3845 H   0  0  0  0  0  0  0  0  0  0  0  0
   -4.9858    2.0680   -3.0211 H   0  0  0  0  0  0  0  0  0  0  0  0
   -5.8360   -0.4902   -1.4599 H   0  0  0  0  0  0  0  0  0  0  0  0
   -4.7797   -1.6427    0.4367 H   0  0  0  0  0  0  0  0  0  0  0  0
  1  2  1  0
  2  3  2  0
  2  4  1  0
  4  5  1  0
  5  6  1  0
  6  7  1  0
  7  8  1  0
  8  9  1  0
  9 10  1  0
 10 11  2  0
 11 12  1  0
 12 13  1  0
 13 14  2  0
 14 15  1  0
 15 16  2  0
 16 17  1  0
 16 18  1  0
 18 19  2  0
 11 20  1  0
 20 21  2  0
 21 22  1  0
 22 23  1  0
 23 24  2  0
 24 25  1  0
 25 26  1  0
 26 27  2  0
 26 28  1  0
 25  9  2  0
 19 13  1  0
 24 20  1  0
  1 29  1  0
  1 30  1  0
  1 31  1  0
  5 32  1  0
  5 33  1  0
  6 34  1  0
  6 35  1  0
  7 36  1  0
  7 37  1  0
  8 38  1  0
 10 39  1  0
 14 40  1  0
 15 41  1  0
 17 42  1  0
 17 43  1  0
 17 44  1  0
 18 45  1  0
 19 46  1  0
M  CHG  2  26   1  28  -1
M  END
$$$$
