
     RDKit          3D

 50 52  0  0  0  0  0  0  0  0999 V2000
    1.8082   -0.5522   -0.2317 O   0  0  0  0  0  0  0  0  0  0  0  0
    2.6693   -1.0645    0.4720 C   0  0  0  0  0  0  0  0  0  0  0  0
    4.1661   -0.9157    0.3195 C   0  0  0  0  0  0  0  0  0  0  0  0
    4.5807    0.0024   -0.8053 C   0  0  0  0  0  0  0  0  0  0  0  0
    4.6419    1.3913   -0.5994 C   0  0  0  0  0  0  0  0  0  0  0  0
    5.0194    2.2421   -1.6405 C   0  0  0  0  0  0  0  0  0  0  0  0
    5.3325    1.7056   -2.8829 C   0  0  0  0  0  0  0  0  0  0  0  0
    5.7025    2.5218   -3.8770 F   0  0  0  0  0  0  0  0  0  0  0  0
    5.2663    0.3352   -3.1099 C   0  0  0  0  0  0  0  0  0  0  0  0
    4.8870   -0.5186   -2.0735 C   0  0  0  0  0  0  0  0  0  0  0  0
    2.4040   -1.8845    1.5344 O   0  0  0  0  0  0  0  0  0  0  0  0
    1.0137   -1.9590    1.8563 C   0  0  0  0  0  0  0  0  0  0  0  0
    0.4964   -0.6594    2.4948 C   0  0  0  0  0  0  0  0  0  0  0  0
    1.2778    0.1367    3.0205 O   0  0  0  0  0  0  0  0  0  0  0  0
   -0.8728   -0.4348    2.4669 N   0  0  0  0  0  0  0  0  0  0  0  0
   -1.4009    0.8356    2.9779 C   0  0  0  0  0  0  0  0  0  0  0  0
   -2.4605    1.4200    2.0369 C   0  0  0  0  0  0  0  0  0  0  0  0
   -3.5898    0.4711    1.8209 N   0  0  0  0  0  0  0  0  0  0  0  0
   -4.6761    0.8292    0.5744 S   0  0  0  0  0  6  0  0  0  0  0  0
   -5.8060   -0.0666    0.6976 O   0  0  0  0  0  0  0  0  0  0  0  0
   -4.8537    2.2645    0.5288 O   0  0  0  0  0  0  0  0  0  0  0  0
   -3.7836    0.3529   -0.8958 C   0  0  0  0  0  0  0  0  0  0  0  0
   -3.9541   -0.9331   -1.4211 C   0  0  0  0  0  0  0  0  0  0  0  0
   -3.2620   -1.3019   -2.5770 C   0  0  0  0  0  0  0  0  0  0  0  0
   -2.4205   -0.3827   -3.2064 C   0  0  0  0  0  0  0  0  0  0  0  0
   -1.5733   -0.8412   -4.6292 Cl  0  0  0  0  0  0  0  0  0  0  0  0
   -2.2736    0.9079   -2.6972 C   0  0  0  0  0  0  0  0  0  0  0  0
   -2.9657    1.2838   -1.5438 C   0  0  0  0  0  0  0  0  0  0  0  0
   -3.2978   -0.9558    2.1215 C   0  0  0  0  0  0  0  0  0  0  0  0
   -1.8395   -1.3194    1.8118 C   0  0  0  0  0  0  0  0  0  0  0  0
    4.5960   -1.9107    0.1574 H   0  0  0  0  0  0  0  0  0  0  0  0
    4.5730   -0.5287    1.2610 H   0  0  0  0  0  0  0  0  0  0  0  0
    4.3903    1.8193    0.3705 H   0  0  0  0  0  0  0  0  0  0  0  0
    5.0706    3.3158   -1.4881 H   0  0  0  0  0  0  0  0  0  0  0  0
    5.5067   -0.0581   -4.0912 H   0  0  0  0  0  0  0  0  0  0  0  0
    4.8310   -1.5900   -2.2630 H   0  0  0  0  0  0  0  0  0  0  0  0
    0.4465   -2.2359    0.9621 H   0  0  0  0  0  0  0  0  0  0  0  0
    0.8903   -2.7598    2.5936 H   0  0  0  0  0  0  0  0  0  0  0  0
   -1.8373    0.6260    3.9614 H   0  0  0  0  0  0  0  0  0  0  0  0
   -0.5977    1.5641    3.1226 H   0  0  0  0  0  0  0  0  0  0  0  0
   -2.8556    2.3451    2.4700 H   0  0  0  0  0  0  0  0  0  0  0  0
   -1.9836    1.6579    1.0825 H   0  0  0  0  0  0  0  0  0  0  0  0
   -4.6238   -1.6475   -0.9446 H   0  0  0  0  0  0  0  0  0  0  0  0
   -3.3885   -2.3005   -2.9873 H   0  0  0  0  0  0  0  0  0  0  0  0
   -1.6276    1.6268   -3.1979 H   0  0  0  0  0  0  0  0  0  0  0  0
   -2.8625    2.2981   -1.1624 H   0  0  0  0  0  0  0  0  0  0  0  0
   -3.5048   -1.1147    3.1874 H   0  0  0  0  0  0  0  0  0  0  0  0
   -3.9639   -1.6297    1.5746 H   0  0  0  0  0  0  0  0  0  0  0  0
   -1.6570   -1.2440    0.7330 H   0  0  0  0  0  0  0  0  0  0  0  0
   -1.6380   -2.3531    2.1152 H   0  0  0  0  0  0  0  0  0  0  0  0
  1  2  2  0
  2  3  1  0
  3  4  1  0
  4  5  2  0
  5  6  1  0
  6  7  2  0
  7  8  1  0
  7  9  1  0
  9 10  2  0
  2 11  1  0
 11 12  1  0
 12 13  1  0
 13 14  2  0
 13 15  1  0
 15 16  1  0
 16 17  1  0
 17 18  1  0
 18 19  1  0
 19 20  2  0
 19 21  2  0
 19 22  1  0
 22 23  2  0
 23 24  1  0
 24 25  2  0
 25 26  1  0
 25 27  1  0
 27 28  2  0
 18 29  1  0
 29 30  1  0
 10  4  1  0
 30 15  1  0
 28 22  1  0
  3 31  1  0
  3 32  1  0
  5 33  1  0
  6 34  1  0
  9 35  1  0
 10 36  1  0
 12 37  1  0
 12 38  1  0
 16 39  1  0
 16 40  1  0
 17 41  1  0
 17 42  1  0
 23 43  1  0
 24 44  1  0
 27 45  1  0
 28 46  1  0
 29 47  1  0
 29 48  1  0
 30 49  1  0
 30 50  1  0
M  END
$$$$
