
     RDKit          3D

 45 47  0  0  0  0  0  0  0  0999 V2000
    3.8278    2.8923    4.0619 C   0  0  0  0  0  0  0  0  0  0  0  0
    3.4028    2.2391    2.7797 C   0  0  0  0  0  0  0  0  0  0  0  0
    4.2394    2.2683    1.6576 C   0  0  0  0  0  0  0  0  0  0  0  0
    3.8332    1.6882    0.4516 C   0  0  0  0  0  0  0  0  0  0  0  0
    2.5794    1.0764    0.3550 C   0  0  0  0  0  0  0  0  0  0  0  0
    2.1106    0.4498   -0.9158 C   0  0  0  0  0  0  0  0  0  0  0  0
    0.8348    0.3654   -1.1483 N   0  0  0  0  0  0  0  0  0  0  0  0
    0.4115   -0.2181   -2.3216 N   0  0  0  0  0  0  0  0  0  0  0  0
   -1.0097   -0.1218   -2.6151 C   0  0  0  0  0  0  0  0  0  0  0  0
   -1.7886   -1.2778   -1.9812 C   0  0  0  0  0  0  0  0  0  0  0  0
   -1.2749   -2.2917   -1.5132 O   0  0  0  0  0  0  0  0  0  0  0  0
   -3.1601   -1.0939   -2.0177 N   0  0  0  0  0  0  0  0  0  0  0  0
   -4.0475   -2.0081   -1.3272 C   0  0  0  0  0  0  0  0  0  0  0  0
   -4.2856   -1.5640    0.0974 C   0  0  0  0  0  0  0  0  0  0  0  0
   -3.4861   -2.0509    1.1296 C   0  0  0  0  0  0  0  0  0  0  0  0
   -3.7066   -1.5917    2.4246 C   0  0  0  0  0  0  0  0  0  0  0  0
   -4.7083   -0.6567    2.6538 C   0  0  0  0  0  0  0  0  0  0  0  0
   -5.4478   -0.2113    1.5713 C   0  0  0  0  0  0  0  0  0  0  0  0
   -5.2561   -0.6344    0.3022 N   0  0  0  0  0  0  0  0  0  0  0  0
    1.2182   -0.9927   -3.1472 C   0  0  0  0  0  0  0  0  0  0  0  0
    0.8440   -1.4847   -4.2114 O   0  0  0  0  0  0  0  0  0  0  0  0
    2.5987   -1.2554   -2.6121 C   0  0  0  0  0  0  0  0  0  0  0  0
    3.1347   -0.0275   -1.9163 C   0  0  0  0  0  0  0  0  0  0  0  0
    1.7304    1.0678    1.4680 C   0  0  0  0  0  0  0  0  0  0  0  0
    2.1394    1.6474    2.6716 C   0  0  0  0  0  0  0  0  0  0  0  0
    3.3797    2.3878    4.9244 H   0  0  0  0  0  0  0  0  0  0  0  0
    4.9148    2.8407    4.1846 H   0  0  0  0  0  0  0  0  0  0  0  0
    3.5202    3.9424    4.0667 H   0  0  0  0  0  0  0  0  0  0  0  0
    5.2143    2.7486    1.7146 H   0  0  0  0  0  0  0  0  0  0  0  0
    4.5030    1.7453   -0.4012 H   0  0  0  0  0  0  0  0  0  0  0  0
   -1.3837    0.8317   -2.2260 H   0  0  0  0  0  0  0  0  0  0  0  0
   -1.1734   -0.1490   -3.6976 H   0  0  0  0  0  0  0  0  0  0  0  0
   -3.5190   -0.1576   -2.1533 H   0  0  0  0  0  0  0  0  0  0  0  0
   -4.9985   -2.0048   -1.8709 H   0  0  0  0  0  0  0  0  0  0  0  0
   -3.6511   -3.0289   -1.3582 H   0  0  0  0  0  0  0  0  0  0  0  0
   -2.6945   -2.7672    0.9259 H   0  0  0  0  0  0  0  0  0  0  0  0
   -3.0964   -1.9581    3.2450 H   0  0  0  0  0  0  0  0  0  0  0  0
   -4.9046   -0.2800    3.6511 H   0  0  0  0  0  0  0  0  0  0  0  0
   -6.2382    0.5227    1.6997 H   0  0  0  0  0  0  0  0  0  0  0  0
    3.2588   -1.5318   -3.4410 H   0  0  0  0  0  0  0  0  0  0  0  0
    2.5357   -2.1051   -1.9226 H   0  0  0  0  0  0  0  0  0  0  0  0
    4.0839   -0.2735   -1.4319 H   0  0  0  0  0  0  0  0  0  0  0  0
    3.3063    0.7825   -2.6348 H   0  0  0  0  0  0  0  0  0  0  0  0
    0.7462    0.6072    1.4070 H   0  0  0  0  0  0  0  0  0  0  0  0
    1.4629    1.6331    3.5236 H   0  0  0  0  0  0  0  0  0  0  0  0
  1  2  1  0
  2  3  2  0
  3  4  1  0
  4  5  2  0
  5  6  1  0
  6  7  2  0
  7  8  1  0
  8  9  1  0
  9 10  1  0
 10 11  2  0
 10 12  1  0
 12 13  1  0
 13 14  1  0
 14 15  2  0
 15 16  1  0
 16 17  2  0
 17 18  1  0
 18 19  2  0
  8 20  1  0
 20 21  2  0
 20 22  1  0
 22 23  1  0
  5 24  1  0
 24 25  2  0
 25  2  1  0
 23  6  1  0
 19 14  1  0
  1 26  1  0
  1 27  1  0
  1 28  1  0
  3 29  1  0
  4 30  1  0
  9 31  1  0
  9 32  1  0
 12 33  1  0
 13 34  1  0
 13 35  1  0
 15 36  1  0
 16 37  1  0
 17 38  1  0
 18 39  1  0
 22 40  1  0
 22 41  1  0
 23 42  1  0
 23 43  1  0
 24 44  1  0
 25 45  1  0
M  END
$$$$
