
     RDKit          3D

 39 41  0  0  0  0  0  0  0  0999 V2000
   -0.9765   -0.2088    1.4305 O   0  0  0  0  0  0  0  0  0  0  0  0
   -1.5346    0.5407    0.6335 C   0  0  0  0  0  0  0  0  0  0  0  0
   -3.0231    0.4827    0.2848 C   0  0  0  0  0  0  0  0  0  0  0  0
   -3.6355   -0.6663    0.8476 O   0  0  0  0  0  0  0  0  0  0  0  0
   -4.9704   -0.8678    0.6177 C   0  0  0  0  0  0  0  0  0  0  0  0
   -5.7971    0.0155   -0.0855 C   0  0  0  0  0  0  0  0  0  0  0  0
   -7.1534   -0.2783   -0.2662 C   0  0  0  0  0  0  0  0  0  0  0  0
   -7.6894   -1.4538    0.2548 C   0  0  0  0  0  0  0  0  0  0  0  0
   -9.3576   -1.8045    0.0259 Cl  0  0  0  0  0  0  0  0  0  0  0  0
   -6.8846   -2.3431    0.9574 C   0  0  0  0  0  0  0  0  0  0  0  0
   -5.5308   -2.0491    1.1375 C   0  0  0  0  0  0  0  0  0  0  0  0
   -4.5708   -3.1888    2.0162 Cl  0  0  0  0  0  0  0  0  0  0  0  0
   -0.8624    1.5589   -0.0378 N   0  0  0  0  0  0  0  0  0  0  0  0
    0.5460    1.5128    0.0408 N   0  0  0  0  0  0  0  0  0  0  0  0
    1.2332    0.7449   -0.8818 C   0  0  0  0  0  0  0  0  0  0  0  0
    0.7445    0.1832   -1.8537 O   0  0  0  0  0  0  0  0  0  0  0  0
    2.6806    0.7565   -0.5387 C   0  0  0  0  0  0  0  0  0  0  0  0
    3.5737    0.0488   -1.2431 C   0  0  0  0  0  0  0  0  0  0  0  0
    5.0133   -0.0165   -0.9775 C   0  0  0  0  0  0  0  0  0  0  0  0
    5.8423    1.0885   -1.2074 C   0  0  0  0  0  0  0  0  0  0  0  0
    7.2144    1.0031   -0.9567 C   0  0  0  0  0  0  0  0  0  0  0  0
    7.7588   -0.1882   -0.4811 C   0  0  0  0  0  0  0  0  0  0  0  0
    9.4481   -0.2931   -0.1739 Cl  0  0  0  0  0  0  0  0  0  0  0  0
    6.9438   -1.2957   -0.2557 C   0  0  0  0  0  0  0  0  0  0  0  0
    5.5716   -1.2107   -0.5063 C   0  0  0  0  0  0  0  0  0  0  0  0
    2.9649    1.7572    0.8388 S   0  0  0  0  0  0  0  0  0  0  0  0
    1.2591    2.1591    1.0293 C   0  0  0  0  0  0  0  0  0  0  0  0
    0.6823    3.1994    2.1983 S   0  0  0  0  0  0  0  0  0  0  0  0
   -3.1103    0.4555   -0.8080 H   0  0  0  0  0  0  0  0  0  0  0  0
   -3.4819    1.3935    0.6877 H   0  0  0  0  0  0  0  0  0  0  0  0
   -5.4249    0.9443   -0.5049 H   0  0  0  0  0  0  0  0  0  0  0  0
   -7.7866    0.4162   -0.8136 H   0  0  0  0  0  0  0  0  0  0  0  0
   -7.3045   -3.2592    1.3635 H   0  0  0  0  0  0  0  0  0  0  0  0
   -1.2146    1.8456   -0.9463 H   0  0  0  0  0  0  0  0  0  0  0  0
    3.2399   -0.5650   -2.0789 H   0  0  0  0  0  0  0  0  0  0  0  0
    5.4304    2.0226   -1.5825 H   0  0  0  0  0  0  0  0  0  0  0  0
    7.8500    1.8665   -1.1342 H   0  0  0  0  0  0  0  0  0  0  0  0
    7.3676   -2.2253    0.1150 H   0  0  0  0  0  0  0  0  0  0  0  0
    4.9446   -2.0812   -0.3242 H   0  0  0  0  0  0  0  0  0  0  0  0
  1  2  2  0
  2  3  1  0
  3  4  1  0
  4  5  1  0
  5  6  2  0
  6  7  1  0
  7  8  2  0
  8  9  1  0
  8 10  1  0
 10 11  2  0
 11 12  1  0
  2 13  1  0
 13 14  1  0
 14 15  1  0
 15 16  2  0
 15 17  1  0
 17 18  2  3
 18 19  1  0
 19 20  2  0
 20 21  1  0
 21 22  2  0
 22 23  1  0
 22 24  1  0
 24 25  2  0
 17 26  1  0
 26 27  1  0
 27 28  2  0
 11  5  1  0
 27 14  1  0
 25 19  1  0
  3 29  1  0
  3 30  1  0
  6 31  1  0
  7 32  1  0
 10 33  1  0
 13 34  1  0
 18 35  1  0
 20 36  1  0
 21 37  1  0
 24 38  1  0
 25 39  1  0
M  END
$$$$
