
     RDKit          3D

 71 76  0  0  0  0  0  0  0  0999 V2000
   -4.0887   -4.3099    3.1460 C   0  0  0  0  0  0  0  0  0  0  0  0
   -3.2661   -3.2777    2.6177 O   0  0  0  0  0  0  0  0  0  0  0  0
   -3.1157   -3.2335    1.2582 C   0  0  0  0  0  0  0  0  0  0  0  0
   -3.7186   -4.1119    0.3371 C   0  0  0  0  0  0  0  0  0  0  0  0
   -3.4952   -3.9773   -1.0392 C   0  0  0  0  0  0  0  0  0  0  0  0
   -2.6708   -2.9548   -1.4547 C   0  0  0  0  0  0  0  0  0  0  0  0
   -2.0695   -2.0688   -0.5595 C   0  0  0  0  0  0  0  0  0  0  0  0
   -2.2813   -2.2048    0.8039 C   0  0  0  0  0  0  0  0  0  0  0  0
   -1.2465   -1.0850   -1.3348 C   0  0  1  0  0  0  0  0  0  0  0  0
   -1.4417   -1.5519   -2.8051 C   0  0  0  0  0  0  0  0  0  0  0  0
   -0.9482   -1.1024   -3.8282 O   0  0  0  0  0  0  0  0  0  0  0  0
   -2.3108   -2.6478   -2.7600 N   0  0  0  0  0  0  0  0  0  0  0  0
   -1.7579    0.2886   -1.0808 C   0  0  0  0  0  0  0  0  0  0  0  0
   -0.6708    1.1794   -0.9718 C   0  0  0  0  0  0  0  0  0  0  0  0
   -1.1424    2.4310   -0.7013 C   0  0  0  0  0  0  0  0  0  0  0  0
   -0.4752    3.5598   -0.4977 O   0  0  0  0  0  0  0  0  0  0  0  0
   -2.5301    2.3273   -0.6969 N   0  0  0  0  0  0  0  0  0  0  0  0
   -3.4672    3.4454   -0.6193 C   0  0  0  0  0  0  0  0  0  0  0  0
   -3.5456    4.0398    0.7661 C   0  0  0  0  0  0  0  0  0  0  0  0
   -3.2833    5.4036    0.9678 C   0  0  0  0  0  0  0  0  0  0  0  0
   -3.3597    5.9583    2.2463 C   0  0  0  0  0  0  0  0  0  0  0  0
   -3.7099    5.1607    3.3340 C   0  0  0  0  0  0  0  0  0  0  0  0
   -3.9903    3.8090    3.1442 C   0  0  0  0  0  0  0  0  0  0  0  0
   -3.9124    3.2516    1.8676 C   0  0  0  0  0  0  0  0  0  0  0  0
   -2.9120    1.0046   -0.8976 C   0  0  0  0  0  0  0  0  0  0  0  0
   -4.1899    0.6470   -0.8838 O   0  0  0  0  0  0  0  0  0  0  0  0
    0.6003    0.4649   -1.1943 C   0  0  1  0  0  0  0  0  0  0  0  0
    1.8088    0.7979   -0.3275 C   0  0  0  0  0  0  0  0  0  0  0  0
    2.8884   -0.1879   -0.5425 N   0  0  0  0  0  0  0  0  0  0  0  0
    4.1836    0.1946   -0.2366 C   0  0  0  0  0  0  0  0  0  0  0  0
    4.5084    1.3443    0.0291 O   0  0  0  0  0  0  0  0  0  0  0  0
    5.0456   -0.8549   -0.2716 O   0  0  0  0  0  0  0  0  0  0  0  0
    6.4584   -0.6752    0.0015 C   0  0  0  0  0  0  0  0  0  0  0  0
    6.6928   -0.1968    1.4383 C   0  0  0  0  0  0  0  0  0  0  0  0
    7.1137    0.2523   -1.0277 C   0  0  0  0  0  0  0  0  0  0  0  0
    7.0622   -2.0801   -0.1515 C   0  0  0  0  0  0  0  0  0  0  0  0
    2.4926   -1.6088   -0.5770 C   0  0  0  0  0  0  0  0  0  0  0  0
    1.1722   -1.8840   -1.3417 C   0  0  0  0  0  0  0  0  0  0  0  0
    0.1605   -0.9415   -0.8996 N   0  0  0  0  0  0  0  0  0  0  0  0
   -4.0957   -4.2083    4.2356 H   0  0  0  0  0  0  0  0  0  0  0  0
   -3.6834   -5.2986    2.9065 H   0  0  0  0  0  0  0  0  0  0  0  0
   -5.1212   -4.2089    2.7959 H   0  0  0  0  0  0  0  0  0  0  0  0
   -4.3682   -4.9169    0.6675 H   0  0  0  0  0  0  0  0  0  0  0  0
   -3.9565   -4.6605   -1.7436 H   0  0  0  0  0  0  0  0  0  0  0  0
   -1.8095   -1.5233    1.5071 H   0  0  0  0  0  0  0  0  0  0  0  0
   -2.5954   -3.1472   -3.5893 H   0  0  0  0  0  0  0  0  0  0  0  0
   -1.0035    4.1339    0.0826 H   0  0  0  0  0  0  0  0  0  0  0  0
   -4.4600    3.1109   -0.9384 H   0  0  0  0  0  0  0  0  0  0  0  0
   -3.1250    4.1853   -1.3530 H   0  0  0  0  0  0  0  0  0  0  0  0
   -3.0179    6.0472    0.1312 H   0  0  0  0  0  0  0  0  0  0  0  0
   -3.1476    7.0145    2.3954 H   0  0  0  0  0  0  0  0  0  0  0  0
   -3.7693    5.5934    4.3292 H   0  0  0  0  0  0  0  0  0  0  0  0
   -4.2692    3.1867    3.9907 H   0  0  0  0  0  0  0  0  0  0  0  0
   -4.1395    2.1942    1.7354 H   0  0  0  0  0  0  0  0  0  0  0  0
   -4.2237   -0.3242   -0.9552 H   0  0  0  0  0  0  0  0  0  0  0  0
    0.8708    0.5562   -2.2563 H   0  0  0  0  0  0  0  0  0  0  0  0
    2.1739    1.8062   -0.5537 H   0  0  0  0  0  0  0  0  0  0  0  0
    1.5574    0.7780    0.7410 H   0  0  0  0  0  0  0  0  0  0  0  0
    6.1410   -0.8208    2.1505 H   0  0  0  0  0  0  0  0  0  0  0  0
    6.3489    0.8307    1.5892 H   0  0  0  0  0  0  0  0  0  0  0  0
    7.7561   -0.2266    1.6997 H   0  0  0  0  0  0  0  0  0  0  0  0
    6.7812    1.2885   -0.9163 H   0  0  0  0  0  0  0  0  0  0  0  0
    6.8537   -0.0534   -2.0472 H   0  0  0  0  0  0  0  0  0  0  0  0
    8.2048    0.2476   -0.9301 H   0  0  0  0  0  0  0  0  0  0  0  0
    6.5949   -2.7836    0.5480 H   0  0  0  0  0  0  0  0  0  0  0  0
    6.8777   -2.4763   -1.1571 H   0  0  0  0  0  0  0  0  0  0  0  0
    8.1427   -2.0809    0.0275 H   0  0  0  0  0  0  0  0  0  0  0  0
    2.3879   -1.9272    0.4681 H   0  0  0  0  0  0  0  0  0  0  0  0
    3.2912   -2.2101   -1.0241 H   0  0  0  0  0  0  0  0  0  0  0  0
    1.3542   -1.7964   -2.4198 H   0  0  0  0  0  0  0  0  0  0  0  0
    0.8616   -2.9152   -1.1394 H   0  0  0  0  0  0  0  0  0  0  0  0
  1  2  1  0
  2  3  1  0
  3  4  2  0
  4  5  1  0
  5  6  2  0
  6  7  1  0
  7  8  2  0
  7  9  1  0
  9 10  1  0
 10 11  2  0
 10 12  1  0
  9 13  1  0
 13 14  1  0
 14 15  2  0
 15 16  1  0
 15 17  1  0
 17 18  1  0
 18 19  1  0
 19 20  2  0
 20 21  1  0
 21 22  2  0
 22 23  1  0
 23 24  2  0
 17 25  1  0
 25 26  1  0
 14 27  1  0
 27 28  1  0
 28 29  1  0
 29 30  1  0
 30 31  2  0
 30 32  1  0
 32 33  1  0
 33 34  1  0
 33 35  1  0
 33 36  1  0
 29 37  1  0
 37 38  1  0
 38 39  1  0
  8  3  1  0
  9 39  1  1
 12  6  1  0
 25 13  2  0
 39 27  1  0
 24 19  1  0
  1 40  1  0
  1 41  1  0
  1 42  1  0
  4 43  1  0
  5 44  1  0
  8 45  1  0
 12 46  1  0
 16 47  1  0
 18 48  1  0
 18 49  1  0
 20 50  1  0
 21 51  1  0
 22 52  1  0
 23 53  1  0
 24 54  1  0
 26 55  1  0
 27 56  1  6
 28 57  1  0
 28 58  1  0
 34 59  1  0
 34 60  1  0
 34 61  1  0
 35 62  1  0
 35 63  1  0
 35 64  1  0
 36 65  1  0
 36 66  1  0
 36 67  1  0
 37 68  1  0
 37 69  1  0
 38 70  1  0
 38 71  1  0
M  END
$$$$
