
     RDKit          3D

 39 41  0  0  0  0  0  0  0  0999 V2000
   -4.1208    2.4285    1.2409 O   0  0  0  0  0  0  0  0  0  0  0  0
   -3.3934    1.6968    0.5961 C   0  0  0  0  0  0  0  0  0  0  0  0
   -2.0569    1.8890    0.5601 O   0  0  0  0  0  0  0  0  0  0  0  0
   -3.8067    0.6052   -0.3128 C   0  0  0  0  0  0  0  0  0  0  0  0
   -4.8326    0.9000   -1.1697 N   0  0  0  0  0  0  0  0  0  0  0  0
   -5.1656   -0.0783   -2.0417 C   0  0  0  0  0  0  0  0  0  0  0  0
   -4.5032   -1.2946   -2.0830 C   0  0  0  0  0  0  0  0  0  0  0  0
   -3.4843   -1.5959   -1.2456 N   0  0  0  0  0  0  0  0  0  0  0  0
   -3.1531   -0.6180   -0.3445 C   0  0  0  0  0  0  0  0  0  0  0  0
   -2.1409   -0.9775    0.6817 C   0  0  0  0  0  0  0  0  0  0  0  0
   -2.4009   -0.7276    1.8586 O   0  0  0  0  0  0  0  0  0  0  0  0
   -0.9612   -1.6150    0.2863 N   0  0  0  0  0  0  0  0  0  0  0  0
    0.0283   -1.9224    1.3210 C   0  0  0  0  0  0  0  0  0  0  0  0
    1.0918   -0.8094    1.4141 C   0  0  0  0  0  0  0  0  0  0  0  0
    1.7075   -0.5710    0.0765 N   0  0  0  0  0  0  0  0  0  0  0  0
    2.8484    0.2490    0.1253 C   0  0  0  0  0  0  0  0  0  0  0  0
    3.9700   -0.1708    0.8618 C   0  0  0  0  0  0  0  0  0  0  0  0
    5.1342    0.6007    0.9380 C   0  0  0  0  0  0  0  0  0  0  0  0
    5.2062    1.8162    0.2682 C   0  0  0  0  0  0  0  0  0  0  0  0
    4.1176    2.2509   -0.4800 C   0  0  0  0  0  0  0  0  0  0  0  0
    2.9557    1.4722   -0.5533 C   0  0  0  0  0  0  0  0  0  0  0  0
    0.7099   -0.3025   -0.9871 C   0  0  0  0  0  0  0  0  0  0  0  0
   -0.3520   -1.4249   -1.0374 C   0  0  0  0  0  0  0  0  0  0  0  0
   -1.9164    2.6208    1.2002 H   0  0  0  0  0  0  0  0  0  0  0  0
   -5.9856    0.1445   -2.7164 H   0  0  0  0  0  0  0  0  0  0  0  0
   -4.7820   -2.0673   -2.7918 H   0  0  0  0  0  0  0  0  0  0  0  0
   -0.4557   -2.0639    2.2928 H   0  0  0  0  0  0  0  0  0  0  0  0
    0.5025   -2.8722    1.0459 H   0  0  0  0  0  0  0  0  0  0  0  0
    1.8354   -1.1190    2.1563 H   0  0  0  0  0  0  0  0  0  0  0  0
    0.6276    0.1202    1.7686 H   0  0  0  0  0  0  0  0  0  0  0  0
    3.9554   -1.1330    1.3678 H   0  0  0  0  0  0  0  0  0  0  0  0
    5.9833    0.2432    1.5138 H   0  0  0  0  0  0  0  0  0  0  0  0
    6.1085    2.4186    0.3231 H   0  0  0  0  0  0  0  0  0  0  0  0
    4.1671    3.1982   -1.0104 H   0  0  0  0  0  0  0  0  0  0  0  0
    2.1320    1.8611   -1.1430 H   0  0  0  0  0  0  0  0  0  0  0  0
    1.2006   -0.2529   -1.9665 H   0  0  0  0  0  0  0  0  0  0  0  0
    0.2069    0.6537   -0.7962 H   0  0  0  0  0  0  0  0  0  0  0  0
    0.1164   -2.3751   -1.3198 H   0  0  0  0  0  0  0  0  0  0  0  0
   -1.0939   -1.1774   -1.7983 H   0  0  0  0  0  0  0  0  0  0  0  0
  1  2  2  0
  2  3  1  0
  2  4  1  0
  4  5  2  0
  5  6  1  0
  6  7  2  0
  7  8  1  0
  8  9  2  0
  9 10  1  0
 10 11  2  0
 10 12  1  0
 12 13  1  0
 13 14  1  0
 14 15  1  0
 15 16  1  0
 16 17  2  0
 17 18  1  0
 18 19  2  0
 19 20  1  0
 20 21  2  0
 15 22  1  0
 22 23  1  0
  9  4  1  0
 23 12  1  0
 21 16  1  0
  3 24  1  0
  6 25  1  0
  7 26  1  0
 13 27  1  0
 13 28  1  0
 14 29  1  0
 14 30  1  0
 17 31  1  0
 18 32  1  0
 19 33  1  0
 20 34  1  0
 21 35  1  0
 22 36  1  0
 22 37  1  0
 23 38  1  0
 23 39  1  0
M  END
$$$$
