
     RDKit          3D

 56 59  0  0  0  0  0  0  0  0999 V2000
    8.0603   -1.0383   -1.3771 C   0  0  0  0  0  0  0  0  0  0  0  0
    7.1247   -0.3128   -2.1644 O   0  0  0  0  0  0  0  0  0  0  0  0
    5.9786    0.1010   -1.5445 C   0  0  0  0  0  0  0  0  0  0  0  0
    5.0975    0.8051   -2.3652 C   0  0  0  0  0  0  0  0  0  0  0  0
    3.8858    1.2771   -1.8623 C   0  0  0  0  0  0  0  0  0  0  0  0
    3.5417    1.0396   -0.5261 C   0  0  0  0  0  0  0  0  0  0  0  0
    2.2175    1.5481   -0.0896 C   0  0  0  0  0  0  0  0  0  0  0  0
    2.0226    2.7597   -0.1536 O   0  0  0  0  0  0  0  0  0  0  0  0
    1.1663    0.5482    0.3904 C   0  0  0  0  0  0  0  0  0  0  0  0
    0.9759   -0.5987   -0.6079 C   0  0  0  0  0  0  0  0  0  0  0  0
   -0.1797   -1.4994   -0.1869 C   0  0  0  0  0  0  0  0  0  0  0  0
   -1.4552   -0.6967    0.0680 C   0  0  0  0  0  0  0  0  0  0  0  0
   -1.2202    0.3432    1.0815 N   0  0  0  0  0  0  0  0  0  0  0  0
   -2.4603    1.0946    1.3647 C   0  0  0  0  0  0  0  0  0  0  0  0
   -3.4216    0.2829    2.1839 C   0  0  0  0  0  0  0  0  0  0  0  0
   -3.2497   -0.0607    3.5184 C   0  0  0  0  0  0  0  0  0  0  0  0
   -4.3791   -0.7743    3.9417 C   0  0  0  0  0  0  0  0  0  0  0  0
   -5.2211   -0.8624    2.8595 C   0  0  0  0  0  0  0  0  0  0  0  0
   -4.6501   -0.2352    1.7563 N   0  0  0  0  0  0  0  0  0  0  0  0
   -5.2408   -0.1688    0.4406 C   0  0  0  0  0  0  0  0  0  0  0  0
   -6.5152   -0.6922    0.2112 C   0  0  0  0  0  0  0  0  0  0  0  0
   -7.0632   -0.6244   -1.0715 C   0  0  0  0  0  0  0  0  0  0  0  0
   -6.3365   -0.0390   -2.0971 C   0  0  0  0  0  0  0  0  0  0  0  0
   -5.0842    0.4564   -1.7958 C   0  0  0  0  0  0  0  0  0  0  0  0
   -4.5313    0.4011   -0.5640 N   0  0  0  0  0  0  0  0  0  0  0  0
   -0.1702    1.2745    0.6258 C   0  0  0  0  0  0  0  0  0  0  0  0
    4.4311    0.3686    0.3297 C   0  0  0  0  0  0  0  0  0  0  0  0
    4.1451    0.1361    1.7857 C   0  0  0  0  0  0  0  0  0  0  0  0
    5.6430   -0.1145   -0.2044 C   0  0  0  0  0  0  0  0  0  0  0  0
    8.4374   -0.4282   -0.5497 H   0  0  0  0  0  0  0  0  0  0  0  0
    7.6265   -1.9758   -1.0133 H   0  0  0  0  0  0  0  0  0  0  0  0
    8.9102   -1.2918   -2.0177 H   0  0  0  0  0  0  0  0  0  0  0  0
    5.3576    0.9880   -3.4053 H   0  0  0  0  0  0  0  0  0  0  0  0
    3.2106    1.8266   -2.5144 H   0  0  0  0  0  0  0  0  0  0  0  0
    1.4935    0.1440    1.3543 H   0  0  0  0  0  0  0  0  0  0  0  0
    1.8874   -1.2021   -0.6882 H   0  0  0  0  0  0  0  0  0  0  0  0
    0.7790   -0.1945   -1.6094 H   0  0  0  0  0  0  0  0  0  0  0  0
    0.0975   -2.0479    0.7224 H   0  0  0  0  0  0  0  0  0  0  0  0
   -0.3652   -2.2478   -0.9659 H   0  0  0  0  0  0  0  0  0  0  0  0
   -1.8022   -0.2558   -0.8754 H   0  0  0  0  0  0  0  0  0  0  0  0
   -2.2233   -1.4013    0.4059 H   0  0  0  0  0  0  0  0  0  0  0  0
   -2.2020    1.9576    1.9973 H   0  0  0  0  0  0  0  0  0  0  0  0
   -2.8813    1.5433    0.4646 H   0  0  0  0  0  0  0  0  0  0  0  0
   -2.3812    0.1953    4.1124 H   0  0  0  0  0  0  0  0  0  0  0  0
   -4.5639   -1.1843    4.9258 H   0  0  0  0  0  0  0  0  0  0  0  0
   -6.1823   -1.3476    2.8033 H   0  0  0  0  0  0  0  0  0  0  0  0
   -7.1133   -1.1492    0.9890 H   0  0  0  0  0  0  0  0  0  0  0  0
   -8.0547   -1.0265   -1.2626 H   0  0  0  0  0  0  0  0  0  0  0  0
   -6.7361    0.0295   -3.1024 H   0  0  0  0  0  0  0  0  0  0  0  0
   -4.4694    0.9275   -2.5573 H   0  0  0  0  0  0  0  0  0  0  0  0
   -0.4874    1.7968   -0.2879 H   0  0  0  0  0  0  0  0  0  0  0  0
   -0.0113    2.0437    1.3934 H   0  0  0  0  0  0  0  0  0  0  0  0
    5.0741    0.0174    2.3549 H   0  0  0  0  0  0  0  0  0  0  0  0
    3.6159    0.9864    2.2270 H   0  0  0  0  0  0  0  0  0  0  0  0
    3.5516   -0.7743    1.9116 H   0  0  0  0  0  0  0  0  0  0  0  0
    6.3203   -0.6477    0.4560 H   0  0  0  0  0  0  0  0  0  0  0  0
  1  2  1  0
  2  3  1  0
  3  4  2  0
  4  5  1  0
  5  6  2  0
  6  7  1  0
  7  8  2  0
  7  9  1  0
  9 10  1  0
 10 11  1  0
 11 12  1  0
 12 13  1  0
 13 14  1  0
 14 15  1  0
 15 16  2  0
 16 17  1  0
 17 18  2  0
 18 19  1  0
 19 20  1  0
 20 21  2  0
 21 22  1  0
 22 23  2  0
 23 24  1  0
 24 25  2  0
 13 26  1  0
  6 27  1  0
 27 28  1  0
 27 29  2  0
 29  3  1  0
 26  9  1  0
 19 15  1  0
 25 20  1  0
  1 30  1  0
  1 31  1  0
  1 32  1  0
  4 33  1  0
  5 34  1  0
  9 35  1  0
 10 36  1  0
 10 37  1  0
 11 38  1  0
 11 39  1  0
 12 40  1  0
 12 41  1  0
 14 42  1  0
 14 43  1  0
 16 44  1  0
 17 45  1  0
 18 46  1  0
 21 47  1  0
 22 48  1  0
 23 49  1  0
 24 50  1  0
 26 51  1  0
 26 52  1  0
 28 53  1  0
 28 54  1  0
 28 55  1  0
 29 56  1  0
M  END
$$$$
