
     RDKit          3D

 57 60  0  0  0  0  0  0  0  0999 V2000
    6.4026   -0.8041   -2.8440 C   0  0  0  0  0  0  0  0  0  0  0  0
    5.1799   -0.4121   -2.2338 O   0  0  0  0  0  0  0  0  0  0  0  0
    5.1021   -0.4693   -0.8656 C   0  0  0  0  0  0  0  0  0  0  0  0
    6.1792   -0.7863   -0.0319 C   0  0  0  0  0  0  0  0  0  0  0  0
    6.0051   -0.8584    1.3496 C   0  0  0  0  0  0  0  0  0  0  0  0
    4.7500   -0.6260    1.9088 C   0  0  0  0  0  0  0  0  0  0  0  0
    3.6494   -0.3044    1.0982 C   0  0  0  0  0  0  0  0  0  0  0  0
    2.3427   -0.0922    1.8013 C   0  0  0  0  0  0  0  0  0  0  0  0
    2.2939   -0.0862    3.0282 O   0  0  0  0  0  0  0  0  0  0  0  0
    1.2228    0.0723    1.0238 N   0  0  0  0  0  0  0  0  0  0  0  0
   -0.1058    0.1454    1.5904 C   0  0  0  0  0  0  0  0  0  0  0  0
   -0.6480   -1.2719    1.8912 C   0  0  0  0  0  0  0  0  0  0  0  0
   -2.1964   -1.3347    2.0443 C   0  0  0  0  0  0  0  0  0  0  0  0
   -2.6548   -0.5052    3.2612 C   0  0  0  0  0  0  0  0  0  0  0  0
   -2.6116   -2.7988    2.2847 C   0  0  0  0  0  0  0  0  0  0  0  0
   -2.8932   -0.8247    0.7425 C   0  0  0  0  0  0  0  0  0  0  0  0
   -2.2367    0.4114    0.2216 C   0  0  0  0  0  0  0  0  0  0  0  0
   -0.9866    0.8523    0.6187 C   0  0  0  0  0  0  0  0  0  0  0  0
   -0.8328    2.0931   -0.0069 C   0  0  0  0  0  0  0  0  0  0  0  0
   -1.8740    2.4065   -0.7732 N   0  0  0  0  0  0  0  0  0  0  0  0
   -2.7284    1.3446   -0.6827 N   0  0  0  0  0  0  0  0  0  0  0  0
   -3.9163    1.3513   -1.4778 C   0  0  0  0  0  0  0  0  0  0  0  0
   -4.7236    0.2186   -1.6483 C   0  0  0  0  0  0  0  0  0  0  0  0
   -5.8780    0.2791   -2.4408 C   0  0  0  0  0  0  0  0  0  0  0  0
   -6.2317    1.4666   -3.0751 C   0  0  0  0  0  0  0  0  0  0  0  0
   -5.4250    2.5851   -2.9212 C   0  0  0  0  0  0  0  0  0  0  0  0
   -5.7599    3.7265   -3.5370 F   0  0  0  0  0  0  0  0  0  0  0  0
   -4.2761    2.5394   -2.1385 C   0  0  0  0  0  0  0  0  0  0  0  0
    3.8399   -0.1962   -0.2931 C   0  0  0  0  0  0  0  0  0  0  0  0
    2.7624    0.1113   -1.0962 O   0  0  0  0  0  0  0  0  0  0  0  0
    2.9309    1.3716   -1.7538 C   0  0  0  0  0  0  0  0  0  0  0  0
    7.2123   -0.1170   -2.5777 H   0  0  0  0  0  0  0  0  0  0  0  0
    6.2662   -0.7514   -3.9284 H   0  0  0  0  0  0  0  0  0  0  0  0
    6.6592   -1.8381   -2.5910 H   0  0  0  0  0  0  0  0  0  0  0  0
    7.1701   -0.9874   -0.4260 H   0  0  0  0  0  0  0  0  0  0  0  0
    6.8462   -1.1066    1.9932 H   0  0  0  0  0  0  0  0  0  0  0  0
    4.6315   -0.7016    2.9890 H   0  0  0  0  0  0  0  0  0  0  0  0
    1.3149   -0.0793    0.0236 H   0  0  0  0  0  0  0  0  0  0  0  0
   -0.0623    0.7229    2.5220 H   0  0  0  0  0  0  0  0  0  0  0  0
   -0.3538   -1.9498    1.0760 H   0  0  0  0  0  0  0  0  0  0  0  0
   -0.1577   -1.6626    2.7927 H   0  0  0  0  0  0  0  0  0  0  0  0
   -2.4432    0.5619    3.1432 H   0  0  0  0  0  0  0  0  0  0  0  0
   -3.7347   -0.6057    3.4193 H   0  0  0  0  0  0  0  0  0  0  0  0
   -2.1539   -0.8427    4.1756 H   0  0  0  0  0  0  0  0  0  0  0  0
   -2.2958   -3.4425    1.4560 H   0  0  0  0  0  0  0  0  0  0  0  0
   -2.1594   -3.1928    3.2018 H   0  0  0  0  0  0  0  0  0  0  0  0
   -3.6993   -2.8902    2.3811 H   0  0  0  0  0  0  0  0  0  0  0  0
   -3.9540   -0.6464    0.9513 H   0  0  0  0  0  0  0  0  0  0  0  0
   -2.8179   -1.6006   -0.0297 H   0  0  0  0  0  0  0  0  0  0  0  0
   -0.0081    2.7902    0.0721 H   0  0  0  0  0  0  0  0  0  0  0  0
   -4.4794   -0.7428   -1.2162 H   0  0  0  0  0  0  0  0  0  0  0  0
   -6.4952   -0.6072   -2.5690 H   0  0  0  0  0  0  0  0  0  0  0  0
   -7.1220    1.5261   -3.6926 H   0  0  0  0  0  0  0  0  0  0  0  0
   -3.6810    3.4451   -2.0496 H   0  0  0  0  0  0  0  0  0  0  0  0
    3.5345    2.0761   -1.1698 H   0  0  0  0  0  0  0  0  0  0  0  0
    3.3634    1.2270   -2.7477 H   0  0  0  0  0  0  0  0  0  0  0  0
    1.9373    1.8107   -1.8855 H   0  0  0  0  0  0  0  0  0  0  0  0
  1  2  1  0
  2  3  1  0
  3  4  2  0
  4  5  1  0
  5  6  2  0
  6  7  1  0
  7  8  1  0
  8  9  2  0
  8 10  1  0
 10 11  1  0
 11 12  1  0
 12 13  1  0
 13 14  1  0
 13 15  1  0
 13 16  1  0
 16 17  1  0
 17 18  2  0
 18 19  1  0
 19 20  2  0
 20 21  1  0
 21 22  1  0
 22 23  2  0
 23 24  1  0
 24 25  2  0
 25 26  1  0
 26 27  1  0
 26 28  2  0
  7 29  2  0
 29 30  1  0
 30 31  1  0
 29  3  1  0
 18 11  1  0
 28 22  1  0
 21 17  1  0
  1 32  1  0
  1 33  1  0
  1 34  1  0
  4 35  1  0
  5 36  1  0
  6 37  1  0
 10 38  1  0
 11 39  1  0
 12 40  1  0
 12 41  1  0
 14 42  1  0
 14 43  1  0
 14 44  1  0
 15 45  1  0
 15 46  1  0
 15 47  1  0
 16 48  1  0
 16 49  1  0
 19 50  1  0
 23 51  1  0
 24 52  1  0
 25 53  1  0
 28 54  1  0
 31 55  1  0
 31 56  1  0
 31 57  1  0
M  END
$$$$
