
     RDKit          3D

 30 31  0  0  0  0  0  0  0  0999 V2000
   -4.7062    0.6055    1.1174 C   0  0  0  0  0  0  0  0  0  0  0  0
   -4.1309    0.6768   -0.2846 C   0  0  0  0  0  0  0  0  0  0  0  0
   -2.6975    0.6850   -0.2309 O   0  0  0  0  0  0  0  0  0  0  0  0
   -2.0936   -0.5392   -0.1967 C   0  0  0  0  0  0  0  0  0  0  0  0
   -2.7010   -1.6037   -0.2061 O   0  0  0  0  0  0  0  0  0  0  0  0
   -0.6520   -0.3868   -0.1455 C   0  0  0  0  0  0  0  0  0  0  0  0
    0.0921   -1.5440   -0.1195 O   0  0  0  0  0  0  0  0  0  0  0  0
    1.3878   -1.1790   -0.0765 C   0  0  0  0  0  0  0  0  0  0  0  0
    1.5289    0.1866   -0.0668 C   0  0  0  0  0  0  0  0  0  0  0  0
    0.2051    0.7192   -0.1147 C   0  0  0  0  0  0  0  0  0  0  0  0
   -0.1822    2.1553   -0.1270 C   0  0  0  0  0  0  0  0  0  0  0  0
    2.8577    0.7765   -0.0214 C   0  0  0  0  0  0  0  0  0  0  0  0
    3.0442    1.9900   -0.0383 O   0  0  0  0  0  0  0  0  0  0  0  0
    4.0241   -0.2056    0.1265 C   0  0  0  0  0  0  0  0  0  0  0  0
    3.7531   -1.5659   -0.5404 C   0  0  0  0  0  0  0  0  0  0  0  0
    2.4458   -2.2115   -0.0509 C   0  0  0  0  0  0  0  0  0  0  0  0
   -4.3256    1.4286    1.7312 H   0  0  0  0  0  0  0  0  0  0  0  0
   -4.4141   -0.3243    1.6156 H   0  0  0  0  0  0  0  0  0  0  0  0
   -5.7981    0.6597    1.0918 H   0  0  0  0  0  0  0  0  0  0  0  0
   -4.4375    1.6144   -0.7598 H   0  0  0  0  0  0  0  0  0  0  0  0
   -4.5037   -0.1387   -0.9148 H   0  0  0  0  0  0  0  0  0  0  0  0
   -0.7290    2.3956   -1.0445 H   0  0  0  0  0  0  0  0  0  0  0  0
    0.6847    2.8184   -0.0783 H   0  0  0  0  0  0  0  0  0  0  0  0
   -0.8198    2.3869    0.7325 H   0  0  0  0  0  0  0  0  0  0  0  0
    4.2132   -0.3411    1.1976 H   0  0  0  0  0  0  0  0  0  0  0  0
    4.9143    0.2465   -0.3244 H   0  0  0  0  0  0  0  0  0  0  0  0
    3.6917   -1.4166   -1.6268 H   0  0  0  0  0  0  0  0  0  0  0  0
    4.5926   -2.2459   -0.3577 H   0  0  0  0  0  0  0  0  0  0  0  0
    2.5715   -2.5807    0.9730 H   0  0  0  0  0  0  0  0  0  0  0  0
    2.1845   -3.0619   -0.6888 H   0  0  0  0  0  0  0  0  0  0  0  0
  1  2  1  0
  2  3  1  0
  3  4  1  0
  4  5  2  0
  4  6  1  0
  6  7  1  0
  7  8  1  0
  8  9  2  0
  9 10  1  0
 10 11  1  0
  9 12  1  0
 12 13  2  0
 12 14  1  0
 14 15  1  0
 15 16  1  0
 10  6  2  0
 16  8  1  0
  1 17  1  0
  1 18  1  0
  1 19  1  0
  2 20  1  0
  2 21  1  0
 11 22  1  0
 11 23  1  0
 11 24  1  0
 14 25  1  0
 14 26  1  0
 15 27  1  0
 15 28  1  0
 16 29  1  0
 16 30  1  0
M  END
$$$$
