
     RDKit          3D

 62 65  0  0  0  0  0  0  0  0999 V2000
    0.0976   -1.3361    3.7180 C   0  0  0  0  0  0  0  0  0  0  0  0
   -0.2079   -0.0426    3.0178 C   0  0  0  0  0  0  0  0  0  0  0  0
   -0.8477    0.9428    3.7999 C   0  0  0  0  0  0  0  0  0  0  0  0
   -1.1707    2.2047    3.3000 C   0  0  0  0  0  0  0  0  0  0  0  0
   -1.7852    3.0319    4.1937 O   0  0  0  0  0  0  0  0  0  0  0  0
   -0.8634    2.5485    1.9887 C   0  0  0  0  0  0  0  0  0  0  0  0
   -1.1420    3.8896    1.3289 C   0  0  0  0  0  0  0  0  0  0  0  0
   -2.6377    4.2002    1.2254 C   0  0  0  0  0  0  0  0  0  0  0  0
   -0.3569    5.0390    1.9662 C   0  0  0  0  0  0  0  0  0  0  0  0
   -0.2347    1.5577    1.2065 C   0  0  0  0  0  0  0  0  0  0  0  0
    0.0879    0.2452    1.6696 C   0  0  0  0  0  0  0  0  0  0  0  0
    0.7678   -0.6774    0.6267 C   0  0  0  0  0  0  0  0  0  0  0  0
    0.0167   -0.7576   -0.7355 C   0  0  0  0  0  0  0  0  0  0  0  0
    0.7700   -0.6362   -1.9325 C   0  0  0  0  0  0  0  0  0  0  0  0
    0.1951   -0.7062   -3.2159 C   0  0  0  0  0  0  0  0  0  0  0  0
    1.0996   -0.5526   -4.4296 C   0  0  0  0  0  0  0  0  0  0  0  0
    1.1194   -1.8070   -5.3069 C   0  0  0  0  0  0  0  0  0  0  0  0
    0.7661    0.6966   -5.2489 C   0  0  0  0  0  0  0  0  0  0  0  0
   -1.1803   -0.9081   -3.2969 C   0  0  0  0  0  0  0  0  0  0  0  0
   -1.7831   -0.9738   -4.5202 O   0  0  0  0  0  0  0  0  0  0  0  0
   -1.9534   -1.0444   -2.1442 C   0  0  0  0  0  0  0  0  0  0  0  0
   -1.3754   -0.9913   -0.8600 C   0  0  0  0  0  0  0  0  0  0  0  0
   -2.3232   -1.1247    0.3037 C   0  0  0  0  0  0  0  0  0  0  0  0
    2.0419    0.0367    0.4260 O   0  0  0  0  0  0  0  0  0  0  0  0
    3.1284   -0.6639    0.8411 C   0  0  0  0  0  0  0  0  0  0  0  0
    4.2789   -0.2769    0.8725 O   0  0  0  0  0  0  0  0  0  0  0  0
    2.6514   -1.9920    1.1704 C   0  0  0  0  0  0  0  0  0  0  0  0
    3.4176   -3.0954    1.5136 C   0  0  0  0  0  0  0  0  0  0  0  0
    2.7597   -4.3108    1.6882 C   0  0  0  0  0  0  0  0  0  0  0  0
    1.3730   -4.3935    1.4968 C   0  0  0  0  0  0  0  0  0  0  0  0
    0.6290   -3.2595    1.1470 C   0  0  0  0  0  0  0  0  0  0  0  0
    1.2786   -2.0358    1.0145 C   0  0  0  0  0  0  0  0  0  0  0  0
   -0.1438   -1.2834    4.7862 H   0  0  0  0  0  0  0  0  0  0  0  0
   -0.5095   -2.1458    3.3077 H   0  0  0  0  0  0  0  0  0  0  0  0
    1.1631   -1.5684    3.6657 H   0  0  0  0  0  0  0  0  0  0  0  0
   -1.0979    0.7336    4.8397 H   0  0  0  0  0  0  0  0  0  0  0  0
   -1.9309    3.8974    3.7893 H   0  0  0  0  0  0  0  0  0  0  0  0
   -0.7846    3.8335    0.2909 H   0  0  0  0  0  0  0  0  0  0  0  0
   -3.1730    3.3774    0.7371 H   0  0  0  0  0  0  0  0  0  0  0  0
   -3.1061    4.3682    2.1987 H   0  0  0  0  0  0  0  0  0  0  0  0
   -2.7987    5.1035    0.6258 H   0  0  0  0  0  0  0  0  0  0  0  0
    0.7136    4.8073    1.9987 H   0  0  0  0  0  0  0  0  0  0  0  0
   -0.4814    5.9557    1.3798 H   0  0  0  0  0  0  0  0  0  0  0  0
   -0.6785    5.2611    2.9873 H   0  0  0  0  0  0  0  0  0  0  0  0
    0.0280    1.8129    0.1765 H   0  0  0  0  0  0  0  0  0  0  0  0
    1.8466   -0.4761   -1.8710 H   0  0  0  0  0  0  0  0  0  0  0  0
    2.1288   -0.4165   -4.0706 H   0  0  0  0  0  0  0  0  0  0  0  0
    1.8816   -1.7144   -6.0888 H   0  0  0  0  0  0  0  0  0  0  0  0
    0.1613   -1.9832   -5.8051 H   0  0  0  0  0  0  0  0  0  0  0  0
    1.3564   -2.6966   -4.7131 H   0  0  0  0  0  0  0  0  0  0  0  0
    0.7619    1.5904   -4.6154 H   0  0  0  0  0  0  0  0  0  0  0  0
    1.5126    0.8482   -6.0363 H   0  0  0  0  0  0  0  0  0  0  0  0
   -0.2118    0.6276   -5.7348 H   0  0  0  0  0  0  0  0  0  0  0  0
   -2.7353   -1.1160   -4.3988 H   0  0  0  0  0  0  0  0  0  0  0  0
   -3.0270   -1.1949   -2.2334 H   0  0  0  0  0  0  0  0  0  0  0  0
   -1.8660   -1.6215    1.1600 H   0  0  0  0  0  0  0  0  0  0  0  0
   -2.6923   -0.1399    0.6045 H   0  0  0  0  0  0  0  0  0  0  0  0
   -3.1875   -1.7405    0.0299 H   0  0  0  0  0  0  0  0  0  0  0  0
    4.4955   -3.0153    1.6196 H   0  0  0  0  0  0  0  0  0  0  0  0
    3.3251   -5.2020    1.9518 H   0  0  0  0  0  0  0  0  0  0  0  0
    0.8719   -5.3532    1.6111 H   0  0  0  0  0  0  0  0  0  0  0  0
   -0.4393   -3.3565    0.9825 H   0  0  0  0  0  0  0  0  0  0  0  0
  1  2  1  0
  2  3  2  0
  3  4  1  0
  4  5  1  0
  4  6  2  0
  6  7  1  0
  7  8  1  0
  7  9  1  0
  6 10  1  0
 10 11  2  0
 11 12  1  0
 12 13  1  0
 13 14  2  0
 14 15  1  0
 15 16  1  0
 16 17  1  0
 16 18  1  0
 15 19  2  0
 19 20  1  0
 19 21  1  0
 21 22  2  0
 22 23  1  0
 12 24  1  0
 24 25  1  0
 25 26  2  0
 25 27  1  0
 27 28  2  0
 28 29  1  0
 29 30  2  0
 30 31  1  0
 31 32  2  0
 11  2  1  0
 32 12  1  0
 22 13  1  0
 32 27  1  0
  1 33  1  0
  1 34  1  0
  1 35  1  0
  3 36  1  0
  5 37  1  0
  7 38  1  0
  8 39  1  0
  8 40  1  0
  8 41  1  0
  9 42  1  0
  9 43  1  0
  9 44  1  0
 10 45  1  0
 14 46  1  0
 16 47  1  0
 17 48  1  0
 17 49  1  0
 17 50  1  0
 18 51  1  0
 18 52  1  0
 18 53  1  0
 20 54  1  0
 21 55  1  0
 23 56  1  0
 23 57  1  0
 23 58  1  0
 28 59  1  0
 29 60  1  0
 30 61  1  0
 31 62  1  0
M  END
$$$$
