
     RDKit          3D

 49 51  0  0  0  0  0  0  0  0999 V2000
    5.6591    3.1446   -2.1753 C   0  0  0  0  0  0  0  0  0  0  0  0
    4.5941    2.4379   -1.3542 C   0  0  0  0  0  0  0  0  0  0  0  0
    3.6026    1.3541   -2.4280 S   0  0  0  0  0  0  0  0  0  0  0  0
    2.4209    0.7554   -1.2868 C   0  0  0  0  0  0  0  0  0  0  0  0
    2.5256    1.0116   -0.0280 N   0  0  0  0  0  0  0  0  0  0  0  0
    1.5531    0.5174    0.8114 C   0  0  0  0  0  0  0  0  0  0  0  0
    1.5067    0.8130    2.0004 O   0  0  0  0  0  0  0  0  0  0  0  0
    0.5079   -0.3935    0.2463 C   0  0  0  0  0  0  0  0  0  0  0  0
    0.4595   -0.5793   -1.0854 C   0  0  0  0  0  0  0  0  0  0  0  0
    1.4269    0.0197   -1.8364 N   0  0  0  0  0  0  0  0  0  0  0  0
   -0.5036   -1.3548   -1.6851 N   0  0  0  0  0  0  0  0  0  0  0  0
   -1.5542   -1.7005   -1.0034 C   0  0  0  0  0  0  0  0  0  0  0  0
   -2.6168   -2.5121   -1.7033 C   0  0  0  0  0  0  0  0  0  0  0  0
   -1.8060   -1.3266    0.4440 C   0  0  0  0  0  0  0  0  0  0  0  0
   -2.7655   -0.1674    0.5868 C   0  0  0  0  0  0  0  0  0  0  0  0
   -3.6043   -0.0979    1.4755 O   0  0  0  0  0  0  0  0  0  0  0  0
   -2.5359    0.7940   -0.3443 O   0  0  0  0  0  0  0  0  0  0  0  0
   -3.3229    1.9958   -0.2351 C   0  0  0  0  0  0  0  0  0  0  0  0
   -2.6656    2.9394    0.7666 C   0  0  0  0  0  0  0  0  0  0  0  0
   -3.3731    2.6282   -1.6204 C   0  0  0  0  0  0  0  0  0  0  0  0
   -0.4994   -0.9948    1.1828 C   0  0  0  0  0  0  0  0  0  0  0  0
    0.0755   -2.2093    1.9098 C   0  0  0  0  0  0  0  0  0  0  0  0
    0.3273   -2.1343    3.2851 C   0  0  0  0  0  0  0  0  0  0  0  0
    0.8601   -3.2376    3.9329 C   0  0  0  0  0  0  0  0  0  0  0  0
    1.1557   -4.3991    3.3148 N   0  0  0  0  0  0  0  0  0  0  0  0
    0.9251   -4.4518    1.9871 C   0  0  0  0  0  0  0  0  0  0  0  0
    0.3961   -3.4024    1.2505 C   0  0  0  0  0  0  0  0  0  0  0  0
    6.2364    3.8213   -1.5322 H   0  0  0  0  0  0  0  0  0  0  0  0
    6.3623    2.4324   -2.6196 H   0  0  0  0  0  0  0  0  0  0  0  0
    5.2167    3.7479   -2.9770 H   0  0  0  0  0  0  0  0  0  0  0  0
    5.0769    1.8360   -0.5783 H   0  0  0  0  0  0  0  0  0  0  0  0
    3.9476    3.1820   -0.8748 H   0  0  0  0  0  0  0  0  0  0  0  0
    1.4116   -0.1658   -2.8288 H   0  0  0  0  0  0  0  0  0  0  0  0
   -2.3205   -2.7277   -2.7338 H   0  0  0  0  0  0  0  0  0  0  0  0
   -2.7621   -3.4548   -1.1691 H   0  0  0  0  0  0  0  0  0  0  0  0
   -3.5563   -1.9539   -1.7116 H   0  0  0  0  0  0  0  0  0  0  0  0
   -2.3084   -2.1859    0.9106 H   0  0  0  0  0  0  0  0  0  0  0  0
   -4.3475    1.7569    0.0755 H   0  0  0  0  0  0  0  0  0  0  0  0
   -2.6087    2.4759    1.7589 H   0  0  0  0  0  0  0  0  0  0  0  0
   -3.2226    3.8760    0.8544 H   0  0  0  0  0  0  0  0  0  0  0  0
   -1.6357    3.1695    0.4700 H   0  0  0  0  0  0  0  0  0  0  0  0
   -3.8010    1.9251   -2.3433 H   0  0  0  0  0  0  0  0  0  0  0  0
   -2.3672    2.8755   -1.9783 H   0  0  0  0  0  0  0  0  0  0  0  0
   -3.9795    3.5411   -1.6204 H   0  0  0  0  0  0  0  0  0  0  0  0
   -0.7438   -0.2435    1.9489 H   0  0  0  0  0  0  0  0  0  0  0  0
    0.1304   -1.2274    3.8482 H   0  0  0  0  0  0  0  0  0  0  0  0
    1.0733   -3.2103    4.9989 H   0  0  0  0  0  0  0  0  0  0  0  0
    1.1896   -5.3906    1.5108 H   0  0  0  0  0  0  0  0  0  0  0  0
    0.2594   -3.5296    0.1827 H   0  0  0  0  0  0  0  0  0  0  0  0
  1  2  1  0
  2  3  1  0
  3  4  1  0
  4  5  2  0
  5  6  1  0
  6  7  2  0
  6  8  1  0
  8  9  2  0
  9 10  1  0
  9 11  1  0
 11 12  2  0
 12 13  1  0
 12 14  1  0
 14 15  1  0
 15 16  2  0
 15 17  1  0
 17 18  1  0
 18 19  1  0
 18 20  1  0
 14 21  1  0
 21 22  1  0
 22 23  2  0
 23 24  1  0
 24 25  2  0
 25 26  1  0
 26 27  2  0
 10  4  1  0
 27 22  1  0
 21  8  1  0
  1 28  1  0
  1 29  1  0
  1 30  1  0
  2 31  1  0
  2 32  1  0
 10 33  1  0
 13 34  1  0
 13 35  1  0
 13 36  1  0
 14 37  1  0
 18 38  1  0
 19 39  1  0
 19 40  1  0
 19 41  1  0
 20 42  1  0
 20 43  1  0
 20 44  1  0
 21 45  1  0
 23 46  1  0
 24 47  1  0
 26 48  1  0
 27 49  1  0
M  END
$$$$
