
     RDKit          3D

 54 56  0  0  0  0  0  0  0  0999 V2000
   -4.1062   -1.3161    3.1086 C   0  0  0  0  0  0  0  0  0  0  0  0
   -3.8209   -1.8440    1.7156 C   0  0  0  0  0  0  0  0  0  0  0  0
   -2.5503   -1.3630    1.2577 O   0  0  0  0  0  0  0  0  0  0  0  0
   -2.5568   -0.1504    0.6308 C   0  0  0  0  0  0  0  0  0  0  0  0
   -3.5623    0.5274    0.4537 O   0  0  0  0  0  0  0  0  0  0  0  0
   -1.2176    0.2619    0.2223 C   0  0  0  0  0  0  0  0  0  0  0  0
   -0.9639    0.8626   -1.0041 C   0  0  0  0  0  0  0  0  0  0  0  0
   -1.7874    1.1431   -2.0495 N   0  0  0  0  0  0  0  0  0  0  0  0
   -2.5782    2.1516   -1.8712 C   0  0  0  0  0  0  0  0  0  0  0  0
   -3.5034    2.6293   -2.7761 N   0  0  0  0  0  0  0  0  0  0  0  0
   -4.5805    3.4876   -2.3055 C   0  0  0  0  0  0  0  0  0  0  0  0
   -3.7980    1.8394   -3.9644 C   0  0  0  0  0  0  0  0  0  0  0  0
    0.7089    1.1906   -1.2020 S   0  0  0  0  0  0  0  0  0  0  0  0
    1.1153    0.5461    0.3216 C   0  0  0  0  0  0  0  0  0  0  0  0
    2.4855    0.5855    0.7929 C   0  0  0  0  0  0  0  0  0  0  0  0
    3.5736    0.2222    0.1758 N   0  0  0  0  0  0  0  0  0  0  0  0
    3.4663   -0.3095   -1.0712 N   0  0  0  0  0  0  0  0  0  0  0  0
    4.6474   -0.5526   -1.8043 C   0  0  0  0  0  0  0  0  0  0  0  0
    5.9142   -0.5601   -1.2081 C   0  0  0  0  0  0  0  0  0  0  0  0
    7.0582   -0.8666   -1.9508 C   0  0  0  0  0  0  0  0  0  0  0  0
    6.9459   -1.1937   -3.2998 C   0  0  0  0  0  0  0  0  0  0  0  0
    5.6904   -1.2243   -3.9017 C   0  0  0  0  0  0  0  0  0  0  0  0
    4.5501   -0.9156   -3.1551 C   0  0  0  0  0  0  0  0  0  0  0  0
   -0.0068    0.1052    1.0016 C   0  0  0  0  0  0  0  0  0  0  0  0
    0.0961   -0.4425    2.3496 C   0  0  0  0  0  0  0  0  0  0  0  0
    0.7301   -1.6726    2.5666 C   0  0  0  0  0  0  0  0  0  0  0  0
    0.8186   -2.1959    3.8585 C   0  0  0  0  0  0  0  0  0  0  0  0
    0.2720   -1.4918    4.9301 C   0  0  0  0  0  0  0  0  0  0  0  0
    0.3765   -2.1389    6.5202 Cl  0  0  0  0  0  0  0  0  0  0  0  0
   -0.3611   -0.2671    4.7225 C   0  0  0  0  0  0  0  0  0  0  0  0
   -0.4504    0.2591    3.4316 C   0  0  0  0  0  0  0  0  0  0  0  0
   -4.1605   -0.2231    3.1116 H   0  0  0  0  0  0  0  0  0  0  0  0
   -5.0506   -1.7148    3.4890 H   0  0  0  0  0  0  0  0  0  0  0  0
   -3.3031   -1.5968    3.7975 H   0  0  0  0  0  0  0  0  0  0  0  0
   -3.7591   -2.9364    1.7426 H   0  0  0  0  0  0  0  0  0  0  0  0
   -4.6235   -1.5855    1.0155 H   0  0  0  0  0  0  0  0  0  0  0  0
   -2.5729    2.7393   -0.9318 H   0  0  0  0  0  0  0  0  0  0  0  0
   -5.0608    4.0103   -3.1394 H   0  0  0  0  0  0  0  0  0  0  0  0
   -4.2004    4.2520   -1.6191 H   0  0  0  0  0  0  0  0  0  0  0  0
   -5.3386    2.8962   -1.7822 H   0  0  0  0  0  0  0  0  0  0  0  0
   -2.8756    1.5438   -4.4758 H   0  0  0  0  0  0  0  0  0  0  0  0
   -4.3934    2.4141   -4.6825 H   0  0  0  0  0  0  0  0  0  0  0  0
   -4.3580    0.9373   -3.6961 H   0  0  0  0  0  0  0  0  0  0  0  0
    2.6219    0.9369    1.8308 H   0  0  0  0  0  0  0  0  0  0  0  0
    2.6808   -0.0296   -1.6588 H   0  0  0  0  0  0  0  0  0  0  0  0
    6.0168   -0.3213   -0.1527 H   0  0  0  0  0  0  0  0  0  0  0  0
    8.0328   -0.8508   -1.4720 H   0  0  0  0  0  0  0  0  0  0  0  0
    7.8341   -1.4346   -3.8774 H   0  0  0  0  0  0  0  0  0  0  0  0
    5.5964   -1.4924   -4.9506 H   0  0  0  0  0  0  0  0  0  0  0  0
    3.5786   -0.9615   -3.6395 H   0  0  0  0  0  0  0  0  0  0  0  0
    1.1524   -2.2344    1.7349 H   0  0  0  0  0  0  0  0  0  0  0  0
    1.3110   -3.1512    4.0196 H   0  0  0  0  0  0  0  0  0  0  0  0
   -0.7872    0.2804    5.5594 H   0  0  0  0  0  0  0  0  0  0  0  0
   -0.9468    1.2151    3.2809 H   0  0  0  0  0  0  0  0  0  0  0  0
  1  2  1  0
  2  3  1  0
  3  4  1  0
  4  5  2  0
  4  6  1  0
  6  7  2  0
  7  8  1  0
  8  9  2  3
  9 10  1  0
 10 11  1  0
 10 12  1  0
  7 13  1  0
 13 14  1  0
 14 15  1  0
 15 16  2  3
 16 17  1  0
 17 18  1  0
 18 19  2  0
 19 20  1  0
 20 21  2  0
 21 22  1  0
 22 23  2  0
 14 24  2  0
 24 25  1  0
 25 26  2  0
 26 27  1  0
 27 28  2  0
 28 29  1  0
 28 30  1  0
 30 31  2  0
 24  6  1  0
 31 25  1  0
 23 18  1  0
  1 32  1  0
  1 33  1  0
  1 34  1  0
  2 35  1  0
  2 36  1  0
  9 37  1  0
 11 38  1  0
 11 39  1  0
 11 40  1  0
 12 41  1  0
 12 42  1  0
 12 43  1  0
 15 44  1  0
 17 45  1  0
 19 46  1  0
 20 47  1  0
 21 48  1  0
 22 49  1  0
 23 50  1  0
 26 51  1  0
 27 52  1  0
 30 53  1  0
 31 54  1  0
M  END
$$$$
