
     RDKit          3D

 40 43  0  0  0  0  0  0  0  0999 V2000
    2.4107    0.1035    2.7357 O   0  0  0  0  0  0  0  0  0  0  0  0
    2.1185    0.6147    1.4153 S   0  0  0  0  0  6  0  0  0  0  0  0
    1.7979    2.0141    1.2163 O   0  0  0  0  0  0  0  0  0  0  0  0
    3.4843    0.2297    0.3940 C   0  0  0  0  0  0  0  0  0  0  0  0
    4.2445    1.2442   -0.2304 C   0  0  0  0  0  0  0  0  0  0  0  0
    5.3552    0.9634   -1.0662 C   0  0  0  0  0  0  0  0  0  0  0  0
    5.7913   -0.3454   -1.3438 C   0  0  0  0  0  0  0  0  0  0  0  0
    5.0402   -1.3651   -0.7272 C   0  0  0  0  0  0  0  0  0  0  0  0
    5.2040   -2.6903   -0.8024 N   0  0  0  0  0  0  0  0  0  0  0  0
    4.2080   -3.2380   -0.0146 O   0  0  0  0  0  0  0  0  0  0  0  0
    3.4069   -2.2642    0.5509 N   0  0  0  0  0  0  0  0  0  0  0  0
    3.8956   -1.0877    0.1360 C   0  0  0  0  0  0  0  0  0  0  0  0
    0.8398   -0.2768    0.7437 N   0  0  0  0  0  0  0  0  0  0  0  0
    0.3882    0.1416   -0.6234 C   0  0  0  0  0  0  0  0  0  0  0  0
   -0.9883    0.8318   -0.6118 C   0  0  0  0  0  0  0  0  0  0  0  0
   -2.0141   -0.0663   -0.0557 N   0  0  0  0  0  0  0  0  0  0  0  0
   -3.3677    0.1465   -0.2948 C   0  0  0  0  0  0  0  0  0  0  0  0
   -4.3083   -0.8719   -0.0502 C   0  0  0  0  0  0  0  0  0  0  0  0
   -5.6787   -0.6976   -0.2895 C   0  0  0  0  0  0  0  0  0  0  0  0
   -6.1542    0.5089   -0.7890 C   0  0  0  0  0  0  0  0  0  0  0  0
   -5.2561    1.5356   -1.0517 C   0  0  0  0  0  0  0  0  0  0  0  0
   -3.8919    1.3506   -0.8106 C   0  0  0  0  0  0  0  0  0  0  0  0
   -3.0866    2.3945   -1.0694 F   0  0  0  0  0  0  0  0  0  0  0  0
   -1.5673   -0.9981    0.9966 C   0  0  0  0  0  0  0  0  0  0  0  0
   -0.2950   -0.4897    1.6993 C   0  0  0  0  0  0  0  0  0  0  0  0
    3.9778    2.2900   -0.0644 H   0  0  0  0  0  0  0  0  0  0  0  0
    5.8971    1.7996   -1.5111 H   0  0  0  0  0  0  0  0  0  0  0  0
    6.6404   -0.5573   -1.9816 H   0  0  0  0  0  0  0  0  0  0  0  0
    1.1207    0.8025   -1.0981 H   0  0  0  0  0  0  0  0  0  0  0  0
    0.3462   -0.7658   -1.2391 H   0  0  0  0  0  0  0  0  0  0  0  0
   -1.2289    1.0923   -1.6492 H   0  0  0  0  0  0  0  0  0  0  0  0
   -0.9401    1.7532   -0.0195 H   0  0  0  0  0  0  0  0  0  0  0  0
   -3.9832   -1.8445    0.3109 H   0  0  0  0  0  0  0  0  0  0  0  0
   -6.3690   -1.5136   -0.0895 H   0  0  0  0  0  0  0  0  0  0  0  0
   -7.2156    0.6468   -0.9753 H   0  0  0  0  0  0  0  0  0  0  0  0
   -5.6017    2.4879   -1.4411 H   0  0  0  0  0  0  0  0  0  0  0  0
   -1.3759   -1.9774    0.5420 H   0  0  0  0  0  0  0  0  0  0  0  0
   -2.3354   -1.1260    1.7687 H   0  0  0  0  0  0  0  0  0  0  0  0
   -0.5232    0.4519    2.2143 H   0  0  0  0  0  0  0  0  0  0  0  0
    0.0142   -1.2276    2.4478 H   0  0  0  0  0  0  0  0  0  0  0  0
  1  2  2  0
  2  3  2  0
  2  4  1  0
  4  5  2  0
  5  6  1  0
  6  7  2  0
  7  8  1  0
  8  9  2  0
  9 10  1  0
 10 11  1  0
 11 12  2  0
  2 13  1  0
 13 14  1  0
 14 15  1  0
 15 16  1  0
 16 17  1  0
 17 18  2  0
 18 19  1  0
 19 20  2  0
 20 21  1  0
 21 22  2  0
 22 23  1  0
 16 24  1  0
 24 25  1  0
 12  4  1  0
 25 13  1  0
 12  8  1  0
 22 17  1  0
  5 26  1  0
  6 27  1  0
  7 28  1  0
 14 29  1  0
 14 30  1  0
 15 31  1  0
 15 32  1  0
 18 33  1  0
 19 34  1  0
 20 35  1  0
 21 36  1  0
 24 37  1  0
 24 38  1  0
 25 39  1  0
 25 40  1  0
M  END
$$$$
