
     RDKit          3D

 36 39  0  0  0  0  0  0  0  0999 V2000
   -3.0771   -1.3375   -2.7371 O   0  0  0  0  0  0  0  0  0  0  0  0
   -3.7282   -0.7883   -1.6689 C   0  0  0  0  0  0  0  0  0  0  0  0
   -5.0993   -0.5921   -1.8360 C   0  0  0  0  0  0  0  0  0  0  0  0
   -5.8633   -0.0686   -0.7921 C   0  0  0  0  0  0  0  0  0  0  0  0
   -5.2504    0.2611    0.4155 C   0  0  0  0  0  0  0  0  0  0  0  0
   -6.1954    0.9040    1.7015 Cl  0  0  0  0  0  0  0  0  0  0  0  0
   -3.8787    0.0825    0.5855 C   0  0  0  0  0  0  0  0  0  0  0  0
   -3.1085   -0.4363   -0.4641 C   0  0  0  0  0  0  0  0  0  0  0  0
   -1.6477   -0.5588   -0.2864 C   0  0  0  0  0  0  0  0  0  0  0  0
   -1.0849   -0.4062    0.8715 N   0  0  0  0  0  0  0  0  0  0  0  0
    0.3163   -0.5429    0.8906 C   0  0  0  0  0  0  0  0  0  0  0  0
    0.8726   -1.7808    1.2822 C   0  0  0  0  0  0  0  0  0  0  0  0
    2.2615   -1.9871    1.3158 C   0  0  0  0  0  0  0  0  0  0  0  0
    3.0944   -0.9407    0.9612 C   0  0  0  0  0  0  0  0  0  0  0  0
    2.5461    0.2625    0.5985 C   0  0  0  0  0  0  0  0  0  0  0  0
    3.5335    1.1658    0.2978 C   0  0  0  0  0  0  0  0  0  0  0  0
    3.1865    2.4506   -0.0850 C   0  0  0  0  0  0  0  0  0  0  0  0
    1.8267    2.7899   -0.1488 C   0  0  0  0  0  0  0  0  0  0  0  0
    0.8282    1.8468    0.1649 C   0  0  0  0  0  0  0  0  0  0  0  0
    1.1758    0.5323    0.5492 C   0  0  0  0  0  0  0  0  0  0  0  0
    4.8958    0.5571    0.4538 C   0  0  0  0  0  0  0  0  0  0  0  0
    4.5935   -0.8923    0.9171 C   0  0  0  0  0  0  0  0  0  0  0  0
   -2.3102   -1.8489   -2.4304 H   0  0  0  0  0  0  0  0  0  0  0  0
   -5.5753   -0.8564   -2.7773 H   0  0  0  0  0  0  0  0  0  0  0  0
   -6.9321    0.0766   -0.9264 H   0  0  0  0  0  0  0  0  0  0  0  0
   -3.4088    0.3583    1.5271 H   0  0  0  0  0  0  0  0  0  0  0  0
   -1.0426   -0.7808   -1.1838 H   0  0  0  0  0  0  0  0  0  0  0  0
    0.2055   -2.5905    1.5684 H   0  0  0  0  0  0  0  0  0  0  0  0
    2.6660   -2.9471    1.6207 H   0  0  0  0  0  0  0  0  0  0  0  0
    3.9472    3.1866   -0.3259 H   0  0  0  0  0  0  0  0  0  0  0  0
    1.5368    3.7973   -0.4391 H   0  0  0  0  0  0  0  0  0  0  0  0
   -0.2183    2.1378    0.1204 H   0  0  0  0  0  0  0  0  0  0  0  0
    5.4833    1.0919    1.2071 H   0  0  0  0  0  0  0  0  0  0  0  0
    5.4377    0.5564   -0.4976 H   0  0  0  0  0  0  0  0  0  0  0  0
    5.0225   -1.0814    1.9066 H   0  0  0  0  0  0  0  0  0  0  0  0
    4.9909   -1.6205    0.2027 H   0  0  0  0  0  0  0  0  0  0  0  0
  1  2  1  0
  2  3  2  0
  3  4  1  0
  4  5  2  0
  5  6  1  0
  5  7  1  0
  7  8  2  0
  8  9  1  0
  9 10  2  3
 10 11  1  0
 11 12  2  0
 12 13  1  0
 13 14  2  0
 14 15  1  0
 15 16  2  0
 16 17  1  0
 17 18  2  0
 18 19  1  0
 19 20  2  0
 16 21  1  0
 21 22  1  0
  8  2  1  0
 20 11  1  0
 22 14  1  0
 20 15  1  0
  1 23  1  0
  3 24  1  0
  4 25  1  0
  7 26  1  0
  9 27  1  0
 12 28  1  0
 13 29  1  0
 17 30  1  0
 18 31  1  0
 19 32  1  0
 21 33  1  0
 21 34  1  0
 22 35  1  0
 22 36  1  0
M  END
$$$$
