
     RDKit          3D

 60 64  0  0  0  0  0  0  0  0999 V2000
    7.5869    0.7434    1.0344 C   0  0  0  0  0  0  0  0  0  0  0  0
    6.3521    0.9425    0.3391 O   0  0  0  0  0  0  0  0  0  0  0  0
    6.1812    0.0521   -0.6917 C   0  0  0  0  0  0  0  0  0  0  0  0
    7.0896    0.0280   -1.7549 C   0  0  0  0  0  0  0  0  0  0  0  0
    6.8798   -0.8294   -2.8384 C   0  0  0  0  0  0  0  0  0  0  0  0
    5.7538   -1.6499   -2.8696 C   0  0  0  0  0  0  0  0  0  0  0  0
    4.8322   -1.6071   -1.8218 C   0  0  0  0  0  0  0  0  0  0  0  0
    5.0317   -0.7563   -0.7179 C   0  0  0  0  0  0  0  0  0  0  0  0
    4.0672   -0.7527    0.3760 C   0  0  0  0  0  0  0  0  0  0  0  0
    4.2578   -0.6663    1.6749 N   0  0  0  0  0  0  0  0  0  0  0  0
    2.9821   -0.7248    2.1907 C   0  0  0  0  0  0  0  0  0  0  0  0
    2.7603   -0.7003    3.5978 C   0  0  0  0  0  0  0  0  0  0  0  0
    2.5449   -0.6767    4.7402 N   0  0  0  0  0  0  0  0  0  0  0  0
    2.0429   -0.8324    1.1794 C   0  0  0  0  0  0  0  0  0  0  0  0
    0.6913   -0.9088    1.0810 N   0  0  0  0  0  0  0  0  0  0  0  0
   -0.1966   -0.4965    2.1767 C   0  0  0  0  0  0  0  0  0  0  0  0
   -1.4239    0.2736    1.6294 C   0  0  0  0  0  0  0  0  0  0  0  0
   -2.2641   -0.4727    0.6522 N   0  0  0  0  0  0  0  0  0  0  0  0
   -2.9710    0.4632   -0.2789 C   0  0  0  0  0  0  0  0  0  0  0  0
   -3.8962   -0.2578   -1.2729 C   0  0  0  0  0  0  0  0  0  0  0  0
   -4.7967   -1.2556   -0.8518 C   0  0  0  0  0  0  0  0  0  0  0  0
   -5.6285   -1.9040   -1.7687 C   0  0  0  0  0  0  0  0  0  0  0  0
   -5.5728   -1.5676   -3.1197 C   0  0  0  0  0  0  0  0  0  0  0  0
   -4.6873   -0.5797   -3.5557 C   0  0  0  0  0  0  0  0  0  0  0  0
   -3.8599    0.0769   -2.6392 C   0  0  0  0  0  0  0  0  0  0  0  0
   -3.7544    1.5743    0.4363 C   0  0  0  0  0  0  0  0  0  0  0  0
   -3.6351    2.9039   -0.0038 C   0  0  0  0  0  0  0  0  0  0  0  0
   -4.3525    3.9280    0.6181 C   0  0  0  0  0  0  0  0  0  0  0  0
   -5.2004    3.6383    1.6852 C   0  0  0  0  0  0  0  0  0  0  0  0
   -5.3362    2.3262    2.1311 C   0  0  0  0  0  0  0  0  0  0  0  0
   -4.6221    1.3003    1.5089 C   0  0  0  0  0  0  0  0  0  0  0  0
   -1.4329   -1.4696   -0.0731 C   0  0  0  0  0  0  0  0  0  0  0  0
    0.0583   -1.1004   -0.2309 C   0  0  0  0  0  0  0  0  0  0  0  0
    2.7531   -0.8797    0.0066 O   0  0  0  0  0  0  0  0  0  0  0  0
    7.7954   -0.3210    1.2026 H   0  0  0  0  0  0  0  0  0  0  0  0
    7.5041    1.2275    2.0116 H   0  0  0  0  0  0  0  0  0  0  0  0
    8.4144    1.2205    0.4940 H   0  0  0  0  0  0  0  0  0  0  0  0
    7.9528    0.6887   -1.7604 H   0  0  0  0  0  0  0  0  0  0  0  0
    7.5917   -0.8506   -3.6592 H   0  0  0  0  0  0  0  0  0  0  0  0
    5.5908   -2.3207   -3.7102 H   0  0  0  0  0  0  0  0  0  0  0  0
    3.9566   -2.2539   -1.8636 H   0  0  0  0  0  0  0  0  0  0  0  0
   -0.5204   -1.3823    2.7391 H   0  0  0  0  0  0  0  0  0  0  0  0
    0.3174    0.1751    2.8742 H   0  0  0  0  0  0  0  0  0  0  0  0
   -2.0459    0.5631    2.4848 H   0  0  0  0  0  0  0  0  0  0  0  0
   -1.0379    1.1978    1.1736 H   0  0  0  0  0  0  0  0  0  0  0  0
   -2.1821    0.9546   -0.8703 H   0  0  0  0  0  0  0  0  0  0  0  0
   -4.8427   -1.5378    0.1995 H   0  0  0  0  0  0  0  0  0  0  0  0
   -6.3195   -2.6734   -1.4274 H   0  0  0  0  0  0  0  0  0  0  0  0
   -6.2198   -2.0742   -3.8321 H   0  0  0  0  0  0  0  0  0  0  0  0
   -4.6414   -0.3214   -4.6119 H   0  0  0  0  0  0  0  0  0  0  0  0
   -3.1814    0.8490   -3.0016 H   0  0  0  0  0  0  0  0  0  0  0  0
   -2.9853    3.1512   -0.8402 H   0  0  0  0  0  0  0  0  0  0  0  0
   -4.2577    4.9515    0.2642 H   0  0  0  0  0  0  0  0  0  0  0  0
   -5.7621    4.4358    2.1659 H   0  0  0  0  0  0  0  0  0  0  0  0
   -6.0021    2.0992    2.9597 H   0  0  0  0  0  0  0  0  0  0  0  0
   -4.7423    0.2826    1.8666 H   0  0  0  0  0  0  0  0  0  0  0  0
   -1.8366   -1.7175   -1.0610 H   0  0  0  0  0  0  0  0  0  0  0  0
   -1.4921   -2.4064    0.5006 H   0  0  0  0  0  0  0  0  0  0  0  0
    0.1569   -0.1857   -0.8294 H   0  0  0  0  0  0  0  0  0  0  0  0
    0.5546   -1.9140   -0.7751 H   0  0  0  0  0  0  0  0  0  0  0  0
  1  2  1  0
  2  3  1  0
  3  4  2  0
  4  5  1  0
  5  6  2  0
  6  7  1  0
  7  8  2  0
  8  9  1  0
  9 10  2  0
 10 11  1  0
 11 12  1  0
 12 13  3  0
 11 14  2  0
 14 15  1  0
 15 16  1  0
 16 17  1  0
 17 18  1  0
 18 19  1  0
 19 20  1  0
 20 21  2  0
 21 22  1  0
 22 23  2  0
 23 24  1  0
 24 25  2  0
 19 26  1  0
 26 27  2  0
 27 28  1  0
 28 29  2  0
 29 30  1  0
 30 31  2  0
 18 32  1  0
 32 33  1  0
 14 34  1  0
  8  3  1  0
 34  9  1  0
 33 15  1  0
 25 20  1  0
 31 26  1  0
  1 35  1  0
  1 36  1  0
  1 37  1  0
  4 38  1  0
  5 39  1  0
  6 40  1  0
  7 41  1  0
 16 42  1  0
 16 43  1  0
 17 44  1  0
 17 45  1  0
 19 46  1  0
 21 47  1  0
 22 48  1  0
 23 49  1  0
 24 50  1  0
 25 51  1  0
 27 52  1  0
 28 53  1  0
 29 54  1  0
 30 55  1  0
 31 56  1  0
 32 57  1  0
 32 58  1  0
 33 59  1  0
 33 60  1  0
M  END
$$$$
