
     RDKit          3D

 61 63  0  0  0  0  0  0  0  0999 V2000
    6.9901    3.0533   -0.2572 C   0  0  0  0  0  0  0  0  0  0  0  0
    6.3126    1.7933   -0.5025 N   0  0  0  0  0  0  0  0  0  0  0  0
    5.4127    1.3432    0.4499 C   0  0  0  0  0  0  0  0  0  0  0  0
    5.1201    1.9600    1.4715 O   0  0  0  0  0  0  0  0  0  0  0  0
    4.7629    0.0499    0.1879 C   0  0  0  0  0  0  0  0  0  0  0  0
    3.9079   -0.4998    1.1560 C   0  0  0  0  0  0  0  0  0  0  0  0
    3.2697   -1.7112    0.8969 C   0  0  0  0  0  0  0  0  0  0  0  0
    2.2055   -2.4311    2.1238 S   0  0  0  0  0  6  0  0  0  0  0  0
    2.1046   -3.8434    1.8304 O   0  0  0  0  0  0  0  0  0  0  0  0
    2.6102   -1.9443    3.4228 O   0  0  0  0  0  0  0  0  0  0  0  0
    0.7243   -1.7479    1.7159 N   0  0  0  0  0  0  0  0  0  0  0  0
    0.3136   -0.5224    2.4240 C   0  0  0  0  0  0  0  0  0  0  0  0
   -0.8389    0.1544    1.6911 C   0  0  0  0  0  0  0  0  0  0  0  0
   -2.1109   -0.6681    1.7312 C   0  0  0  0  0  0  0  0  0  0  0  0
   -2.1377   -1.8483    2.0647 O   0  0  0  0  0  0  0  0  0  0  0  0
   -3.2231    0.0393    1.3183 N   0  0  0  0  0  0  0  0  0  0  0  0
   -4.5141   -0.6071    1.1262 C   0  0  0  0  0  0  0  0  0  0  0  0
   -4.5892   -1.3985   -0.1876 C   0  0  0  0  0  0  0  0  0  0  0  0
   -4.0292   -0.7520   -1.4573 C   0  0  0  0  0  0  0  0  0  0  0  0
   -4.5628    0.6219   -1.8555 C   0  0  0  0  0  0  0  0  0  0  0  0
   -6.0740    0.7723   -1.7112 C   0  0  0  0  0  0  0  0  0  0  0  0
   -6.5043    1.7438   -0.6151 C   0  0  0  0  0  0  0  0  0  0  0  0
   -5.7543    1.6902    0.7151 C   0  0  0  0  0  0  0  0  0  0  0  0
   -5.7063    0.3295    1.4094 C   0  0  0  0  0  0  0  0  0  0  0  0
    3.5002   -2.3845   -0.3024 C   0  0  0  0  0  0  0  0  0  0  0  0
    4.3619   -1.8297   -1.2554 C   0  0  0  0  0  0  0  0  0  0  0  0
    5.0043   -0.6018   -1.0222 C   0  0  0  0  0  0  0  0  0  0  0  0
    5.8760   -0.0106   -1.9751 N   0  0  0  0  0  0  0  0  0  0  0  0
    6.1072   -0.6764   -3.2511 C   0  0  0  0  0  0  0  0  0  0  0  0
    6.5314    1.1944   -1.7374 C   0  0  0  0  0  0  0  0  0  0  0  0
    7.2649    1.7157   -2.5811 O   0  0  0  0  0  0  0  0  0  0  0  0
    6.9419    3.3484    0.7949 H   0  0  0  0  0  0  0  0  0  0  0  0
    8.0420    2.9731   -0.5509 H   0  0  0  0  0  0  0  0  0  0  0  0
    6.5149    3.8273   -0.8686 H   0  0  0  0  0  0  0  0  0  0  0  0
    3.7469    0.0163    2.1009 H   0  0  0  0  0  0  0  0  0  0  0  0
   -0.0098   -2.4660    1.6591 H   0  0  0  0  0  0  0  0  0  0  0  0
    1.1527    0.1807    2.4668 H   0  0  0  0  0  0  0  0  0  0  0  0
    0.0157   -0.7813    3.4471 H   0  0  0  0  0  0  0  0  0  0  0  0
   -1.0392    1.1247    2.1609 H   0  0  0  0  0  0  0  0  0  0  0  0
   -0.5777    0.3264    0.6400 H   0  0  0  0  0  0  0  0  0  0  0  0
   -3.0623    0.9227    0.8530 H   0  0  0  0  0  0  0  0  0  0  0  0
   -4.5847   -1.3722    1.9137 H   0  0  0  0  0  0  0  0  0  0  0  0
   -4.0163   -2.3269   -0.0473 H   0  0  0  0  0  0  0  0  0  0  0  0
   -5.6191   -1.7352   -0.3536 H   0  0  0  0  0  0  0  0  0  0  0  0
   -2.9366   -0.6896   -1.3821 H   0  0  0  0  0  0  0  0  0  0  0  0
   -4.2226   -1.4446   -2.2866 H   0  0  0  0  0  0  0  0  0  0  0  0
   -4.2972    0.7788   -2.9092 H   0  0  0  0  0  0  0  0  0  0  0  0
   -4.0232    1.4044   -1.3146 H   0  0  0  0  0  0  0  0  0  0  0  0
   -6.4769    1.1529   -2.6595 H   0  0  0  0  0  0  0  0  0  0  0  0
   -6.5671   -0.1942   -1.5648 H   0  0  0  0  0  0  0  0  0  0  0  0
   -7.5760    1.5978   -0.4289 H   0  0  0  0  0  0  0  0  0  0  0  0
   -6.4090    2.7657   -1.0044 H   0  0  0  0  0  0  0  0  0  0  0  0
   -6.2854    2.3779    1.3888 H   0  0  0  0  0  0  0  0  0  0  0  0
   -4.7566    2.1247    0.6142 H   0  0  0  0  0  0  0  0  0  0  0  0
   -5.6722    0.5432    2.4877 H   0  0  0  0  0  0  0  0  0  0  0  0
   -6.6489   -0.2081    1.2493 H   0  0  0  0  0  0  0  0  0  0  0  0
    3.0170   -3.3395   -0.5038 H   0  0  0  0  0  0  0  0  0  0  0  0
    4.5132   -2.3883   -2.1751 H   0  0  0  0  0  0  0  0  0  0  0  0
    6.7802   -0.1092   -3.8993 H   0  0  0  0  0  0  0  0  0  0  0  0
    6.5649   -1.6546   -3.0721 H   0  0  0  0  0  0  0  0  0  0  0  0
    5.1560   -0.7908   -3.7796 H   0  0  0  0  0  0  0  0  0  0  0  0
  1  2  1  0
  2  3  1  0
  3  4  2  0
  3  5  1  0
  5  6  2  0
  6  7  1  0
  7  8  1  0
  8  9  2  0
  8 10  2  0
  8 11  1  0
 11 12  1  0
 12 13  1  0
 13 14  1  0
 14 15  2  0
 14 16  1  0
 16 17  1  0
 17 18  1  0
 18 19  1  0
 19 20  1  0
 20 21  1  0
 21 22  1  0
 22 23  1  0
 23 24  1  0
  7 25  2  0
 25 26  1  0
 26 27  2  0
 27 28  1  0
 28 29  1  0
 28 30  1  0
 30 31  2  0
 30  2  1  0
 27  5  1  0
 24 17  1  0
  1 32  1  0
  1 33  1  0
  1 34  1  0
  6 35  1  0
 11 36  1  0
 12 37  1  0
 12 38  1  0
 13 39  1  0
 13 40  1  0
 16 41  1  0
 17 42  1  0
 18 43  1  0
 18 44  1  0
 19 45  1  0
 19 46  1  0
 20 47  1  0
 20 48  1  0
 21 49  1  0
 21 50  1  0
 22 51  1  0
 22 52  1  0
 23 53  1  0
 23 54  1  0
 24 55  1  0
 24 56  1  0
 25 57  1  0
 26 58  1  0
 29 59  1  0
 29 60  1  0
 29 61  1  0
M  END
$$$$
