
     RDKit          3D

 61 65  0  0  0  0  0  0  0  0999 V2000
   -6.0099    0.9085    3.7699 C   0  0  0  0  0  0  0  0  0  0  0  0
   -5.8303    0.5388    2.3274 C   0  0  0  0  0  0  0  0  0  0  0  0
   -4.7869    1.0869    1.5749 C   0  0  0  0  0  0  0  0  0  0  0  0
   -4.6069    0.7167    0.2405 C   0  0  0  0  0  0  0  0  0  0  0  0
   -5.4638   -0.2132   -0.3637 C   0  0  0  0  0  0  0  0  0  0  0  0
   -5.2577   -0.6239   -1.7993 C   0  0  0  0  0  0  0  0  0  0  0  0
   -4.5487   -1.8828   -1.8962 N   0  0  0  0  0  0  0  0  0  0  0  0
   -5.2065   -3.0357   -2.1814 N   0  0  0  0  0  0  0  0  0  0  0  0
   -4.3079   -4.0206   -2.2076 N   0  0  0  0  0  0  0  0  0  0  0  0
   -3.0921   -3.4646   -1.9543 C   0  0  0  0  0  0  0  0  0  0  0  0
   -1.7872   -4.0574   -1.8494 C   0  0  0  0  0  0  0  0  0  0  0  0
   -1.5182   -5.2440   -2.0022 O   0  0  0  0  0  0  0  0  0  0  0  0
   -0.8083   -3.1161   -1.5516 N   0  0  0  0  0  0  0  0  0  0  0  0
   -1.0489   -1.7504   -1.4092 C   0  0  0  0  0  0  0  0  0  0  0  0
    0.1840   -0.9210   -1.0744 C   0  0  0  0  0  0  0  0  0  0  0  0
    0.5970   -1.1699    0.3826 C   0  0  0  0  0  0  0  0  0  0  0  0
    1.8013   -0.3176    0.7757 C   0  0  0  0  0  0  0  0  0  0  0  0
    1.5046    1.1090    0.5166 N   0  0  0  0  0  0  0  0  0  0  0  0
    2.5250    2.2447    1.2921 S   0  0  0  0  0  6  0  0  0  0  0  0
    2.0121    3.5585    0.9618 O   0  0  0  0  0  0  0  0  0  0  0  0
    2.6359    1.8334    2.6772 O   0  0  0  0  0  0  0  0  0  0  0  0
    4.0680    2.0776    0.5109 C   0  0  0  0  0  0  0  0  0  0  0  0
    4.9871    1.2368    1.0096 C   0  0  0  0  0  0  0  0  0  0  0  0
    6.3100    1.0425    0.4068 C   0  0  0  0  0  0  0  0  0  0  0  0
    6.4871    0.9192   -0.9781 C   0  0  0  0  0  0  0  0  0  0  0  0
    7.7594    0.7036   -1.5120 C   0  0  0  0  0  0  0  0  0  0  0  0
    8.8638    0.6011   -0.6674 C   0  0  0  0  0  0  0  0  0  0  0  0
    8.6968    0.7082    0.7118 C   0  0  0  0  0  0  0  0  0  0  0  0
    7.4249    0.9220    1.2465 C   0  0  0  0  0  0  0  0  0  0  0  0
    1.1802    1.3917   -0.9007 C   0  0  0  0  0  0  0  0  0  0  0  0
   -0.0430    0.5774   -1.3064 C   0  0  0  0  0  0  0  0  0  0  0  0
   -2.2282   -1.2048   -1.5195 N   0  0  0  0  0  0  0  0  0  0  0  0
   -3.2066   -2.1068   -1.7779 C   0  0  0  0  0  0  0  0  0  0  0  0
   -6.4956   -0.7769    0.3985 C   0  0  0  0  0  0  0  0  0  0  0  0
   -6.6751   -0.4049    1.7326 C   0  0  0  0  0  0  0  0  0  0  0  0
   -7.0720    1.0204    4.0087 H   0  0  0  0  0  0  0  0  0  0  0  0
   -5.5223    1.8624    3.9990 H   0  0  0  0  0  0  0  0  0  0  0  0
   -5.5785    0.1337    4.4127 H   0  0  0  0  0  0  0  0  0  0  0  0
   -4.1030    1.8039    2.0231 H   0  0  0  0  0  0  0  0  0  0  0  0
   -3.7820    1.1525   -0.3199 H   0  0  0  0  0  0  0  0  0  0  0  0
   -4.6806    0.1272   -2.3506 H   0  0  0  0  0  0  0  0  0  0  0  0
   -6.2213   -0.7276   -2.3120 H   0  0  0  0  0  0  0  0  0  0  0  0
    0.1234   -3.4944   -1.4698 H   0  0  0  0  0  0  0  0  0  0  0  0
    0.9965   -1.2601   -1.7315 H   0  0  0  0  0  0  0  0  0  0  0  0
    0.8388   -2.2282    0.5375 H   0  0  0  0  0  0  0  0  0  0  0  0
   -0.2466   -0.9426    1.0479 H   0  0  0  0  0  0  0  0  0  0  0  0
    2.6819   -0.6276    0.2025 H   0  0  0  0  0  0  0  0  0  0  0  0
    2.0069   -0.4828    1.8375 H   0  0  0  0  0  0  0  0  0  0  0  0
    4.2301    2.6880   -0.3656 H   0  0  0  0  0  0  0  0  0  0  0  0
    4.7968    0.6793    1.9254 H   0  0  0  0  0  0  0  0  0  0  0  0
    5.6404    0.9801   -1.6574 H   0  0  0  0  0  0  0  0  0  0  0  0
    7.8892    0.6127   -2.5875 H   0  0  0  0  0  0  0  0  0  0  0  0
    9.8539    0.4356   -1.0836 H   0  0  0  0  0  0  0  0  0  0  0  0
    9.5572    0.6277    1.3723 H   0  0  0  0  0  0  0  0  0  0  0  0
    7.3158    1.0062    2.3262 H   0  0  0  0  0  0  0  0  0  0  0  0
    0.9472    2.4519   -1.0407 H   0  0  0  0  0  0  0  0  0  0  0  0
    2.0351    1.1412   -1.5392 H   0  0  0  0  0  0  0  0  0  0  0  0
   -0.2747    0.7626   -2.3618 H   0  0  0  0  0  0  0  0  0  0  0  0
   -0.9087    0.9240   -0.7273 H   0  0  0  0  0  0  0  0  0  0  0  0
   -7.1615   -1.5189   -0.0381 H   0  0  0  0  0  0  0  0  0  0  0  0
   -7.4776   -0.8609    2.3083 H   0  0  0  0  0  0  0  0  0  0  0  0
  1  2  1  0
  2  3  2  0
  3  4  1  0
  4  5  2  0
  5  6  1  0
  6  7  1  0
  7  8  1  0
  8  9  2  0
  9 10  1  0
 10 11  1  0
 11 12  2  0
 11 13  1  0
 13 14  1  0
 14 15  1  0
 15 16  1  0
 16 17  1  0
 17 18  1  0
 18 19  1  0
 19 20  2  0
 19 21  2  0
 19 22  1  0
 22 23  2  3
 23 24  1  0
 24 25  2  0
 25 26  1  0
 26 27  2  0
 27 28  1  0
 28 29  2  0
 18 30  1  0
 30 31  1  0
 14 32  2  0
 32 33  1  0
  5 34  1  0
 34 35  2  0
 35  2  1  0
 33  7  1  0
 33 10  2  0
 31 15  1  0
 29 24  1  0
  1 36  1  0
  1 37  1  0
  1 38  1  0
  3 39  1  0
  4 40  1  0
  6 41  1  0
  6 42  1  0
 13 43  1  0
 15 44  1  0
 16 45  1  0
 16 46  1  0
 17 47  1  0
 17 48  1  0
 22 49  1  0
 23 50  1  0
 25 51  1  0
 26 52  1  0
 27 53  1  0
 28 54  1  0
 29 55  1  0
 30 56  1  0
 30 57  1  0
 31 58  1  0
 31 59  1  0
 34 60  1  0
 35 61  1  0
M  END
$$$$
