
     RDKit          3D

 52 55  0  0  0  0  0  0  0  0999 V2000
    3.2896    2.4372    0.2868 O   0  0  0  0  0  0  0  0  0  0  0  0
    3.2394    1.2664    0.6581 C   0  0  0  0  0  0  0  0  0  0  0  0
    2.3233    0.8134    1.5945 N   0  0  0  0  0  0  0  0  0  0  0  0
    1.2494    1.7063    1.8725 N   0  0  0  0  0  0  0  0  0  0  0  0
    0.0219    1.1891    1.3665 C   0  0  0  0  0  0  0  0  0  0  0  0
   -1.0982    1.9895    1.4168 C   0  0  0  0  0  0  0  0  0  0  0  0
   -2.2801    1.4589    0.9519 C   0  0  0  0  0  0  0  0  0  0  0  0
   -3.4532    2.1764    0.9718 N   0  0  0  0  0  0  0  0  0  0  0  0
   -4.6747    1.5863    0.4384 C   0  0  0  0  0  0  0  0  0  0  0  0
   -5.7037    2.6967    0.6275 C   0  0  0  0  0  0  0  0  0  0  0  0
   -4.8834    3.9550    0.3893 C   0  0  0  0  0  0  0  0  0  0  0  0
   -3.5324    3.6300    1.0281 C   0  0  0  0  0  0  0  0  0  0  0  0
   -2.3172    0.1975    0.4895 N   0  0  0  0  0  0  0  0  0  0  0  0
   -1.1960   -0.5372    0.4752 C   0  0  0  0  0  0  0  0  0  0  0  0
   -1.2584   -1.8236    0.0055 N   0  0  0  0  0  0  0  0  0  0  0  0
   -2.4012   -2.2676   -0.7760 C   0  0  0  0  0  0  0  0  0  0  0  0
   -1.8219   -3.3501   -1.6908 C   0  0  0  0  0  0  0  0  0  0  0  0
   -0.5923   -3.8400   -0.9391 C   0  0  0  0  0  0  0  0  0  0  0  0
   -0.0509   -2.5583   -0.3128 C   0  0  0  0  0  0  0  0  0  0  0  0
   -0.0183   -0.0772    0.9123 N   0  0  0  0  0  0  0  0  0  0  0  0
    4.1432    0.2389    0.0685 C   0  0  0  0  0  0  0  0  0  0  0  0
    4.7409    0.5131   -1.1710 C   0  0  0  0  0  0  0  0  0  0  0  0
    5.5911   -0.4206   -1.7710 C   0  0  0  0  0  0  0  0  0  0  0  0
    5.8507   -1.6335   -1.1205 C   0  0  0  0  0  0  0  0  0  0  0  0
    6.7400   -2.6207   -1.7463 N   0  0  0  0  0  4  0  0  0  0  0  0
    7.2465   -2.3295   -2.8388 O   0  0  0  0  0  0  0  0  0  0  0  0
    6.9264   -3.6885   -1.1457 O   0  0  0  0  0  1  0  0  0  0  0  0
    5.2702   -1.9120    0.1252 C   0  0  0  0  0  0  0  0  0  0  0  0
    4.4198   -0.9729    0.7192 C   0  0  0  0  0  0  0  0  0  0  0  0
    2.0049   -0.1556    1.5398 H   0  0  0  0  0  0  0  0  0  0  0  0
    1.4375    2.6187    1.4397 H   0  0  0  0  0  0  0  0  0  0  0  0
   -1.0431    2.9859    1.8304 H   0  0  0  0  0  0  0  0  0  0  0  0
   -4.9732    0.6810    0.9779 H   0  0  0  0  0  0  0  0  0  0  0  0
   -4.5608    1.3541   -0.6276 H   0  0  0  0  0  0  0  0  0  0  0  0
   -6.0852    2.6882    1.6557 H   0  0  0  0  0  0  0  0  0  0  0  0
   -6.5518    2.6047   -0.0565 H   0  0  0  0  0  0  0  0  0  0  0  0
   -5.3430    4.8506    0.8166 H   0  0  0  0  0  0  0  0  0  0  0  0
   -4.7571    4.1175   -0.6880 H   0  0  0  0  0  0  0  0  0  0  0  0
   -2.7279    4.1265    0.4742 H   0  0  0  0  0  0  0  0  0  0  0  0
   -3.5077    3.9624    2.0718 H   0  0  0  0  0  0  0  0  0  0  0  0
   -3.1626   -2.6893   -0.1108 H   0  0  0  0  0  0  0  0  0  0  0  0
   -2.8576   -1.4771   -1.3827 H   0  0  0  0  0  0  0  0  0  0  0  0
   -1.5188   -2.9056   -2.6467 H   0  0  0  0  0  0  0  0  0  0  0  0
   -2.5393   -4.1483   -1.9004 H   0  0  0  0  0  0  0  0  0  0  0  0
    0.1370   -4.3307   -1.5894 H   0  0  0  0  0  0  0  0  0  0  0  0
   -0.8905   -4.5479   -0.1564 H   0  0  0  0  0  0  0  0  0  0  0  0
    0.5530   -2.7773    0.5740 H   0  0  0  0  0  0  0  0  0  0  0  0
    0.5614   -2.0120   -1.0409 H   0  0  0  0  0  0  0  0  0  0  0  0
    4.5405    1.4577   -1.6761 H   0  0  0  0  0  0  0  0  0  0  0  0
    6.0383   -0.1860   -2.7353 H   0  0  0  0  0  0  0  0  0  0  0  0
    5.4745   -2.8457    0.6468 H   0  0  0  0  0  0  0  0  0  0  0  0
    4.0010   -1.1950    1.6983 H   0  0  0  0  0  0  0  0  0  0  0  0
  1  2  2  0
  2  3  1  0
  3  4  1  0
  4  5  1  0
  5  6  2  0
  6  7  1  0
  7  8  1  0
  8  9  1  0
  9 10  1  0
 10 11  1  0
 11 12  1  0
  7 13  2  0
 13 14  1  0
 14 15  1  0
 15 16  1  0
 16 17  1  0
 17 18  1  0
 18 19  1  0
 14 20  2  0
  2 21  1  0
 21 22  2  0
 22 23  1  0
 23 24  2  0
 24 25  1  0
 25 26  2  0
 25 27  1  0
 24 28  1  0
 28 29  2  0
 20  5  1  0
 29 21  1  0
 12  8  1  0
 19 15  1  0
  3 30  1  0
  4 31  1  0
  6 32  1  0
  9 33  1  0
  9 34  1  0
 10 35  1  0
 10 36  1  0
 11 37  1  0
 11 38  1  0
 12 39  1  0
 12 40  1  0
 16 41  1  0
 16 42  1  0
 17 43  1  0
 17 44  1  0
 18 45  1  0
 18 46  1  0
 19 47  1  0
 19 48  1  0
 22 49  1  0
 23 50  1  0
 28 51  1  0
 29 52  1  0
M  CHG  2  25   1  27  -1
M  END
$$$$
