
     RDKit          3D

 69 72  0  0  0  0  0  0  0  0999 V2000
   -7.1917    3.2015    3.5646 C   0  0  0  0  0  0  0  0  0  0  0  0
   -6.3653    2.4531    2.5608 C   0  0  0  0  0  0  0  0  0  0  0  0
   -5.0244    2.1584    2.8220 C   0  0  0  0  0  0  0  0  0  0  0  0
   -4.2655    1.4355    1.8961 C   0  0  0  0  0  0  0  0  0  0  0  0
   -4.8416    0.9679    0.7019 C   0  0  0  0  0  0  0  0  0  0  0  0
   -4.0263    0.2262   -0.2087 N   0  0  0  0  0  0  0  0  0  0  0  0
   -2.6742    0.3023   -0.0744 N   0  0  0  0  0  0  0  0  0  0  0  0
   -2.1807   -0.3473   -1.1294 C   0  0  0  0  0  0  0  0  0  0  0  0
   -0.7709   -0.5202   -1.4481 C   0  0  0  0  0  0  0  0  0  0  0  0
    0.1368   -0.0008   -0.8016 O   0  0  0  0  0  0  0  0  0  0  0  0
   -0.5621   -1.3402   -2.5750 N   0  0  0  0  0  0  0  0  0  0  0  0
    0.7948   -1.7292   -2.9546 C   0  0  0  0  0  0  0  0  0  0  0  0
    1.4304   -0.7902   -3.9841 C   0  0  0  0  0  0  0  0  0  0  0  0
    1.9316    0.5297   -3.3999 C   0  0  0  0  0  0  0  0  0  0  0  0
    3.0273    0.2980   -2.3769 C   0  0  0  0  0  0  0  0  0  0  0  0
    4.0470   -0.3351   -2.6443 O   0  0  0  0  0  0  0  0  0  0  0  0
    2.7559    0.8280   -1.1362 N   0  0  0  0  0  0  0  0  0  0  0  0
    3.6304    0.5561   -0.0037 C   0  0  0  0  0  0  0  0  0  0  0  0
    3.3461   -0.8311    0.6130 C   0  0  0  0  0  0  0  0  0  0  0  0
    4.0862   -1.2454    1.8150 N   0  0  0  0  0  0  0  0  0  0  0  0
    3.8815   -0.3524    2.9698 C   0  0  0  0  0  0  0  0  0  0  0  0
    5.1145    0.4626    3.4385 C   0  0  0  0  0  0  0  0  0  0  0  0
    5.9451    0.8948    2.3086 N   0  0  0  0  0  0  0  0  0  0  0  0
    7.0276    1.7762    2.7293 C   0  0  0  0  0  0  0  0  0  0  0  0
    6.4617   -0.2764    1.5771 C   0  0  0  0  0  0  0  0  0  0  0  0
    5.5107   -1.5020    1.5640 C   0  0  0  0  0  0  0  0  0  0  0  0
   -1.5801   -1.8695   -3.3773 N   0  0  0  0  0  0  0  0  0  0  0  0
   -2.8371   -1.6745   -3.0909 C   0  0  0  0  0  0  0  0  0  0  0  0
   -3.8725   -2.2759   -3.9950 C   0  0  0  0  0  0  0  0  0  0  0  0
   -3.1859   -0.9140   -1.9159 C   0  0  0  0  0  0  0  0  0  0  0  0
   -4.3763   -0.6166   -1.2728 C   0  0  0  0  0  0  0  0  0  0  0  0
   -5.7510   -1.1144   -1.5416 C   0  0  0  0  0  0  0  0  0  0  0  0
   -6.1803    1.2749    0.4380 C   0  0  0  0  0  0  0  0  0  0  0  0
   -6.9373    2.0006    1.3672 C   0  0  0  0  0  0  0  0  0  0  0  0
   -6.5613    3.8286    4.2051 H   0  0  0  0  0  0  0  0  0  0  0  0
   -7.9049    3.8656    3.0635 H   0  0  0  0  0  0  0  0  0  0  0  0
   -7.7431    2.4959    4.1957 H   0  0  0  0  0  0  0  0  0  0  0  0
   -4.5521    2.5021    3.7389 H   0  0  0  0  0  0  0  0  0  0  0  0
   -3.2213    1.2307    2.1315 H   0  0  0  0  0  0  0  0  0  0  0  0
    0.7332   -2.7371   -3.3836 H   0  0  0  0  0  0  0  0  0  0  0  0
    1.4122   -1.8116   -2.0535 H   0  0  0  0  0  0  0  0  0  0  0  0
    2.2780   -1.3146   -4.4429 H   0  0  0  0  0  0  0  0  0  0  0  0
    0.7159   -0.5782   -4.7892 H   0  0  0  0  0  0  0  0  0  0  0  0
    1.1049    1.1107   -2.9814 H   0  0  0  0  0  0  0  0  0  0  0  0
    2.3685    1.1414   -4.1973 H   0  0  0  0  0  0  0  0  0  0  0  0
    1.7671    0.9307   -0.9055 H   0  0  0  0  0  0  0  0  0  0  0  0
    3.4480    1.3566    0.7194 H   0  0  0  0  0  0  0  0  0  0  0  0
    4.6643    0.6265   -0.3525 H   0  0  0  0  0  0  0  0  0  0  0  0
    3.4846   -1.6004   -0.1579 H   0  0  0  0  0  0  0  0  0  0  0  0
    2.2745   -0.8845    0.8525 H   0  0  0  0  0  0  0  0  0  0  0  0
    3.0486    0.3377    2.7849 H   0  0  0  0  0  0  0  0  0  0  0  0
    3.5567   -0.9749    3.8128 H   0  0  0  0  0  0  0  0  0  0  0  0
    4.7526    1.3355    3.9971 H   0  0  0  0  0  0  0  0  0  0  0  0
    5.7080   -0.1445    4.1352 H   0  0  0  0  0  0  0  0  0  0  0  0
    6.6251    2.6810    3.1986 H   0  0  0  0  0  0  0  0  0  0  0  0
    7.6144    2.1038    1.8642 H   0  0  0  0  0  0  0  0  0  0  0  0
    7.7035    1.2921    3.4433 H   0  0  0  0  0  0  0  0  0  0  0  0
    6.6655    0.0305    0.5457 H   0  0  0  0  0  0  0  0  0  0  0  0
    7.4159   -0.6098    2.0035 H   0  0  0  0  0  0  0  0  0  0  0  0
    5.8446   -2.1780    2.3650 H   0  0  0  0  0  0  0  0  0  0  0  0
    5.6510   -2.0748    0.6369 H   0  0  0  0  0  0  0  0  0  0  0  0
   -4.2804   -3.1747   -3.5270 H   0  0  0  0  0  0  0  0  0  0  0  0
   -3.4230   -2.5564   -4.9524 H   0  0  0  0  0  0  0  0  0  0  0  0
   -4.6757   -1.5624   -4.1853 H   0  0  0  0  0  0  0  0  0  0  0  0
   -5.7284   -2.1063   -2.0043 H   0  0  0  0  0  0  0  0  0  0  0  0
   -6.3306   -1.2381   -0.6218 H   0  0  0  0  0  0  0  0  0  0  0  0
   -6.2769   -0.4377   -2.2242 H   0  0  0  0  0  0  0  0  0  0  0  0
   -6.6650    1.0136   -0.4950 H   0  0  0  0  0  0  0  0  0  0  0  0
   -7.9788    2.2217    1.1446 H   0  0  0  0  0  0  0  0  0  0  0  0
  1  2  1  0
  2  3  2  0
  3  4  1  0
  4  5  2  0
  5  6  1  0
  6  7  1  0
  7  8  2  0
  8  9  1  0
  9 10  2  0
  9 11  1  0
 11 12  1  0
 12 13  1  0
 13 14  1  0
 14 15  1  0
 15 16  2  0
 15 17  1  0
 17 18  1  0
 18 19  1  0
 19 20  1  0
 20 21  1  0
 21 22  1  0
 22 23  1  0
 23 24  1  0
 23 25  1  0
 25 26  1  0
 11 27  1  0
 27 28  2  0
 28 29  1  0
 28 30  1  0
 30 31  2  0
 31 32  1  0
  5 33  1  0
 33 34  2  0
 34  2  1  0
 31  6  1  0
 30  8  1  0
 26 20  1  0
  1 35  1  0
  1 36  1  0
  1 37  1  0
  3 38  1  0
  4 39  1  0
 12 40  1  0
 12 41  1  0
 13 42  1  0
 13 43  1  0
 14 44  1  0
 14 45  1  0
 17 46  1  0
 18 47  1  0
 18 48  1  0
 19 49  1  0
 19 50  1  0
 21 51  1  0
 21 52  1  0
 22 53  1  0
 22 54  1  0
 24 55  1  0
 24 56  1  0
 24 57  1  0
 25 58  1  0
 25 59  1  0
 26 60  1  0
 26 61  1  0
 29 62  1  0
 29 63  1  0
 29 64  1  0
 32 65  1  0
 32 66  1  0
 32 67  1  0
 33 68  1  0
 34 69  1  0
M  END
$$$$
