
     RDKit          3D

 55 57  0  0  0  0  0  0  0  0999 V2000
   -1.6858   -4.1203    0.5055 C   0  0  0  0  0  0  0  0  0  0  0  0
   -0.7277   -3.2136    1.2575 C   0  0  0  0  0  0  0  0  0  0  0  0
   -1.1995   -1.8685    1.2670 O   0  0  0  0  0  0  0  0  0  0  0  0
   -0.8385   -1.1228    0.1020 C   0  0  0  0  0  0  0  0  0  0  0  0
    0.5720   -0.8618    0.1559 O   0  0  0  0  0  0  0  0  0  0  0  0
    1.0383    0.0034   -0.8145 C   0  0  0  0  0  0  0  0  0  0  0  0
    2.5226    0.0054   -1.0933 C   0  0  0  0  0  0  0  0  0  0  0  0
    2.9987    0.6432   -2.0237 O   0  0  0  0  0  0  0  0  0  0  0  0
    3.1972   -0.7869   -0.1862 N   0  0  0  0  0  0  0  0  0  0  0  0
    4.5778   -1.0483   -0.1196 C   0  0  0  0  0  0  0  0  0  0  0  0
    5.0220   -1.8804    0.9164 C   0  0  0  0  0  0  0  0  0  0  0  0
    6.3779   -2.1902    1.0509 C   0  0  0  0  0  0  0  0  0  0  0  0
    7.3027   -1.6704    0.1496 C   0  0  0  0  0  0  0  0  0  0  0  0
    6.8702   -0.8421   -0.8834 C   0  0  0  0  0  0  0  0  0  0  0  0
    5.5128   -0.5320   -1.0179 C   0  0  0  0  0  0  0  0  0  0  0  0
    0.2417    0.8314   -1.5061 C   0  0  0  0  0  0  0  0  0  0  0  0
   -1.2348    0.9424   -1.2435 C   0  0  0  0  0  0  0  0  0  0  0  0
   -1.6802    2.3995   -1.2717 C   0  0  0  0  0  0  0  0  0  0  0  0
   -1.3324    3.2981   -0.2510 C   0  0  0  0  0  0  0  0  0  0  0  0
   -1.7473    4.6304   -0.3023 C   0  0  0  0  0  0  0  0  0  0  0  0
   -2.5070    5.0856   -1.3771 C   0  0  0  0  0  0  0  0  0  0  0  0
   -2.8509    4.2098   -2.4037 C   0  0  0  0  0  0  0  0  0  0  0  0
   -2.4389    2.8766   -2.3535 C   0  0  0  0  0  0  0  0  0  0  0  0
   -1.6427    0.1928    0.0588 C   0  0  0  0  0  0  0  0  0  0  0  0
   -3.1787   -0.0049    0.1007 C   0  0  0  0  0  0  0  0  0  0  0  0
   -3.7935   -0.5209    1.4096 C   0  0  0  0  0  0  0  0  0  0  0  0
   -3.3686    0.2308    2.6666 C   0  0  0  0  0  0  0  0  0  0  0  0
   -3.5744    1.6287    2.5223 O   0  0  0  0  0  0  0  0  0  0  0  0
   -1.3685   -5.1643    0.5818 H   0  0  0  0  0  0  0  0  0  0  0  0
   -2.6992   -4.0291    0.9098 H   0  0  0  0  0  0  0  0  0  0  0  0
   -1.7399   -3.8540   -0.5541 H   0  0  0  0  0  0  0  0  0  0  0  0
    0.2864   -3.2801    0.8485 H   0  0  0  0  0  0  0  0  0  0  0  0
   -0.6801   -3.5407    2.3013 H   0  0  0  0  0  0  0  0  0  0  0  0
   -1.0570   -1.7201   -0.7932 H   0  0  0  0  0  0  0  0  0  0  0  0
    2.6130   -1.2167    0.5229 H   0  0  0  0  0  0  0  0  0  0  0  0
    4.3200   -2.2968    1.6339 H   0  0  0  0  0  0  0  0  0  0  0  0
    6.7107   -2.8354    1.8596 H   0  0  0  0  0  0  0  0  0  0  0  0
    8.3583   -1.9078    0.2511 H   0  0  0  0  0  0  0  0  0  0  0  0
    7.5875   -0.4320   -1.5898 H   0  0  0  0  0  0  0  0  0  0  0  0
    5.2185    0.1174   -1.8364 H   0  0  0  0  0  0  0  0  0  0  0  0
    0.6647    1.4776   -2.2742 H   0  0  0  0  0  0  0  0  0  0  0  0
   -1.7239    0.4283   -2.0843 H   0  0  0  0  0  0  0  0  0  0  0  0
   -0.7336    2.9717    0.5966 H   0  0  0  0  0  0  0  0  0  0  0  0
   -1.4742    5.3122    0.4989 H   0  0  0  0  0  0  0  0  0  0  0  0
   -2.8265    6.1234   -1.4157 H   0  0  0  0  0  0  0  0  0  0  0  0
   -3.4382    4.5655   -3.2461 H   0  0  0  0  0  0  0  0  0  0  0  0
   -2.7153    2.2126   -3.1695 H   0  0  0  0  0  0  0  0  0  0  0  0
   -1.3446    0.7913    0.9281 H   0  0  0  0  0  0  0  0  0  0  0  0
   -3.6675    0.9514   -0.1234 H   0  0  0  0  0  0  0  0  0  0  0  0
   -3.4757   -0.6857   -0.7077 H   0  0  0  0  0  0  0  0  0  0  0  0
   -4.8830   -0.4304    1.3070 H   0  0  0  0  0  0  0  0  0  0  0  0
   -3.5969   -1.5898    1.5358 H   0  0  0  0  0  0  0  0  0  0  0  0
   -3.9494   -0.1147    3.5280 H   0  0  0  0  0  0  0  0  0  0  0  0
   -2.3127    0.0634    2.8961 H   0  0  0  0  0  0  0  0  0  0  0  0
   -4.5057    1.7679    2.2802 H   0  0  0  0  0  0  0  0  0  0  0  0
  1  2  1  0
  2  3  1  0
  3  4  1  0
  4  5  1  0
  5  6  1  0
  6  7  1  0
  7  8  2  0
  7  9  1  0
  9 10  1  0
 10 11  2  0
 11 12  1  0
 12 13  2  0
 13 14  1  0
 14 15  2  0
  6 16  2  0
 16 17  1  0
 17 18  1  0
 18 19  2  0
 19 20  1  0
 20 21  2  0
 21 22  1  0
 22 23  2  0
 17 24  1  0
 24 25  1  0
 25 26  1  0
 26 27  1  0
 27 28  1  0
 24  4  1  0
 15 10  1  0
 23 18  1  0
  1 29  1  0
  1 30  1  0
  1 31  1  0
  2 32  1  0
  2 33  1  0
  4 34  1  0
  9 35  1  0
 11 36  1  0
 12 37  1  0
 13 38  1  0
 14 39  1  0
 15 40  1  0
 16 41  1  0
 17 42  1  0
 19 43  1  0
 20 44  1  0
 21 45  1  0
 22 46  1  0
 23 47  1  0
 24 48  1  0
 25 49  1  0
 25 50  1  0
 26 51  1  0
 26 52  1  0
 27 53  1  0
 27 54  1  0
 28 55  1  0
M  END
$$$$
