
     RDKit          3D

 49 52  0  0  0  0  0  0  0  0999 V2000
    0.1559   -3.0193    1.7604 C   0  0  0  0  0  0  0  0  0  0  0  0
    0.1503   -1.5606    1.3064 C   0  0  0  0  0  0  0  0  0  0  0  0
    1.4805   -1.1480    0.8949 N   0  0  0  0  0  0  0  0  0  0  0  0
    2.3752   -0.6194    1.7807 C   0  0  0  0  0  0  0  0  0  0  0  0
    2.1137   -0.3545    2.9477 O   0  0  0  0  0  0  0  0  0  0  0  0
    3.7504   -0.4165    1.2680 C   0  0  0  0  0  0  0  0  0  0  0  0
    4.0259   -0.1060   -0.0066 C   0  0  0  0  0  0  0  0  0  0  0  0
    5.3510    0.1208   -0.4719 C   0  0  0  0  0  0  0  0  0  0  0  0
    6.5827    0.0783    0.1758 C   0  0  0  0  0  0  0  0  0  0  0  0
    7.5890    0.3878   -0.7708 C   0  0  0  0  0  0  0  0  0  0  0  0
    6.9333    0.6058   -1.9536 C   0  0  0  0  0  0  0  0  0  0  0  0
    5.5988    0.4493   -1.7883 O   0  0  0  0  0  0  0  0  0  0  0  0
   -0.7439   -1.3459    0.1169 C   0  0  0  0  0  0  0  0  0  0  0  0
   -0.9434   -2.2324   -0.8414 N   0  0  0  0  0  0  0  0  0  0  0  0
   -1.7480   -1.6221   -1.7628 C   0  0  0  0  0  0  0  0  0  0  0  0
   -2.2515   -2.1312   -2.9693 C   0  0  0  0  0  0  0  0  0  0  0  0
   -3.0367   -1.3034   -3.7775 C   0  0  0  0  0  0  0  0  0  0  0  0
   -3.3095    0.0081   -3.3927 C   0  0  0  0  0  0  0  0  0  0  0  0
   -2.8160    0.5309   -2.1909 C   0  0  0  0  0  0  0  0  0  0  0  0
   -2.0416   -0.3153   -1.3851 C   0  0  0  0  0  0  0  0  0  0  0  0
   -1.4098   -0.1621   -0.1650 N   0  0  0  0  0  0  0  0  0  0  0  0
   -1.3319    1.0774    0.6094 C   0  0  0  0  0  0  0  0  0  0  0  0
   -2.6754    1.6450    1.0201 C   0  0  0  0  0  0  0  0  0  0  0  0
   -3.5622    0.9303    1.8514 C   0  0  0  0  0  0  0  0  0  0  0  0
   -3.1742   -0.6197    2.5111 Cl  0  0  0  0  0  0  0  0  0  0  0  0
   -4.8050    1.4622    2.2204 C   0  0  0  0  0  0  0  0  0  0  0  0
   -5.1866    2.7267    1.7884 C   0  0  0  0  0  0  0  0  0  0  0  0
   -4.3166    3.4676    0.9980 C   0  0  0  0  0  0  0  0  0  0  0  0
   -3.0734    2.9397    0.6251 C   0  0  0  0  0  0  0  0  0  0  0  0
   -2.0653    3.9729   -0.3317 Cl  0  0  0  0  0  0  0  0  0  0  0  0
    0.8038   -3.1509    2.6340 H   0  0  0  0  0  0  0  0  0  0  0  0
    0.5288   -3.6873    0.9752 H   0  0  0  0  0  0  0  0  0  0  0  0
   -0.8526   -3.3495    2.0324 H   0  0  0  0  0  0  0  0  0  0  0  0
   -0.1701   -0.9589    2.1609 H   0  0  0  0  0  0  0  0  0  0  0  0
    1.8013   -1.5207    0.0100 H   0  0  0  0  0  0  0  0  0  0  0  0
    4.5122   -0.4729    2.0374 H   0  0  0  0  0  0  0  0  0  0  0  0
    3.2372    0.0063   -0.7445 H   0  0  0  0  0  0  0  0  0  0  0  0
    6.7414   -0.1512    1.2203 H   0  0  0  0  0  0  0  0  0  0  0  0
    8.6559    0.4442   -0.6086 H   0  0  0  0  0  0  0  0  0  0  0  0
    7.2536    0.8670   -2.9526 H   0  0  0  0  0  0  0  0  0  0  0  0
   -2.0239   -3.1496   -3.2635 H   0  0  0  0  0  0  0  0  0  0  0  0
   -3.4309   -1.6870   -4.7152 H   0  0  0  0  0  0  0  0  0  0  0  0
   -3.9170    0.6393   -4.0383 H   0  0  0  0  0  0  0  0  0  0  0  0
   -3.0374    1.5541   -1.9160 H   0  0  0  0  0  0  0  0  0  0  0  0
   -0.7465    1.7558   -0.0177 H   0  0  0  0  0  0  0  0  0  0  0  0
   -0.7320    0.9209    1.5088 H   0  0  0  0  0  0  0  0  0  0  0  0
   -5.4790    0.8915    2.8564 H   0  0  0  0  0  0  0  0  0  0  0  0
   -6.1506    3.1373    2.0781 H   0  0  0  0  0  0  0  0  0  0  0  0
   -4.6100    4.4649    0.6760 H   0  0  0  0  0  0  0  0  0  0  0  0
  1  2  1  0
  2  3  1  0
  3  4  1  0
  4  5  2  0
  4  6  1  0
  6  7  2  3
  7  8  1  0
  8  9  2  0
  9 10  1  0
 10 11  2  0
 11 12  1  0
  2 13  1  0
 13 14  2  0
 14 15  1  0
 15 16  2  0
 16 17  1  0
 17 18  2  0
 18 19  1  0
 19 20  2  0
 20 21  1  0
 21 22  1  0
 22 23  1  0
 23 24  2  0
 24 25  1  0
 24 26  1  0
 26 27  2  0
 27 28  1  0
 28 29  2  0
 29 30  1  0
 12  8  1  0
 21 13  1  0
 29 23  1  0
 20 15  1  0
  1 31  1  0
  1 32  1  0
  1 33  1  0
  2 34  1  0
  3 35  1  0
  6 36  1  0
  7 37  1  0
  9 38  1  0
 10 39  1  0
 11 40  1  0
 16 41  1  0
 17 42  1  0
 18 43  1  0
 19 44  1  0
 22 45  1  0
 22 46  1  0
 26 47  1  0
 27 48  1  0
 28 49  1  0
M  END
$$$$
