
     RDKit          3D

 36 37  0  0  0  0  0  0  0  0999 V2000
   -4.4688    0.9638    0.0909 C   0  0  0  0  0  0  0  0  0  0  0  0
   -3.0878    0.3175    0.1888 C   0  0  0  0  0  0  0  0  0  0  0  0
   -2.9695   -0.8549   -0.7964 C   0  0  0  0  0  0  0  0  0  0  0  0
   -1.5573   -1.4584   -0.8218 C   0  0  0  0  0  0  0  0  0  0  0  0
   -1.2632   -2.2817    0.4358 C   0  0  0  0  0  0  0  0  0  0  0  0
   -0.5082   -0.3592   -1.0324 C   0  0  0  0  0  0  0  0  0  0  0  0
   -0.6554    0.6927    0.0110 N   0  0  0  0  0  0  0  0  0  0  0  0
    0.6453    1.7984    0.0874 S   0  0  0  0  0  6  0  0  0  0  0  0
    0.9301    2.2375   -1.2627 O   0  0  0  0  0  0  0  0  0  0  0  0
    0.3967    2.7453    1.1519 O   0  0  0  0  0  0  0  0  0  0  0  0
    2.1020    0.9146    0.5916 C   0  0  0  0  0  0  0  0  0  0  0  0
    3.3767    0.8449    0.0637 C   0  0  0  0  0  0  0  0  0  0  0  0
    4.2585   -0.0157    0.8131 C   0  0  0  0  0  0  0  0  0  0  0  0
    5.6502   -0.2806    0.4947 C   0  0  0  0  0  0  0  0  0  0  0  0
    6.4185   -1.0059    1.1068 O   0  0  0  0  0  0  0  0  0  0  0  0
    6.0880    0.3674   -0.6092 O   0  0  0  0  0  0  0  0  0  0  0  0
    3.5744   -0.5504    1.8836 C   0  0  0  0  0  0  0  0  0  0  0  0
    4.1429   -1.6404    3.0915 Cl  0  0  0  0  0  0  0  0  0  0  0  0
    1.9571   -0.0472    1.9938 S   0  0  0  0  0  0  0  0  0  0  0  0
   -1.9863    1.3550   -0.0661 C   0  0  0  0  0  0  0  0  0  0  0  0
   -4.6454    1.3782   -0.9075 H   0  0  0  0  0  0  0  0  0  0  0  0
   -4.5689    1.7771    0.8173 H   0  0  0  0  0  0  0  0  0  0  0  0
   -5.2557    0.2309    0.2978 H   0  0  0  0  0  0  0  0  0  0  0  0
   -2.9728   -0.0702    1.2092 H   0  0  0  0  0  0  0  0  0  0  0  0
   -3.2152   -0.5028   -1.8073 H   0  0  0  0  0  0  0  0  0  0  0  0
   -3.7062   -1.6295   -0.5501 H   0  0  0  0  0  0  0  0  0  0  0  0
   -1.5014   -2.1475   -1.6746 H   0  0  0  0  0  0  0  0  0  0  0  0
   -0.2784   -2.7557    0.3619 H   0  0  0  0  0  0  0  0  0  0  0  0
   -1.2710   -1.6721    1.3444 H   0  0  0  0  0  0  0  0  0  0  0  0
   -2.0059   -3.0772    0.5579 H   0  0  0  0  0  0  0  0  0  0  0  0
   -0.6346    0.0871   -2.0265 H   0  0  0  0  0  0  0  0  0  0  0  0
    0.4918   -0.8034   -0.9899 H   0  0  0  0  0  0  0  0  0  0  0  0
    3.6670    1.3923   -0.8276 H   0  0  0  0  0  0  0  0  0  0  0  0
    7.0250    0.0878   -0.6738 H   0  0  0  0  0  0  0  0  0  0  0  0
   -2.1117    1.8267   -1.0484 H   0  0  0  0  0  0  0  0  0  0  0  0
   -2.0603    2.1353    0.6994 H   0  0  0  0  0  0  0  0  0  0  0  0
  1  2  1  0
  2  3  1  0
  3  4  1  0
  4  5  1  0
  4  6  1  0
  6  7  1  0
  7  8  1  0
  8  9  2  0
  8 10  2  0
  8 11  1  0
 11 12  2  0
 12 13  1  0
 13 14  1  0
 14 15  2  0
 14 16  1  0
 13 17  2  0
 17 18  1  0
 17 19  1  0
  7 20  1  0
 20  2  1  0
 19 11  1  0
  1 21  1  0
  1 22  1  0
  1 23  1  0
  2 24  1  0
  3 25  1  0
  3 26  1  0
  4 27  1  0
  5 28  1  0
  5 29  1  0
  5 30  1  0
  6 31  1  0
  6 32  1  0
 12 33  1  0
 16 34  1  0
 20 35  1  0
 20 36  1  0
M  END
$$$$
