
     RDKit          3D

 63 65  0  0  0  0  0  0  0  0999 V2000
    1.0205   -2.5015    1.0241 C   0  0  0  0  0  0  0  0  0  0  0  0
   -0.0716   -1.5342    0.5793 C   0  0  0  0  0  0  0  0  0  0  0  0
    0.3418   -0.6454   -0.5245 N   0  0  0  0  0  0  0  0  0  0  0  0
    0.5867   -1.3980   -1.7868 C   0  0  0  0  0  0  0  0  0  0  0  0
    2.0853   -1.7253   -1.9319 C   0  0  0  0  0  0  0  0  0  0  0  0
    2.4728   -2.7267   -2.5262 O   0  0  0  0  0  0  0  0  0  0  0  0
    2.8784   -0.7387   -1.3770 N   0  0  0  0  0  0  0  0  0  0  0  0
    4.2604   -0.5440   -1.5232 C   0  0  0  0  0  0  0  0  0  0  0  0
    5.0971   -1.4148   -2.2172 C   0  0  0  0  0  0  0  0  0  0  0  0
    6.4507   -1.1024   -2.3995 C   0  0  0  0  0  0  0  0  0  0  0  0
    6.9874    0.0899   -1.8994 C   0  0  0  0  0  0  0  0  0  0  0  0
    8.3412    0.3574   -2.1838 N   0  0  0  0  0  0  0  0  0  0  0  0
    9.0363    1.5241   -1.9242 C   0  0  0  0  0  0  0  0  0  0  0  0
   10.4676    1.4524   -2.3968 C   0  0  0  0  0  0  0  0  0  0  0  0
    8.5983    2.5474   -1.4107 O   0  0  0  0  0  0  0  0  0  0  0  0
    6.1584    0.9408   -1.1691 C   0  0  0  0  0  0  0  0  0  0  0  0
    4.8077    0.6224   -0.9745 C   0  0  0  0  0  0  0  0  0  0  0  0
   -0.6319    0.4566   -0.7143 C   0  0  0  0  0  0  0  0  0  0  0  0
   -2.0409    0.0103   -1.1373 C   0  0  0  0  0  0  0  0  0  0  0  0
   -2.2328   -0.6520   -2.1563 O   0  0  0  0  0  0  0  0  0  0  0  0
   -3.0195    0.4470   -0.2647 N   0  0  0  0  0  0  0  0  0  0  0  0
   -4.4247    0.4348   -0.4357 C   0  0  0  0  0  0  0  0  0  0  0  0
   -5.0326    0.0566   -1.6395 C   0  0  0  0  0  0  0  0  0  0  0  0
   -6.4199    0.1406   -1.7978 C   0  0  0  0  0  0  0  0  0  0  0  0
   -7.2211    0.6099   -0.7608 C   0  0  0  0  0  0  0  0  0  0  0  0
   -6.6379    0.9737    0.4524 C   0  0  0  0  0  0  0  0  0  0  0  0
   -5.2481    0.8625    0.6318 C   0  0  0  0  0  0  0  0  0  0  0  0
   -4.6477    1.2119    1.9532 C   0  0  0  0  0  0  0  0  0  0  0  0
   -3.5182    1.7003    1.9952 O   0  0  0  0  0  0  0  0  0  0  0  0
   -5.3600    0.9431    3.2284 C   0  0  0  0  0  0  0  0  0  0  0  0
   -5.2007    1.8457    4.2854 C   0  0  0  0  0  0  0  0  0  0  0  0
   -5.8434    1.6123    5.5008 C   0  0  0  0  0  0  0  0  0  0  0  0
   -6.6348    0.4744    5.6657 C   0  0  0  0  0  0  0  0  0  0  0  0
   -6.7770   -0.4395    4.6223 C   0  0  0  0  0  0  0  0  0  0  0  0
   -6.1328   -0.2120    3.4051 C   0  0  0  0  0  0  0  0  0  0  0  0
    0.6753   -3.0854    1.8842 H   0  0  0  0  0  0  0  0  0  0  0  0
    1.2865   -3.2102    0.2332 H   0  0  0  0  0  0  0  0  0  0  0  0
    1.9239   -1.9634    1.3291 H   0  0  0  0  0  0  0  0  0  0  0  0
   -0.3251   -0.9229    1.4545 H   0  0  0  0  0  0  0  0  0  0  0  0
   -0.9726   -2.1007    0.3183 H   0  0  0  0  0  0  0  0  0  0  0  0
    0.0035   -2.3224   -1.8252 H   0  0  0  0  0  0  0  0  0  0  0  0
    0.3423   -0.7993   -2.6713 H   0  0  0  0  0  0  0  0  0  0  0  0
    2.3444   -0.0308   -0.8750 H   0  0  0  0  0  0  0  0  0  0  0  0
    4.7259   -2.3411   -2.6422 H   0  0  0  0  0  0  0  0  0  0  0  0
    7.0632   -1.7995   -2.9664 H   0  0  0  0  0  0  0  0  0  0  0  0
    8.8369   -0.3645   -2.6913 H   0  0  0  0  0  0  0  0  0  0  0  0
   10.5136    1.7276   -3.4553 H   0  0  0  0  0  0  0  0  0  0  0  0
   10.8760    0.4476   -2.2550 H   0  0  0  0  0  0  0  0  0  0  0  0
   11.0785    2.1489   -1.8136 H   0  0  0  0  0  0  0  0  0  0  0  0
    6.5291    1.8671   -0.7420 H   0  0  0  0  0  0  0  0  0  0  0  0
    4.1888    1.3176   -0.4089 H   0  0  0  0  0  0  0  0  0  0  0  0
   -0.6796    1.0361    0.2187 H   0  0  0  0  0  0  0  0  0  0  0  0
   -0.2618    1.1595   -1.4746 H   0  0  0  0  0  0  0  0  0  0  0  0
   -2.7102    0.8863    0.6048 H   0  0  0  0  0  0  0  0  0  0  0  0
   -4.4487   -0.2871   -2.4895 H   0  0  0  0  0  0  0  0  0  0  0  0
   -6.8700   -0.1459   -2.7460 H   0  0  0  0  0  0  0  0  0  0  0  0
   -8.2966    0.7001   -0.8997 H   0  0  0  0  0  0  0  0  0  0  0  0
   -7.2801    1.3520    1.2432 H   0  0  0  0  0  0  0  0  0  0  0  0
   -4.5755    2.7294    4.1656 H   0  0  0  0  0  0  0  0  0  0  0  0
   -5.7198    2.3114    6.3223 H   0  0  0  0  0  0  0  0  0  0  0  0
   -7.1325    0.2939    6.6145 H   0  0  0  0  0  0  0  0  0  0  0  0
   -7.3802   -1.3344    4.7627 H   0  0  0  0  0  0  0  0  0  0  0  0
   -6.2301   -0.9495    2.6125 H   0  0  0  0  0  0  0  0  0  0  0  0
  1  2  1  0
  2  3  1  0
  3  4  1  0
  4  5  1  0
  5  6  2  0
  5  7  1  0
  7  8  1  0
  8  9  2  0
  9 10  1  0
 10 11  2  0
 11 12  1  0
 12 13  1  0
 13 14  1  0
 13 15  2  0
 11 16  1  0
 16 17  2  0
  3 18  1  0
 18 19  1  0
 19 20  2  0
 19 21  1  0
 21 22  1  0
 22 23  2  0
 23 24  1  0
 24 25  2  0
 25 26  1  0
 26 27  2  0
 27 28  1  0
 28 29  2  0
 28 30  1  0
 30 31  2  0
 31 32  1  0
 32 33  2  0
 33 34  1  0
 34 35  2  0
 17  8  1  0
 27 22  1  0
 35 30  1  0
  1 36  1  0
  1 37  1  0
  1 38  1  0
  2 39  1  0
  2 40  1  0
  4 41  1  0
  4 42  1  0
  7 43  1  0
  9 44  1  0
 10 45  1  0
 12 46  1  0
 14 47  1  0
 14 48  1  0
 14 49  1  0
 16 50  1  0
 17 51  1  0
 18 52  1  0
 18 53  1  0
 21 54  1  0
 23 55  1  0
 24 56  1  0
 25 57  1  0
 26 58  1  0
 31 59  1  0
 32 60  1  0
 33 61  1  0
 34 62  1  0
 35 63  1  0
M  END
$$$$
