
     RDKit          3D

 46 49  0  0  0  0  0  0  0  0999 V2000
   -2.2726   -0.3751   -2.3679 C   0  0  0  0  0  0  0  0  0  0  0  0
   -2.1221   -1.4944   -1.4527 N   0  0  0  0  0  0  0  0  0  0  0  0
   -3.2925   -2.3314   -1.2475 C   0  0  0  0  0  0  0  0  0  0  0  0
   -1.3982   -1.1901   -0.2727 N   0  0  0  0  0  0  0  0  0  0  0  0
   -1.9741   -0.3946    0.7402 C   0  0  0  0  0  0  0  0  0  0  0  0
   -3.1407    0.1715    0.7104 N   0  0  0  0  0  0  0  0  0  0  0  0
   -1.1486   -0.2471    2.0248 C   0  0  0  0  0  0  0  0  0  0  0  0
   -1.6093    0.8281    2.9187 C   0  0  0  0  0  0  0  0  0  0  0  0
   -1.9230    1.6476    3.6801 N   0  0  0  0  0  0  0  0  0  0  0  0
    0.3625   -0.1331    1.7264 C   0  0  0  0  0  0  0  0  0  0  0  0
    0.8606    1.2492    1.2879 C   0  0  0  0  0  0  0  0  0  0  0  0
    1.9873    1.8073    1.9454 C   0  0  0  0  0  0  0  0  0  0  0  0
    2.5024    3.0565    1.5829 C   0  0  0  0  0  0  0  0  0  0  0  0
    1.8820    3.7304    0.5572 C   0  0  0  0  0  0  0  0  0  0  0  0
    0.7973    3.2013   -0.0976 C   0  0  0  0  0  0  0  0  0  0  0  0
    0.2666    1.9714    0.2373 C   0  0  0  0  0  0  0  0  0  0  0  0
    0.3394    4.0163   -1.0863 O   0  0  0  0  0  0  0  0  0  0  0  0
    1.2396    5.1361   -0.9502 C   0  0  0  0  0  0  0  0  0  0  0  0
    2.2426    4.9464    0.0685 O   0  0  0  0  0  0  0  0  0  0  0  0
    0.7832   -1.1902    0.7256 C   0  0  0  0  0  0  0  0  0  0  0  0
   -0.0726   -1.6691   -0.2040 C   0  0  0  0  0  0  0  0  0  0  0  0
    0.3639   -2.7291   -1.2049 C   0  0  0  0  0  0  0  0  0  0  0  0
    1.6114   -3.4968   -0.7795 C   0  0  0  0  0  0  0  0  0  0  0  0
    2.7020   -2.5498   -0.3229 C   0  0  0  0  0  0  0  0  0  0  0  0
    2.1896   -1.6859    0.8015 C   0  0  0  0  0  0  0  0  0  0  0  0
    2.9132   -1.3675    1.7424 O   0  0  0  0  0  0  0  0  0  0  0  0
   -1.3112    0.1249   -2.5321 H   0  0  0  0  0  0  0  0  0  0  0  0
   -2.9913    0.3771   -2.0329 H   0  0  0  0  0  0  0  0  0  0  0  0
   -2.6052   -0.7360   -3.3476 H   0  0  0  0  0  0  0  0  0  0  0  0
   -4.1518   -1.7999   -0.8308 H   0  0  0  0  0  0  0  0  0  0  0  0
   -3.0592   -3.1732   -0.5855 H   0  0  0  0  0  0  0  0  0  0  0  0
   -3.6089   -2.7662   -2.2022 H   0  0  0  0  0  0  0  0  0  0  0  0
   -3.5893   -0.0112   -0.1853 H   0  0  0  0  0  0  0  0  0  0  0  0
   -1.3105   -1.1970    2.5585 H   0  0  0  0  0  0  0  0  0  0  0  0
    0.8496   -0.3607    2.6868 H   0  0  0  0  0  0  0  0  0  0  0  0
    2.4795    1.2582    2.7486 H   0  0  0  0  0  0  0  0  0  0  0  0
    3.3623    3.4778    2.0911 H   0  0  0  0  0  0  0  0  0  0  0  0
   -0.5872    1.6068   -0.3198 H   0  0  0  0  0  0  0  0  0  0  0  0
    1.7427    5.2981   -1.9104 H   0  0  0  0  0  0  0  0  0  0  0  0
    0.6539    6.0299   -0.7053 H   0  0  0  0  0  0  0  0  0  0  0  0
    0.5457   -2.2450   -2.1729 H   0  0  0  0  0  0  0  0  0  0  0  0
   -0.4325   -3.4686   -1.3515 H   0  0  0  0  0  0  0  0  0  0  0  0
    1.9705   -4.1132   -1.6112 H   0  0  0  0  0  0  0  0  0  0  0  0
    1.3529   -4.1818    0.0387 H   0  0  0  0  0  0  0  0  0  0  0  0
    3.0402   -1.9005   -1.1375 H   0  0  0  0  0  0  0  0  0  0  0  0
    3.5599   -3.1271    0.0381 H   0  0  0  0  0  0  0  0  0  0  0  0
  1  2  1  0
  2  3  1  0
  2  4  1  0
  4  5  1  0
  5  6  2  3
  5  7  1  0
  7  8  1  0
  8  9  3  0
  7 10  1  0
 10 11  1  0
 11 12  2  0
 12 13  1  0
 13 14  2  0
 14 15  1  0
 15 16  2  0
 15 17  1  0
 17 18  1  0
 18 19  1  0
 10 20  1  0
 20 21  2  0
 21 22  1  0
 22 23  1  0
 23 24  1  0
 24 25  1  0
 25 26  2  0
 21  4  1  0
 16 11  1  0
 25 20  1  0
 19 14  1  0
  1 27  1  0
  1 28  1  0
  1 29  1  0
  3 30  1  0
  3 31  1  0
  3 32  1  0
  6 33  1  0
  7 34  1  0
 10 35  1  0
 12 36  1  0
 13 37  1  0
 16 38  1  0
 18 39  1  0
 18 40  1  0
 22 41  1  0
 22 42  1  0
 23 43  1  0
 23 44  1  0
 24 45  1  0
 24 46  1  0
M  END
$$$$
