
     RDKit          3D

 39 41  0  0  0  0  0  0  0  0999 V2000
   -5.0852    2.7225    0.5915 C   0  0  0  0  0  0  0  0  0  0  0  0
   -4.2760    1.4764    0.3929 C   0  0  0  0  0  0  0  0  0  0  0  0
   -2.9174    1.4801    0.6389 C   0  0  0  0  0  0  0  0  0  0  0  0
   -2.2083    0.2968    0.4303 C   0  0  0  0  0  0  0  0  0  0  0  0
   -0.7454    0.3682    0.6553 C   0  0  0  0  0  0  0  0  0  0  0  0
   -0.3365    0.8120    1.7222 O   0  0  0  0  0  0  0  0  0  0  0  0
    0.0174   -0.0227   -0.4381 N   0  0  0  0  0  0  0  0  0  0  0  0
    1.3777    0.0924   -0.5507 N   0  0  0  0  0  0  0  0  0  0  0  0
    2.0977   -0.0092    0.5208 C   0  0  0  0  0  0  0  0  0  0  0  0
    3.5657    0.1585    0.4775 C   0  0  0  0  0  0  0  0  0  0  0  0
    4.2873    0.0501    1.6720 C   0  0  0  0  0  0  0  0  0  0  0  0
    5.6752    0.2043    1.6667 C   0  0  0  0  0  0  0  0  0  0  0  0
    6.3446    0.4671    0.4700 C   0  0  0  0  0  0  0  0  0  0  0  0
    5.6150    0.5757   -0.7235 C   0  0  0  0  0  0  0  0  0  0  0  0
    6.3202    0.8517   -1.9813 N   0  0  0  0  0  4  0  0  0  0  0  0
    7.5486    1.0079   -1.9298 O   0  0  0  0  0  0  0  0  0  0  0  0
    5.6481    0.9101   -3.0203 O   0  0  0  0  0  1  0  0  0  0  0  0
    4.2233    0.4229   -0.7278 C   0  0  0  0  0  0  0  0  0  0  0  0
   -2.8649   -0.8875    0.0236 C   0  0  0  0  0  0  0  0  0  0  0  0
   -2.2453   -2.1542   -0.1426 C   0  0  0  0  0  0  0  0  0  0  0  0
   -2.9767   -3.2655   -0.5580 C   0  0  0  0  0  0  0  0  0  0  0  0
   -4.3351   -3.1347   -0.8045 C   0  0  0  0  0  0  0  0  0  0  0  0
   -4.9540   -1.8962   -0.6228 C   0  0  0  0  0  0  0  0  0  0  0  0
   -4.2497   -0.7743   -0.2068 C   0  0  0  0  0  0  0  0  0  0  0  0
   -4.9285    0.3736   -0.0379 N   0  0  0  0  0  0  0  0  0  0  0  0
   -5.0160    3.0570    1.6313 H   0  0  0  0  0  0  0  0  0  0  0  0
   -6.1403    2.5430    0.3610 H   0  0  0  0  0  0  0  0  0  0  0  0
   -4.7228    3.5177   -0.0675 H   0  0  0  0  0  0  0  0  0  0  0  0
   -2.4122    2.3801    0.9771 H   0  0  0  0  0  0  0  0  0  0  0  0
   -0.4536   -0.1199   -1.3346 H   0  0  0  0  0  0  0  0  0  0  0  0
    1.6745   -0.2520    1.5098 H   0  0  0  0  0  0  0  0  0  0  0  0
    3.7772   -0.1494    2.6124 H   0  0  0  0  0  0  0  0  0  0  0  0
    6.2350    0.1218    2.5962 H   0  0  0  0  0  0  0  0  0  0  0  0
    7.4267    0.5852    0.4836 H   0  0  0  0  0  0  0  0  0  0  0  0
    3.6514    0.5082   -1.6497 H   0  0  0  0  0  0  0  0  0  0  0  0
   -1.1864   -2.2930    0.0670 H   0  0  0  0  0  0  0  0  0  0  0  0
   -2.4877   -4.2287   -0.6810 H   0  0  0  0  0  0  0  0  0  0  0  0
   -4.9206   -3.9918   -1.1270 H   0  0  0  0  0  0  0  0  0  0  0  0
   -6.0228   -1.8044   -0.8052 H   0  0  0  0  0  0  0  0  0  0  0  0
  1  2  1  0
  2  3  2  0
  3  4  1  0
  4  5  1  0
  5  6  2  0
  5  7  1  0
  7  8  1  0
  8  9  2  3
  9 10  1  0
 10 11  2  0
 11 12  1  0
 12 13  2  0
 13 14  1  0
 14 15  1  0
 15 16  2  0
 15 17  1  0
 14 18  2  0
  4 19  2  0
 19 20  1  0
 20 21  2  0
 21 22  1  0
 22 23  2  0
 23 24  1  0
 24 25  2  0
 25  2  1  0
 18 10  1  0
 24 19  1  0
  1 26  1  0
  1 27  1  0
  1 28  1  0
  3 29  1  0
  7 30  1  0
  9 31  1  0
 11 32  1  0
 12 33  1  0
 13 34  1  0
 18 35  1  0
 20 36  1  0
 21 37  1  0
 22 38  1  0
 23 39  1  0
M  CHG  2  15   1  17  -1
M  END
$$$$
