
     RDKit          3D

 55 57  0  0  0  0  0  0  0  0999 V2000
    7.2555    0.8603    1.1462 C   0  0  0  0  0  0  0  0  0  0  0  0
    6.6423   -0.4224    1.1272 O   0  0  0  0  0  0  0  0  0  0  0  0
    5.2908   -0.4585    0.9221 C   0  0  0  0  0  0  0  0  0  0  0  0
    4.7363   -1.7384    0.9048 C   0  0  0  0  0  0  0  0  0  0  0  0
    3.3659   -1.9213    0.7008 C   0  0  0  0  0  0  0  0  0  0  0  0
    2.5176   -0.8210    0.5036 C   0  0  0  0  0  0  0  0  0  0  0  0
    1.0237   -1.0515    0.2814 C   0  0  0  0  0  0  0  0  0  0  0  0
    0.1046   -0.7125    1.8412 S   0  0  0  0  0  0  0  0  0  0  0  0
   -0.3777    0.9883    1.5735 C   0  0  0  0  0  0  0  0  0  0  0  0
    0.0890    1.9251    2.5086 C   0  0  0  0  0  0  0  0  0  0  0  0
   -0.3124    3.2581    2.4429 C   0  0  0  0  0  0  0  0  0  0  0  0
   -1.1977    3.6641    1.4516 C   0  0  0  0  0  0  0  0  0  0  0  0
   -1.6817    2.7382    0.5249 C   0  0  0  0  0  0  0  0  0  0  0  0
   -1.2786    1.3938    0.5655 C   0  0  0  0  0  0  0  0  0  0  0  0
   -1.8017    0.4878   -0.4092 N   0  0  0  0  0  0  0  0  0  0  0  0
   -3.2602    0.4419   -0.6026 C   0  0  0  0  0  0  0  0  0  0  0  0
   -3.9344   -0.5724    0.3476 C   0  0  0  0  0  0  0  0  0  0  0  0
   -5.4103   -0.5835    0.2595 N   0  0  0  0  0  0  0  0  0  0  0  0
   -5.8668   -1.1307   -1.0216 C   0  0  0  0  0  0  0  0  0  0  0  0
   -5.9636   -1.3835    1.3569 C   0  0  0  0  0  0  0  0  0  0  0  0
   -1.0395   -0.4993   -1.0401 C   0  0  0  0  0  0  0  0  0  0  0  0
   -1.5562   -1.4261   -1.6730 O   0  0  0  0  0  0  0  0  0  0  0  0
    0.4885   -0.3464   -0.9748 C   0  0  0  0  0  0  0  0  0  0  0  0
    1.0756   -0.9934   -2.1292 O   0  0  0  0  0  0  0  0  0  0  0  0
    0.9202   -0.3157   -3.2977 C   0  0  0  0  0  0  0  0  0  0  0  0
    1.4814   -1.1127   -4.4341 C   0  0  0  0  0  0  0  0  0  0  0  0
    0.4027    0.7866   -3.4098 O   0  0  0  0  0  0  0  0  0  0  0  0
    3.0832    0.4639    0.5340 C   0  0  0  0  0  0  0  0  0  0  0  0
    4.4575    0.6430    0.7386 C   0  0  0  0  0  0  0  0  0  0  0  0
    6.8690    1.4704    1.9694 H   0  0  0  0  0  0  0  0  0  0  0  0
    8.3271    0.7157    1.3141 H   0  0  0  0  0  0  0  0  0  0  0  0
    7.1349    1.3702    0.1847 H   0  0  0  0  0  0  0  0  0  0  0  0
    5.3777   -2.6040    1.0530 H   0  0  0  0  0  0  0  0  0  0  0  0
    2.9700   -2.9349    0.6979 H   0  0  0  0  0  0  0  0  0  0  0  0
    0.8881   -2.1300    0.1210 H   0  0  0  0  0  0  0  0  0  0  0  0
    0.7631    1.6182    3.3067 H   0  0  0  0  0  0  0  0  0  0  0  0
    0.0573    3.9747    3.1723 H   0  0  0  0  0  0  0  0  0  0  0  0
   -1.5143    4.7032    1.3957 H   0  0  0  0  0  0  0  0  0  0  0  0
   -2.3485    3.0971   -0.2558 H   0  0  0  0  0  0  0  0  0  0  0  0
   -3.4464    0.1645   -1.6465 H   0  0  0  0  0  0  0  0  0  0  0  0
   -3.7052    1.4316   -0.4619 H   0  0  0  0  0  0  0  0  0  0  0  0
   -3.5292   -1.5787    0.1792 H   0  0  0  0  0  0  0  0  0  0  0  0
   -3.6484   -0.2945    1.3710 H   0  0  0  0  0  0  0  0  0  0  0  0
   -5.5631   -0.4912   -1.8559 H   0  0  0  0  0  0  0  0  0  0  0  0
   -5.4850   -2.1424   -1.1999 H   0  0  0  0  0  0  0  0  0  0  0  0
   -6.9619   -1.1678   -1.0541 H   0  0  0  0  0  0  0  0  0  0  0  0
   -5.6752   -0.9606    2.3258 H   0  0  0  0  0  0  0  0  0  0  0  0
   -7.0590   -1.3728    1.3272 H   0  0  0  0  0  0  0  0  0  0  0  0
   -5.6268   -2.4260    1.3204 H   0  0  0  0  0  0  0  0  0  0  0  0
    0.7648    0.7138   -0.9988 H   0  0  0  0  0  0  0  0  0  0  0  0
    1.3890   -0.5372   -5.3596 H   0  0  0  0  0  0  0  0  0  0  0  0
    0.9201   -2.0447   -4.5443 H   0  0  0  0  0  0  0  0  0  0  0  0
    2.5406   -1.3185   -4.2568 H   0  0  0  0  0  0  0  0  0  0  0  0
    2.4658    1.3502    0.4053 H   0  0  0  0  0  0  0  0  0  0  0  0
    4.8414    1.6577    0.7511 H   0  0  0  0  0  0  0  0  0  0  0  0
  1  2  1  0
  2  3  1  0
  3  4  2  0
  4  5  1  0
  5  6  2  0
  6  7  1  0
  7  8  1  0
  8  9  1  0
  9 10  2  0
 10 11  1  0
 11 12  2  0
 12 13  1  0
 13 14  2  0
 14 15  1  0
 15 16  1  0
 16 17  1  0
 17 18  1  0
 18 19  1  0
 18 20  1  0
 15 21  1  0
 21 22  2  0
 21 23  1  0
 23 24  1  0
 24 25  1  0
 25 26  1  0
 25 27  2  0
  6 28  1  0
 28 29  2  0
 29  3  1  0
 23  7  1  0
 14  9  1  0
  1 30  1  0
  1 31  1  0
  1 32  1  0
  4 33  1  0
  5 34  1  0
  7 35  1  0
 10 36  1  0
 11 37  1  0
 12 38  1  0
 13 39  1  0
 16 40  1  0
 16 41  1  0
 17 42  1  0
 17 43  1  0
 19 44  1  0
 19 45  1  0
 19 46  1  0
 20 47  1  0
 20 48  1  0
 20 49  1  0
 23 50  1  0
 26 51  1  0
 26 52  1  0
 26 53  1  0
 28 54  1  0
 29 55  1  0
M  END
$$$$
