
     RDKit          3D

 41 42  0  0  0  0  0  0  0  0999 V2000
   -6.0940   -2.0357   -0.5965 C   0  0  0  0  0  0  0  0  0  0  0  0
   -5.3812   -1.9757    0.6322 O   0  0  0  0  0  0  0  0  0  0  0  0
   -4.6551   -0.8449    0.8746 C   0  0  0  0  0  0  0  0  0  0  0  0
   -4.0188   -0.8164    2.1172 C   0  0  0  0  0  0  0  0  0  0  0  0
   -3.2395    0.2778    2.4955 C   0  0  0  0  0  0  0  0  0  0  0  0
   -3.0882    1.3678    1.6301 C   0  0  0  0  0  0  0  0  0  0  0  0
   -2.2171    2.5389    2.0213 C   0  0  0  0  0  0  0  0  0  0  0  0
   -0.7321    2.2561    1.9516 C   0  0  0  0  0  0  0  0  0  0  0  0
    0.0690    2.6944    2.7727 O   0  0  0  0  0  0  0  0  0  0  0  0
   -0.4490    1.5022    0.8400 O   0  0  0  0  0  0  0  0  0  0  0  0
    0.9380    1.3206    0.6997 N   0  0  0  0  0  0  0  0  0  0  0  0
    1.1954    0.4240   -0.2075 C   0  0  0  0  0  0  0  0  0  0  0  0
    0.2129   -0.2605   -0.8923 N   0  0  0  0  0  0  0  0  0  0  0  0
    2.6304    0.1141   -0.5058 C   0  0  0  0  0  0  0  0  0  0  0  0
    3.6258    0.4390    0.4205 C   0  0  0  0  0  0  0  0  0  0  0  0
    4.9636    0.1447    0.1415 C   0  0  0  0  0  0  0  0  0  0  0  0
    5.3246   -0.4626   -1.0642 C   0  0  0  0  0  0  0  0  0  0  0  0
    6.6640   -0.6883   -1.2137 O   0  0  0  0  0  0  0  0  0  0  0  0
    7.0917   -1.2306   -2.4563 C   0  0  0  0  0  0  0  0  0  0  0  0
    4.3326   -0.7782   -1.9925 C   0  0  0  0  0  0  0  0  0  0  0  0
    2.9901   -0.4909   -1.7158 C   0  0  0  0  0  0  0  0  0  0  0  0
   -3.7253    1.3356    0.3828 C   0  0  0  0  0  0  0  0  0  0  0  0
   -4.5038    0.2354    0.0075 C   0  0  0  0  0  0  0  0  0  0  0  0
   -6.6572   -2.9739   -0.6102 H   0  0  0  0  0  0  0  0  0  0  0  0
   -6.8145   -1.2157   -0.6788 H   0  0  0  0  0  0  0  0  0  0  0  0
   -5.4053   -2.0446   -1.4476 H   0  0  0  0  0  0  0  0  0  0  0  0
   -4.1315   -1.6567    2.7983 H   0  0  0  0  0  0  0  0  0  0  0  0
   -2.7548    0.2706    3.4688 H   0  0  0  0  0  0  0  0  0  0  0  0
   -2.4246    3.4049    1.3831 H   0  0  0  0  0  0  0  0  0  0  0  0
   -2.4679    2.8323    3.0482 H   0  0  0  0  0  0  0  0  0  0  0  0
    0.4141   -1.2416   -1.0565 H   0  0  0  0  0  0  0  0  0  0  0  0
   -0.7015   -0.1385   -0.4630 H   0  0  0  0  0  0  0  0  0  0  0  0
    3.3691    0.9195    1.3623 H   0  0  0  0  0  0  0  0  0  0  0  0
    5.7317    0.4017    0.8677 H   0  0  0  0  0  0  0  0  0  0  0  0
    6.6822   -2.2334   -2.6118 H   0  0  0  0  0  0  0  0  0  0  0  0
    8.1814   -1.3157   -2.4273 H   0  0  0  0  0  0  0  0  0  0  0  0
    6.8330   -0.5655   -3.2858 H   0  0  0  0  0  0  0  0  0  0  0  0
    4.5675   -1.2441   -2.9435 H   0  0  0  0  0  0  0  0  0  0  0  0
    2.2389   -0.7219   -2.4660 H   0  0  0  0  0  0  0  0  0  0  0  0
   -3.6190    2.1659   -0.3126 H   0  0  0  0  0  0  0  0  0  0  0  0
   -4.9755    0.2541   -0.9680 H   0  0  0  0  0  0  0  0  0  0  0  0
  1  2  1  0
  2  3  1  0
  3  4  2  0
  4  5  1  0
  5  6  2  0
  6  7  1  0
  7  8  1  0
  8  9  2  0
  8 10  1  0
 10 11  1  0
 11 12  2  3
 12 13  1  0
 12 14  1  0
 14 15  2  0
 15 16  1  0
 16 17  2  0
 17 18  1  0
 18 19  1  0
 17 20  1  0
 20 21  2  0
  6 22  1  0
 22 23  2  0
 23  3  1  0
 21 14  1  0
  1 24  1  0
  1 25  1  0
  1 26  1  0
  4 27  1  0
  5 28  1  0
  7 29  1  0
  7 30  1  0
 13 31  1  0
 13 32  1  0
 15 33  1  0
 16 34  1  0
 19 35  1  0
 19 36  1  0
 19 37  1  0
 20 38  1  0
 21 39  1  0
 22 40  1  0
 23 41  1  0
M  END
$$$$
