
     RDKit          3D

 51 53  0  0  0  0  0  0  0  0999 V2000
    3.4024    0.7428    2.1937 O   0  0  0  0  0  0  0  0  0  0  0  0
    4.1137   -0.2102    1.9076 C   0  0  0  0  0  0  0  0  0  0  0  0
    3.9086   -1.5237    2.2555 N   0  0  0  0  0  0  0  0  0  0  0  0
    2.6845   -1.9778    2.8644 C   0  0  0  0  0  0  0  0  0  0  0  0
    1.7872   -2.4964    1.8013 C   0  0  0  0  0  0  0  0  0  0  0  0
    1.8270   -3.6073    0.9836 C   0  0  0  0  0  0  0  0  0  0  0  0
    0.6793   -3.5358    0.1580 C   0  0  0  0  0  0  0  0  0  0  0  0
   -0.0005   -2.3903    0.5216 C   0  0  0  0  0  0  0  0  0  0  0  0
   -1.2165   -1.7928    0.0429 C   0  0  0  0  0  0  0  0  0  0  0  0
   -1.8586   -2.3283   -0.9480 N   0  0  0  0  0  0  0  0  0  0  0  0
   -3.0336   -1.7578   -1.3679 N   0  0  0  0  0  0  0  0  0  0  0  0
   -3.9383   -1.0585   -0.5864 C   0  0  0  0  0  0  0  0  0  0  0  0
   -3.8261   -0.6972    0.5776 O   0  0  0  0  0  0  0  0  0  0  0  0
   -5.2398   -0.7410   -1.3476 C   0  0  0  0  0  0  0  0  0  0  0  0
   -5.3596   -1.1462   -2.4954 O   0  0  0  0  0  0  0  0  0  0  0  0
   -6.1227   -0.0091   -0.5851 N   0  0  0  0  0  0  0  0  0  0  0  0
   -7.3958    0.4799   -0.9437 C   0  0  0  0  0  0  0  0  0  0  0  0
   -7.9587    0.2698   -2.2062 C   0  0  0  0  0  0  0  0  0  0  0  0
   -9.2233    0.7820   -2.5174 C   0  0  0  0  0  0  0  0  0  0  0  0
   -9.9403    1.5107   -1.5716 C   0  0  0  0  0  0  0  0  0  0  0  0
   -9.3965    1.7270   -0.3079 C   0  0  0  0  0  0  0  0  0  0  0  0
   -8.1328    1.2154    0.0034 C   0  0  0  0  0  0  0  0  0  0  0  0
   -7.4514    1.5506    1.7487 Br  0  0  0  0  0  0  0  0  0  0  0  0
    0.6743   -1.7570    1.5264 O   0  0  0  0  0  0  0  0  0  0  0  0
    5.3886    0.0122    1.0645 C   0  0  0  0  0  0  0  0  0  0  0  0
    6.0884   -0.9547    0.7963 O   0  0  0  0  0  0  0  0  0  0  0  0
    5.5493    1.3363    0.7199 N   0  0  0  0  0  0  0  0  0  0  0  0
    6.5827    1.9135   -0.0360 C   0  0  0  0  0  0  0  0  0  0  0  0
    6.5141    3.2931   -0.2680 C   0  0  0  0  0  0  0  0  0  0  0  0
    7.5045    3.9400   -1.0114 C   0  0  0  0  0  0  0  0  0  0  0  0
    8.5731    3.2123   -1.5286 C   0  0  0  0  0  0  0  0  0  0  0  0
    8.6489    1.8399   -1.3020 C   0  0  0  0  0  0  0  0  0  0  0  0
    7.6573    1.1918   -0.5586 C   0  0  0  0  0  0  0  0  0  0  0  0
    4.5499   -2.1973    1.8471 H   0  0  0  0  0  0  0  0  0  0  0  0
    2.2124   -1.1621    3.4215 H   0  0  0  0  0  0  0  0  0  0  0  0
    2.9410   -2.7773    3.5665 H   0  0  0  0  0  0  0  0  0  0  0  0
    2.5937   -4.3690    0.9767 H   0  0  0  0  0  0  0  0  0  0  0  0
    0.3755   -4.2278   -0.6154 H   0  0  0  0  0  0  0  0  0  0  0  0
   -1.5261   -0.8615    0.5435 H   0  0  0  0  0  0  0  0  0  0  0  0
   -3.3910   -2.1075   -2.2582 H   0  0  0  0  0  0  0  0  0  0  0  0
   -5.8031    0.2031    0.3610 H   0  0  0  0  0  0  0  0  0  0  0  0
   -7.4397   -0.2909   -2.9780 H   0  0  0  0  0  0  0  0  0  0  0  0
   -9.6459    0.6093   -3.5045 H   0  0  0  0  0  0  0  0  0  0  0  0
  -10.9218    1.9071   -1.8189 H   0  0  0  0  0  0  0  0  0  0  0  0
   -9.9624    2.2948    0.4265 H   0  0  0  0  0  0  0  0  0  0  0  0
    4.8139    1.9498    1.0638 H   0  0  0  0  0  0  0  0  0  0  0  0
    5.6897    3.8831    0.1248 H   0  0  0  0  0  0  0  0  0  0  0  0
    7.4410    5.0111   -1.1858 H   0  0  0  0  0  0  0  0  0  0  0  0
    9.3451    3.7126   -2.1069 H   0  0  0  0  0  0  0  0  0  0  0  0
    9.4823    1.2680   -1.7025 H   0  0  0  0  0  0  0  0  0  0  0  0
    7.7558    0.1216   -0.4042 H   0  0  0  0  0  0  0  0  0  0  0  0
  1  2  2  0
  2  3  1  0
  3  4  1  0
  4  5  1  0
  5  6  2  0
  6  7  1  0
  7  8  2  0
  8  9  1  0
  9 10  2  3
 10 11  1  0
 11 12  1  0
 12 13  2  0
 12 14  1  0
 14 15  2  0
 14 16  1  0
 16 17  1  0
 17 18  2  0
 18 19  1  0
 19 20  2  0
 20 21  1  0
 21 22  2  0
 22 23  1  0
  8 24  1  0
  2 25  1  0
 25 26  2  0
 25 27  1  0
 27 28  1  0
 28 29  2  0
 29 30  1  0
 30 31  2  0
 31 32  1  0
 32 33  2  0
 24  5  1  0
 33 28  1  0
 22 17  1  0
  3 34  1  0
  4 35  1  0
  4 36  1  0
  6 37  1  0
  7 38  1  0
  9 39  1  0
 11 40  1  0
 16 41  1  0
 18 42  1  0
 19 43  1  0
 20 44  1  0
 21 45  1  0
 27 46  1  0
 29 47  1  0
 30 48  1  0
 31 49  1  0
 32 50  1  0
 33 51  1  0
M  END
$$$$
