
     RDKit          3D

 40 41  0  0  0  0  0  0  0  0999 V2000
   -1.4946    2.4801    1.5738 C   0  0  0  0  0  0  0  0  0  0  0  0
   -2.6473    1.7195    1.0276 C   0  0  0  0  0  0  0  0  0  0  0  0
   -3.8858    1.9998    1.4504 N   0  0  0  0  0  0  0  0  0  0  0  0
   -4.6696    1.1519    0.7671 N   0  0  0  0  0  0  0  0  0  0  0  0
   -6.0966    1.1899    0.9891 C   0  0  0  0  0  0  0  0  0  0  0  0
   -3.9772    0.3187   -0.0740 C   0  0  0  0  0  0  0  0  0  0  0  0
   -4.6422   -0.7185   -0.9049 C   0  0  0  0  0  0  0  0  0  0  0  0
   -2.6419    0.6758    0.0597 C   0  0  0  0  0  0  0  0  0  0  0  0
   -1.5301    0.0813   -0.6536 C   0  0  0  0  0  0  0  0  0  0  0  0
   -0.3242    0.4554   -0.3704 N   0  0  0  0  0  0  0  0  0  0  0  0
    0.7189   -0.1396   -1.0398 N   0  0  0  0  0  0  0  0  0  0  0  0
    0.7663   -1.4793   -1.3982 C   0  0  0  0  0  0  0  0  0  0  0  0
   -0.1483   -2.2923   -1.2791 O   0  0  0  0  0  0  0  0  0  0  0  0
    2.1044   -1.9082   -1.9614 C   0  0  0  0  0  0  0  0  0  0  0  0
    3.0720   -2.2682   -0.8407 C   0  0  0  0  0  0  0  0  0  0  0  0
    3.8355   -1.1537   -0.2992 N   0  0  0  0  0  0  0  0  0  0  0  0
    5.0135   -1.2502    0.3873 C   0  0  0  0  0  0  0  0  0  0  0  0
    5.3622    0.0423    0.7218 C   0  0  0  0  0  0  0  0  0  0  0  0
    6.5152    0.4658    1.4513 N   0  0  0  0  0  4  0  0  0  0  0  0
    7.2735   -0.4181    1.8695 O   0  0  0  0  0  0  0  0  0  0  0  0
    6.6607    1.6847    1.6036 O   0  0  0  0  0  1  0  0  0  0  0  0
    4.3370    0.8443    0.1927 C   0  0  0  0  0  0  0  0  0  0  0  0
    3.4031    0.1197   -0.4373 N   0  0  0  0  0  0  0  0  0  0  0  0
   -1.8196    3.2447    2.2874 H   0  0  0  0  0  0  0  0  0  0  0  0
   -0.9529    2.9862    0.7687 H   0  0  0  0  0  0  0  0  0  0  0  0
   -0.8046    1.8085    2.0956 H   0  0  0  0  0  0  0  0  0  0  0  0
   -6.3672    2.1440    1.4499 H   0  0  0  0  0  0  0  0  0  0  0  0
   -6.6088    1.0934    0.0286 H   0  0  0  0  0  0  0  0  0  0  0  0
   -6.3589    0.3626    1.6527 H   0  0  0  0  0  0  0  0  0  0  0  0
   -3.9278   -1.4650   -1.2642 H   0  0  0  0  0  0  0  0  0  0  0  0
   -5.4057   -1.2536   -0.3302 H   0  0  0  0  0  0  0  0  0  0  0  0
   -5.1202   -0.2585   -1.7753 H   0  0  0  0  0  0  0  0  0  0  0  0
   -1.7726   -0.6506   -1.4402 H   0  0  0  0  0  0  0  0  0  0  0  0
    1.6256    0.3085   -0.8554 H   0  0  0  0  0  0  0  0  0  0  0  0
    1.9169   -2.7948   -2.5802 H   0  0  0  0  0  0  0  0  0  0  0  0
    2.5000   -1.1367   -2.6322 H   0  0  0  0  0  0  0  0  0  0  0  0
    2.5573   -2.7317    0.0088 H   0  0  0  0  0  0  0  0  0  0  0  0
    3.8125   -2.9800   -1.2247 H   0  0  0  0  0  0  0  0  0  0  0  0
    5.4930   -2.2006    0.5823 H   0  0  0  0  0  0  0  0  0  0  0  0
    4.2287    1.9222    0.2411 H   0  0  0  0  0  0  0  0  0  0  0  0
  1  2  1  0
  2  3  2  0
  3  4  1  0
  4  5  1  0
  4  6  1  0
  6  7  1  0
  6  8  2  0
  8  9  1  0
  9 10  2  3
 10 11  1  0
 11 12  1  0
 12 13  2  0
 12 14  1  0
 14 15  1  0
 15 16  1  0
 16 17  1  0
 17 18  2  0
 18 19  1  0
 19 20  2  0
 19 21  1  0
 18 22  1  0
 22 23  2  0
  8  2  1  0
 23 16  1  0
  1 24  1  0
  1 25  1  0
  1 26  1  0
  5 27  1  0
  5 28  1  0
  5 29  1  0
  7 30  1  0
  7 31  1  0
  7 32  1  0
  9 33  1  0
 11 34  1  0
 14 35  1  0
 14 36  1  0
 15 37  1  0
 15 38  1  0
 17 39  1  0
 22 40  1  0
M  CHG  2  19   1  21  -1
M  END
$$$$
