
     RDKit          3D

 43 45  0  0  0  0  0  0  0  0999 V2000
    3.1395   -3.1337   -0.2278 C   0  0  0  0  0  0  0  0  0  0  0  0
    3.9121   -1.9432   -0.1623 O   0  0  0  0  0  0  0  0  0  0  0  0
    3.2623   -0.7644    0.1048 C   0  0  0  0  0  0  0  0  0  0  0  0
    1.8709   -0.6402    0.2265 C   0  0  0  0  0  0  0  0  0  0  0  0
    1.2722    0.6041    0.4983 C   0  0  0  0  0  0  0  0  0  0  0  0
   -0.1985    0.6445    0.6416 C   0  0  0  0  0  0  0  0  0  0  0  0
   -0.7564    0.6672    1.9585 C   0  0  0  0  0  0  0  0  0  0  0  0
   -1.1630    0.6827    3.0448 N   0  0  0  0  0  0  0  0  0  0  0  0
   -0.9491    0.6433   -0.4772 C   0  0  0  0  0  0  0  0  0  0  0  0
   -2.4209    0.6897   -0.4954 C   0  0  0  0  0  0  0  0  0  0  0  0
   -3.0341    1.9289   -0.2563 C   0  0  0  0  0  0  0  0  0  0  0  0
   -4.4202    2.0387   -0.2550 C   0  0  0  0  0  0  0  0  0  0  0  0
   -5.2054    0.9136   -0.4960 C   0  0  0  0  0  0  0  0  0  0  0  0
   -4.6189   -0.3371   -0.7440 C   0  0  0  0  0  0  0  0  0  0  0  0
   -5.4259   -1.4610   -0.9869 C   0  0  0  0  0  0  0  0  0  0  0  0
   -4.8609   -2.7110   -1.2353 C   0  0  0  0  0  0  0  0  0  0  0  0
   -3.4798   -2.8549   -1.2445 C   0  0  0  0  0  0  0  0  0  0  0  0
   -2.6632   -1.7477   -1.0042 C   0  0  0  0  0  0  0  0  0  0  0  0
   -3.2074   -0.4664   -0.7484 C   0  0  0  0  0  0  0  0  0  0  0  0
    2.1132    1.7207    0.6388 C   0  0  0  0  0  0  0  0  0  0  0  0
    1.5693    3.0501    0.8936 N   0  0  0  0  0  4  0  0  0  0  0  0
    0.6144    3.4218    0.1995 O   0  0  0  0  0  0  0  0  0  0  0  0
    2.1249    3.7269    1.7685 O   0  0  0  0  0  1  0  0  0  0  0  0
    3.5083    1.6131    0.5244 C   0  0  0  0  0  0  0  0  0  0  0  0
    4.0860    0.3707    0.2578 C   0  0  0  0  0  0  0  0  0  0  0  0
    5.4342    0.1584    0.1195 O   0  0  0  0  0  0  0  0  0  0  0  0
    6.3113    1.2451    0.3846 C   0  0  0  0  0  0  0  0  0  0  0  0
    3.8252   -3.9685   -0.4019 H   0  0  0  0  0  0  0  0  0  0  0  0
    2.4366   -3.1002   -1.0665 H   0  0  0  0  0  0  0  0  0  0  0  0
    2.6201   -3.3212    0.7177 H   0  0  0  0  0  0  0  0  0  0  0  0
    1.2290   -1.5109    0.1187 H   0  0  0  0  0  0  0  0  0  0  0  0
   -0.4943    0.6203   -1.4658 H   0  0  0  0  0  0  0  0  0  0  0  0
   -2.4342    2.8181   -0.0681 H   0  0  0  0  0  0  0  0  0  0  0  0
   -4.8898    3.0002   -0.0636 H   0  0  0  0  0  0  0  0  0  0  0  0
   -6.2882    1.0216   -0.4877 H   0  0  0  0  0  0  0  0  0  0  0  0
   -6.5103   -1.3697   -0.9829 H   0  0  0  0  0  0  0  0  0  0  0  0
   -5.5012   -3.5696   -1.4201 H   0  0  0  0  0  0  0  0  0  0  0  0
   -3.0356   -3.8278   -1.4373 H   0  0  0  0  0  0  0  0  0  0  0  0
   -1.5869   -1.8982   -1.0193 H   0  0  0  0  0  0  0  0  0  0  0  0
    4.1179    2.5049    0.6384 H   0  0  0  0  0  0  0  0  0  0  0  0
    6.1726    2.0481   -0.3464 H   0  0  0  0  0  0  0  0  0  0  0  0
    6.1868    1.6145    1.4078 H   0  0  0  0  0  0  0  0  0  0  0  0
    7.3375    0.8786    0.2853 H   0  0  0  0  0  0  0  0  0  0  0  0
  1  2  1  0
  2  3  1  0
  3  4  2  0
  4  5  1  0
  5  6  1  0
  6  7  1  0
  7  8  3  0
  6  9  2  3
  9 10  1  0
 10 11  2  0
 11 12  1  0
 12 13  2  0
 13 14  1  0
 14 15  2  0
 15 16  1  0
 16 17  2  0
 17 18  1  0
 18 19  2  0
  5 20  2  0
 20 21  1  0
 21 22  2  0
 21 23  1  0
 20 24  1  0
 24 25  2  0
 25 26  1  0
 26 27  1  0
 25  3  1  0
 19 10  1  0
 19 14  1  0
  1 28  1  0
  1 29  1  0
  1 30  1  0
  4 31  1  0
  9 32  1  0
 11 33  1  0
 12 34  1  0
 13 35  1  0
 15 36  1  0
 16 37  1  0
 17 38  1  0
 18 39  1  0
 24 40  1  0
 27 41  1  0
 27 42  1  0
 27 43  1  0
M  CHG  2  21   1  23  -1
M  END
$$$$
