
     RDKit          3D

 59 62  0  0  0  0  0  0  0  0999 V2000
    8.2295    3.7974    1.5003 C   0  0  0  0  0  0  0  0  0  0  0  0
    7.9147    3.6585    0.0208 C   0  0  0  0  0  0  0  0  0  0  0  0
    6.5173    3.4482   -0.1778 O   0  0  0  0  0  0  0  0  0  0  0  0
    6.0469    2.1666   -0.2375 C   0  0  0  0  0  0  0  0  0  0  0  0
    4.7120    2.0583   -0.6336 C   0  0  0  0  0  0  0  0  0  0  0  0
    4.0951    0.8096   -0.7372 C   0  0  0  0  0  0  0  0  0  0  0  0
    4.8084   -0.3571   -0.4405 C   0  0  0  0  0  0  0  0  0  0  0  0
    4.1375   -1.7084   -0.5332 C   0  0  0  0  0  0  0  0  0  0  0  0
    3.7370   -2.2673    0.8375 C   0  0  0  0  0  0  0  0  0  0  0  0
    2.7748   -1.4346    1.5374 N   0  0  0  0  0  0  0  0  0  0  0  0
    1.4346   -1.4299    1.1906 C   0  0  0  0  0  0  0  0  0  0  0  0
    0.9726   -2.1796    0.3368 O   0  0  0  0  0  0  0  0  0  0  0  0
    0.6321   -0.4020    1.9796 C   0  0  0  0  0  0  0  0  0  0  0  0
   -0.8643   -0.4307    1.7671 C   0  0  0  0  0  0  0  0  0  0  0  0
   -1.6017   -1.6012    1.9939 C   0  0  0  0  0  0  0  0  0  0  0  0
   -2.9897   -1.6101    1.8278 C   0  0  0  0  0  0  0  0  0  0  0  0
   -3.6651   -0.4549    1.4343 C   0  0  0  0  0  0  0  0  0  0  0  0
   -5.0596   -0.4670    1.2966 N   0  0  0  0  0  0  0  0  0  0  0  0
   -5.5970   -0.6693    0.1392 C   0  0  0  0  0  0  0  0  0  0  0  0
   -6.9544   -0.7131   -0.0371 N   0  0  0  0  0  0  0  0  0  0  0  0
   -7.3954   -1.4005   -1.2417 C   0  0  0  0  0  0  0  0  0  0  0  0
   -8.7616   -0.9170   -1.7069 C   0  0  0  0  0  0  0  0  0  0  0  0
   -8.4690    0.1155   -3.1252 S   0  0  0  0  0  6  0  0  0  0  0  0
   -9.0743    1.4114   -2.9097 O   0  0  0  0  0  0  0  0  0  0  0  0
   -8.7420   -0.6751   -4.3094 O   0  0  0  0  0  0  0  0  0  0  0  0
   -6.7090    0.2446   -2.9441 C   0  0  0  0  0  0  0  0  0  0  0  0
   -6.3371   -1.0863   -2.3120 C   0  0  0  0  0  0  0  0  0  0  0  0
   -4.7712   -0.9692   -1.3888 S   0  0  0  0  0  0  0  0  0  0  0  0
   -2.9396    0.7228    1.2393 C   0  0  0  0  0  0  0  0  0  0  0  0
   -1.5506    0.7354    1.3987 C   0  0  0  0  0  0  0  0  0  0  0  0
    6.1443   -0.2468   -0.0345 C   0  0  0  0  0  0  0  0  0  0  0  0
    6.7589    1.0073    0.0680 C   0  0  0  0  0  0  0  0  0  0  0  0
    7.6355    4.6045    1.9430 H   0  0  0  0  0  0  0  0  0  0  0  0
    7.9812    2.8844    2.0510 H   0  0  0  0  0  0  0  0  0  0  0  0
    9.2895    4.0191    1.6520 H   0  0  0  0  0  0  0  0  0  0  0  0
    8.1596    4.6051   -0.4751 H   0  0  0  0  0  0  0  0  0  0  0  0
    8.5316    2.8966   -0.4681 H   0  0  0  0  0  0  0  0  0  0  0  0
    4.1478    2.9579   -0.8724 H   0  0  0  0  0  0  0  0  0  0  0  0
    3.0555    0.7552   -1.0543 H   0  0  0  0  0  0  0  0  0  0  0  0
    3.2592   -1.6394   -1.1877 H   0  0  0  0  0  0  0  0  0  0  0  0
    4.8252   -2.4098   -1.0239 H   0  0  0  0  0  0  0  0  0  0  0  0
    3.3019   -3.2648    0.7084 H   0  0  0  0  0  0  0  0  0  0  0  0
    4.6100   -2.3629    1.4925 H   0  0  0  0  0  0  0  0  0  0  0  0
    3.1382   -0.6492    2.0672 H   0  0  0  0  0  0  0  0  0  0  0  0
    0.8283   -0.5507    3.0504 H   0  0  0  0  0  0  0  0  0  0  0  0
    1.0258    0.5876    1.7107 H   0  0  0  0  0  0  0  0  0  0  0  0
   -1.0997   -2.5209    2.2845 H   0  0  0  0  0  0  0  0  0  0  0  0
   -3.5473   -2.5255    2.0023 H   0  0  0  0  0  0  0  0  0  0  0  0
   -7.4539   -0.8877    0.8313 H   0  0  0  0  0  0  0  0  0  0  0  0
   -7.4305   -2.4761   -1.0276 H   0  0  0  0  0  0  0  0  0  0  0  0
   -9.2945   -0.3390   -0.9457 H   0  0  0  0  0  0  0  0  0  0  0  0
   -9.3875   -1.7523   -2.0360 H   0  0  0  0  0  0  0  0  0  0  0  0
   -6.2484    0.3979   -3.9225 H   0  0  0  0  0  0  0  0  0  0  0  0
   -6.5121    1.1071   -2.2988 H   0  0  0  0  0  0  0  0  0  0  0  0
   -6.2921   -1.8814   -3.0647 H   0  0  0  0  0  0  0  0  0  0  0  0
   -3.4592    1.6338    0.9551 H   0  0  0  0  0  0  0  0  0  0  0  0
   -1.0123    1.6662    1.2308 H   0  0  0  0  0  0  0  0  0  0  0  0
    6.7217   -1.1386    0.2037 H   0  0  0  0  0  0  0  0  0  0  0  0
    7.7924    1.0385    0.3954 H   0  0  0  0  0  0  0  0  0  0  0  0
  1  2  1  0
  2  3  1  0
  3  4  1  0
  4  5  2  0
  5  6  1  0
  6  7  2  0
  7  8  1  0
  8  9  1  0
  9 10  1  0
 10 11  1  0
 11 12  2  0
 11 13  1  0
 13 14  1  0
 14 15  2  0
 15 16  1  0
 16 17  2  0
 17 18  1  0
 18 19  2  3
 19 20  1  0
 20 21  1  0
 21 22  1  0
 22 23  1  0
 23 24  2  0
 23 25  2  0
 23 26  1  0
 26 27  1  0
 27 28  1  0
 17 29  1  0
 29 30  2  0
  7 31  1  0
 31 32  2  0
 32  4  1  0
 30 14  1  0
 28 19  1  0
 27 21  1  0
  1 33  1  0
  1 34  1  0
  1 35  1  0
  2 36  1  0
  2 37  1  0
  5 38  1  0
  6 39  1  0
  8 40  1  0
  8 41  1  0
  9 42  1  0
  9 43  1  0
 10 44  1  0
 13 45  1  0
 13 46  1  0
 15 47  1  0
 16 48  1  0
 20 49  1  0
 21 50  1  0
 22 51  1  0
 22 52  1  0
 26 53  1  0
 26 54  1  0
 27 55  1  0
 29 56  1  0
 30 57  1  0
 31 58  1  0
 32 59  1  0
M  END
$$$$
