
     RDKit          3D

 57 59  0  0  0  0  0  0  0  0999 V2000
   -8.3683   -1.1987   -1.2619 C   0  0  0  0  0  0  0  0  0  0  0  0
   -7.3273   -0.8573   -0.2359 C   0  0  0  0  0  0  0  0  0  0  0  0
   -6.3964   -1.8253    0.1666 C   0  0  0  0  0  0  0  0  0  0  0  0
   -5.4125   -1.5129    1.1054 C   0  0  0  0  0  0  0  0  0  0  0  0
   -5.3529   -0.2219    1.6335 C   0  0  0  0  0  0  0  0  0  0  0  0
   -4.0925    0.1639    2.8202 S   0  0  0  0  0  6  0  0  0  0  0  0
   -4.1357    1.5842    3.1025 O   0  0  0  0  0  0  0  0  0  0  0  0
   -4.1920   -0.8153    3.8813 O   0  0  0  0  0  0  0  0  0  0  0  0
   -2.6405   -0.1304    1.9512 N   0  0  0  0  0  0  0  0  0  0  0  0
   -2.4178    0.7762    0.7907 C   0  0  0  0  0  0  0  0  0  0  0  0
   -1.2558    0.2463   -0.0405 C   0  0  0  0  0  0  0  0  0  0  0  0
    0.0207    0.1275    0.8013 C   0  0  0  0  0  0  0  0  0  0  0  0
    1.1594   -0.4697   -0.0192 C   0  0  0  0  0  0  0  0  0  0  0  0
    1.0289   -0.8592   -1.1750 O   0  0  0  0  0  0  0  0  0  0  0  0
    2.3621   -0.5245    0.6552 N   0  0  0  0  0  0  0  0  0  0  0  0
    3.5890   -0.8431   -0.0680 C   0  0  0  0  0  0  0  0  0  0  0  0
    4.5434   -1.6247    0.8251 C   0  0  0  0  0  0  0  0  0  0  0  0
    4.2528    0.4826   -0.5049 C   0  0  0  0  0  0  0  0  0  0  0  0
    4.0074    1.5321    0.0884 O   0  0  0  0  0  0  0  0  0  0  0  0
    5.1550    0.3167   -1.5434 N   0  0  0  0  0  0  0  0  0  0  0  0
    5.9802    1.2967   -2.1316 C   0  0  0  0  0  0  0  0  0  0  0  0
    6.0356    2.6280   -1.7114 C   0  0  0  0  0  0  0  0  0  0  0  0
    6.8908    3.5355   -2.3452 C   0  0  0  0  0  0  0  0  0  0  0  0
    7.6904    3.1099   -3.3969 C   0  0  0  0  0  0  0  0  0  0  0  0
    8.5094    3.9799   -4.0009 F   0  0  0  0  0  0  0  0  0  0  0  0
    7.6504    1.7922   -3.8304 C   0  0  0  0  0  0  0  0  0  0  0  0
    6.7960    0.8861   -3.1977 C   0  0  0  0  0  0  0  0  0  0  0  0
   -0.2520   -0.7143    2.0535 C   0  0  0  0  0  0  0  0  0  0  0  0
   -1.4456   -0.1774    2.8364 C   0  0  0  0  0  0  0  0  0  0  0  0
   -6.2682    0.7558    1.2388 C   0  0  0  0  0  0  0  0  0  0  0  0
   -7.2505    0.4358    0.2998 C   0  0  0  0  0  0  0  0  0  0  0  0
   -7.9220   -1.2051   -2.2614 H   0  0  0  0  0  0  0  0  0  0  0  0
   -9.1895   -0.4733   -1.2514 H   0  0  0  0  0  0  0  0  0  0  0  0
   -8.8000   -2.1844   -1.0558 H   0  0  0  0  0  0  0  0  0  0  0  0
   -6.4371   -2.8309   -0.2490 H   0  0  0  0  0  0  0  0  0  0  0  0
   -4.6986   -2.2714    1.4204 H   0  0  0  0  0  0  0  0  0  0  0  0
   -2.2042    1.7933    1.1386 H   0  0  0  0  0  0  0  0  0  0  0  0
   -3.3066    0.8115    0.1539 H   0  0  0  0  0  0  0  0  0  0  0  0
   -1.0821    0.9119   -0.8942 H   0  0  0  0  0  0  0  0  0  0  0  0
   -1.5241   -0.7347   -0.4553 H   0  0  0  0  0  0  0  0  0  0  0  0
    0.3321    1.1368    1.1031 H   0  0  0  0  0  0  0  0  0  0  0  0
    2.4800    0.1567    1.3984 H   0  0  0  0  0  0  0  0  0  0  0  0
    3.3485   -1.4353   -0.9584 H   0  0  0  0  0  0  0  0  0  0  0  0
    5.4590   -1.8931    0.2878 H   0  0  0  0  0  0  0  0  0  0  0  0
    4.0745   -2.5479    1.1825 H   0  0  0  0  0  0  0  0  0  0  0  0
    4.8357   -1.0366    1.7032 H   0  0  0  0  0  0  0  0  0  0  0  0
    5.2035   -0.6065   -1.9586 H   0  0  0  0  0  0  0  0  0  0  0  0
    5.4265    2.9971   -0.8929 H   0  0  0  0  0  0  0  0  0  0  0  0
    6.9344    4.5694   -2.0207 H   0  0  0  0  0  0  0  0  0  0  0  0
    8.2826    1.4788   -4.6549 H   0  0  0  0  0  0  0  0  0  0  0  0
    6.7789   -0.1407   -3.5516 H   0  0  0  0  0  0  0  0  0  0  0  0
    0.6270   -0.7291    2.7092 H   0  0  0  0  0  0  0  0  0  0  0  0
   -0.4413   -1.7565    1.7622 H   0  0  0  0  0  0  0  0  0  0  0  0
   -1.2271    0.8227    3.2293 H   0  0  0  0  0  0  0  0  0  0  0  0
   -1.6269   -0.8479    3.6831 H   0  0  0  0  0  0  0  0  0  0  0  0
   -6.2268    1.7595    1.6546 H   0  0  0  0  0  0  0  0  0  0  0  0
   -7.9597    1.2010   -0.0086 H   0  0  0  0  0  0  0  0  0  0  0  0
  1  2  1  0
  2  3  2  0
  3  4  1  0
  4  5  2  0
  5  6  1  0
  6  7  2  0
  6  8  2  0
  6  9  1  0
  9 10  1  0
 10 11  1  0
 11 12  1  0
 12 13  1  0
 13 14  2  0
 13 15  1  0
 15 16  1  0
 16 17  1  0
 16 18  1  0
 18 19  2  0
 18 20  1  0
 20 21  1  0
 21 22  2  0
 22 23  1  0
 23 24  2  0
 24 25  1  0
 24 26  1  0
 26 27  2  0
 12 28  1  0
 28 29  1  0
  5 30  1  0
 30 31  2  0
 31  2  1  0
 29  9  1  0
 27 21  1  0
  1 32  1  0
  1 33  1  0
  1 34  1  0
  3 35  1  0
  4 36  1  0
 10 37  1  0
 10 38  1  0
 11 39  1  0
 11 40  1  0
 12 41  1  0
 15 42  1  0
 16 43  1  0
 17 44  1  0
 17 45  1  0
 17 46  1  0
 20 47  1  0
 22 48  1  0
 23 49  1  0
 26 50  1  0
 27 51  1  0
 28 52  1  0
 28 53  1  0
 29 54  1  0
 29 55  1  0
 30 56  1  0
 31 57  1  0
M  END
$$$$
