
     RDKit          3D

 39 40  0  0  0  0  0  0  0  0999 V2000
   -5.4083    1.4045    2.2845 C   0  0  0  0  0  0  0  0  0  0  0  0
   -5.0393    1.4703    0.8106 C   0  0  0  0  0  0  0  0  0  0  0  0
   -3.8400    0.6852    0.5142 N   0  0  0  0  0  0  0  0  0  0  0  0
   -4.0366   -0.7213    0.1528 C   0  0  0  0  0  0  0  0  0  0  0  0
   -4.3015   -0.8916   -1.3351 C   0  0  0  0  0  0  0  0  0  0  0  0
   -2.5942    1.3102    0.6409 C   0  0  0  0  0  0  0  0  0  0  0  0
   -2.5063    2.4794    1.0227 O   0  0  0  0  0  0  0  0  0  0  0  0
   -1.3670    0.4640    0.3099 C   0  0  0  0  0  0  0  0  0  0  0  0
    0.1400    1.4716    0.1563 S   0  0  0  0  0  0  0  0  0  0  0  0
    1.2975    0.2323   -0.1802 C   0  0  0  0  0  0  0  0  0  0  0  0
    1.0652   -1.0520   -0.2979 N   0  0  0  0  0  0  0  0  0  0  0  0
    2.2706   -1.6629   -0.5526 N   0  0  0  0  0  0  0  0  0  0  0  0
    3.2220   -0.7389   -0.6064 C   0  0  0  0  0  0  0  0  0  0  0  0
    4.6414   -1.0125   -0.8518 C   0  0  0  0  0  0  0  0  0  0  0  0
    5.5050   -0.0863   -1.4401 C   0  0  0  0  0  0  0  0  0  0  0  0
    6.8304   -0.4415   -1.6384 C   0  0  0  0  0  0  0  0  0  0  0  0
    7.3459   -1.6413   -1.3016 N   0  0  0  0  0  0  0  0  0  0  0  0
    6.4956   -2.5317   -0.7521 C   0  0  0  0  0  0  0  0  0  0  0  0
    5.1569   -2.2689   -0.5143 C   0  0  0  0  0  0  0  0  0  0  0  0
    2.6359    0.4884   -0.3484 N   0  0  0  0  0  0  0  0  0  0  0  0
    3.2885    1.7704   -0.2071 N   0  0  0  0  0  0  0  0  0  0  0  0
   -6.3043    2.0019    2.4789 H   0  0  0  0  0  0  0  0  0  0  0  0
   -5.6104    0.3744    2.5952 H   0  0  0  0  0  0  0  0  0  0  0  0
   -4.5980    1.7886    2.9125 H   0  0  0  0  0  0  0  0  0  0  0  0
   -5.8672    1.1033    0.1944 H   0  0  0  0  0  0  0  0  0  0  0  0
   -4.8699    2.5154    0.5279 H   0  0  0  0  0  0  0  0  0  0  0  0
   -3.1593   -1.3089    0.4365 H   0  0  0  0  0  0  0  0  0  0  0  0
   -4.8783   -1.1158    0.7329 H   0  0  0  0  0  0  0  0  0  0  0  0
   -5.2112   -0.3633   -1.6377 H   0  0  0  0  0  0  0  0  0  0  0  0
   -4.4272   -1.9509   -1.5792 H   0  0  0  0  0  0  0  0  0  0  0  0
   -3.4754   -0.4973   -1.9348 H   0  0  0  0  0  0  0  0  0  0  0  0
   -1.2290   -0.2658    1.1140 H   0  0  0  0  0  0  0  0  0  0  0  0
   -1.5240   -0.0488   -0.6424 H   0  0  0  0  0  0  0  0  0  0  0  0
    5.1705    0.8940   -1.7604 H   0  0  0  0  0  0  0  0  0  0  0  0
    7.5323    0.2524   -2.0928 H   0  0  0  0  0  0  0  0  0  0  0  0
    6.9300   -3.4949   -0.4999 H   0  0  0  0  0  0  0  0  0  0  0  0
    4.5269   -3.0351   -0.0717 H   0  0  0  0  0  0  0  0  0  0  0  0
    3.5778    1.9042    0.7622 H   0  0  0  0  0  0  0  0  0  0  0  0
    2.6147    2.5193   -0.3809 H   0  0  0  0  0  0  0  0  0  0  0  0
  1  2  1  0
  2  3  1  0
  3  4  1  0
  4  5  1  0
  3  6  1  0
  6  7  2  0
  6  8  1  0
  8  9  1  0
  9 10  1  0
 10 11  2  0
 11 12  1  0
 12 13  2  0
 13 14  1  0
 14 15  2  0
 15 16  1  0
 16 17  2  0
 17 18  1  0
 18 19  2  0
 13 20  1  0
 20 21  1  0
 20 10  1  0
 19 14  1  0
  1 22  1  0
  1 23  1  0
  1 24  1  0
  2 25  1  0
  2 26  1  0
  4 27  1  0
  4 28  1  0
  5 29  1  0
  5 30  1  0
  5 31  1  0
  8 32  1  0
  8 33  1  0
 15 34  1  0
 16 35  1  0
 18 36  1  0
 19 37  1  0
 21 38  1  0
 21 39  1  0
M  END
$$$$
