
     RDKit          3D

 61 65  0  0  0  0  0  0  0  0999 V2000
   -3.8386   -2.5786    0.7613 C   0  0  0  0  0  0  0  0  0  0  0  0
   -4.2797   -1.2930    0.3434 O   0  0  0  0  0  0  0  0  0  0  0  0
   -4.0609   -0.9729   -0.9736 C   0  0  0  0  0  0  0  0  0  0  0  0
   -3.9540   -1.9274   -1.9927 C   0  0  0  0  0  0  0  0  0  0  0  0
   -3.7610   -1.5309   -3.3185 C   0  0  0  0  0  0  0  0  0  0  0  0
   -3.6812   -0.1794   -3.6402 C   0  0  0  0  0  0  0  0  0  0  0  0
   -3.7974    0.7800   -2.6352 C   0  0  0  0  0  0  0  0  0  0  0  0
   -3.9923    0.3973   -1.2967 C   0  0  0  0  0  0  0  0  0  0  0  0
   -4.0821    1.4401   -0.2629 C   0  0  0  0  0  0  0  0  0  0  0  0
   -5.4977    2.3978   -0.1982 S   0  0  0  0  0  0  0  0  0  0  0  0
   -4.9335    3.3012    1.1495 C   0  0  0  0  0  0  0  0  0  0  0  0
   -5.6120    4.3467    1.8078 C   0  0  0  0  0  0  0  0  0  0  0  0
   -4.9985    4.9789    2.8909 C   0  0  0  0  0  0  0  0  0  0  0  0
   -3.7377    4.5848    3.3127 C   0  0  0  0  0  0  0  0  0  0  0  0
   -3.0691    3.5469    2.6568 C   0  0  0  0  0  0  0  0  0  0  0  0
   -3.6655    2.8792    1.5546 C   0  0  0  0  0  0  0  0  0  0  0  0
   -3.1796    1.7955    0.7278 C   0  0  0  0  0  0  0  0  0  0  0  0
   -1.8995    1.1115    0.8826 C   0  0  0  0  0  0  0  0  0  0  0  0
   -1.6722    0.3006    1.9980 C   0  0  0  0  0  0  0  0  0  0  0  0
   -0.4488   -0.3563    2.1471 C   0  0  0  0  0  0  0  0  0  0  0  0
    0.5594   -0.2105    1.1908 C   0  0  0  0  0  0  0  0  0  0  0  0
    1.7032   -0.9110    1.4580 O   0  0  0  0  0  0  0  0  0  0  0  0
    2.7661   -0.8108    0.5048 C   0  0  0  0  0  0  0  0  0  0  0  0
    3.9360   -1.6781    1.0033 C   0  0  0  0  0  0  0  0  0  0  0  0
    5.1301   -1.7499    0.1517 N   0  0  0  0  0  0  0  0  0  0  0  0
    4.9427   -2.5848   -1.0405 C   0  0  0  0  0  0  0  0  0  0  0  0
    5.9423   -2.2837   -2.1663 C   0  0  0  0  0  0  0  0  0  0  0  0
    7.2939   -1.8576   -1.6116 C   0  0  0  0  0  0  0  0  0  0  0  0
    7.1556   -0.6482   -0.6830 C   0  0  0  0  0  0  0  0  0  0  0  0
    5.7333   -0.4554   -0.1436 C   0  0  0  0  0  0  0  0  0  0  0  0
    0.3355    0.6047    0.0805 C   0  0  0  0  0  0  0  0  0  0  0  0
   -0.8891    1.2651   -0.0720 C   0  0  0  0  0  0  0  0  0  0  0  0
   -4.5245   -3.3564    0.4116 H   0  0  0  0  0  0  0  0  0  0  0  0
   -2.8126   -2.7807    0.4346 H   0  0  0  0  0  0  0  0  0  0  0  0
   -3.8484   -2.5950    1.8554 H   0  0  0  0  0  0  0  0  0  0  0  0
   -4.0348   -2.9892   -1.7847 H   0  0  0  0  0  0  0  0  0  0  0  0
   -3.6812   -2.2808   -4.1017 H   0  0  0  0  0  0  0  0  0  0  0  0
   -3.5338    0.1288   -4.6719 H   0  0  0  0  0  0  0  0  0  0  0  0
   -3.7327    1.8338   -2.8975 H   0  0  0  0  0  0  0  0  0  0  0  0
   -6.5993    4.6573    1.4778 H   0  0  0  0  0  0  0  0  0  0  0  0
   -5.5148    5.7861    3.4047 H   0  0  0  0  0  0  0  0  0  0  0  0
   -3.2646    5.0827    4.1554 H   0  0  0  0  0  0  0  0  0  0  0  0
   -2.0792    3.2512    2.9967 H   0  0  0  0  0  0  0  0  0  0  0  0
   -2.4492    0.1656    2.7468 H   0  0  0  0  0  0  0  0  0  0  0  0
   -0.2818   -0.9895    3.0148 H   0  0  0  0  0  0  0  0  0  0  0  0
    3.0885    0.2338    0.4257 H   0  0  0  0  0  0  0  0  0  0  0  0
    2.4195   -1.1719   -0.4695 H   0  0  0  0  0  0  0  0  0  0  0  0
    3.5695   -2.6945    1.2016 H   0  0  0  0  0  0  0  0  0  0  0  0
    4.2374   -1.3094    1.9931 H   0  0  0  0  0  0  0  0  0  0  0  0
    3.9352   -2.4846   -1.4598 H   0  0  0  0  0  0  0  0  0  0  0  0
    5.0544   -3.6330   -0.7379 H   0  0  0  0  0  0  0  0  0  0  0  0
    5.5471   -1.4809   -2.8019 H   0  0  0  0  0  0  0  0  0  0  0  0
    6.0572   -3.1668   -2.8049 H   0  0  0  0  0  0  0  0  0  0  0  0
    7.9894   -1.6274   -2.4264 H   0  0  0  0  0  0  0  0  0  0  0  0
    7.7326   -2.6940   -1.0529 H   0  0  0  0  0  0  0  0  0  0  0  0
    7.8610   -0.7624    0.1497 H   0  0  0  0  0  0  0  0  0  0  0  0
    7.4533    0.2618   -1.2179 H   0  0  0  0  0  0  0  0  0  0  0  0
    5.1303    0.1019   -0.8718 H   0  0  0  0  0  0  0  0  0  0  0  0
    5.7945    0.1636    0.7599 H   0  0  0  0  0  0  0  0  0  0  0  0
    1.0882    0.7500   -0.6867 H   0  0  0  0  0  0  0  0  0  0  0  0
   -1.0487    1.8979   -0.9419 H   0  0  0  0  0  0  0  0  0  0  0  0
  1  2  1  0
  2  3  1  0
  3  4  2  0
  4  5  1  0
  5  6  2  0
  6  7  1  0
  7  8  2  0
  8  9  1  0
  9 10  1  0
 10 11  1  0
 11 12  2  0
 12 13  1  0
 13 14  2  0
 14 15  1  0
 15 16  2  0
 16 17  1  0
 17 18  1  0
 18 19  2  0
 19 20  1  0
 20 21  2  0
 21 22  1  0
 22 23  1  0
 23 24  1  0
 24 25  1  0
 25 26  1  0
 26 27  1  0
 27 28  1  0
 28 29  1  0
 29 30  1  0
 21 31  1  0
 31 32  2  0
  8  3  1  0
 17  9  2  0
 32 18  1  0
 16 11  1  0
 30 25  1  0
  1 33  1  0
  1 34  1  0
  1 35  1  0
  4 36  1  0
  5 37  1  0
  6 38  1  0
  7 39  1  0
 12 40  1  0
 13 41  1  0
 14 42  1  0
 15 43  1  0
 19 44  1  0
 20 45  1  0
 23 46  1  0
 23 47  1  0
 24 48  1  0
 24 49  1  0
 26 50  1  0
 26 51  1  0
 27 52  1  0
 27 53  1  0
 28 54  1  0
 28 55  1  0
 29 56  1  0
 29 57  1  0
 30 58  1  0
 30 59  1  0
 31 60  1  0
 32 61  1  0
M  END
$$$$
