
     RDKit          3D

 60 64  0  0  0  0  0  0  0  0999 V2000
    2.2666   -0.1212   -1.9497 C   0  0  0  0  0  0  0  0  0  0  0  0
    1.9906    0.1654   -0.4606 C   0  0  0  0  0  0  0  0  0  0  0  0
    1.4255   -1.1029    0.2289 C   0  0  0  0  0  0  0  0  0  0  0  0
   -0.0093   -1.4307   -0.1845 C   0  0  0  0  0  0  0  0  0  0  0  0
   -0.9803   -0.2689    0.0969 C   0  0  0  0  0  0  0  0  0  0  0  0
   -0.4761    1.0300   -0.5807 C   0  0  0  0  0  0  0  0  0  0  0  0
   -1.4088    2.2058   -0.2338 C   0  0  0  0  0  0  0  0  0  0  0  0
   -2.8436    1.9339   -0.6682 C   0  0  0  0  0  0  0  0  0  0  0  0
   -3.3660    0.6325   -0.1054 C   0  0  0  0  0  0  0  0  0  0  0  0
   -4.5605    0.6041    0.5186 C   0  0  0  0  0  0  0  0  0  0  0  0
   -5.1947   -0.6194    1.0987 C   0  0  0  0  0  0  0  0  0  0  0  0
   -5.1590   -0.4966    2.5154 O   0  0  0  0  0  0  0  0  0  0  0  0
   -4.4929   -1.9075    0.6784 C   0  0  0  0  0  0  0  0  0  0  0  0
   -2.9703   -1.7447    0.6935 C   0  0  0  0  0  0  0  0  0  0  0  0
   -2.4750   -0.6075   -0.2577 C   0  0  0  0  0  0  0  0  0  0  0  0
   -2.5720   -1.1590   -1.6934 C   0  0  0  0  0  0  0  0  0  0  0  0
   -2.5739   -0.4097   -2.7516 N   0  0  0  0  0  0  0  0  0  0  0  0
   -2.6325   -1.2282   -3.8853 O   0  0  0  0  0  0  0  0  0  0  0  0
    1.0043    1.3572   -0.2573 C   0  0  0  0  0  0  0  0  0  0  0  0
    1.4129    2.4639   -1.0784 O   0  0  0  0  0  0  0  0  0  0  0  0
    1.2645    1.7984    1.1958 C   0  0  0  0  0  0  0  0  0  0  0  0
    2.7172    1.4169    1.5041 C   0  0  0  0  0  0  0  0  0  0  0  0
    3.2728    0.7291    0.2415 C   0  0  0  0  0  0  0  0  0  0  0  0
    4.4672   -0.1409    0.5315 C   0  0  0  0  0  0  0  0  0  0  0  0
    4.7455   -1.3900    0.1611 C   0  0  0  0  0  0  0  0  0  0  0  0
    6.0721   -1.7201    0.6791 C   0  0  0  0  0  0  0  0  0  0  0  0
    6.6303   -2.7904    0.5228 O   0  0  0  0  0  0  0  0  0  0  0  0
    6.5693   -0.6482    1.3466 O   0  0  0  0  0  0  0  0  0  0  0  0
    5.6155    0.4104    1.3008 C   0  0  0  0  0  0  0  0  0  0  0  0
    1.3413   -0.2985   -2.5067 H   0  0  0  0  0  0  0  0  0  0  0  0
    2.7824    0.7143   -2.4350 H   0  0  0  0  0  0  0  0  0  0  0  0
    2.8972   -1.0057   -2.0797 H   0  0  0  0  0  0  0  0  0  0  0  0
    2.0405   -1.9774   -0.0036 H   0  0  0  0  0  0  0  0  0  0  0  0
    1.4536   -1.0008    1.3203 H   0  0  0  0  0  0  0  0  0  0  0  0
   -0.3183   -2.3245    0.3680 H   0  0  0  0  0  0  0  0  0  0  0  0
   -0.0263   -1.7006   -1.2460 H   0  0  0  0  0  0  0  0  0  0  0  0
   -0.9539   -0.0935    1.1823 H   0  0  0  0  0  0  0  0  0  0  0  0
   -0.5381    0.8942   -1.6686 H   0  0  0  0  0  0  0  0  0  0  0  0
   -1.3925    2.3993    0.8460 H   0  0  0  0  0  0  0  0  0  0  0  0
   -1.0639    3.1234   -0.7243 H   0  0  0  0  0  0  0  0  0  0  0  0
   -3.4673    2.7783   -0.3501 H   0  0  0  0  0  0  0  0  0  0  0  0
   -2.9010    1.9160   -1.7616 H   0  0  0  0  0  0  0  0  0  0  0  0
   -5.1458    1.5168    0.6161 H   0  0  0  0  0  0  0  0  0  0  0  0
   -6.2470   -0.6711    0.8010 H   0  0  0  0  0  0  0  0  0  0  0  0
   -4.2835   -0.1503    2.7566 H   0  0  0  0  0  0  0  0  0  0  0  0
   -4.8166   -2.1915   -0.3302 H   0  0  0  0  0  0  0  0  0  0  0  0
   -4.7705   -2.7263    1.3526 H   0  0  0  0  0  0  0  0  0  0  0  0
   -2.6495   -1.5396    1.7236 H   0  0  0  0  0  0  0  0  0  0  0  0
   -2.5250   -2.7089    0.4193 H   0  0  0  0  0  0  0  0  0  0  0  0
   -2.5935   -2.2602   -1.8014 H   0  0  0  0  0  0  0  0  0  0  0  0
   -2.7131   -0.5786   -4.6097 H   0  0  0  0  0  0  0  0  0  0  0  0
    1.1052    2.3028   -1.9879 H   0  0  0  0  0  0  0  0  0  0  0  0
    0.6113    1.2902    1.9116 H   0  0  0  0  0  0  0  0  0  0  0  0
    1.1232    2.8771    1.3283 H   0  0  0  0  0  0  0  0  0  0  0  0
    2.7463    0.7521    2.3763 H   0  0  0  0  0  0  0  0  0  0  0  0
    3.3063    2.3062    1.7576 H   0  0  0  0  0  0  0  0  0  0  0  0
    3.6673    1.5330   -0.4001 H   0  0  0  0  0  0  0  0  0  0  0  0
    4.1841   -2.0897   -0.4286 H   0  0  0  0  0  0  0  0  0  0  0  0
    6.0658    1.2747    0.8029 H   0  0  0  0  0  0  0  0  0  0  0  0
    5.3417    0.6769    2.3259 H   0  0  0  0  0  0  0  0  0  0  0  0
  1  2  1  0
  2  3  1  0
  3  4  1  0
  4  5  1  0
  5  6  1  0
  6  7  1  0
  7  8  1  0
  8  9  1  0
  9 10  2  0
 10 11  1  0
 11 12  1  0
 11 13  1  0
 13 14  1  0
 14 15  1  0
 15 16  1  0
 16 17  2  3
 17 18  1  0
  6 19  1  0
 19 20  1  0
 19 21  1  0
 21 22  1  0
 22 23  1  0
 23 24  1  0
 24 25  2  0
 25 26  1  0
 26 27  2  0
 26 28  1  0
 28 29  1  0
 19  2  1  0
 29 24  1  0
 23  2  1  0
 15  5  1  0
 15  9  1  0
  1 30  1  0
  1 31  1  0
  1 32  1  0
  3 33  1  0
  3 34  1  0
  4 35  1  0
  4 36  1  0
  5 37  1  0
  6 38  1  0
  7 39  1  0
  7 40  1  0
  8 41  1  0
  8 42  1  0
 10 43  1  0
 11 44  1  0
 12 45  1  0
 13 46  1  0
 13 47  1  0
 14 48  1  0
 14 49  1  0
 16 50  1  0
 18 51  1  0
 20 52  1  0
 21 53  1  0
 21 54  1  0
 22 55  1  0
 22 56  1  0
 23 57  1  0
 25 58  1  0
 29 59  1  0
 29 60  1  0
M  END
$$$$
