
     RDKit          3D

 69 72  0  0  0  0  0  0  0  0999 V2000
    7.5852    2.3297    2.0326 C   0  0  0  0  0  0  0  0  0  0  0  0
    7.7567    1.3048    1.0644 O   0  0  0  0  0  0  0  0  0  0  0  0
    6.7020    0.4538    0.8427 C   0  0  0  0  0  0  0  0  0  0  0  0
    5.4931    0.4947    1.5440 C   0  0  0  0  0  0  0  0  0  0  0  0
    4.4722   -0.4116    1.2470 C   0  0  0  0  0  0  0  0  0  0  0  0
    4.6426   -1.3706    0.2434 C   0  0  0  0  0  0  0  0  0  0  0  0
    3.5182   -2.3196   -0.1047 C   0  0  0  0  0  0  0  0  0  0  0  0
    2.7121   -1.8537   -1.3228 C   0  0  0  0  0  0  0  0  0  0  0  0
    2.0480   -0.5790   -1.1128 N   0  0  0  0  0  0  0  0  0  0  0  0
    0.8893   -0.4847   -0.3705 C   0  0  0  0  0  0  0  0  0  0  0  0
    0.3033   -1.4665    0.0730 O   0  0  0  0  0  0  0  0  0  0  0  0
    0.4142    0.9510   -0.1563 C   0  0  0  0  0  0  0  0  0  0  0  0
   -0.0153    1.5851   -1.4903 C   0  0  0  0  0  0  0  0  0  0  0  0
   -1.5265    1.5060   -1.6876 C   0  0  0  0  0  0  0  0  0  0  0  0
   -2.2034    2.2406   -0.6095 N   0  0  0  0  0  0  0  0  0  0  0  0
   -3.7550    2.8208   -0.8159 S   0  0  0  0  0  6  0  0  0  0  0  0
   -3.9532    3.0879   -2.2216 O   0  0  0  0  0  0  0  0  0  0  0  0
   -3.9812    3.8454    0.1775 O   0  0  0  0  0  0  0  0  0  0  0  0
   -4.6963    1.4884   -0.4101 N   0  0  0  0  0  0  0  0  0  0  0  0
   -4.8062    1.1014    1.0103 C   0  0  0  0  0  0  0  0  0  0  0  0
   -6.1287    0.3763    1.2259 C   0  0  0  0  0  0  0  0  0  0  0  0
   -6.2531   -0.8238    0.2900 C   0  0  0  0  0  0  0  0  0  0  0  0
   -6.0312   -0.4134   -1.1643 C   0  0  0  0  0  0  0  0  0  0  0  0
   -4.7104    0.3283   -1.3237 C   0  0  0  0  0  0  0  0  0  0  0  0
   -7.5731   -1.3812    0.4295 O   0  0  0  0  0  0  0  0  0  0  0  0
   -7.3670   -2.7842    0.5911 C   0  0  0  0  0  0  0  0  0  0  0  0
   -6.0351   -2.8583    1.2827 C   0  0  0  0  0  0  0  0  0  0  0  0
   -5.2803   -1.8235    0.6518 O   0  0  0  0  0  0  0  0  0  0  0  0
   -1.5739    2.2525    0.7186 C   0  0  0  0  0  0  0  0  0  0  0  0
   -0.7018    1.0179    0.8999 C   0  0  0  0  0  0  0  0  0  0  0  0
    5.8567   -1.4166   -0.4577 C   0  0  0  0  0  0  0  0  0  0  0  0
    6.8894   -0.5177   -0.1616 C   0  0  0  0  0  0  0  0  0  0  0  0
    8.1035   -0.4954   -0.8031 O   0  0  0  0  0  0  0  0  0  0  0  0
    8.3928   -1.5528   -1.7054 C   0  0  0  0  0  0  0  0  0  0  0  0
    6.7639    3.0003    1.7585 H   0  0  0  0  0  0  0  0  0  0  0  0
    8.5038    2.9241    2.0570 H   0  0  0  0  0  0  0  0  0  0  0  0
    7.4356    1.9080    3.0320 H   0  0  0  0  0  0  0  0  0  0  0  0
    5.3142    1.2184    2.3322 H   0  0  0  0  0  0  0  0  0  0  0  0
    3.5394   -0.3626    1.8057 H   0  0  0  0  0  0  0  0  0  0  0  0
    2.8602   -2.4433    0.7642 H   0  0  0  0  0  0  0  0  0  0  0  0
    3.9400   -3.3117   -0.3071 H   0  0  0  0  0  0  0  0  0  0  0  0
    1.9520   -2.6047   -1.5648 H   0  0  0  0  0  0  0  0  0  0  0  0
    3.3594   -1.7342   -2.1984 H   0  0  0  0  0  0  0  0  0  0  0  0
    2.6062    0.2558   -1.2452 H   0  0  0  0  0  0  0  0  0  0  0  0
    1.2787    1.5108    0.2259 H   0  0  0  0  0  0  0  0  0  0  0  0
    0.2871    2.6410   -1.4906 H   0  0  0  0  0  0  0  0  0  0  0  0
    0.4844    1.1192   -2.3468 H   0  0  0  0  0  0  0  0  0  0  0  0
   -1.8483    0.4611   -1.6982 H   0  0  0  0  0  0  0  0  0  0  0  0
   -1.7659    1.9468   -2.6598 H   0  0  0  0  0  0  0  0  0  0  0  0
   -3.9637    0.4610    1.2926 H   0  0  0  0  0  0  0  0  0  0  0  0
   -4.7937    1.9821    1.6591 H   0  0  0  0  0  0  0  0  0  0  0  0
   -6.9668    1.0648    1.0586 H   0  0  0  0  0  0  0  0  0  0  0  0
   -6.1965    0.0513    2.2712 H   0  0  0  0  0  0  0  0  0  0  0  0
   -6.8623    0.2193   -1.5014 H   0  0  0  0  0  0  0  0  0  0  0  0
   -6.0293   -1.2984   -1.8125 H   0  0  0  0  0  0  0  0  0  0  0  0
   -3.8718   -0.3381   -1.0966 H   0  0  0  0  0  0  0  0  0  0  0  0
   -4.6161    0.6465   -2.3660 H   0  0  0  0  0  0  0  0  0  0  0  0
   -8.1813   -3.2320    1.1657 H   0  0  0  0  0  0  0  0  0  0  0  0
   -7.3303   -3.2398   -0.4041 H   0  0  0  0  0  0  0  0  0  0  0  0
   -5.5386   -3.8252    1.1677 H   0  0  0  0  0  0  0  0  0  0  0  0
   -6.1197   -2.6175    2.3479 H   0  0  0  0  0  0  0  0  0  0  0  0
   -0.9703    3.1628    0.8138 H   0  0  0  0  0  0  0  0  0  0  0  0
   -2.3215    2.2771    1.5155 H   0  0  0  0  0  0  0  0  0  0  0  0
   -1.3455    0.1302    0.8536 H   0  0  0  0  0  0  0  0  0  0  0  0
   -0.2544    1.0191    1.9016 H   0  0  0  0  0  0  0  0  0  0  0  0
    5.9730   -2.1636   -1.2368 H   0  0  0  0  0  0  0  0  0  0  0  0
    7.7398   -1.5080   -2.5824 H   0  0  0  0  0  0  0  0  0  0  0  0
    9.4229   -1.4247   -2.0518 H   0  0  0  0  0  0  0  0  0  0  0  0
    8.3275   -2.5278   -1.2111 H   0  0  0  0  0  0  0  0  0  0  0  0
  1  2  1  0
  2  3  1  0
  3  4  2  0
  4  5  1  0
  5  6  2  0
  6  7  1  0
  7  8  1  0
  8  9  1  0
  9 10  1  0
 10 11  2  0
 10 12  1  0
 12 13  1  0
 13 14  1  0
 14 15  1  0
 15 16  1  0
 16 17  2  0
 16 18  2  0
 16 19  1  0
 19 20  1  0
 20 21  1  0
 21 22  1  0
 22 23  1  0
 23 24  1  0
 22 25  1  0
 25 26  1  0
 26 27  1  0
 27 28  1  0
 15 29  1  0
 29 30  1  0
  6 31  1  0
 31 32  2  0
 32 33  1  0
 33 34  1  0
 32  3  1  0
 30 12  1  0
 24 19  1  0
 28 22  1  0
  1 35  1  0
  1 36  1  0
  1 37  1  0
  4 38  1  0
  5 39  1  0
  7 40  1  0
  7 41  1  0
  8 42  1  0
  8 43  1  0
  9 44  1  0
 12 45  1  0
 13 46  1  0
 13 47  1  0
 14 48  1  0
 14 49  1  0
 20 50  1  0
 20 51  1  0
 21 52  1  0
 21 53  1  0
 23 54  1  0
 23 55  1  0
 24 56  1  0
 24 57  1  0
 26 58  1  0
 26 59  1  0
 27 60  1  0
 27 61  1  0
 29 62  1  0
 29 63  1  0
 30 64  1  0
 30 65  1  0
 31 66  1  0
 34 67  1  0
 34 68  1  0
 34 69  1  0
M  END
$$$$
