
     RDKit          3D

 36 38  0  0  0  0  0  0  0  0999 V2000
   -1.3809    4.3136   -0.6698 C   0  0  0  0  0  0  0  0  0  0  0  0
   -1.8712    2.9257   -0.3832 C   0  0  0  0  0  0  0  0  0  0  0  0
   -3.0033    2.7192    0.4012 C   0  0  0  0  0  0  0  0  0  0  0  0
   -3.4215    1.4191    0.7017 C   0  0  0  0  0  0  0  0  0  0  0  0
   -2.7377    0.3008    0.2438 C   0  0  0  0  0  0  0  0  0  0  0  0
   -3.1953   -0.9091    0.5830 N   0  0  0  0  0  0  0  0  0  0  0  0
   -2.5175   -2.0000    0.1633 C   0  0  0  0  0  0  0  0  0  0  0  0
   -3.0435   -3.3966    0.5320 C   0  0  0  0  0  0  0  0  0  0  0  0
   -3.9976   -4.0604   -0.8406 Cl  0  0  0  0  0  0  0  0  0  0  0  0
   -4.0996   -3.3731    1.9928 Cl  0  0  0  0  0  0  0  0  0  0  0  0
   -1.6858   -4.5305    0.8909 Cl  0  0  0  0  0  0  0  0  0  0  0  0
   -1.4270   -1.9194   -0.6258 N   0  0  0  0  0  0  0  0  0  0  0  0
   -0.9810   -0.6975   -0.9752 C   0  0  0  0  0  0  0  0  0  0  0  0
    0.1920   -0.6710   -1.7873 N   0  0  0  0  0  0  0  0  0  0  0  0
    1.3408   -0.2903   -1.1315 N   0  0  0  0  0  0  0  0  0  0  0  0
    1.9103   -1.2726   -0.5014 C   0  0  0  0  0  0  0  0  0  0  0  0
    3.1417   -1.0865    0.2852 C   0  0  0  0  0  0  0  0  0  0  0  0
    3.6842   -2.1819    0.9517 C   0  0  0  0  0  0  0  0  0  0  0  0
    4.8389   -1.9770    1.6850 C   0  0  0  0  0  0  0  0  0  0  0  0
    5.4620   -0.7824    1.7847 N   0  0  0  0  0  0  0  0  0  0  0  0
    4.9075    0.2585    1.1251 C   0  0  0  0  0  0  0  0  0  0  0  0
    3.7551    0.1606    0.3684 C   0  0  0  0  0  0  0  0  0  0  0  0
   -1.6006    0.4880   -0.5447 C   0  0  0  0  0  0  0  0  0  0  0  0
   -1.1672    1.8084   -0.8428 C   0  0  0  0  0  0  0  0  0  0  0  0
   -0.8246    4.3443   -1.6123 H   0  0  0  0  0  0  0  0  0  0  0  0
   -0.7246    4.6529    0.1381 H   0  0  0  0  0  0  0  0  0  0  0  0
   -2.2191    5.0111   -0.7650 H   0  0  0  0  0  0  0  0  0  0  0  0
   -3.5675    3.5631    0.7936 H   0  0  0  0  0  0  0  0  0  0  0  0
   -4.3070    1.2787    1.3190 H   0  0  0  0  0  0  0  0  0  0  0  0
   -0.0150   -0.0396   -2.5632 H   0  0  0  0  0  0  0  0  0  0  0  0
    1.4879   -2.2947   -0.5316 H   0  0  0  0  0  0  0  0  0  0  0  0
    3.2307   -3.1652    0.9081 H   0  0  0  0  0  0  0  0  0  0  0  0
    5.3107   -2.7909    2.2291 H   0  0  0  0  0  0  0  0  0  0  0  0
    5.4331    1.2041    1.2262 H   0  0  0  0  0  0  0  0  0  0  0  0
    3.3524    1.0301   -0.1379 H   0  0  0  0  0  0  0  0  0  0  0  0
   -0.2599    1.9604   -1.4253 H   0  0  0  0  0  0  0  0  0  0  0  0
  1  2  1  0
  2  3  2  0
  3  4  1  0
  4  5  2  0
  5  6  1  0
  6  7  2  0
  7  8  1  0
  8  9  1  0
  8 10  1  0
  8 11  1  0
  7 12  1  0
 12 13  2  0
 13 14  1  0
 14 15  1  0
 15 16  2  3
 16 17  1  0
 17 18  2  0
 18 19  1  0
 19 20  2  0
 20 21  1  0
 21 22  2  0
 13 23  1  0
 23 24  2  0
 24  2  1  0
 23  5  1  0
 22 17  1  0
  1 25  1  0
  1 26  1  0
  1 27  1  0
  3 28  1  0
  4 29  1  0
 14 30  1  0
 16 31  1  0
 18 32  1  0
 19 33  1  0
 21 34  1  0
 22 35  1  0
 24 36  1  0
M  END
$$$$
