
     RDKit          3D

 46 49  0  0  0  0  0  0  0  0999 V2000
    1.6887   -1.6698   -3.3314 O   0  0  0  0  0  0  0  0  0  0  0  0
    1.2599   -0.8046   -2.5711 C   0  0  0  0  0  0  0  0  0  0  0  0
   -0.0001   -0.0045   -2.9246 C   0  0  0  0  0  0  0  0  0  0  0  0
   -0.9929    0.0631   -1.9008 O   0  0  0  0  0  0  0  0  0  0  0  0
   -0.7898    1.0166   -0.9618 C   0  0  0  0  0  0  0  0  0  0  0  0
    0.1799    1.7501   -0.8760 O   0  0  0  0  0  0  0  0  0  0  0  0
   -1.9209    0.9922   -0.0170 C   0  0  0  0  0  0  0  0  0  0  0  0
   -1.7345    0.3672    1.2480 C   0  0  0  0  0  0  0  0  0  0  0  0
   -0.5258   -0.2366    1.6789 C   0  0  0  0  0  0  0  0  0  0  0  0
   -0.4147   -0.8438    2.9309 C   0  0  0  0  0  0  0  0  0  0  0  0
   -1.5061   -0.8625    3.7878 C   0  0  0  0  0  0  0  0  0  0  0  0
   -2.7052   -0.2747    3.3926 C   0  0  0  0  0  0  0  0  0  0  0  0
   -2.8323    0.3396    2.1346 C   0  0  0  0  0  0  0  0  0  0  0  0
   -4.0504    0.9245    1.7545 C   0  0  0  0  0  0  0  0  0  0  0  0
   -4.2215    1.5509    0.5095 C   0  0  0  0  0  0  0  0  0  0  0  0
   -5.4559    2.1320    0.1742 C   0  0  0  0  0  0  0  0  0  0  0  0
   -5.6426    2.7676   -1.0533 C   0  0  0  0  0  0  0  0  0  0  0  0
   -4.5970    2.8285   -1.9640 C   0  0  0  0  0  0  0  0  0  0  0  0
   -3.3659    2.2523   -1.6458 C   0  0  0  0  0  0  0  0  0  0  0  0
   -3.1481    1.5984   -0.4055 C   0  0  0  0  0  0  0  0  0  0  0  0
    1.8722   -0.3906   -1.4099 N   0  0  0  0  0  0  0  0  0  0  0  0
    3.0389   -0.9333   -0.8624 C   0  0  0  0  0  0  0  0  0  0  0  0
    3.8376    0.0191   -0.3212 N   0  0  0  0  0  0  0  0  0  0  0  0
    5.0216   -0.3655    0.2086 C   0  0  0  0  0  0  0  0  0  0  0  0
    5.4535   -1.6798    0.2588 C   0  0  0  0  0  0  0  0  0  0  0  0
    6.7721   -2.0335    0.8712 C   0  0  0  0  0  0  0  0  0  0  0  0
    7.5174   -2.8469    0.0746 F   0  0  0  0  0  0  0  0  0  0  0  0
    7.5536   -0.9522    1.1371 F   0  0  0  0  0  0  0  0  0  0  0  0
    6.6309   -2.6919    2.0533 F   0  0  0  0  0  0  0  0  0  0  0  0
    4.5879   -2.6583   -0.2403 C   0  0  0  0  0  0  0  0  0  0  0  0
    3.3572   -2.2939   -0.7954 C   0  0  0  0  0  0  0  0  0  0  0  0
    2.2652   -3.5766   -1.1633 Cl  0  0  0  0  0  0  0  0  0  0  0  0
   -0.4733   -0.5013   -3.7795 H   0  0  0  0  0  0  0  0  0  0  0  0
    0.2912    0.9971   -3.2643 H   0  0  0  0  0  0  0  0  0  0  0  0
    0.3557   -0.2382    1.0417 H   0  0  0  0  0  0  0  0  0  0  0  0
    0.5248   -1.2978    3.2317 H   0  0  0  0  0  0  0  0  0  0  0  0
   -1.4262   -1.3327    4.7638 H   0  0  0  0  0  0  0  0  0  0  0  0
   -3.5483   -0.3006    4.0805 H   0  0  0  0  0  0  0  0  0  0  0  0
   -4.8889    0.8942    2.4502 H   0  0  0  0  0  0  0  0  0  0  0  0
   -6.2880    2.0985    0.8751 H   0  0  0  0  0  0  0  0  0  0  0  0
   -6.6018    3.2178   -1.2937 H   0  0  0  0  0  0  0  0  0  0  0  0
   -4.7345    3.3252   -2.9222 H   0  0  0  0  0  0  0  0  0  0  0  0
   -2.5706    2.3259   -2.3854 H   0  0  0  0  0  0  0  0  0  0  0  0
    1.7384    0.5879   -1.1570 H   0  0  0  0  0  0  0  0  0  0  0  0
    5.6257    0.4515    0.6024 H   0  0  0  0  0  0  0  0  0  0  0  0
    4.8631   -3.7103   -0.1718 H   0  0  0  0  0  0  0  0  0  0  0  0
  1  2  2  0
  2  3  1  0
  3  4  1  0
  4  5  1  0
  5  6  2  0
  5  7  1  0
  7  8  1  0
  8  9  2  0
  9 10  1  0
 10 11  2  0
 11 12  1  0
 12 13  2  0
 13 14  1  0
 14 15  2  0
 15 16  1  0
 16 17  2  0
 17 18  1  0
 18 19  2  0
 19 20  1  0
  2 21  1  0
 21 22  1  0
 22 23  2  0
 23 24  1  0
 24 25  2  0
 25 26  1  0
 26 27  1  0
 26 28  1  0
 26 29  1  0
 25 30  1  0
 30 31  2  0
 31 32  1  0
 20  7  2  0
 31 22  1  0
 13  8  1  0
 20 15  1  0
  3 33  1  0
  3 34  1  0
  9 35  1  0
 10 36  1  0
 11 37  1  0
 12 38  1  0
 14 39  1  0
 16 40  1  0
 17 41  1  0
 18 42  1  0
 19 43  1  0
 21 44  1  0
 24 45  1  0
 30 46  1  0
M  END
$$$$
