
     RDKit          3D

 51 53  0  0  0  0  0  0  0  0999 V2000
   -6.9735   -2.1315   -0.2825 C   0  0  0  0  0  0  0  0  0  0  0  0
   -5.9113   -1.1387    0.1031 C   0  0  0  0  0  0  0  0  0  0  0  0
   -5.8467   -0.6836    1.4276 C   0  0  0  0  0  0  0  0  0  0  0  0
   -4.8732    0.2383    1.8161 C   0  0  0  0  0  0  0  0  0  0  0  0
   -3.9454    0.7251    0.8960 C   0  0  0  0  0  0  0  0  0  0  0  0
   -3.0491    1.6174    1.4167 O   0  0  0  0  0  0  0  0  0  0  0  0
   -2.1169    2.2551    0.5410 C   0  0  0  0  0  0  0  0  0  0  0  0
   -0.9060    1.4119    0.4445 C   0  0  0  0  0  0  0  0  0  0  0  0
    0.0034    0.9353    1.3542 C   0  0  0  0  0  0  0  0  0  0  0  0
    0.9255    0.1715    0.5878 C   0  0  0  0  0  0  0  0  0  0  0  0
    2.1228   -0.5061    1.1159 C   0  0  0  0  0  0  0  0  0  0  0  0
    2.5907   -0.1413    2.1976 O   0  0  0  0  0  0  0  0  0  0  0  0
    2.7116   -1.5595    0.3943 N   0  0  0  0  0  0  0  0  0  0  0  0
    2.1130   -2.1889   -0.7740 C   0  0  0  0  0  0  0  0  0  0  0  0
    4.0947   -1.9225    0.7121 C   0  0  0  0  0  0  0  0  0  0  0  0
    5.1208   -1.3490   -0.2784 C   0  0  0  0  0  0  0  0  0  0  0  0
    5.2166    0.1580   -0.2558 C   0  0  0  0  0  0  0  0  0  0  0  0
    4.5302    0.9293   -1.2037 C   0  0  0  0  0  0  0  0  0  0  0  0
    4.6019    2.3234   -1.1682 C   0  0  0  0  0  0  0  0  0  0  0  0
    5.3594    2.9586   -0.1865 C   0  0  0  0  0  0  0  0  0  0  0  0
    6.0443    2.2019    0.7621 C   0  0  0  0  0  0  0  0  0  0  0  0
    5.9728    0.8080    0.7287 C   0  0  0  0  0  0  0  0  0  0  0  0
    0.5937    0.2242   -0.7156 N   0  0  0  0  0  0  0  0  0  0  0  0
   -0.5522    0.9893   -0.7963 O   0  0  0  0  0  0  0  0  0  0  0  0
   -3.9971    0.2708   -0.4229 C   0  0  0  0  0  0  0  0  0  0  0  0
   -4.9820   -0.6490   -0.8354 C   0  0  0  0  0  0  0  0  0  0  0  0
   -4.9948   -1.1131   -2.2684 C   0  0  0  0  0  0  0  0  0  0  0  0
   -6.5216   -3.0179   -0.7382 H   0  0  0  0  0  0  0  0  0  0  0  0
   -7.5438   -2.4668    0.5909 H   0  0  0  0  0  0  0  0  0  0  0  0
   -7.6795   -1.6761   -0.9849 H   0  0  0  0  0  0  0  0  0  0  0  0
   -6.5540   -1.0447    2.1710 H   0  0  0  0  0  0  0  0  0  0  0  0
   -4.8372    0.5740    2.8506 H   0  0  0  0  0  0  0  0  0  0  0  0
   -2.5541    2.5106   -0.4294 H   0  0  0  0  0  0  0  0  0  0  0  0
   -1.8434    3.2080    1.0096 H   0  0  0  0  0  0  0  0  0  0  0  0
    0.0151    1.1004    2.4219 H   0  0  0  0  0  0  0  0  0  0  0  0
    2.5166   -3.1990   -0.8956 H   0  0  0  0  0  0  0  0  0  0  0  0
    2.3500   -1.5997   -1.6639 H   0  0  0  0  0  0  0  0  0  0  0  0
    1.0308   -2.2777   -0.6504 H   0  0  0  0  0  0  0  0  0  0  0  0
    4.1556   -3.0180    0.7076 H   0  0  0  0  0  0  0  0  0  0  0  0
    4.3481   -1.6018    1.7296 H   0  0  0  0  0  0  0  0  0  0  0  0
    4.8947   -1.6865   -1.2978 H   0  0  0  0  0  0  0  0  0  0  0  0
    6.1098   -1.7639   -0.0451 H   0  0  0  0  0  0  0  0  0  0  0  0
    3.9226    0.4504   -1.9686 H   0  0  0  0  0  0  0  0  0  0  0  0
    4.0584    2.9115   -1.9026 H   0  0  0  0  0  0  0  0  0  0  0  0
    5.4112    4.0431   -0.1562 H   0  0  0  0  0  0  0  0  0  0  0  0
    6.6295    2.6969    1.5330 H   0  0  0  0  0  0  0  0  0  0  0  0
    6.5037    0.2338    1.4843 H   0  0  0  0  0  0  0  0  0  0  0  0
   -3.2764    0.6079   -1.1611 H   0  0  0  0  0  0  0  0  0  0  0  0
   -4.6700   -2.1564   -2.3290 H   0  0  0  0  0  0  0  0  0  0  0  0
   -5.9979   -1.0168   -2.6957 H   0  0  0  0  0  0  0  0  0  0  0  0
   -4.3212   -0.5126   -2.8898 H   0  0  0  0  0  0  0  0  0  0  0  0
  1  2  1  0
  2  3  2  0
  3  4  1  0
  4  5  2  0
  5  6  1  0
  6  7  1  0
  7  8  1  0
  8  9  2  0
  9 10  1  0
 10 11  1  0
 11 12  2  0
 11 13  1  0
 13 14  1  0
 13 15  1  0
 15 16  1  0
 16 17  1  0
 17 18  2  0
 18 19  1  0
 19 20  2  0
 20 21  1  0
 21 22  2  0
 10 23  2  0
 23 24  1  0
  5 25  1  0
 25 26  2  0
 26 27  1  0
 26  2  1  0
 24  8  1  0
 22 17  1  0
  1 28  1  0
  1 29  1  0
  1 30  1  0
  3 31  1  0
  4 32  1  0
  7 33  1  0
  7 34  1  0
  9 35  1  0
 14 36  1  0
 14 37  1  0
 14 38  1  0
 15 39  1  0
 15 40  1  0
 16 41  1  0
 16 42  1  0
 18 43  1  0
 19 44  1  0
 20 45  1  0
 21 46  1  0
 22 47  1  0
 25 48  1  0
 27 49  1  0
 27 50  1  0
 27 51  1  0
M  END
$$$$
