
     RDKit          3D

 48 50  0  0  0  0  0  0  0  0999 V2000
   -2.8063    1.7347    0.4464 O   0  0  0  0  0  0  0  0  0  0  0  0
   -2.3824    0.7564   -0.1779 C   0  0  0  0  0  0  0  0  0  0  0  0
   -0.8814    0.6139   -0.4533 C   0  0  0  0  0  0  0  0  0  0  0  0
   -0.1141    0.8693    0.7873 N   0  0  0  0  0  0  0  0  0  0  0  0
    0.9928    1.7754    0.7326 C   0  0  0  0  0  0  0  0  0  0  0  0
    1.1138    2.7557    1.7144 C   0  0  0  0  0  0  0  0  0  0  0  0
    2.2212    3.6050    1.7237 C   0  0  0  0  0  0  0  0  0  0  0  0
    3.2202    3.4720    0.7546 C   0  0  0  0  0  0  0  0  0  0  0  0
    4.5634    4.5528    0.8396 Cl  0  0  0  0  0  0  0  0  0  0  0  0
    3.1217    2.4854   -0.2341 C   0  0  0  0  0  0  0  0  0  0  0  0
    4.1907    2.3053   -1.2776 C   0  0  0  0  0  0  0  0  0  0  0  0
    4.3926    3.4152   -2.0364 F   0  0  0  0  0  0  0  0  0  0  0  0
    5.3983    1.9672   -0.7506 F   0  0  0  0  0  0  0  0  0  0  0  0
    3.8960    1.3124   -2.1680 F   0  0  0  0  0  0  0  0  0  0  0  0
    1.9970    1.6354   -0.2304 C   0  0  0  0  0  0  0  0  0  0  0  0
   -0.0415   -0.3985    1.9241 S   0  0  0  0  0  6  0  0  0  0  0  0
   -1.2306   -1.2153    1.7806 O   0  0  0  0  0  0  0  0  0  0  0  0
    0.3512    0.1301    3.2148 O   0  0  0  0  0  0  0  0  0  0  0  0
    1.3284   -1.3824    1.3335 C   0  0  0  0  0  0  0  0  0  0  0  0
    2.6248   -1.0868    1.7700 C   0  0  0  0  0  0  0  0  0  0  0  0
    3.6957   -1.8553    1.3146 C   0  0  0  0  0  0  0  0  0  0  0  0
    3.4682   -2.9270    0.4499 C   0  0  0  0  0  0  0  0  0  0  0  0
    2.1700   -3.2404    0.0437 C   0  0  0  0  0  0  0  0  0  0  0  0
    1.0934   -2.4725    0.4899 C   0  0  0  0  0  0  0  0  0  0  0  0
   -3.2475   -0.1939   -0.7013 N   0  0  0  0  0  0  0  0  0  0  0  0
   -4.6902   -0.0262   -0.5174 C   0  0  0  0  0  0  0  0  0  0  0  0
   -5.4580   -0.5374   -1.7417 C   0  0  0  0  0  0  0  0  0  0  0  0
   -5.1369   -1.8790   -2.1450 O   0  0  0  0  0  0  0  0  0  0  0  0
   -4.0073   -2.4356   -1.4650 C   0  0  0  0  0  0  0  0  0  0  0  0
   -2.8455   -1.4424   -1.3509 C   0  0  0  0  0  0  0  0  0  0  0  0
   -0.5981   -0.3471   -0.8816 H   0  0  0  0  0  0  0  0  0  0  0  0
   -0.6506    1.3672   -1.2164 H   0  0  0  0  0  0  0  0  0  0  0  0
    0.3467    2.8620    2.4795 H   0  0  0  0  0  0  0  0  0  0  0  0
    2.2994    4.3664    2.4976 H   0  0  0  0  0  0  0  0  0  0  0  0
    1.9222    0.8475   -0.9782 H   0  0  0  0  0  0  0  0  0  0  0  0
    2.8075   -0.2620    2.4566 H   0  0  0  0  0  0  0  0  0  0  0  0
    4.7075   -1.6276    1.6432 H   0  0  0  0  0  0  0  0  0  0  0  0
    4.3048   -3.5321    0.1059 H   0  0  0  0  0  0  0  0  0  0  0  0
    1.9991   -4.0953   -0.6070 H   0  0  0  0  0  0  0  0  0  0  0  0
    0.0859   -2.7395    0.1890 H   0  0  0  0  0  0  0  0  0  0  0  0
   -4.9641   -0.6010    0.3741 H   0  0  0  0  0  0  0  0  0  0  0  0
   -4.9439    1.0221   -0.3301 H   0  0  0  0  0  0  0  0  0  0  0  0
   -5.2488    0.1063   -2.6040 H   0  0  0  0  0  0  0  0  0  0  0  0
   -6.5359   -0.4940   -1.5575 H   0  0  0  0  0  0  0  0  0  0  0  0
   -3.6881   -3.3207   -2.0276 H   0  0  0  0  0  0  0  0  0  0  0  0
   -4.3328   -2.7770   -0.4742 H   0  0  0  0  0  0  0  0  0  0  0  0
   -2.4820   -1.1700   -2.3482 H   0  0  0  0  0  0  0  0  0  0  0  0
   -2.0266   -1.8988   -0.7911 H   0  0  0  0  0  0  0  0  0  0  0  0
  1  2  2  0
  2  3  1  0
  3  4  1  0
  4  5  1  0
  5  6  2  0
  6  7  1  0
  7  8  2  0
  8  9  1  0
  8 10  1  0
 10 11  1  0
 11 12  1  0
 11 13  1  0
 11 14  1  0
 10 15  2  0
  4 16  1  0
 16 17  2  0
 16 18  2  0
 16 19  1  0
 19 20  2  0
 20 21  1  0
 21 22  2  0
 22 23  1  0
 23 24  2  0
  2 25  1  0
 25 26  1  0
 26 27  1  0
 27 28  1  0
 28 29  1  0
 29 30  1  0
 15  5  1  0
 24 19  1  0
 30 25  1  0
  3 31  1  0
  3 32  1  0
  6 33  1  0
  7 34  1  0
 15 35  1  0
 20 36  1  0
 21 37  1  0
 22 38  1  0
 23 39  1  0
 24 40  1  0
 26 41  1  0
 26 42  1  0
 27 43  1  0
 27 44  1  0
 29 45  1  0
 29 46  1  0
 30 47  1  0
 30 48  1  0
M  END
$$$$
