
     RDKit          3D

 48 51  0  0  0  0  0  0  0  0999 V2000
    2.5676   -1.2535   -0.2278 O   0  0  0  0  0  0  0  0  0  0  0  0
    2.5517    0.0241    0.4555 S   0  0  0  0  0  6  0  0  0  0  0  0
    2.6782    0.1091    1.8965 O   0  0  0  0  0  0  0  0  0  0  0  0
    3.7396    1.1469   -0.3008 C   0  0  0  0  0  0  0  0  0  0  0  0
    5.1369    0.6796    0.0157 C   0  0  0  0  0  0  0  0  0  0  0  0
    5.8073    1.1574    1.1509 C   0  0  0  0  0  0  0  0  0  0  0  0
    7.1006    0.7228    1.4445 C   0  0  0  0  0  0  0  0  0  0  0  0
    7.7357   -0.1942    0.6098 C   0  0  0  0  0  0  0  0  0  0  0  0
    7.0772   -0.6810   -0.5173 C   0  0  0  0  0  0  0  0  0  0  0  0
    5.7839   -0.2483   -0.8136 C   0  0  0  0  0  0  0  0  0  0  0  0
    1.0621    0.7751    0.0489 N   0  0  0  0  0  0  0  0  0  0  0  0
    0.6716    0.6626   -1.3931 C   0  0  0  0  0  0  0  0  0  0  0  0
   -0.6426    1.4243   -1.6663 C   0  0  0  0  0  0  0  0  0  0  0  0
   -1.7833    1.0318   -0.8131 N   0  0  0  0  0  0  0  0  0  0  0  0
   -2.2957   -0.2984   -1.1825 C   0  0  0  0  0  0  0  0  0  0  0  0
   -3.6043   -0.6448   -0.5010 C   0  0  0  0  0  0  0  0  0  0  0  0
   -3.7098   -1.8126    0.2908 C   0  0  0  0  0  0  0  0  0  0  0  0
   -4.9133   -2.1499    0.9189 C   0  0  0  0  0  0  0  0  0  0  0  0
   -5.9894   -1.3093    0.7372 C   0  0  0  0  0  0  0  0  0  0  0  0
   -5.9000   -0.1742   -0.0328 C   0  0  0  0  0  0  0  0  0  0  0  0
   -4.7282    0.1843   -0.6641 C   0  0  0  0  0  0  0  0  0  0  0  0
   -7.0727    0.5127   -0.0827 O   0  0  0  0  0  0  0  0  0  0  0  0
   -7.9087   -0.3186    0.7481 C   0  0  0  0  0  0  0  0  0  0  0  0
   -7.2293   -1.4797    1.2693 O   0  0  0  0  0  0  0  0  0  0  0  0
   -1.3583    1.1117    0.6027 C   0  0  0  0  0  0  0  0  0  0  0  0
   -0.0644    0.3459    0.9447 C   0  0  0  0  0  0  0  0  0  0  0  0
    3.5795    1.1577   -1.3817 H   0  0  0  0  0  0  0  0  0  0  0  0
    3.5596    2.1495    0.0992 H   0  0  0  0  0  0  0  0  0  0  0  0
    5.3228    1.8627    1.8239 H   0  0  0  0  0  0  0  0  0  0  0  0
    7.6096    1.0941    2.3303 H   0  0  0  0  0  0  0  0  0  0  0  0
    8.7407   -0.5361    0.8428 H   0  0  0  0  0  0  0  0  0  0  0  0
    7.5687   -1.4048   -1.1625 H   0  0  0  0  0  0  0  0  0  0  0  0
    5.2823   -0.6515   -1.6913 H   0  0  0  0  0  0  0  0  0  0  0  0
    1.4521    1.1028   -2.0202 H   0  0  0  0  0  0  0  0  0  0  0  0
    0.5599   -0.3904   -1.6730 H   0  0  0  0  0  0  0  0  0  0  0  0
   -0.4619    2.4964   -1.5112 H   0  0  0  0  0  0  0  0  0  0  0  0
   -0.9120    1.3232   -2.7248 H   0  0  0  0  0  0  0  0  0  0  0  0
   -2.4970   -0.3262   -2.2620 H   0  0  0  0  0  0  0  0  0  0  0  0
   -1.5566   -1.0858   -0.9943 H   0  0  0  0  0  0  0  0  0  0  0  0
   -2.8487   -2.4651    0.4215 H   0  0  0  0  0  0  0  0  0  0  0  0
   -4.9994   -3.0424    1.5283 H   0  0  0  0  0  0  0  0  0  0  0  0
   -4.6765    1.0885   -1.2620 H   0  0  0  0  0  0  0  0  0  0  0  0
   -8.7690   -0.6525    0.1566 H   0  0  0  0  0  0  0  0  0  0  0  0
   -8.2733    0.2813    1.5901 H   0  0  0  0  0  0  0  0  0  0  0  0
   -2.1628    0.7875    1.2725 H   0  0  0  0  0  0  0  0  0  0  0  0
   -1.2019    2.1733    0.8384 H   0  0  0  0  0  0  0  0  0  0  0  0
    0.1909    0.5735    1.9852 H   0  0  0  0  0  0  0  0  0  0  0  0
   -0.2194   -0.7351    0.8557 H   0  0  0  0  0  0  0  0  0  0  0  0
  1  2  2  0
  2  3  2  0
  2  4  1  0
  4  5  1  0
  5  6  2  0
  6  7  1  0
  7  8  2  0
  8  9  1  0
  9 10  2  0
  2 11  1  0
 11 12  1  0
 12 13  1  0
 13 14  1  0
 14 15  1  0
 15 16  1  0
 16 17  2  0
 17 18  1  0
 18 19  2  0
 19 20  1  0
 20 21  2  0
 20 22  1  0
 22 23  1  0
 23 24  1  0
 14 25  1  0
 25 26  1  0
 10  5  1  0
 26 11  1  0
 21 16  1  0
 24 19  1  0
  4 27  1  0
  4 28  1  0
  6 29  1  0
  7 30  1  0
  8 31  1  0
  9 32  1  0
 10 33  1  0
 12 34  1  0
 12 35  1  0
 13 36  1  0
 13 37  1  0
 15 38  1  0
 15 39  1  0
 17 40  1  0
 18 41  1  0
 21 42  1  0
 23 43  1  0
 23 44  1  0
 25 45  1  0
 25 46  1  0
 26 47  1  0
 26 48  1  0
M  END
$$$$
