
     RDKit          3D

 53 55  0  0  0  0  0  0  0  0999 V2000
   -5.8929   -2.5537    0.8992 C   0  0  0  0  0  0  0  0  0  0  0  0
   -5.0746   -2.6198   -0.3812 C   0  0  0  0  0  0  0  0  0  0  0  0
   -3.8348   -1.7236   -0.3595 C   0  0  0  0  0  0  0  0  0  0  0  0
   -4.1679   -0.2306   -0.3038 C   0  0  0  0  0  0  0  0  0  0  0  0
   -2.9598    0.5629   -0.3746 N   0  0  0  0  0  0  0  0  0  0  0  0
   -2.0823    0.8697    0.6640 C   0  0  0  0  0  0  0  0  0  0  0  0
   -2.2244    0.6274    1.9224 N   0  0  0  0  0  0  0  0  0  0  0  0
   -0.9632    1.4841    0.1031 N   0  0  0  0  0  0  0  0  0  0  0  0
    0.1263    2.1112    0.8326 C   0  0  0  0  0  0  0  0  0  0  0  0
    0.9181    1.1267    1.7169 C   0  0  0  0  0  0  0  0  0  0  0  0
    0.2329    0.8848    2.9557 O   0  0  0  0  0  0  0  0  0  0  0  0
    1.2324   -0.1991    1.0048 C   0  0  0  0  0  0  0  0  0  0  0  0
    2.2804   -0.9156    1.6708 O   0  0  0  0  0  0  0  0  0  0  0  0
    3.5791   -0.6300    1.3568 C   0  0  0  0  0  0  0  0  0  0  0  0
    4.0241    0.3270    0.4459 C   0  0  0  0  0  0  0  0  0  0  0  0
    5.3953    0.5116    0.2300 C   0  0  0  0  0  0  0  0  0  0  0  0
    6.3379   -0.2632    0.9147 C   0  0  0  0  0  0  0  0  0  0  0  0
    7.8054   -0.0385    0.7062 C   0  0  0  0  0  0  0  0  0  0  0  0
    5.8888   -1.2103    1.8389 C   0  0  0  0  0  0  0  0  0  0  0  0
    4.5203   -1.3922    2.0520 C   0  0  0  0  0  0  0  0  0  0  0  0
   -1.1367    1.5636   -1.2794 C   0  0  0  0  0  0  0  0  0  0  0  0
   -0.3330    2.0766   -2.2769 C   0  0  0  0  0  0  0  0  0  0  0  0
   -0.7808    1.9780   -3.5984 C   0  0  0  0  0  0  0  0  0  0  0  0
   -2.0126    1.3726   -3.9001 C   0  0  0  0  0  0  0  0  0  0  0  0
   -2.8247    0.8567   -2.8861 C   0  0  0  0  0  0  0  0  0  0  0  0
   -2.3791    0.9612   -1.5837 C   0  0  0  0  0  0  0  0  0  0  0  0
   -6.3429   -1.5662    1.0379 H   0  0  0  0  0  0  0  0  0  0  0  0
   -5.2738   -2.7787    1.7732 H   0  0  0  0  0  0  0  0  0  0  0  0
   -6.7064   -3.2854    0.8630 H   0  0  0  0  0  0  0  0  0  0  0  0
   -4.7508   -3.6563   -0.5340 H   0  0  0  0  0  0  0  0  0  0  0  0
   -5.7101   -2.3575   -1.2350 H   0  0  0  0  0  0  0  0  0  0  0  0
   -3.1983   -1.9968    0.4913 H   0  0  0  0  0  0  0  0  0  0  0  0
   -3.2461   -1.9324   -1.2618 H   0  0  0  0  0  0  0  0  0  0  0  0
   -4.8600    0.0344   -1.1119 H   0  0  0  0  0  0  0  0  0  0  0  0
   -4.6995    0.0044    0.6248 H   0  0  0  0  0  0  0  0  0  0  0  0
   -3.1283    0.1734    2.0715 H   0  0  0  0  0  0  0  0  0  0  0  0
   -0.2860    2.9151    1.4549 H   0  0  0  0  0  0  0  0  0  0  0  0
    0.8354    2.5813    0.1429 H   0  0  0  0  0  0  0  0  0  0  0  0
    1.8515    1.6188    2.0109 H   0  0  0  0  0  0  0  0  0  0  0  0
   -0.7082    0.6946    2.7247 H   0  0  0  0  0  0  0  0  0  0  0  0
    1.4591   -0.0718   -0.0594 H   0  0  0  0  0  0  0  0  0  0  0  0
    0.3566   -0.8564    1.0569 H   0  0  0  0  0  0  0  0  0  0  0  0
    3.3391    0.9540   -0.1118 H   0  0  0  0  0  0  0  0  0  0  0  0
    5.7231    1.2684   -0.4793 H   0  0  0  0  0  0  0  0  0  0  0  0
    8.0087    0.2776   -0.3223 H   0  0  0  0  0  0  0  0  0  0  0  0
    8.1676    0.7334    1.3918 H   0  0  0  0  0  0  0  0  0  0  0  0
    8.3711   -0.9599    0.8801 H   0  0  0  0  0  0  0  0  0  0  0  0
    6.5972   -1.8133    2.4017 H   0  0  0  0  0  0  0  0  0  0  0  0
    4.1824   -2.1337    2.7723 H   0  0  0  0  0  0  0  0  0  0  0  0
    0.6227    2.5403   -2.0669 H   0  0  0  0  0  0  0  0  0  0  0  0
   -0.1670    2.3725   -4.4056 H   0  0  0  0  0  0  0  0  0  0  0  0
   -2.3376    1.3069   -4.9365 H   0  0  0  0  0  0  0  0  0  0  0  0
   -3.7733    0.3959   -3.1329 H   0  0  0  0  0  0  0  0  0  0  0  0
  1  2  1  0
  2  3  1  0
  3  4  1  0
  4  5  1  0
  5  6  1  0
  6  7  2  3
  6  8  1  0
  8  9  1  0
  9 10  1  0
 10 11  1  0
 10 12  1  0
 12 13  1  0
 13 14  1  0
 14 15  2  0
 15 16  1  0
 16 17  2  0
 17 18  1  0
 17 19  1  0
 19 20  2  0
  8 21  1  0
 21 22  2  0
 22 23  1  0
 23 24  2  0
 24 25  1  0
 25 26  2  0
 26  5  1  0
 20 14  1  0
 26 21  1  0
  1 27  1  0
  1 28  1  0
  1 29  1  0
  2 30  1  0
  2 31  1  0
  3 32  1  0
  3 33  1  0
  4 34  1  0
  4 35  1  0
  7 36  1  0
  9 37  1  0
  9 38  1  0
 10 39  1  0
 11 40  1  0
 12 41  1  0
 12 42  1  0
 15 43  1  0
 16 44  1  0
 18 45  1  0
 18 46  1  0
 18 47  1  0
 19 48  1  0
 20 49  1  0
 22 50  1  0
 23 51  1  0
 24 52  1  0
 25 53  1  0
M  END
$$$$
