
     RDKit          3D

 52 54  0  0  0  0  0  0  0  0999 V2000
    6.9210    3.1946    1.9451 C   0  0  0  0  0  0  0  0  0  0  0  0
    6.8099    1.6849    1.8426 C   0  0  0  0  0  0  0  0  0  0  0  0
    5.5428    1.3166    1.2837 O   0  0  0  0  0  0  0  0  0  0  0  0
    4.5232    1.1638    2.1710 C   0  0  0  0  0  0  0  0  0  0  0  0
    4.6303    1.3643    3.3756 O   0  0  0  0  0  0  0  0  0  0  0  0
    3.3501    0.7572    1.5619 N   0  0  0  0  0  0  0  0  0  0  0  0
    3.2455    0.4720    0.1319 C   0  0  0  0  0  0  0  0  0  0  0  0
    2.2388   -0.6408   -0.1412 C   0  0  0  0  0  0  0  0  0  0  0  0
    0.8425   -0.3196    0.4226 C   0  0  0  0  0  0  0  0  0  0  0  0
   -0.0828    0.1136   -0.6181 N   0  0  0  0  0  0  0  0  0  0  0  0
   -0.5939   -0.7673   -1.5508 C   0  0  0  0  0  0  0  0  0  0  0  0
   -0.1977   -1.9203   -1.6832 O   0  0  0  0  0  0  0  0  0  0  0  0
   -1.7328   -0.1888   -2.3945 C   0  0  0  0  0  0  0  0  0  0  0  0
   -2.9791   -0.1754   -1.6175 N   0  0  0  0  0  0  0  0  0  0  0  0
   -3.2044    0.9213   -0.7895 C   0  0  0  0  0  0  0  0  0  0  0  0
   -2.3677    1.8130   -0.6284 O   0  0  0  0  0  0  0  0  0  0  0  0
   -4.5450    0.9962   -0.0989 C   0  0  0  0  0  0  0  0  0  0  0  0
   -4.5255    0.3081    1.2499 C   0  0  0  0  0  0  0  0  0  0  0  0
   -3.6950   -1.3109    1.2892 S   0  0  0  0  0  0  0  0  0  0  0  0
   -4.1612   -1.9524   -0.3158 C   0  0  0  0  0  0  0  0  0  0  0  0
   -4.8933   -3.1520   -0.3161 C   0  0  0  0  0  0  0  0  0  0  0  0
   -5.2105   -3.7943   -1.5122 C   0  0  0  0  0  0  0  0  0  0  0  0
   -4.7832   -3.2541   -2.7195 C   0  0  0  0  0  0  0  0  0  0  0  0
   -4.0447   -2.0678   -2.7328 C   0  0  0  0  0  0  0  0  0  0  0  0
   -3.7290   -1.3943   -1.5405 C   0  0  0  0  0  0  0  0  0  0  0  0
    0.8861    0.7242    1.5479 C   0  0  0  0  0  0  0  0  0  0  0  0
    2.1544    0.5965    2.3780 C   0  0  0  0  0  0  0  0  0  0  0  0
    6.1227    3.6077    2.5679 H   0  0  0  0  0  0  0  0  0  0  0  0
    6.8250    3.6523    0.9553 H   0  0  0  0  0  0  0  0  0  0  0  0
    7.8866    3.4852    2.3733 H   0  0  0  0  0  0  0  0  0  0  0  0
    7.5863    1.3086    1.1605 H   0  0  0  0  0  0  0  0  0  0  0  0
    6.9774    1.1969    2.8148 H   0  0  0  0  0  0  0  0  0  0  0  0
    4.2211    0.1858   -0.2738 H   0  0  0  0  0  0  0  0  0  0  0  0
    2.9403    1.4012   -0.3651 H   0  0  0  0  0  0  0  0  0  0  0  0
    2.2102   -0.8544   -1.2143 H   0  0  0  0  0  0  0  0  0  0  0  0
    2.6010   -1.5532    0.3477 H   0  0  0  0  0  0  0  0  0  0  0  0
    0.4290   -1.2491    0.8297 H   0  0  0  0  0  0  0  0  0  0  0  0
   -0.6465    0.9487   -0.4456 H   0  0  0  0  0  0  0  0  0  0  0  0
   -1.4691    0.8336   -2.6955 H   0  0  0  0  0  0  0  0  0  0  0  0
   -1.8240   -0.7712   -3.3157 H   0  0  0  0  0  0  0  0  0  0  0  0
   -4.8053    2.0532    0.0310 H   0  0  0  0  0  0  0  0  0  0  0  0
   -5.3296    0.5879   -0.7482 H   0  0  0  0  0  0  0  0  0  0  0  0
   -4.0137    0.9447    1.9823 H   0  0  0  0  0  0  0  0  0  0  0  0
   -5.5532    0.1737    1.6067 H   0  0  0  0  0  0  0  0  0  0  0  0
   -5.2063   -3.6067    0.6230 H   0  0  0  0  0  0  0  0  0  0  0  0
   -5.7771   -4.7213   -1.4976 H   0  0  0  0  0  0  0  0  0  0  0  0
   -5.0214   -3.7540   -3.6542 H   0  0  0  0  0  0  0  0  0  0  0  0
   -3.7540   -1.6638   -3.6985 H   0  0  0  0  0  0  0  0  0  0  0  0
    0.8395    1.7373    1.1263 H   0  0  0  0  0  0  0  0  0  0  0  0
    0.0008    0.6169    2.1862 H   0  0  0  0  0  0  0  0  0  0  0  0
    2.1530    1.3445    3.1807 H   0  0  0  0  0  0  0  0  0  0  0  0
    2.2088   -0.3931    2.8501 H   0  0  0  0  0  0  0  0  0  0  0  0
  1  2  1  0
  2  3  1  0
  3  4  1  0
  4  5  2  0
  4  6  1  0
  6  7  1  0
  7  8  1  0
  8  9  1  0
  9 10  1  0
 10 11  1  0
 11 12  2  0
 11 13  1  0
 13 14  1  0
 14 15  1  0
 15 16  2  0
 15 17  1  0
 17 18  1  0
 18 19  1  0
 19 20  1  0
 20 21  2  0
 21 22  1  0
 22 23  2  0
 23 24  1  0
 24 25  2  0
  9 26  1  0
 26 27  1  0
 27  6  1  0
 25 14  1  0
 25 20  1  0
  1 28  1  0
  1 29  1  0
  1 30  1  0
  2 31  1  0
  2 32  1  0
  7 33  1  0
  7 34  1  0
  8 35  1  0
  8 36  1  0
  9 37  1  0
 10 38  1  0
 13 39  1  0
 13 40  1  0
 17 41  1  0
 17 42  1  0
 18 43  1  0
 18 44  1  0
 21 45  1  0
 22 46  1  0
 23 47  1  0
 24 48  1  0
 26 49  1  0
 26 50  1  0
 27 51  1  0
 27 52  1  0
M  END
$$$$
