
     RDKit          3D

 67 70  0  0  0  0  0  0  0  0999 V2000
   -1.5638    3.2385   -2.5918 C   0  0  0  0  0  0  0  0  0  0  0  0
   -0.6327    3.0980   -1.5172 O   0  0  0  0  0  0  0  0  0  0  0  0
   -1.2576    2.8216   -0.3240 C   0  0  0  0  0  0  0  0  0  0  0  0
   -2.1774    3.7426    0.2015 C   0  0  0  0  0  0  0  0  0  0  0  0
   -2.8193    3.4946    1.4156 C   0  0  0  0  0  0  0  0  0  0  0  0
   -3.7362    4.3360    1.9937 O   0  0  0  0  0  0  0  0  0  0  0  0
   -4.0192    5.5623    1.3313 C   0  0  0  0  0  0  0  0  0  0  0  0
   -2.5273    2.3100    2.1108 C   0  0  0  0  0  0  0  0  0  0  0  0
   -3.1747    1.9741    3.3792 C   0  0  0  0  0  0  0  0  0  0  0  0
   -2.8868    0.8351    4.0134 C   0  0  0  0  0  0  0  0  0  0  0  0
   -1.9177   -0.1277    3.4788 C   0  0  0  0  0  0  0  0  0  0  0  0
   -1.6801   -1.1771    4.0643 O   0  0  0  0  0  0  0  0  0  0  0  0
   -1.2989    0.2209    2.2887 O   0  0  0  0  0  0  0  0  0  0  0  0
   -1.5802    1.4164    1.5834 C   0  0  0  0  0  0  0  0  0  0  0  0
   -0.9020    1.6515    0.3730 C   0  0  0  0  0  0  0  0  0  0  0  0
    0.1443    0.6971   -0.2170 C   0  0  0  0  0  0  0  0  0  0  0  0
    1.1978    0.1831    0.8019 C   0  0  0  0  0  0  0  0  0  0  0  0
    2.4514   -0.3710    0.0995 C   0  0  0  0  0  0  0  0  0  0  0  0
    3.4473   -0.8996    1.0455 N   0  0  0  0  0  0  0  0  0  0  0  0
    4.3934   -1.7923    0.3506 C   0  0  0  0  0  0  0  0  0  0  0  0
    5.7341   -1.9759    1.0755 C   0  0  0  0  0  0  0  0  0  0  0  0
    5.5741   -1.8408    2.5816 C   0  0  0  0  0  0  0  0  0  0  0  0
    4.9520   -0.4911    2.9446 C   0  0  0  0  0  0  0  0  0  0  0  0
    4.1529    0.1389    1.7961 C   0  0  0  0  0  0  0  0  0  0  0  0
   -0.4928   -0.4062   -1.0570 C   0  0  0  0  0  0  0  0  0  0  0  0
   -0.5129   -0.2985   -2.4509 C   0  0  0  0  0  0  0  0  0  0  0  0
   -1.0983   -1.2947   -3.2475 C   0  0  0  0  0  0  0  0  0  0  0  0
   -1.6829   -2.4484   -2.7002 C   0  0  0  0  0  0  0  0  0  0  0  0
   -2.2798   -3.4301   -3.5033 N   0  0  0  0  0  0  0  0  0  0  0  0
   -1.8629   -3.5286   -4.9012 C   0  0  0  0  0  0  0  0  0  0  0  0
   -2.7063   -4.6848   -2.8862 C   0  0  0  0  0  0  0  0  0  0  0  0
   -1.6677   -2.5277   -1.2979 C   0  0  0  0  0  0  0  0  0  0  0  0
   -1.0826   -1.5376   -0.4917 C   0  0  0  0  0  0  0  0  0  0  0  0
   -2.3560    2.4821   -2.5502 H   0  0  0  0  0  0  0  0  0  0  0  0
   -1.0143    3.0998   -3.5278 H   0  0  0  0  0  0  0  0  0  0  0  0
   -1.9929    4.2451   -2.6011 H   0  0  0  0  0  0  0  0  0  0  0  0
   -2.3633    4.6548   -0.3531 H   0  0  0  0  0  0  0  0  0  0  0  0
   -3.1228    6.1864    1.2556 H   0  0  0  0  0  0  0  0  0  0  0  0
   -4.4650    5.3856    0.3467 H   0  0  0  0  0  0  0  0  0  0  0  0
   -4.7521    6.1055    1.9353 H   0  0  0  0  0  0  0  0  0  0  0  0
   -3.8976    2.6672    3.7969 H   0  0  0  0  0  0  0  0  0  0  0  0
   -3.3578    0.5671    4.9511 H   0  0  0  0  0  0  0  0  0  0  0  0
    0.7499    1.3015   -0.9074 H   0  0  0  0  0  0  0  0  0  0  0  0
    1.4792    1.0183    1.4538 H   0  0  0  0  0  0  0  0  0  0  0  0
    0.7919   -0.6021    1.4484 H   0  0  0  0  0  0  0  0  0  0  0  0
    2.9021    0.3981   -0.5410 H   0  0  0  0  0  0  0  0  0  0  0  0
    2.1305   -1.1871   -0.5601 H   0  0  0  0  0  0  0  0  0  0  0  0
    4.6115   -1.4295   -0.6627 H   0  0  0  0  0  0  0  0  0  0  0  0
    3.9123   -2.7719    0.2412 H   0  0  0  0  0  0  0  0  0  0  0  0
    6.4468   -1.2193    0.7229 H   0  0  0  0  0  0  0  0  0  0  0  0
    6.1600   -2.9540    0.8259 H   0  0  0  0  0  0  0  0  0  0  0  0
    6.5400   -1.9570    3.0856 H   0  0  0  0  0  0  0  0  0  0  0  0
    4.9285   -2.6485    2.9494 H   0  0  0  0  0  0  0  0  0  0  0  0
    5.7417    0.2079    3.2449 H   0  0  0  0  0  0  0  0  0  0  0  0
    4.3065   -0.6265    3.8212 H   0  0  0  0  0  0  0  0  0  0  0  0
    3.4636    0.8636    2.2409 H   0  0  0  0  0  0  0  0  0  0  0  0
    4.8207    0.7077    1.1358 H   0  0  0  0  0  0  0  0  0  0  0  0
   -0.0719    0.5669   -2.9404 H   0  0  0  0  0  0  0  0  0  0  0  0
   -1.0887   -1.1307   -4.3202 H   0  0  0  0  0  0  0  0  0  0  0  0
   -0.7806   -3.6804   -4.9807 H   0  0  0  0  0  0  0  0  0  0  0  0
   -2.1523   -2.6366   -5.4670 H   0  0  0  0  0  0  0  0  0  0  0  0
   -2.3511   -4.3723   -5.4025 H   0  0  0  0  0  0  0  0  0  0  0  0
   -3.4520   -4.5085   -2.1034 H   0  0  0  0  0  0  0  0  0  0  0  0
   -3.1921   -5.3393   -3.6189 H   0  0  0  0  0  0  0  0  0  0  0  0
   -1.8528   -5.2303   -2.4687 H   0  0  0  0  0  0  0  0  0  0  0  0
   -2.1091   -3.3728   -0.7788 H   0  0  0  0  0  0  0  0  0  0  0  0
   -1.1001   -1.6796    0.5858 H   0  0  0  0  0  0  0  0  0  0  0  0
  1  2  1  0
  2  3  1  0
  3  4  2  0
  4  5  1  0
  5  6  1  0
  6  7  1  0
  5  8  2  0
  8  9  1  0
  9 10  2  0
 10 11  1  0
 11 12  2  0
 11 13  1  0
 13 14  1  0
 14 15  2  0
 15 16  1  0
 16 17  1  0
 17 18  1  0
 18 19  1  0
 19 20  1  0
 20 21  1  0
 21 22  1  0
 22 23  1  0
 23 24  1  0
 16 25  1  0
 25 26  2  0
 26 27  1  0
 27 28  2  0
 28 29  1  0
 29 30  1  0
 29 31  1  0
 28 32  1  0
 32 33  2  0
 15  3  1  0
 24 19  1  0
 33 25  1  0
 14  8  1  0
  1 34  1  0
  1 35  1  0
  1 36  1  0
  4 37  1  0
  7 38  1  0
  7 39  1  0
  7 40  1  0
  9 41  1  0
 10 42  1  0
 16 43  1  0
 17 44  1  0
 17 45  1  0
 18 46  1  0
 18 47  1  0
 20 48  1  0
 20 49  1  0
 21 50  1  0
 21 51  1  0
 22 52  1  0
 22 53  1  0
 23 54  1  0
 23 55  1  0
 24 56  1  0
 24 57  1  0
 26 58  1  0
 27 59  1  0
 30 60  1  0
 30 61  1  0
 30 62  1  0
 31 63  1  0
 31 64  1  0
 31 65  1  0
 32 66  1  0
 33 67  1  0
M  END
$$$$
