
     RDKit          3D

 31 32  0  0  0  0  0  0  0  0999 V2000
   -6.1235    1.2994   -0.9484 N   0  0  0  0  0  0  0  0  0  0  0  0
   -4.8626    0.7192   -0.6943 N   0  0  0  0  0  0  0  0  0  0  0  0
   -4.7718   -0.4208    0.0935 C   0  0  0  0  0  0  0  0  0  0  0  0
   -5.7568   -1.0394    0.4967 O   0  0  0  0  0  0  0  0  0  0  0  0
   -3.3425   -0.8619    0.4004 C   0  0  0  0  0  0  0  0  0  0  0  0
   -2.3986    0.1178   -0.0239 O   0  0  0  0  0  0  0  0  0  0  0  0
   -1.0776   -0.1626    0.1904 C   0  0  0  0  0  0  0  0  0  0  0  0
   -0.5681   -1.3134    0.7890 C   0  0  0  0  0  0  0  0  0  0  0  0
    0.8147   -1.4731    0.9465 C   0  0  0  0  0  0  0  0  0  0  0  0
    1.7149   -0.4876    0.5093 C   0  0  0  0  0  0  0  0  0  0  0  0
    3.2052   -0.6910    0.6978 C   0  0  0  0  0  0  0  0  0  0  0  0
    3.9368    0.5462    1.8223 S   0  0  0  0  0  0  0  0  0  0  0  0
    5.0371    1.3180    0.6093 C   0  0  0  0  0  0  0  0  0  0  0  0
    5.5443    0.2306   -0.3151 C   0  0  0  0  0  0  0  0  0  0  0  0
    4.1098   -0.7123   -0.8856 S   0  0  0  0  0  0  0  0  0  0  0  0
    1.1867    0.6669   -0.0903 C   0  0  0  0  0  0  0  0  0  0  0  0
   -0.1934    0.8242   -0.2466 C   0  0  0  0  0  0  0  0  0  0  0  0
   -6.7450    1.0197   -0.1776 H   0  0  0  0  0  0  0  0  0  0  0  0
   -6.5230    0.8185   -1.7600 H   0  0  0  0  0  0  0  0  0  0  0  0
   -4.0134    1.2673   -0.8434 H   0  0  0  0  0  0  0  0  0  0  0  0
   -3.1780   -1.8059   -0.1316 H   0  0  0  0  0  0  0  0  0  0  0  0
   -3.2767   -1.0016    1.4855 H   0  0  0  0  0  0  0  0  0  0  0  0
   -1.2122   -2.1096    1.1478 H   0  0  0  0  0  0  0  0  0  0  0  0
    1.1833   -2.3822    1.4188 H   0  0  0  0  0  0  0  0  0  0  0  0
    3.3821   -1.6661    1.1640 H   0  0  0  0  0  0  0  0  0  0  0  0
    4.4837    2.0868    0.0588 H   0  0  0  0  0  0  0  0  0  0  0  0
    5.8667    1.8111    1.1246 H   0  0  0  0  0  0  0  0  0  0  0  0
    6.2382   -0.4433    0.1994 H   0  0  0  0  0  0  0  0  0  0  0  0
    6.0706    0.6602   -1.1727 H   0  0  0  0  0  0  0  0  0  0  0  0
    1.8460    1.4572   -0.4431 H   0  0  0  0  0  0  0  0  0  0  0  0
   -0.5771    1.7277   -0.7143 H   0  0  0  0  0  0  0  0  0  0  0  0
  1  2  1  0
  2  3  1  0
  3  4  2  0
  3  5  1  0
  5  6  1  0
  6  7  1  0
  7  8  2  0
  8  9  1  0
  9 10  2  0
 10 11  1  0
 11 12  1  0
 12 13  1  0
 13 14  1  0
 14 15  1  0
 10 16  1  0
 16 17  2  0
 17  7  1  0
 15 11  1  0
  1 18  1  0
  1 19  1  0
  2 20  1  0
  5 21  1  0
  5 22  1  0
  8 23  1  0
  9 24  1  0
 11 25  1  0
 13 26  1  0
 13 27  1  0
 14 28  1  0
 14 29  1  0
 16 30  1  0
 17 31  1  0
M  END
$$$$
