
     RDKit          3D

 72 76  0  0  0  0  0  0  0  0999 V2000
    1.6219   -5.5949    0.4963 C   0  0  0  0  0  0  0  0  0  0  0  0
    0.9868   -4.3338    1.0028 C   0  0  0  0  0  0  0  0  0  0  0  0
    0.2358   -4.3424    2.1856 C   0  0  0  0  0  0  0  0  0  0  0  0
   -0.3828   -3.1756    2.6545 C   0  0  0  0  0  0  0  0  0  0  0  0
   -1.2143   -3.2073    3.9032 C   0  0  0  0  0  0  0  0  0  0  0  0
   -0.2710   -1.9967    1.9086 C   0  0  0  0  0  0  0  0  0  0  0  0
    0.4607   -1.9815    0.7171 C   0  0  0  0  0  0  0  0  0  0  0  0
    0.6061   -0.7853   -0.0281 N   0  0  0  0  0  0  0  0  0  0  0  0
    1.2277    0.3513    0.5066 C   0  0  0  0  0  0  0  0  0  0  0  0
    1.0899    1.4596   -0.0177 O   0  0  0  0  0  0  0  0  0  0  0  0
    2.0799    0.1537    1.7436 C   0  0  0  0  0  0  0  0  0  0  0  0
    3.1419    1.1326    1.8013 N   0  0  0  0  0  0  0  0  0  0  0  0
    4.2684    0.9853    1.0812 N   0  0  0  0  0  0  0  0  0  0  0  0
    5.0610    1.9626    1.4951 N   0  0  0  0  0  0  0  0  0  0  0  0
    4.3871    2.6327    2.4921 C   0  0  0  0  0  0  0  0  0  0  0  0
    4.9507    3.7764    3.1974 C   0  0  0  0  0  0  0  0  0  0  0  0
    4.2026    4.4647    4.1647 C   0  0  0  0  0  0  0  0  0  0  0  0
    4.7457    5.5624    4.8372 C   0  0  0  0  0  0  0  0  0  0  0  0
    6.0431    5.9829    4.5515 C   0  0  0  0  0  0  0  0  0  0  0  0
    6.7982    5.3086    3.5939 C   0  0  0  0  0  0  0  0  0  0  0  0
    6.2545    4.2124    2.9186 C   0  0  0  0  0  0  0  0  0  0  0  0
    3.1800    2.0951    2.7454 N   0  0  0  0  0  0  0  0  0  0  0  0
   -0.2434   -0.5651   -1.2245 C   0  0  0  0  0  0  0  0  0  0  0  0
   -1.5640    0.1627   -0.8535 C   0  0  0  0  0  0  0  0  0  0  0  0
   -2.1115    0.0587    0.2446 O   0  0  0  0  0  0  0  0  0  0  0  0
   -2.1092    0.9129   -1.8848 N   0  0  0  0  0  0  0  0  0  0  0  0
   -3.3977    1.5818   -1.7609 C   0  0  0  0  0  0  0  0  0  0  0  0
   -3.4740    2.7810   -2.7202 C   0  0  0  0  0  0  0  0  0  0  0  0
   -4.0890    2.3952   -4.0606 C   0  0  0  0  0  0  0  0  0  0  0  0
   -5.5214    1.8819   -3.8999 C   0  0  0  0  0  0  0  0  0  0  0  0
   -5.7873    1.2307   -2.5415 C   0  0  0  0  0  0  0  0  0  0  0  0
   -4.5368    0.5693   -1.9776 C   0  0  0  0  0  0  0  0  0  0  0  0
   -0.5338   -1.7897   -2.0883 C   0  0  0  0  0  0  0  0  0  0  0  0
   -1.5645   -2.6822   -1.7800 C   0  0  0  0  0  0  0  0  0  0  0  0
   -1.7736   -3.7874   -2.6007 C   0  0  0  0  0  0  0  0  0  0  0  0
   -0.9571   -3.9803   -3.7071 C   0  0  0  0  0  0  0  0  0  0  0  0
    0.0417   -3.0549   -3.9496 C   0  0  0  0  0  0  0  0  0  0  0  0
    0.2691   -1.9728   -3.1725 N   0  0  0  0  0  0  0  0  0  0  0  0
    1.0882   -3.1474    0.2680 C   0  0  0  0  0  0  0  0  0  0  0  0
    0.9148   -6.1429   -0.1339 H   0  0  0  0  0  0  0  0  0  0  0  0
    2.5195   -5.3724   -0.0904 H   0  0  0  0  0  0  0  0  0  0  0  0
    1.9293   -6.2373    1.3280 H   0  0  0  0  0  0  0  0  0  0  0  0
    0.1304   -5.2689    2.7482 H   0  0  0  0  0  0  0  0  0  0  0  0
   -0.8060   -3.9228    4.6245 H   0  0  0  0  0  0  0  0  0  0  0  0
   -2.2420   -3.4945    3.6610 H   0  0  0  0  0  0  0  0  0  0  0  0
   -1.2265   -2.2268    4.3908 H   0  0  0  0  0  0  0  0  0  0  0  0
   -0.7857   -1.0976    2.2445 H   0  0  0  0  0  0  0  0  0  0  0  0
    2.5642   -0.8269    1.7582 H   0  0  0  0  0  0  0  0  0  0  0  0
    1.4572    0.2710    2.6358 H   0  0  0  0  0  0  0  0  0  0  0  0
    3.1872    4.1502    4.3990 H   0  0  0  0  0  0  0  0  0  0  0  0
    4.1541    6.0875    5.5827 H   0  0  0  0  0  0  0  0  0  0  0  0
    6.4652    6.8370    5.0748 H   0  0  0  0  0  0  0  0  0  0  0  0
    7.8107    5.6354    3.3705 H   0  0  0  0  0  0  0  0  0  0  0  0
    6.8600    3.7005    2.1729 H   0  0  0  0  0  0  0  0  0  0  0  0
    0.3137    0.1345   -1.8653 H   0  0  0  0  0  0  0  0  0  0  0  0
   -1.6946    0.8378   -2.8076 H   0  0  0  0  0  0  0  0  0  0  0  0
   -3.4623    1.9699   -0.7363 H   0  0  0  0  0  0  0  0  0  0  0  0
   -2.4820    3.2221   -2.8738 H   0  0  0  0  0  0  0  0  0  0  0  0
   -4.0958    3.5638   -2.2664 H   0  0  0  0  0  0  0  0  0  0  0  0
   -4.0817    3.2529   -4.7424 H   0  0  0  0  0  0  0  0  0  0  0  0
   -3.4743    1.6175   -4.5310 H   0  0  0  0  0  0  0  0  0  0  0  0
   -5.7318    1.1661   -4.7040 H   0  0  0  0  0  0  0  0  0  0  0  0
   -6.2290    2.7094   -4.0355 H   0  0  0  0  0  0  0  0  0  0  0  0
   -6.1412    1.9916   -1.8343 H   0  0  0  0  0  0  0  0  0  0  0  0
   -6.5951    0.4962   -2.6384 H   0  0  0  0  0  0  0  0  0  0  0  0
   -4.2180   -0.2258   -2.6652 H   0  0  0  0  0  0  0  0  0  0  0  0
   -4.7712    0.0735   -1.0281 H   0  0  0  0  0  0  0  0  0  0  0  0
   -2.1917   -2.5374   -0.9036 H   0  0  0  0  0  0  0  0  0  0  0  0
   -2.5655   -4.4953   -2.3712 H   0  0  0  0  0  0  0  0  0  0  0  0
   -1.0938   -4.8326   -4.3630 H   0  0  0  0  0  0  0  0  0  0  0  0
    0.7083   -3.1611   -4.8011 H   0  0  0  0  0  0  0  0  0  0  0  0
    1.6636   -3.1319   -0.6564 H   0  0  0  0  0  0  0  0  0  0  0  0
  1  2  1  0
  2  3  2  0
  3  4  1  0
  4  5  1  0
  4  6  2  0
  6  7  1  0
  7  8  1  0
  8  9  1  0
  9 10  2  0
  9 11  1  0
 11 12  1  0
 12 13  1  0
 13 14  2  0
 14 15  1  0
 15 16  1  0
 16 17  2  0
 17 18  1  0
 18 19  2  0
 19 20  1  0
 20 21  2  0
 15 22  2  0
  8 23  1  0
 23 24  1  0
 24 25  2  0
 24 26  1  0
 26 27  1  0
 27 28  1  0
 28 29  1  0
 29 30  1  0
 30 31  1  0
 31 32  1  0
 23 33  1  0
 33 34  2  0
 34 35  1  0
 35 36  2  0
 36 37  1  0
 37 38  2  0
  7 39  2  0
 39  2  1  0
 22 12  1  0
 32 27  1  0
 38 33  1  0
 21 16  1  0
  1 40  1  0
  1 41  1  0
  1 42  1  0
  3 43  1  0
  5 44  1  0
  5 45  1  0
  5 46  1  0
  6 47  1  0
 11 48  1  0
 11 49  1  0
 17 50  1  0
 18 51  1  0
 19 52  1  0
 20 53  1  0
 21 54  1  0
 23 55  1  0
 26 56  1  0
 27 57  1  0
 28 58  1  0
 28 59  1  0
 29 60  1  0
 29 61  1  0
 30 62  1  0
 30 63  1  0
 31 64  1  0
 31 65  1  0
 32 66  1  0
 32 67  1  0
 34 68  1  0
 35 69  1  0
 36 70  1  0
 37 71  1  0
 39 72  1  0
M  END
$$$$
