
     RDKit          3D

 29 31  0  0  0  0  0  0  0  0999 V2000
   -4.9236    1.5271    0.8915 C   0  0  0  0  0  0  0  0  0  0  0  0
   -3.5235    1.6998    0.7136 O   0  0  0  0  0  0  0  0  0  0  0  0
   -2.7821    0.5746    0.4695 C   0  0  0  0  0  0  0  0  0  0  0  0
   -3.2897   -0.7347    0.3680 C   0  0  0  0  0  0  0  0  0  0  0  0
   -2.4384   -1.8162    0.1137 C   0  0  0  0  0  0  0  0  0  0  0  0
   -1.0934   -1.5482   -0.0323 C   0  0  0  0  0  0  0  0  0  0  0  0
   -0.5693   -0.2592    0.0658 C   0  0  0  0  0  0  0  0  0  0  0  0
   -1.4085    0.8134    0.3163 C   0  0  0  0  0  0  0  0  0  0  0  0
    0.8827   -0.3848   -0.1476 C   0  0  0  0  0  0  0  0  0  0  0  0
    1.7371    0.6490   -0.1142 C   0  0  0  0  0  0  0  0  0  0  0  0
    3.1416    0.6930   -0.3096 C   0  0  0  0  0  0  0  0  0  0  0  0
    3.9646   -0.1089   -1.0598 C   0  0  0  0  0  0  0  0  0  0  0  0
    5.2172    0.4174   -0.8977 N   0  0  0  0  0  0  0  0  0  0  0  0
    5.0986    1.5241   -0.1068 C   0  0  0  0  0  0  0  0  0  0  0  0
    3.8510    1.7262    0.2516 N   0  0  0  0  0  0  0  0  0  0  0  0
    1.1593   -1.8534   -0.3622 C   0  0  0  0  0  0  0  0  0  0  0  0
    2.2144   -2.4248   -0.5508 O   0  0  0  0  0  0  0  0  0  0  0  0
   -0.0834   -2.4674   -0.2856 N   0  0  0  0  0  0  0  0  0  0  0  0
   -5.1363    0.8957    1.7605 H   0  0  0  0  0  0  0  0  0  0  0  0
   -5.3605    2.5122    1.0811 H   0  0  0  0  0  0  0  0  0  0  0  0
   -5.3895    1.1250   -0.0142 H   0  0  0  0  0  0  0  0  0  0  0  0
   -4.3493   -0.9412    0.4832 H   0  0  0  0  0  0  0  0  0  0  0  0
   -2.8296   -2.8241    0.0360 H   0  0  0  0  0  0  0  0  0  0  0  0
   -1.0256    1.8256    0.3962 H   0  0  0  0  0  0  0  0  0  0  0  0
    1.3242    1.6274    0.1216 H   0  0  0  0  0  0  0  0  0  0  0  0
    3.7925   -0.9813   -1.6731 H   0  0  0  0  0  0  0  0  0  0  0  0
    6.0730    0.0600   -1.2986 H   0  0  0  0  0  0  0  0  0  0  0  0
    5.9460    2.1373    0.1687 H   0  0  0  0  0  0  0  0  0  0  0  0
   -0.1995   -3.4637   -0.3851 H   0  0  0  0  0  0  0  0  0  0  0  0
  1  2  1  0
  2  3  1  0
  3  4  2  0
  4  5  1  0
  5  6  2  0
  6  7  1  0
  7  8  2  0
  7  9  1  0
  9 10  2  3
 10 11  1  0
 11 12  2  0
 12 13  1  0
 13 14  1  0
 14 15  2  0
  9 16  1  0
 16 17  2  0
 16 18  1  0
  8  3  1  0
 15 11  1  0
 18  6  1  0
  1 19  1  0
  1 20  1  0
  1 21  1  0
  4 22  1  0
  5 23  1  0
  8 24  1  0
 10 25  1  0
 12 26  1  0
 13 27  1  0
 14 28  1  0
 18 29  1  0
M  END
$$$$
