
     RDKit          3D

 72 76  0  0  0  0  0  0  0  0999 V2000
   10.1113   -1.6588   -1.3228 C   0  0  0  0  0  0  0  0  0  0  0  0
    9.5795   -0.3851   -1.6664 O   0  0  0  0  0  0  0  0  0  0  0  0
    8.2456   -0.1920   -1.4338 C   0  0  0  0  0  0  0  0  0  0  0  0
    7.7431    1.0284   -1.8949 C   0  0  0  0  0  0  0  0  0  0  0  0
    6.3940    1.3527   -1.7276 C   0  0  0  0  0  0  0  0  0  0  0  0
    5.5227    0.4590   -1.0904 C   0  0  0  0  0  0  0  0  0  0  0  0
    4.1056    0.8035   -0.9164 C   0  0  0  0  0  0  0  0  0  0  0  0
    3.7864    2.0567   -0.5681 N   0  0  0  0  0  0  0  0  0  0  0  0
    2.1514    2.1879   -0.4024 S   0  0  0  0  0  0  0  0  0  0  0  0
    1.7860    0.5613   -0.7681 C   0  0  0  0  0  0  0  0  0  0  0  0
    0.4192    0.0690   -0.8073 C   0  0  0  0  0  0  0  0  0  0  0  0
    0.0535   -0.6990   -1.7015 O   0  0  0  0  0  0  0  0  0  0  0  0
   -0.4934    0.5405    0.1655 N   0  0  0  0  0  0  0  0  0  0  0  0
   -0.0799    0.6888    1.5339 C   0  0  0  0  0  0  0  0  0  0  0  0
    0.8163   -0.2268    2.1130 C   0  0  0  0  0  0  0  0  0  0  0  0
    1.2441   -0.0692    3.4325 C   0  0  0  0  0  0  0  0  0  0  0  0
    0.7801    1.0044    4.1779 C   0  0  0  0  0  0  0  0  0  0  0  0
    1.1918    1.1591    5.4426 F   0  0  0  0  0  0  0  0  0  0  0  0
   -0.1011    1.9245    3.6266 C   0  0  0  0  0  0  0  0  0  0  0  0
   -0.5289    1.7685    2.3051 C   0  0  0  0  0  0  0  0  0  0  0  0
   -1.9198    0.2218   -0.0984 C   0  0  0  0  0  0  0  0  0  0  0  0
   -2.3705   -1.1621    0.4641 C   0  0  0  0  0  0  0  0  0  0  0  0
   -1.6817   -1.8646    1.2017 O   0  0  0  0  0  0  0  0  0  0  0  0
   -3.6337   -1.5659    0.0472 N   0  0  0  0  0  0  0  0  0  0  0  0
   -4.1693   -2.8683    0.4090 C   0  0  0  0  0  0  0  0  0  0  0  0
   -3.5887   -3.9770   -0.4852 C   0  0  0  0  0  0  0  0  0  0  0  0
   -4.7841   -4.6475   -1.1562 C   0  0  0  0  0  0  0  0  0  0  0  0
   -5.8597   -3.5746   -1.1614 C   0  0  0  0  0  0  0  0  0  0  0  0
   -5.6861   -2.9200    0.2009 C   0  0  0  0  0  0  0  0  0  0  0  0
   -2.8694    1.3843    0.1938 C   0  0  0  0  0  0  0  0  0  0  0  0
   -2.8526    2.5028   -0.6600 C   0  0  0  0  0  0  0  0  0  0  0  0
   -3.6770    3.6077   -0.4208 C   0  0  0  0  0  0  0  0  0  0  0  0
   -4.5324    3.6181    0.6789 C   0  0  0  0  0  0  0  0  0  0  0  0
   -5.3735    4.6357    1.0355 O   0  0  0  0  0  0  0  0  0  0  0  0
   -5.3580    5.7989    0.2125 C   0  0  0  0  0  0  0  0  0  0  0  0
   -4.5579    2.5114    1.5301 C   0  0  0  0  0  0  0  0  0  0  0  0
   -3.7354    1.4052    1.2957 C   0  0  0  0  0  0  0  0  0  0  0  0
    2.9653   -0.0792   -1.0991 C   0  0  0  0  0  0  0  0  0  0  0  0
    3.0177   -1.3684   -1.5304 N   0  0  0  0  0  0  0  0  0  0  0  0
    6.0381   -0.7500   -0.6033 C   0  0  0  0  0  0  0  0  0  0  0  0
    7.3904   -1.0756   -0.7766 C   0  0  0  0  0  0  0  0  0  0  0  0
   11.1641   -1.6727   -1.6177 H   0  0  0  0  0  0  0  0  0  0  0  0
   10.0653   -1.8268   -0.2414 H   0  0  0  0  0  0  0  0  0  0  0  0
    9.6007   -2.4597   -1.8722 H   0  0  0  0  0  0  0  0  0  0  0  0
    8.4068    1.7299   -2.3949 H   0  0  0  0  0  0  0  0  0  0  0  0
    6.0296    2.3111   -2.0931 H   0  0  0  0  0  0  0  0  0  0  0  0
    1.1628   -1.0993    1.5607 H   0  0  0  0  0  0  0  0  0  0  0  0
    1.9289   -0.7812    3.8803 H   0  0  0  0  0  0  0  0  0  0  0  0
   -0.4417    2.7656    4.2230 H   0  0  0  0  0  0  0  0  0  0  0  0
   -1.1775    2.5321    1.8868 H   0  0  0  0  0  0  0  0  0  0  0  0
   -2.0179    0.0802   -1.1861 H   0  0  0  0  0  0  0  0  0  0  0  0
   -4.0804   -1.0521   -0.7036 H   0  0  0  0  0  0  0  0  0  0  0  0
   -3.9248   -3.0499    1.4620 H   0  0  0  0  0  0  0  0  0  0  0  0
   -3.0168   -4.7049    0.1027 H   0  0  0  0  0  0  0  0  0  0  0  0
   -2.9121   -3.5700   -1.2473 H   0  0  0  0  0  0  0  0  0  0  0  0
   -4.5469   -5.0081   -2.1624 H   0  0  0  0  0  0  0  0  0  0  0  0
   -5.1133   -5.5061   -0.5570 H   0  0  0  0  0  0  0  0  0  0  0  0
   -6.8610   -3.9905   -1.2965 H   0  0  0  0  0  0  0  0  0  0  0  0
   -5.6744   -2.8502   -1.9622 H   0  0  0  0  0  0  0  0  0  0  0  0
   -6.1379   -3.5626    0.9670 H   0  0  0  0  0  0  0  0  0  0  0  0
   -6.1697   -1.9389    0.2532 H   0  0  0  0  0  0  0  0  0  0  0  0
   -2.1797    2.5256   -1.5166 H   0  0  0  0  0  0  0  0  0  0  0  0
   -3.6181    4.4449   -1.1096 H   0  0  0  0  0  0  0  0  0  0  0  0
   -4.3641    6.2601    0.1947 H   0  0  0  0  0  0  0  0  0  0  0  0
   -5.7046    5.5683   -0.7995 H   0  0  0  0  0  0  0  0  0  0  0  0
   -6.0524    6.5255    0.6446 H   0  0  0  0  0  0  0  0  0  0  0  0
   -5.2194    2.5161    2.3940 H   0  0  0  0  0  0  0  0  0  0  0  0
   -3.7693    0.5755    2.0006 H   0  0  0  0  0  0  0  0  0  0  0  0
    3.8351   -1.7001   -2.0353 H   0  0  0  0  0  0  0  0  0  0  0  0
    2.1607   -1.8047   -1.8800 H   0  0  0  0  0  0  0  0  0  0  0  0
    5.3967   -1.4433   -0.0634 H   0  0  0  0  0  0  0  0  0  0  0  0
    7.7422   -2.0201   -0.3750 H   0  0  0  0  0  0  0  0  0  0  0  0
  1  2  1  0
  2  3  1  0
  3  4  2  0
  4  5  1  0
  5  6  2  0
  6  7  1  0
  7  8  2  0
  8  9  1  0
  9 10  1  0
 10 11  1  0
 11 12  2  0
 11 13  1  0
 13 14  1  0
 14 15  2  0
 15 16  1  0
 16 17  2  0
 17 18  1  0
 17 19  1  0
 19 20  2  0
 13 21  1  0
 21 22  1  0
 22 23  2  0
 22 24  1  0
 24 25  1  0
 25 26  1  0
 26 27  1  0
 27 28  1  0
 28 29  1  0
 21 30  1  0
 30 31  2  0
 31 32  1  0
 32 33  2  0
 33 34  1  0
 34 35  1  0
 33 36  1  0
 36 37  2  0
 10 38  2  0
 38 39  1  0
  6 40  1  0
 40 41  2  0
 41  3  1  0
 38  7  1  0
 20 14  1  0
 29 25  1  0
 37 30  1  0
  1 42  1  0
  1 43  1  0
  1 44  1  0
  4 45  1  0
  5 46  1  0
 15 47  1  0
 16 48  1  0
 19 49  1  0
 20 50  1  0
 21 51  1  0
 24 52  1  0
 25 53  1  0
 26 54  1  0
 26 55  1  0
 27 56  1  0
 27 57  1  0
 28 58  1  0
 28 59  1  0
 29 60  1  0
 29 61  1  0
 31 62  1  0
 32 63  1  0
 35 64  1  0
 35 65  1  0
 35 66  1  0
 36 67  1  0
 37 68  1  0
 39 69  1  0
 39 70  1  0
 40 71  1  0
 41 72  1  0
M  END
$$$$
