
     RDKit          3D

 45 46  0  0  0  0  0  0  0  0999 V2000
   -6.9966    2.6830    0.0957 C   0  0  0  0  0  0  0  0  0  0  0  0
   -6.5478    1.7513   -1.0167 C   0  0  0  0  0  0  0  0  0  0  0  0
   -6.2937    0.4416   -0.5119 O   0  0  0  0  0  0  0  0  0  0  0  0
   -5.0490    0.1450   -0.0336 C   0  0  0  0  0  0  0  0  0  0  0  0
   -3.9784    1.0274    0.0984 C   0  0  0  0  0  0  0  0  0  0  0  0
   -2.7547    0.5799    0.6106 C   0  0  0  0  0  0  0  0  0  0  0  0
   -2.5879   -0.7535    1.0071 C   0  0  0  0  0  0  0  0  0  0  0  0
   -1.2604   -1.2348    1.5249 C   0  0  0  0  0  0  0  0  0  0  0  0
   -0.3893   -1.5881    0.4305 N   0  0  0  0  0  0  0  0  0  0  0  0
    0.9144   -1.9043    0.6623 C   0  0  0  0  0  0  0  0  0  0  0  0
    1.4547   -1.8024    1.7505 O   0  0  0  0  0  0  0  0  0  0  0  0
    1.5562   -2.3438   -0.4804 N   0  0  0  0  0  0  0  0  0  0  0  0
    3.1339   -2.8562   -0.5530 S   0  0  0  0  0  6  0  0  0  0  0  0
    3.3781   -3.1239   -1.9570 O   0  0  0  0  0  0  0  0  0  0  0  0
    3.3581   -3.8818    0.4402 O   0  0  0  0  0  0  0  0  0  0  0  0
    4.0655   -1.4077   -0.1250 C   0  0  0  0  0  0  0  0  0  0  0  0
    4.4923   -1.2186    1.1895 C   0  0  0  0  0  0  0  0  0  0  0  0
    5.2525   -0.0916    1.5079 C   0  0  0  0  0  0  0  0  0  0  0  0
    5.6032    0.8369    0.5222 C   0  0  0  0  0  0  0  0  0  0  0  0
    6.3499    1.8905    0.9724 O   0  0  0  0  0  0  0  0  0  0  0  0
    6.7654    2.8467    0.0056 C   0  0  0  0  0  0  0  0  0  0  0  0
    5.1865    0.6299   -0.7949 C   0  0  0  0  0  0  0  0  0  0  0  0
    4.4211   -0.4948   -1.1223 C   0  0  0  0  0  0  0  0  0  0  0  0
   -3.6637   -1.6371    0.8683 C   0  0  0  0  0  0  0  0  0  0  0  0
   -4.8828   -1.1863    0.3562 C   0  0  0  0  0  0  0  0  0  0  0  0
   -7.8670    2.2681    0.6147 H   0  0  0  0  0  0  0  0  0  0  0  0
   -6.2134    2.8161    0.8478 H   0  0  0  0  0  0  0  0  0  0  0  0
   -7.2626    3.6647   -0.3067 H   0  0  0  0  0  0  0  0  0  0  0  0
   -5.7027    2.1538   -1.5857 H   0  0  0  0  0  0  0  0  0  0  0  0
   -7.3701    1.6509   -1.7344 H   0  0  0  0  0  0  0  0  0  0  0  0
   -4.0581    2.0726   -0.1791 H   0  0  0  0  0  0  0  0  0  0  0  0
   -1.9292    1.2838    0.7012 H   0  0  0  0  0  0  0  0  0  0  0  0
   -0.7809   -0.4633    2.1391 H   0  0  0  0  0  0  0  0  0  0  0  0
   -1.3865   -2.1174    2.1632 H   0  0  0  0  0  0  0  0  0  0  0  0
   -0.8141   -1.8893   -0.4319 H   0  0  0  0  0  0  0  0  0  0  0  0
    1.1027   -2.3286   -1.3830 H   0  0  0  0  0  0  0  0  0  0  0  0
    4.2296   -1.9311    1.9693 H   0  0  0  0  0  0  0  0  0  0  0  0
    5.5772    0.0635    2.5345 H   0  0  0  0  0  0  0  0  0  0  0  0
    5.9042    3.3467   -0.4498 H   0  0  0  0  0  0  0  0  0  0  0  0
    7.4045    2.3870   -0.7556 H   0  0  0  0  0  0  0  0  0  0  0  0
    7.3577    3.6084    0.5217 H   0  0  0  0  0  0  0  0  0  0  0  0
    5.4451    1.3206   -1.5909 H   0  0  0  0  0  0  0  0  0  0  0  0
    4.1163   -0.6524   -2.1545 H   0  0  0  0  0  0  0  0  0  0  0  0
   -3.5659   -2.6805    1.1600 H   0  0  0  0  0  0  0  0  0  0  0  0
   -5.7145   -1.8807    0.2594 H   0  0  0  0  0  0  0  0  0  0  0  0
  1  2  1  0
  2  3  1  0
  3  4  1  0
  4  5  2  0
  5  6  1  0
  6  7  2  0
  7  8  1  0
  8  9  1  0
  9 10  1  0
 10 11  2  0
 10 12  1  0
 12 13  1  0
 13 14  2  0
 13 15  2  0
 13 16  1  0
 16 17  2  0
 17 18  1  0
 18 19  2  0
 19 20  1  0
 20 21  1  0
 19 22  1  0
 22 23  2  0
  7 24  1  0
 24 25  2  0
 25  4  1  0
 23 16  1  0
  1 26  1  0
  1 27  1  0
  1 28  1  0
  2 29  1  0
  2 30  1  0
  5 31  1  0
  6 32  1  0
  8 33  1  0
  8 34  1  0
  9 35  1  0
 12 36  1  0
 17 37  1  0
 18 38  1  0
 21 39  1  0
 21 40  1  0
 21 41  1  0
 22 42  1  0
 23 43  1  0
 24 44  1  0
 25 45  1  0
M  END
$$$$
