
     RDKit          3D

 51 53  0  0  0  0  0  0  0  0999 V2000
    3.0591   -1.8278   -1.7346 O   0  0  0  0  0  0  0  0  0  0  0  0
    2.5390   -1.5649   -0.6537 C   0  0  0  0  0  0  0  0  0  0  0  0
    3.2742   -1.2869    0.4726 N   0  0  0  0  0  0  0  0  0  0  0  0
    4.7291   -1.2823    0.4819 C   0  0  0  0  0  0  0  0  0  0  0  0
    5.3269    0.1307    0.4869 C   0  0  0  0  0  0  0  0  0  0  0  0
    5.1025    0.9354   -0.7886 C   0  0  0  0  0  0  0  0  0  0  0  0
    4.0775    1.9674   -0.3889 C   0  0  0  0  0  0  0  0  0  0  0  0
    4.3878    2.1768    1.0733 C   0  0  0  0  0  0  0  0  0  0  0  0
    4.7549    0.8876    1.5789 O   0  0  0  0  0  0  0  0  0  0  0  0
    1.0257   -1.5234   -0.4905 C   0  0  0  0  0  0  0  0  0  0  0  0
    0.5419   -2.4888    0.5964 C   0  0  0  0  0  0  0  0  0  0  0  0
   -0.9722   -2.4000    0.7620 C   0  0  0  0  0  0  0  0  0  0  0  0
   -1.4291   -0.9656    1.0065 C   0  0  0  0  0  0  0  0  0  0  0  0
   -0.9227   -0.0301   -0.0298 N   0  0  0  0  0  0  0  0  0  0  0  0
   -1.8281    0.1439   -1.4638 S   0  0  0  0  0  6  0  0  0  0  0  0
   -2.0847   -1.1773   -1.9935 O   0  0  0  0  0  0  0  0  0  0  0  0
   -1.2090    1.1721   -2.2720 O   0  0  0  0  0  0  0  0  0  0  0  0
   -3.3659    0.8137   -0.8727 C   0  0  0  0  0  0  0  0  0  0  0  0
   -3.3762    2.1011   -0.3296 C   0  0  0  0  0  0  0  0  0  0  0  0
   -4.5758    2.6430    0.1273 C   0  0  0  0  0  0  0  0  0  0  0  0
   -5.7571    1.9017    0.0384 C   0  0  0  0  0  0  0  0  0  0  0  0
   -5.7552    0.6063   -0.5069 C   0  0  0  0  0  0  0  0  0  0  0  0
   -7.0363   -0.1847   -0.6247 C   0  0  0  0  0  0  0  0  0  0  0  0
   -7.5794   -0.1109   -1.8697 F   0  0  0  0  0  0  0  0  0  0  0  0
   -8.0068    0.2338    0.2349 F   0  0  0  0  0  0  0  0  0  0  0  0
   -6.8607   -1.5105   -0.3667 F   0  0  0  0  0  0  0  0  0  0  0  0
   -4.5452    0.0681   -0.9744 C   0  0  0  0  0  0  0  0  0  0  0  0
    0.5559   -0.1006   -0.2050 C   0  0  0  0  0  0  0  0  0  0  0  0
    2.8298   -0.9473    1.3154 H   0  0  0  0  0  0  0  0  0  0  0  0
    5.1190   -1.8641   -0.3596 H   0  0  0  0  0  0  0  0  0  0  0  0
    5.0123   -1.7922    1.4095 H   0  0  0  0  0  0  0  0  0  0  0  0
    6.4038    0.0428    0.6740 H   0  0  0  0  0  0  0  0  0  0  0  0
    6.0366    1.4416   -1.0631 H   0  0  0  0  0  0  0  0  0  0  0  0
    4.8011    0.3345   -1.6507 H   0  0  0  0  0  0  0  0  0  0  0  0
    3.0716    1.5521   -0.5023 H   0  0  0  0  0  0  0  0  0  0  0  0
    4.1346    2.8887   -0.9743 H   0  0  0  0  0  0  0  0  0  0  0  0
    5.2383    2.8536    1.2105 H   0  0  0  0  0  0  0  0  0  0  0  0
    3.5337    2.5638    1.6354 H   0  0  0  0  0  0  0  0  0  0  0  0
    0.5995   -1.8521   -1.4479 H   0  0  0  0  0  0  0  0  0  0  0  0
    1.0171   -2.2645    1.5592 H   0  0  0  0  0  0  0  0  0  0  0  0
    0.8286   -3.5162    0.3419 H   0  0  0  0  0  0  0  0  0  0  0  0
   -1.2853   -3.0306    1.6021 H   0  0  0  0  0  0  0  0  0  0  0  0
   -1.4584   -2.8079   -0.1306 H   0  0  0  0  0  0  0  0  0  0  0  0
   -2.5202   -0.9254    1.0724 H   0  0  0  0  0  0  0  0  0  0  0  0
   -1.0579   -0.6183    1.9790 H   0  0  0  0  0  0  0  0  0  0  0  0
   -2.4576    2.6812   -0.2689 H   0  0  0  0  0  0  0  0  0  0  0  0
   -4.5938    3.6467    0.5468 H   0  0  0  0  0  0  0  0  0  0  0  0
   -6.6877    2.3434    0.3949 H   0  0  0  0  0  0  0  0  0  0  0  0
   -4.5289   -0.9284   -1.4157 H   0  0  0  0  0  0  0  0  0  0  0  0
    1.0106    0.2900    0.7145 H   0  0  0  0  0  0  0  0  0  0  0  0
    0.8828    0.5810   -0.9976 H   0  0  0  0  0  0  0  0  0  0  0  0
  1  2  2  0
  2  3  1  0
  3  4  1  0
  4  5  1  0
  5  6  1  0
  6  7  1  0
  7  8  1  0
  8  9  1  0
  2 10  1  0
 10 11  1  0
 11 12  1  0
 12 13  1  0
 13 14  1  0
 14 15  1  0
 15 16  2  0
 15 17  2  0
 15 18  1  0
 18 19  2  0
 19 20  1  0
 20 21  2  0
 21 22  1  0
 22 23  1  0
 23 24  1  0
 23 25  1  0
 23 26  1  0
 22 27  2  0
 14 28  1  0
  9  5  1  0
 28 10  1  0
 27 18  1  0
  3 29  1  0
  4 30  1  0
  4 31  1  0
  5 32  1  0
  6 33  1  0
  6 34  1  0
  7 35  1  0
  7 36  1  0
  8 37  1  0
  8 38  1  0
 10 39  1  0
 11 40  1  0
 11 41  1  0
 12 42  1  0
 12 43  1  0
 13 44  1  0
 13 45  1  0
 19 46  1  0
 20 47  1  0
 21 48  1  0
 27 49  1  0
 28 50  1  0
 28 51  1  0
M  END
$$$$
