
     RDKit          3D

 53 55  0  0  0  0  0  0  0  0999 V2000
   -5.5223   -0.8625    0.7328 C   0  0  0  0  0  0  0  0  0  0  0  0
   -6.1871    0.0614   -0.2765 C   0  0  0  0  0  0  0  0  0  0  0  0
   -5.4245    1.3702   -0.5053 C   0  0  0  0  0  0  0  0  0  0  0  0
   -4.3944    1.3272   -1.6391 C   0  0  0  0  0  0  0  0  0  0  0  0
   -3.2526    0.4981   -1.3322 N   0  0  0  0  0  0  0  0  0  0  0  0
   -2.2198    0.8381   -0.4589 C   0  0  0  0  0  0  0  0  0  0  0  0
   -2.1768    1.9180    0.2416 N   0  0  0  0  0  0  0  0  0  0  0  0
   -1.2747   -0.1939   -0.5088 N   0  0  0  0  0  0  0  0  0  0  0  0
   -0.2205   -0.4397    0.4613 C   0  0  0  0  0  0  0  0  0  0  0  0
    0.8928    0.6143    0.3516 C   0  0  0  0  0  0  0  0  0  0  0  0
    0.4901    1.8127    1.0403 O   0  0  0  0  0  0  0  0  0  0  0  0
    2.1923    0.1065    0.9889 C   0  0  0  0  0  0  0  0  0  0  0  0
    3.1938    1.1088    0.7763 O   0  0  0  0  0  0  0  0  0  0  0  0
    4.4469    0.8472    1.2570 C   0  0  0  0  0  0  0  0  0  0  0  0
    5.3966    1.8312    0.9749 C   0  0  0  0  0  0  0  0  0  0  0  0
    6.7175    1.6929    1.4078 C   0  0  0  0  0  0  0  0  0  0  0  0
    7.1048    0.5686    2.1425 C   0  0  0  0  0  0  0  0  0  0  0  0
    8.5289    0.3996    2.5815 C   0  0  0  0  0  0  0  0  0  0  0  0
    6.1548   -0.4224    2.4133 C   0  0  0  0  0  0  0  0  0  0  0  0
    4.8316   -0.2823    1.9784 C   0  0  0  0  0  0  0  0  0  0  0  0
   -1.7340   -1.1749   -1.3975 C   0  0  0  0  0  0  0  0  0  0  0  0
   -1.1898   -2.3821   -1.7898 C   0  0  0  0  0  0  0  0  0  0  0  0
   -1.8934   -3.1493   -2.7242 C   0  0  0  0  0  0  0  0  0  0  0  0
   -3.1178   -2.7026   -3.2488 C   0  0  0  0  0  0  0  0  0  0  0  0
   -3.6632   -1.4790   -2.8505 C   0  0  0  0  0  0  0  0  0  0  0  0
   -2.9646   -0.7259   -1.9289 C   0  0  0  0  0  0  0  0  0  0  0  0
   -6.1518   -1.7414    0.9058 H   0  0  0  0  0  0  0  0  0  0  0  0
   -4.5491   -1.2170    0.3896 H   0  0  0  0  0  0  0  0  0  0  0  0
   -5.3825   -0.3566    1.6935 H   0  0  0  0  0  0  0  0  0  0  0  0
   -6.3477   -0.4663   -1.2230 H   0  0  0  0  0  0  0  0  0  0  0  0
   -7.1817    0.3105    0.1143 H   0  0  0  0  0  0  0  0  0  0  0  0
   -4.9652    1.7116    0.4294 H   0  0  0  0  0  0  0  0  0  0  0  0
   -6.1626    2.1354   -0.7796 H   0  0  0  0  0  0  0  0  0  0  0  0
   -4.8852    1.0166   -2.5685 H   0  0  0  0  0  0  0  0  0  0  0  0
   -4.0444    2.3505   -1.8267 H   0  0  0  0  0  0  0  0  0  0  0  0
   -1.2828    1.9359    0.7576 H   0  0  0  0  0  0  0  0  0  0  0  0
    0.2132   -1.4345    0.3185 H   0  0  0  0  0  0  0  0  0  0  0  0
   -0.6563   -0.4278    1.4682 H   0  0  0  0  0  0  0  0  0  0  0  0
    1.0730    0.8897   -0.6945 H   0  0  0  0  0  0  0  0  0  0  0  0
    1.2557    2.4190    0.9889 H   0  0  0  0  0  0  0  0  0  0  0  0
    2.0419   -0.0339    2.0662 H   0  0  0  0  0  0  0  0  0  0  0  0
    2.4988   -0.8326    0.5135 H   0  0  0  0  0  0  0  0  0  0  0  0
    5.1084    2.7138    0.4093 H   0  0  0  0  0  0  0  0  0  0  0  0
    7.4391    2.4705    1.1678 H   0  0  0  0  0  0  0  0  0  0  0  0
    9.1003   -0.1199    1.8062 H   0  0  0  0  0  0  0  0  0  0  0  0
    8.5855   -0.1779    3.5102 H   0  0  0  0  0  0  0  0  0  0  0  0
    8.9960    1.3710    2.7748 H   0  0  0  0  0  0  0  0  0  0  0  0
    6.4385   -1.3134    2.9697 H   0  0  0  0  0  0  0  0  0  0  0  0
    4.1326   -1.0744    2.2228 H   0  0  0  0  0  0  0  0  0  0  0  0
   -0.2419   -2.7394   -1.4083 H   0  0  0  0  0  0  0  0  0  0  0  0
   -1.4875   -4.1036   -3.0527 H   0  0  0  0  0  0  0  0  0  0  0  0
   -3.6475   -3.3171   -3.9733 H   0  0  0  0  0  0  0  0  0  0  0  0
   -4.6114   -1.1485   -3.2563 H   0  0  0  0  0  0  0  0  0  0  0  0
  1  2  1  0
  2  3  1  0
  3  4  1  0
  4  5  1  0
  5  6  1  0
  6  7  2  3
  6  8  1  0
  8  9  1  0
  9 10  1  0
 10 11  1  0
 10 12  1  0
 12 13  1  0
 13 14  1  0
 14 15  2  0
 15 16  1  0
 16 17  2  0
 17 18  1  0
 17 19  1  0
 19 20  2  0
  8 21  1  0
 21 22  2  0
 22 23  1  0
 23 24  2  0
 24 25  1  0
 25 26  2  0
 26  5  1  0
 20 14  1  0
 26 21  1  0
  1 27  1  0
  1 28  1  0
  1 29  1  0
  2 30  1  0
  2 31  1  0
  3 32  1  0
  3 33  1  0
  4 34  1  0
  4 35  1  0
  7 36  1  0
  9 37  1  0
  9 38  1  0
 10 39  1  0
 11 40  1  0
 12 41  1  0
 12 42  1  0
 15 43  1  0
 16 44  1  0
 18 45  1  0
 18 46  1  0
 18 47  1  0
 19 48  1  0
 20 49  1  0
 22 50  1  0
 23 51  1  0
 24 52  1  0
 25 53  1  0
M  END
$$$$
