
     RDKit          3D

 36 38  0  0  0  0  0  0  0  0999 V2000
   -1.0636   -1.2965    1.8565 O   0  0  0  0  0  0  0  0  0  0  0  0
   -0.3353   -0.7119    1.0606 C   0  0  0  0  0  0  0  0  0  0  0  0
   -0.7368   -0.1944   -0.1551 N   0  0  0  0  0  0  0  0  0  0  0  0
   -2.1327    0.0306   -0.2625 O   0  0  0  0  0  0  0  0  0  0  0  0
   -2.7049   -1.0129   -1.0577 C   0  0  0  0  0  0  0  0  0  0  0  0
   -4.2026   -0.8504   -1.0729 C   0  0  0  0  0  0  0  0  0  0  0  0
   -4.8950   -0.6489   -2.2747 C   0  0  0  0  0  0  0  0  0  0  0  0
   -6.2849   -0.5139   -2.2759 C   0  0  0  0  0  0  0  0  0  0  0  0
   -6.9951   -0.5803   -1.0783 C   0  0  0  0  0  0  0  0  0  0  0  0
   -6.3174   -0.7809    0.1226 C   0  0  0  0  0  0  0  0  0  0  0  0
   -4.9286   -0.9163    0.1258 C   0  0  0  0  0  0  0  0  0  0  0  0
    1.0763   -0.4732    1.3160 C   0  0  0  0  0  0  0  0  0  0  0  0
    1.7893   -0.8823    2.4171 C   0  0  0  0  0  0  0  0  0  0  0  0
    3.0732   -0.4542    2.2760 O   0  0  0  0  0  0  0  0  0  0  0  0
    3.0840    0.2112    1.0759 C   0  0  0  0  0  0  0  0  0  0  0  0
    4.3570    0.7915    0.6550 C   0  0  0  0  0  0  0  0  0  0  0  0
    4.4355    1.4826   -0.5642 C   0  0  0  0  0  0  0  0  0  0  0  0
    5.6399    2.0478   -0.9916 C   0  0  0  0  0  0  0  0  0  0  0  0
    6.7828    1.9290   -0.2045 C   0  0  0  0  0  0  0  0  0  0  0  0
    6.7230    1.2464    1.0085 C   0  0  0  0  0  0  0  0  0  0  0  0
    5.5179    0.6812    1.4357 C   0  0  0  0  0  0  0  0  0  0  0  0
    1.9132    0.2309    0.4618 N   0  0  0  0  0  0  0  0  0  0  0  0
   -0.1434    0.5309   -0.5503 H   0  0  0  0  0  0  0  0  0  0  0  0
   -2.2951   -0.9509   -2.0728 H   0  0  0  0  0  0  0  0  0  0  0  0
   -2.4545   -1.9962   -0.6407 H   0  0  0  0  0  0  0  0  0  0  0  0
   -4.3576   -0.5930   -3.2183 H   0  0  0  0  0  0  0  0  0  0  0  0
   -6.8141   -0.3557   -3.2119 H   0  0  0  0  0  0  0  0  0  0  0  0
   -8.0765   -0.4736   -1.0802 H   0  0  0  0  0  0  0  0  0  0  0  0
   -6.8683   -0.8302    1.0581 H   0  0  0  0  0  0  0  0  0  0  0  0
   -4.4059   -1.0684    1.0693 H   0  0  0  0  0  0  0  0  0  0  0  0
    1.5536   -1.4375    3.3135 H   0  0  0  0  0  0  0  0  0  0  0  0
    3.5517    1.5848   -1.1915 H   0  0  0  0  0  0  0  0  0  0  0  0
    5.6839    2.5802   -1.9385 H   0  0  0  0  0  0  0  0  0  0  0  0
    7.7202    2.3685   -0.5360 H   0  0  0  0  0  0  0  0  0  0  0  0
    7.6142    1.1529    1.6243 H   0  0  0  0  0  0  0  0  0  0  0  0
    5.4965    0.1532    2.3869 H   0  0  0  0  0  0  0  0  0  0  0  0
  1  2  2  0
  2  3  1  0
  3  4  1  0
  4  5  1  0
  5  6  1  0
  6  7  2  0
  7  8  1  0
  8  9  2  0
  9 10  1  0
 10 11  2  0
  2 12  1  0
 12 13  2  0
 13 14  1  0
 14 15  1  0
 15 16  1  0
 16 17  2  0
 17 18  1  0
 18 19  2  0
 19 20  1  0
 20 21  2  0
 15 22  2  0
 11  6  1  0
 22 12  1  0
 21 16  1  0
  3 23  1  0
  5 24  1  0
  5 25  1  0
  7 26  1  0
  8 27  1  0
  9 28  1  0
 10 29  1  0
 11 30  1  0
 13 31  1  0
 17 32  1  0
 18 33  1  0
 19 34  1  0
 20 35  1  0
 21 36  1  0
M  END
$$$$
