
     RDKit          3D

 43 45  0  0  0  0  0  0  0  0999 V2000
   -0.5736   -3.7291    4.2247 C   0  0  0  0  0  0  0  0  0  0  0  0
    0.0936   -2.4324    4.1446 N   0  0  0  0  0  0  0  0  0  0  0  0
   -0.8986   -1.3387    4.0896 C   0  0  0  0  0  0  0  0  0  0  0  0
   -0.3388   -0.0369    3.4914 C   0  0  0  0  0  0  0  0  0  0  0  0
    0.1459   -0.2384    2.1265 N   0  0  0  0  0  0  0  0  0  0  0  0
    0.0736    0.8104    1.2231 C   0  0  0  0  0  0  0  0  0  0  0  0
   -0.2900    1.9491    1.4908 O   0  0  0  0  0  0  0  0  0  0  0  0
    0.5084    0.5296   -0.2025 C   0  0  0  0  0  0  0  0  0  0  0  0
    1.7331    1.3017   -0.6474 C   0  0  0  0  0  0  0  0  0  0  0  0
    1.3681    2.3258   -1.6813 C   0  0  0  0  0  0  0  0  0  0  0  0
    0.4066    3.3164   -1.6153 C   0  0  0  0  0  0  0  0  0  0  0  0
    0.3483    4.0975   -2.8051 C   0  0  0  0  0  0  0  0  0  0  0  0
    1.2783    3.6915   -3.7343 C   0  0  0  0  0  0  0  0  0  0  0  0
    2.2180    2.3812   -3.1702 S   0  0  0  0  0  0  0  0  0  0  0  0
   -0.1983   -0.3267   -0.8823 N   0  0  0  0  0  0  0  0  0  0  0  0
    0.2265   -0.6196   -2.1510 C   0  0  0  0  0  0  0  0  0  0  0  0
    1.2879   -1.1884   -2.3825 O   0  0  0  0  0  0  0  0  0  0  0  0
   -0.7251   -0.2214   -3.1687 C   0  0  0  0  0  0  0  0  0  0  0  0
   -0.6786   -0.3584   -4.5451 C   0  0  0  0  0  0  0  0  0  0  0  0
   -1.8613    0.2261   -5.0574 C   0  0  0  0  0  0  0  0  0  0  0  0
   -2.5609    0.6868   -3.9683 C   0  0  0  0  0  0  0  0  0  0  0  0
   -1.8871    0.4206   -2.8212 O   0  0  0  0  0  0  0  0  0  0  0  0
    0.6012   -1.5916    1.7906 C   0  0  0  0  0  0  0  0  0  0  0  0
    1.0632   -2.3773    3.0328 C   0  0  0  0  0  0  0  0  0  0  0  0
   -1.2616   -3.7570    5.0772 H   0  0  0  0  0  0  0  0  0  0  0  0
    0.1584   -4.5279    4.3865 H   0  0  0  0  0  0  0  0  0  0  0  0
   -1.1393   -3.9580    3.3144 H   0  0  0  0  0  0  0  0  0  0  0  0
   -1.7636   -1.6399    3.4825 H   0  0  0  0  0  0  0  0  0  0  0  0
   -1.2649   -1.1425    5.1038 H   0  0  0  0  0  0  0  0  0  0  0  0
    0.5069    0.3272    4.0869 H   0  0  0  0  0  0  0  0  0  0  0  0
   -1.1098    0.7412    3.5024 H   0  0  0  0  0  0  0  0  0  0  0  0
    2.1792    1.8113    0.2150 H   0  0  0  0  0  0  0  0  0  0  0  0
    2.4858    0.5935   -1.0090 H   0  0  0  0  0  0  0  0  0  0  0  0
   -0.2369    3.4734   -0.7558 H   0  0  0  0  0  0  0  0  0  0  0  0
   -0.3397    4.9181   -2.9673 H   0  0  0  0  0  0  0  0  0  0  0  0
    1.4557    4.1054   -4.7175 H   0  0  0  0  0  0  0  0  0  0  0  0
    0.1243   -0.8236   -5.1008 H   0  0  0  0  0  0  0  0  0  0  0  0
   -2.1653    0.3048   -6.0917 H   0  0  0  0  0  0  0  0  0  0  0  0
   -3.5054    1.1985   -3.8457 H   0  0  0  0  0  0  0  0  0  0  0  0
   -0.2375   -2.1089    1.3100 H   0  0  0  0  0  0  0  0  0  0  0  0
    1.4225   -1.5325    1.0691 H   0  0  0  0  0  0  0  0  0  0  0  0
    1.3910   -3.3802    2.7325 H   0  0  0  0  0  0  0  0  0  0  0  0
    1.9598   -1.8805    3.4263 H   0  0  0  0  0  0  0  0  0  0  0  0
  1  2  1  0
  2  3  1  0
  3  4  1  0
  4  5  1  0
  5  6  1  0
  6  7  2  0
  6  8  1  0
  8  9  1  0
  9 10  1  0
 10 11  2  0
 11 12  1  0
 12 13  2  0
 13 14  1  0
  8 15  2  3
 15 16  1  0
 16 17  2  0
 16 18  1  0
 18 19  2  0
 19 20  1  0
 20 21  2  0
 21 22  1  0
  5 23  1  0
 23 24  1  0
 24  2  1  0
 14 10  1  0
 22 18  1  0
  1 25  1  0
  1 26  1  0
  1 27  1  0
  3 28  1  0
  3 29  1  0
  4 30  1  0
  4 31  1  0
  9 32  1  0
  9 33  1  0
 11 34  1  0
 12 35  1  0
 13 36  1  0
 19 37  1  0
 20 38  1  0
 21 39  1  0
 23 40  1  0
 23 41  1  0
 24 42  1  0
 24 43  1  0
M  END
$$$$
