
     RDKit          3D

 47 49  0  0  0  0  0  0  0  0999 V2000
   -7.6579    2.4569   -0.6753 C   0  0  0  0  0  0  0  0  0  0  0  0
   -6.8529    1.4438   -1.2633 O   0  0  0  0  0  0  0  0  0  0  0  0
   -5.5460    1.3722   -0.8593 C   0  0  0  0  0  0  0  0  0  0  0  0
   -5.0005    2.0658    0.2230 C   0  0  0  0  0  0  0  0  0  0  0  0
   -3.6485    1.9081    0.5558 C   0  0  0  0  0  0  0  0  0  0  0  0
   -2.8249    1.0544   -0.1866 C   0  0  0  0  0  0  0  0  0  0  0  0
   -1.4099    0.9254    0.1744 C   0  0  0  0  0  0  0  0  0  0  0  0
   -0.8132   -0.1846    0.6297 C   0  0  0  0  0  0  0  0  0  0  0  0
   -1.5146   -1.7243    0.9201 S   0  0  0  0  0  0  0  0  0  0  0  0
    0.0036   -2.4174    1.4799 C   0  0  0  0  0  0  0  0  0  0  0  0
    0.1291   -4.0170    1.9349 S   0  0  0  0  0  0  0  0  0  0  0  0
    0.9916   -1.4535    1.4611 N   0  0  0  0  0  0  0  0  0  0  0  0
    2.3895   -1.6780    1.8456 C   0  0  0  0  0  0  0  0  0  0  0  0
    3.2493   -2.0486    0.6432 C   0  0  0  0  0  0  0  0  0  0  0  0
    4.6968   -2.1891    1.0572 C   0  0  0  0  0  0  0  0  0  0  0  0
    5.0218   -2.5824    2.1739 O   0  0  0  0  0  0  0  0  0  0  0  0
    5.5891   -1.9256    0.0506 N   0  0  0  0  0  0  0  0  0  0  0  0
    6.1907   -0.7853    0.0701 C   0  0  0  0  0  0  0  0  0  0  0  0
    7.1115   -0.4166   -0.8676 N   0  0  0  0  0  0  0  0  0  0  0  0
    7.3934    1.0008   -0.9426 C   0  0  0  0  0  0  0  0  0  0  0  0
    7.2660    1.5321    0.4817 C   0  0  0  0  0  0  0  0  0  0  0  0
    5.9289    0.5311    1.2108 S   0  0  0  0  0  0  0  0  0  0  0  0
    0.6316   -0.2069    0.9773 C   0  0  0  0  0  0  0  0  0  0  0  0
    1.3798    0.7502    0.8266 O   0  0  0  0  0  0  0  0  0  0  0  0
   -3.3620    0.3664   -1.2767 C   0  0  0  0  0  0  0  0  0  0  0  0
   -4.7164    0.5098   -1.5910 C   0  0  0  0  0  0  0  0  0  0  0  0
   -5.2199   -0.1546   -2.6826 O   0  0  0  0  0  0  0  0  0  0  0  0
   -5.4527   -1.5280   -2.3583 C   0  0  0  0  0  0  0  0  0  0  0  0
   -7.2238    3.4516   -0.8300 H   0  0  0  0  0  0  0  0  0  0  0  0
   -7.8248    2.2581    0.3889 H   0  0  0  0  0  0  0  0  0  0  0  0
   -8.6326    2.4394   -1.1727 H   0  0  0  0  0  0  0  0  0  0  0  0
   -5.5990    2.7332    0.8341 H   0  0  0  0  0  0  0  0  0  0  0  0
   -3.2473    2.4582    1.4051 H   0  0  0  0  0  0  0  0  0  0  0  0
   -0.8307    1.8419    0.0661 H   0  0  0  0  0  0  0  0  0  0  0  0
    2.7729   -0.7581    2.3059 H   0  0  0  0  0  0  0  0  0  0  0  0
    2.4414   -2.4554    2.6153 H   0  0  0  0  0  0  0  0  0  0  0  0
    2.9251   -2.9962    0.1993 H   0  0  0  0  0  0  0  0  0  0  0  0
    3.1670   -1.2764   -0.1308 H   0  0  0  0  0  0  0  0  0  0  0  0
    7.1168   -0.9658   -1.7178 H   0  0  0  0  0  0  0  0  0  0  0  0
    6.6686    1.4893   -1.6059 H   0  0  0  0  0  0  0  0  0  0  0  0
    8.3952    1.1848   -1.3430 H   0  0  0  0  0  0  0  0  0  0  0  0
    7.0387    2.6014    0.5079 H   0  0  0  0  0  0  0  0  0  0  0  0
    8.1852    1.3467    1.0485 H   0  0  0  0  0  0  0  0  0  0  0  0
   -2.7374   -0.2764   -1.8909 H   0  0  0  0  0  0  0  0  0  0  0  0
   -6.0950   -1.9509   -3.1365 H   0  0  0  0  0  0  0  0  0  0  0  0
   -5.9644   -1.6466   -1.3951 H   0  0  0  0  0  0  0  0  0  0  0  0
   -4.5094   -2.0838   -2.3581 H   0  0  0  0  0  0  0  0  0  0  0  0
  1  2  1  0
  2  3  1  0
  3  4  2  0
  4  5  1  0
  5  6  2  0
  6  7  1  0
  7  8  2  3
  8  9  1  0
  9 10  1  0
 10 11  2  0
 10 12  1  0
 12 13  1  0
 13 14  1  0
 14 15  1  0
 15 16  2  0
 15 17  1  0
 17 18  2  3
 18 19  1  0
 19 20  1  0
 20 21  1  0
 21 22  1  0
 12 23  1  0
 23 24  2  0
  6 25  1  0
 25 26  2  0
 26 27  1  0
 27 28  1  0
 26  3  1  0
 23  8  1  0
 22 18  1  0
  1 29  1  0
  1 30  1  0
  1 31  1  0
  4 32  1  0
  5 33  1  0
  7 34  1  0
 13 35  1  0
 13 36  1  0
 14 37  1  0
 14 38  1  0
 19 39  1  0
 20 40  1  0
 20 41  1  0
 21 42  1  0
 21 43  1  0
 25 44  1  0
 28 45  1  0
 28 46  1  0
 28 47  1  0
M  END
$$$$
