
     RDKit          3D

 38 40  0  0  0  0  0  0  0  0999 V2000
   -5.5396   -2.4107    0.7991 C   0  0  0  0  0  0  0  0  0  0  0  0
   -4.4287   -1.6527    0.1360 C   0  0  0  0  0  0  0  0  0  0  0  0
   -3.8146   -2.1571   -1.0157 C   0  0  0  0  0  0  0  0  0  0  0  0
   -2.7990   -1.4380   -1.6512 C   0  0  0  0  0  0  0  0  0  0  0  0
   -2.3857   -0.1942   -1.1539 C   0  0  0  0  0  0  0  0  0  0  0  0
   -1.2916    0.5876   -1.8406 C   0  0  0  0  0  0  0  0  0  0  0  0
   -0.0232    0.2554   -1.1256 C   0  0  0  0  0  0  0  0  0  0  0  0
    0.8272   -0.8569   -1.3848 C   0  0  0  0  0  0  0  0  0  0  0  0
    1.9082   -0.7810   -0.5385 C   0  0  0  0  0  0  0  0  0  0  0  0
    2.9637   -1.5860   -0.4607 O   0  0  0  0  0  0  0  0  0  0  0  0
    1.7074    0.3054    0.2905 N   0  0  0  0  0  0  0  0  0  0  0  0
    2.4652    0.5675    1.5081 C   0  0  0  0  0  0  0  0  0  0  0  0
    3.7577    1.2203    1.1900 C   0  0  0  0  0  0  0  0  0  0  0  0
    4.1927    2.5295    1.1807 C   0  0  0  0  0  0  0  0  0  0  0  0
    5.5504    2.4949    0.7792 C   0  0  0  0  0  0  0  0  0  0  0  0
    5.8584    1.1710    0.5737 C   0  0  0  0  0  0  0  0  0  0  0  0
    4.7779    0.3879    0.8238 O   0  0  0  0  0  0  0  0  0  0  0  0
    0.5847    0.9958   -0.1253 C   0  0  0  0  0  0  0  0  0  0  0  0
    0.1862    2.1488    0.4058 O   0  0  0  0  0  0  0  0  0  0  0  0
   -3.0113    0.3122   -0.0054 C   0  0  0  0  0  0  0  0  0  0  0  0
   -4.0267   -0.4069    0.6295 C   0  0  0  0  0  0  0  0  0  0  0  0
   -5.4052   -3.4902    0.6740 H   0  0  0  0  0  0  0  0  0  0  0  0
   -5.5621   -2.2094    1.8753 H   0  0  0  0  0  0  0  0  0  0  0  0
   -6.5014   -2.1211    0.3648 H   0  0  0  0  0  0  0  0  0  0  0  0
   -4.1196   -3.1173   -1.4248 H   0  0  0  0  0  0  0  0  0  0  0  0
   -2.3287   -1.8562   -2.5381 H   0  0  0  0  0  0  0  0  0  0  0  0
   -1.5075    1.6617   -1.8037 H   0  0  0  0  0  0  0  0  0  0  0  0
   -1.2247    0.3142   -2.9002 H   0  0  0  0  0  0  0  0  0  0  0  0
    0.6771   -1.6276   -2.1290 H   0  0  0  0  0  0  0  0  0  0  0  0
    3.7018   -1.1146   -0.0294 H   0  0  0  0  0  0  0  0  0  0  0  0
    1.8589    1.1886    2.1749 H   0  0  0  0  0  0  0  0  0  0  0  0
    2.6198   -0.3926    2.0138 H   0  0  0  0  0  0  0  0  0  0  0  0
    3.6085    3.4048    1.4288 H   0  0  0  0  0  0  0  0  0  0  0  0
    6.2238    3.3315    0.6533 H   0  0  0  0  0  0  0  0  0  0  0  0
    6.7545    0.6499    0.2645 H   0  0  0  0  0  0  0  0  0  0  0  0
    0.9436    2.6012    0.8091 H   0  0  0  0  0  0  0  0  0  0  0  0
   -2.7007    1.2723    0.4024 H   0  0  0  0  0  0  0  0  0  0  0  0
   -4.4974    0.0118    1.5156 H   0  0  0  0  0  0  0  0  0  0  0  0
  1  2  1  0
  2  3  2  0
  3  4  1  0
  4  5  2  0
  5  6  1  0
  6  7  1  0
  7  8  1  0
  8  9  2  0
  9 10  1  0
  9 11  1  0
 11 12  1  0
 12 13  1  0
 13 14  2  0
 14 15  1  0
 15 16  2  0
 16 17  1  0
 11 18  1  0
 18 19  1  0
  5 20  1  0
 20 21  2  0
 21  2  1  0
 18  7  2  0
 17 13  1  0
  1 22  1  0
  1 23  1  0
  1 24  1  0
  3 25  1  0
  4 26  1  0
  6 27  1  0
  6 28  1  0
  8 29  1  0
 10 30  1  0
 12 31  1  0
 12 32  1  0
 14 33  1  0
 15 34  1  0
 16 35  1  0
 19 36  1  0
 20 37  1  0
 21 38  1  0
M  END
$$$$
