
     RDKit          3D

 42 44  0  0  0  0  0  0  0  0999 V2000
    3.5445    0.1393    2.5902 C   0  0  0  0  0  0  0  0  0  0  0  0
    3.3552    0.0513    1.0842 C   0  0  0  0  0  0  0  0  0  0  0  0
    1.8727    0.0291    0.7066 C   0  0  0  0  0  0  0  0  0  0  0  0
    1.6920   -0.0595   -0.8164 C   0  0  0  0  0  0  0  0  0  0  0  0
    0.2185   -0.0878   -1.3037 C   0  0  0  0  0  0  0  0  0  0  0  0
   -0.5235   -1.3001   -0.7788 C   0  0  0  0  0  0  0  0  0  0  0  0
   -1.5298   -1.1950    0.1092 C   0  0  0  0  0  0  0  0  0  0  0  0
   -2.3058   -2.3593    0.6544 C   0  0  0  0  0  0  0  0  0  0  0  0
   -2.2106   -3.5844   -0.2466 C   0  0  0  0  0  0  0  0  0  0  0  0
   -0.7690   -3.8647   -0.6344 C   0  0  0  0  0  0  0  0  0  0  0  0
   -0.1342   -2.6509   -1.2774 C   0  0  0  0  0  0  0  0  0  0  0  0
    0.7168   -2.7730   -2.1557 O   0  0  0  0  0  0  0  0  0  0  0  0
   -1.9681    0.0350    0.5824 O   0  0  0  0  0  0  0  0  0  0  0  0
   -1.5164    1.1955   -0.0317 C   0  0  0  0  0  0  0  0  0  0  0  0
   -0.5132    1.1847   -0.9289 C   0  0  0  0  0  0  0  0  0  0  0  0
   -0.1493    2.4529   -1.6251 C   0  0  0  0  0  0  0  0  0  0  0  0
    0.7054    2.4563   -2.5089 O   0  0  0  0  0  0  0  0  0  0  0  0
   -0.9100    3.7156   -1.2796 C   0  0  0  0  0  0  0  0  0  0  0  0
   -1.4127    3.6900    0.1538 C   0  0  0  0  0  0  0  0  0  0  0  0
   -2.2337    2.4345    0.4195 C   0  0  0  0  0  0  0  0  0  0  0  0
    3.0903   -0.7201    3.0936 H   0  0  0  0  0  0  0  0  0  0  0  0
    4.6104    0.1539    2.8381 H   0  0  0  0  0  0  0  0  0  0  0  0
    3.0902    1.0515    2.9900 H   0  0  0  0  0  0  0  0  0  0  0  0
    3.8480   -0.8546    0.7124 H   0  0  0  0  0  0  0  0  0  0  0  0
    3.8479    0.9077    0.6094 H   0  0  0  0  0  0  0  0  0  0  0  0
    1.3928   -0.8270    1.1941 H   0  0  0  0  0  0  0  0  0  0  0  0
    1.3927    0.9360    1.0916 H   0  0  0  0  0  0  0  0  0  0  0  0
    2.2133    0.7874   -1.2796 H   0  0  0  0  0  0  0  0  0  0  0  0
    2.2143   -0.9535   -1.1787 H   0  0  0  0  0  0  0  0  0  0  0  0
    0.2202   -0.1555   -2.4005 H   0  0  0  0  0  0  0  0  0  0  0  0
   -3.3621   -2.0867    0.7648 H   0  0  0  0  0  0  0  0  0  0  0  0
   -1.9275   -2.5975    1.6558 H   0  0  0  0  0  0  0  0  0  0  0  0
   -2.8059   -3.4143   -1.1534 H   0  0  0  0  0  0  0  0  0  0  0  0
   -2.6412   -4.4552    0.2601 H   0  0  0  0  0  0  0  0  0  0  0  0
   -0.1705   -4.1440    0.2396 H   0  0  0  0  0  0  0  0  0  0  0  0
   -0.7420   -4.6937   -1.3500 H   0  0  0  0  0  0  0  0  0  0  0  0
   -0.2400    4.5722   -1.4112 H   0  0  0  0  0  0  0  0  0  0  0  0
   -1.7430    3.8155   -1.9841 H   0  0  0  0  0  0  0  0  0  0  0  0
   -0.5572    3.7175    0.8417 H   0  0  0  0  0  0  0  0  0  0  0  0
   -2.0159    4.5817    0.3575 H   0  0  0  0  0  0  0  0  0  0  0  0
   -3.1985    2.4957   -0.0981 H   0  0  0  0  0  0  0  0  0  0  0  0
   -2.4450    2.3737    1.4937 H   0  0  0  0  0  0  0  0  0  0  0  0
  1  2  1  0
  2  3  1  0
  3  4  1  0
  4  5  1  0
  5  6  1  0
  6  7  2  0
  7  8  1  0
  8  9  1  0
  9 10  1  0
 10 11  1  0
 11 12  2  0
  7 13  1  0
 13 14  1  0
 14 15  2  0
 15 16  1  0
 16 17  2  0
 16 18  1  0
 18 19  1  0
 19 20  1  0
 15  5  1  0
 11  6  1  0
 20 14  1  0
  1 21  1  0
  1 22  1  0
  1 23  1  0
  2 24  1  0
  2 25  1  0
  3 26  1  0
  3 27  1  0
  4 28  1  0
  4 29  1  0
  5 30  1  0
  8 31  1  0
  8 32  1  0
  9 33  1  0
  9 34  1  0
 10 35  1  0
 10 36  1  0
 18 37  1  0
 18 38  1  0
 19 39  1  0
 19 40  1  0
 20 41  1  0
 20 42  1  0
M  END
$$$$
