
     RDKit          3D

 58 60  0  0  0  0  0  0  0  0999 V2000
   -3.4620    2.6906   -0.9942 C   0  0  0  0  0  0  0  0  0  0  0  0
   -3.9473    1.8109   -2.0045 O   0  0  0  0  0  0  0  0  0  0  0  0
   -3.8650    0.4761   -1.6961 C   0  0  0  0  0  0  0  0  0  0  0  0
   -4.1822   -0.0215   -0.4236 C   0  0  0  0  0  0  0  0  0  0  0  0
   -4.0996   -1.3918   -0.1655 C   0  0  0  0  0  0  0  0  0  0  0  0
   -4.3602   -1.9902    1.0427 O   0  0  0  0  0  0  0  0  0  0  0  0
   -4.6145   -1.1304    2.1485 C   0  0  0  0  0  0  0  0  0  0  0  0
   -3.7151   -2.2650   -1.2000 C   0  0  0  0  0  0  0  0  0  0  0  0
   -3.5563   -3.6607   -0.9152 N   0  0  0  0  0  0  0  0  0  0  0  0
   -1.9777   -4.2583   -0.7625 S   0  0  0  0  0  6  0  0  0  0  0  0
   -1.2334   -3.9753   -1.9704 O   0  0  0  0  0  0  0  0  0  0  0  0
   -2.0949   -5.6054   -0.2461 O   0  0  0  0  0  0  0  0  0  0  0  0
   -1.2841   -3.2546    0.5370 C   0  0  0  0  0  0  0  0  0  0  0  0
   -1.3486   -3.6920    1.8634 C   0  0  0  0  0  0  0  0  0  0  0  0
   -0.8336   -2.8839    2.8816 C   0  0  0  0  0  0  0  0  0  0  0  0
   -0.2517   -1.6478    2.5774 C   0  0  0  0  0  0  0  0  0  0  0  0
    0.2757   -0.6586    3.8900 Cl  0  0  0  0  0  0  0  0  0  0  0  0
   -0.1599   -1.2390    1.2430 C   0  0  0  0  0  0  0  0  0  0  0  0
    0.4001    0.0622    0.8609 C   0  0  0  0  0  0  0  0  0  0  0  0
   -0.2530    0.9317    0.3090 O   0  0  0  0  0  0  0  0  0  0  0  0
    1.7186    0.0693    1.1422 O   0  0  0  0  0  0  0  0  0  0  0  0
    2.4343    1.2504    0.7427 C   0  0  0  0  0  0  0  0  0  0  0  0
    2.3585    2.2810    1.8636 C   0  0  0  0  0  0  0  0  0  0  0  0
    3.9055    0.8784    0.4878 C   0  0  0  0  0  0  0  0  0  0  0  0
    4.4328   -0.0879    1.0440 O   0  0  0  0  0  0  0  0  0  0  0  0
    4.6207    1.6823   -0.3788 N   0  0  0  0  0  0  0  0  0  0  0  0
    4.1178    2.7793   -1.1919 C   0  0  0  0  0  0  0  0  0  0  0  0
    5.3644    3.3890   -1.8161 C   0  0  0  0  0  0  0  0  0  0  0  0
    6.2916    2.1881   -1.9562 C   0  0  0  0  0  0  0  0  0  0  0  0
    6.0114    1.3945   -0.6889 C   0  0  0  0  0  0  0  0  0  0  0  0
   -0.6677   -2.0425    0.2150 C   0  0  0  0  0  0  0  0  0  0  0  0
   -3.4172   -1.7793   -2.4715 C   0  0  0  0  0  0  0  0  0  0  0  0
   -3.5033   -0.4110   -2.7206 C   0  0  0  0  0  0  0  0  0  0  0  0
   -3.1215    0.1557   -4.3074 Cl  0  0  0  0  0  0  0  0  0  0  0  0
   -4.2300    2.8622   -0.2336 H   0  0  0  0  0  0  0  0  0  0  0  0
   -3.2407    3.6511   -1.4681 H   0  0  0  0  0  0  0  0  0  0  0  0
   -2.5387    2.3223   -0.5374 H   0  0  0  0  0  0  0  0  0  0  0  0
   -4.5049    0.6694    0.3460 H   0  0  0  0  0  0  0  0  0  0  0  0
   -4.7287   -1.7572    3.0374 H   0  0  0  0  0  0  0  0  0  0  0  0
   -5.5477   -0.5766    2.0079 H   0  0  0  0  0  0  0  0  0  0  0  0
   -3.7724   -0.4532    2.3259 H   0  0  0  0  0  0  0  0  0  0  0  0
   -4.1364   -3.9898   -0.1415 H   0  0  0  0  0  0  0  0  0  0  0  0
   -1.8046   -4.6483    2.1140 H   0  0  0  0  0  0  0  0  0  0  0  0
   -0.9000   -3.2195    3.9145 H   0  0  0  0  0  0  0  0  0  0  0  0
    2.0059    1.6450   -0.1847 H   0  0  0  0  0  0  0  0  0  0  0  0
    2.7523    1.8651    2.7984 H   0  0  0  0  0  0  0  0  0  0  0  0
    1.3204    2.5693    2.0590 H   0  0  0  0  0  0  0  0  0  0  0  0
    2.9303    3.1836    1.6301 H   0  0  0  0  0  0  0  0  0  0  0  0
    3.4585    2.3561   -1.9569 H   0  0  0  0  0  0  0  0  0  0  0  0
    3.5554    3.4975   -0.5910 H   0  0  0  0  0  0  0  0  0  0  0  0
    5.1589    3.8857   -2.7672 H   0  0  0  0  0  0  0  0  0  0  0  0
    5.8086    4.1224   -1.1321 H   0  0  0  0  0  0  0  0  0  0  0  0
    6.0057    1.6007   -2.8363 H   0  0  0  0  0  0  0  0  0  0  0  0
    7.3436    2.4671   -2.0548 H   0  0  0  0  0  0  0  0  0  0  0  0
    6.1795    0.3212   -0.8161 H   0  0  0  0  0  0  0  0  0  0  0  0
    6.6189    1.7558    0.1471 H   0  0  0  0  0  0  0  0  0  0  0  0
   -0.5994   -1.7116   -0.8200 H   0  0  0  0  0  0  0  0  0  0  0  0
   -3.1171   -2.4629   -3.2621 H   0  0  0  0  0  0  0  0  0  0  0  0
  1  2  1  0
  2  3  1  0
  3  4  2  0
  4  5  1  0
  5  6  1  0
  6  7  1  0
  5  8  2  0
  8  9  1  0
  9 10  1  0
 10 11  2  0
 10 12  2  0
 10 13  1  0
 13 14  2  0
 14 15  1  0
 15 16  2  0
 16 17  1  0
 16 18  1  0
 18 19  1  0
 19 20  2  0
 19 21  1  0
 21 22  1  0
 22 23  1  0
 22 24  1  0
 24 25  2  0
 24 26  1  0
 26 27  1  0
 27 28  1  0
 28 29  1  0
 29 30  1  0
 18 31  2  0
  8 32  1  0
 32 33  2  0
 33 34  1  0
 33  3  1  0
 31 13  1  0
 30 26  1  0
  1 35  1  0
  1 36  1  0
  1 37  1  0
  4 38  1  0
  7 39  1  0
  7 40  1  0
  7 41  1  0
  9 42  1  0
 14 43  1  0
 15 44  1  0
 22 45  1  0
 23 46  1  0
 23 47  1  0
 23 48  1  0
 27 49  1  0
 27 50  1  0
 28 51  1  0
 28 52  1  0
 29 53  1  0
 29 54  1  0
 30 55  1  0
 30 56  1  0
 31 57  1  0
 32 58  1  0
M  END
$$$$
