
     RDKit          3D

 55 57  0  0  0  0  0  0  0  0999 V2000
   -0.5622   -2.8350   -0.3982 O   0  0  0  0  0  0  0  0  0  0  0  0
    0.0607   -1.7798   -0.3636 C   0  0  0  0  0  0  0  0  0  0  0  0
   -0.5231   -0.5657   -0.0629 N   0  0  0  0  0  0  0  0  0  0  0  0
   -1.9557   -0.4390    0.1288 C   0  0  0  0  0  0  0  0  0  0  0  0
   -2.6870   -0.3015   -1.2048 C   0  0  0  0  0  0  0  0  0  0  0  0
   -4.2105   -0.2309   -1.0612 C   0  0  0  0  0  0  0  0  0  0  0  0
   -4.7250    0.9593   -0.2480 C   0  0  0  0  0  0  0  0  0  0  0  0
   -4.3373    2.3239   -0.8115 C   0  0  0  0  0  0  0  0  0  0  0  0
   -5.2960    3.2865   -0.1220 C   0  0  0  0  0  0  0  0  0  0  0  0
   -6.5565    2.4776    0.1822 C   0  0  0  0  0  0  0  0  0  0  0  0
   -6.2517    1.0407   -0.2323 C   0  0  0  0  0  0  0  0  0  0  0  0
    1.5642   -1.6943   -0.5848 C   0  0  0  0  0  0  0  0  0  0  0  0
    2.1126   -2.9065   -1.3552 C   0  0  0  0  0  0  0  0  0  0  0  0
    2.8198   -3.8976   -0.4394 C   0  0  0  0  0  0  0  0  0  0  0  0
    3.9498   -3.2070    0.2992 C   0  0  0  0  0  0  0  0  0  0  0  0
    5.0336   -3.7540    0.4798 O   0  0  0  0  0  0  0  0  0  0  0  0
    3.6343   -1.9324    0.7597 N   0  0  0  0  0  0  0  0  0  0  0  0
    4.5873   -1.2328    1.6155 C   0  0  0  0  0  0  0  0  0  0  0  0
    4.7627    0.2143    1.2132 C   0  0  0  0  0  0  0  0  0  0  0  0
    4.4678    1.2500    2.1118 C   0  0  0  0  0  0  0  0  0  0  0  0
    4.6291    2.5843    1.7302 C   0  0  0  0  0  0  0  0  0  0  0  0
    5.0904    2.8889    0.4509 C   0  0  0  0  0  0  0  0  0  0  0  0
    5.2822    4.5330   -0.0185 Cl  0  0  0  0  0  0  0  0  0  0  0  0
    5.3965    1.8714   -0.4498 C   0  0  0  0  0  0  0  0  0  0  0  0
    5.2357    0.5378   -0.0688 C   0  0  0  0  0  0  0  0  0  0  0  0
    2.2334   -1.5276    0.7831 C   0  0  0  0  0  0  0  0  0  0  0  0
    0.0042    0.2847   -0.2170 H   0  0  0  0  0  0  0  0  0  0  0  0
   -2.1055    0.4472    0.7522 H   0  0  0  0  0  0  0  0  0  0  0  0
   -2.3209   -1.3132    0.6783 H   0  0  0  0  0  0  0  0  0  0  0  0
   -2.4436   -1.1603   -1.8434 H   0  0  0  0  0  0  0  0  0  0  0  0
   -2.3177    0.5822   -1.7395 H   0  0  0  0  0  0  0  0  0  0  0  0
   -4.5709   -1.1600   -0.6017 H   0  0  0  0  0  0  0  0  0  0  0  0
   -4.6436   -0.1993   -2.0693 H   0  0  0  0  0  0  0  0  0  0  0  0
   -4.3724    0.8813    0.7887 H   0  0  0  0  0  0  0  0  0  0  0  0
   -4.4923    2.3565   -1.8970 H   0  0  0  0  0  0  0  0  0  0  0  0
   -3.2934    2.5823   -0.6098 H   0  0  0  0  0  0  0  0  0  0  0  0
   -4.8561    3.6500    0.8143 H   0  0  0  0  0  0  0  0  0  0  0  0
   -5.5091    4.1606   -0.7458 H   0  0  0  0  0  0  0  0  0  0  0  0
   -7.4243    2.8655   -0.3621 H   0  0  0  0  0  0  0  0  0  0  0  0
   -6.7894    2.5316    1.2519 H   0  0  0  0  0  0  0  0  0  0  0  0
   -6.6629    0.8537   -1.2318 H   0  0  0  0  0  0  0  0  0  0  0  0
   -6.6991    0.3139    0.4529 H   0  0  0  0  0  0  0  0  0  0  0  0
    1.7583   -0.8055   -1.2004 H   0  0  0  0  0  0  0  0  0  0  0  0
    1.3320   -3.4156   -1.9313 H   0  0  0  0  0  0  0  0  0  0  0  0
    2.8428   -2.5401   -2.0899 H   0  0  0  0  0  0  0  0  0  0  0  0
    3.2433   -4.7098   -1.0401 H   0  0  0  0  0  0  0  0  0  0  0  0
    2.1313   -4.3370    0.2902 H   0  0  0  0  0  0  0  0  0  0  0  0
    5.5704   -1.7171    1.5881 H   0  0  0  0  0  0  0  0  0  0  0  0
    4.2222   -1.3170    2.6463 H   0  0  0  0  0  0  0  0  0  0  0  0
    4.1123    1.0255    3.1152 H   0  0  0  0  0  0  0  0  0  0  0  0
    4.3984    3.3784    2.4351 H   0  0  0  0  0  0  0  0  0  0  0  0
    5.7629    2.1073   -1.4453 H   0  0  0  0  0  0  0  0  0  0  0  0
    5.4823   -0.2550   -0.7738 H   0  0  0  0  0  0  0  0  0  0  0  0
    1.7343   -2.1330    1.5510 H   0  0  0  0  0  0  0  0  0  0  0  0
    2.1512   -0.4826    1.1009 H   0  0  0  0  0  0  0  0  0  0  0  0
  1  2  2  0
  2  3  1  0
  3  4  1  0
  4  5  1  0
  5  6  1  0
  6  7  1  0
  7  8  1  0
  8  9  1  0
  9 10  1  0
 10 11  1  0
  2 12  1  0
 12 13  1  0
 13 14  1  0
 14 15  1  0
 15 16  2  0
 15 17  1  0
 17 18  1  0
 18 19  1  0
 19 20  2  0
 20 21  1  0
 21 22  2  0
 22 23  1  0
 22 24  1  0
 24 25  2  0
 17 26  1  0
 11  7  1  0
 26 12  1  0
 25 19  1  0
  3 27  1  0
  4 28  1  0
  4 29  1  0
  5 30  1  0
  5 31  1  0
  6 32  1  0
  6 33  1  0
  7 34  1  0
  8 35  1  0
  8 36  1  0
  9 37  1  0
  9 38  1  0
 10 39  1  0
 10 40  1  0
 11 41  1  0
 11 42  1  0
 12 43  1  0
 13 44  1  0
 13 45  1  0
 14 46  1  0
 14 47  1  0
 18 48  1  0
 18 49  1  0
 20 50  1  0
 21 51  1  0
 24 52  1  0
 25 53  1  0
 26 54  1  0
 26 55  1  0
M  END
$$$$
