
     RDKit          3D

 80 84  0  0  0  0  0  0  0  0999 V2000
    1.2766    1.9003   -4.1721 C   0  0  0  0  0  0  0  0  0  0  0  0
    0.5279    1.6648   -2.9867 O   0  0  0  0  0  0  0  0  0  0  0  0
    1.1200    0.9600   -1.9707 C   0  0  0  0  0  0  0  0  0  0  0  0
    2.4124    0.4267   -2.0411 C   0  0  0  0  0  0  0  0  0  0  0  0
    2.9664   -0.2955   -0.9720 C   0  0  0  0  0  0  0  0  0  0  0  0
    4.2362   -0.8105   -1.0148 O   0  0  0  0  0  0  0  0  0  0  0  0
    4.8451   -0.9986   -2.2844 C   0  0  0  0  0  0  0  0  0  0  0  0
    2.2277   -0.4831    0.2125 C   0  0  0  0  0  0  0  0  0  0  0  0
    2.7290   -1.2113    1.4060 C   0  0  0  0  0  0  0  0  0  0  0  0
    4.0575   -1.8347    1.5836 C   0  0  0  0  0  0  0  0  0  0  0  0
    5.1248   -1.0878    2.0998 C   0  0  0  0  0  0  0  0  0  0  0  0
    6.3737   -1.6831    2.2869 C   0  0  0  0  0  0  0  0  0  0  0  0
    6.5623   -3.0266    1.9637 C   0  0  0  0  0  0  0  0  0  0  0  0
    5.5041   -3.7775    1.4523 C   0  0  0  0  0  0  0  0  0  0  0  0
    4.2540   -3.1851    1.2636 C   0  0  0  0  0  0  0  0  0  0  0  0
    1.9251   -1.3390    2.4741 C   0  0  0  0  0  0  0  0  0  0  0  0
    0.5649   -0.8052    2.5292 C   0  0  0  0  0  0  0  0  0  0  0  0
   -0.1423   -0.9726    3.5155 O   0  0  0  0  0  0  0  0  0  0  0  0
    0.1319   -0.1268    1.4109 O   0  0  0  0  0  0  0  0  0  0  0  0
    0.9310    0.0537    0.2572 C   0  0  0  0  0  0  0  0  0  0  0  0
    0.3502    0.7791   -0.8073 C   0  0  0  0  0  0  0  0  0  0  0  0
   -1.0650    1.3707   -0.7085 C   0  0  0  0  0  0  0  0  0  0  0  0
   -2.1662    0.2808   -0.6180 C   0  0  0  0  0  0  0  0  0  0  0  0
   -2.1897   -0.6300   -1.8581 C   0  0  0  0  0  0  0  0  0  0  0  0
   -3.3282   -1.5666   -1.8638 N   0  0  0  0  0  0  0  0  0  0  0  0
   -3.4285   -2.2589   -3.1484 C   0  0  0  0  0  0  0  0  0  0  0  0
   -4.7432   -3.0378   -3.2570 C   0  0  0  0  0  0  0  0  0  0  0  0
   -5.2716   -3.5396   -1.9125 C   0  0  0  0  0  0  0  0  0  0  0  0
   -4.1518   -3.7795   -0.8985 C   0  0  0  0  0  0  0  0  0  0  0  0
   -3.3184   -5.0120   -1.2640 C   0  0  0  0  0  0  0  0  0  0  0  0
   -3.2792   -2.5134   -0.7331 C   0  0  0  0  0  0  0  0  0  0  0  0
   -1.1483    2.4704    0.3530 C   0  0  0  0  0  0  0  0  0  0  0  0
   -1.8108    2.3179    1.5716 C   0  0  0  0  0  0  0  0  0  0  0  0
   -1.8426    3.3599    2.5133 C   0  0  0  0  0  0  0  0  0  0  0  0
   -1.2111    4.5961    2.2966 C   0  0  0  0  0  0  0  0  0  0  0  0
   -1.2585    5.6361    3.2345 N   0  0  0  0  0  0  0  0  0  0  0  0
   -0.3011    6.7334    3.1144 C   0  0  0  0  0  0  0  0  0  0  0  0
   -1.7103    5.3391    4.5925 C   0  0  0  0  0  0  0  0  0  0  0  0
   -0.5652    4.7355    1.0577 C   0  0  0  0  0  0  0  0  0  0  0  0
   -0.5264    3.7008    0.1102 C   0  0  0  0  0  0  0  0  0  0  0  0
    1.5253    0.9593   -4.6739 H   0  0  0  0  0  0  0  0  0  0  0  0
    2.1754    2.4897   -3.9617 H   0  0  0  0  0  0  0  0  0  0  0  0
    0.6487    2.4833   -4.8526 H   0  0  0  0  0  0  0  0  0  0  0  0
    3.0063    0.5865   -2.9317 H   0  0  0  0  0  0  0  0  0  0  0  0
    5.7418   -1.6081   -2.1367 H   0  0  0  0  0  0  0  0  0  0  0  0
    4.1851   -1.5385   -2.9717 H   0  0  0  0  0  0  0  0  0  0  0  0
    5.1608   -0.0407   -2.7094 H   0  0  0  0  0  0  0  0  0  0  0  0
    4.9895   -0.0385    2.3506 H   0  0  0  0  0  0  0  0  0  0  0  0
    7.1988   -1.0977    2.6840 H   0  0  0  0  0  0  0  0  0  0  0  0
    7.5354   -3.4887    2.1103 H   0  0  0  0  0  0  0  0  0  0  0  0
    5.6520   -4.8242    1.2000 H   0  0  0  0  0  0  0  0  0  0  0  0
    3.4368   -3.7784    0.8607 H   0  0  0  0  0  0  0  0  0  0  0  0
    2.2353   -1.8569    3.3763 H   0  0  0  0  0  0  0  0  0  0  0  0
   -1.3001    1.9004   -1.6419 H   0  0  0  0  0  0  0  0  0  0  0  0
   -2.0407   -0.3262    0.2839 H   0  0  0  0  0  0  0  0  0  0  0  0
   -3.1449    0.7722   -0.5291 H   0  0  0  0  0  0  0  0  0  0  0  0
   -2.2619    0.0161   -2.7425 H   0  0  0  0  0  0  0  0  0  0  0  0
   -1.2485   -1.1869   -1.9440 H   0  0  0  0  0  0  0  0  0  0  0  0
   -2.5717   -2.9279   -3.2965 H   0  0  0  0  0  0  0  0  0  0  0  0
   -3.4015   -1.5415   -3.9784 H   0  0  0  0  0  0  0  0  0  0  0  0
   -5.5138   -2.4074   -3.7185 H   0  0  0  0  0  0  0  0  0  0  0  0
   -4.5924   -3.8871   -3.9344 H   0  0  0  0  0  0  0  0  0  0  0  0
   -5.8729   -4.4444   -2.0603 H   0  0  0  0  0  0  0  0  0  0  0  0
   -5.9553   -2.7842   -1.5019 H   0  0  0  0  0  0  0  0  0  0  0  0
   -4.6192   -3.9941    0.0722 H   0  0  0  0  0  0  0  0  0  0  0  0
   -2.5726   -5.2137   -0.4873 H   0  0  0  0  0  0  0  0  0  0  0  0
   -2.7878   -4.8962   -2.2126 H   0  0  0  0  0  0  0  0  0  0  0  0
   -3.9578   -5.8977   -1.3443 H   0  0  0  0  0  0  0  0  0  0  0  0
   -3.6422   -1.9819    0.1556 H   0  0  0  0  0  0  0  0  0  0  0  0
   -2.2454   -2.8143   -0.5174 H   0  0  0  0  0  0  0  0  0  0  0  0
   -2.3098    1.3867    1.8280 H   0  0  0  0  0  0  0  0  0  0  0  0
   -2.3832    3.1609    3.4335 H   0  0  0  0  0  0  0  0  0  0  0  0
    0.7296    6.3646    3.1591 H   0  0  0  0  0  0  0  0  0  0  0  0
   -0.4264    7.4606    3.9246 H   0  0  0  0  0  0  0  0  0  0  0  0
   -0.4530    7.2926    2.1850 H   0  0  0  0  0  0  0  0  0  0  0  0
   -1.0628    4.5953    5.0706 H   0  0  0  0  0  0  0  0  0  0  0  0
   -1.6989    6.2384    5.2191 H   0  0  0  0  0  0  0  0  0  0  0  0
   -2.7469    4.9849    4.5968 H   0  0  0  0  0  0  0  0  0  0  0  0
   -0.0708    5.6626    0.7866 H   0  0  0  0  0  0  0  0  0  0  0  0
   -0.0023    3.8709   -0.8282 H   0  0  0  0  0  0  0  0  0  0  0  0
  1  2  1  0
  2  3  1  0
  3  4  2  0
  4  5  1  0
  5  6  1  0
  6  7  1  0
  5  8  2  0
  8  9  1  0
  9 10  1  0
 10 11  2  0
 11 12  1  0
 12 13  2  0
 13 14  1  0
 14 15  2  0
  9 16  2  0
 16 17  1  0
 17 18  2  0
 17 19  1  0
 19 20  1  0
 20 21  2  0
 21 22  1  0
 22 23  1  0
 23 24  1  0
 24 25  1  0
 25 26  1  0
 26 27  1  0
 27 28  1  0
 28 29  1  0
 29 30  1  0
 29 31  1  0
 22 32  1  0
 32 33  2  0
 33 34  1  0
 34 35  2  0
 35 36  1  0
 36 37  1  0
 36 38  1  0
 35 39  1  0
 39 40  2  0
 21  3  1  0
 31 25  1  0
 40 32  1  0
 20  8  1  0
 15 10  1  0
  1 41  1  0
  1 42  1  0
  1 43  1  0
  4 44  1  0
  7 45  1  0
  7 46  1  0
  7 47  1  0
 11 48  1  0
 12 49  1  0
 13 50  1  0
 14 51  1  0
 15 52  1  0
 16 53  1  0
 22 54  1  0
 23 55  1  0
 23 56  1  0
 24 57  1  0
 24 58  1  0
 26 59  1  0
 26 60  1  0
 27 61  1  0
 27 62  1  0
 28 63  1  0
 28 64  1  0
 29 65  1  0
 30 66  1  0
 30 67  1  0
 30 68  1  0
 31 69  1  0
 31 70  1  0
 33 71  1  0
 34 72  1  0
 37 73  1  0
 37 74  1  0
 37 75  1  0
 38 76  1  0
 38 77  1  0
 38 78  1  0
 39 79  1  0
 40 80  1  0
M  END
$$$$
