
     RDKit          3D

 56 59  0  0  0  0  0  0  0  0999 V2000
   -1.6619   -0.0171   -2.0415 O   0  0  0  0  0  0  0  0  0  0  0  0
   -2.1682    0.5547   -1.0720 C   0  0  0  0  0  0  0  0  0  0  0  0
   -1.3860    1.6900   -0.3516 C   0  0  0  0  0  0  0  0  0  0  0  0
    0.0490    1.4066   -0.1567 N   0  0  0  0  0  0  0  0  0  0  0  0
    0.8589    1.5446   -1.3784 C   0  0  0  0  0  0  0  0  0  0  0  0
    2.0911    0.6035   -1.4545 C   0  0  0  0  0  0  0  0  0  0  0  0
    2.7661    0.4834   -0.1544 N   0  0  0  0  0  0  0  0  0  0  0  0
    4.0089   -0.2904   -0.2534 C   0  0  0  0  0  0  0  0  0  0  0  0
    4.8549   -0.2516    1.0311 C   0  0  0  0  0  0  0  0  0  0  0  0
    6.0793   -0.9846    0.8940 O   0  0  0  0  0  0  0  0  0  0  0  0
    7.1000   -0.2403    0.2094 C   0  0  0  0  0  0  0  0  0  0  0  0
    8.3920   -1.0504    0.2722 C   0  0  0  0  0  0  0  0  0  0  0  0
    8.2064   -2.3038   -0.3813 O   0  0  0  0  0  0  0  0  0  0  0  0
    1.8334   -0.0456    0.8640 C   0  0  0  0  0  0  0  0  0  0  0  0
    0.3220    0.1556    0.5558 C   0  0  0  0  0  0  0  0  0  0  0  0
   -3.3918    0.1799   -0.4649 N   0  0  0  0  0  0  0  0  0  0  0  0
   -3.8992   -1.1744   -0.5573 C   0  0  0  0  0  0  0  0  0  0  0  0
   -3.6465   -1.9775   -1.6854 C   0  0  0  0  0  0  0  0  0  0  0  0
   -4.1273   -3.2907   -1.7803 C   0  0  0  0  0  0  0  0  0  0  0  0
   -4.8655   -3.8396   -0.7420 C   0  0  0  0  0  0  0  0  0  0  0  0
   -5.1277   -3.0719    0.3886 C   0  0  0  0  0  0  0  0  0  0  0  0
   -4.6597   -1.7484    0.4810 C   0  0  0  0  0  0  0  0  0  0  0  0
   -5.0088   -0.8733    1.9904 S   0  0  0  0  0  0  0  0  0  0  0  0
   -5.0153    0.7725    1.3364 C   0  0  0  0  0  0  0  0  0  0  0  0
   -5.8131    1.7312    1.9808 C   0  0  0  0  0  0  0  0  0  0  0  0
   -5.8632    3.0426    1.5145 C   0  0  0  0  0  0  0  0  0  0  0  0
   -5.1244    3.3927    0.3928 C   0  0  0  0  0  0  0  0  0  0  0  0
   -5.2124    4.9967   -0.2227 Cl  0  0  0  0  0  0  0  0  0  0  0  0
   -4.3210    2.4483   -0.2494 C   0  0  0  0  0  0  0  0  0  0  0  0
   -4.2281    1.1277    0.2282 C   0  0  0  0  0  0  0  0  0  0  0  0
   -1.7988    1.8686    0.6457 H   0  0  0  0  0  0  0  0  0  0  0  0
   -1.5051    2.6155   -0.9261 H   0  0  0  0  0  0  0  0  0  0  0  0
    1.2173    2.5822   -1.4042 H   0  0  0  0  0  0  0  0  0  0  0  0
    0.2734    1.4044   -2.2926 H   0  0  0  0  0  0  0  0  0  0  0  0
    1.7730   -0.3862   -1.8105 H   0  0  0  0  0  0  0  0  0  0  0  0
    2.7802    1.0117   -2.2028 H   0  0  0  0  0  0  0  0  0  0  0  0
    4.6144    0.1182   -1.0707 H   0  0  0  0  0  0  0  0  0  0  0  0
    3.8098   -1.3338   -0.5286 H   0  0  0  0  0  0  0  0  0  0  0  0
    5.0635    0.7783    1.3433 H   0  0  0  0  0  0  0  0  0  0  0  0
    4.3065   -0.7318    1.8477 H   0  0  0  0  0  0  0  0  0  0  0  0
    6.8029   -0.1048   -0.8356 H   0  0  0  0  0  0  0  0  0  0  0  0
    7.2455    0.7345    0.6904 H   0  0  0  0  0  0  0  0  0  0  0  0
    9.2129   -0.5210   -0.2192 H   0  0  0  0  0  0  0  0  0  0  0  0
    8.6714   -1.2589    1.3083 H   0  0  0  0  0  0  0  0  0  0  0  0
    7.3632   -2.6494   -0.0313 H   0  0  0  0  0  0  0  0  0  0  0  0
    1.9878   -1.1224    1.0241 H   0  0  0  0  0  0  0  0  0  0  0  0
    2.0656    0.4595    1.8111 H   0  0  0  0  0  0  0  0  0  0  0  0
   -0.0225   -0.7046   -0.0321 H   0  0  0  0  0  0  0  0  0  0  0  0
   -0.2255    0.1345    1.5059 H   0  0  0  0  0  0  0  0  0  0  0  0
   -3.1105   -1.5950   -2.5488 H   0  0  0  0  0  0  0  0  0  0  0  0
   -3.9258   -3.8761   -2.6746 H   0  0  0  0  0  0  0  0  0  0  0  0
   -5.2372   -4.8586   -0.8128 H   0  0  0  0  0  0  0  0  0  0  0  0
   -5.6977   -3.5129    1.2027 H   0  0  0  0  0  0  0  0  0  0  0  0
   -6.4085    1.4572    2.8506 H   0  0  0  0  0  0  0  0  0  0  0  0
   -6.4906    3.7739    2.0183 H   0  0  0  0  0  0  0  0  0  0  0  0
   -3.8071    2.7468   -1.1601 H   0  0  0  0  0  0  0  0  0  0  0  0
  1  2  2  0
  2  3  1  0
  3  4  1  0
  4  5  1  0
  5  6  1  0
  6  7  1  0
  7  8  1  0
  8  9  1  0
  9 10  1  0
 10 11  1  0
 11 12  1  0
 12 13  1  0
  7 14  1  0
 14 15  1  0
  2 16  1  0
 16 17  1  0
 17 18  2  0
 18 19  1  0
 19 20  2  0
 20 21  1  0
 21 22  2  0
 22 23  1  0
 23 24  1  0
 24 25  2  0
 25 26  1  0
 26 27  2  0
 27 28  1  0
 27 29  1  0
 29 30  2  0
 15  4  1  0
 30 16  1  0
 22 17  1  0
 30 24  1  0
  3 31  1  0
  3 32  1  0
  5 33  1  0
  5 34  1  0
  6 35  1  0
  6 36  1  0
  8 37  1  0
  8 38  1  0
  9 39  1  0
  9 40  1  0
 11 41  1  0
 11 42  1  0
 12 43  1  0
 12 44  1  0
 13 45  1  0
 14 46  1  0
 14 47  1  0
 15 48  1  0
 15 49  1  0
 18 50  1  0
 19 51  1  0
 20 52  1  0
 21 53  1  0
 25 54  1  0
 26 55  1  0
 29 56  1  0
M  END
$$$$
