
     RDKit          3D

 48 50  0  0  0  0  0  0  0  0999 V2000
   -5.9843   -1.9270   -2.0109 C   0  0  0  0  0  0  0  0  0  0  0  0
   -4.7229   -1.1163   -1.7419 C   0  0  0  0  0  0  0  0  0  0  0  0
   -4.4975   -0.8303   -0.2426 C   0  0  0  0  0  0  0  0  0  0  0  0
   -3.2121   -0.1934   -0.0290 N   0  0  0  0  0  0  0  0  0  0  0  0
   -2.0245   -0.8910   -0.0294 C   0  0  0  0  0  0  0  0  0  0  0  0
   -1.9601   -2.1113   -0.1419 O   0  0  0  0  0  0  0  0  0  0  0  0
   -0.8357   -0.0477    0.1113 C   0  0  0  0  0  0  0  0  0  0  0  0
    0.5164   -0.4670    0.1547 C   0  0  0  0  0  0  0  0  0  0  0  0
    1.2391    0.6934    0.2893 C   0  0  0  0  0  0  0  0  0  0  0  0
    2.6783    1.0262    0.4044 C   0  0  0  0  0  0  0  0  0  0  0  0
    3.4108   -0.1529    0.0794 O   0  0  0  0  0  0  0  0  0  0  0  0
    4.7783   -0.0800    0.0756 C   0  0  0  0  0  0  0  0  0  0  0  0
    5.5174    1.0471    0.4468 C   0  0  0  0  0  0  0  0  0  0  0  0
    6.9193    1.0240    0.4133 C   0  0  0  0  0  0  0  0  0  0  0  0
    7.5981   -0.1251    0.0092 C   0  0  0  0  0  0  0  0  0  0  0  0
    8.9546   -0.2733   -0.0665 O   0  0  0  0  0  0  0  0  0  0  0  0
    9.7508    0.8390    0.3240 C   0  0  0  0  0  0  0  0  0  0  0  0
    6.8661   -1.2527   -0.3619 C   0  0  0  0  0  0  0  0  0  0  0  0
    5.4697   -1.2327   -0.3281 C   0  0  0  0  0  0  0  0  0  0  0  0
    4.6254   -2.6680   -0.8003 Cl  0  0  0  0  0  0  0  0  0  0  0  0
    0.3798    1.7475    0.3273 O   0  0  0  0  0  0  0  0  0  0  0  0
   -0.9208    1.2923    0.2134 N   0  0  0  0  0  0  0  0  0  0  0  0
   -5.5828    0.0215    0.3879 C   0  0  0  0  0  0  0  0  0  0  0  0
   -6.2123   -0.4063    1.5629 C   0  0  0  0  0  0  0  0  0  0  0  0
   -7.1935    0.3941    2.1281 C   0  0  0  0  0  0  0  0  0  0  0  0
   -7.5837    1.5792    1.6147 N   0  0  0  0  0  0  0  0  0  0  0  0
   -6.9593    1.9848    0.4894 C   0  0  0  0  0  0  0  0  0  0  0  0
   -5.9669    1.2564   -0.1495 C   0  0  0  0  0  0  0  0  0  0  0  0
   -6.0541   -2.1689   -3.0763 H   0  0  0  0  0  0  0  0  0  0  0  0
   -6.8860   -1.3714   -1.7368 H   0  0  0  0  0  0  0  0  0  0  0  0
   -5.9730   -2.8674   -1.4508 H   0  0  0  0  0  0  0  0  0  0  0  0
   -4.7583   -0.1853   -2.3203 H   0  0  0  0  0  0  0  0  0  0  0  0
   -3.8682   -1.6807   -2.1359 H   0  0  0  0  0  0  0  0  0  0  0  0
   -4.4632   -1.8001    0.2718 H   0  0  0  0  0  0  0  0  0  0  0  0
   -3.1483    0.8175    0.0359 H   0  0  0  0  0  0  0  0  0  0  0  0
    0.9003   -1.4759    0.0936 H   0  0  0  0  0  0  0  0  0  0  0  0
    2.9223    1.8323   -0.2979 H   0  0  0  0  0  0  0  0  0  0  0  0
    2.8919    1.3374    1.4338 H   0  0  0  0  0  0  0  0  0  0  0  0
    5.0407    1.9659    0.7734 H   0  0  0  0  0  0  0  0  0  0  0  0
    7.4498    1.9234    0.7114 H   0  0  0  0  0  0  0  0  0  0  0  0
    9.5694    1.7013   -0.3262 H   0  0  0  0  0  0  0  0  0  0  0  0
    9.5836    1.0934    1.3760 H   0  0  0  0  0  0  0  0  0  0  0  0
   10.8013    0.5534    0.2131 H   0  0  0  0  0  0  0  0  0  0  0  0
    7.3916   -2.1506   -0.6788 H   0  0  0  0  0  0  0  0  0  0  0  0
   -5.9474   -1.3464    2.0368 H   0  0  0  0  0  0  0  0  0  0  0  0
   -7.7061    0.0924    3.0371 H   0  0  0  0  0  0  0  0  0  0  0  0
   -7.2862    2.9450    0.1005 H   0  0  0  0  0  0  0  0  0  0  0  0
   -5.5075    1.6542   -1.0479 H   0  0  0  0  0  0  0  0  0  0  0  0
  1  2  1  0
  2  3  1  0
  3  4  1  0
  4  5  1  0
  5  6  2  0
  5  7  1  0
  7  8  1  0
  8  9  2  0
  9 10  1  0
 10 11  1  0
 11 12  1  0
 12 13  2  0
 13 14  1  0
 14 15  2  0
 15 16  1  0
 16 17  1  0
 15 18  1  0
 18 19  2  0
 19 20  1  0
  9 21  1  0
 21 22  1  0
  3 23  1  0
 23 24  2  0
 24 25  1  0
 25 26  2  0
 26 27  1  0
 27 28  2  0
 22  7  2  0
 28 23  1  0
 19 12  1  0
  1 29  1  0
  1 30  1  0
  1 31  1  0
  2 32  1  0
  2 33  1  0
  3 34  1  0
  4 35  1  0
  8 36  1  0
 10 37  1  0
 10 38  1  0
 13 39  1  0
 14 40  1  0
 17 41  1  0
 17 42  1  0
 17 43  1  0
 18 44  1  0
 24 45  1  0
 25 46  1  0
 27 47  1  0
 28 48  1  0
M  END
$$$$
