
     RDKit          3D

 44 46  0  0  0  0  0  0  0  0999 V2000
    3.6220    3.2166   -3.5481 C   0  0  0  0  0  0  0  0  0  0  0  0
    2.5837    3.3578   -2.5314 N   0  0  0  0  0  0  0  0  0  0  0  0
    1.3850    2.5761   -2.9003 C   0  0  0  0  0  0  0  0  0  0  0  0
    0.5139    2.1568   -1.6951 C   0  0  0  0  0  0  0  0  0  0  0  0
    1.2666    1.2741   -0.7678 N   0  0  0  0  0  0  0  0  0  0  0  0
    0.6608    0.2134   -0.0681 C   0  0  0  0  0  0  0  0  0  0  0  0
   -0.6677    0.1481    0.1665 C   0  0  0  0  0  0  0  0  0  0  0  0
   -1.3449   -0.9659    0.8132 C   0  0  0  0  0  0  0  0  0  0  0  0
   -2.6479   -0.8862    1.1445 C   0  0  0  0  0  0  0  0  0  0  0  0
   -3.3993   -1.9786    1.7743 C   0  0  0  0  0  0  0  0  0  0  0  0
   -4.6710   -1.8361    2.2283 C   0  0  0  0  0  0  0  0  0  0  0  0
   -5.3810   -2.9287    2.8084 C   0  0  0  0  0  0  0  0  0  0  0  0
   -5.9475   -3.8269    3.2767 N   0  0  0  0  0  0  0  0  0  0  0  0
   -5.3770   -0.5994    2.1451 C   0  0  0  0  0  0  0  0  0  0  0  0
   -5.9439    0.4106    2.0687 N   0  0  0  0  0  0  0  0  0  0  0  0
   -2.6380   -3.2960    1.8627 C   0  0  0  0  0  0  0  0  0  0  0  0
   -1.1544   -3.0835    2.1587 C   0  0  0  0  0  0  0  0  0  0  0  0
   -0.5119   -2.1984    1.0843 C   0  0  0  0  0  0  0  0  0  0  0  0
    0.9076   -1.8058    1.4933 C   0  0  0  0  0  0  0  0  0  0  0  0
    1.5586   -0.9124    0.4348 C   0  0  0  0  0  0  0  0  0  0  0  0
    2.7246    1.5395   -0.7377 C   0  0  0  0  0  0  0  0  0  0  0  0
    3.0688    2.9776   -1.1900 C   0  0  0  0  0  0  0  0  0  0  0  0
    4.4695    3.8738   -3.3242 H   0  0  0  0  0  0  0  0  0  0  0  0
    3.9940    2.1883   -3.6214 H   0  0  0  0  0  0  0  0  0  0  0  0
    3.2421    3.5186   -4.5305 H   0  0  0  0  0  0  0  0  0  0  0  0
    1.6735    1.6596   -3.4339 H   0  0  0  0  0  0  0  0  0  0  0  0
    0.7788    3.1737   -3.5908 H   0  0  0  0  0  0  0  0  0  0  0  0
   -0.3640    1.6366   -2.0958 H   0  0  0  0  0  0  0  0  0  0  0  0
    0.1601    3.0393   -1.1488 H   0  0  0  0  0  0  0  0  0  0  0  0
   -1.3011    0.9762   -0.1398 H   0  0  0  0  0  0  0  0  0  0  0  0
   -3.1761    0.0437    0.9350 H   0  0  0  0  0  0  0  0  0  0  0  0
   -2.7476   -3.8294    0.9093 H   0  0  0  0  0  0  0  0  0  0  0  0
   -3.0407   -3.9511    2.6425 H   0  0  0  0  0  0  0  0  0  0  0  0
   -0.6434   -4.0532    2.1949 H   0  0  0  0  0  0  0  0  0  0  0  0
   -1.0417   -2.6283    3.1521 H   0  0  0  0  0  0  0  0  0  0  0  0
   -0.4569   -2.7754    0.1497 H   0  0  0  0  0  0  0  0  0  0  0  0
    0.8906   -1.2720    2.4536 H   0  0  0  0  0  0  0  0  0  0  0  0
    1.5239   -2.7008    1.6418 H   0  0  0  0  0  0  0  0  0  0  0  0
    2.4776   -0.5189    0.8796 H   0  0  0  0  0  0  0  0  0  0  0  0
    1.8551   -1.5238   -0.4271 H   0  0  0  0  0  0  0  0  0  0  0  0
    3.1030    1.4275    0.2843 H   0  0  0  0  0  0  0  0  0  0  0  0
    3.2390    0.8113   -1.3760 H   0  0  0  0  0  0  0  0  0  0  0  0
    2.6073    3.6737   -0.4768 H   0  0  0  0  0  0  0  0  0  0  0  0
    4.1497    3.1425   -1.0986 H   0  0  0  0  0  0  0  0  0  0  0  0
  1  2  1  0
  2  3  1  0
  3  4  1  0
  4  5  1  0
  5  6  1  0
  6  7  2  0
  7  8  1  0
  8  9  2  0
  9 10  1  0
 10 11  2  3
 11 12  1  0
 12 13  3  0
 11 14  1  0
 14 15  3  0
 10 16  1  0
 16 17  1  0
 17 18  1  0
 18 19  1  0
 19 20  1  0
  5 21  1  0
 21 22  1  0
 22  2  1  0
 20  6  1  0
 18  8  1  0
  1 23  1  0
  1 24  1  0
  1 25  1  0
  3 26  1  0
  3 27  1  0
  4 28  1  0
  4 29  1  0
  7 30  1  0
  9 31  1  0
 16 32  1  0
 16 33  1  0
 17 34  1  0
 17 35  1  0
 18 36  1  0
 19 37  1  0
 19 38  1  0
 20 39  1  0
 20 40  1  0
 21 41  1  0
 21 42  1  0
 22 43  1  0
 22 44  1  0
M  END
$$$$
