
     RDKit          3D

 47 49  0  0  0  0  0  0  0  0999 V2000
    2.2484   -1.4646    1.3072 O   0  0  0  0  0  0  0  0  0  0  0  0
    1.8535   -0.6241    0.5072 C   0  0  0  0  0  0  0  0  0  0  0  0
    0.4002   -0.4452    0.1335 C   0  0  0  0  0  0  0  0  0  0  0  0
   -0.4868   -1.4054    0.9215 C   0  0  0  0  0  0  0  0  0  0  0  0
   -1.8996   -1.2650    0.5550 N   0  0  0  0  0  0  0  0  0  0  0  0
   -2.6516   -0.2867    1.1825 C   0  0  0  0  0  0  0  0  0  0  0  0
   -2.2419    0.5100    2.0157 O   0  0  0  0  0  0  0  0  0  0  0  0
   -4.0493   -0.3052    0.6772 C   0  0  0  0  0  0  0  0  0  0  0  0
   -4.9771    0.5408    1.1454 C   0  0  0  0  0  0  0  0  0  0  0  0
   -6.3745    0.6197    0.7081 C   0  0  0  0  0  0  0  0  0  0  0  0
   -7.2664   -0.4400    0.9246 C   0  0  0  0  0  0  0  0  0  0  0  0
   -8.5966   -0.3339    0.5133 C   0  0  0  0  0  0  0  0  0  0  0  0
   -9.0323    0.8321   -0.1047 C   0  0  0  0  0  0  0  0  0  0  0  0
  -10.3086    0.9334   -0.4977 F   0  0  0  0  0  0  0  0  0  0  0  0
   -8.1642    1.8964   -0.3171 C   0  0  0  0  0  0  0  0  0  0  0  0
   -6.8334    1.7925    0.0930 C   0  0  0  0  0  0  0  0  0  0  0  0
   -4.2180   -1.4957   -0.5475 S   0  0  0  0  0  0  0  0  0  0  0  0
   -2.5344   -1.9933   -0.4300 C   0  0  0  0  0  0  0  0  0  0  0  0
   -1.8888   -3.1724   -1.4172 S   0  0  0  0  0  0  0  0  0  0  0  0
    2.6941    0.2461   -0.1527 N   0  0  0  0  0  0  0  0  0  0  0  0
    4.1277    0.2296    0.0585 C   0  0  0  0  0  0  0  0  0  0  0  0
    4.8019   -0.8780   -0.7499 C   0  0  0  0  0  0  0  0  0  0  0  0
    6.2954   -0.9938   -0.4527 C   0  0  0  0  0  0  0  0  0  0  0  0
    7.0544    0.1693   -0.8607 N   0  0  0  0  0  0  0  0  0  0  0  0
    7.5564    1.1394   -0.0403 C   0  0  0  0  0  0  0  0  0  0  0  0
    8.1861    2.0241   -0.8847 C   0  0  0  0  0  0  0  0  0  0  0  0
    8.0822    1.6104   -2.1877 N   0  0  0  0  0  0  0  0  0  0  0  0
    7.4085    0.4834   -2.1414 C   0  0  0  0  0  0  0  0  0  0  0  0
    0.2940   -0.6203   -0.9431 H   0  0  0  0  0  0  0  0  0  0  0  0
    0.1110    0.5927    0.3353 H   0  0  0  0  0  0  0  0  0  0  0  0
   -0.3852   -1.2043    1.9955 H   0  0  0  0  0  0  0  0  0  0  0  0
   -0.1673   -2.4415    0.7670 H   0  0  0  0  0  0  0  0  0  0  0  0
   -4.7037    1.2674    1.9099 H   0  0  0  0  0  0  0  0  0  0  0  0
   -6.9357   -1.3527    1.4151 H   0  0  0  0  0  0  0  0  0  0  0  0
   -9.2935   -1.1505    0.6727 H   0  0  0  0  0  0  0  0  0  0  0  0
   -8.5281    2.7984   -0.7988 H   0  0  0  0  0  0  0  0  0  0  0  0
   -6.1596    2.6297   -0.0756 H   0  0  0  0  0  0  0  0  0  0  0  0
    2.3133    0.8927   -0.8330 H   0  0  0  0  0  0  0  0  0  0  0  0
    4.3215    0.0950    1.1286 H   0  0  0  0  0  0  0  0  0  0  0  0
    4.5006    1.2153   -0.2365 H   0  0  0  0  0  0  0  0  0  0  0  0
    4.6368   -0.7006   -1.8202 H   0  0  0  0  0  0  0  0  0  0  0  0
    4.3303   -1.8415   -0.5212 H   0  0  0  0  0  0  0  0  0  0  0  0
    6.7186   -1.8529   -0.9864 H   0  0  0  0  0  0  0  0  0  0  0  0
    6.4695   -1.1555    0.6173 H   0  0  0  0  0  0  0  0  0  0  0  0
    7.4324    1.1272    1.0335 H   0  0  0  0  0  0  0  0  0  0  0  0
    8.7098    2.9348   -0.6243 H   0  0  0  0  0  0  0  0  0  0  0  0
    7.1501   -0.1311   -2.9942 H   0  0  0  0  0  0  0  0  0  0  0  0
  1  2  2  0
  2  3  1  0
  3  4  1  0
  4  5  1  0
  5  6  1  0
  6  7  2  0
  6  8  1  0
  8  9  2  3
  9 10  1  0
 10 11  2  0
 11 12  1  0
 12 13  2  0
 13 14  1  0
 13 15  1  0
 15 16  2  0
  8 17  1  0
 17 18  1  0
 18 19  2  0
  2 20  1  0
 20 21  1  0
 21 22  1  0
 22 23  1  0
 23 24  1  0
 24 25  1  0
 25 26  2  0
 26 27  1  0
 27 28  2  0
 18  5  1  0
 28 24  1  0
 16 10  1  0
  3 29  1  0
  3 30  1  0
  4 31  1  0
  4 32  1  0
  9 33  1  0
 11 34  1  0
 12 35  1  0
 15 36  1  0
 16 37  1  0
 20 38  1  0
 21 39  1  0
 21 40  1  0
 22 41  1  0
 22 42  1  0
 23 43  1  0
 23 44  1  0
 25 45  1  0
 26 46  1  0
 28 47  1  0
M  END
$$$$
