
     RDKit          3D

 45 47  0  0  0  0  0  0  0  0999 V2000
    9.6321    1.4345    2.1556 N   0  0  0  0  0  0  0  0  0  0  0  0
    8.6255    1.2043    1.6258 C   0  0  0  0  0  0  0  0  0  0  0  0
    7.3775    0.9202    0.9801 C   0  0  0  0  0  0  0  0  0  0  0  0
    6.1969    0.8590    1.7280 C   0  0  0  0  0  0  0  0  0  0  0  0
    4.9750    0.5818    1.1022 C   0  0  0  0  0  0  0  0  0  0  0  0
    4.9282    0.3644   -0.2753 C   0  0  0  0  0  0  0  0  0  0  0  0
    3.8115    0.0856   -1.0103 O   0  0  0  0  0  0  0  0  0  0  0  0
    2.5706    0.0160   -0.3196 C   0  0  0  0  0  0  0  0  0  0  0  0
    1.4149   -0.2883   -1.2840 C   0  0  0  0  0  0  0  0  0  0  0  0
    1.5736   -0.3057   -2.5056 O   0  0  0  0  0  0  0  0  0  0  0  0
    0.1741   -0.5458   -0.7098 N   0  0  0  0  0  0  0  0  0  0  0  0
   -0.9466   -0.9235   -1.5863 C   0  0  0  0  0  0  0  0  0  0  0  0
   -1.9647   -1.8142   -0.8586 C   0  0  0  0  0  0  0  0  0  0  0  0
   -2.5172   -1.1589    0.3514 N   0  0  0  0  0  0  0  0  0  0  0  0
   -3.7789   -0.5634    0.1497 C   0  0  0  0  0  0  0  0  0  0  0  0
   -4.5584   -0.2241    1.2569 C   0  0  0  0  0  0  0  0  0  0  0  0
   -5.8063    0.3723    1.0744 C   0  0  0  0  0  0  0  0  0  0  0  0
   -6.2679    0.6180   -0.2173 C   0  0  0  0  0  0  0  0  0  0  0  0
   -7.5839    1.2721   -0.4947 C   0  0  0  0  0  0  0  0  0  0  0  0
   -8.4748    1.1405    0.5274 F   0  0  0  0  0  0  0  0  0  0  0  0
   -8.2069    0.7706   -1.5966 F   0  0  0  0  0  0  0  0  0  0  0  0
   -7.4610    2.6102   -0.7114 F   0  0  0  0  0  0  0  0  0  0  0  0
   -5.4353    0.2566   -1.2623 C   0  0  0  0  0  0  0  0  0  0  0  0
   -4.2211   -0.3225   -1.1026 N   0  0  0  0  0  0  0  0  0  0  0  0
   -1.5927   -0.2242    1.0359 C   0  0  0  0  0  0  0  0  0  0  0  0
   -0.1140   -0.5332    0.7308 C   0  0  0  0  0  0  0  0  0  0  0  0
    6.1103    0.4264   -1.0188 C   0  0  0  0  0  0  0  0  0  0  0  0
    7.3314    0.7028   -0.3984 C   0  0  0  0  0  0  0  0  0  0  0  0
    6.2192    1.0267    2.8036 H   0  0  0  0  0  0  0  0  0  0  0  0
    4.0843    0.5438    1.7201 H   0  0  0  0  0  0  0  0  0  0  0  0
    2.3572    0.9830    0.1503 H   0  0  0  0  0  0  0  0  0  0  0  0
    2.6113   -0.7890    0.4231 H   0  0  0  0  0  0  0  0  0  0  0  0
   -0.5658   -1.4456   -2.4706 H   0  0  0  0  0  0  0  0  0  0  0  0
   -1.4154    0.0083   -1.9233 H   0  0  0  0  0  0  0  0  0  0  0  0
   -2.7415   -2.1645   -1.5490 H   0  0  0  0  0  0  0  0  0  0  0  0
   -1.4508   -2.7240   -0.5207 H   0  0  0  0  0  0  0  0  0  0  0  0
   -4.2072   -0.4421    2.2603 H   0  0  0  0  0  0  0  0  0  0  0  0
   -6.4115    0.6320    1.9404 H   0  0  0  0  0  0  0  0  0  0  0  0
   -5.7217    0.4224   -2.2991 H   0  0  0  0  0  0  0  0  0  0  0  0
   -1.7504   -0.2833    2.1192 H   0  0  0  0  0  0  0  0  0  0  0  0
   -1.7879    0.8113    0.7227 H   0  0  0  0  0  0  0  0  0  0  0  0
    0.1519   -1.5250    1.1153 H   0  0  0  0  0  0  0  0  0  0  0  0
    0.5220    0.1999    1.2347 H   0  0  0  0  0  0  0  0  0  0  0  0
    6.0770    0.2579   -2.0938 H   0  0  0  0  0  0  0  0  0  0  0  0
    8.2375    0.7459   -0.9996 H   0  0  0  0  0  0  0  0  0  0  0  0
  1  2  3  0
  2  3  1  0
  3  4  2  0
  4  5  1  0
  5  6  2  0
  6  7  1  0
  7  8  1  0
  8  9  1  0
  9 10  2  0
  9 11  1  0
 11 12  1  0
 12 13  1  0
 13 14  1  0
 14 15  1  0
 15 16  2  0
 16 17  1  0
 17 18  2  0
 18 19  1  0
 19 20  1  0
 19 21  1  0
 19 22  1  0
 18 23  1  0
 23 24  2  0
 14 25  1  0
 25 26  1  0
  6 27  1  0
 27 28  2  0
 28  3  1  0
 26 11  1  0
 24 15  1  0
  4 29  1  0
  5 30  1  0
  8 31  1  0
  8 32  1  0
 12 33  1  0
 12 34  1  0
 13 35  1  0
 13 36  1  0
 16 37  1  0
 17 38  1  0
 23 39  1  0
 25 40  1  0
 25 41  1  0
 26 42  1  0
 26 43  1  0
 27 44  1  0
 28 45  1  0
M  END
$$$$
