
     RDKit          3D

 52 54  0  0  0  0  0  0  0  0999 V2000
    3.0610   -0.9468    1.6704 O   0  0  0  0  0  0  0  0  0  0  0  0
    2.1859   -1.1531    0.8395 C   0  0  0  0  0  0  0  0  0  0  0  0
    2.0386   -2.2632    0.0328 N   0  0  0  0  0  0  0  0  0  0  0  0
    2.8486   -3.4124   -0.0186 C   0  0  0  0  0  0  0  0  0  0  0  0
    2.4951   -4.4035   -0.9437 C   0  0  0  0  0  0  0  0  0  0  0  0
    3.2471   -5.5761   -1.0552 C   0  0  0  0  0  0  0  0  0  0  0  0
    4.3603   -5.7682   -0.2418 C   0  0  0  0  0  0  0  0  0  0  0  0
    4.7194   -4.7882    0.6805 C   0  0  0  0  0  0  0  0  0  0  0  0
    3.9666   -3.6145    0.7921 C   0  0  0  0  0  0  0  0  0  0  0  0
    1.0878   -0.1476    0.5848 C   0  0  0  0  0  0  0  0  0  0  0  0
    1.1362    1.0421    1.2079 C   0  0  0  0  0  0  0  0  0  0  0  0
    0.1249    2.1262    0.9588 C   0  0  0  0  0  0  0  0  0  0  0  0
    0.7559    3.4985    0.7876 C   0  0  0  0  0  0  0  0  0  0  0  0
    0.3128    4.5757    1.5718 C   0  0  0  0  0  0  0  0  0  0  0  0
    0.8744    5.8462    1.4211 C   0  0  0  0  0  0  0  0  0  0  0  0
    1.8829    6.0501    0.4827 C   0  0  0  0  0  0  0  0  0  0  0  0
    2.6422    7.7691    0.2789 Br  0  0  0  0  0  0  0  0  0  0  0  0
    2.3346    4.9962   -0.3071 C   0  0  0  0  0  0  0  0  0  0  0  0
    1.7722    3.7264   -0.1562 C   0  0  0  0  0  0  0  0  0  0  0  0
   -0.7628    1.7763   -0.2388 C   0  0  0  0  0  0  0  0  0  0  0  0
   -1.1049    0.2913   -0.1906 C   0  0  0  0  0  0  0  0  0  0  0  0
   -1.9803    0.0264   -1.2908 O   0  0  0  0  0  0  0  0  0  0  0  0
   -2.5560   -1.2755   -1.2745 C   0  0  0  0  0  0  0  0  0  0  0  0
   -3.6967   -1.4105   -0.2654 C   0  0  0  0  0  0  0  0  0  0  0  0
   -4.7116   -0.2666   -0.2896 C   0  0  0  0  0  0  0  0  0  0  0  0
   -5.3742   -0.0605   -1.6444 C   0  0  0  0  0  0  0  0  0  0  0  0
   -6.3842    0.9307   -1.5077 O   0  0  0  0  0  0  0  0  0  0  0  0
    0.0794   -0.5089   -0.2946 O   0  0  0  0  0  0  0  0  0  0  0  0
    1.2518   -2.2272   -0.6059 H   0  0  0  0  0  0  0  0  0  0  0  0
    1.6318   -4.2766   -1.5912 H   0  0  0  0  0  0  0  0  0  0  0  0
    2.9637   -6.3376   -1.7769 H   0  0  0  0  0  0  0  0  0  0  0  0
    4.9483   -6.6783   -0.3255 H   0  0  0  0  0  0  0  0  0  0  0  0
    5.5882   -4.9320    1.3181 H   0  0  0  0  0  0  0  0  0  0  0  0
    4.2811   -2.8773    1.5242 H   0  0  0  0  0  0  0  0  0  0  0  0
    1.9426    1.2603    1.9069 H   0  0  0  0  0  0  0  0  0  0  0  0
   -0.5108    2.1517    1.8553 H   0  0  0  0  0  0  0  0  0  0  0  0
   -0.4749    4.4355    2.3095 H   0  0  0  0  0  0  0  0  0  0  0  0
    0.5186    6.6664    2.0389 H   0  0  0  0  0  0  0  0  0  0  0  0
    3.1218    5.1496   -1.0403 H   0  0  0  0  0  0  0  0  0  0  0  0
    2.1368    2.9136   -0.7817 H   0  0  0  0  0  0  0  0  0  0  0  0
   -0.2546    1.9944   -1.1884 H   0  0  0  0  0  0  0  0  0  0  0  0
   -1.6753    2.3859   -0.2381 H   0  0  0  0  0  0  0  0  0  0  0  0
   -1.6187    0.0577    0.7505 H   0  0  0  0  0  0  0  0  0  0  0  0
   -2.9452   -1.4596   -2.2818 H   0  0  0  0  0  0  0  0  0  0  0  0
   -1.7892   -2.0382   -1.0961 H   0  0  0  0  0  0  0  0  0  0  0  0
   -4.2100   -2.3644   -0.4370 H   0  0  0  0  0  0  0  0  0  0  0  0
   -3.2794   -1.4658    0.7470 H   0  0  0  0  0  0  0  0  0  0  0  0
   -4.2373    0.6705    0.0278 H   0  0  0  0  0  0  0  0  0  0  0  0
   -5.4862   -0.4646    0.4625 H   0  0  0  0  0  0  0  0  0  0  0  0
   -4.6544    0.2849   -2.3923 H   0  0  0  0  0  0  0  0  0  0  0  0
   -5.8419   -0.9853   -1.9962 H   0  0  0  0  0  0  0  0  0  0  0  0
   -6.7620    1.0768   -2.3919 H   0  0  0  0  0  0  0  0  0  0  0  0
  1  2  2  0
  2  3  1  0
  3  4  1  0
  4  5  2  0
  5  6  1  0
  6  7  2  0
  7  8  1  0
  8  9  2  0
  2 10  1  0
 10 11  2  0
 11 12  1  0
 12 13  1  0
 13 14  2  0
 14 15  1  0
 15 16  2  0
 16 17  1  0
 16 18  1  0
 18 19  2  0
 12 20  1  0
 20 21  1  0
 21 22  1  0
 22 23  1  0
 23 24  1  0
 24 25  1  0
 25 26  1  0
 26 27  1  0
 21 28  1  0
  9  4  1  0
 28 10  1  0
 19 13  1  0
  3 29  1  0
  5 30  1  0
  6 31  1  0
  7 32  1  0
  8 33  1  0
  9 34  1  0
 11 35  1  0
 12 36  1  0
 14 37  1  0
 15 38  1  0
 18 39  1  0
 19 40  1  0
 20 41  1  0
 20 42  1  0
 21 43  1  0
 23 44  1  0
 23 45  1  0
 24 46  1  0
 24 47  1  0
 25 48  1  0
 25 49  1  0
 26 50  1  0
 26 51  1  0
 27 52  1  0
M  END
$$$$
