
     RDKit          3D

 40 41  0  0  0  0  0  0  0  0999 V2000
    4.5883    2.7057   -1.0207 C   0  0  0  0  0  0  0  0  0  0  0  0
    4.4587    1.3411   -0.3722 C   0  0  0  0  0  0  0  0  0  0  0  0
    3.0736    0.9808   -0.3698 O   0  0  0  0  0  0  0  0  0  0  0  0
    2.8065   -0.2321    0.2008 C   0  0  0  0  0  0  0  0  0  0  0  0
    3.6771   -0.9621    0.6623 O   0  0  0  0  0  0  0  0  0  0  0  0
    1.3818   -0.5795    0.1821 C   0  0  0  0  0  0  0  0  0  0  0  0
    0.3084    0.2447   -0.1628 C   0  0  0  0  0  0  0  0  0  0  0  0
    0.2966    1.6896   -0.5419 C   0  0  0  0  0  0  0  0  0  0  0  0
   -0.8440   -0.5181   -0.0998 N   0  0  0  0  0  0  0  0  0  0  0  0
   -2.1727   -0.0837   -0.5223 C   0  0  0  0  0  0  0  0  0  0  0  0
   -2.7854    0.6010    0.5649 O   0  0  0  0  0  0  0  0  0  0  0  0
   -4.0714    1.1144    0.2284 C   0  0  0  0  0  0  0  0  0  0  0  0
   -3.9750    2.5003   -0.4043 C   0  0  0  0  0  0  0  0  0  0  0  0
   -5.2702    2.9597   -0.7641 O   0  0  0  0  0  0  0  0  0  0  0  0
   -0.5588   -1.7827    0.3792 C   0  0  0  0  0  0  0  0  0  0  0  0
   -1.4019   -2.8704    0.6745 C   0  0  0  0  0  0  0  0  0  0  0  0
   -0.8238   -4.0580    1.1317 C   0  0  0  0  0  0  0  0  0  0  0  0
    0.5512   -4.1498    1.2859 C   0  0  0  0  0  0  0  0  0  0  0  0
    1.1372   -5.3010    1.7279 O   0  0  0  0  0  0  0  0  0  0  0  0
    1.3854   -3.0705    1.0002 C   0  0  0  0  0  0  0  0  0  0  0  0
    0.8263   -1.8546    0.5441 C   0  0  0  0  0  0  0  0  0  0  0  0
    5.6330    3.0278   -1.0469 H   0  0  0  0  0  0  0  0  0  0  0  0
    4.1986    2.6847   -2.0439 H   0  0  0  0  0  0  0  0  0  0  0  0
    4.0019    3.4502   -0.4722 H   0  0  0  0  0  0  0  0  0  0  0  0
    4.8331    1.3846    0.6567 H   0  0  0  0  0  0  0  0  0  0  0  0
    5.0324    0.6040   -0.9450 H   0  0  0  0  0  0  0  0  0  0  0  0
    0.9573    2.2667    0.1129 H   0  0  0  0  0  0  0  0  0  0  0  0
    0.6325    1.8113   -1.5764 H   0  0  0  0  0  0  0  0  0  0  0  0
   -0.6942    2.1421   -0.4495 H   0  0  0  0  0  0  0  0  0  0  0  0
   -2.7586   -0.9624   -0.8091 H   0  0  0  0  0  0  0  0  0  0  0  0
   -2.0569    0.5610   -1.3993 H   0  0  0  0  0  0  0  0  0  0  0  0
   -4.6495    1.1900    1.1564 H   0  0  0  0  0  0  0  0  0  0  0  0
   -4.6226    0.4180   -0.4156 H   0  0  0  0  0  0  0  0  0  0  0  0
   -3.5234    3.2066    0.3006 H   0  0  0  0  0  0  0  0  0  0  0  0
   -3.3493    2.4828   -1.3016 H   0  0  0  0  0  0  0  0  0  0  0  0
   -5.1729    3.8773   -1.0736 H   0  0  0  0  0  0  0  0  0  0  0  0
   -2.4795   -2.8000    0.5656 H   0  0  0  0  0  0  0  0  0  0  0  0
   -1.4696   -4.8994    1.3631 H   0  0  0  0  0  0  0  0  0  0  0  0
    0.4413   -5.9510    1.9149 H   0  0  0  0  0  0  0  0  0  0  0  0
    2.4587   -3.1693    1.1388 H   0  0  0  0  0  0  0  0  0  0  0  0
  1  2  1  0
  2  3  1  0
  3  4  1  0
  4  5  2  0
  4  6  1  0
  6  7  2  0
  7  8  1  0
  7  9  1  0
  9 10  1  0
 10 11  1  0
 11 12  1  0
 12 13  1  0
 13 14  1  0
  9 15  1  0
 15 16  2  0
 16 17  1  0
 17 18  2  0
 18 19  1  0
 18 20  1  0
 20 21  2  0
 21  6  1  0
 21 15  1  0
  1 22  1  0
  1 23  1  0
  1 24  1  0
  2 25  1  0
  2 26  1  0
  8 27  1  0
  8 28  1  0
  8 29  1  0
 10 30  1  0
 10 31  1  0
 12 32  1  0
 12 33  1  0
 13 34  1  0
 13 35  1  0
 14 36  1  0
 16 37  1  0
 17 38  1  0
 19 39  1  0
 20 40  1  0
M  END
$$$$
