
     RDKit          3D

 43 44  0  0  0  0  0  0  0  0999 V2000
   -5.3730    1.9987    2.4109 C   0  0  0  0  0  0  0  0  0  0  0  0
   -5.5535    1.3971    1.0300 C   0  0  0  0  0  0  0  0  0  0  0  0
   -4.3642    0.7010    0.6353 O   0  0  0  0  0  0  0  0  0  0  0  0
   -3.4152    1.4546    0.0005 C   0  0  0  0  0  0  0  0  0  0  0  0
   -3.5025    2.6671   -0.1648 O   0  0  0  0  0  0  0  0  0  0  0  0
   -2.2480    0.6506   -0.3980 C   0  0  0  0  0  0  0  0  0  0  0  0
   -1.0186    1.1858   -0.4307 N   0  0  0  0  0  0  0  0  0  0  0  0
   -0.1674    0.1647   -0.6855 N   0  0  0  0  0  0  0  0  0  0  0  0
    1.2374    0.3985   -0.5576 C   0  0  0  0  0  0  0  0  0  0  0  0
    2.1644   -0.6410   -0.4260 C   0  0  0  0  0  0  0  0  0  0  0  0
    3.5347   -0.3649   -0.2939 C   0  0  0  0  0  0  0  0  0  0  0  0
    3.9954    0.9498   -0.2826 C   0  0  0  0  0  0  0  0  0  0  0  0
    5.2929    1.3554   -0.1561 O   0  0  0  0  0  0  0  0  0  0  0  0
    6.3304    0.3777   -0.2007 C   0  0  0  0  0  0  0  0  0  0  0  0
    6.6461   -0.1350    1.1936 C   0  0  0  0  0  0  0  0  0  0  0  0
    3.0702    1.9888   -0.3826 C   0  0  0  0  0  0  0  0  0  0  0  0
    1.7040    1.7213   -0.5129 C   0  0  0  0  0  0  0  0  0  0  0  0
   -0.8664   -0.9859   -1.0403 C   0  0  0  0  0  0  0  0  0  0  0  0
   -0.2588   -2.1841   -1.6801 C   0  0  0  0  0  0  0  0  0  0  0  0
   -2.2072   -0.7185   -0.7783 C   0  0  0  0  0  0  0  0  0  0  0  0
   -3.3477   -1.6087   -0.9557 C   0  0  0  0  0  0  0  0  0  0  0  0
   -3.2105   -3.0567   -0.5586 C   0  0  0  0  0  0  0  0  0  0  0  0
   -4.4011   -1.1984   -1.4400 O   0  0  0  0  0  0  0  0  0  0  0  0
   -6.2946    2.4822    2.7468 H   0  0  0  0  0  0  0  0  0  0  0  0
   -4.5677    2.7400    2.4148 H   0  0  0  0  0  0  0  0  0  0  0  0
   -5.0963    1.2245    3.1341 H   0  0  0  0  0  0  0  0  0  0  0  0
   -6.3621    0.6591    1.0540 H   0  0  0  0  0  0  0  0  0  0  0  0
   -5.8365    2.1580    0.2936 H   0  0  0  0  0  0  0  0  0  0  0  0
    1.8649   -1.6807   -0.3711 H   0  0  0  0  0  0  0  0  0  0  0  0
    4.2105   -1.2058   -0.1795 H   0  0  0  0  0  0  0  0  0  0  0  0
    6.1164   -0.4328   -0.9060 H   0  0  0  0  0  0  0  0  0  0  0  0
    7.2191    0.8871   -0.5905 H   0  0  0  0  0  0  0  0  0  0  0  0
    7.4881   -0.8326    1.1673 H   0  0  0  0  0  0  0  0  0  0  0  0
    6.8995    0.6969    1.8590 H   0  0  0  0  0  0  0  0  0  0  0  0
    5.7856   -0.6442    1.6375 H   0  0  0  0  0  0  0  0  0  0  0  0
    3.4128    3.0209   -0.3593 H   0  0  0  0  0  0  0  0  0  0  0  0
    1.0173    2.5635   -0.5910 H   0  0  0  0  0  0  0  0  0  0  0  0
    0.0404   -2.9179   -0.9260 H   0  0  0  0  0  0  0  0  0  0  0  0
   -0.9748   -2.6677   -2.3524 H   0  0  0  0  0  0  0  0  0  0  0  0
    0.6023   -1.9241   -2.3026 H   0  0  0  0  0  0  0  0  0  0  0  0
   -4.1757   -3.4197   -0.1929 H   0  0  0  0  0  0  0  0  0  0  0  0
   -2.4824   -3.1726    0.2489 H   0  0  0  0  0  0  0  0  0  0  0  0
   -2.9084   -3.6518   -1.4232 H   0  0  0  0  0  0  0  0  0  0  0  0
  1  2  1  0
  2  3  1  0
  3  4  1  0
  4  5  2  0
  4  6  1  0
  6  7  2  0
  7  8  1  0
  8  9  1  0
  9 10  2  0
 10 11  1  0
 11 12  2  0
 12 13  1  0
 13 14  1  0
 14 15  1  0
 12 16  1  0
 16 17  2  0
  8 18  1  0
 18 19  1  0
 18 20  2  0
 20 21  1  0
 21 22  1  0
 21 23  2  0
 20  6  1  0
 17  9  1  0
  1 24  1  0
  1 25  1  0
  1 26  1  0
  2 27  1  0
  2 28  1  0
 10 29  1  0
 11 30  1  0
 14 31  1  0
 14 32  1  0
 15 33  1  0
 15 34  1  0
 15 35  1  0
 16 36  1  0
 17 37  1  0
 19 38  1  0
 19 39  1  0
 19 40  1  0
 22 41  1  0
 22 42  1  0
 22 43  1  0
M  END
$$$$
