
     RDKit          3D

 61 63  0  0  0  0  0  0  0  0999 V2000
   -2.6700   -0.5164   -3.0908 C   0  0  0  0  0  0  0  0  0  0  0  0
   -1.1749   -0.5596   -2.8381 C   0  0  0  0  0  0  0  0  0  0  0  0
   -0.9730   -0.6060   -1.4224 O   0  0  0  0  0  0  0  0  0  0  0  0
    0.3255   -0.6375   -1.0146 C   0  0  0  0  0  0  0  0  0  0  0  0
    1.2809   -0.5522   -1.7807 O   0  0  0  0  0  0  0  0  0  0  0  0
    0.4833   -0.7741    0.4369 C   0  0  0  0  0  0  0  0  0  0  0  0
   -0.5601   -0.8733    1.4361 C   0  0  0  0  0  0  0  0  0  0  0  0
   -1.9994   -0.8472    1.2413 C   0  0  0  0  0  0  0  0  0  0  0  0
   -2.7010   -2.0357    1.0345 C   0  0  0  0  0  0  0  0  0  0  0  0
   -4.0756   -2.0011    0.7855 C   0  0  0  0  0  0  0  0  0  0  0  0
   -4.7731   -0.7840    0.7379 C   0  0  0  0  0  0  0  0  0  0  0  0
   -6.2114   -0.7558    0.4399 C   0  0  0  0  0  0  0  0  0  0  0  0
   -7.1345   -0.2424    1.3661 C   0  0  0  0  0  0  0  0  0  0  0  0
   -8.5039   -0.2299    1.0846 C   0  0  0  0  0  0  0  0  0  0  0  0
   -8.9736   -0.7336   -0.1285 C   0  0  0  0  0  0  0  0  0  0  0  0
   -8.0733   -1.2421   -1.0623 C   0  0  0  0  0  0  0  0  0  0  0  0
   -6.7018   -1.2519   -0.7793 C   0  0  0  0  0  0  0  0  0  0  0  0
   -4.0573    0.4000    0.9671 C   0  0  0  0  0  0  0  0  0  0  0  0
   -2.6817    0.3721    1.2165 C   0  0  0  0  0  0  0  0  0  0  0  0
   -0.0475   -1.0037    2.7127 C   0  0  0  0  0  0  0  0  0  0  0  0
    1.6541   -1.0140    2.7198 S   0  0  0  0  0  0  0  0  0  0  0  0
    1.7395   -0.8467    1.0328 C   0  0  0  0  0  0  0  0  0  0  0  0
    2.9600   -0.7869    0.3726 N   0  0  0  0  0  0  0  0  0  0  0  0
    4.2194   -1.0201    0.9030 C   0  0  0  0  0  0  0  0  0  0  0  0
    4.4957   -1.3110    2.0663 O   0  0  0  0  0  0  0  0  0  0  0  0
    5.3130   -0.9436   -0.1773 C   0  0  0  0  0  0  0  0  0  0  0  0
    6.6448   -0.6833    0.3966 N   0  0  0  0  0  0  0  0  0  0  0  0
    6.7841    0.6657    0.9730 C   0  0  0  0  0  0  0  0  0  0  0  0
    6.7314    1.8464   -0.0319 C   0  0  0  0  0  0  0  0  0  0  0  0
    5.3772    2.2887   -0.4326 N   0  0  0  0  0  0  0  0  0  0  0  0
    5.4876    3.2722   -1.5174 C   0  0  0  0  0  0  0  0  0  0  0  0
    4.6475    2.8797    0.6915 C   0  0  0  0  0  0  0  0  0  0  0  0
   -3.1492   -1.4063   -2.6701 H   0  0  0  0  0  0  0  0  0  0  0  0
   -2.8866   -0.4801   -4.1639 H   0  0  0  0  0  0  0  0  0  0  0  0
   -3.1259    0.3486   -2.6022 H   0  0  0  0  0  0  0  0  0  0  0  0
   -0.7570   -1.4664   -3.2909 H   0  0  0  0  0  0  0  0  0  0  0  0
   -0.6894    0.3286   -3.2619 H   0  0  0  0  0  0  0  0  0  0  0  0
   -2.1868   -2.9918    1.0517 H   0  0  0  0  0  0  0  0  0  0  0  0
   -4.6050   -2.9385    0.6255 H   0  0  0  0  0  0  0  0  0  0  0  0
   -6.7901    0.1415    2.3248 H   0  0  0  0  0  0  0  0  0  0  0  0
   -9.2042    0.1641    1.8162 H   0  0  0  0  0  0  0  0  0  0  0  0
  -10.0414   -0.7314   -0.3448 H   0  0  0  0  0  0  0  0  0  0  0  0
   -8.4334   -1.6295   -2.0127 H   0  0  0  0  0  0  0  0  0  0  0  0
   -6.0132   -1.6507   -1.5235 H   0  0  0  0  0  0  0  0  0  0  0  0
   -4.5639    1.3603    0.9258 H   0  0  0  0  0  0  0  0  0  0  0  0
   -2.1481    1.3067    1.3704 H   0  0  0  0  0  0  0  0  0  0  0  0
   -0.5915   -1.0948    3.6458 H   0  0  0  0  0  0  0  0  0  0  0  0
    2.8980   -0.6445   -0.6360 H   0  0  0  0  0  0  0  0  0  0  0  0
    5.0560   -0.2344   -0.9652 H   0  0  0  0  0  0  0  0  0  0  0  0
    5.3477   -1.9335   -0.6469 H   0  0  0  0  0  0  0  0  0  0  0  0
    6.7552   -1.3431    1.1738 H   0  0  0  0  0  0  0  0  0  0  0  0
    6.0942    0.8131    1.8097 H   0  0  0  0  0  0  0  0  0  0  0  0
    7.7850    0.6846    1.4265 H   0  0  0  0  0  0  0  0  0  0  0  0
    7.2969    1.5490   -0.9252 H   0  0  0  0  0  0  0  0  0  0  0  0
    7.2849    2.6888    0.4073 H   0  0  0  0  0  0  0  0  0  0  0  0
    6.0030    2.8413   -2.3826 H   0  0  0  0  0  0  0  0  0  0  0  0
    6.0333    4.1704   -1.2007 H   0  0  0  0  0  0  0  0  0  0  0  0
    4.4940    3.5682   -1.8714 H   0  0  0  0  0  0  0  0  0  0  0  0
    5.2300    3.6591    1.1971 H   0  0  0  0  0  0  0  0  0  0  0  0
    4.3709    2.1183    1.4276 H   0  0  0  0  0  0  0  0  0  0  0  0
    3.7048    3.3295    0.3549 H   0  0  0  0  0  0  0  0  0  0  0  0
  1  2  1  0
  2  3  1  0
  3  4  1  0
  4  5  2  0
  4  6  1  0
  6  7  1  0
  7  8  1  0
  8  9  2  0
  9 10  1  0
 10 11  2  0
 11 12  1  0
 12 13  2  0
 13 14  1  0
 14 15  2  0
 15 16  1  0
 16 17  2  0
 11 18  1  0
 18 19  2  0
  7 20  2  0
 20 21  1  0
 21 22  1  0
 22 23  1  0
 23 24  1  0
 24 25  2  0
 24 26  1  0
 26 27  1  0
 27 28  1  0
 28 29  1  0
 29 30  1  0
 30 31  1  0
 30 32  1  0
 22  6  2  0
 19  8  1  0
 17 12  1  0
  1 33  1  0
  1 34  1  0
  1 35  1  0
  2 36  1  0
  2 37  1  0
  9 38  1  0
 10 39  1  0
 13 40  1  0
 14 41  1  0
 15 42  1  0
 16 43  1  0
 17 44  1  0
 18 45  1  0
 19 46  1  0
 20 47  1  0
 23 48  1  0
 26 49  1  0
 26 50  1  0
 27 51  1  0
 28 52  1  0
 28 53  1  0
 29 54  1  0
 29 55  1  0
 31 56  1  0
 31 57  1  0
 31 58  1  0
 32 59  1  0
 32 60  1  0
 32 61  1  0
M  END
$$$$
