
     RDKit          3D

 53 55  0  0  0  0  0  0  0  0999 V2000
    4.5335    1.0615   -3.0687 C   0  0  0  0  0  0  0  0  0  0  0  0
    3.2798    0.2785   -3.0975 C   0  0  0  0  0  0  0  0  0  0  0  0
    2.5468    0.3807   -4.2426 O   0  0  0  0  0  0  0  0  0  0  0  0
    1.4848   -0.4531   -4.1131 C   0  0  0  0  0  0  0  0  0  0  0  0
    1.5196   -1.0868   -2.8950 C   0  0  0  0  0  0  0  0  0  0  0  0
    2.6601   -0.5820   -2.2055 C   0  0  0  0  0  0  0  0  0  0  0  0
    3.1395   -0.9760   -0.8920 C   0  0  0  0  0  0  0  0  0  0  0  0
    3.2964   -2.1673   -0.6313 O   0  0  0  0  0  0  0  0  0  0  0  0
    3.4064    0.0271    0.0512 N   0  0  0  0  0  0  0  0  0  0  0  0
    4.0492   -0.4106    1.2778 C   0  0  0  0  0  0  0  0  0  0  0  0
    2.8034    1.3680    0.0336 C   0  0  0  0  0  0  0  0  0  0  0  0
    1.4851    1.5593    0.8157 C   0  0  0  0  0  0  0  0  0  0  0  0
    1.6785    1.6537    2.3334 C   0  0  0  0  0  0  0  0  0  0  0  0
    0.3368    1.8898    3.0193 C   0  0  0  0  0  0  0  0  0  0  0  0
   -0.6949    0.8397    2.6026 C   0  0  0  0  0  0  0  0  0  0  0  0
   -0.8679    0.8114    1.1410 N   0  0  0  0  0  0  0  0  0  0  0  0
   -1.8814   -0.1849    0.7317 C   0  0  0  0  0  0  0  0  0  0  0  0
   -3.3161    0.2092    1.1223 C   0  0  0  0  0  0  0  0  0  0  0  0
   -4.3319   -0.7450    0.5445 C   0  0  0  0  0  0  0  0  0  0  0  0
   -5.0556   -0.4148   -0.6089 C   0  0  0  0  0  0  0  0  0  0  0  0
   -5.9826   -1.3146   -1.1421 C   0  0  0  0  0  0  0  0  0  0  0  0
   -6.1926   -2.5517   -0.5320 C   0  0  0  0  0  0  0  0  0  0  0  0
   -5.4743   -2.8912    0.6129 C   0  0  0  0  0  0  0  0  0  0  0  0
   -4.5530   -1.9908    1.1393 C   0  0  0  0  0  0  0  0  0  0  0  0
   -3.8653   -2.3362    2.2375 F   0  0  0  0  0  0  0  0  0  0  0  0
    0.4140    0.5145    0.4701 C   0  0  0  0  0  0  0  0  0  0  0  0
    5.1862    0.7400   -2.2520 H   0  0  0  0  0  0  0  0  0  0  0  0
    4.3144    2.1251   -2.9356 H   0  0  0  0  0  0  0  0  0  0  0  0
    5.0849    0.9386   -4.0060 H   0  0  0  0  0  0  0  0  0  0  0  0
    0.8164   -0.4950   -4.9617 H   0  0  0  0  0  0  0  0  0  0  0  0
    0.8125   -1.8206   -2.5333 H   0  0  0  0  0  0  0  0  0  0  0  0
    4.8397   -1.1326    1.0478 H   0  0  0  0  0  0  0  0  0  0  0  0
    3.3112   -0.9038    1.9159 H   0  0  0  0  0  0  0  0  0  0  0  0
    4.4981    0.4418    1.7948 H   0  0  0  0  0  0  0  0  0  0  0  0
    2.5999    1.6611   -0.9982 H   0  0  0  0  0  0  0  0  0  0  0  0
    3.5612    2.0725    0.3978 H   0  0  0  0  0  0  0  0  0  0  0  0
    1.0984    2.5395    0.4964 H   0  0  0  0  0  0  0  0  0  0  0  0
    2.3680    2.4689    2.5807 H   0  0  0  0  0  0  0  0  0  0  0  0
    2.1094    0.7328    2.7344 H   0  0  0  0  0  0  0  0  0  0  0  0
    0.4701    1.8645    4.1069 H   0  0  0  0  0  0  0  0  0  0  0  0
   -0.0339    2.8915    2.7669 H   0  0  0  0  0  0  0  0  0  0  0  0
   -0.3900   -0.1459    2.9781 H   0  0  0  0  0  0  0  0  0  0  0  0
   -1.6371    1.0997    3.0959 H   0  0  0  0  0  0  0  0  0  0  0  0
   -1.6325   -1.1761    1.1340 H   0  0  0  0  0  0  0  0  0  0  0  0
   -1.8562   -0.2812   -0.3626 H   0  0  0  0  0  0  0  0  0  0  0  0
   -3.5309    1.2277    0.7738 H   0  0  0  0  0  0  0  0  0  0  0  0
   -3.4412    0.2272    2.2111 H   0  0  0  0  0  0  0  0  0  0  0  0
   -4.9017    0.5443   -1.0992 H   0  0  0  0  0  0  0  0  0  0  0  0
   -6.5415   -1.0493   -2.0366 H   0  0  0  0  0  0  0  0  0  0  0  0
   -6.9141   -3.2495   -0.9491 H   0  0  0  0  0  0  0  0  0  0  0  0
   -5.6242   -3.8502    1.0982 H   0  0  0  0  0  0  0  0  0  0  0  0
    0.2575    0.5330   -0.6148 H   0  0  0  0  0  0  0  0  0  0  0  0
    0.7569   -0.4921    0.7413 H   0  0  0  0  0  0  0  0  0  0  0  0
  1  2  1  0
  2  3  1  0
  3  4  1  0
  4  5  2  0
  5  6  1  0
  6  7  1  0
  7  8  2  0
  7  9  1  0
  9 10  1  0
  9 11  1  0
 11 12  1  0
 12 13  1  0
 13 14  1  0
 14 15  1  0
 15 16  1  0
 16 17  1  0
 17 18  1  0
 18 19  1  0
 19 20  2  0
 20 21  1  0
 21 22  2  0
 22 23  1  0
 23 24  2  0
 24 25  1  0
 16 26  1  0
  6  2  2  0
 26 12  1  0
 24 19  1  0
  1 27  1  0
  1 28  1  0
  1 29  1  0
  4 30  1  0
  5 31  1  0
 10 32  1  0
 10 33  1  0
 10 34  1  0
 11 35  1  0
 11 36  1  0
 12 37  1  0
 13 38  1  0
 13 39  1  0
 14 40  1  0
 14 41  1  0
 15 42  1  0
 15 43  1  0
 17 44  1  0
 17 45  1  0
 18 46  1  0
 18 47  1  0
 20 48  1  0
 21 49  1  0
 22 50  1  0
 23 51  1  0
 26 52  1  0
 26 53  1  0
M  END
$$$$
