
     RDKit          3D

 32 33  0  0  0  0  0  0  0  0999 V2000
   -6.4354   -0.6646   -0.2417 C   0  0  0  0  0  0  0  0  0  0  0  0
   -5.5248   -0.7250   -1.4533 C   0  0  0  0  0  0  0  0  0  0  0  0
   -4.1507   -0.7160   -1.0387 O   0  0  0  0  0  0  0  0  0  0  0  0
   -3.5963    0.5097   -0.8636 C   0  0  0  0  0  0  0  0  0  0  0  0
   -4.1600    1.5810   -1.0226 O   0  0  0  0  0  0  0  0  0  0  0  0
   -2.1752    0.3866   -0.4381 C   0  0  0  0  0  0  0  0  0  0  0  0
   -1.5540   -0.8523   -0.2360 C   0  0  0  0  0  0  0  0  0  0  0  0
   -0.2148   -0.9118    0.1622 C   0  0  0  0  0  0  0  0  0  0  0  0
    0.5218    0.2639    0.3691 C   0  0  0  0  0  0  0  0  0  0  0  0
    1.9728    0.1971    0.7827 C   0  0  0  0  0  0  0  0  0  0  0  0
    3.0680    0.1507   -0.6661 S   0  0  0  0  0  0  0  0  0  0  0  0
    4.6243    0.0489    0.1213 C   0  0  0  0  0  0  0  0  0  0  0  0
    4.7678    0.0827    1.4274 N   0  0  0  0  0  0  0  0  0  0  0  0
    6.0935   -0.0200    1.8025 N   0  0  0  0  0  0  0  0  0  0  0  0
    6.9000   -0.1254    0.7703 C   0  0  0  0  0  0  0  0  0  0  0  0
    8.2395   -0.2354    0.8556 N   0  0  0  0  0  0  0  0  0  0  0  0
    6.0937   -0.0945   -0.7462 S   0  0  0  0  0  0  0  0  0  0  0  0
   -0.1022    1.5017    0.1588 C   0  0  0  0  0  0  0  0  0  0  0  0
   -1.4405    1.5623   -0.2390 C   0  0  0  0  0  0  0  0  0  0  0  0
   -7.4851   -0.7281   -0.5418 H   0  0  0  0  0  0  0  0  0  0  0  0
   -6.2871    0.2659    0.3154 H   0  0  0  0  0  0  0  0  0  0  0  0
   -6.2137   -1.4866    0.4469 H   0  0  0  0  0  0  0  0  0  0  0  0
   -5.7360    0.0899   -2.1552 H   0  0  0  0  0  0  0  0  0  0  0  0
   -5.6901   -1.6637   -1.9925 H   0  0  0  0  0  0  0  0  0  0  0  0
   -2.0978   -1.7816   -0.3865 H   0  0  0  0  0  0  0  0  0  0  0  0
    0.2518   -1.8846    0.3073 H   0  0  0  0  0  0  0  0  0  0  0  0
    2.1350   -0.6948    1.3994 H   0  0  0  0  0  0  0  0  0  0  0  0
    2.2153    1.0673    1.4040 H   0  0  0  0  0  0  0  0  0  0  0  0
    8.6468    0.0371    1.7442 H   0  0  0  0  0  0  0  0  0  0  0  0
    8.7899    0.0396    0.0505 H   0  0  0  0  0  0  0  0  0  0  0  0
    0.4507    2.4285    0.2997 H   0  0  0  0  0  0  0  0  0  0  0  0
   -1.9072    2.5333   -0.3960 H   0  0  0  0  0  0  0  0  0  0  0  0
  1  2  1  0
  2  3  1  0
  3  4  1  0
  4  5  2  0
  4  6  1  0
  6  7  2  0
  7  8  1  0
  8  9  2  0
  9 10  1  0
 10 11  1  0
 11 12  1  0
 12 13  2  0
 13 14  1  0
 14 15  2  0
 15 16  1  0
 15 17  1  0
  9 18  1  0
 18 19  2  0
 19  6  1  0
 17 12  1  0
  1 20  1  0
  1 21  1  0
  1 22  1  0
  2 23  1  0
  2 24  1  0
  7 25  1  0
  8 26  1  0
 10 27  1  0
 10 28  1  0
 16 29  1  0
 16 30  1  0
 18 31  1  0
 19 32  1  0
M  END
$$$$
