
     RDKit          3D

 51 53  0  0  0  0  0  0  0  0999 V2000
   -0.8492    5.5915    0.3550 C   0  0  0  0  0  0  0  0  0  0  0  0
   -1.5384    4.3916   -0.2783 C   0  0  0  0  0  0  0  0  0  0  0  0
   -0.9999    4.1275   -1.6834 C   0  0  0  0  0  0  0  0  0  0  0  0
   -1.8292    2.7033   -2.4708 S   0  0  0  0  0  0  0  0  0  0  0  0
   -1.0376    1.3246   -1.6498 C   0  0  0  0  0  0  0  0  0  0  0  0
   -1.5412    0.0592   -1.8621 C   0  0  0  0  0  0  0  0  0  0  0  0
   -0.9208   -0.9927   -1.2185 C   0  0  0  0  0  0  0  0  0  0  0  0
   -1.3595   -2.3012   -1.3895 N   0  0  0  0  0  0  0  0  0  0  0  0
   -2.8039   -2.5778   -1.4907 C   0  0  0  0  0  0  0  0  0  0  0  0
   -3.2279   -3.7748   -0.6053 C   0  0  0  0  0  0  0  0  0  0  0  0
   -2.4606   -5.0221   -0.7947 N   0  0  0  0  0  0  0  0  0  0  0  0
   -3.1033   -5.9188   -1.7514 C   0  0  0  0  0  0  0  0  0  0  0  0
   -1.0627   -4.7441   -1.1982 C   0  0  0  0  0  0  0  0  0  0  0  0
   -0.5440   -3.3557   -0.7621 C   0  0  0  0  0  0  0  0  0  0  0  0
    0.1550   -0.7687   -0.4454 N   0  0  0  0  0  0  0  0  0  0  0  0
    0.5881    0.4958   -0.2917 C   0  0  0  0  0  0  0  0  0  0  0  0
    1.7615    0.7224    0.5776 C   0  0  0  0  0  0  0  0  0  0  0  0
    2.2710    2.0149    0.8077 C   0  0  0  0  0  0  0  0  0  0  0  0
    3.3842    2.2367    1.6323 C   0  0  0  0  0  0  0  0  0  0  0  0
    4.0204    1.1647    2.2520 C   0  0  0  0  0  0  0  0  0  0  0  0
    5.1095    1.2384    3.0749 O   0  0  0  0  0  0  0  0  0  0  0  0
    5.6458    2.5331    3.3160 C   0  0  0  0  0  0  0  0  0  0  0  0
    3.5329   -0.1240    2.0398 C   0  0  0  0  0  0  0  0  0  0  0  0
    2.4218   -0.3421    1.2163 C   0  0  0  0  0  0  0  0  0  0  0  0
    0.0230    1.5653   -0.8697 N   0  0  0  0  0  0  0  0  0  0  0  0
   -1.2457    5.7672    1.3603 H   0  0  0  0  0  0  0  0  0  0  0  0
   -1.0129    6.4973   -0.2380 H   0  0  0  0  0  0  0  0  0  0  0  0
    0.2291    5.4245    0.4388 H   0  0  0  0  0  0  0  0  0  0  0  0
   -2.6173    4.5847   -0.3174 H   0  0  0  0  0  0  0  0  0  0  0  0
   -1.3874    3.5230    0.3717 H   0  0  0  0  0  0  0  0  0  0  0  0
    0.0862    3.9880   -1.6833 H   0  0  0  0  0  0  0  0  0  0  0  0
   -1.2031    4.9996   -2.3156 H   0  0  0  0  0  0  0  0  0  0  0  0
   -2.3792   -0.0984   -2.5274 H   0  0  0  0  0  0  0  0  0  0  0  0
   -3.4083   -1.7157   -1.1828 H   0  0  0  0  0  0  0  0  0  0  0  0
   -3.0433   -2.7927   -2.5391 H   0  0  0  0  0  0  0  0  0  0  0  0
   -3.0959   -3.4783    0.4439 H   0  0  0  0  0  0  0  0  0  0  0  0
   -4.3044   -3.9536   -0.7200 H   0  0  0  0  0  0  0  0  0  0  0  0
   -4.0982   -6.2090   -1.3960 H   0  0  0  0  0  0  0  0  0  0  0  0
   -3.2117   -5.4601   -2.7405 H   0  0  0  0  0  0  0  0  0  0  0  0
   -2.5268   -6.8442   -1.8597 H   0  0  0  0  0  0  0  0  0  0  0  0
   -0.4183   -5.5213   -0.7711 H   0  0  0  0  0  0  0  0  0  0  0  0
   -0.9607   -4.8044   -2.2910 H   0  0  0  0  0  0  0  0  0  0  0  0
   -0.5743   -3.2714    0.3321 H   0  0  0  0  0  0  0  0  0  0  0  0
    0.5017   -3.2690   -1.0827 H   0  0  0  0  0  0  0  0  0  0  0  0
    1.7967    2.8756    0.3381 H   0  0  0  0  0  0  0  0  0  0  0  0
    3.7226    3.2588    1.7643 H   0  0  0  0  0  0  0  0  0  0  0  0
    6.5061    2.4193    3.9823 H   0  0  0  0  0  0  0  0  0  0  0  0
    4.9162    3.1746    3.8213 H   0  0  0  0  0  0  0  0  0  0  0  0
    6.0020    2.9928    2.3881 H   0  0  0  0  0  0  0  0  0  0  0  0
    4.0198   -0.9702    2.5180 H   0  0  0  0  0  0  0  0  0  0  0  0
    2.0722   -1.3638    1.0762 H   0  0  0  0  0  0  0  0  0  0  0  0
  1  2  1  0
  2  3  1  0
  3  4  1  0
  4  5  1  0
  5  6  2  0
  6  7  1  0
  7  8  1  0
  8  9  1  0
  9 10  1  0
 10 11  1  0
 11 12  1  0
 11 13  1  0
 13 14  1  0
  7 15  2  0
 15 16  1  0
 16 17  1  0
 17 18  2  0
 18 19  1  0
 19 20  2  0
 20 21  1  0
 21 22  1  0
 20 23  1  0
 23 24  2  0
 16 25  2  0
 25  5  1  0
 14  8  1  0
 24 17  1  0
  1 26  1  0
  1 27  1  0
  1 28  1  0
  2 29  1  0
  2 30  1  0
  3 31  1  0
  3 32  1  0
  6 33  1  0
  9 34  1  0
  9 35  1  0
 10 36  1  0
 10 37  1  0
 12 38  1  0
 12 39  1  0
 12 40  1  0
 13 41  1  0
 13 42  1  0
 14 43  1  0
 14 44  1  0
 18 45  1  0
 19 46  1  0
 22 47  1  0
 22 48  1  0
 22 49  1  0
 23 50  1  0
 24 51  1  0
M  END
$$$$
