
     RDKit          3D

 46 49  0  0  0  0  0  0  0  0999 V2000
    8.5702   -2.3464   -1.3366 O   0  0  0  0  0  0  0  0  0  0  0  0
    8.2536   -1.5523   -0.4390 N   0  0  0  0  0  4  0  0  0  0  0  0
    9.0617   -0.9147    0.2515 O   0  0  0  0  0  1  0  0  0  0  0  0
    6.8232   -1.3552   -0.1740 C   0  0  0  0  0  0  0  0  0  0  0  0
    5.8743   -2.0517   -0.9328 C   0  0  0  0  0  0  0  0  0  0  0  0
    4.5141   -1.8591   -0.6785 C   0  0  0  0  0  0  0  0  0  0  0  0
    4.0944   -0.9829    0.3345 C   0  0  0  0  0  0  0  0  0  0  0  0
    2.6223   -0.7589    0.5894 C   0  0  0  0  0  0  0  0  0  0  0  0
    2.2046    0.3365   -0.2211 O   0  0  0  0  0  0  0  0  0  0  0  0
    0.8897    0.7023   -0.1465 C   0  0  0  0  0  0  0  0  0  0  0  0
   -0.0827    0.1153    0.6591 C   0  0  0  0  0  0  0  0  0  0  0  0
   -1.4000    0.5938    0.6356 C   0  0  0  0  0  0  0  0  0  0  0  0
   -1.7775    1.6567   -0.1975 C   0  0  0  0  0  0  0  0  0  0  0  0
   -3.1687    2.1361   -0.2078 C   0  0  0  0  0  0  0  0  0  0  0  0
   -3.4675    3.4608   -0.4351 N   0  0  0  0  0  0  0  0  0  0  0  0
   -4.7705    3.7708   -0.3331 N   0  0  0  0  0  0  0  0  0  0  0  0
   -5.3447    2.5918   -0.0977 C   0  0  0  0  0  0  0  0  0  0  0  0
   -4.4085    1.5336   -0.0262 C   0  0  0  0  0  0  0  0  0  0  0  0
   -4.6645    0.1207    0.1684 C   0  0  0  0  0  0  0  0  0  0  0  0
   -5.3850   -0.3123    1.2889 C   0  0  0  0  0  0  0  0  0  0  0  0
   -5.6409   -1.6732    1.4781 C   0  0  0  0  0  0  0  0  0  0  0  0
   -5.1832   -2.6008    0.5437 C   0  0  0  0  0  0  0  0  0  0  0  0
   -5.4947   -4.2761    0.7799 Cl  0  0  0  0  0  0  0  0  0  0  0  0
   -4.4750   -2.1806   -0.5804 C   0  0  0  0  0  0  0  0  0  0  0  0
   -4.2186   -0.8202   -0.7697 C   0  0  0  0  0  0  0  0  0  0  0  0
   -0.7765    2.2492   -0.9863 C   0  0  0  0  0  0  0  0  0  0  0  0
   -1.0846    3.3206   -1.7876 O   0  0  0  0  0  0  0  0  0  0  0  0
    0.5383    1.7756   -0.9667 C   0  0  0  0  0  0  0  0  0  0  0  0
    5.0568   -0.2823    1.0782 C   0  0  0  0  0  0  0  0  0  0  0  0
    6.4193   -0.4680    0.8314 C   0  0  0  0  0  0  0  0  0  0  0  0
    6.1739   -2.7374   -1.7228 H   0  0  0  0  0  0  0  0  0  0  0  0
    3.7800   -2.3920   -1.2808 H   0  0  0  0  0  0  0  0  0  0  0  0
    2.4681   -0.5368    1.6529 H   0  0  0  0  0  0  0  0  0  0  0  0
    2.0652   -1.6684    0.3313 H   0  0  0  0  0  0  0  0  0  0  0  0
    0.1401   -0.7125    1.3244 H   0  0  0  0  0  0  0  0  0  0  0  0
   -2.1265    0.1255    1.2959 H   0  0  0  0  0  0  0  0  0  0  0  0
   -2.8046    4.1930   -0.6692 H   0  0  0  0  0  0  0  0  0  0  0  0
   -6.4218    2.5439   -0.0011 H   0  0  0  0  0  0  0  0  0  0  0  0
   -5.7426    0.4033    2.0264 H   0  0  0  0  0  0  0  0  0  0  0  0
   -6.1962   -2.0006    2.3531 H   0  0  0  0  0  0  0  0  0  0  0  0
   -4.1232   -2.9018   -1.3130 H   0  0  0  0  0  0  0  0  0  0  0  0
   -3.6720   -0.4987   -1.6542 H   0  0  0  0  0  0  0  0  0  0  0  0
   -0.3199    3.5110   -2.3587 H   0  0  0  0  0  0  0  0  0  0  0  0
    1.3073    2.2366   -1.5802 H   0  0  0  0  0  0  0  0  0  0  0  0
    4.7471    0.4196    1.8510 H   0  0  0  0  0  0  0  0  0  0  0  0
    7.1455    0.0861    1.4227 H   0  0  0  0  0  0  0  0  0  0  0  0
  1  2  2  0
  2  3  1  0
  2  4  1  0
  4  5  2  0
  5  6  1  0
  6  7  2  0
  7  8  1  0
  8  9  1  0
  9 10  1  0
 10 11  2  0
 11 12  1  0
 12 13  2  0
 13 14  1  0
 14 15  1  0
 15 16  1  0
 16 17  2  0
 17 18  1  0
 18 19  1  0
 19 20  2  0
 20 21  1  0
 21 22  2  0
 22 23  1  0
 22 24  1  0
 24 25  2  0
 13 26  1  0
 26 27  1  0
 26 28  2  0
  7 29  1  0
 29 30  2  0
 30  4  1  0
 28 10  1  0
 18 14  2  0
 25 19  1  0
  5 31  1  0
  6 32  1  0
  8 33  1  0
  8 34  1  0
 11 35  1  0
 12 36  1  0
 15 37  1  0
 17 38  1  0
 20 39  1  0
 21 40  1  0
 24 41  1  0
 25 42  1  0
 27 43  1  0
 28 44  1  0
 29 45  1  0
 30 46  1  0
M  CHG  2   2   1   3  -1
M  END
$$$$
