
     RDKit          3D

 44 47  0  0  0  0  0  0  0  0999 V2000
    5.7957   -1.4281    1.1358 C   0  0  0  0  0  0  0  0  0  0  0  0
    5.0724   -0.0913    1.2015 C   0  0  0  0  0  0  0  0  0  0  0  0
    3.7222   -0.0967    0.5421 C   0  0  0  0  0  0  0  0  0  0  0  0
    2.9052   -1.1536    0.1857 C   0  0  0  0  0  0  0  0  0  0  0  0
    1.6865   -0.7156   -0.4119 C   0  0  0  0  0  0  0  0  0  0  0  0
    0.5824   -1.4980   -0.9238 C   0  0  0  0  0  0  0  0  0  0  0  0
    0.6484   -2.7235   -0.9800 O   0  0  0  0  0  0  0  0  0  0  0  0
   -0.5100   -0.7412   -1.3739 N   0  0  0  0  0  0  0  0  0  0  0  0
   -1.6657   -1.5252   -1.8148 C   0  0  0  0  0  0  0  0  0  0  0  0
   -2.4840   -2.0638   -0.6585 C   0  0  0  0  0  0  0  0  0  0  0  0
   -2.4638   -3.4343   -0.3571 C   0  0  0  0  0  0  0  0  0  0  0  0
   -3.2106   -3.9427    0.7068 C   0  0  0  0  0  0  0  0  0  0  0  0
   -3.9845   -3.0872    1.4863 C   0  0  0  0  0  0  0  0  0  0  0  0
   -4.0097   -1.7241    1.2027 C   0  0  0  0  0  0  0  0  0  0  0  0
   -3.2653   -1.2150    0.1365 C   0  0  0  0  0  0  0  0  0  0  0  0
   -0.4331    0.6516   -1.4157 C   0  0  0  0  0  0  0  0  0  0  0  0
   -1.7692    1.5470   -2.1306 S   0  0  0  0  0  0  0  0  0  0  0  0
   -1.8190    3.0537   -1.1266 C   0  0  0  0  0  0  0  0  0  0  0  0
   -0.8093    4.1124   -1.5071 C   0  0  0  0  0  0  0  0  0  0  0  0
   -0.6323    4.8635   -0.2087 C   0  0  0  0  0  0  0  0  0  0  0  0
   -0.8654    3.9194    0.8373 O   0  0  0  0  0  0  0  0  0  0  0  0
   -1.5554    2.8475    0.3419 C   0  0  0  0  0  0  0  0  0  0  0  0
   -1.9466    1.9141    1.0255 O   0  0  0  0  0  0  0  0  0  0  0  0
    0.5790    1.3569   -1.0138 N   0  0  0  0  0  0  0  0  0  0  0  0
    1.6039    0.6490   -0.4924 C   0  0  0  0  0  0  0  0  0  0  0  0
    2.9836    1.4088    0.1541 S   0  0  0  0  0  0  0  0  0  0  0  0
    5.9229   -1.7625    0.1008 H   0  0  0  0  0  0  0  0  0  0  0  0
    6.7889   -1.3416    1.5878 H   0  0  0  0  0  0  0  0  0  0  0  0
    5.2490   -2.2047    1.6804 H   0  0  0  0  0  0  0  0  0  0  0  0
    5.7095    0.6649    0.7260 H   0  0  0  0  0  0  0  0  0  0  0  0
    4.9537    0.1998    2.2521 H   0  0  0  0  0  0  0  0  0  0  0  0
    3.1544   -2.1969    0.3420 H   0  0  0  0  0  0  0  0  0  0  0  0
   -2.3274   -0.9643   -2.4787 H   0  0  0  0  0  0  0  0  0  0  0  0
   -1.3006   -2.3612   -2.4259 H   0  0  0  0  0  0  0  0  0  0  0  0
   -1.8509   -4.1175   -0.9429 H   0  0  0  0  0  0  0  0  0  0  0  0
   -3.1802   -5.0055    0.9315 H   0  0  0  0  0  0  0  0  0  0  0  0
   -4.5622   -3.4810    2.3182 H   0  0  0  0  0  0  0  0  0  0  0  0
   -4.6036   -1.0518    1.8164 H   0  0  0  0  0  0  0  0  0  0  0  0
   -3.3003   -0.1464   -0.0542 H   0  0  0  0  0  0  0  0  0  0  0  0
   -2.8286    3.4738   -1.2087 H   0  0  0  0  0  0  0  0  0  0  0  0
   -1.1533    4.7637   -2.3170 H   0  0  0  0  0  0  0  0  0  0  0  0
    0.1533    3.6924   -1.8161 H   0  0  0  0  0  0  0  0  0  0  0  0
   -1.3565    5.6789   -0.1058 H   0  0  0  0  0  0  0  0  0  0  0  0
    0.3764    5.2765   -0.1122 H   0  0  0  0  0  0  0  0  0  0  0  0
  1  2  1  0
  2  3  1  0
  3  4  2  0
  4  5  1  0
  5  6  1  0
  6  7  2  0
  6  8  1  0
  8  9  1  0
  9 10  1  0
 10 11  2  0
 11 12  1  0
 12 13  2  0
 13 14  1  0
 14 15  2  0
  8 16  1  0
 16 17  1  0
 17 18  1  0
 18 19  1  0
 19 20  1  0
 20 21  1  0
 21 22  1  0
 22 23  2  0
 16 24  2  0
 24 25  1  0
 25 26  1  0
 26  3  1  0
 25  5  2  0
 15 10  1  0
 22 18  1  0
  1 27  1  0
  1 28  1  0
  1 29  1  0
  2 30  1  0
  2 31  1  0
  4 32  1  0
  9 33  1  0
  9 34  1  0
 11 35  1  0
 12 36  1  0
 13 37  1  0
 14 38  1  0
 15 39  1  0
 18 40  1  0
 19 41  1  0
 19 42  1  0
 20 43  1  0
 20 44  1  0
M  END
$$$$
