
     RDKit          3D

 59 63  0  0  0  0  0  0  0  0999 V2000
   -6.0258    0.5680   -2.2792 C   0  0  0  0  0  0  0  0  0  0  0  0
   -4.6535   -0.0905   -2.3590 C   0  0  0  0  0  0  0  0  0  0  0  0
   -3.6485    0.6157   -1.4273 C   0  0  0  0  0  0  0  0  0  0  0  0
   -2.2919    0.0063   -1.5043 N   0  0  0  0  0  0  0  0  0  0  0  0
   -1.9803   -0.7176   -0.3336 C   0  0  0  0  0  0  0  0  0  0  0  0
   -2.8907   -1.5900    0.1539 N   0  0  0  0  0  0  0  0  0  0  0  0
   -2.5724   -2.2786    1.2664 C   0  0  0  0  0  0  0  0  0  0  0  0
   -3.4822   -3.1875    1.7920 C   0  0  0  0  0  0  0  0  0  0  0  0
   -3.1921   -3.9256    2.9411 C   0  0  0  0  0  0  0  0  0  0  0  0
   -1.9676   -3.7540    3.5736 C   0  0  0  0  0  0  0  0  0  0  0  0
   -1.0482   -2.8409    3.0561 C   0  0  0  0  0  0  0  0  0  0  0  0
   -1.3304   -2.0993    1.9145 C   0  0  0  0  0  0  0  0  0  0  0  0
   -0.4202   -1.2270    1.4436 N   0  0  0  0  0  0  0  0  0  0  0  0
   -0.7422   -0.5424    0.3031 C   0  0  0  0  0  0  0  0  0  0  0  0
    0.2324    0.5020   -0.2038 C   0  0  0  0  0  0  0  0  0  0  0  0
    0.0877    1.7604    0.5424 C   0  0  0  0  0  0  0  0  0  0  0  0
   -0.0498    2.7531    1.1330 N   0  0  0  0  0  0  0  0  0  0  0  0
    1.6822    0.0349   -0.1710 C   0  0  0  0  0  0  0  0  0  0  0  0
    2.3659    0.0058   -1.1964 O   0  0  0  0  0  0  0  0  0  0  0  0
    2.1862   -0.3306    1.0590 N   0  0  0  0  0  0  0  0  0  0  0  0
    3.5573   -0.7418    1.2478 C   0  0  0  0  0  0  0  0  0  0  0  0
    4.4352    0.4424    1.5619 C   0  0  0  0  0  0  0  0  0  0  0  0
    4.3478    1.0865    2.8193 C   0  0  0  0  0  0  0  0  0  0  0  0
    5.1407    2.2011    3.1149 C   0  0  0  0  0  0  0  0  0  0  0  0
    6.0059    2.6484    2.1390 C   0  0  0  0  0  0  0  0  0  0  0  0
    6.0945    2.0343    0.9116 C   0  0  0  0  0  0  0  0  0  0  0  0
    5.3236    0.9372    0.5908 C   0  0  0  0  0  0  0  0  0  0  0  0
    7.0016    2.6343    0.0942 O   0  0  0  0  0  0  0  0  0  0  0  0
    7.4494    3.7164    0.9385 C   0  0  0  0  0  0  0  0  0  0  0  0
    6.8458    3.7130    2.2487 O   0  0  0  0  0  0  0  0  0  0  0  0
   -2.1270   -0.8882   -2.6825 C   0  0  0  0  0  0  0  0  0  0  0  0
   -2.8347   -0.3149   -3.9309 C   0  0  0  0  0  0  0  0  0  0  0  0
   -2.1580    0.9465   -4.4590 C   0  0  0  0  0  0  0  0  0  0  0  0
   -4.2330   -0.0299   -3.7346 O   0  0  0  0  0  0  0  0  0  0  0  0
   -6.4330    0.5191   -1.2650 H   0  0  0  0  0  0  0  0  0  0  0  0
   -6.7265    0.0769   -2.9638 H   0  0  0  0  0  0  0  0  0  0  0  0
   -5.9735    1.6190   -2.5872 H   0  0  0  0  0  0  0  0  0  0  0  0
   -4.7610   -1.1463   -2.0832 H   0  0  0  0  0  0  0  0  0  0  0  0
   -4.0302    0.6580   -0.3984 H   0  0  0  0  0  0  0  0  0  0  0  0
   -3.5353    1.6590   -1.7498 H   0  0  0  0  0  0  0  0  0  0  0  0
   -4.4402   -3.3229    1.2943 H   0  0  0  0  0  0  0  0  0  0  0  0
   -3.9199   -4.6312    3.3345 H   0  0  0  0  0  0  0  0  0  0  0  0
   -1.7270   -4.3234    4.4685 H   0  0  0  0  0  0  0  0  0  0  0  0
   -0.0920   -2.7047    3.5548 H   0  0  0  0  0  0  0  0  0  0  0  0
    0.0349    0.7120   -1.2613 H   0  0  0  0  0  0  0  0  0  0  0  0
    1.5176   -0.5091    1.8082 H   0  0  0  0  0  0  0  0  0  0  0  0
    3.5861   -1.4566    2.0784 H   0  0  0  0  0  0  0  0  0  0  0  0
    3.9115   -1.2668    0.3525 H   0  0  0  0  0  0  0  0  0  0  0  0
    3.6475    0.7235    3.5700 H   0  0  0  0  0  0  0  0  0  0  0  0
    5.0726    2.7045    4.0730 H   0  0  0  0  0  0  0  0  0  0  0  0
    5.3985    0.4831   -0.3933 H   0  0  0  0  0  0  0  0  0  0  0  0
    7.2116    4.6676    0.4460 H   0  0  0  0  0  0  0  0  0  0  0  0
    8.5358    3.6428    1.0546 H   0  0  0  0  0  0  0  0  0  0  0  0
   -2.5584   -1.8774   -2.4784 H   0  0  0  0  0  0  0  0  0  0  0  0
   -1.0587   -1.0309   -2.8897 H   0  0  0  0  0  0  0  0  0  0  0  0
   -2.7852   -1.0708   -4.7246 H   0  0  0  0  0  0  0  0  0  0  0  0
   -2.6634    1.2947   -5.3673 H   0  0  0  0  0  0  0  0  0  0  0  0
   -1.1055    0.7619   -4.6967 H   0  0  0  0  0  0  0  0  0  0  0  0
   -2.2138    1.7706   -3.7399 H   0  0  0  0  0  0  0  0  0  0  0  0
  1  2  1  0
  2  3  1  0
  3  4  1  0
  4  5  1  0
  5  6  2  0
  6  7  1  0
  7  8  2  0
  8  9  1  0
  9 10  2  0
 10 11  1  0
 11 12  2  0
 12 13  1  0
 13 14  2  0
 14 15  1  0
 15 16  1  0
 16 17  3  0
 15 18  1  0
 18 19  2  0
 18 20  1  0
 20 21  1  0
 21 22  1  0
 22 23  2  0
 23 24  1  0
 24 25  2  0
 25 26  1  0
 26 27  2  0
 26 28  1  0
 28 29  1  0
 29 30  1  0
  4 31  1  0
 31 32  1  0
 32 33  1  0
 32 34  1  0
 34  2  1  0
 14  5  1  0
 27 22  1  0
 12  7  1  0
 30 25  1  0
  1 35  1  0
  1 36  1  0
  1 37  1  0
  2 38  1  0
  3 39  1  0
  3 40  1  0
  8 41  1  0
  9 42  1  0
 10 43  1  0
 11 44  1  0
 15 45  1  0
 20 46  1  0
 21 47  1  0
 21 48  1  0
 23 49  1  0
 24 50  1  0
 27 51  1  0
 29 52  1  0
 29 53  1  0
 31 54  1  0
 31 55  1  0
 32 56  1  0
 33 57  1  0
 33 58  1  0
 33 59  1  0
M  END
$$$$
