
     RDKit          3D

 52 56  0  0  0  0  0  0  0  0999 V2000
    8.1687    0.6604   -0.1195 C   0  0  0  0  0  0  0  0  0  0  0  0
    7.6172   -0.7275    0.1574 C   0  0  0  0  0  0  0  0  0  0  0  0
    6.3413   -0.6508    0.7917 O   0  0  0  0  0  0  0  0  0  0  0  0
    5.2200   -0.5742    0.0173 C   0  0  0  0  0  0  0  0  0  0  0  0
    5.1731   -0.4851   -1.3691 C   0  0  0  0  0  0  0  0  0  0  0  0
    3.9368   -0.4090   -2.0252 C   0  0  0  0  0  0  0  0  0  0  0  0
    2.7357   -0.4178   -1.3309 C   0  0  0  0  0  0  0  0  0  0  0  0
    1.5805   -0.3417   -2.0056 N   0  0  0  0  0  0  0  0  0  0  0  0
    0.4247   -0.3391   -1.3010 C   0  0  0  0  0  0  0  0  0  0  0  0
   -0.9410   -0.2199   -2.3415 Cl  0  0  0  0  0  0  0  0  0  0  0  0
    0.3402   -0.4378    0.0837 C   0  0  0  0  0  0  0  0  0  0  0  0
   -0.9420   -0.4605    0.8844 C   0  0  0  0  0  0  0  0  0  0  0  0
   -1.8571   -1.6411    0.5725 C   0  0  0  0  0  0  0  0  0  0  0  0
   -3.1376   -0.9135    0.2580 C   0  0  0  0  0  0  0  0  0  0  0  0
   -4.3722   -1.6388   -0.1230 C   0  0  0  0  0  0  0  0  0  0  0  0
   -4.4084   -3.0361   -0.1919 C   0  0  0  0  0  0  0  0  0  0  0  0
   -5.5903   -3.6875   -0.5552 C   0  0  0  0  0  0  0  0  0  0  0  0
   -6.7356   -2.9489   -0.8504 C   0  0  0  0  0  0  0  0  0  0  0  0
   -6.7039   -1.5573   -0.7845 C   0  0  0  0  0  0  0  0  0  0  0  0
   -5.5255   -0.9025   -0.4219 C   0  0  0  0  0  0  0  0  0  0  0  0
   -3.0805    0.3801    0.3621 N   0  0  0  0  0  0  0  0  0  0  0  0
   -1.7864    0.7111    0.6873 N   0  0  0  0  0  0  0  0  0  0  0  0
   -1.4278    1.9760    1.1684 C   0  0  0  0  0  0  0  0  0  0  0  0
   -0.3921    2.1094    1.8292 O   0  0  0  0  0  0  0  0  0  0  0  0
   -2.3057    3.1134    0.9105 C   0  0  0  0  0  0  0  0  0  0  0  0
   -2.5060    4.1989    1.7467 C   0  0  0  0  0  0  0  0  0  0  0  0
   -3.3818    5.1730    1.1866 C   0  0  0  0  0  0  0  0  0  0  0  0
   -3.7971    4.8199   -0.0769 C   0  0  0  0  0  0  0  0  0  0  0  0
   -3.1199    3.3341   -0.5823 S   0  0  0  0  0  0  0  0  0  0  0  0
    1.5643   -0.5149    0.7662 C   0  0  0  0  0  0  0  0  0  0  0  0
    2.7814   -0.5056    0.0699 C   0  0  0  0  0  0  0  0  0  0  0  0
    4.0203   -0.5801    0.7318 C   0  0  0  0  0  0  0  0  0  0  0  0
    9.1783    0.5988   -0.5356 H   0  0  0  0  0  0  0  0  0  0  0  0
    8.2037    1.2495    0.8030 H   0  0  0  0  0  0  0  0  0  0  0  0
    7.5360    1.2103   -0.8224 H   0  0  0  0  0  0  0  0  0  0  0  0
    7.6043   -1.3597   -0.7371 H   0  0  0  0  0  0  0  0  0  0  0  0
    8.2851   -1.2281    0.8677 H   0  0  0  0  0  0  0  0  0  0  0  0
    6.0697   -0.4617   -1.9785 H   0  0  0  0  0  0  0  0  0  0  0  0
    3.9130   -0.3357   -3.1105 H   0  0  0  0  0  0  0  0  0  0  0  0
   -0.6948   -0.4905    1.9545 H   0  0  0  0  0  0  0  0  0  0  0  0
   -1.9969   -2.2733    1.4554 H   0  0  0  0  0  0  0  0  0  0  0  0
   -1.5326   -2.2595   -0.2683 H   0  0  0  0  0  0  0  0  0  0  0  0
   -3.5342   -3.6404    0.0292 H   0  0  0  0  0  0  0  0  0  0  0  0
   -5.6181   -4.7732   -0.6105 H   0  0  0  0  0  0  0  0  0  0  0  0
   -7.6534   -3.4580   -1.1347 H   0  0  0  0  0  0  0  0  0  0  0  0
   -7.5949   -0.9794   -1.0173 H   0  0  0  0  0  0  0  0  0  0  0  0
   -5.5139    0.1851   -0.3785 H   0  0  0  0  0  0  0  0  0  0  0  0
   -2.0426    4.2795    2.7233 H   0  0  0  0  0  0  0  0  0  0  0  0
   -3.6819    6.0888    1.6806 H   0  0  0  0  0  0  0  0  0  0  0  0
   -4.4541    5.3688   -0.7372 H   0  0  0  0  0  0  0  0  0  0  0  0
    1.5758   -0.5663    1.8544 H   0  0  0  0  0  0  0  0  0  0  0  0
    4.0578   -0.6416    1.8177 H   0  0  0  0  0  0  0  0  0  0  0  0
  1  2  1  0
  2  3  1  0
  3  4  1  0
  4  5  2  0
  5  6  1  0
  6  7  2  0
  7  8  1  0
  8  9  2  0
  9 10  1  0
  9 11  1  0
 11 12  1  0
 12 13  1  0
 13 14  1  0
 14 15  1  0
 15 16  2  0
 16 17  1  0
 17 18  2  0
 18 19  1  0
 19 20  2  0
 14 21  2  0
 21 22  1  0
 22 23  1  0
 23 24  2  0
 23 25  1  0
 25 26  2  0
 26 27  1  0
 27 28  2  0
 28 29  1  0
 11 30  2  0
 30 31  1  0
 31 32  2  0
 32  4  1  0
 31  7  1  0
 22 12  1  0
 29 25  1  0
 20 15  1  0
  1 33  1  0
  1 34  1  0
  1 35  1  0
  2 36  1  0
  2 37  1  0
  5 38  1  0
  6 39  1  0
 12 40  1  0
 13 41  1  0
 13 42  1  0
 16 43  1  0
 17 44  1  0
 18 45  1  0
 19 46  1  0
 20 47  1  0
 26 48  1  0
 27 49  1  0
 28 50  1  0
 30 51  1  0
 32 52  1  0
M  END
$$$$
