
     RDKit          3D

 48 50  0  0  0  0  0  0  0  0999 V2000
    3.0463    1.5552    0.6047 C   0  0  0  0  0  0  0  0  0  0  0  0
    1.7350    1.2720    0.6276 C   0  0  0  0  0  0  0  0  0  0  0  0
    0.7272    1.9590    1.4474 C   0  0  0  0  0  0  0  0  0  0  0  0
    0.9615    3.1236    2.3301 C   0  0  0  0  0  0  0  0  0  0  0  0
    2.0193    3.7241    2.4411 O   0  0  0  0  0  0  0  0  0  0  0  0
   -0.1787    3.4418    3.0103 O   0  0  0  0  0  0  0  0  0  0  0  0
   -0.0331    4.5581    3.8927 C   0  0  0  0  0  0  0  0  0  0  0  0
   -0.4555    1.3399    1.2504 C   0  0  0  0  0  0  0  0  0  0  0  0
   -1.6714    1.6293    1.8003 O   0  0  0  0  0  0  0  0  0  0  0  0
   -0.3061    0.2446    0.2897 C   0  0  0  0  0  0  0  0  0  0  0  0
   -1.2757   -0.5594   -0.1893 C   0  0  0  0  0  0  0  0  0  0  0  0
   -2.6946   -0.5535    0.1727 C   0  0  0  0  0  0  0  0  0  0  0  0
   -3.6163    0.1408   -0.6200 C   0  0  0  0  0  0  0  0  0  0  0  0
   -4.9737    0.1366   -0.2893 C   0  0  0  0  0  0  0  0  0  0  0  0
   -5.4014   -0.5657    0.8336 C   0  0  0  0  0  0  0  0  0  0  0  0
   -6.7168   -0.5964    1.1925 O   0  0  0  0  0  0  0  0  0  0  0  0
   -4.4970   -1.2608    1.6282 C   0  0  0  0  0  0  0  0  0  0  0  0
   -3.1407   -1.2561    1.2979 C   0  0  0  0  0  0  0  0  0  0  0  0
    1.0568    0.2510   -0.0605 N   0  0  0  0  0  0  0  0  0  0  0  0
    1.6705   -0.6698   -0.9508 C   0  0  0  0  0  0  0  0  0  0  0  0
    2.3137   -0.2209   -2.1146 C   0  0  0  0  0  0  0  0  0  0  0  0
    2.9074   -1.1211   -3.0093 C   0  0  0  0  0  0  0  0  0  0  0  0
    3.6081   -0.6184   -4.2366 C   0  0  0  0  0  0  0  0  0  0  0  0
    2.8824   -2.4899   -2.7164 C   0  0  0  0  0  0  0  0  0  0  0  0
    2.2615   -2.9629   -1.5542 C   0  0  0  0  0  0  0  0  0  0  0  0
    2.2050   -4.4338   -1.2662 C   0  0  0  0  0  0  0  0  0  0  0  0
    1.6474   -2.0484   -0.6883 C   0  0  0  0  0  0  0  0  0  0  0  0
    3.7397    0.9774    0.0035 H   0  0  0  0  0  0  0  0  0  0  0  0
    3.4873    2.3539    1.1899 H   0  0  0  0  0  0  0  0  0  0  0  0
   -0.9944    4.7251    4.3864 H   0  0  0  0  0  0  0  0  0  0  0  0
    0.2287    5.4595    3.3299 H   0  0  0  0  0  0  0  0  0  0  0  0
    0.7178    4.3448    4.6598 H   0  0  0  0  0  0  0  0  0  0  0  0
   -1.5510    2.3724    2.4208 H   0  0  0  0  0  0  0  0  0  0  0  0
   -1.0349   -1.3059   -0.9411 H   0  0  0  0  0  0  0  0  0  0  0  0
   -3.2788    0.6924   -1.4940 H   0  0  0  0  0  0  0  0  0  0  0  0
   -5.6725    0.6835   -0.9135 H   0  0  0  0  0  0  0  0  0  0  0  0
   -7.2209   -0.0640    0.5559 H   0  0  0  0  0  0  0  0  0  0  0  0
   -4.8446   -1.8019    2.5031 H   0  0  0  0  0  0  0  0  0  0  0  0
   -2.4356   -1.7951    1.9249 H   0  0  0  0  0  0  0  0  0  0  0  0
    2.3320    0.8450   -2.3323 H   0  0  0  0  0  0  0  0  0  0  0  0
    3.1350    0.2961   -4.6095 H   0  0  0  0  0  0  0  0  0  0  0  0
    4.6570   -0.4067   -4.0079 H   0  0  0  0  0  0  0  0  0  0  0  0
    3.5637   -1.3581   -5.0429 H   0  0  0  0  0  0  0  0  0  0  0  0
    3.3515   -3.1950   -3.4004 H   0  0  0  0  0  0  0  0  0  0  0  0
    1.3023   -4.8668   -1.7081 H   0  0  0  0  0  0  0  0  0  0  0  0
    2.1961   -4.6205   -0.1872 H   0  0  0  0  0  0  0  0  0  0  0  0
    3.0812   -4.9467   -1.6765 H   0  0  0  0  0  0  0  0  0  0  0  0
    1.1593   -2.4081    0.2153 H   0  0  0  0  0  0  0  0  0  0  0  0
  1  2  2  0
  2  3  1  0
  3  4  1  0
  4  5  2  0
  4  6  1  0
  6  7  1  0
  3  8  2  0
  8  9  1  0
  8 10  1  0
 10 11  2  3
 11 12  1  0
 12 13  2  0
 13 14  1  0
 14 15  2  0
 15 16  1  0
 15 17  1  0
 17 18  2  0
 10 19  1  0
 19 20  1  0
 20 21  2  0
 21 22  1  0
 22 23  1  0
 22 24  2  0
 24 25  1  0
 25 26  1  0
 25 27  2  0
 19  2  1  0
 27 20  1  0
 18 12  1  0
  1 28  1  0
  1 29  1  0
  7 30  1  0
  7 31  1  0
  7 32  1  0
  9 33  1  0
 11 34  1  0
 13 35  1  0
 14 36  1  0
 16 37  1  0
 17 38  1  0
 18 39  1  0
 21 40  1  0
 23 41  1  0
 23 42  1  0
 23 43  1  0
 24 44  1  0
 26 45  1  0
 26 46  1  0
 26 47  1  0
 27 48  1  0
M  END
$$$$
