
     RDKit          3D

 57 60  0  0  0  0  0  0  0  0999 V2000
   -4.0746    0.6716   -4.2508 C   0  0  0  0  0  0  0  0  0  0  0  0
   -3.9266    1.0383   -2.8855 O   0  0  0  0  0  0  0  0  0  0  0  0
   -2.9506    0.4261   -2.1540 C   0  0  0  0  0  0  0  0  0  0  0  0
   -1.9324   -0.3562   -2.7170 C   0  0  0  0  0  0  0  0  0  0  0  0
   -0.9292   -0.9104   -1.9145 C   0  0  0  0  0  0  0  0  0  0  0  0
   -0.9225   -0.6639   -0.5409 C   0  0  0  0  0  0  0  0  0  0  0  0
    0.1124   -1.2580    0.3315 C   0  0  0  0  0  0  0  0  0  0  0  0
   -0.2679   -1.9725    1.2553 O   0  0  0  0  0  0  0  0  0  0  0  0
    1.4475   -0.9875    0.0657 N   0  0  0  0  0  0  0  0  0  0  0  0
    1.9251    0.0837   -0.8201 C   0  0  0  0  0  0  0  0  0  0  0  0
    3.2970    0.6514   -0.4048 C   0  0  0  0  0  0  0  0  0  0  0  0
    4.3022   -0.4158   -0.2900 N   0  0  0  0  0  0  0  0  0  0  0  0
    5.6616   -0.1457   -0.3709 C   0  0  0  0  0  0  0  0  0  0  0  0
    6.6014   -1.1698   -0.5806 C   0  0  0  0  0  0  0  0  0  0  0  0
    7.9751   -0.9128   -0.6723 C   0  0  0  0  0  0  0  0  0  0  0  0
    8.4489    0.3876   -0.5580 C   0  0  0  0  0  0  0  0  0  0  0  0
    7.5475    1.4249   -0.3556 C   0  0  0  0  0  0  0  0  0  0  0  0
    6.1750    1.1575   -0.2669 C   0  0  0  0  0  0  0  0  0  0  0  0
    3.8359   -1.7314    0.1905 C   0  0  0  0  0  0  0  0  0  0  0  0
    2.4662   -1.6436    0.8865 C   0  0  0  0  0  0  0  0  0  0  0  0
   -1.9346    0.0969    0.0405 C   0  0  0  0  0  0  0  0  0  0  0  0
   -2.9495    0.6325   -0.7663 C   0  0  0  0  0  0  0  0  0  0  0  0
   -4.2359    1.5742    0.0196 S   0  0  0  0  0  6  0  0  0  0  0  0
   -5.5042    1.3403   -0.6393 O   0  0  0  0  0  0  0  0  0  0  0  0
   -3.7138    2.9098    0.2216 O   0  0  0  0  0  0  0  0  0  0  0  0
   -4.3794    0.8478    1.5599 N   0  0  0  0  0  0  0  0  0  0  0  0
   -4.8820   -0.5573    1.5971 C   0  0  0  0  0  0  0  0  0  0  0  0
   -6.0903   -0.5302    2.5222 C   0  0  0  0  0  0  0  0  0  0  0  0
   -5.7654    0.6031    3.4731 C   0  0  0  0  0  0  0  0  0  0  0  0
   -5.1688    1.6436    2.5389 C   0  0  0  0  0  0  0  0  0  0  0  0
   -4.2235   -0.4079   -4.3592 H   0  0  0  0  0  0  0  0  0  0  0  0
   -4.9682    1.1718   -4.6363 H   0  0  0  0  0  0  0  0  0  0  0  0
   -3.2198    1.0148   -4.8422 H   0  0  0  0  0  0  0  0  0  0  0  0
   -1.8872   -0.5505   -3.7845 H   0  0  0  0  0  0  0  0  0  0  0  0
   -0.1616   -1.5354   -2.3648 H   0  0  0  0  0  0  0  0  0  0  0  0
    2.0022   -0.3511   -1.8236 H   0  0  0  0  0  0  0  0  0  0  0  0
    1.1911    0.8949   -0.8545 H   0  0  0  0  0  0  0  0  0  0  0  0
    3.2066    1.1693    0.5579 H   0  0  0  0  0  0  0  0  0  0  0  0
    3.5900    1.3855   -1.1647 H   0  0  0  0  0  0  0  0  0  0  0  0
    6.2752   -2.1990   -0.7028 H   0  0  0  0  0  0  0  0  0  0  0  0
    8.6682   -1.7328   -0.8392 H   0  0  0  0  0  0  0  0  0  0  0  0
    9.5134    0.5917   -0.6281 H   0  0  0  0  0  0  0  0  0  0  0  0
    7.9056    2.4466   -0.2618 H   0  0  0  0  0  0  0  0  0  0  0  0
    5.5155    2.0016   -0.0891 H   0  0  0  0  0  0  0  0  0  0  0  0
    4.5425   -2.1639    0.9092 H   0  0  0  0  0  0  0  0  0  0  0  0
    3.7632   -2.4094   -0.6684 H   0  0  0  0  0  0  0  0  0  0  0  0
    2.5528   -1.0591    1.8111 H   0  0  0  0  0  0  0  0  0  0  0  0
    2.1263   -2.6474    1.1649 H   0  0  0  0  0  0  0  0  0  0  0  0
   -1.9247    0.2695    1.1150 H   0  0  0  0  0  0  0  0  0  0  0  0
   -5.1464   -0.9534    0.6130 H   0  0  0  0  0  0  0  0  0  0  0  0
   -4.0896   -1.1877    2.0158 H   0  0  0  0  0  0  0  0  0  0  0  0
   -6.9966   -0.2949    1.9512 H   0  0  0  0  0  0  0  0  0  0  0  0
   -6.2462   -1.4841    3.0336 H   0  0  0  0  0  0  0  0  0  0  0  0
   -6.6435    0.9748    4.0081 H   0  0  0  0  0  0  0  0  0  0  0  0
   -5.0211    0.2788    4.2102 H   0  0  0  0  0  0  0  0  0  0  0  0
   -4.5231    2.3432    3.0765 H   0  0  0  0  0  0  0  0  0  0  0  0
   -5.9694    2.1999    2.0384 H   0  0  0  0  0  0  0  0  0  0  0  0
  1  2  1  0
  2  3  1  0
  3  4  2  0
  4  5  1  0
  5  6  2  0
  6  7  1  0
  7  8  2  0
  7  9  1  0
  9 10  1  0
 10 11  1  0
 11 12  1  0
 12 13  1  0
 13 14  2  0
 14 15  1  0
 15 16  2  0
 16 17  1  0
 17 18  2  0
 12 19  1  0
 19 20  1  0
  6 21  1  0
 21 22  2  0
 22 23  1  0
 23 24  2  0
 23 25  2  0
 23 26  1  0
 26 27  1  0
 27 28  1  0
 28 29  1  0
 29 30  1  0
 22  3  1  0
 30 26  1  0
 20  9  1  0
 18 13  1  0
  1 31  1  0
  1 32  1  0
  1 33  1  0
  4 34  1  0
  5 35  1  0
 10 36  1  0
 10 37  1  0
 11 38  1  0
 11 39  1  0
 14 40  1  0
 15 41  1  0
 16 42  1  0
 17 43  1  0
 18 44  1  0
 19 45  1  0
 19 46  1  0
 20 47  1  0
 20 48  1  0
 21 49  1  0
 27 50  1  0
 27 51  1  0
 28 52  1  0
 28 53  1  0
 29 54  1  0
 29 55  1  0
 30 56  1  0
 30 57  1  0
M  END
$$$$
