
     RDKit          3D

 66 70  0  0  0  0  0  0  0  0999 V2000
   -2.5915    0.4174   -4.5074 C   0  0  0  0  0  0  0  0  0  0  0  0
   -2.2269    0.0786   -3.0732 C   0  0  0  0  0  0  0  0  0  0  0  0
   -1.1788   -0.9033   -3.0992 O   0  0  0  0  0  0  0  0  0  0  0  0
   -0.1248   -0.5478   -2.2983 C   0  0  0  0  0  0  0  0  0  0  0  0
    0.7008    0.5123   -2.6818 C   0  0  0  0  0  0  0  0  0  0  0  0
    1.8101    0.8433   -1.9082 C   0  0  0  0  0  0  0  0  0  0  0  0
    2.1079    0.0964   -0.7648 C   0  0  0  0  0  0  0  0  0  0  0  0
    3.2993    0.4219    0.0517 C   0  0  0  0  0  0  0  0  0  0  0  0
    4.0327    1.4496   -0.2312 N   0  0  0  0  0  0  0  0  0  0  0  0
    5.1133    1.7440    0.5531 N   0  0  0  0  0  0  0  0  0  0  0  0
    5.2781    1.4727    1.9030 C   0  0  0  0  0  0  0  0  0  0  0  0
    4.5181    0.7955    2.5914 O   0  0  0  0  0  0  0  0  0  0  0  0
    6.4890    2.0873    2.5516 C   0  0  0  0  0  0  0  0  0  0  0  0
    6.6955    1.8149    3.9163 C   0  0  0  0  0  0  0  0  0  0  0  0
    7.7922    2.3447    4.5990 C   0  0  0  0  0  0  0  0  0  0  0  0
    8.7045    3.1537    3.9252 C   0  0  0  0  0  0  0  0  0  0  0  0
    8.5165    3.4410    2.5730 C   0  0  0  0  0  0  0  0  0  0  0  0
    7.4134    2.9154    1.8924 C   0  0  0  0  0  0  0  0  0  0  0  0
    7.2539    3.2346    0.5690 O   0  0  0  0  0  0  0  0  0  0  0  0
    1.2898   -0.9767   -0.3872 C   0  0  0  0  0  0  0  0  0  0  0  0
    0.1604   -1.3141   -1.1562 C   0  0  0  0  0  0  0  0  0  0  0  0
   -0.7284   -2.4691   -0.7480 C   0  0  0  0  0  0  0  0  0  0  0  0
   -2.0092   -2.0365   -0.1631 N   0  0  0  0  0  0  0  0  0  0  0  0
   -1.8654   -1.4887    1.1887 C   0  0  0  0  0  0  0  0  0  0  0  0
   -3.2142   -1.0751    1.8099 C   0  0  0  0  0  0  0  0  0  0  0  0
   -4.1573   -2.2715    1.8529 C   0  0  0  0  0  0  0  0  0  0  0  0
   -4.3644   -2.7233    0.4096 C   0  0  0  0  0  0  0  0  0  0  0  0
   -3.0017   -3.1218   -0.2064 C   0  0  0  0  0  0  0  0  0  0  0  0
   -5.0374   -1.6199   -0.3872 C   0  0  0  0  0  0  0  0  0  0  0  0
   -5.9020   -1.9069   -1.3765 C   0  0  0  0  0  0  0  0  0  0  0  0
   -6.5437   -0.8585   -2.1252 C   0  0  0  0  0  0  0  0  0  0  0  0
   -6.2897    0.4249   -1.8489 C   0  0  0  0  0  0  0  0  0  0  0  0
   -5.3402    0.7799   -0.7624 C   0  0  0  0  0  0  0  0  0  0  0  0
   -5.1317    1.9677   -0.5229 O   0  0  0  0  0  0  0  0  0  0  0  0
   -4.7598   -0.2853   -0.0721 N   0  0  0  0  0  0  0  0  0  0  0  0
   -3.8863    0.0764    1.0478 C   0  0  0  0  0  0  0  0  0  0  0  0
   -2.9518   -0.4763   -5.0310 H   0  0  0  0  0  0  0  0  0  0  0  0
   -1.7082    0.7669   -5.0551 H   0  0  0  0  0  0  0  0  0  0  0  0
   -3.3654    1.1911   -4.5520 H   0  0  0  0  0  0  0  0  0  0  0  0
   -1.9602    0.9887   -2.5236 H   0  0  0  0  0  0  0  0  0  0  0  0
   -3.0866   -0.3725   -2.5682 H   0  0  0  0  0  0  0  0  0  0  0  0
    0.4843    1.0755   -3.5842 H   0  0  0  0  0  0  0  0  0  0  0  0
    2.4452    1.6738   -2.2076 H   0  0  0  0  0  0  0  0  0  0  0  0
    3.5235   -0.2801    0.8707 H   0  0  0  0  0  0  0  0  0  0  0  0
    5.7333    2.4452    0.1473 H   0  0  0  0  0  0  0  0  0  0  0  0
    5.9884    1.1889    4.4601 H   0  0  0  0  0  0  0  0  0  0  0  0
    7.9308    2.1266    5.6567 H   0  0  0  0  0  0  0  0  0  0  0  0
    9.5609    3.5641    4.4551 H   0  0  0  0  0  0  0  0  0  0  0  0
    9.2414    4.0747    2.0687 H   0  0  0  0  0  0  0  0  0  0  0  0
    7.9550    3.8525    0.3021 H   0  0  0  0  0  0  0  0  0  0  0  0
    1.5224   -1.5485    0.5095 H   0  0  0  0  0  0  0  0  0  0  0  0
   -0.9081   -3.0662   -1.6551 H   0  0  0  0  0  0  0  0  0  0  0  0
   -0.1945   -3.1423   -0.0619 H   0  0  0  0  0  0  0  0  0  0  0  0
   -1.2065   -0.6150    1.1810 H   0  0  0  0  0  0  0  0  0  0  0  0
   -1.3949   -2.2312    1.8478 H   0  0  0  0  0  0  0  0  0  0  0  0
   -3.0068   -0.7353    2.8322 H   0  0  0  0  0  0  0  0  0  0  0  0
   -3.7252   -3.0803    2.4535 H   0  0  0  0  0  0  0  0  0  0  0  0
   -5.1130   -1.9982    2.3164 H   0  0  0  0  0  0  0  0  0  0  0  0
   -5.0073   -3.6137    0.4180 H   0  0  0  0  0  0  0  0  0  0  0  0
   -2.6194   -3.9981    0.3332 H   0  0  0  0  0  0  0  0  0  0  0  0
   -3.1623   -3.4310   -1.2460 H   0  0  0  0  0  0  0  0  0  0  0  0
   -6.1353   -2.9330   -1.6430 H   0  0  0  0  0  0  0  0  0  0  0  0
   -7.2396   -1.1304   -2.9129 H   0  0  0  0  0  0  0  0  0  0  0  0
   -6.7565    1.2454   -2.3783 H   0  0  0  0  0  0  0  0  0  0  0  0
   -3.1394    0.8003    0.6952 H   0  0  0  0  0  0  0  0  0  0  0  0
   -4.5265    0.6217    1.7566 H   0  0  0  0  0  0  0  0  0  0  0  0
  1  2  1  0
  2  3  1  0
  3  4  1  0
  4  5  2  0
  5  6  1  0
  6  7  2  0
  7  8  1  0
  8  9  2  3
  9 10  1  0
 10 11  1  0
 11 12  2  0
 11 13  1  0
 13 14  2  0
 14 15  1  0
 15 16  2  0
 16 17  1  0
 17 18  2  0
 18 19  1  0
  7 20  1  0
 20 21  2  0
 21 22  1  0
 22 23  1  0
 23 24  1  0
 24 25  1  0
 25 26  1  0
 26 27  1  0
 27 28  1  0
 27 29  1  0
 29 30  2  0
 30 31  1  0
 31 32  2  0
 32 33  1  0
 33 34  2  0
 33 35  1  0
 35 36  1  0
 21  4  1  0
 28 23  1  0
 35 29  1  0
 18 13  1  0
 36 25  1  0
  1 37  1  0
  1 38  1  0
  1 39  1  0
  2 40  1  0
  2 41  1  0
  5 42  1  0
  6 43  1  0
  8 44  1  0
 10 45  1  0
 14 46  1  0
 15 47  1  0
 16 48  1  0
 17 49  1  0
 19 50  1  0
 20 51  1  0
 22 52  1  0
 22 53  1  0
 24 54  1  0
 24 55  1  0
 25 56  1  0
 26 57  1  0
 26 58  1  0
 27 59  1  0
 28 60  1  0
 28 61  1  0
 30 62  1  0
 31 63  1  0
 32 64  1  0
 36 65  1  0
 36 66  1  0
M  END
$$$$
