
     RDKit          3D

 49 51  0  0  0  0  0  0  0  0999 V2000
   -1.9019   -0.9962    3.4671 C   0  0  0  0  0  0  0  0  0  0  0  0
   -2.4642   -1.1879    2.0810 C   0  0  0  0  0  0  0  0  0  0  0  0
   -3.5421   -2.2098    1.9280 C   0  0  0  0  0  0  0  0  0  0  0  0
   -4.0597   -2.3117    0.6950 C   0  0  0  0  0  0  0  0  0  0  0  0
   -5.1408   -3.2894    0.3491 C   0  0  0  0  0  0  0  0  0  0  0  0
   -3.5755   -1.5013   -0.3035 N   0  0  0  0  0  0  0  0  0  0  0  0
   -2.5184   -0.6528   -0.1303 C   0  0  0  0  0  0  0  0  0  0  0  0
   -2.0236   -0.0433   -1.1615 N   0  0  0  0  0  0  0  0  0  0  0  0
   -0.9124    0.7417   -1.0197 C   0  0  0  0  0  0  0  0  0  0  0  0
    0.1433    0.4702   -1.7170 N   0  0  0  0  0  0  0  0  0  0  0  0
    0.1968   -0.8102   -2.6982 S   0  0  0  0  0  6  0  0  0  0  0  0
   -0.5540   -0.5214   -3.9094 O   0  0  0  0  0  0  0  0  0  0  0  0
   -0.0486   -2.0476   -1.9761 O   0  0  0  0  0  0  0  0  0  0  0  0
    1.9196   -0.8003   -3.1822 C   0  0  0  0  0  0  0  0  0  0  0  0
    2.8356   -0.9185   -1.9899 C   0  0  0  0  0  0  0  0  0  0  0  0
    3.4192    0.2248   -1.4248 C   0  0  0  0  0  0  0  0  0  0  0  0
    4.2633    0.1187   -0.3185 C   0  0  0  0  0  0  0  0  0  0  0  0
    4.5382   -1.1310    0.2319 C   0  0  0  0  0  0  0  0  0  0  0  0
    3.9668   -2.2749   -0.3212 C   0  0  0  0  0  0  0  0  0  0  0  0
    3.1202   -2.1705   -1.4260 C   0  0  0  0  0  0  0  0  0  0  0  0
   -0.9865    1.8205   -0.1645 N   0  0  0  0  0  0  0  0  0  0  0  0
    0.0073    2.7765    0.1294 C   0  0  0  0  0  0  0  0  0  0  0  0
    0.9333    3.2087   -0.8312 C   0  0  0  0  0  0  0  0  0  0  0  0
    1.9045    4.1691   -0.5284 C   0  0  0  0  0  0  0  0  0  0  0  0
    1.9615    4.7288    0.7439 C   0  0  0  0  0  0  0  0  0  0  0  0
    1.0397    4.3372    1.7111 C   0  0  0  0  0  0  0  0  0  0  0  0
    0.0691    3.3771    1.4028 C   0  0  0  0  0  0  0  0  0  0  0  0
   -1.1682    2.9092    2.7706 Br  0  0  0  0  0  0  0  0  0  0  0  0
   -1.9953   -0.4434    1.1247 N   0  0  0  0  0  0  0  0  0  0  0  0
   -2.3645   -0.1160    3.9222 H   0  0  0  0  0  0  0  0  0  0  0  0
   -0.8203   -0.8432    3.4088 H   0  0  0  0  0  0  0  0  0  0  0  0
   -2.0971   -1.8677    4.0974 H   0  0  0  0  0  0  0  0  0  0  0  0
   -3.8537   -2.8046    2.7743 H   0  0  0  0  0  0  0  0  0  0  0  0
   -4.7972   -3.9775   -0.4304 H   0  0  0  0  0  0  0  0  0  0  0  0
   -6.0266   -2.7621   -0.0203 H   0  0  0  0  0  0  0  0  0  0  0  0
   -5.4437   -3.8880    1.2148 H   0  0  0  0  0  0  0  0  0  0  0  0
   -3.8420   -1.6831   -1.2627 H   0  0  0  0  0  0  0  0  0  0  0  0
    2.0729   -1.6376   -3.8716 H   0  0  0  0  0  0  0  0  0  0  0  0
    2.1055    0.1251   -3.7378 H   0  0  0  0  0  0  0  0  0  0  0  0
    3.2109    1.2105   -1.8343 H   0  0  0  0  0  0  0  0  0  0  0  0
    4.7003    1.0131    0.1175 H   0  0  0  0  0  0  0  0  0  0  0  0
    5.1918   -1.2130    1.0960 H   0  0  0  0  0  0  0  0  0  0  0  0
    4.1730   -3.2498    0.1126 H   0  0  0  0  0  0  0  0  0  0  0  0
    2.6712   -3.0744   -1.8342 H   0  0  0  0  0  0  0  0  0  0  0  0
   -1.6091    1.6307    0.6159 H   0  0  0  0  0  0  0  0  0  0  0  0
    0.8970    2.8184   -1.8449 H   0  0  0  0  0  0  0  0  0  0  0  0
    2.6090    4.4839   -1.2942 H   0  0  0  0  0  0  0  0  0  0  0  0
    2.7146    5.4765    0.9784 H   0  0  0  0  0  0  0  0  0  0  0  0
    1.0808    4.7862    2.7001 H   0  0  0  0  0  0  0  0  0  0  0  0
  1  2  1  0
  2  3  1  0
  3  4  2  0
  4  5  1  0
  4  6  1  0
  6  7  1  0
  7  8  2  3
  8  9  1  0
  9 10  2  3
 10 11  1  0
 11 12  2  0
 11 13  2  0
 11 14  1  0
 14 15  1  0
 15 16  2  0
 16 17  1  0
 17 18  2  0
 18 19  1  0
 19 20  2  0
  9 21  1  0
 21 22  1  0
 22 23  2  0
 23 24  1  0
 24 25  2  0
 25 26  1  0
 26 27  2  0
 27 28  1  0
  7 29  1  0
 29  2  2  0
 20 15  1  0
 27 22  1  0
  1 30  1  0
  1 31  1  0
  1 32  1  0
  3 33  1  0
  5 34  1  0
  5 35  1  0
  5 36  1  0
  6 37  1  0
 14 38  1  0
 14 39  1  0
 16 40  1  0
 17 41  1  0
 18 42  1  0
 19 43  1  0
 20 44  1  0
 21 45  1  0
 23 46  1  0
 24 47  1  0
 25 48  1  0
 26 49  1  0
M  END
$$$$
