
     RDKit          3D

 54 57  0  0  0  0  0  0  0  0999 V2000
   -8.0605    0.8247    2.2595 C   0  0  0  0  0  0  0  0  0  0  0  0
   -7.3208    0.7982    1.0444 O   0  0  0  0  0  0  0  0  0  0  0  0
   -5.9969    0.4712    1.1364 C   0  0  0  0  0  0  0  0  0  0  0  0
   -5.3086    0.4705   -0.0776 C   0  0  0  0  0  0  0  0  0  0  0  0
   -3.9446    0.1544   -0.1375 C   0  0  0  0  0  0  0  0  0  0  0  0
   -3.2465   -0.1761    1.0265 C   0  0  0  0  0  0  0  0  0  0  0  0
   -1.8539   -0.5024    1.0327 N   0  0  0  0  0  0  0  0  0  0  0  0
   -1.2026   -0.5787    2.2317 N   0  0  0  0  0  0  0  0  0  0  0  0
    0.0753   -0.7926    1.9307 C   0  0  0  0  0  0  0  0  0  0  0  0
    0.2880   -0.8985    0.5527 C   0  0  0  0  0  0  0  0  0  0  0  0
   -0.9712   -0.7710   -0.0070 C   0  0  0  0  0  0  0  0  0  0  0  0
   -1.2641   -0.9385   -1.4617 C   0  0  0  0  0  0  0  0  0  0  0  0
   -0.0817   -1.6386   -2.2053 C   0  0  0  0  0  0  0  0  0  0  0  0
   -0.2358   -1.3901   -3.7182 C   0  0  0  0  0  0  0  0  0  0  0  0
   -0.1221   -3.1618   -1.9669 C   0  0  0  0  0  0  0  0  0  0  0  0
    1.2799   -1.0469   -1.7357 C   0  0  0  0  0  0  0  0  0  0  0  0
    1.5313   -1.1866   -0.2152 C   0  0  0  0  0  0  0  0  0  0  0  0
    2.5567   -0.2654    0.2185 N   0  0  0  0  0  0  0  0  0  0  0  0
    3.8980   -0.5071    0.0187 C   0  0  0  0  0  0  0  0  0  0  0  0
    4.3487   -1.5575   -0.4208 O   0  0  0  0  0  0  0  0  0  0  0  0
    4.7863    0.6356    0.3688 C   0  0  0  0  0  0  0  0  0  0  0  0
    6.1603    0.5129    0.2499 C   0  0  0  0  0  0  0  0  0  0  0  0
    7.0048    1.5336    0.5489 N   0  0  0  0  0  0  0  0  0  0  0  0
    6.4204    2.6831    0.9725 C   0  0  0  0  0  0  0  0  0  0  0  0
    7.3088    3.8390    1.3102 C   0  0  0  0  0  0  0  0  0  0  0  0
    5.0361    2.7956    1.0860 C   0  0  0  0  0  0  0  0  0  0  0  0
    4.1834    1.7856    0.7893 N   0  0  0  0  0  0  0  0  0  0  0  0
   -3.9425   -0.1595    2.2488 C   0  0  0  0  0  0  0  0  0  0  0  0
   -5.3065    0.1567    2.3029 C   0  0  0  0  0  0  0  0  0  0  0  0
   -9.0913    1.1018    2.0176 H   0  0  0  0  0  0  0  0  0  0  0  0
   -7.6647    1.5806    2.9461 H   0  0  0  0  0  0  0  0  0  0  0  0
   -8.0834   -0.1642    2.7290 H   0  0  0  0  0  0  0  0  0  0  0  0
   -5.8390    0.7295   -0.9917 H   0  0  0  0  0  0  0  0  0  0  0  0
   -3.4746    0.2157   -1.1092 H   0  0  0  0  0  0  0  0  0  0  0  0
    0.7977   -0.8740    2.7332 H   0  0  0  0  0  0  0  0  0  0  0  0
   -1.4184    0.0580   -1.8948 H   0  0  0  0  0  0  0  0  0  0  0  0
   -2.1777   -1.5253   -1.6110 H   0  0  0  0  0  0  0  0  0  0  0  0
   -1.1907   -1.7817   -4.0869 H   0  0  0  0  0  0  0  0  0  0  0  0
   -0.2050   -0.3189   -3.9488 H   0  0  0  0  0  0  0  0  0  0  0  0
    0.5674   -1.8759   -4.2836 H   0  0  0  0  0  0  0  0  0  0  0  0
    0.7168   -3.6586   -2.4673 H   0  0  0  0  0  0  0  0  0  0  0  0
   -1.0474   -3.5959   -2.3634 H   0  0  0  0  0  0  0  0  0  0  0  0
   -0.0738   -3.4192   -0.9046 H   0  0  0  0  0  0  0  0  0  0  0  0
    2.1092   -1.5132   -2.2842 H   0  0  0  0  0  0  0  0  0  0  0  0
    1.3054    0.0191   -2.0075 H   0  0  0  0  0  0  0  0  0  0  0  0
    1.8646   -2.2084    0.0046 H   0  0  0  0  0  0  0  0  0  0  0  0
    2.3040    0.6866    0.4744 H   0  0  0  0  0  0  0  0  0  0  0  0
    6.6264   -0.4053   -0.0912 H   0  0  0  0  0  0  0  0  0  0  0  0
    8.3625    3.5653    1.1977 H   0  0  0  0  0  0  0  0  0  0  0  0
    7.1009    4.6818    0.6443 H   0  0  0  0  0  0  0  0  0  0  0  0
    7.1475    4.1516    2.3468 H   0  0  0  0  0  0  0  0  0  0  0  0
    4.5700    3.7164    1.4232 H   0  0  0  0  0  0  0  0  0  0  0  0
   -3.4349   -0.4019    3.1819 H   0  0  0  0  0  0  0  0  0  0  0  0
   -5.7912    0.1466    3.2735 H   0  0  0  0  0  0  0  0  0  0  0  0
  1  2  1  0
  2  3  1  0
  3  4  2  0
  4  5  1  0
  5  6  2  0
  6  7  1  0
  7  8  1  0
  8  9  2  0
  9 10  1  0
 10 11  2  0
 11 12  1  0
 12 13  1  0
 13 14  1  0
 13 15  1  0
 13 16  1  0
 16 17  1  0
 17 18  1  0
 18 19  1  0
 19 20  2  0
 19 21  1  0
 21 22  2  0
 22 23  1  0
 23 24  2  0
 24 25  1  0
 24 26  1  0
 26 27  2  0
  6 28  1  0
 28 29  2  0
 29  3  1  0
 11  7  1  0
 27 21  1  0
 17 10  1  0
  1 30  1  0
  1 31  1  0
  1 32  1  0
  4 33  1  0
  5 34  1  0
  9 35  1  0
 12 36  1  0
 12 37  1  0
 14 38  1  0
 14 39  1  0
 14 40  1  0
 15 41  1  0
 15 42  1  0
 15 43  1  0
 16 44  1  0
 16 45  1  0
 17 46  1  0
 18 47  1  0
 22 48  1  0
 25 49  1  0
 25 50  1  0
 25 51  1  0
 26 52  1  0
 28 53  1  0
 29 54  1  0
M  END
$$$$
