
     RDKit          3D

 57 60  0  0  0  0  0  0  0  0999 V2000
   -1.3622    0.5449    1.9759 O   0  0  0  0  0  0  0  0  0  0  0  0
   -1.1736   -0.6189    1.6411 C   0  0  0  0  0  0  0  0  0  0  0  0
    0.1593   -1.3340    1.7652 C   0  0  0  0  0  0  0  0  0  0  0  0
    1.3139   -0.4163    2.1658 C   0  0  0  0  0  0  0  0  0  0  0  0
    1.7567    0.4972    1.0169 C   0  0  0  0  0  0  0  0  0  0  0  0
    2.9525    1.3836    1.3819 C   0  0  0  0  0  0  0  0  0  0  0  0
    4.2856    0.6416    1.5544 C   0  0  0  0  0  0  0  0  0  0  0  0
    4.7970    0.0830    0.3048 N   0  0  0  0  0  0  0  0  0  0  0  0
    5.4536    0.9446   -0.5619 C   0  0  0  0  0  0  0  0  0  0  0  0
    5.6394    2.1407   -0.3418 O   0  0  0  0  0  0  0  0  0  0  0  0
    5.9174    0.4098   -1.7295 N   0  0  0  0  0  0  0  0  0  0  0  0
    5.7717   -0.9266   -2.0846 C   0  0  0  0  0  0  0  0  0  0  0  0
    6.2808   -1.3860   -3.2994 C   0  0  0  0  0  0  0  0  0  0  0  0
    6.1305   -2.7307   -3.6465 C   0  0  0  0  0  0  0  0  0  0  0  0
    5.4749   -3.6102   -2.7828 C   0  0  0  0  0  0  0  0  0  0  0  0
    4.9667   -3.1463   -1.5686 C   0  0  0  0  0  0  0  0  0  0  0  0
    5.1183   -1.7992   -1.2233 C   0  0  0  0  0  0  0  0  0  0  0  0
    4.5919   -1.2728    0.0510 C   0  0  0  0  0  0  0  0  0  0  0  0
    4.0035   -2.0400    0.8102 O   0  0  0  0  0  0  0  0  0  0  0  0
   -2.1659   -1.4279    1.1279 N   0  0  0  0  0  0  0  0  0  0  0  0
   -3.5107   -0.9305    0.9011 C   0  0  0  0  0  0  0  0  0  0  0  0
   -3.6163   -0.1021   -0.3820 C   0  0  0  0  0  0  0  0  0  0  0  0
   -5.0074    0.3905   -0.6246 C   0  0  0  0  0  0  0  0  0  0  0  0
   -5.9368   -0.1513   -1.4910 C   0  0  0  0  0  0  0  0  0  0  0  0
   -7.0813    0.5967   -1.4152 N   0  0  0  0  0  0  0  0  0  0  0  0
   -6.9233    1.6205   -0.5111 C   0  0  0  0  0  0  0  0  0  0  0  0
   -7.8189    2.6202   -0.1126 C   0  0  0  0  0  0  0  0  0  0  0  0
   -7.3766    3.5443    0.8389 C   0  0  0  0  0  0  0  0  0  0  0  0
   -6.0903    3.4695    1.3681 C   0  0  0  0  0  0  0  0  0  0  0  0
   -5.2077    2.4638    0.9580 C   0  0  0  0  0  0  0  0  0  0  0  0
   -5.6296    1.5191   -0.0001 C   0  0  0  0  0  0  0  0  0  0  0  0
    0.0382   -2.1047    2.5361 H   0  0  0  0  0  0  0  0  0  0  0  0
    0.3883   -1.8390    0.8196 H   0  0  0  0  0  0  0  0  0  0  0  0
    2.1499   -1.0488    2.4805 H   0  0  0  0  0  0  0  0  0  0  0  0
    1.0333    0.1917    3.0342 H   0  0  0  0  0  0  0  0  0  0  0  0
    1.9837   -0.0965    0.1247 H   0  0  0  0  0  0  0  0  0  0  0  0
    0.9239    1.1553    0.7419 H   0  0  0  0  0  0  0  0  0  0  0  0
    2.7268    1.9196    2.3120 H   0  0  0  0  0  0  0  0  0  0  0  0
    3.0616    2.1478    0.6027 H   0  0  0  0  0  0  0  0  0  0  0  0
    4.1977   -0.1438    2.3116 H   0  0  0  0  0  0  0  0  0  0  0  0
    5.0280    1.3533    1.9368 H   0  0  0  0  0  0  0  0  0  0  0  0
    6.3913    1.0598   -2.3432 H   0  0  0  0  0  0  0  0  0  0  0  0
    6.7939   -0.7139   -3.9818 H   0  0  0  0  0  0  0  0  0  0  0  0
    6.5260   -3.0948   -4.5923 H   0  0  0  0  0  0  0  0  0  0  0  0
    5.3602   -4.6570   -3.0550 H   0  0  0  0  0  0  0  0  0  0  0  0
    4.4568   -3.8326   -0.8959 H   0  0  0  0  0  0  0  0  0  0  0  0
   -1.9303   -2.3571    0.8046 H   0  0  0  0  0  0  0  0  0  0  0  0
   -4.1710   -1.8036    0.8519 H   0  0  0  0  0  0  0  0  0  0  0  0
   -3.8115   -0.3357    1.7715 H   0  0  0  0  0  0  0  0  0  0  0  0
   -2.9306    0.7532   -0.3395 H   0  0  0  0  0  0  0  0  0  0  0  0
   -3.2862   -0.7088   -1.2352 H   0  0  0  0  0  0  0  0  0  0  0  0
   -5.8800   -1.0021   -2.1568 H   0  0  0  0  0  0  0  0  0  0  0  0
   -7.9247    0.4281   -1.9450 H   0  0  0  0  0  0  0  0  0  0  0  0
   -8.8211    2.6823   -0.5232 H   0  0  0  0  0  0  0  0  0  0  0  0
   -8.0472    4.3337    1.1701 H   0  0  0  0  0  0  0  0  0  0  0  0
   -5.7645    4.1976    2.1067 H   0  0  0  0  0  0  0  0  0  0  0  0
   -4.2056    2.4143    1.3771 H   0  0  0  0  0  0  0  0  0  0  0  0
  1  2  2  0
  2  3  1  0
  3  4  1  0
  4  5  1  0
  5  6  1  0
  6  7  1  0
  7  8  1  0
  8  9  1  0
  9 10  2  0
  9 11  1  0
 11 12  1  0
 12 13  2  0
 13 14  1  0
 14 15  2  0
 15 16  1  0
 16 17  2  0
 17 18  1  0
 18 19  2  0
  2 20  1  0
 20 21  1  0
 21 22  1  0
 22 23  1  0
 23 24  2  0
 24 25  1  0
 25 26  1  0
 26 27  2  0
 27 28  1  0
 28 29  2  0
 29 30  1  0
 30 31  2  0
 18  8  1  0
 31 23  1  0
 17 12  1  0
 31 26  1  0
  3 32  1  0
  3 33  1  0
  4 34  1  0
  4 35  1  0
  5 36  1  0
  5 37  1  0
  6 38  1  0
  6 39  1  0
  7 40  1  0
  7 41  1  0
 11 42  1  0
 13 43  1  0
 14 44  1  0
 15 45  1  0
 16 46  1  0
 20 47  1  0
 21 48  1  0
 21 49  1  0
 22 50  1  0
 22 51  1  0
 24 52  1  0
 25 53  1  0
 27 54  1  0
 28 55  1  0
 29 56  1  0
 30 57  1  0
M  END
$$$$
