
     RDKit          3D

 46 49  0  0  0  0  0  0  0  0999 V2000
    2.4441   -0.0078    2.9523 O   0  0  0  0  0  0  0  0  0  0  0  0
    1.9286   -0.7269    2.1014 C   0  0  0  0  0  0  0  0  0  0  0  0
    0.6957   -1.5702    2.4477 C   0  0  0  0  0  0  0  0  0  0  0  0
   -0.5296   -1.0052    1.9803 O   0  0  0  0  0  0  0  0  0  0  0  0
   -0.7777   -1.1934    0.6636 C   0  0  0  0  0  0  0  0  0  0  0  0
   -0.0697   -1.7984   -0.1242 O   0  0  0  0  0  0  0  0  0  0  0  0
   -2.0572   -0.5468    0.3236 C   0  0  0  0  0  0  0  0  0  0  0  0
   -3.1906   -1.3744    0.0950 C   0  0  0  0  0  0  0  0  0  0  0  0
   -3.1820   -2.7901    0.1738 C   0  0  0  0  0  0  0  0  0  0  0  0
   -4.3347   -3.5437   -0.0558 C   0  0  0  0  0  0  0  0  0  0  0  0
   -5.5259   -2.9047   -0.3694 C   0  0  0  0  0  0  0  0  0  0  0  0
   -5.5625   -1.5141   -0.4551 C   0  0  0  0  0  0  0  0  0  0  0  0
   -4.4101   -0.7424   -0.2277 C   0  0  0  0  0  0  0  0  0  0  0  0
   -4.4668    0.6570   -0.3210 C   0  0  0  0  0  0  0  0  0  0  0  0
   -3.3399    1.4660   -0.1069 C   0  0  0  0  0  0  0  0  0  0  0  0
   -3.4415    2.8633   -0.2198 C   0  0  0  0  0  0  0  0  0  0  0  0
   -2.3340    3.6846   -0.0167 C   0  0  0  0  0  0  0  0  0  0  0  0
   -1.1075    3.1189    0.3009 C   0  0  0  0  0  0  0  0  0  0  0  0
   -0.9912    1.7324    0.4161 C   0  0  0  0  0  0  0  0  0  0  0  0
   -2.1022    0.8722    0.2201 C   0  0  0  0  0  0  0  0  0  0  0  0
    2.3372   -0.8855    0.7914 N   0  0  0  0  0  0  0  0  0  0  0  0
    3.4339   -0.2494    0.1864 C   0  0  0  0  0  0  0  0  0  0  0  0
    4.2168    0.5738    0.9141 N   0  0  0  0  0  0  0  0  0  0  0  0
    5.2654    1.1758    0.3074 C   0  0  0  0  0  0  0  0  0  0  0  0
    5.5950    0.9938   -1.0252 C   0  0  0  0  0  0  0  0  0  0  0  0
    6.7598    1.7206   -1.6203 C   0  0  0  0  0  0  0  0  0  0  0  0
    6.4255    2.9675   -2.0488 F   0  0  0  0  0  0  0  0  0  0  0  0
    7.7894    1.8859   -0.7462 F   0  0  0  0  0  0  0  0  0  0  0  0
    7.2880    1.0824   -2.7009 F   0  0  0  0  0  0  0  0  0  0  0  0
    4.7780    0.1447   -1.7767 C   0  0  0  0  0  0  0  0  0  0  0  0
    3.6912   -0.4865   -1.1688 C   0  0  0  0  0  0  0  0  0  0  0  0
    2.7148   -1.5400   -2.1250 Cl  0  0  0  0  0  0  0  0  0  0  0  0
    0.8244   -2.5976    2.0846 H   0  0  0  0  0  0  0  0  0  0  0  0
    0.6292   -1.6368    3.5394 H   0  0  0  0  0  0  0  0  0  0  0  0
   -2.2667   -3.3297    0.4109 H   0  0  0  0  0  0  0  0  0  0  0  0
   -4.2974   -4.6283    0.0089 H   0  0  0  0  0  0  0  0  0  0  0  0
   -6.4267   -3.4857   -0.5499 H   0  0  0  0  0  0  0  0  0  0  0  0
   -6.5069   -1.0334   -0.7041 H   0  0  0  0  0  0  0  0  0  0  0  0
   -5.4160    1.1308   -0.5717 H   0  0  0  0  0  0  0  0  0  0  0  0
   -4.3936    3.3280   -0.4696 H   0  0  0  0  0  0  0  0  0  0  0  0
   -2.4310    4.7634   -0.1061 H   0  0  0  0  0  0  0  0  0  0  0  0
   -0.2384    3.7518    0.4634 H   0  0  0  0  0  0  0  0  0  0  0  0
   -0.0102    1.3342    0.6681 H   0  0  0  0  0  0  0  0  0  0  0  0
    1.7574   -1.4588    0.1767 H   0  0  0  0  0  0  0  0  0  0  0  0
    5.8464    1.8286    0.9570 H   0  0  0  0  0  0  0  0  0  0  0  0
    4.9891   -0.0258   -2.8308 H   0  0  0  0  0  0  0  0  0  0  0  0
  1  2  2  0
  2  3  1  0
  3  4  1  0
  4  5  1  0
  5  6  2  0
  5  7  1  0
  7  8  1  0
  8  9  2  0
  9 10  1  0
 10 11  2  0
 11 12  1  0
 12 13  2  0
 13 14  1  0
 14 15  2  0
 15 16  1  0
 16 17  2  0
 17 18  1  0
 18 19  2  0
 19 20  1  0
  2 21  1  0
 21 22  1  0
 22 23  2  0
 23 24  1  0
 24 25  2  0
 25 26  1  0
 26 27  1  0
 26 28  1  0
 26 29  1  0
 25 30  1  0
 30 31  2  0
 31 32  1  0
 20  7  2  0
 31 22  1  0
 13  8  1  0
 20 15  1  0
  3 33  1  0
  3 34  1  0
  9 35  1  0
 10 36  1  0
 11 37  1  0
 12 38  1  0
 14 39  1  0
 16 40  1  0
 17 41  1  0
 18 42  1  0
 19 43  1  0
 21 44  1  0
 24 45  1  0
 30 46  1  0
M  END
$$$$
