
     RDKit          3D

 48 50  0  0  0  0  0  0  0  0999 V2000
    4.1242   -1.5059   -3.5269 C   0  0  0  0  0  0  0  0  0  0  0  0
    3.4072   -1.4185   -2.2116 C   0  0  0  0  0  0  0  0  0  0  0  0
    3.8688   -2.1339   -1.1042 C   0  0  0  0  0  0  0  0  0  0  0  0
    3.2384   -2.0624    0.1556 C   0  0  0  0  0  0  0  0  0  0  0  0
    3.8040   -2.8661    1.2932 C   0  0  0  0  0  0  0  0  0  0  0  0
    2.1217   -1.2032    0.2612 C   0  0  0  0  0  0  0  0  0  0  0  0
    1.1139   -0.8604    1.6192 S   0  0  0  0  0  0  0  0  0  0  0  0
    0.2061    0.2558    0.6960 C   0  0  0  0  0  0  0  0  0  0  0  0
   -0.9116    0.9048    1.2251 N   0  0  0  0  0  0  0  0  0  0  0  0
   -1.9936    1.2892    0.3142 C   0  0  0  0  0  0  0  0  0  0  0  0
   -2.8896    0.1056   -0.0661 C   0  0  0  0  0  0  0  0  0  0  0  0
   -4.0181    0.5029   -1.0292 C   0  0  0  0  0  0  0  0  0  0  0  0
   -3.7564    0.1962   -2.4463 N   0  0  0  0  0  0  0  0  0  0  0  0
   -2.6095    0.9192   -2.9927 C   0  0  0  0  0  0  0  0  0  0  0  0
   -4.9504    0.4772   -3.2482 C   0  0  0  0  0  0  0  0  0  0  0  0
   -1.1697    1.0060    2.5995 C   0  0  0  0  0  0  0  0  0  0  0  0
   -2.3238    0.9017    3.0245 O   0  0  0  0  0  0  0  0  0  0  0  0
   -0.0870    1.3548    3.5173 C   0  0  0  0  0  0  0  0  0  0  0  0
    0.0533    0.9440    4.8328 C   0  0  0  0  0  0  0  0  0  0  0  0
    1.2014    1.5101    5.4630 C   0  0  0  0  0  0  0  0  0  0  0  0
    1.8596    2.3618    4.6138 C   0  0  0  0  0  0  0  0  0  0  0  0
    3.4423    3.3172    5.0970 Br  0  0  0  0  0  0  0  0  0  0  0  0
    1.1202    2.5045    3.0976 S   0  0  0  0  0  0  0  0  0  0  0  0
    0.5491    0.3400   -0.5680 N   0  0  0  0  0  0  0  0  0  0  0  0
    1.6493   -0.4607   -0.8232 C   0  0  0  0  0  0  0  0  0  0  0  0
    2.3013   -0.5723   -2.0674 C   0  0  0  0  0  0  0  0  0  0  0  0
    4.9233   -0.7593   -3.5674 H   0  0  0  0  0  0  0  0  0  0  0  0
    3.4353   -1.3325   -4.3603 H   0  0  0  0  0  0  0  0  0  0  0  0
    4.5602   -2.5004   -3.6682 H   0  0  0  0  0  0  0  0  0  0  0  0
    4.7443   -2.7745   -1.2160 H   0  0  0  0  0  0  0  0  0  0  0  0
    3.9523   -3.9060    0.9832 H   0  0  0  0  0  0  0  0  0  0  0  0
    4.7674   -2.4468    1.6004 H   0  0  0  0  0  0  0  0  0  0  0  0
    3.1424   -2.8760    2.1635 H   0  0  0  0  0  0  0  0  0  0  0  0
   -2.6025    2.0593    0.8053 H   0  0  0  0  0  0  0  0  0  0  0  0
   -1.5536    1.7694   -0.5653 H   0  0  0  0  0  0  0  0  0  0  0  0
   -3.3439   -0.2957    0.8489 H   0  0  0  0  0  0  0  0  0  0  0  0
   -2.2972   -0.7186   -0.4822 H   0  0  0  0  0  0  0  0  0  0  0  0
   -4.8999   -0.0777   -0.7266 H   0  0  0  0  0  0  0  0  0  0  0  0
   -4.2838    1.5600   -0.8975 H   0  0  0  0  0  0  0  0  0  0  0  0
   -2.4923    0.7078   -4.0620 H   0  0  0  0  0  0  0  0  0  0  0  0
   -2.7073    2.0034   -2.8687 H   0  0  0  0  0  0  0  0  0  0  0  0
   -1.6779    0.5895   -2.5235 H   0  0  0  0  0  0  0  0  0  0  0  0
   -5.2226    1.5388   -3.2242 H   0  0  0  0  0  0  0  0  0  0  0  0
   -5.8050   -0.1072   -2.8890 H   0  0  0  0  0  0  0  0  0  0  0  0
   -4.7922    0.1845   -4.2924 H   0  0  0  0  0  0  0  0  0  0  0  0
   -0.6365    0.2583    5.3125 H   0  0  0  0  0  0  0  0  0  0  0  0
    1.5078    1.3059    6.4816 H   0  0  0  0  0  0  0  0  0  0  0  0
    1.9305    0.0103   -2.9055 H   0  0  0  0  0  0  0  0  0  0  0  0
  1  2  1  0
  2  3  2  0
  3  4  1  0
  4  5  1  0
  4  6  2  0
  6  7  1  0
  7  8  1  0
  8  9  1  0
  9 10  1  0
 10 11  1  0
 11 12  1  0
 12 13  1  0
 13 14  1  0
 13 15  1  0
  9 16  1  0
 16 17  2  0
 16 18  1  0
 18 19  2  0
 19 20  1  0
 20 21  2  0
 21 22  1  0
 21 23  1  0
  8 24  2  0
 24 25  1  0
 25 26  2  0
 26  2  1  0
 25  6  1  0
 23 18  1  0
  1 27  1  0
  1 28  1  0
  1 29  1  0
  3 30  1  0
  5 31  1  0
  5 32  1  0
  5 33  1  0
 10 34  1  0
 10 35  1  0
 11 36  1  0
 11 37  1  0
 12 38  1  0
 12 39  1  0
 14 40  1  0
 14 41  1  0
 14 42  1  0
 15 43  1  0
 15 44  1  0
 15 45  1  0
 19 46  1  0
 20 47  1  0
 26 48  1  0
M  END
$$$$
