
     RDKit          3D

 53 56  0  0  0  0  0  0  0  0999 V2000
    5.2035    2.7942   -1.8889 C   0  0  0  0  0  0  0  0  0  0  0  0
    4.9668    2.6041   -0.5000 O   0  0  0  0  0  0  0  0  0  0  0  0
    4.2884    1.3771   -0.2129 C   0  0  0  0  0  0  0  0  0  0  0  0
    2.7755    1.5481   -0.3118 C   0  0  0  0  0  0  0  0  0  0  0  0
    2.0587    0.3126   -0.0210 N   0  0  0  0  0  0  0  0  0  0  0  0
    1.7244   -0.6340   -0.9678 C   0  0  0  0  0  0  0  0  0  0  0  0
    2.0407   -0.5190   -2.4179 C   0  0  0  0  0  0  0  0  0  0  0  0
    1.0792   -1.6558   -0.3106 C   0  0  0  0  0  0  0  0  0  0  0  0
    0.9812   -1.3209    1.0692 C   0  0  0  0  0  0  0  0  0  0  0  0
    0.3257   -2.1726    2.0731 C   0  0  0  0  0  0  0  0  0  0  0  0
    0.4171   -3.4013    1.9771 O   0  0  0  0  0  0  0  0  0  0  0  0
   -0.4500   -1.5707    3.2336 C   0  0  0  0  0  0  0  0  0  0  0  0
   -1.6559   -0.3008    2.7261 S   0  0  0  0  0  0  0  0  0  0  0  0
   -2.5421   -1.2079    1.4953 C   0  0  0  0  0  0  0  0  0  0  0  0
   -2.8207   -2.5077    1.7278 N   0  0  0  0  0  0  0  0  0  0  0  0
   -3.4740   -3.2076    0.7833 C   0  0  0  0  0  0  0  0  0  0  0  0
   -3.7212   -4.6641    1.0726 C   0  0  0  0  0  0  0  0  0  0  0  0
   -3.8906   -2.7356   -0.4022 N   0  0  0  0  0  0  0  0  0  0  0  0
   -3.6068   -1.4344   -0.5859 C   0  0  0  0  0  0  0  0  0  0  0  0
   -4.0750   -0.6457   -2.0386 S   0  0  0  0  0  0  0  0  0  0  0  0
   -3.4013    0.7867   -1.5029 C   0  0  0  0  0  0  0  0  0  0  0  0
   -2.8250    0.7054   -0.2645 C   0  0  0  0  0  0  0  0  0  0  0  0
   -2.9381   -0.5944    0.3053 C   0  0  0  0  0  0  0  0  0  0  0  0
   -2.2371    2.0139    0.1274 C   0  0  0  0  0  0  0  0  0  0  0  0
   -2.8634    2.9910   -0.9140 C   0  0  0  0  0  0  0  0  0  0  0  0
   -3.3185    2.1291   -2.1311 C   0  0  0  0  0  0  0  0  0  0  0  0
    1.6296   -0.0977    1.2299 C   0  0  0  0  0  0  0  0  0  0  0  0
    1.8988    0.6998    2.4649 C   0  0  0  0  0  0  0  0  0  0  0  0
    5.7543    3.7317   -2.0238 H   0  0  0  0  0  0  0  0  0  0  0  0
    4.2611    2.8643   -2.4368 H   0  0  0  0  0  0  0  0  0  0  0  0
    5.8140    1.9782   -2.2859 H   0  0  0  0  0  0  0  0  0  0  0  0
    4.5634    1.0985    0.8086 H   0  0  0  0  0  0  0  0  0  0  0  0
    4.6544    0.5732   -0.8607 H   0  0  0  0  0  0  0  0  0  0  0  0
    2.4228    2.3274    0.3719 H   0  0  0  0  0  0  0  0  0  0  0  0
    2.4803    1.8877   -1.3089 H   0  0  0  0  0  0  0  0  0  0  0  0
    1.4907    0.3142   -2.8705 H   0  0  0  0  0  0  0  0  0  0  0  0
    1.7587   -1.4348   -2.9488 H   0  0  0  0  0  0  0  0  0  0  0  0
    3.1143   -0.3604   -2.5771 H   0  0  0  0  0  0  0  0  0  0  0  0
    0.6900   -2.5573   -0.7720 H   0  0  0  0  0  0  0  0  0  0  0  0
    0.2472   -1.1476    3.9604 H   0  0  0  0  0  0  0  0  0  0  0  0
   -0.9899   -2.3751    3.7480 H   0  0  0  0  0  0  0  0  0  0  0  0
   -2.8988   -5.2693    0.6596 H   0  0  0  0  0  0  0  0  0  0  0  0
   -3.7839   -4.8462    2.1550 H   0  0  0  0  0  0  0  0  0  0  0  0
   -4.6659   -4.9850    0.6202 H   0  0  0  0  0  0  0  0  0  0  0  0
   -2.5013    2.3153    1.1444 H   0  0  0  0  0  0  0  0  0  0  0  0
   -1.1491    1.9910    0.0209 H   0  0  0  0  0  0  0  0  0  0  0  0
   -3.7435    3.4656   -0.4649 H   0  0  0  0  0  0  0  0  0  0  0  0
   -2.1752    3.7876   -1.2021 H   0  0  0  0  0  0  0  0  0  0  0  0
   -4.2801    2.4824   -2.5271 H   0  0  0  0  0  0  0  0  0  0  0  0
   -2.5566    2.1465   -2.9267 H   0  0  0  0  0  0  0  0  0  0  0  0
    1.1015    1.4332    2.6289 H   0  0  0  0  0  0  0  0  0  0  0  0
    2.8499    1.2348    2.4065 H   0  0  0  0  0  0  0  0  0  0  0  0
    1.9716    0.0523    3.3446 H   0  0  0  0  0  0  0  0  0  0  0  0
  1  2  1  0
  2  3  1  0
  3  4  1  0
  4  5  1  0
  5  6  1  0
  6  7  1  0
  6  8  2  0
  8  9  1  0
  9 10  1  0
 10 11  2  0
 10 12  1  0
 12 13  1  0
 13 14  1  0
 14 15  2  0
 15 16  1  0
 16 17  1  0
 16 18  2  0
 18 19  1  0
 19 20  1  0
 20 21  1  0
 21 22  2  0
 22 23  1  0
 22 24  1  0
 24 25  1  0
 25 26  1  0
  9 27  2  0
 27 28  1  0
 27  5  1  0
 23 14  1  0
 23 19  2  0
 26 21  1  0
  1 29  1  0
  1 30  1  0
  1 31  1  0
  3 32  1  0
  3 33  1  0
  4 34  1  0
  4 35  1  0
  7 36  1  0
  7 37  1  0
  7 38  1  0
  8 39  1  0
 12 40  1  0
 12 41  1  0
 17 42  1  0
 17 43  1  0
 17 44  1  0
 24 45  1  0
 24 46  1  0
 25 47  1  0
 25 48  1  0
 26 49  1  0
 26 50  1  0
 28 51  1  0
 28 52  1  0
 28 53  1  0
M  END
$$$$
