
     RDKit          3D

 46 50  0  0  0  0  0  0  0  0999 V2000
   -0.2086    2.3045    0.7746 O   0  0  0  0  0  0  0  0  0  0  0  0
   -0.7099    1.4930    0.0011 C   0  0  0  0  0  0  0  0  0  0  0  0
   -1.9332    1.8408   -0.7334 C   0  0  0  0  0  0  0  0  0  0  0  0
   -2.3358    3.1742   -0.8552 C   0  0  0  0  0  0  0  0  0  0  0  0
   -3.4880    3.4704   -1.5778 C   0  0  0  0  0  0  0  0  0  0  0  0
   -3.9971    5.1047   -1.7445 Cl  0  0  0  0  0  0  0  0  0  0  0  0
   -4.2325    2.4506   -2.1712 C   0  0  0  0  0  0  0  0  0  0  0  0
   -3.8258    1.1210   -2.0327 C   0  0  0  0  0  0  0  0  0  0  0  0
   -2.6791    0.8127   -1.3011 C   0  0  0  0  0  0  0  0  0  0  0  0
   -2.3733   -0.5119   -1.1943 O   0  0  0  0  0  0  0  0  0  0  0  0
   -1.3460   -0.9036   -0.2335 C   0  0  0  0  0  0  0  0  0  0  0  0
   -0.9361   -2.3272   -0.7174 C   0  0  0  0  0  0  0  0  0  0  0  0
   -0.8560   -3.3522    0.4104 C   0  0  0  0  0  0  0  0  0  0  0  0
   -2.0815   -3.4687    1.1915 N   0  0  0  0  0  0  0  0  0  0  0  0
   -2.8733   -2.2445    1.2699 C   0  0  0  0  0  0  0  0  0  0  0  0
   -2.0103   -0.9906    1.1643 C   0  0  0  0  0  0  0  0  0  0  0  0
   -0.1567    0.0973   -0.2628 C   0  0  0  0  0  0  0  0  0  0  0  0
    1.0008   -0.2242    0.6683 C   0  0  0  0  0  0  0  0  0  0  0  0
    2.1230    0.2374   -0.1999 C   0  0  0  0  0  0  0  0  0  0  0  0
    3.4927    0.4492    0.3245 C   0  0  0  0  0  0  0  0  0  0  0  0
    4.4739    0.9646   -0.5339 C   0  0  0  0  0  0  0  0  0  0  0  0
    5.7768    1.1731   -0.0731 C   0  0  0  0  0  0  0  0  0  0  0  0
    6.1006    0.8653    1.2460 C   0  0  0  0  0  0  0  0  0  0  0  0
    7.7032    1.1194    1.8159 Cl  0  0  0  0  0  0  0  0  0  0  0  0
    5.1328    0.3503    2.1074 C   0  0  0  0  0  0  0  0  0  0  0  0
    3.8279    0.1406    1.6483 C   0  0  0  0  0  0  0  0  0  0  0  0
    1.8100    0.3990   -1.4464 N   0  0  0  0  0  0  0  0  0  0  0  0
    0.4311    0.1221   -1.5765 O   0  0  0  0  0  0  0  0  0  0  0  0
   -1.7490    3.9690   -0.4007 H   0  0  0  0  0  0  0  0  0  0  0  0
   -5.1293    2.6831   -2.7404 H   0  0  0  0  0  0  0  0  0  0  0  0
   -4.4088    0.3258   -2.4915 H   0  0  0  0  0  0  0  0  0  0  0  0
   -1.6566   -2.6955   -1.4614 H   0  0  0  0  0  0  0  0  0  0  0  0
    0.0275   -2.3072   -1.2393 H   0  0  0  0  0  0  0  0  0  0  0  0
   -0.6051   -4.3347   -0.0061 H   0  0  0  0  0  0  0  0  0  0  0  0
   -0.0374   -3.1025    1.0925 H   0  0  0  0  0  0  0  0  0  0  0  0
   -2.6652   -4.2232    0.8275 H   0  0  0  0  0  0  0  0  0  0  0  0
   -3.4138   -2.2414    2.2225 H   0  0  0  0  0  0  0  0  0  0  0  0
   -3.6308   -2.2443    0.4767 H   0  0  0  0  0  0  0  0  0  0  0  0
   -1.2560   -1.0073    1.9605 H   0  0  0  0  0  0  0  0  0  0  0  0
   -2.6500   -0.1208    1.3525 H   0  0  0  0  0  0  0  0  0  0  0  0
    1.1406   -1.2935    0.8354 H   0  0  0  0  0  0  0  0  0  0  0  0
    0.9606    0.2939    1.6287 H   0  0  0  0  0  0  0  0  0  0  0  0
    4.2305    1.2101   -1.5663 H   0  0  0  0  0  0  0  0  0  0  0  0
    6.5283    1.5752   -0.7477 H   0  0  0  0  0  0  0  0  0  0  0  0
    5.3875    0.1107    3.1369 H   0  0  0  0  0  0  0  0  0  0  0  0
    3.0971   -0.2644    2.3419 H   0  0  0  0  0  0  0  0  0  0  0  0
  1  2  2  0
  2  3  1  0
  3  4  2  0
  4  5  1  0
  5  6  1  0
  5  7  2  0
  7  8  1  0
  8  9  2  0
  9 10  1  0
 10 11  1  0
 11 12  1  0
 12 13  1  0
 13 14  1  0
 14 15  1  0
 15 16  1  0
 11 17  1  0
 17 18  1  0
 18 19  1  0
 19 20  1  0
 20 21  2  0
 21 22  1  0
 22 23  2  0
 23 24  1  0
 23 25  1  0
 25 26  2  0
 19 27  2  0
 27 28  1  0
 17  2  1  0
 26 20  1  0
  9  3  1  0
 16 11  1  0
 28 17  1  0
  4 29  1  0
  7 30  1  0
  8 31  1  0
 12 32  1  0
 12 33  1  0
 13 34  1  0
 13 35  1  0
 14 36  1  0
 15 37  1  0
 15 38  1  0
 16 39  1  0
 16 40  1  0
 18 41  1  0
 18 42  1  0
 21 43  1  0
 22 44  1  0
 25 45  1  0
 26 46  1  0
M  END
$$$$
