
     RDKit          3D

 46 49  0  0  0  0  0  0  0  0999 V2000
    5.9832    0.3580    2.4871 N   0  0  0  0  0  0  0  0  0  0  0  0
    5.8504   -0.8635    1.3435 S   0  0  0  0  0  6  0  0  0  0  0  0
    6.7070   -0.4733    0.2475 O   0  0  0  0  0  0  0  0  0  0  0  0
    6.0324   -2.1025    2.0631 O   0  0  0  0  0  0  0  0  0  0  0  0
    4.1622   -0.7175    0.8448 C   0  0  0  0  0  0  0  0  0  0  0  0
    3.1766   -1.4340    1.5181 C   0  0  0  0  0  0  0  0  0  0  0  0
    1.8455   -1.3288    1.0997 C   0  0  0  0  0  0  0  0  0  0  0  0
    1.4656   -0.5266    0.0066 C   0  0  0  0  0  0  0  0  0  0  0  0
    0.1296   -0.4423   -0.3825 N   0  0  0  0  0  0  0  0  0  0  0  0
   -0.8332   -1.1675    0.2598 N   0  0  0  0  0  0  0  0  0  0  0  0
   -1.9257   -1.0559   -0.4326 C   0  0  0  0  0  0  0  0  0  0  0  0
   -3.2035   -1.6918   -0.0339 C   0  0  0  0  0  0  0  0  0  0  0  0
   -4.3399   -1.6271   -0.8489 C   0  0  0  0  0  0  0  0  0  0  0  0
   -5.5303   -2.2380   -0.4410 C   0  0  0  0  0  0  0  0  0  0  0  0
   -5.5835   -2.9126    0.7781 C   0  0  0  0  0  0  0  0  0  0  0  0
   -7.1943   -3.7363    1.3244 Br  0  0  0  0  0  0  0  0  0  0  0  0
   -4.4576   -2.9844    1.5951 C   0  0  0  0  0  0  0  0  0  0  0  0
   -3.2681   -2.3743    1.1885 C   0  0  0  0  0  0  0  0  0  0  0  0
   -1.7978   -0.2566   -1.6999 C   0  0  0  0  0  0  0  0  0  0  0  0
   -0.3870    0.3101   -1.5276 C   0  0  0  0  0  0  0  0  0  0  0  0
   -0.4298    1.8147   -1.2917 C   0  0  0  0  0  0  0  0  0  0  0  0
   -0.2442    2.6889   -2.3785 C   0  0  0  0  0  0  0  0  0  0  0  0
   -0.3014    4.0719   -2.1950 C   0  0  0  0  0  0  0  0  0  0  0  0
   -0.5494    4.5870   -0.9289 C   0  0  0  0  0  0  0  0  0  0  0  0
   -0.6044    5.9141   -0.7564 F   0  0  0  0  0  0  0  0  0  0  0  0
   -0.7437    3.7460    0.1586 C   0  0  0  0  0  0  0  0  0  0  0  0
   -0.6879    2.3631   -0.0220 C   0  0  0  0  0  0  0  0  0  0  0  0
    2.4902    0.1712   -0.6555 C   0  0  0  0  0  0  0  0  0  0  0  0
    3.8276    0.0787   -0.2488 C   0  0  0  0  0  0  0  0  0  0  0  0
    6.1950   -0.0441    3.4003 H   0  0  0  0  0  0  0  0  0  0  0  0
    6.6584    1.0552    2.1736 H   0  0  0  0  0  0  0  0  0  0  0  0
    3.4246   -2.0723    2.3624 H   0  0  0  0  0  0  0  0  0  0  0  0
    1.0864   -1.8912    1.6404 H   0  0  0  0  0  0  0  0  0  0  0  0
   -4.3258   -1.1124   -1.8049 H   0  0  0  0  0  0  0  0  0  0  0  0
   -6.4082   -2.1830   -1.0802 H   0  0  0  0  0  0  0  0  0  0  0  0
   -4.4918   -3.5098    2.5461 H   0  0  0  0  0  0  0  0  0  0  0  0
   -2.3926   -2.4355    1.8326 H   0  0  0  0  0  0  0  0  0  0  0  0
   -1.8440   -0.9416   -2.5533 H   0  0  0  0  0  0  0  0  0  0  0  0
   -2.5789    0.5035   -1.7878 H   0  0  0  0  0  0  0  0  0  0  0  0
    0.2029    0.0905   -2.4267 H   0  0  0  0  0  0  0  0  0  0  0  0
   -0.0509    2.2988   -3.3758 H   0  0  0  0  0  0  0  0  0  0  0  0
   -0.1543    4.7503   -3.0294 H   0  0  0  0  0  0  0  0  0  0  0  0
   -0.9345    4.1683    1.1400 H   0  0  0  0  0  0  0  0  0  0  0  0
   -0.8363    1.7116    0.8386 H   0  0  0  0  0  0  0  0  0  0  0  0
    2.2695    0.8099   -1.5054 H   0  0  0  0  0  0  0  0  0  0  0  0
    4.5923    0.6315   -0.7896 H   0  0  0  0  0  0  0  0  0  0  0  0
  1  2  1  0
  2  3  2  0
  2  4  2  0
  2  5  1  0
  5  6  2  0
  6  7  1  0
  7  8  2  0
  8  9  1  0
  9 10  1  0
 10 11  2  0
 11 12  1  0
 12 13  2  0
 13 14  1  0
 14 15  2  0
 15 16  1  0
 15 17  1  0
 17 18  2  0
 11 19  1  0
 19 20  1  0
 20 21  1  0
 21 22  2  0
 22 23  1  0
 23 24  2  0
 24 25  1  0
 24 26  1  0
 26 27  2  0
  8 28  1  0
 28 29  2  0
 29  5  1  0
 20  9  1  0
 27 21  1  0
 18 12  1  0
  1 30  1  0
  1 31  1  0
  6 32  1  0
  7 33  1  0
 13 34  1  0
 14 35  1  0
 17 36  1  0
 18 37  1  0
 19 38  1  0
 19 39  1  0
 20 40  1  0
 22 41  1  0
 23 42  1  0
 26 43  1  0
 27 44  1  0
 28 45  1  0
 29 46  1  0
M  END
$$$$
