
     RDKit          3D

 71 75  0  0  0  0  0  0  0  0999 V2000
    0.7611    2.7769    4.5545 C   0  0  0  0  0  0  0  0  0  0  0  0
    0.1829    3.2880    3.2421 C   0  0  0  0  0  0  0  0  0  0  0  0
    0.2254    2.2441    2.2028 N   0  0  0  0  0  0  0  0  0  0  0  0
    1.3106    2.1515    1.3412 C   0  0  0  0  0  0  0  0  0  0  0  0
    1.4910    1.2506    0.3644 C   0  0  0  0  0  0  0  0  0  0  0  0
    2.7277    1.3408   -0.4657 C   0  0  0  0  0  0  0  0  0  0  0  0
    3.5844    2.1969   -0.2585 O   0  0  0  0  0  0  0  0  0  0  0  0
    2.8318    0.4111   -1.4695 N   0  0  0  0  0  0  0  0  0  0  0  0
    3.9735    0.3549   -2.3557 C   0  0  0  0  0  0  0  0  0  0  0  0
    5.1239   -0.4545   -1.7592 C   0  0  0  0  0  0  0  0  0  0  0  0
    6.3857   -0.2982   -2.6177 C   0  0  0  0  0  0  0  0  0  0  0  0
    7.4569   -1.2374   -2.2439 N   0  0  0  0  0  0  0  0  0  0  0  0
    8.5887   -1.1408   -3.1814 C   0  0  0  0  0  0  0  0  0  0  0  0
    9.4774   -0.0193   -2.6611 C   0  0  0  0  0  0  0  0  0  0  0  0
    9.1192    0.1242   -1.1904 C   0  0  0  0  0  0  0  0  0  0  0  0
    8.0647   -0.9416   -0.9373 C   0  0  0  0  0  0  0  0  0  0  0  0
    0.4213    0.2411    0.1863 C   0  0  0  0  0  0  0  0  0  0  0  0
    0.4784   -0.6083   -0.7005 O   0  0  0  0  0  0  0  0  0  0  0  0
   -0.7387    0.2813    1.1137 C   0  0  0  0  0  0  0  0  0  0  0  0
   -1.7386   -0.6942    0.9723 C   0  0  0  0  0  0  0  0  0  0  0  0
   -2.8422   -0.6635    1.8191 C   0  0  0  0  0  0  0  0  0  0  0  0
   -4.1210   -1.8902    1.6849 S   0  0  0  0  0  6  0  0  0  0  0  0
   -3.6945   -2.9021    0.7435 O   0  0  0  0  0  0  0  0  0  0  0  0
   -4.5148   -2.2366    3.0333 O   0  0  0  0  0  0  0  0  0  0  0  0
   -5.3824   -1.0116    0.9656 N   0  0  0  0  0  0  0  0  0  0  0  0
   -5.1669   -0.5482   -0.4377 C   0  0  0  0  0  0  0  0  0  0  0  0
   -6.1231   -1.1859   -1.4453 C   0  0  0  0  0  0  0  0  0  0  0  0
   -7.5404   -0.9411   -1.0094 C   0  0  0  0  0  0  0  0  0  0  0  0
   -8.5526   -0.5991   -1.9094 C   0  0  0  0  0  0  0  0  0  0  0  0
   -9.8496   -0.3807   -1.4441 C   0  0  0  0  0  0  0  0  0  0  0  0
  -10.1391   -0.5140   -0.0862 C   0  0  0  0  0  0  0  0  0  0  0  0
   -9.1345   -0.8734    0.8126 C   0  0  0  0  0  0  0  0  0  0  0  0
   -7.8284   -1.0841    0.3570 C   0  0  0  0  0  0  0  0  0  0  0  0
   -6.7305   -1.5539    1.2815 C   0  0  0  0  0  0  0  0  0  0  0  0
   -2.9398    0.3067    2.8147 C   0  0  0  0  0  0  0  0  0  0  0  0
   -1.9323    1.2696    2.9523 C   0  0  0  0  0  0  0  0  0  0  0  0
   -0.8100    1.2875    2.1062 C   0  0  0  0  0  0  0  0  0  0  0  0
    0.2442    1.8766    4.9057 H   0  0  0  0  0  0  0  0  0  0  0  0
    0.6699    3.5426    5.3296 H   0  0  0  0  0  0  0  0  0  0  0  0
    1.8225    2.5316    4.4451 H   0  0  0  0  0  0  0  0  0  0  0  0
   -0.8302    3.6789    3.3846 H   0  0  0  0  0  0  0  0  0  0  0  0
    0.7719    4.1577    2.9196 H   0  0  0  0  0  0  0  0  0  0  0  0
    2.0645    2.9179    1.5169 H   0  0  0  0  0  0  0  0  0  0  0  0
    2.1024   -0.2979   -1.5552 H   0  0  0  0  0  0  0  0  0  0  0  0
    3.6349   -0.1003   -3.2938 H   0  0  0  0  0  0  0  0  0  0  0  0
    4.2965    1.3802   -2.5752 H   0  0  0  0  0  0  0  0  0  0  0  0
    4.8286   -1.5097   -1.7006 H   0  0  0  0  0  0  0  0  0  0  0  0
    5.3158   -0.1189   -0.7338 H   0  0  0  0  0  0  0  0  0  0  0  0
    6.1022   -0.5003   -3.6585 H   0  0  0  0  0  0  0  0  0  0  0  0
    6.7266    0.7447   -2.5807 H   0  0  0  0  0  0  0  0  0  0  0  0
    8.2837   -0.9766   -4.2198 H   0  0  0  0  0  0  0  0  0  0  0  0
    9.1382   -2.0893   -3.1655 H   0  0  0  0  0  0  0  0  0  0  0  0
   10.5381   -0.2532   -2.7982 H   0  0  0  0  0  0  0  0  0  0  0  0
    9.2707    0.9199   -3.1855 H   0  0  0  0  0  0  0  0  0  0  0  0
    8.7157    1.1250   -0.9997 H   0  0  0  0  0  0  0  0  0  0  0  0
    9.9932   -0.0131   -0.5455 H   0  0  0  0  0  0  0  0  0  0  0  0
    7.3565   -0.6467   -0.1587 H   0  0  0  0  0  0  0  0  0  0  0  0
    8.5550   -1.8538   -0.5732 H   0  0  0  0  0  0  0  0  0  0  0  0
   -1.6501   -1.4651    0.2083 H   0  0  0  0  0  0  0  0  0  0  0  0
   -4.1390   -0.7347   -0.7660 H   0  0  0  0  0  0  0  0  0  0  0  0
   -5.2921    0.5436   -0.4356 H   0  0  0  0  0  0  0  0  0  0  0  0
   -5.9515   -2.2670   -1.5147 H   0  0  0  0  0  0  0  0  0  0  0  0
   -5.9441   -0.7522   -2.4358 H   0  0  0  0  0  0  0  0  0  0  0  0
   -8.3398   -0.4972   -2.9705 H   0  0  0  0  0  0  0  0  0  0  0  0
  -10.6387   -0.1071   -2.1410 H   0  0  0  0  0  0  0  0  0  0  0  0
  -11.1525   -0.3460    0.2710 H   0  0  0  0  0  0  0  0  0  0  0  0
   -9.3802   -0.9949    1.8650 H   0  0  0  0  0  0  0  0  0  0  0  0
   -6.7137   -2.6509    1.2388 H   0  0  0  0  0  0  0  0  0  0  0  0
   -6.9729   -1.2526    2.3085 H   0  0  0  0  0  0  0  0  0  0  0  0
   -3.7943    0.3191    3.4894 H   0  0  0  0  0  0  0  0  0  0  0  0
   -2.0574    1.9953    3.7502 H   0  0  0  0  0  0  0  0  0  0  0  0
  1  2  1  0
  2  3  1  0
  3  4  1  0
  4  5  2  0
  5  6  1  0
  6  7  2  0
  6  8  1  0
  8  9  1  0
  9 10  1  0
 10 11  1  0
 11 12  1  0
 12 13  1  0
 13 14  1  0
 14 15  1  0
 15 16  1  0
  5 17  1  0
 17 18  2  0
 17 19  1  0
 19 20  2  0
 20 21  1  0
 21 22  1  0
 22 23  2  0
 22 24  2  0
 22 25  1  0
 25 26  1  0
 26 27  1  0
 27 28  1  0
 28 29  2  0
 29 30  1  0
 30 31  2  0
 31 32  1  0
 32 33  2  0
 33 34  1  0
 21 35  2  0
 35 36  1  0
 36 37  2  0
 37  3  1  0
 16 12  1  0
 37 19  1  0
 34 25  1  0
 33 28  1  0
  1 38  1  0
  1 39  1  0
  1 40  1  0
  2 41  1  0
  2 42  1  0
  4 43  1  0
  8 44  1  0
  9 45  1  0
  9 46  1  0
 10 47  1  0
 10 48  1  0
 11 49  1  0
 11 50  1  0
 13 51  1  0
 13 52  1  0
 14 53  1  0
 14 54  1  0
 15 55  1  0
 15 56  1  0
 16 57  1  0
 16 58  1  0
 20 59  1  0
 26 60  1  0
 26 61  1  0
 27 62  1  0
 27 63  1  0
 29 64  1  0
 30 65  1  0
 31 66  1  0
 32 67  1  0
 34 68  1  0
 34 69  1  0
 35 70  1  0
 36 71  1  0
M  END
$$$$
