
     RDKit          3D

 47 50  0  0  0  0  0  0  0  0999 V2000
   -1.4567   -0.6842    0.2924 O   0  0  0  0  0  0  0  0  0  0  0  0
   -0.6631   -0.1610    1.0793 C   0  0  0  0  0  0  0  0  0  0  0  0
   -1.1553    0.3485    2.4267 C   0  0  0  0  0  0  0  0  0  0  0  0
   -1.5909    2.1048    2.3466 S   0  0  0  0  0  0  0  0  0  0  0  0
   -3.0351    2.0657    1.3830 C   0  0  0  0  0  0  0  0  0  0  0  0
   -3.6185    3.1459    0.9055 N   0  0  0  0  0  0  0  0  0  0  0  0
   -4.7288    2.7182    0.2037 N   0  0  0  0  0  0  0  0  0  0  0  0
   -4.7418    1.4037    0.2967 C   0  0  0  0  0  0  0  0  0  0  0  0
   -5.6715    0.4297   -0.2579 C   0  0  0  0  0  0  0  0  0  0  0  0
   -6.8673    0.8660   -0.8484 C   0  0  0  0  0  0  0  0  0  0  0  0
   -7.7745   -0.0502   -1.3870 C   0  0  0  0  0  0  0  0  0  0  0  0
   -7.4947   -1.4143   -1.3454 C   0  0  0  0  0  0  0  0  0  0  0  0
   -6.3085   -1.8635   -0.7688 C   0  0  0  0  0  0  0  0  0  0  0  0
   -5.4016   -0.9474   -0.2290 C   0  0  0  0  0  0  0  0  0  0  0  0
   -3.7116    0.9235    1.0590 O   0  0  0  0  0  0  0  0  0  0  0  0
    0.6839   -0.0337    0.7756 N   0  0  0  0  0  0  0  0  0  0  0  0
    1.6937    0.5801    1.6477 C   0  0  0  0  0  0  0  0  0  0  0  0
    3.0013    0.9448    0.9177 C   0  0  0  0  0  0  0  0  0  0  0  0
    3.5558   -0.2191    0.2126 N   0  0  0  0  0  0  0  0  0  0  0  0
    4.8971   -0.2802   -0.1443 C   0  0  0  0  0  0  0  0  0  0  0  0
    5.7353    0.8464   -0.1137 C   0  0  0  0  0  0  0  0  0  0  0  0
    7.0888    0.7749   -0.4682 C   0  0  0  0  0  0  0  0  0  0  0  0
    7.6450   -0.4363   -0.8596 C   0  0  0  0  0  0  0  0  0  0  0  0
    6.8467   -1.5722   -0.8935 C   0  0  0  0  0  0  0  0  0  0  0  0
    5.4944   -1.4902   -0.5388 C   0  0  0  0  0  0  0  0  0  0  0  0
    2.5932   -1.1598   -0.3941 C   0  0  0  0  0  0  0  0  0  0  0  0
    1.1794   -0.5587   -0.5012 C   0  0  0  0  0  0  0  0  0  0  0  0
   -0.3915    0.1973    3.1944 H   0  0  0  0  0  0  0  0  0  0  0  0
   -2.0186   -0.2496    2.7385 H   0  0  0  0  0  0  0  0  0  0  0  0
   -7.1002    1.9290   -0.8915 H   0  0  0  0  0  0  0  0  0  0  0  0
   -8.6973    0.3031   -1.8403 H   0  0  0  0  0  0  0  0  0  0  0  0
   -8.1989   -2.1273   -1.7668 H   0  0  0  0  0  0  0  0  0  0  0  0
   -6.0842   -2.9269   -0.7429 H   0  0  0  0  0  0  0  0  0  0  0  0
   -4.4739   -1.3204    0.2030 H   0  0  0  0  0  0  0  0  0  0  0  0
    1.2820    1.4756    2.1192 H   0  0  0  0  0  0  0  0  0  0  0  0
    1.9045   -0.1482    2.4401 H   0  0  0  0  0  0  0  0  0  0  0  0
    2.8111    1.7502    0.1976 H   0  0  0  0  0  0  0  0  0  0  0  0
    3.7036    1.3173    1.6729 H   0  0  0  0  0  0  0  0  0  0  0  0
    5.3469    1.8209    0.1666 H   0  0  0  0  0  0  0  0  0  0  0  0
    7.7025    1.6714   -0.4396 H   0  0  0  0  0  0  0  0  0  0  0  0
    8.6944   -0.4949   -1.1341 H   0  0  0  0  0  0  0  0  0  0  0  0
    7.2709   -2.5279   -1.1890 H   0  0  0  0  0  0  0  0  0  0  0  0
    4.9156   -2.4096   -0.5541 H   0  0  0  0  0  0  0  0  0  0  0  0
    2.5552   -2.0649    0.2241 H   0  0  0  0  0  0  0  0  0  0  0  0
    2.9050   -1.4483   -1.4053 H   0  0  0  0  0  0  0  0  0  0  0  0
    1.1850    0.2842   -1.2034 H   0  0  0  0  0  0  0  0  0  0  0  0
    0.4935   -1.3122   -0.9021 H   0  0  0  0  0  0  0  0  0  0  0  0
  1  2  2  0
  2  3  1  0
  3  4  1  0
  4  5  1  0
  5  6  2  0
  6  7  1  0
  7  8  2  0
  8  9  1  0
  9 10  2  0
 10 11  1  0
 11 12  2  0
 12 13  1  0
 13 14  2  0
  8 15  1  0
  2 16  1  0
 16 17  1  0
 17 18  1  0
 18 19  1  0
 19 20  1  0
 20 21  2  0
 21 22  1  0
 22 23  2  0
 23 24  1  0
 24 25  2  0
 19 26  1  0
 26 27  1  0
 15  5  1  0
 27 16  1  0
 14  9  1  0
 25 20  1  0
  3 28  1  0
  3 29  1  0
 10 30  1  0
 11 31  1  0
 12 32  1  0
 13 33  1  0
 14 34  1  0
 17 35  1  0
 17 36  1  0
 18 37  1  0
 18 38  1  0
 21 39  1  0
 22 40  1  0
 23 41  1  0
 24 42  1  0
 25 43  1  0
 26 44  1  0
 26 45  1  0
 27 46  1  0
 27 47  1  0
M  END
$$$$
