
     RDKit          3D

 37 39  0  0  0  0  0  0  0  0999 V2000
    0.1902   -2.0226    1.3823 O   0  0  0  0  0  0  0  0  0  0  0  0
    0.9670   -1.0925    1.1538 C   0  0  0  0  0  0  0  0  0  0  0  0
    2.1958   -0.9311    2.0413 C   0  0  0  0  0  0  0  0  0  0  0  0
    3.4114   -1.5021    1.3746 C   0  0  0  0  0  0  0  0  0  0  0  0
    3.5561   -2.7178    0.7331 C   0  0  0  0  0  0  0  0  0  0  0  0
    4.8740   -2.9125    0.2289 C   0  0  0  0  0  0  0  0  0  0  0  0
    5.6980   -1.8481    0.5154 C   0  0  0  0  0  0  0  0  0  0  0  0
    4.8860   -0.6260    1.3910 S   0  0  0  0  0  0  0  0  0  0  0  0
    0.7755   -0.1449    0.1476 N   0  0  0  0  0  0  0  0  0  0  0  0
    1.6436    0.9769   -0.0958 C   0  0  0  0  0  0  0  0  0  0  0  0
    0.9384    1.7637   -1.1822 C   0  0  0  0  0  0  0  0  0  0  0  0
   -0.1046    0.8712   -1.7127 N   0  0  0  0  0  0  0  0  0  0  0  0
   -0.1536   -0.1305   -0.8922 C   0  0  0  0  0  0  0  0  0  0  0  0
   -1.3022   -1.3941   -1.1420 S   0  0  0  0  0  0  0  0  0  0  0  0
   -2.5448   -0.9158    0.0902 C   0  0  0  0  0  0  0  0  0  0  0  0
   -3.2975    0.3440   -0.2679 C   0  0  0  0  0  0  0  0  0  0  0  0
   -4.2756    0.2813   -1.2796 C   0  0  0  0  0  0  0  0  0  0  0  0
   -4.9978    1.4150   -1.6560 C   0  0  0  0  0  0  0  0  0  0  0  0
   -4.7559    2.6333   -1.0296 C   0  0  0  0  0  0  0  0  0  0  0  0
   -3.7901    2.7173   -0.0279 C   0  0  0  0  0  0  0  0  0  0  0  0
   -3.0634    1.5829    0.3518 C   0  0  0  0  0  0  0  0  0  0  0  0
   -1.8873    1.7840    1.6043 Cl  0  0  0  0  0  0  0  0  0  0  0  0
    2.0112   -1.4812    2.9730 H   0  0  0  0  0  0  0  0  0  0  0  0
    2.3195    0.1154    2.3339 H   0  0  0  0  0  0  0  0  0  0  0  0
    2.7515   -3.4382    0.6254 H   0  0  0  0  0  0  0  0  0  0  0  0
    5.2014   -3.7925   -0.3116 H   0  0  0  0  0  0  0  0  0  0  0  0
    6.7422   -1.7323    0.2587 H   0  0  0  0  0  0  0  0  0  0  0  0
    2.6105    0.6079   -0.4507 H   0  0  0  0  0  0  0  0  0  0  0  0
    1.7955    1.5740    0.8074 H   0  0  0  0  0  0  0  0  0  0  0  0
    0.4695    2.6669   -0.7764 H   0  0  0  0  0  0  0  0  0  0  0  0
    1.6330    2.0648   -1.9726 H   0  0  0  0  0  0  0  0  0  0  0  0
   -3.2673   -1.7383    0.1604 H   0  0  0  0  0  0  0  0  0  0  0  0
   -2.0940   -0.8552    1.0836 H   0  0  0  0  0  0  0  0  0  0  0  0
   -4.4725   -0.6606   -1.7899 H   0  0  0  0  0  0  0  0  0  0  0  0
   -5.7441    1.3455   -2.4437 H   0  0  0  0  0  0  0  0  0  0  0  0
   -5.3143    3.5180   -1.3242 H   0  0  0  0  0  0  0  0  0  0  0  0
   -3.6053    3.6744    0.4532 H   0  0  0  0  0  0  0  0  0  0  0  0
  1  2  2  0
  2  3  1  0
  3  4  1  0
  4  5  2  0
  5  6  1  0
  6  7  2  0
  7  8  1  0
  2  9  1  0
  9 10  1  0
 10 11  1  0
 11 12  1  0
 12 13  2  0
 13 14  1  0
 14 15  1  0
 15 16  1  0
 16 17  2  0
 17 18  1  0
 18 19  2  0
 19 20  1  0
 20 21  2  0
 21 22  1  0
  8  4  1  0
 13  9  1  0
 21 16  1  0
  3 23  1  0
  3 24  1  0
  5 25  1  0
  6 26  1  0
  7 27  1  0
 10 28  1  0
 10 29  1  0
 11 30  1  0
 11 31  1  0
 15 32  1  0
 15 33  1  0
 17 34  1  0
 18 35  1  0
 19 36  1  0
 20 37  1  0
M  END
$$$$
