
     RDKit          3D

 39 41  0  0  0  0  0  0  0  0999 V2000
   -3.7211   -2.1644    0.4853 F   0  0  0  0  0  0  0  0  0  0  0  0
   -4.0949   -0.8785    0.5595 C   0  0  0  0  0  0  0  0  0  0  0  0
   -5.1211   -0.5331    1.4352 C   0  0  0  0  0  0  0  0  0  0  0  0
   -5.5416    0.7928    1.5196 C   0  0  0  0  0  0  0  0  0  0  0  0
   -4.9338    1.7651    0.7254 C   0  0  0  0  0  0  0  0  0  0  0  0
   -3.9044    1.4130   -0.1520 C   0  0  0  0  0  0  0  0  0  0  0  0
   -3.4710    0.0812   -0.2435 C   0  0  0  0  0  0  0  0  0  0  0  0
   -2.3541   -0.3116   -1.1795 C   0  0  0  0  0  0  0  0  0  0  0  0
   -1.0639   -0.5126   -0.5010 N   0  0  0  0  0  0  0  0  0  0  0  0
   -0.1038   -1.1619   -1.4227 C   0  0  0  0  0  0  0  0  0  0  0  0
    1.2836   -1.3864   -0.7797 C   0  0  0  0  0  0  0  0  0  0  0  0
    1.8433   -0.1045   -0.3025 N   0  0  0  0  0  0  0  0  0  0  0  0
    3.1815   -0.0845    0.1205 C   0  0  0  0  0  0  0  0  0  0  0  0
    3.9267   -1.2411    0.3965 C   0  0  0  0  0  0  0  0  0  0  0  0
    5.2647   -1.1691    0.8058 C   0  0  0  0  0  0  0  0  0  0  0  0
    5.8845    0.0682    0.9358 C   0  0  0  0  0  0  0  0  0  0  0  0
    7.5274    0.1577    1.4363 Cl  0  0  0  0  0  0  0  0  0  0  0  0
    5.1797    1.2319    0.6563 C   0  0  0  0  0  0  0  0  0  0  0  0
    3.8434    1.1501    0.2501 C   0  0  0  0  0  0  0  0  0  0  0  0
    0.9154    0.5844    0.6277 C   0  0  0  0  0  0  0  0  0  0  0  0
   -0.4791    0.7602   -0.0219 C   0  0  0  0  0  0  0  0  0  0  0  0
   -5.5852   -1.3023    2.0441 H   0  0  0  0  0  0  0  0  0  0  0  0
   -6.3417    1.0676    2.2020 H   0  0  0  0  0  0  0  0  0  0  0  0
   -5.2610    2.8001    0.7902 H   0  0  0  0  0  0  0  0  0  0  0  0
   -3.4387    2.1841   -0.7615 H   0  0  0  0  0  0  0  0  0  0  0  0
   -2.6642   -1.2442   -1.6710 H   0  0  0  0  0  0  0  0  0  0  0  0
   -2.2631    0.4275   -1.9872 H   0  0  0  0  0  0  0  0  0  0  0  0
   -0.4951   -2.1395   -1.7291 H   0  0  0  0  0  0  0  0  0  0  0  0
    0.0178   -0.5559   -2.3309 H   0  0  0  0  0  0  0  0  0  0  0  0
    1.1841   -2.0965    0.0517 H   0  0  0  0  0  0  0  0  0  0  0  0
    1.9408   -1.8285   -1.5386 H   0  0  0  0  0  0  0  0  0  0  0  0
    3.4802   -2.2275    0.3171 H   0  0  0  0  0  0  0  0  0  0  0  0
    5.8101   -2.0840    1.0199 H   0  0  0  0  0  0  0  0  0  0  0  0
    5.6578    2.2033    0.7416 H   0  0  0  0  0  0  0  0  0  0  0  0
    3.3200    2.0711    0.0042 H   0  0  0  0  0  0  0  0  0  0  0  0
    0.8200    0.0016    1.5536 H   0  0  0  0  0  0  0  0  0  0  0  0
    1.2805    1.5811    0.9003 H   0  0  0  0  0  0  0  0  0  0  0  0
   -0.3913    1.4714   -0.8544 H   0  0  0  0  0  0  0  0  0  0  0  0
   -1.1321    1.2139    0.7317 H   0  0  0  0  0  0  0  0  0  0  0  0
  1  2  1  0
  2  3  2  0
  3  4  1  0
  4  5  2  0
  5  6  1  0
  6  7  2  0
  7  8  1  0
  8  9  1  0
  9 10  1  0
 10 11  1  0
 11 12  1  0
 12 13  1  0
 13 14  2  0
 14 15  1  0
 15 16  2  0
 16 17  1  0
 16 18  1  0
 18 19  2  0
 12 20  1  0
 20 21  1  0
  7  2  1  0
 21  9  1  0
 19 13  1  0
  3 22  1  0
  4 23  1  0
  5 24  1  0
  6 25  1  0
  8 26  1  0
  8 27  1  0
 10 28  1  0
 10 29  1  0
 11 30  1  0
 11 31  1  0
 14 32  1  0
 15 33  1  0
 18 34  1  0
 19 35  1  0
 20 36  1  0
 20 37  1  0
 21 38  1  0
 21 39  1  0
M  END
$$$$
