
     RDKit          3D

 46 49  0  0  0  0  0  0  0  0999 V2000
    5.9439   -3.9366    0.8282 O   0  0  0  0  0  0  0  0  0  0  0  0
    5.7839   -3.7914   -0.3922 N   0  0  0  0  0  4  0  0  0  0  0  0
    6.1376   -4.6145   -1.2492 O   0  0  0  0  0  1  0  0  0  0  0  0
    5.1382   -2.5574   -0.8561 C   0  0  0  0  0  0  0  0  0  0  0  0
    5.0590   -2.2923   -2.2292 C   0  0  0  0  0  0  0  0  0  0  0  0
    4.4454   -1.1186   -2.6663 C   0  0  0  0  0  0  0  0  0  0  0  0
    3.9169   -0.2173   -1.7395 C   0  0  0  0  0  0  0  0  0  0  0  0
    3.9968   -0.4732   -0.3611 C   0  0  0  0  0  0  0  0  0  0  0  0
    3.3988    0.5025    0.6298 C   0  0  0  0  0  0  0  0  0  0  0  0
    1.9226    0.3307    0.8067 C   0  0  0  0  0  0  0  0  0  0  0  0
    1.2580   -0.9706    1.7703 S   0  0  0  0  0  0  0  0  0  0  0  0
   -0.4324   -0.4012    1.4662 C   0  0  0  0  0  0  0  0  0  0  0  0
   -1.3335   -1.0965    2.0689 N   0  0  0  0  0  0  0  0  0  0  0  0
   -2.6841   -0.7508    2.0184 C   0  0  0  0  0  0  0  0  0  0  0  0
   -3.5680   -1.5228    1.2603 C   0  0  0  0  0  0  0  0  0  0  0  0
   -4.9299   -1.2163    1.2290 C   0  0  0  0  0  0  0  0  0  0  0  0
   -5.4190   -0.1453    1.9753 C   0  0  0  0  0  0  0  0  0  0  0  0
   -4.5501    0.6087    2.7628 C   0  0  0  0  0  0  0  0  0  0  0  0
   -3.1891    0.2979    2.7929 C   0  0  0  0  0  0  0  0  0  0  0  0
   -0.3609    0.7260    0.6365 N   0  0  0  0  0  0  0  0  0  0  0  0
   -1.4925    1.3659    0.0767 C   0  0  0  0  0  0  0  0  0  0  0  0
   -2.2449    0.7416   -0.9278 C   0  0  0  0  0  0  0  0  0  0  0  0
   -3.3344    1.3939   -1.5076 C   0  0  0  0  0  0  0  0  0  0  0  0
   -3.6776    2.6802   -1.0953 C   0  0  0  0  0  0  0  0  0  0  0  0
   -2.9322    3.3178   -0.1055 C   0  0  0  0  0  0  0  0  0  0  0  0
   -1.8428    2.6662    0.4746 C   0  0  0  0  0  0  0  0  0  0  0  0
    0.9456    1.1044    0.3019 C   0  0  0  0  0  0  0  0  0  0  0  0
    1.2225    2.1708   -0.5217 O   0  0  0  0  0  0  0  0  0  0  0  0
    4.6092   -1.6563    0.0790 C   0  0  0  0  0  0  0  0  0  0  0  0
    5.4655   -2.9842   -2.9638 H   0  0  0  0  0  0  0  0  0  0  0  0
    4.3758   -0.9050   -3.7305 H   0  0  0  0  0  0  0  0  0  0  0  0
    3.4355    0.6920   -2.0980 H   0  0  0  0  0  0  0  0  0  0  0  0
    3.6341    1.5221    0.2973 H   0  0  0  0  0  0  0  0  0  0  0  0
    3.9047    0.4045    1.5995 H   0  0  0  0  0  0  0  0  0  0  0  0
   -3.1895   -2.3685    0.6933 H   0  0  0  0  0  0  0  0  0  0  0  0
   -5.6074   -1.8181    0.6297 H   0  0  0  0  0  0  0  0  0  0  0  0
   -6.4791    0.0932    1.9542 H   0  0  0  0  0  0  0  0  0  0  0  0
   -4.9314    1.4326    3.3595 H   0  0  0  0  0  0  0  0  0  0  0  0
   -2.5182    0.8739    3.4233 H   0  0  0  0  0  0  0  0  0  0  0  0
   -1.9867   -0.2617   -1.2596 H   0  0  0  0  0  0  0  0  0  0  0  0
   -3.9196    0.8944   -2.2756 H   0  0  0  0  0  0  0  0  0  0  0  0
   -4.5316    3.1835   -1.5422 H   0  0  0  0  0  0  0  0  0  0  0  0
   -3.2046    4.3186    0.2201 H   0  0  0  0  0  0  0  0  0  0  0  0
   -1.2737    3.1694    1.2535 H   0  0  0  0  0  0  0  0  0  0  0  0
    0.3774    2.4773   -0.8920 H   0  0  0  0  0  0  0  0  0  0  0  0
    4.6620   -1.8693    1.1458 H   0  0  0  0  0  0  0  0  0  0  0  0
  1  2  2  0
  2  3  1  0
  2  4  1  0
  4  5  2  0
  5  6  1  0
  6  7  2  0
  7  8  1  0
  8  9  1  0
  9 10  1  0
 10 11  1  0
 11 12  1  0
 12 13  2  3
 13 14  1  0
 14 15  2  0
 15 16  1  0
 16 17  2  0
 17 18  1  0
 18 19  2  0
 12 20  1  0
 20 21  1  0
 21 22  2  0
 22 23  1  0
 23 24  2  0
 24 25  1  0
 25 26  2  0
 20 27  1  0
 27 28  1  0
  8 29  2  0
 29  4  1  0
 27 10  2  0
 19 14  1  0
 26 21  1  0
  5 30  1  0
  6 31  1  0
  7 32  1  0
  9 33  1  0
  9 34  1  0
 15 35  1  0
 16 36  1  0
 17 37  1  0
 18 38  1  0
 19 39  1  0
 22 40  1  0
 23 41  1  0
 24 42  1  0
 25 43  1  0
 26 44  1  0
 28 45  1  0
 29 46  1  0
M  CHG  2   2   1   3  -1
M  END
$$$$
