
     RDKit          3D

 42 44  0  0  0  0  0  0  0  0999 V2000
   -4.3965    3.2251    0.2428 C   0  0  0  0  0  0  0  0  0  0  0  0
   -4.6880    2.1816   -0.6793 O   0  0  0  0  0  0  0  0  0  0  0  0
   -3.6716    1.3069   -0.9667 C   0  0  0  0  0  0  0  0  0  0  0  0
   -2.3649    1.3782   -0.4778 C   0  0  0  0  0  0  0  0  0  0  0  0
   -1.4143    0.4137   -0.8482 C   0  0  0  0  0  0  0  0  0  0  0  0
   -0.0458    0.5300   -0.3251 C   0  0  0  0  0  0  0  0  0  0  0  0
    0.5981   -0.3870    0.4268 C   0  0  0  0  0  0  0  0  0  0  0  0
   -0.0335   -1.5987    0.8488 C   0  0  0  0  0  0  0  0  0  0  0  0
   -0.5006   -2.6121    1.1704 N   0  0  0  0  0  0  0  0  0  0  0  0
    1.9083   -0.0467    0.8858 C   0  0  0  0  0  0  0  0  0  0  0  0
    2.3310    1.1315    1.3128 N   0  0  0  0  0  0  0  0  0  0  0  0
    3.6295    0.9576    1.7102 C   0  0  0  0  0  0  0  0  0  0  0  0
    4.5170    1.8790    2.2892 C   0  0  0  0  0  0  0  0  0  0  0  0
    5.8066    1.4514    2.6261 C   0  0  0  0  0  0  0  0  0  0  0  0
    6.2055    0.1350    2.3879 C   0  0  0  0  0  0  0  0  0  0  0  0
    5.3343   -0.7929    1.8040 C   0  0  0  0  0  0  0  0  0  0  0  0
    4.0466   -0.3465    1.4792 C   0  0  0  0  0  0  0  0  0  0  0  0
    2.9525   -0.9572    0.9001 N   0  0  0  0  0  0  0  0  0  0  0  0
    2.9735   -2.3025    0.3710 C   0  0  0  0  0  0  0  0  0  0  0  0
   -1.7728   -0.6137   -1.7301 C   0  0  0  0  0  0  0  0  0  0  0  0
   -3.0804   -0.6962   -2.2036 C   0  0  0  0  0  0  0  0  0  0  0  0
   -3.3859   -1.6983   -3.0860 O   0  0  0  0  0  0  0  0  0  0  0  0
   -4.0429   -2.7679   -2.4057 C   0  0  0  0  0  0  0  0  0  0  0  0
   -4.0187    0.2645   -1.8342 C   0  0  0  0  0  0  0  0  0  0  0  0
   -5.2984    0.1960   -2.3235 O   0  0  0  0  0  0  0  0  0  0  0  0
   -4.1483    2.8190    1.2293 H   0  0  0  0  0  0  0  0  0  0  0  0
   -5.3008    3.8323    0.3484 H   0  0  0  0  0  0  0  0  0  0  0  0
   -3.6005    3.8740   -0.1342 H   0  0  0  0  0  0  0  0  0  0  0  0
   -2.0607    2.1738    0.1969 H   0  0  0  0  0  0  0  0  0  0  0  0
    0.4400    1.4777   -0.5551 H   0  0  0  0  0  0  0  0  0  0  0  0
    4.1968    2.8972    2.4823 H   0  0  0  0  0  0  0  0  0  0  0  0
    6.5018    2.1548    3.0780 H   0  0  0  0  0  0  0  0  0  0  0  0
    7.2136   -0.1765    2.6594 H   0  0  0  0  0  0  0  0  0  0  0  0
    5.6519   -1.8142    1.6253 H   0  0  0  0  0  0  0  0  0  0  0  0
    2.7312   -2.9926    1.1812 H   0  0  0  0  0  0  0  0  0  0  0  0
    2.2574   -2.3945   -0.4471 H   0  0  0  0  0  0  0  0  0  0  0  0
    3.9679   -2.5185   -0.0277 H   0  0  0  0  0  0  0  0  0  0  0  0
   -1.0479   -1.3540   -2.0574 H   0  0  0  0  0  0  0  0  0  0  0  0
   -4.4085   -3.4730   -3.1622 H   0  0  0  0  0  0  0  0  0  0  0  0
   -3.3326   -3.2968   -1.7608 H   0  0  0  0  0  0  0  0  0  0  0  0
   -4.9014   -2.4289   -1.8141 H   0  0  0  0  0  0  0  0  0  0  0  0
   -5.7485    0.9893   -1.9756 H   0  0  0  0  0  0  0  0  0  0  0  0
  1  2  1  0
  2  3  1  0
  3  4  2  0
  4  5  1  0
  5  6  1  0
  6  7  2  3
  7  8  1  0
  8  9  3  0
  7 10  1  0
 10 11  2  0
 11 12  1  0
 12 13  2  0
 13 14  1  0
 14 15  2  0
 15 16  1  0
 16 17  2  0
 17 18  1  0
 18 19  1  0
  5 20  2  0
 20 21  1  0
 21 22  1  0
 22 23  1  0
 21 24  2  0
 24 25  1  0
 24  3  1  0
 18 10  1  0
 17 12  1  0
  1 26  1  0
  1 27  1  0
  1 28  1  0
  4 29  1  0
  6 30  1  0
 13 31  1  0
 14 32  1  0
 15 33  1  0
 16 34  1  0
 19 35  1  0
 19 36  1  0
 19 37  1  0
 20 38  1  0
 23 39  1  0
 23 40  1  0
 23 41  1  0
 25 42  1  0
M  END
$$$$
