
     RDKit          3D

 59 62  0  0  0  0  0  0  0  0999 V2000
    0.3399    3.8802   -0.6125 C   0  0  0  0  0  0  0  0  0  0  0  0
   -0.4019    3.3435    0.6025 C   0  0  0  0  0  0  0  0  0  0  0  0
    0.5030    2.6050    1.5903 C   0  0  0  0  0  0  0  0  0  0  0  0
    1.0707    1.3731    1.0722 N   0  0  0  0  0  0  0  0  0  0  0  0
    0.4168    0.1566    0.9205 C   0  0  0  0  0  0  0  0  0  0  0  0
   -0.9804   -0.1096    1.2588 C   0  0  0  0  0  0  0  0  0  0  0  0
   -1.4360   -0.0399    2.5790 C   0  0  0  0  0  0  0  0  0  0  0  0
   -2.7782   -0.2901    2.8623 C   0  0  0  0  0  0  0  0  0  0  0  0
   -3.2383   -0.2535    4.1533 O   0  0  0  0  0  0  0  0  0  0  0  0
   -3.1807    1.0670    4.6907 C   0  0  0  0  0  0  0  0  0  0  0  0
   -3.6553   -0.6689    1.8385 C   0  0  0  0  0  0  0  0  0  0  0  0
   -4.9804   -0.8810    2.1395 O   0  0  0  0  0  0  0  0  0  0  0  0
   -5.2020   -2.2678    2.3907 C   0  0  0  0  0  0  0  0  0  0  0  0
   -3.2099   -0.7551    0.5101 C   0  0  0  0  0  0  0  0  0  0  0  0
   -4.1445   -1.1195   -0.4251 O   0  0  0  0  0  0  0  0  0  0  0  0
   -3.7245   -1.1884   -1.7809 C   0  0  0  0  0  0  0  0  0  0  0  0
   -1.8676   -0.4809    0.2334 C   0  0  0  0  0  0  0  0  0  0  0  0
    1.2169   -0.7300    0.3500 N   0  0  0  0  0  0  0  0  0  0  0  0
    2.3937   -0.0842    0.1518 C   0  0  0  0  0  0  0  0  0  0  0  0
    2.3457    1.2056    0.5948 C   0  0  0  0  0  0  0  0  0  0  0  0
    3.4582    2.0860    0.4816 C   0  0  0  0  0  0  0  0  0  0  0  0
    3.4762    3.2592    0.8325 O   0  0  0  0  0  0  0  0  0  0  0  0
    4.5563    1.4810   -0.0867 N   0  0  0  0  0  0  0  0  0  0  0  0
    4.6453    0.1890   -0.5711 C   0  0  0  0  0  0  0  0  0  0  0  0
    5.7006   -0.1789   -1.0886 O   0  0  0  0  0  0  0  0  0  0  0  0
    3.5223   -0.6171   -0.4351 N   0  0  0  0  0  0  0  0  0  0  0  0
    3.5332   -1.9722   -0.9661 C   0  0  0  0  0  0  0  0  0  0  0  0
    2.9986   -2.0406   -2.3796 C   0  0  0  0  0  0  0  0  0  0  0  0
    3.8459   -1.8210   -3.4750 C   0  0  0  0  0  0  0  0  0  0  0  0
    3.3460   -1.8671   -4.7775 C   0  0  0  0  0  0  0  0  0  0  0  0
    1.9943   -2.1260   -4.9976 C   0  0  0  0  0  0  0  0  0  0  0  0
    1.1402   -2.3362   -3.9167 C   0  0  0  0  0  0  0  0  0  0  0  0
    1.6387   -2.2923   -2.6143 C   0  0  0  0  0  0  0  0  0  0  0  0
   -0.3427    4.4613   -1.2418 H   0  0  0  0  0  0  0  0  0  0  0  0
    0.7462    3.0689   -1.2244 H   0  0  0  0  0  0  0  0  0  0  0  0
    1.1628    4.5369   -0.3134 H   0  0  0  0  0  0  0  0  0  0  0  0
   -1.2169    2.6941    0.2652 H   0  0  0  0  0  0  0  0  0  0  0  0
   -0.8680    4.1876    1.1246 H   0  0  0  0  0  0  0  0  0  0  0  0
   -0.0622    2.3518    2.4929 H   0  0  0  0  0  0  0  0  0  0  0  0
    1.3164    3.2538    1.9265 H   0  0  0  0  0  0  0  0  0  0  0  0
   -0.7451    0.1765    3.3876 H   0  0  0  0  0  0  0  0  0  0  0  0
   -3.5360    1.8182    3.9743 H   0  0  0  0  0  0  0  0  0  0  0  0
   -3.8332    1.1009    5.5684 H   0  0  0  0  0  0  0  0  0  0  0  0
   -2.1626    1.3036    5.0180 H   0  0  0  0  0  0  0  0  0  0  0  0
   -6.2460   -2.3885    2.6944 H   0  0  0  0  0  0  0  0  0  0  0  0
   -5.0423   -2.8657    1.4875 H   0  0  0  0  0  0  0  0  0  0  0  0
   -4.5693   -2.6351    3.2065 H   0  0  0  0  0  0  0  0  0  0  0  0
   -2.9505   -1.9518   -1.9153 H   0  0  0  0  0  0  0  0  0  0  0  0
   -4.5892   -1.4825   -2.3840 H   0  0  0  0  0  0  0  0  0  0  0  0
   -3.3852   -0.2115   -2.1392 H   0  0  0  0  0  0  0  0  0  0  0  0
   -1.4712   -0.5550   -0.7770 H   0  0  0  0  0  0  0  0  0  0  0  0
    5.3754    2.0548   -0.2096 H   0  0  0  0  0  0  0  0  0  0  0  0
    2.9527   -2.6271   -0.3041 H   0  0  0  0  0  0  0  0  0  0  0  0
    4.5568   -2.3668   -0.9495 H   0  0  0  0  0  0  0  0  0  0  0  0
    4.9026   -1.6093   -3.3173 H   0  0  0  0  0  0  0  0  0  0  0  0
    4.0123   -1.6989   -5.6196 H   0  0  0  0  0  0  0  0  0  0  0  0
    1.6069   -2.1605   -6.0122 H   0  0  0  0  0  0  0  0  0  0  0  0
    0.0854   -2.5332   -4.0870 H   0  0  0  0  0  0  0  0  0  0  0  0
    0.9606   -2.4487   -1.7771 H   0  0  0  0  0  0  0  0  0  0  0  0
  1  2  1  0
  2  3  1  0
  3  4  1  0
  4  5  1  0
  5  6  1  0
  6  7  2  0
  7  8  1  0
  8  9  1  0
  9 10  1  0
  8 11  2  0
 11 12  1  0
 12 13  1  0
 11 14  1  0
 14 15  1  0
 15 16  1  0
 14 17  2  0
  5 18  2  0
 18 19  1  0
 19 20  2  0
 20 21  1  0
 21 22  2  0
 21 23  1  0
 23 24  1  0
 24 25  2  0
 24 26  1  0
 26 27  1  0
 27 28  1  0
 28 29  2  0
 29 30  1  0
 30 31  2  0
 31 32  1  0
 32 33  2  0
 20  4  1  0
 33 28  1  0
 17  6  1  0
 26 19  1  0
  1 34  1  0
  1 35  1  0
  1 36  1  0
  2 37  1  0
  2 38  1  0
  3 39  1  0
  3 40  1  0
  7 41  1  0
 10 42  1  0
 10 43  1  0
 10 44  1  0
 13 45  1  0
 13 46  1  0
 13 47  1  0
 16 48  1  0
 16 49  1  0
 16 50  1  0
 17 51  1  0
 23 52  1  0
 27 53  1  0
 27 54  1  0
 29 55  1  0
 30 56  1  0
 31 57  1  0
 32 58  1  0
 33 59  1  0
M  END
$$$$
