
     RDKit          3D

 55 58  0  0  0  0  0  0  0  0999 V2000
   -5.2530   -4.2714    0.6245 C   0  0  0  0  0  0  0  0  0  0  0  0
   -4.4785   -3.6251    1.6893 N   0  0  0  0  0  0  0  0  0  0  0  0
   -4.0946   -4.4884    2.8059 C   0  0  0  0  0  0  0  0  0  0  0  0
   -3.6560   -2.5476    1.3347 C   0  0  0  0  0  0  0  0  0  0  0  0
   -2.4776   -2.2342    2.0224 C   0  0  0  0  0  0  0  0  0  0  0  0
   -1.6742   -1.1332    1.6825 C   0  0  0  0  0  0  0  0  0  0  0  0
   -2.0307   -0.2577    0.6571 C   0  0  0  0  0  0  0  0  0  0  0  0
   -1.2735    0.8962    0.3612 N   0  0  0  0  0  0  0  0  0  0  0  0
    0.0796    1.0625    0.6434 C   0  0  0  0  0  0  0  0  0  0  0  0
    0.9612    0.1263    0.7695 N   0  0  0  0  0  0  0  0  0  0  0  0
    2.2395    0.4737    1.1104 C   0  0  0  0  0  0  0  0  0  0  0  0
    2.6108    0.5911    2.2758 O   0  0  0  0  0  0  0  0  0  0  0  0
    3.1884    0.6628   -0.0552 C   0  0  0  0  0  0  0  0  0  0  0  0
    4.3034   -0.3855   -0.0088 C   0  0  0  0  0  0  0  0  0  0  0  0
    5.2742   -0.1857   -1.1423 C   0  0  0  0  0  0  0  0  0  0  0  0
    5.1036   -0.8671   -2.3539 C   0  0  0  0  0  0  0  0  0  0  0  0
    5.9687   -0.6351   -3.4165 C   0  0  0  0  0  0  0  0  0  0  0  0
    7.0083    0.2774   -3.2804 C   0  0  0  0  0  0  0  0  0  0  0  0
    7.1845    0.9593   -2.0768 C   0  0  0  0  0  0  0  0  0  0  0  0
    6.3203    0.7298   -1.0124 C   0  0  0  0  0  0  0  0  0  0  0  0
    0.4593    2.8009    0.7577 S   0  0  0  0  0  0  0  0  0  0  0  0
   -1.3045    3.2335    0.9255 C   0  0  0  0  0  0  0  0  0  0  0  0
   -1.6887    4.5855    0.3594 C   0  0  0  0  0  0  0  0  0  0  0  0
   -2.1914    4.2990   -1.3237 S   0  0  0  0  0  6  0  0  0  0  0  0
   -1.2116    4.8625   -2.2213 O   0  0  0  0  0  0  0  0  0  0  0  0
   -3.6049    4.6037   -1.4260 O   0  0  0  0  0  0  0  0  0  0  0  0
   -2.0100    2.5342   -1.3392 C   0  0  0  0  0  0  0  0  0  0  0  0
   -2.0322    2.1379    0.1337 C   0  0  0  0  0  0  0  0  0  0  0  0
   -3.2001   -0.5679   -0.0472 C   0  0  0  0  0  0  0  0  0  0  0  0
   -3.9881   -1.6813    0.2837 C   0  0  0  0  0  0  0  0  0  0  0  0
   -5.7813   -5.1518    1.0009 H   0  0  0  0  0  0  0  0  0  0  0  0
   -6.0295   -3.5982    0.2352 H   0  0  0  0  0  0  0  0  0  0  0  0
   -4.5981   -4.6023   -0.1886 H   0  0  0  0  0  0  0  0  0  0  0  0
   -4.8912   -5.2035    3.0304 H   0  0  0  0  0  0  0  0  0  0  0  0
   -3.1889   -5.0603    2.5809 H   0  0  0  0  0  0  0  0  0  0  0  0
   -3.9428   -3.9076    3.7238 H   0  0  0  0  0  0  0  0  0  0  0  0
   -2.1311   -2.8432    2.8471 H   0  0  0  0  0  0  0  0  0  0  0  0
   -0.7824   -0.9589    2.2760 H   0  0  0  0  0  0  0  0  0  0  0  0
    3.5968    1.6843    0.0075 H   0  0  0  0  0  0  0  0  0  0  0  0
    2.6378    0.5978   -1.0003 H   0  0  0  0  0  0  0  0  0  0  0  0
    3.8749   -1.4031   -0.0433 H   0  0  0  0  0  0  0  0  0  0  0  0
    4.8445   -0.3263    0.9417 H   0  0  0  0  0  0  0  0  0  0  0  0
    4.2864   -1.5766   -2.4762 H   0  0  0  0  0  0  0  0  0  0  0  0
    5.8291   -1.1650   -4.3541 H   0  0  0  0  0  0  0  0  0  0  0  0
    7.6839    0.4598   -4.1121 H   0  0  0  0  0  0  0  0  0  0  0  0
    7.9943    1.6747   -1.9732 H   0  0  0  0  0  0  0  0  0  0  0  0
    6.4593    1.2758   -0.0858 H   0  0  0  0  0  0  0  0  0  0  0  0
   -1.5381    3.1756    1.9973 H   0  0  0  0  0  0  0  0  0  0  0  0
   -0.8949    5.3327    0.4026 H   0  0  0  0  0  0  0  0  0  0  0  0
   -2.5683    4.9686    0.8843 H   0  0  0  0  0  0  0  0  0  0  0  0
   -2.8344    2.0933   -1.9059 H   0  0  0  0  0  0  0  0  0  0  0  0
   -1.0672    2.2885   -1.8388 H   0  0  0  0  0  0  0  0  0  0  0  0
   -3.0689    2.0907    0.4960 H   0  0  0  0  0  0  0  0  0  0  0  0
   -3.5290    0.0356   -0.8847 H   0  0  0  0  0  0  0  0  0  0  0  0
   -4.8931   -1.8370   -0.2942 H   0  0  0  0  0  0  0  0  0  0  0  0
  1  2  1  0
  2  3  1  0
  2  4  1  0
  4  5  2  0
  5  6  1  0
  6  7  2  0
  7  8  1  0
  8  9  1  0
  9 10  2  3
 10 11  1  0
 11 12  2  0
 11 13  1  0
 13 14  1  0
 14 15  1  0
 15 16  2  0
 16 17  1  0
 17 18  2  0
 18 19  1  0
 19 20  2  0
  9 21  1  0
 21 22  1  0
 22 23  1  0
 23 24  1  0
 24 25  2  0
 24 26  2  0
 24 27  1  0
 27 28  1  0
  7 29  1  0
 29 30  2  0
 30  4  1  0
 28  8  1  0
 20 15  1  0
 28 22  1  0
  1 31  1  0
  1 32  1  0
  1 33  1  0
  3 34  1  0
  3 35  1  0
  3 36  1  0
  5 37  1  0
  6 38  1  0
 13 39  1  0
 13 40  1  0
 14 41  1  0
 14 42  1  0
 16 43  1  0
 17 44  1  0
 18 45  1  0
 19 46  1  0
 20 47  1  0
 22 48  1  0
 23 49  1  0
 23 50  1  0
 27 51  1  0
 27 52  1  0
 28 53  1  0
 29 54  1  0
 30 55  1  0
M  END
$$$$
