
     RDKit          3D

 52 55  0  0  0  0  0  0  0  0999 V2000
   -3.5167   -2.0510    2.1613 C   0  0  0  0  0  0  0  0  0  0  0  0
   -3.3366   -0.6670    1.8708 O   0  0  0  0  0  0  0  0  0  0  0  0
   -4.3692    0.1367    2.3184 C   0  0  0  0  0  0  0  0  0  0  0  0
   -5.4333   -0.4722    2.9041 N   0  0  0  0  0  0  0  0  0  0  0  0
   -6.4440    0.3152    3.3287 C   0  0  0  0  0  0  0  0  0  0  0  0
   -6.4503    1.6910    3.1960 C   0  0  0  0  0  0  0  0  0  0  0  0
   -5.3516    2.2961    2.5928 C   0  0  0  0  0  0  0  0  0  0  0  0
   -4.2767    1.5180    2.1369 C   0  0  0  0  0  0  0  0  0  0  0  0
   -3.1316    2.2305    1.4982 C   0  0  0  0  0  0  0  0  0  0  0  0
   -3.1709    3.4505    1.3651 O   0  0  0  0  0  0  0  0  0  0  0  0
   -2.0597    1.4826    1.0747 N   0  0  0  0  0  0  0  0  0  0  0  0
   -0.9559    2.0644    0.3411 C   0  0  0  0  0  0  0  0  0  0  0  0
   -1.3359    2.2797   -1.1425 C   0  0  0  0  0  0  0  0  0  0  0  0
   -0.0963    2.4607   -2.0328 C   0  0  0  0  0  0  0  0  0  0  0  0
    0.8169    1.2186   -2.0067 C   0  0  0  0  0  0  0  0  0  0  0  0
    1.0119    0.7517   -0.6043 C   0  0  0  0  0  0  0  0  0  0  0  0
    0.2183    1.1509    0.4577 C   0  0  0  0  0  0  0  0  0  0  0  0
    0.8257    0.5872    1.5841 C   0  0  0  0  0  0  0  0  0  0  0  0
    1.8956   -0.1400    1.2727 N   0  0  0  0  0  0  0  0  0  0  0  0
    1.9895   -0.0921   -0.0905 N   0  0  0  0  0  0  0  0  0  0  0  0
    3.0040   -0.8632   -0.7403 C   0  0  0  0  0  0  0  0  0  0  0  0
    3.0274   -1.0703   -2.1245 C   0  0  0  0  0  0  0  0  0  0  0  0
    4.0351   -1.8483   -2.7189 C   0  0  0  0  0  0  0  0  0  0  0  0
    4.0605   -2.0550   -4.2056 C   0  0  0  0  0  0  0  0  0  0  0  0
    5.0425   -2.4005   -1.9197 C   0  0  0  0  0  0  0  0  0  0  0  0
    5.0398   -2.2072   -0.5355 C   0  0  0  0  0  0  0  0  0  0  0  0
    6.0926   -2.8396    0.3254 C   0  0  0  0  0  0  0  0  0  0  0  0
    4.0084   -1.4572    0.0465 C   0  0  0  0  0  0  0  0  0  0  0  0
   -3.5761   -2.2254    3.2411 H   0  0  0  0  0  0  0  0  0  0  0  0
   -4.3952   -2.4523    1.6452 H   0  0  0  0  0  0  0  0  0  0  0  0
   -2.6381   -2.5854    1.7866 H   0  0  0  0  0  0  0  0  0  0  0  0
   -7.2759   -0.2070    3.7935 H   0  0  0  0  0  0  0  0  0  0  0  0
   -7.2874    2.2814    3.5528 H   0  0  0  0  0  0  0  0  0  0  0  0
   -5.3347    3.3789    2.4779 H   0  0  0  0  0  0  0  0  0  0  0  0
   -2.1278    0.4701    1.1131 H   0  0  0  0  0  0  0  0  0  0  0  0
   -0.7000    3.0332    0.7891 H   0  0  0  0  0  0  0  0  0  0  0  0
   -1.9130    1.4214   -1.5137 H   0  0  0  0  0  0  0  0  0  0  0  0
   -1.9919    3.1537   -1.2336 H   0  0  0  0  0  0  0  0  0  0  0  0
    0.4667    3.3372   -1.6876 H   0  0  0  0  0  0  0  0  0  0  0  0
   -0.4039    2.6627   -3.0652 H   0  0  0  0  0  0  0  0  0  0  0  0
    1.7704    1.4850   -2.4736 H   0  0  0  0  0  0  0  0  0  0  0  0
    0.3438    0.4220   -2.5931 H   0  0  0  0  0  0  0  0  0  0  0  0
    0.5401    0.6839    2.6241 H   0  0  0  0  0  0  0  0  0  0  0  0
    2.2567   -0.6790   -2.7743 H   0  0  0  0  0  0  0  0  0  0  0  0
    4.4163   -3.0615   -4.4504 H   0  0  0  0  0  0  0  0  0  0  0  0
    4.7213   -1.3189   -4.6739 H   0  0  0  0  0  0  0  0  0  0  0  0
    3.0583   -1.9510   -4.6359 H   0  0  0  0  0  0  0  0  0  0  0  0
    5.8315   -2.9926   -2.3794 H   0  0  0  0  0  0  0  0  0  0  0  0
    7.0309   -2.9600   -0.2268 H   0  0  0  0  0  0  0  0  0  0  0  0
    6.3087   -2.2153    1.1989 H   0  0  0  0  0  0  0  0  0  0  0  0
    5.7550   -3.8233    0.6661 H   0  0  0  0  0  0  0  0  0  0  0  0
    4.0047   -1.3279    1.1287 H   0  0  0  0  0  0  0  0  0  0  0  0
  1  2  1  0
  2  3  1  0
  3  4  2  0
  4  5  1  0
  5  6  2  0
  6  7  1  0
  7  8  2  0
  8  9  1  0
  9 10  2  0
  9 11  1  0
 11 12  1  0
 12 13  1  0
 13 14  1  0
 14 15  1  0
 15 16  1  0
 16 17  2  0
 17 18  1  0
 18 19  2  0
 19 20  1  0
 20 21  1  0
 21 22  2  0
 22 23  1  0
 23 24  1  0
 23 25  2  0
 25 26  1  0
 26 27  1  0
 26 28  2  0
  8  3  1  0
 17 12  1  0
 28 21  1  0
 20 16  1  0
  1 29  1  0
  1 30  1  0
  1 31  1  0
  5 32  1  0
  6 33  1  0
  7 34  1  0
 11 35  1  0
 12 36  1  0
 13 37  1  0
 13 38  1  0
 14 39  1  0
 14 40  1  0
 15 41  1  0
 15 42  1  0
 18 43  1  0
 22 44  1  0
 24 45  1  0
 24 46  1  0
 24 47  1  0
 25 48  1  0
 27 49  1  0
 27 50  1  0
 27 51  1  0
 28 52  1  0
M  END
$$$$
