
     RDKit          3D

 50 50  0  0  0  0  0  0  0  0999 V2000
    6.3786   -1.2328    0.5301 C   0  0  0  0  0  0  0  0  0  0  0  0
    7.2111   -0.1772    0.5533 C   0  0  0  0  0  0  0  0  0  0  0  0
    8.3088   -0.0773    1.5786 C   0  0  0  0  0  0  0  0  0  0  0  0
    7.1334    0.9233   -0.4783 C   0  0  0  0  0  0  0  0  0  0  0  0
    6.5757    2.4895    0.2366 S   0  0  0  0  0  0  0  0  0  0  0  0
    4.8805    2.1891    0.4522 C   0  0  0  0  0  0  0  0  0  0  0  0
    4.1109    2.8932    1.2582 N   0  0  0  0  0  0  0  0  0  0  0  0
    2.8378    2.3704    1.1567 N   0  0  0  0  0  0  0  0  0  0  0  0
    2.9176    1.3888    0.2871 C   0  0  0  0  0  0  0  0  0  0  0  0
    1.8563    0.4817   -0.2063 C   0  0  0  0  0  0  0  0  0  0  0  0
    1.0525    1.1365   -1.3304 C   0  0  0  0  0  0  0  0  0  0  0  0
   -0.0146    0.2165   -1.9311 C   0  0  0  0  0  0  0  0  0  0  0  0
   -1.0934   -0.2710   -0.9599 C   0  0  0  0  0  0  0  0  0  0  0  0
   -1.9142    0.8618   -0.3444 C   0  0  0  0  0  0  0  0  0  0  0  0
   -2.9559    0.3536    0.5163 N   0  0  0  0  0  0  0  0  0  0  0  0
   -4.1523   -0.0974    0.0478 C   0  0  0  0  0  0  0  0  0  0  0  0
   -4.4913   -0.0961   -1.1240 O   0  0  0  0  0  0  0  0  0  0  0  0
   -4.8817   -0.5473    1.0933 O   0  0  0  0  0  0  0  0  0  0  0  0
   -6.2111   -1.0910    0.8892 C   0  0  0  0  0  0  0  0  0  0  0  0
   -7.1631   -0.0359    0.3160 C   0  0  0  0  0  0  0  0  0  0  0  0
   -6.6949   -1.4759    2.2959 C   0  0  0  0  0  0  0  0  0  0  0  0
   -6.1689   -2.3553    0.0241 C   0  0  0  0  0  0  0  0  0  0  0  0
    4.1775    1.2167   -0.2134 O   0  0  0  0  0  0  0  0  0  0  0  0
    5.5975   -1.3283   -0.2182 H   0  0  0  0  0  0  0  0  0  0  0  0
    6.4524   -2.0310    1.2638 H   0  0  0  0  0  0  0  0  0  0  0  0
    8.3585   -0.9691    2.2127 H   0  0  0  0  0  0  0  0  0  0  0  0
    9.2805    0.0292    1.0859 H   0  0  0  0  0  0  0  0  0  0  0  0
    8.1538    0.7836    2.2354 H   0  0  0  0  0  0  0  0  0  0  0  0
    8.1297    1.0805   -0.9069 H   0  0  0  0  0  0  0  0  0  0  0  0
    6.4846    0.6477   -1.3172 H   0  0  0  0  0  0  0  0  0  0  0  0
    2.3025   -0.4552   -0.5603 H   0  0  0  0  0  0  0  0  0  0  0  0
    1.2020    0.2294    0.6350 H   0  0  0  0  0  0  0  0  0  0  0  0
    0.5905    2.0646   -0.9723 H   0  0  0  0  0  0  0  0  0  0  0  0
    1.7363    1.4354   -2.1364 H   0  0  0  0  0  0  0  0  0  0  0  0
    0.4791   -0.6594   -2.3702 H   0  0  0  0  0  0  0  0  0  0  0  0
   -0.4992    0.7442   -2.7620 H   0  0  0  0  0  0  0  0  0  0  0  0
   -0.6450   -0.8803   -0.1661 H   0  0  0  0  0  0  0  0  0  0  0  0
   -1.7629   -0.9465   -1.5080 H   0  0  0  0  0  0  0  0  0  0  0  0
   -2.3725    1.4709   -1.1317 H   0  0  0  0  0  0  0  0  0  0  0  0
   -1.2874    1.5113    0.2740 H   0  0  0  0  0  0  0  0  0  0  0  0
   -2.8001    0.2461    1.5087 H   0  0  0  0  0  0  0  0  0  0  0  0
   -7.1071    0.8931    0.8940 H   0  0  0  0  0  0  0  0  0  0  0  0
   -6.9131    0.2217   -0.7171 H   0  0  0  0  0  0  0  0  0  0  0  0
   -8.2001   -0.3891    0.3230 H   0  0  0  0  0  0  0  0  0  0  0  0
   -7.7011   -1.9075    2.2770 H   0  0  0  0  0  0  0  0  0  0  0  0
   -6.7053   -0.6015    2.9573 H   0  0  0  0  0  0  0  0  0  0  0  0
   -6.0154   -2.2027    2.7562 H   0  0  0  0  0  0  0  0  0  0  0  0
   -5.4215   -3.0608    0.4033 H   0  0  0  0  0  0  0  0  0  0  0  0
   -5.8936   -2.1336   -1.0115 H   0  0  0  0  0  0  0  0  0  0  0  0
   -7.1423   -2.8568    0.0039 H   0  0  0  0  0  0  0  0  0  0  0  0
  1  2  2  0
  2  3  1  0
  2  4  1  0
  4  5  1  0
  5  6  1  0
  6  7  2  0
  7  8  1  0
  8  9  2  0
  9 10  1  0
 10 11  1  0
 11 12  1  0
 12 13  1  0
 13 14  1  0
 14 15  1  0
 15 16  1  0
 16 17  2  0
 16 18  1  0
 18 19  1  0
 19 20  1  0
 19 21  1  0
 19 22  1  0
  9 23  1  0
 23  6  1  0
  1 24  1  0
  1 25  1  0
  3 26  1  0
  3 27  1  0
  3 28  1  0
  4 29  1  0
  4 30  1  0
 10 31  1  0
 10 32  1  0
 11 33  1  0
 11 34  1  0
 12 35  1  0
 12 36  1  0
 13 37  1  0
 13 38  1  0
 14 39  1  0
 14 40  1  0
 15 41  1  0
 20 42  1  0
 20 43  1  0
 20 44  1  0
 21 45  1  0
 21 46  1  0
 21 47  1  0
 22 48  1  0
 22 49  1  0
 22 50  1  0
M  END
$$$$
