
     RDKit          3D

 40 42  0  0  0  0  0  0  0  0999 V2000
    2.2950    4.0298    1.2271 C   0  0  0  0  0  0  0  0  0  0  0  0
    2.0829    3.1287    2.4318 C   0  0  0  0  0  0  0  0  0  0  0  0
    0.3186    2.7388    2.6854 S   0  0  0  0  0  0  0  0  0  0  0  0
    0.0251    1.5308    1.4005 C   0  0  0  0  0  0  0  0  0  0  0  0
   -1.2763    1.1879    1.1084 C   0  0  0  0  0  0  0  0  0  0  0  0
   -1.4771    0.2427    0.1215 C   0  0  0  0  0  0  0  0  0  0  0  0
   -2.7913   -0.1390   -0.2142 N   0  0  0  0  0  0  0  0  0  0  0  0
   -3.5109   -0.7368    0.9395 C   0  0  0  0  0  0  0  0  0  0  0  0
   -4.6328   -1.6708    0.4587 C   0  0  0  0  0  0  0  0  0  0  0  0
   -4.1493   -2.7700   -0.3296 O   0  0  0  0  0  0  0  0  0  0  0  0
   -3.0075   -2.4306   -1.1383 C   0  0  0  0  0  0  0  0  0  0  0  0
   -2.9162   -0.9325   -1.4589 C   0  0  0  0  0  0  0  0  0  0  0  0
   -0.4360   -0.3031   -0.5265 N   0  0  0  0  0  0  0  0  0  0  0  0
    0.8047    0.0823   -0.1752 C   0  0  0  0  0  0  0  0  0  0  0  0
    1.9443   -0.5300   -0.8911 C   0  0  0  0  0  0  0  0  0  0  0  0
    1.7471   -1.4851   -1.9092 C   0  0  0  0  0  0  0  0  0  0  0  0
    2.8241   -2.0662   -2.5892 C   0  0  0  0  0  0  0  0  0  0  0  0
    4.1256   -1.7012   -2.2621 C   0  0  0  0  0  0  0  0  0  0  0  0
    5.4510   -2.4127   -3.0954 Cl  0  0  0  0  0  0  0  0  0  0  0  0
    4.3579   -0.7621   -1.2630 C   0  0  0  0  0  0  0  0  0  0  0  0
    3.2768   -0.1845   -0.5865 C   0  0  0  0  0  0  0  0  0  0  0  0
    1.0783    0.9827    0.7804 N   0  0  0  0  0  0  0  0  0  0  0  0
    3.3572    4.2801    1.1349 H   0  0  0  0  0  0  0  0  0  0  0  0
    1.9895    3.5493    0.2927 H   0  0  0  0  0  0  0  0  0  0  0  0
    1.7428    4.9701    1.3295 H   0  0  0  0  0  0  0  0  0  0  0  0
    2.4278    3.6530    3.3293 H   0  0  0  0  0  0  0  0  0  0  0  0
    2.6781    2.2138    2.3535 H   0  0  0  0  0  0  0  0  0  0  0  0
   -2.1094    1.6556    1.6160 H   0  0  0  0  0  0  0  0  0  0  0  0
   -2.8195   -1.3255    1.5576 H   0  0  0  0  0  0  0  0  0  0  0  0
   -3.9419    0.0589    1.5572 H   0  0  0  0  0  0  0  0  0  0  0  0
   -5.3675   -1.1202   -0.1405 H   0  0  0  0  0  0  0  0  0  0  0  0
   -5.1644   -2.0931    1.3174 H   0  0  0  0  0  0  0  0  0  0  0  0
   -2.1119   -2.7718   -0.6069 H   0  0  0  0  0  0  0  0  0  0  0  0
   -3.0822   -3.0108   -2.0633 H   0  0  0  0  0  0  0  0  0  0  0  0
   -3.8458   -0.6175   -1.9498 H   0  0  0  0  0  0  0  0  0  0  0  0
   -2.1163   -0.7307   -2.1806 H   0  0  0  0  0  0  0  0  0  0  0  0
    0.7371   -1.7867   -2.1835 H   0  0  0  0  0  0  0  0  0  0  0  0
    2.6358   -2.7994   -3.3689 H   0  0  0  0  0  0  0  0  0  0  0  0
    5.3724   -0.4726   -1.0024 H   0  0  0  0  0  0  0  0  0  0  0  0
    3.4847    0.5482    0.1923 H   0  0  0  0  0  0  0  0  0  0  0  0
  1  2  1  0
  2  3  1  0
  3  4  1  0
  4  5  2  0
  5  6  1  0
  6  7  1  0
  7  8  1  0
  8  9  1  0
  9 10  1  0
 10 11  1  0
 11 12  1  0
  6 13  2  0
 13 14  1  0
 14 15  1  0
 15 16  2  0
 16 17  1  0
 17 18  2  0
 18 19  1  0
 18 20  1  0
 20 21  2  0
 14 22  2  0
 22  4  1  0
 12  7  1  0
 21 15  1  0
  1 23  1  0
  1 24  1  0
  1 25  1  0
  2 26  1  0
  2 27  1  0
  5 28  1  0
  8 29  1  0
  8 30  1  0
  9 31  1  0
  9 32  1  0
 11 33  1  0
 11 34  1  0
 12 35  1  0
 12 36  1  0
 16 37  1  0
 17 38  1  0
 20 39  1  0
 21 40  1  0
M  END
$$$$
