
     RDKit          3D

 59 60  0  0  0  0  0  0  0  0999 V2000
    6.8678   -1.3542   -0.0698 C   0  0  0  0  0  0  0  0  0  0  0  0
    5.3525   -1.5690   -0.1151 C   0  0  0  0  0  0  0  0  0  0  0  0
    4.9240   -2.4750    1.0405 C   0  0  0  0  0  0  0  0  0  0  0  0
    4.9481   -2.1377   -1.4901 C   0  0  0  0  0  0  0  0  0  0  0  0
    3.4434   -2.3062   -1.6942 C   0  0  0  0  0  0  0  0  0  0  0  0
    2.7352   -1.0477   -1.6037 N   0  0  0  0  0  0  0  0  0  0  0  0
    1.3726   -0.9862   -1.3932 C   0  0  0  0  0  0  0  0  0  0  0  0
    0.7062   -1.9954   -1.1732 O   0  0  0  0  0  0  0  0  0  0  0  0
    0.8093    0.3432   -1.4557 C   0  0  0  0  0  0  0  0  0  0  0  0
    1.6738    1.3619   -1.7320 O   0  0  0  0  0  0  0  0  0  0  0  0
    1.0063    2.5588   -1.7702 N   0  0  0  0  0  0  0  0  0  0  0  0
   -0.2746    2.2719   -1.5031 C   0  0  0  0  0  0  0  0  0  0  0  0
   -1.2784    3.3794   -1.4360 C   0  0  0  0  0  0  0  0  0  0  0  0
   -1.6207    3.8257    0.3017 S   0  0  0  0  0  0  0  0  0  0  0  0
   -2.9399    4.9963    0.0524 C   0  0  0  0  0  0  0  0  0  0  0  0
   -3.7776    5.3015    1.1203 C   0  0  0  0  0  0  0  0  0  0  0  0
   -4.8035    6.2230    0.9261 C   0  0  0  0  0  0  0  0  0  0  0  0
   -4.9597    6.8125   -0.3215 C   0  0  0  0  0  0  0  0  0  0  0  0
   -4.0762    6.4567   -1.3263 C   0  0  0  0  0  0  0  0  0  0  0  0
   -3.0729    5.5658   -1.1665 N   0  0  0  0  0  0  0  0  0  0  0  0
   -0.4673    0.8634   -1.3074 C   0  0  0  0  0  0  0  0  0  0  0  0
   -1.7356    0.2083   -1.0226 C   0  0  0  0  0  0  0  0  0  0  0  0
   -2.8003    0.8048   -1.1609 O   0  0  0  0  0  0  0  0  0  0  0  0
   -1.6971   -1.0942   -0.5836 N   0  0  0  0  0  0  0  0  0  0  0  0
   -2.9070   -1.8515   -0.3503 C   0  0  0  0  0  0  0  0  0  0  0  0
   -2.6779   -3.0603    0.5585 C   0  0  0  0  0  0  0  0  0  0  0  0
   -2.5965   -2.7279    2.0630 C   0  0  0  0  0  0  0  0  0  0  0  0
   -2.5303   -4.0272    2.8723 C   0  0  0  0  0  0  0  0  0  0  0  0
   -1.4040   -1.8409    2.4230 C   0  0  0  0  0  0  0  0  0  0  0  0
    7.1888   -0.6755   -0.8671 H   0  0  0  0  0  0  0  0  0  0  0  0
    7.4075   -2.2994   -0.1908 H   0  0  0  0  0  0  0  0  0  0  0  0
    7.1700   -0.9111    0.8848 H   0  0  0  0  0  0  0  0  0  0  0  0
    4.8763   -0.5903    0.0227 H   0  0  0  0  0  0  0  0  0  0  0  0
    3.8352   -2.5467    1.1081 H   0  0  0  0  0  0  0  0  0  0  0  0
    5.3268   -3.4859    0.9225 H   0  0  0  0  0  0  0  0  0  0  0  0
    5.2816   -2.0790    1.9968 H   0  0  0  0  0  0  0  0  0  0  0  0
    5.3346   -1.4734   -2.2745 H   0  0  0  0  0  0  0  0  0  0  0  0
    5.4313   -3.1113   -1.6395 H   0  0  0  0  0  0  0  0  0  0  0  0
    3.0193   -3.0190   -0.9790 H   0  0  0  0  0  0  0  0  0  0  0  0
    3.2519   -2.7071   -2.6965 H   0  0  0  0  0  0  0  0  0  0  0  0
    3.1971   -0.2012   -1.9190 H   0  0  0  0  0  0  0  0  0  0  0  0
   -0.8867    4.2614   -1.9563 H   0  0  0  0  0  0  0  0  0  0  0  0
   -2.2015    3.0844   -1.9444 H   0  0  0  0  0  0  0  0  0  0  0  0
   -3.6427    4.8292    2.0880 H   0  0  0  0  0  0  0  0  0  0  0  0
   -5.4739    6.4747    1.7425 H   0  0  0  0  0  0  0  0  0  0  0  0
   -5.7486    7.5328   -0.5071 H   0  0  0  0  0  0  0  0  0  0  0  0
   -4.1542    6.8910   -2.3187 H   0  0  0  0  0  0  0  0  0  0  0  0
   -0.8361   -1.6271   -0.6844 H   0  0  0  0  0  0  0  0  0  0  0  0
   -3.6865   -1.1973    0.0560 H   0  0  0  0  0  0  0  0  0  0  0  0
   -3.2469   -2.1954   -1.3343 H   0  0  0  0  0  0  0  0  0  0  0  0
   -1.7769   -3.6028    0.2439 H   0  0  0  0  0  0  0  0  0  0  0  0
   -3.5231   -3.7454    0.4103 H   0  0  0  0  0  0  0  0  0  0  0  0
   -3.5139   -2.2004    2.3552 H   0  0  0  0  0  0  0  0  0  0  0  0
   -2.5272   -3.8171    3.9475 H   0  0  0  0  0  0  0  0  0  0  0  0
   -1.6255   -4.5971    2.6351 H   0  0  0  0  0  0  0  0  0  0  0  0
   -3.3971   -4.6626    2.6618 H   0  0  0  0  0  0  0  0  0  0  0  0
   -0.4673   -2.2553    2.0360 H   0  0  0  0  0  0  0  0  0  0  0  0
   -1.3054   -1.7425    3.5093 H   0  0  0  0  0  0  0  0  0  0  0  0
   -1.5267   -0.8303    2.0250 H   0  0  0  0  0  0  0  0  0  0  0  0
  1  2  1  0
  2  3  1  0
  2  4  1  0
  4  5  1  0
  5  6  1  0
  6  7  1  0
  7  8  2  0
  7  9  1  0
  9 10  1  0
 10 11  1  0
 11 12  2  0
 12 13  1  0
 13 14  1  0
 14 15  1  0
 15 16  2  0
 16 17  1  0
 17 18  2  0
 18 19  1  0
 19 20  2  0
 12 21  1  0
 21 22  1  0
 22 23  2  0
 22 24  1  0
 24 25  1  0
 25 26  1  0
 26 27  1  0
 27 28  1  0
 27 29  1  0
 21  9  2  0
 20 15  1  0
  1 30  1  0
  1 31  1  0
  1 32  1  0
  2 33  1  0
  3 34  1  0
  3 35  1  0
  3 36  1  0
  4 37  1  0
  4 38  1  0
  5 39  1  0
  5 40  1  0
  6 41  1  0
 13 42  1  0
 13 43  1  0
 16 44  1  0
 17 45  1  0
 18 46  1  0
 19 47  1  0
 24 48  1  0
 25 49  1  0
 25 50  1  0
 26 51  1  0
 26 52  1  0
 27 53  1  0
 28 54  1  0
 28 55  1  0
 28 56  1  0
 29 57  1  0
 29 58  1  0
 29 59  1  0
M  END
$$$$
