
     RDKit          3D

 65 68  0  0  0  0  0  0  0  0999 V2000
   -4.5802    1.9528   -3.8726 C   0  0  0  0  0  0  0  0  0  0  0  0
   -5.0737    1.3369   -2.5973 C   0  0  0  0  0  0  0  0  0  0  0  0
   -5.2589    2.1226   -1.4549 C   0  0  0  0  0  0  0  0  0  0  0  0
   -5.6914    1.5439   -0.2592 C   0  0  0  0  0  0  0  0  0  0  0  0
   -5.9373    0.1674   -0.1830 C   0  0  0  0  0  0  0  0  0  0  0  0
   -6.3901   -0.4590    1.1163 C   0  0  0  0  0  0  0  0  0  0  0  0
   -5.3195   -1.3340    1.7737 C   0  0  0  0  0  0  0  0  0  0  0  0
   -4.1250   -0.5864    2.1248 N   0  0  0  0  0  0  0  0  0  0  0  0
   -3.2142   -1.1015    3.0255 C   0  0  0  0  0  0  0  0  0  0  0  0
   -3.4161   -2.1117    3.6885 O   0  0  0  0  0  0  0  0  0  0  0  0
   -1.9514   -0.2676    3.1161 C   0  0  0  0  0  0  0  0  0  0  0  0
   -0.9277   -0.8680    4.0783 C   0  0  0  0  0  0  0  0  0  0  0  0
    0.2699    0.0525    4.3122 C   0  0  0  0  0  0  0  0  0  0  0  0
    1.0616    0.2769    3.1077 N   0  0  0  0  0  0  0  0  0  0  0  0
    0.7334    1.4202    2.3685 N   0  0  0  0  0  0  0  0  0  0  0  0
    1.3669    1.7134    1.2673 C   0  0  0  0  0  0  0  0  0  0  0  0
    0.9610    2.9518    0.5205 C   0  0  0  0  0  0  0  0  0  0  0  0
    2.4244    0.8490    0.8051 C   0  0  0  0  0  0  0  0  0  0  0  0
    3.3206    0.8991   -0.2499 C   0  0  0  0  0  0  0  0  0  0  0  0
    3.5861    1.9896   -1.2232 C   0  0  0  0  0  0  0  0  0  0  0  0
    4.0249   -0.3106   -0.1959 N   0  0  0  0  0  0  0  0  0  0  0  0
    4.9236   -0.9075   -1.1341 C   0  0  0  0  0  0  0  0  0  0  0  0
    5.7603   -1.9495   -0.7011 C   0  0  0  0  0  0  0  0  0  0  0  0
    6.6518   -2.5639   -1.5852 C   0  0  0  0  0  0  0  0  0  0  0  0
    6.7133   -2.1629   -2.9226 C   0  0  0  0  0  0  0  0  0  0  0  0
    7.6720   -2.8323   -3.8619 C   0  0  0  0  0  0  0  0  0  0  0  0
    5.8624   -1.1449   -3.3626 C   0  0  0  0  0  0  0  0  0  0  0  0
    4.9692   -0.5252   -2.4791 C   0  0  0  0  0  0  0  0  0  0  0  0
    3.7591   -0.9740    0.9618 N   0  0  0  0  0  0  0  0  0  0  0  0
    2.7496   -0.3060    1.5233 C   0  0  0  0  0  0  0  0  0  0  0  0
    2.0530   -0.6636    2.7526 C   0  0  0  0  0  0  0  0  0  0  0  0
    2.3021   -1.6718    3.4096 O   0  0  0  0  0  0  0  0  0  0  0  0
   -5.7410   -0.6196   -1.3244 C   0  0  0  0  0  0  0  0  0  0  0  0
   -5.3062   -0.0406   -2.5189 C   0  0  0  0  0  0  0  0  0  0  0  0
   -3.4867    1.9265   -3.9022 H   0  0  0  0  0  0  0  0  0  0  0  0
   -4.9715    1.4153   -4.7424 H   0  0  0  0  0  0  0  0  0  0  0  0
   -4.9107    2.9933   -3.9583 H   0  0  0  0  0  0  0  0  0  0  0  0
   -5.0732    3.1938   -1.4898 H   0  0  0  0  0  0  0  0  0  0  0  0
   -5.8346    2.1780    0.6129 H   0  0  0  0  0  0  0  0  0  0  0  0
   -6.6994    0.3265    1.8175 H   0  0  0  0  0  0  0  0  0  0  0  0
   -7.2848   -1.0622    0.9184 H   0  0  0  0  0  0  0  0  0  0  0  0
   -5.7286   -1.7904    2.6825 H   0  0  0  0  0  0  0  0  0  0  0  0
   -5.0081   -2.1488    1.1100 H   0  0  0  0  0  0  0  0  0  0  0  0
   -3.7663    0.0549    1.4269 H   0  0  0  0  0  0  0  0  0  0  0  0
   -1.5243   -0.1931    2.1096 H   0  0  0  0  0  0  0  0  0  0  0  0
   -2.2350    0.7381    3.4481 H   0  0  0  0  0  0  0  0  0  0  0  0
   -1.4050   -1.0628    5.0468 H   0  0  0  0  0  0  0  0  0  0  0  0
   -0.5908   -1.8389    3.6946 H   0  0  0  0  0  0  0  0  0  0  0  0
   -0.0603    1.0237    4.7001 H   0  0  0  0  0  0  0  0  0  0  0  0
    0.9184   -0.3932    5.0755 H   0  0  0  0  0  0  0  0  0  0  0  0
    0.0085    3.3307    0.9035 H   0  0  0  0  0  0  0  0  0  0  0  0
    1.7215    3.7253    0.6566 H   0  0  0  0  0  0  0  0  0  0  0  0
    0.8438    2.7319   -0.5438 H   0  0  0  0  0  0  0  0  0  0  0  0
    2.9528    1.8827   -2.1089 H   0  0  0  0  0  0  0  0  0  0  0  0
    4.6374    2.0232   -1.5243 H   0  0  0  0  0  0  0  0  0  0  0  0
    3.3795    2.9678   -0.7797 H   0  0  0  0  0  0  0  0  0  0  0  0
    5.7393   -2.2909    0.3332 H   0  0  0  0  0  0  0  0  0  0  0  0
    7.2954   -3.3613   -1.2193 H   0  0  0  0  0  0  0  0  0  0  0  0
    7.4576   -3.9039   -3.9193 H   0  0  0  0  0  0  0  0  0  0  0  0
    7.5969   -2.4206   -4.8732 H   0  0  0  0  0  0  0  0  0  0  0  0
    8.7004   -2.6885   -3.5165 H   0  0  0  0  0  0  0  0  0  0  0  0
    5.8765   -0.8335   -4.4053 H   0  0  0  0  0  0  0  0  0  0  0  0
    4.2970    0.2144   -2.8960 H   0  0  0  0  0  0  0  0  0  0  0  0
   -5.9239   -1.6916   -1.2929 H   0  0  0  0  0  0  0  0  0  0  0  0
   -5.1545   -0.6738   -3.3904 H   0  0  0  0  0  0  0  0  0  0  0  0
  1  2  1  0
  2  3  2  0
  3  4  1  0
  4  5  2  0
  5  6  1  0
  6  7  1  0
  7  8  1  0
  8  9  1  0
  9 10  2  0
  9 11  1  0
 11 12  1  0
 12 13  1  0
 13 14  1  0
 14 15  1  0
 15 16  2  0
 16 17  1  0
 16 18  1  0
 18 19  2  0
 19 20  1  0
 19 21  1  0
 21 22  1  0
 22 23  2  0
 23 24  1  0
 24 25  2  0
 25 26  1  0
 25 27  1  0
 27 28  2  0
 21 29  1  0
 29 30  2  0
 30 31  1  0
 31 32  2  0
  5 33  1  0
 33 34  2  0
 34  2  1  0
 31 14  1  0
 30 18  1  0
 28 22  1  0
  1 35  1  0
  1 36  1  0
  1 37  1  0
  3 38  1  0
  4 39  1  0
  6 40  1  0
  6 41  1  0
  7 42  1  0
  7 43  1  0
  8 44  1  0
 11 45  1  0
 11 46  1  0
 12 47  1  0
 12 48  1  0
 13 49  1  0
 13 50  1  0
 17 51  1  0
 17 52  1  0
 17 53  1  0
 20 54  1  0
 20 55  1  0
 20 56  1  0
 23 57  1  0
 24 58  1  0
 26 59  1  0
 26 60  1  0
 26 61  1  0
 27 62  1  0
 28 63  1  0
 33 64  1  0
 34 65  1  0
M  END
$$$$
