
     RDKit          3D

 51 54  0  0  0  0  0  0  0  0999 V2000
    3.2376   -0.1481   -2.5122 C   0  0  0  0  0  0  0  0  0  0  0  0
    2.4162    0.6408   -1.4883 C   0  0  0  0  0  0  0  0  0  0  0  0
    1.0417    1.0249   -2.0798 C   0  0  0  0  0  0  0  0  0  0  0  0
    0.1287    0.0721   -1.3782 C   0  0  0  0  0  0  0  0  0  0  0  0
   -1.2151   -0.1488   -1.6444 C   0  0  0  0  0  0  0  0  0  0  0  0
   -1.9090   -1.0381   -0.8178 C   0  0  0  0  0  0  0  0  0  0  0  0
   -3.6298   -1.3791   -1.1402 S   0  0  0  0  0  6  0  0  0  0  0  0
   -3.8911   -1.0163   -2.5179 O   0  0  0  0  0  0  0  0  0  0  0  0
   -3.9046   -2.7148   -0.6540 O   0  0  0  0  0  0  0  0  0  0  0  0
   -4.4344   -0.2693   -0.1396 N   0  0  0  0  0  0  0  0  0  0  0  0
   -4.4048    1.1629   -0.5188 C   0  0  0  0  0  0  0  0  0  0  0  0
   -3.8417    2.0214    0.6061 C   0  0  0  0  0  0  0  0  0  0  0  0
   -4.6600    1.8844    1.8889 C   0  0  0  0  0  0  0  0  0  0  0  0
   -5.2858    0.4985    2.0391 C   0  0  0  0  0  0  0  0  0  0  0  0
   -4.4726   -0.5653    1.3109 C   0  0  0  0  0  0  0  0  0  0  0  0
   -1.2549   -1.7098    0.2285 C   0  0  0  0  0  0  0  0  0  0  0  0
    0.0981   -1.4628    0.4877 C   0  0  0  0  0  0  0  0  0  0  0  0
    0.7822   -0.5693   -0.3226 C   0  0  0  0  0  0  0  0  0  0  0  0
    2.1376   -0.1695   -0.2728 N   0  0  0  0  0  0  0  0  0  0  0  0
    3.0373   -0.5168    0.7363 C   0  0  0  0  0  0  0  0  0  0  0  0
    2.7093   -1.2148    1.7061 O   0  0  0  0  0  0  0  0  0  0  0  0
    4.4967    0.0334    0.6175 C   0  0  0  0  0  0  0  0  0  0  0  0
    5.6095   -0.9999    0.2911 C   0  0  0  0  0  0  0  0  0  0  0  0
    5.9264   -1.0703    1.7942 C   0  0  0  0  0  0  0  0  0  0  0  0
    5.2616    0.3082    1.9434 C   0  0  0  0  0  0  0  0  0  0  0  0
    3.4043    0.4495   -3.4146 H   0  0  0  0  0  0  0  0  0  0  0  0
    4.2167   -0.4277   -2.1164 H   0  0  0  0  0  0  0  0  0  0  0  0
    2.7286   -1.0734   -2.8051 H   0  0  0  0  0  0  0  0  0  0  0  0
    2.9593    1.5499   -1.2096 H   0  0  0  0  0  0  0  0  0  0  0  0
    0.9966    0.9224   -3.1680 H   0  0  0  0  0  0  0  0  0  0  0  0
    0.7776    2.0509   -1.7999 H   0  0  0  0  0  0  0  0  0  0  0  0
   -1.7088    0.3555   -2.4701 H   0  0  0  0  0  0  0  0  0  0  0  0
   -3.8118    1.3274   -1.4232 H   0  0  0  0  0  0  0  0  0  0  0  0
   -5.4295    1.4720   -0.7569 H   0  0  0  0  0  0  0  0  0  0  0  0
   -3.8081    3.0734    0.3017 H   0  0  0  0  0  0  0  0  0  0  0  0
   -2.8053    1.7209    0.8072 H   0  0  0  0  0  0  0  0  0  0  0  0
   -5.4566    2.6377    1.9087 H   0  0  0  0  0  0  0  0  0  0  0  0
   -4.0121    2.0984    2.7471 H   0  0  0  0  0  0  0  0  0  0  0  0
   -5.3787    0.2481    3.1018 H   0  0  0  0  0  0  0  0  0  0  0  0
   -6.3044    0.5183    1.6303 H   0  0  0  0  0  0  0  0  0  0  0  0
   -3.4599   -0.6028    1.7244 H   0  0  0  0  0  0  0  0  0  0  0  0
   -4.9488   -1.5386    1.4698 H   0  0  0  0  0  0  0  0  0  0  0  0
   -1.7909   -2.4295    0.8443 H   0  0  0  0  0  0  0  0  0  0  0  0
    0.5850   -1.9906    1.3010 H   0  0  0  0  0  0  0  0  0  0  0  0
    4.5635    0.9172   -0.0250 H   0  0  0  0  0  0  0  0  0  0  0  0
    6.4243   -0.5875   -0.3151 H   0  0  0  0  0  0  0  0  0  0  0  0
    5.2782   -1.9402   -0.1583 H   0  0  0  0  0  0  0  0  0  0  0  0
    5.3987   -1.8744    2.3191 H   0  0  0  0  0  0  0  0  0  0  0  0
    6.9873   -1.1155    2.0531 H   0  0  0  0  0  0  0  0  0  0  0  0
    5.9652    1.1463    1.8755 H   0  0  0  0  0  0  0  0  0  0  0  0
    4.6502    0.4391    2.8403 H   0  0  0  0  0  0  0  0  0  0  0  0
  1  2  1  0
  2  3  1  0
  3  4  1  0
  4  5  2  0
  5  6  1  0
  6  7  1  0
  7  8  2  0
  7  9  2  0
  7 10  1  0
 10 11  1  0
 11 12  1  0
 12 13  1  0
 13 14  1  0
 14 15  1  0
  6 16  2  0
 16 17  1  0
 17 18  2  0
 18 19  1  0
 19 20  1  0
 20 21  2  0
 20 22  1  0
 22 23  1  0
 23 24  1  0
 24 25  1  0
 19  2  1  0
 25 22  1  0
 18  4  1  0
 15 10  1  0
  1 26  1  0
  1 27  1  0
  1 28  1  0
  2 29  1  0
  3 30  1  0
  3 31  1  0
  5 32  1  0
 11 33  1  0
 11 34  1  0
 12 35  1  0
 12 36  1  0
 13 37  1  0
 13 38  1  0
 14 39  1  0
 14 40  1  0
 15 41  1  0
 15 42  1  0
 16 43  1  0
 17 44  1  0
 22 45  1  0
 23 46  1  0
 23 47  1  0
 24 48  1  0
 24 49  1  0
 25 50  1  0
 25 51  1  0
M  END
$$$$
