
     RDKit          3D

 49 51  0  0  0  0  0  0  0  0999 V2000
   -4.7117    1.7088    2.4180 C   0  0  0  0  0  0  0  0  0  0  0  0
   -3.4673    0.8992    2.0942 C   0  0  0  0  0  0  0  0  0  0  0  0
   -2.8707    1.2836    0.8323 N   0  0  0  0  0  0  0  0  0  0  0  0
   -1.9264    2.2467    0.6121 C   0  0  0  0  0  0  0  0  0  0  0  0
   -1.1664    3.1855    1.8459 S   0  0  0  0  0  0  0  0  0  0  0  0
    0.3229    3.7367    0.9587 C   0  0  0  0  0  0  0  0  0  0  0  0
    1.2999    2.5836    0.7988 C   0  0  0  0  0  0  0  0  0  0  0  0
    2.0903    2.2874    1.6953 O   0  0  0  0  0  0  0  0  0  0  0  0
    1.1944    1.9367   -0.4337 N   0  0  0  0  0  0  0  0  0  0  0  0
    1.8623    0.7758   -0.7469 N   0  0  0  0  0  0  0  0  0  0  0  0
    3.1019    0.6753   -0.3845 C   0  0  0  0  0  0  0  0  0  0  0  0
    3.9190   -0.5516   -0.6310 C   0  0  0  0  0  0  0  0  0  0  0  0
    3.2179   -1.6974   -1.2952 C   0  0  0  0  0  0  0  0  0  0  0  0
    5.1898   -0.4858   -0.1936 C   0  0  0  0  0  0  0  0  0  0  0  0
    6.1572   -1.5169   -0.3627 C   0  0  0  0  0  0  0  0  0  0  0  0
    7.3638   -1.6745    0.3136 C   0  0  0  0  0  0  0  0  0  0  0  0
    8.0091   -2.8253   -0.1973 C   0  0  0  0  0  0  0  0  0  0  0  0
    7.1778   -3.3152   -1.1699 C   0  0  0  0  0  0  0  0  0  0  0  0
    6.0741   -2.5389   -1.2824 O   0  0  0  0  0  0  0  0  0  0  0  0
   -1.6699    2.3400   -0.6707 N   0  0  0  0  0  0  0  0  0  0  0  0
   -2.4548    1.4222   -1.3166 N   0  0  0  0  0  0  0  0  0  0  0  0
   -3.1658    0.7688   -0.4146 C   0  0  0  0  0  0  0  0  0  0  0  0
   -4.1305   -0.2851   -0.6994 C   0  0  0  0  0  0  0  0  0  0  0  0
   -5.3063    0.0187   -1.3959 C   0  0  0  0  0  0  0  0  0  0  0  0
   -6.2408   -0.9811   -1.6723 C   0  0  0  0  0  0  0  0  0  0  0  0
   -6.0007   -2.2923   -1.2632 C   0  0  0  0  0  0  0  0  0  0  0  0
   -4.8231   -2.6075   -0.5867 C   0  0  0  0  0  0  0  0  0  0  0  0
   -3.8877   -1.6083   -0.3097 C   0  0  0  0  0  0  0  0  0  0  0  0
   -5.4804    1.5790    1.6490 H   0  0  0  0  0  0  0  0  0  0  0  0
   -5.1324    1.3890    3.3762 H   0  0  0  0  0  0  0  0  0  0  0  0
   -4.4847    2.7777    2.4852 H   0  0  0  0  0  0  0  0  0  0  0  0
   -3.7100   -0.1662    2.0565 H   0  0  0  0  0  0  0  0  0  0  0  0
   -2.7183    1.0126    2.8842 H   0  0  0  0  0  0  0  0  0  0  0  0
    0.8162    4.5175    1.5475 H   0  0  0  0  0  0  0  0  0  0  0  0
    0.0723    4.1814   -0.0100 H   0  0  0  0  0  0  0  0  0  0  0  0
    0.2885    2.0091   -0.9095 H   0  0  0  0  0  0  0  0  0  0  0  0
    3.6351    1.5117    0.1008 H   0  0  0  0  0  0  0  0  0  0  0  0
    3.6953   -2.6602   -1.0996 H   0  0  0  0  0  0  0  0  0  0  0  0
    3.1757   -1.5399   -2.3775 H   0  0  0  0  0  0  0  0  0  0  0  0
    2.1926   -1.8001   -0.9234 H   0  0  0  0  0  0  0  0  0  0  0  0
    5.5418    0.4050    0.3215 H   0  0  0  0  0  0  0  0  0  0  0  0
    7.7294   -1.0243    1.0970 H   0  0  0  0  0  0  0  0  0  0  0  0
    8.9599   -3.2411    0.1041 H   0  0  0  0  0  0  0  0  0  0  0  0
    7.2239   -4.1611   -1.8411 H   0  0  0  0  0  0  0  0  0  0  0  0
   -5.4953    1.0365   -1.7323 H   0  0  0  0  0  0  0  0  0  0  0  0
   -7.1513   -0.7380   -2.2143 H   0  0  0  0  0  0  0  0  0  0  0  0
   -6.7263   -3.0715   -1.4838 H   0  0  0  0  0  0  0  0  0  0  0  0
   -4.6278   -3.6337   -0.2855 H   0  0  0  0  0  0  0  0  0  0  0  0
   -2.9624   -1.8728    0.1976 H   0  0  0  0  0  0  0  0  0  0  0  0
  1  2  1  0
  2  3  1  0
  3  4  1  0
  4  5  1  0
  5  6  1  0
  6  7  1  0
  7  8  2  0
  7  9  1  0
  9 10  1  0
 10 11  2  3
 11 12  1  0
 12 13  1  0
 12 14  2  3
 14 15  1  0
 15 16  2  0
 16 17  1  0
 17 18  2  0
 18 19  1  0
  4 20  2  0
 20 21  1  0
 21 22  2  0
 22 23  1  0
 23 24  2  0
 24 25  1  0
 25 26  2  0
 26 27  1  0
 27 28  2  0
 22  3  1  0
 28 23  1  0
 19 15  1  0
  1 29  1  0
  1 30  1  0
  1 31  1  0
  2 32  1  0
  2 33  1  0
  6 34  1  0
  6 35  1  0
  9 36  1  0
 11 37  1  0
 13 38  1  0
 13 39  1  0
 13 40  1  0
 14 41  1  0
 16 42  1  0
 17 43  1  0
 18 44  1  0
 24 45  1  0
 25 46  1  0
 26 47  1  0
 27 48  1  0
 28 49  1  0
M  END
$$$$
