
     RDKit          3D

 58 61  0  0  0  0  0  0  0  0999 V2000
    7.8989    2.4404   -1.4736 C   0  0  0  0  0  0  0  0  0  0  0  0
    7.6504    1.3848   -0.5542 O   0  0  0  0  0  0  0  0  0  0  0  0
    6.3417    1.1013   -0.2769 C   0  0  0  0  0  0  0  0  0  0  0  0
    5.2334    1.8064   -0.7418 C   0  0  0  0  0  0  0  0  0  0  0  0
    3.9402    1.3981   -0.3877 C   0  0  0  0  0  0  0  0  0  0  0  0
    3.7247    0.2830    0.4422 C   0  0  0  0  0  0  0  0  0  0  0  0
    2.3573   -0.1336    0.7674 C   0  0  0  0  0  0  0  0  0  0  0  0
    1.5195   -0.6808   -0.1855 C   0  0  0  0  0  0  0  0  0  0  0  0
    0.2162   -1.0024    0.1903 C   0  0  0  0  0  0  0  0  0  0  0  0
   -0.6603   -1.4970   -0.8940 C   0  0  0  0  0  0  0  0  0  0  0  0
   -0.3069   -2.4355   -1.5959 O   0  0  0  0  0  0  0  0  0  0  0  0
   -1.8225   -0.7903   -1.0795 N   0  0  0  0  0  0  0  0  0  0  0  0
   -2.8066   -1.1785   -2.0698 C   0  0  0  0  0  0  0  0  0  0  0  0
   -3.8994   -0.1047   -2.2197 C   0  0  0  0  0  0  0  0  0  0  0  0
   -4.4682    0.3252   -0.9216 N   0  0  0  0  0  0  0  0  0  0  0  0
   -5.2867    1.5511   -1.0746 C   0  0  0  0  0  0  0  0  0  0  0  0
   -6.6500    1.3223   -1.7501 C   0  0  0  0  0  0  0  0  0  0  0  0
   -7.4106    0.3185   -1.0667 O   0  0  0  0  0  0  0  0  0  0  0  0
   -6.6822   -0.9129   -0.9953 C   0  0  0  0  0  0  0  0  0  0  0  0
   -5.3240   -0.7146   -0.3000 C   0  0  0  0  0  0  0  0  0  0  0  0
   -0.2229   -0.8309    1.5219 C   0  0  0  0  0  0  0  0  0  0  0  0
   -1.4975   -1.2092    2.0195 C   0  0  0  0  0  0  0  0  0  0  0  0
   -1.8458   -0.9902    3.3509 C   0  0  0  0  0  0  0  0  0  0  0  0
   -0.9279   -0.4002    4.2069 C   0  0  0  0  0  0  0  0  0  0  0  0
    0.3343   -0.0435    3.7273 C   0  0  0  0  0  0  0  0  0  0  0  0
    0.7083   -0.2546    2.4071 C   0  0  0  0  0  0  0  0  0  0  0  0
    1.9490    0.1028    2.0369 N   0  0  0  0  0  0  0  0  0  0  0  0
    4.8538   -0.3970    0.9229 C   0  0  0  0  0  0  0  0  0  0  0  0
    4.7118   -1.5315    1.6822 O   0  0  0  0  0  0  0  0  0  0  0  0
    4.9496   -1.2413    3.0603 C   0  0  0  0  0  0  0  0  0  0  0  0
    6.1451   -0.0034    0.5527 C   0  0  0  0  0  0  0  0  0  0  0  0
    7.5384    3.3981   -1.0845 H   0  0  0  0  0  0  0  0  0  0  0  0
    7.4589    2.2218   -2.4531 H   0  0  0  0  0  0  0  0  0  0  0  0
    8.9826    2.5210   -1.6060 H   0  0  0  0  0  0  0  0  0  0  0  0
    5.3349    2.6747   -1.3837 H   0  0  0  0  0  0  0  0  0  0  0  0
    3.0896    1.9642   -0.7648 H   0  0  0  0  0  0  0  0  0  0  0  0
    1.8620   -0.8446   -1.2027 H   0  0  0  0  0  0  0  0  0  0  0  0
   -2.1029   -0.0656   -0.4252 H   0  0  0  0  0  0  0  0  0  0  0  0
   -2.2962   -1.3351   -3.0269 H   0  0  0  0  0  0  0  0  0  0  0  0
   -3.2286   -2.1413   -1.7634 H   0  0  0  0  0  0  0  0  0  0  0  0
   -4.6647   -0.4555   -2.9202 H   0  0  0  0  0  0  0  0  0  0  0  0
   -3.4198    0.7657   -2.6873 H   0  0  0  0  0  0  0  0  0  0  0  0
   -4.7242    2.3251   -1.6092 H   0  0  0  0  0  0  0  0  0  0  0  0
   -5.4646    1.9490   -0.0676 H   0  0  0  0  0  0  0  0  0  0  0  0
   -6.5379    1.0395   -2.8034 H   0  0  0  0  0  0  0  0  0  0  0  0
   -7.2313    2.2496   -1.7207 H   0  0  0  0  0  0  0  0  0  0  0  0
   -6.5681   -1.3202   -2.0059 H   0  0  0  0  0  0  0  0  0  0  0  0
   -7.2900   -1.6209   -0.4227 H   0  0  0  0  0  0  0  0  0  0  0  0
   -5.5124   -0.3996    0.7343 H   0  0  0  0  0  0  0  0  0  0  0  0
   -4.7956   -1.6693   -0.2233 H   0  0  0  0  0  0  0  0  0  0  0  0
   -2.2253   -1.6969    1.3741 H   0  0  0  0  0  0  0  0  0  0  0  0
   -2.8256   -1.2861    3.7172 H   0  0  0  0  0  0  0  0  0  0  0  0
   -1.1820   -0.2237    5.2488 H   0  0  0  0  0  0  0  0  0  0  0  0
    1.0523    0.4085    4.4080 H   0  0  0  0  0  0  0  0  0  0  0  0
    4.9204   -2.1868    3.6094 H   0  0  0  0  0  0  0  0  0  0  0  0
    5.9352   -0.7900    3.2190 H   0  0  0  0  0  0  0  0  0  0  0  0
    4.1690   -0.5905    3.4668 H   0  0  0  0  0  0  0  0  0  0  0  0
    7.0031   -0.5730    0.9017 H   0  0  0  0  0  0  0  0  0  0  0  0
  1  2  1  0
  2  3  1  0
  3  4  2  0
  4  5  1  0
  5  6  2  0
  6  7  1  0
  7  8  2  0
  8  9  1  0
  9 10  1  0
 10 11  2  0
 10 12  1  0
 12 13  1  0
 13 14  1  0
 14 15  1  0
 15 16  1  0
 16 17  1  0
 17 18  1  0
 18 19  1  0
 19 20  1  0
  9 21  2  0
 21 22  1  0
 22 23  2  0
 23 24  1  0
 24 25  2  0
 25 26  1  0
 26 27  2  0
  6 28  1  0
 28 29  1  0
 29 30  1  0
 28 31  2  0
 31  3  1  0
 27  7  1  0
 20 15  1  0
 26 21  1  0
  1 32  1  0
  1 33  1  0
  1 34  1  0
  4 35  1  0
  5 36  1  0
  8 37  1  0
 12 38  1  0
 13 39  1  0
 13 40  1  0
 14 41  1  0
 14 42  1  0
 16 43  1  0
 16 44  1  0
 17 45  1  0
 17 46  1  0
 19 47  1  0
 19 48  1  0
 20 49  1  0
 20 50  1  0
 22 51  1  0
 23 52  1  0
 24 53  1  0
 25 54  1  0
 30 55  1  0
 30 56  1  0
 30 57  1  0
 31 58  1  0
M  END
$$$$
