
     RDKit          3D

 41 44  0  0  0  0  0  0  0  0999 V2000
    5.3072    2.2235   -0.5640 C   0  0  0  0  0  0  0  0  0  0  0  0
    4.9903    1.5467    0.7608 C   0  0  0  0  0  0  0  0  0  0  0  0
    4.4278    0.1613    0.5619 C   0  0  0  0  0  0  0  0  0  0  0  0
    5.2817   -0.9456    0.4962 C   0  0  0  0  0  0  0  0  0  0  0  0
    4.7891   -2.2390    0.2921 C   0  0  0  0  0  0  0  0  0  0  0  0
    3.4058   -2.3926    0.1522 C   0  0  0  0  0  0  0  0  0  0  0  0
    2.6571   -3.5295   -0.0664 N   0  0  0  0  0  0  0  0  0  0  0  0
    1.3282   -3.2189   -0.1571 C   0  0  0  0  0  0  0  0  0  0  0  0
    0.4333   -4.1723   -0.3850 O   0  0  0  0  0  0  0  0  0  0  0  0
    1.2153   -1.8614    0.0318 C   0  0  0  0  0  0  0  0  0  0  0  0
   -0.0071   -1.1804   -0.0091 N   0  0  0  0  0  0  0  0  0  0  0  0
   -0.1477   -0.3852    0.9423 N   0  0  0  0  0  0  0  0  0  0  0  0
   -1.3344    0.2821    0.9607 C   0  0  0  0  0  0  0  0  0  0  0  0
   -2.3856    0.1194    0.1780 N   0  0  0  0  0  0  0  0  0  0  0  0
   -3.4081    0.9973    0.5100 C   0  0  0  0  0  0  0  0  0  0  0  0
   -4.6700    0.9925   -0.2306 C   0  0  0  0  0  0  0  0  0  0  0  0
   -4.9527   -0.0749   -1.0978 C   0  0  0  0  0  0  0  0  0  0  0  0
   -6.1473   -0.1174   -1.8218 C   0  0  0  0  0  0  0  0  0  0  0  0
   -7.0767    0.9106   -1.6916 C   0  0  0  0  0  0  0  0  0  0  0  0
   -6.8106    1.9811   -0.8413 C   0  0  0  0  0  0  0  0  0  0  0  0
   -5.6148    2.0236   -0.1162 C   0  0  0  0  0  0  0  0  0  0  0  0
   -3.1218    1.8228    1.5780 C   0  0  0  0  0  0  0  0  0  0  0  0
   -1.5434    1.5099    2.1630 S   0  0  0  0  0  0  0  0  0  0  0  0
    2.5169   -1.3152    0.2121 C   0  0  0  0  0  0  0  0  0  0  0  0
    3.0416   -0.0204    0.4121 C   0  0  0  0  0  0  0  0  0  0  0  0
    5.7139    3.2246   -0.3896 H   0  0  0  0  0  0  0  0  0  0  0  0
    4.4094    2.3250   -1.1831 H   0  0  0  0  0  0  0  0  0  0  0  0
    6.0462    1.6517   -1.1355 H   0  0  0  0  0  0  0  0  0  0  0  0
    4.2762    2.1567    1.3274 H   0  0  0  0  0  0  0  0  0  0  0  0
    5.8969    1.4925    1.3758 H   0  0  0  0  0  0  0  0  0  0  0  0
    6.3564   -0.8076    0.6013 H   0  0  0  0  0  0  0  0  0  0  0  0
    5.4636   -3.0876    0.2402 H   0  0  0  0  0  0  0  0  0  0  0  0
    3.0278   -4.4632   -0.1629 H   0  0  0  0  0  0  0  0  0  0  0  0
   -0.4361   -3.7269   -0.4146 H   0  0  0  0  0  0  0  0  0  0  0  0
   -4.2379   -0.8877   -1.2156 H   0  0  0  0  0  0  0  0  0  0  0  0
   -6.3470   -0.9534   -2.4871 H   0  0  0  0  0  0  0  0  0  0  0  0
   -8.0054    0.8793   -2.2555 H   0  0  0  0  0  0  0  0  0  0  0  0
   -7.5329    2.7879   -0.7439 H   0  0  0  0  0  0  0  0  0  0  0  0
   -5.4397    2.8822    0.5254 H   0  0  0  0  0  0  0  0  0  0  0  0
   -3.7353    2.5758    2.0493 H   0  0  0  0  0  0  0  0  0  0  0  0
    2.3696    0.8328    0.4474 H   0  0  0  0  0  0  0  0  0  0  0  0
  1  2  1  0
  2  3  1  0
  3  4  2  0
  4  5  1  0
  5  6  2  0
  6  7  1  0
  7  8  1  0
  8  9  1  0
  8 10  2  0
 10 11  1  0
 11 12  2  3
 12 13  1  0
 13 14  2  0
 14 15  1  0
 15 16  1  0
 16 17  2  0
 17 18  1  0
 18 19  2  0
 19 20  1  0
 20 21  2  0
 15 22  2  0
 22 23  1  0
 10 24  1  0
 24 25  2  0
 25  3  1  0
 24  6  1  0
 23 13  1  0
 21 16  1  0
  1 26  1  0
  1 27  1  0
  1 28  1  0
  2 29  1  0
  2 30  1  0
  4 31  1  0
  5 32  1  0
  7 33  1  0
  9 34  1  0
 17 35  1  0
 18 36  1  0
 19 37  1  0
 20 38  1  0
 21 39  1  0
 22 40  1  0
 25 41  1  0
M  END
$$$$
