
     RDKit          3D

 56 61  0  0  0  0  0  0  0  0999 V2000
    5.2502   -2.7364   -0.9190 C   0  0  0  0  0  0  0  0  0  0  0  0
    4.7669   -2.0877   -2.0876 O   0  0  0  0  0  0  0  0  0  0  0  0
    3.6402   -1.3238   -1.9594 C   0  0  0  0  0  0  0  0  0  0  0  0
    3.1828   -0.7578   -3.1498 C   0  0  0  0  0  0  0  0  0  0  0  0
    2.0413    0.0412   -3.1641 C   0  0  0  0  0  0  0  0  0  0  0  0
    1.3469    0.2838   -1.9805 C   0  0  0  0  0  0  0  0  0  0  0  0
    1.7877   -0.2688   -0.7643 C   0  0  0  0  0  0  0  0  0  0  0  0
    1.0450   -0.0192    0.5492 C   0  0  0  0  0  0  0  0  0  0  0  0
   -0.1786   -0.8613    0.4521 C   0  0  0  0  0  0  0  0  0  0  0  0
   -0.4281   -2.2440    0.4325 C   0  0  0  0  0  0  0  0  0  0  0  0
    0.5400   -3.3664    0.4808 C   0  0  0  0  0  0  0  0  0  0  0  0
   -1.7372   -2.5011    0.3553 N   0  0  0  0  0  0  0  0  0  0  0  0
   -2.3543   -1.2783    0.3197 N   0  0  0  0  0  0  0  0  0  0  0  0
   -3.7797   -1.2110    0.2169 C   0  0  0  0  0  0  0  0  0  0  0  0
   -4.5164   -2.4097    0.1611 C   0  0  0  0  0  0  0  0  0  0  0  0
   -5.9115   -2.3897    0.0597 C   0  0  0  0  0  0  0  0  0  0  0  0
   -6.5808   -1.1626    0.0122 C   0  0  0  0  0  0  0  0  0  0  0  0
   -8.0446   -1.1344   -0.0938 N   0  0  0  0  0  4  0  0  0  0  0  0
   -8.6001   -0.0272   -0.1366 O   0  0  0  0  0  0  0  0  0  0  0  0
   -8.6414   -2.2202   -0.1340 O   0  0  0  0  0  1  0  0  0  0  0  0
   -5.8634    0.0377    0.0648 C   0  0  0  0  0  0  0  0  0  0  0  0
   -4.4662    0.0108    0.1664 C   0  0  0  0  0  0  0  0  0  0  0  0
   -1.4132   -0.2563    0.4059 C   0  0  0  0  0  0  0  0  0  0  0  0
   -1.6498    1.0785    0.4455 N   0  0  0  0  0  0  0  0  0  0  0  0
   -0.5955    1.8368    0.6191 C   0  0  0  0  0  0  0  0  0  0  0  0
   -0.9084    3.3513    0.6832 C   0  0  0  0  0  0  0  0  0  0  0  0
   -2.0329    3.7918    0.4886 O   0  0  0  0  0  0  0  0  0  0  0  0
    0.1507    4.1682    0.9748 N   0  0  0  0  0  0  0  0  0  0  0  0
    1.4535    3.7098    1.1866 C   0  0  0  0  0  0  0  0  0  0  0  0
    2.4301    4.6622    1.5024 C   0  0  0  0  0  0  0  0  0  0  0  0
    3.7428    4.2636    1.7265 C   0  0  0  0  0  0  0  0  0  0  0  0
    4.0736    2.9177    1.6362 C   0  0  0  0  0  0  0  0  0  0  0  0
    3.0937    1.9684    1.3186 C   0  0  0  0  0  0  0  0  0  0  0  0
    1.7588    2.3355    1.0779 C   0  0  0  0  0  0  0  0  0  0  0  0
    0.7420    1.4155    0.7491 N   0  0  0  0  0  0  0  0  0  0  0  0
    2.9448   -1.0777   -0.7734 C   0  0  0  0  0  0  0  0  0  0  0  0
    5.5608   -2.0068   -0.1640 H   0  0  0  0  0  0  0  0  0  0  0  0
    4.5053   -3.4304   -0.5153 H   0  0  0  0  0  0  0  0  0  0  0  0
    6.1317   -3.3204   -1.2003 H   0  0  0  0  0  0  0  0  0  0  0  0
    3.7195   -0.9449   -4.0770 H   0  0  0  0  0  0  0  0  0  0  0  0
    1.6914    0.4717   -4.0990 H   0  0  0  0  0  0  0  0  0  0  0  0
    0.4532    0.9044   -2.0163 H   0  0  0  0  0  0  0  0  0  0  0  0
    1.6262   -0.3891    1.4040 H   0  0  0  0  0  0  0  0  0  0  0  0
    0.0671   -4.2850    0.8439 H   0  0  0  0  0  0  0  0  0  0  0  0
    0.9438   -3.5629   -0.5173 H   0  0  0  0  0  0  0  0  0  0  0  0
    1.3717   -3.1343    1.1534 H   0  0  0  0  0  0  0  0  0  0  0  0
   -4.0139   -3.3759    0.1959 H   0  0  0  0  0  0  0  0  0  0  0  0
   -6.4515   -3.3334    0.0190 H   0  0  0  0  0  0  0  0  0  0  0  0
   -6.3677    1.0018    0.0277 H   0  0  0  0  0  0  0  0  0  0  0  0
   -3.9523    0.9675    0.2011 H   0  0  0  0  0  0  0  0  0  0  0  0
   -0.0651    5.1539    1.0322 H   0  0  0  0  0  0  0  0  0  0  0  0
    2.1779    5.7167    1.5770 H   0  0  0  0  0  0  0  0  0  0  0  0
    4.5045    4.9997    1.9709 H   0  0  0  0  0  0  0  0  0  0  0  0
    5.0992    2.5994    1.8105 H   0  0  0  0  0  0  0  0  0  0  0  0
    3.4224    0.9364    1.2686 H   0  0  0  0  0  0  0  0  0  0  0  0
    3.2865   -1.5078    0.1627 H   0  0  0  0  0  0  0  0  0  0  0  0
  1  2  1  0
  2  3  1  0
  3  4  2  0
  4  5  1  0
  5  6  2  0
  6  7  1  0
  7  8  1  0
  8  9  1  0
  9 10  1  0
 10 11  1  0
 10 12  2  0
 12 13  1  0
 13 14  1  0
 14 15  2  0
 15 16  1  0
 16 17  2  0
 17 18  1  0
 18 19  2  0
 18 20  1  0
 17 21  1  0
 21 22  2  0
 13 23  1  0
 23 24  1  0
 24 25  2  0
 25 26  1  0
 26 27  2  0
 26 28  1  0
 28 29  1  0
 29 30  2  0
 30 31  1  0
 31 32  2  0
 32 33  1  0
 33 34  2  0
 34 35  1  0
  7 36  2  0
 36  3  1  0
 35  8  1  0
 23  9  2  0
 35 25  1  0
 22 14  1  0
 34 29  1  0
  1 37  1  0
  1 38  1  0
  1 39  1  0
  4 40  1  0
  5 41  1  0
  6 42  1  0
  8 43  1  0
 11 44  1  0
 11 45  1  0
 11 46  1  0
 15 47  1  0
 16 48  1  0
 21 49  1  0
 22 50  1  0
 28 51  1  0
 30 52  1  0
 31 53  1  0
 32 54  1  0
 33 55  1  0
 36 56  1  0
M  CHG  2  18   1  20  -1
M  END
$$$$
