
     RDKit          3D

 59 62  0  0  0  0  0  0  0  0999 V2000
    1.3450    2.9965    3.0800 C   0  0  0  0  0  0  0  0  0  0  0  0
    0.4851    1.7541    3.2582 C   0  0  0  0  0  0  0  0  0  0  0  0
    1.1014    0.4957    2.6448 C   0  0  0  0  0  0  0  0  0  0  0  0
    1.1830    0.5224    1.1955 N   0  0  0  0  0  0  0  0  0  0  0  0
    0.1420    0.3005    0.3030 C   0  0  0  0  0  0  0  0  0  0  0  0
   -1.2333   -0.0343    0.6689 C   0  0  0  0  0  0  0  0  0  0  0  0
   -1.5372   -1.2623    1.2731 C   0  0  0  0  0  0  0  0  0  0  0  0
   -2.8529   -1.5700    1.6239 C   0  0  0  0  0  0  0  0  0  0  0  0
   -3.2416   -2.7336    2.2359 O   0  0  0  0  0  0  0  0  0  0  0  0
   -2.3433   -3.8328    2.1601 C   0  0  0  0  0  0  0  0  0  0  0  0
   -3.8627   -0.6260    1.3714 C   0  0  0  0  0  0  0  0  0  0  0  0
   -5.1677   -0.9381    1.6846 O   0  0  0  0  0  0  0  0  0  0  0  0
   -5.4745   -0.4709    2.9967 C   0  0  0  0  0  0  0  0  0  0  0  0
   -3.5815    0.5867    0.7197 C   0  0  0  0  0  0  0  0  0  0  0  0
   -4.6463    1.4190    0.4902 O   0  0  0  0  0  0  0  0  0  0  0  0
   -4.4421    2.4945   -0.4168 C   0  0  0  0  0  0  0  0  0  0  0  0
   -2.2599    0.8750    0.3759 C   0  0  0  0  0  0  0  0  0  0  0  0
    0.5541    0.4778   -0.9422 N   0  0  0  0  0  0  0  0  0  0  0  0
    1.8801    0.7537   -0.8493 C   0  0  0  0  0  0  0  0  0  0  0  0
    2.3002    0.7944    0.4488 C   0  0  0  0  0  0  0  0  0  0  0  0
    3.6481    1.0866    0.7997 C   0  0  0  0  0  0  0  0  0  0  0  0
    4.0902    1.1476    1.9410 O   0  0  0  0  0  0  0  0  0  0  0  0
    4.4444    1.3101   -0.3008 N   0  0  0  0  0  0  0  0  0  0  0  0
    4.0685    1.2745   -1.6302 C   0  0  0  0  0  0  0  0  0  0  0  0
    4.9171    1.5049   -2.4924 O   0  0  0  0  0  0  0  0  0  0  0  0
    2.7372    0.9866   -1.9047 N   0  0  0  0  0  0  0  0  0  0  0  0
    2.2884    0.8840   -3.2852 C   0  0  0  0  0  0  0  0  0  0  0  0
    2.4027   -0.5248   -3.8239 C   0  0  0  0  0  0  0  0  0  0  0  0
    3.5853   -0.9607   -4.4387 C   0  0  0  0  0  0  0  0  0  0  0  0
    3.6937   -2.2663   -4.9203 C   0  0  0  0  0  0  0  0  0  0  0  0
    2.6248   -3.1507   -4.7872 C   0  0  0  0  0  0  0  0  0  0  0  0
    1.4482   -2.7323   -4.1689 C   0  0  0  0  0  0  0  0  0  0  0  0
    1.3380   -1.4272   -3.6867 C   0  0  0  0  0  0  0  0  0  0  0  0
    2.3436    2.8472    3.5021 H   0  0  0  0  0  0  0  0  0  0  0  0
    1.4495    3.2636    2.0243 H   0  0  0  0  0  0  0  0  0  0  0  0
    0.8859    3.8471    3.5940 H   0  0  0  0  0  0  0  0  0  0  0  0
    0.3434    1.5822    4.3318 H   0  0  0  0  0  0  0  0  0  0  0  0
   -0.5075    1.9435    2.8350 H   0  0  0  0  0  0  0  0  0  0  0  0
    2.1004    0.3164    3.0516 H   0  0  0  0  0  0  0  0  0  0  0  0
    0.5079   -0.3804    2.9241 H   0  0  0  0  0  0  0  0  0  0  0  0
   -0.7309   -1.9653    1.4563 H   0  0  0  0  0  0  0  0  0  0  0  0
   -2.8672   -4.7190    2.5310 H   0  0  0  0  0  0  0  0  0  0  0  0
   -1.4726   -3.6684    2.8029 H   0  0  0  0  0  0  0  0  0  0  0  0
   -2.0395   -4.0329    1.1269 H   0  0  0  0  0  0  0  0  0  0  0  0
   -6.5121   -0.7416    3.2141 H   0  0  0  0  0  0  0  0  0  0  0  0
   -4.8369   -0.9471    3.7497 H   0  0  0  0  0  0  0  0  0  0  0  0
   -5.3893    0.6192    3.0635 H   0  0  0  0  0  0  0  0  0  0  0  0
   -3.7810    3.2510    0.0180 H   0  0  0  0  0  0  0  0  0  0  0  0
   -4.0587    2.1396   -1.3793 H   0  0  0  0  0  0  0  0  0  0  0  0
   -5.4123    2.9669   -0.5987 H   0  0  0  0  0  0  0  0  0  0  0  0
   -1.9944    1.8053   -0.1176 H   0  0  0  0  0  0  0  0  0  0  0  0
    5.4137    1.5200   -0.1223 H   0  0  0  0  0  0  0  0  0  0  0  0
    2.8812    1.5605   -3.9138 H   0  0  0  0  0  0  0  0  0  0  0  0
    1.2532    1.2397   -3.3627 H   0  0  0  0  0  0  0  0  0  0  0  0
    4.4315   -0.2835   -4.5422 H   0  0  0  0  0  0  0  0  0  0  0  0
    4.6141   -2.5930   -5.3970 H   0  0  0  0  0  0  0  0  0  0  0  0
    2.7103   -4.1671   -5.1620 H   0  0  0  0  0  0  0  0  0  0  0  0
    0.6156   -3.4220   -4.0585 H   0  0  0  0  0  0  0  0  0  0  0  0
    0.4173   -1.1164   -3.1954 H   0  0  0  0  0  0  0  0  0  0  0  0
  1  2  1  0
  2  3  1  0
  3  4  1  0
  4  5  1  0
  5  6  1  0
  6  7  2  0
  7  8  1  0
  8  9  1  0
  9 10  1  0
  8 11  2  0
 11 12  1  0
 12 13  1  0
 11 14  1  0
 14 15  1  0
 15 16  1  0
 14 17  2  0
  5 18  2  0
 18 19  1  0
 19 20  2  0
 20 21  1  0
 21 22  2  0
 21 23  1  0
 23 24  1  0
 24 25  2  0
 24 26  1  0
 26 27  1  0
 27 28  1  0
 28 29  2  0
 29 30  1  0
 30 31  2  0
 31 32  1  0
 32 33  2  0
 20  4  1  0
 33 28  1  0
 17  6  1  0
 26 19  1  0
  1 34  1  0
  1 35  1  0
  1 36  1  0
  2 37  1  0
  2 38  1  0
  3 39  1  0
  3 40  1  0
  7 41  1  0
 10 42  1  0
 10 43  1  0
 10 44  1  0
 13 45  1  0
 13 46  1  0
 13 47  1  0
 16 48  1  0
 16 49  1  0
 16 50  1  0
 17 51  1  0
 23 52  1  0
 27 53  1  0
 27 54  1  0
 29 55  1  0
 30 56  1  0
 31 57  1  0
 32 58  1  0
 33 59  1  0
M  END
$$$$
