
     RDKit          3D

 53 56  0  0  0  0  0  0  0  0999 V2000
    6.2325    1.5066   -1.7720 C   0  0  0  0  0  0  0  0  0  0  0  0
    4.9385    2.0912   -1.6761 O   0  0  0  0  0  0  0  0  0  0  0  0
    3.9538    1.1911   -1.1597 C   0  0  0  0  0  0  0  0  0  0  0  0
    3.9772    1.1495    0.3660 C   0  0  0  0  0  0  0  0  0  0  0  0
    2.9624    0.2553    0.9080 N   0  0  0  0  0  0  0  0  0  0  0  0
    3.1652   -1.0772    1.2017 C   0  0  0  0  0  0  0  0  0  0  0  0
    4.4590   -1.7854    0.9949 C   0  0  0  0  0  0  0  0  0  0  0  0
    1.9804   -1.5731    1.7076 C   0  0  0  0  0  0  0  0  0  0  0  0
    1.0220   -0.5224    1.7348 C   0  0  0  0  0  0  0  0  0  0  0  0
   -0.3736   -0.5745    2.2028 C   0  0  0  0  0  0  0  0  0  0  0  0
   -0.9919    0.4589    2.4735 O   0  0  0  0  0  0  0  0  0  0  0  0
   -1.0218   -1.9451    2.3690 C   0  0  0  0  0  0  0  0  0  0  0  0
   -2.7510   -1.9531    1.7774 S   0  0  0  0  0  0  0  0  0  0  0  0
   -2.4827   -1.3551    0.1311 C   0  0  0  0  0  0  0  0  0  0  0  0
   -1.3609   -1.7328   -0.5178 N   0  0  0  0  0  0  0  0  0  0  0  0
   -1.1180   -1.2242   -1.7407 C   0  0  0  0  0  0  0  0  0  0  0  0
    0.1577   -1.6525   -2.4050 C   0  0  0  0  0  0  0  0  0  0  0  0
   -1.9117   -0.3873   -2.4188 N   0  0  0  0  0  0  0  0  0  0  0  0
   -3.0248   -0.0479   -1.7459 C   0  0  0  0  0  0  0  0  0  0  0  0
   -4.1594    1.0432   -2.4446 S   0  0  0  0  0  0  0  0  0  0  0  0
   -5.1179    0.9476   -1.0796 C   0  0  0  0  0  0  0  0  0  0  0  0
   -4.6288    0.1175   -0.1076 C   0  0  0  0  0  0  0  0  0  0  0  0
   -3.3912   -0.4828   -0.4721 C   0  0  0  0  0  0  0  0  0  0  0  0
   -5.5306    0.0986    1.0730 C   0  0  0  0  0  0  0  0  0  0  0  0
   -6.8194    0.7878    0.5246 C   0  0  0  0  0  0  0  0  0  0  0  0
   -6.3944    1.6113   -0.7280 C   0  0  0  0  0  0  0  0  0  0  0  0
    1.6598    0.6026    1.2140 C   0  0  0  0  0  0  0  0  0  0  0  0
    1.0934    1.9697    0.9944 C   0  0  0  0  0  0  0  0  0  0  0  0
    6.2115    0.6400   -2.4398 H   0  0  0  0  0  0  0  0  0  0  0  0
    6.9144    2.2517   -2.1915 H   0  0  0  0  0  0  0  0  0  0  0  0
    6.6061    1.2141   -0.7857 H   0  0  0  0  0  0  0  0  0  0  0  0
    2.9811    1.5600   -1.5036 H   0  0  0  0  0  0  0  0  0  0  0  0
    4.0796    0.1944   -1.5986 H   0  0  0  0  0  0  0  0  0  0  0  0
    3.8286    2.1481    0.7913 H   0  0  0  0  0  0  0  0  0  0  0  0
    4.9524    0.8242    0.7400 H   0  0  0  0  0  0  0  0  0  0  0  0
    5.2211   -1.4046    1.6832 H   0  0  0  0  0  0  0  0  0  0  0  0
    4.8159   -1.6599   -0.0321 H   0  0  0  0  0  0  0  0  0  0  0  0
    4.3478   -2.8590    1.1785 H   0  0  0  0  0  0  0  0  0  0  0  0
    1.8381   -2.5948    2.0376 H   0  0  0  0  0  0  0  0  0  0  0  0
   -0.4783   -2.7192    1.8235 H   0  0  0  0  0  0  0  0  0  0  0  0
   -1.0064   -2.2046    3.4327 H   0  0  0  0  0  0  0  0  0  0  0  0
    0.0609   -2.6836   -2.7577 H   0  0  0  0  0  0  0  0  0  0  0  0
    0.3912   -1.0093   -3.2589 H   0  0  0  0  0  0  0  0  0  0  0  0
    0.9885   -1.5962   -1.6947 H   0  0  0  0  0  0  0  0  0  0  0  0
   -5.1035    0.6847    1.8916 H   0  0  0  0  0  0  0  0  0  0  0  0
   -5.7536   -0.9125    1.4236 H   0  0  0  0  0  0  0  0  0  0  0  0
   -7.3123    1.4066    1.2805 H   0  0  0  0  0  0  0  0  0  0  0  0
   -7.5330    0.0139    0.2176 H   0  0  0  0  0  0  0  0  0  0  0  0
   -6.2276    2.6601   -0.4577 H   0  0  0  0  0  0  0  0  0  0  0  0
   -7.1491    1.5491   -1.5164 H   0  0  0  0  0  0  0  0  0  0  0  0
    1.6824    2.5679    0.2944 H   0  0  0  0  0  0  0  0  0  0  0  0
    0.0841    1.9023    0.5718 H   0  0  0  0  0  0  0  0  0  0  0  0
    1.0362    2.5093    1.9447 H   0  0  0  0  0  0  0  0  0  0  0  0
  1  2  1  0
  2  3  1  0
  3  4  1  0
  4  5  1  0
  5  6  1  0
  6  7  1  0
  6  8  2  0
  8  9  1  0
  9 10  1  0
 10 11  2  0
 10 12  1  0
 12 13  1  0
 13 14  1  0
 14 15  2  0
 15 16  1  0
 16 17  1  0
 16 18  2  0
 18 19  1  0
 19 20  1  0
 20 21  1  0
 21 22  2  0
 22 23  1  0
 22 24  1  0
 24 25  1  0
 25 26  1  0
  9 27  2  0
 27 28  1  0
 27  5  1  0
 23 14  1  0
 23 19  2  0
 26 21  1  0
  1 29  1  0
  1 30  1  0
  1 31  1  0
  3 32  1  0
  3 33  1  0
  4 34  1  0
  4 35  1  0
  7 36  1  0
  7 37  1  0
  7 38  1  0
  8 39  1  0
 12 40  1  0
 12 41  1  0
 17 42  1  0
 17 43  1  0
 17 44  1  0
 24 45  1  0
 24 46  1  0
 25 47  1  0
 25 48  1  0
 26 49  1  0
 26 50  1  0
 28 51  1  0
 28 52  1  0
 28 53  1  0
M  END
$$$$
