
     RDKit          3D

 58 61  0  0  0  0  0  0  0  0999 V2000
    7.1982    2.8009    1.5579 C   0  0  0  0  0  0  0  0  0  0  0  0
    6.6158    1.8810    0.5250 C   0  0  0  0  0  0  0  0  0  0  0  0
    5.7373    2.3608   -0.4512 C   0  0  0  0  0  0  0  0  0  0  0  0
    5.1791    1.4917   -1.3919 C   0  0  0  0  0  0  0  0  0  0  0  0
    5.4935    0.1283   -1.3746 C   0  0  0  0  0  0  0  0  0  0  0  0
    4.8563   -0.8129   -2.3641 C   0  0  0  0  0  0  0  0  0  0  0  0
    3.5964   -1.2905   -1.8492 N   0  0  0  0  0  0  0  0  0  0  0  0
    2.3866   -0.8487   -2.3402 C   0  0  0  0  0  0  0  0  0  0  0  0
    2.2780   -0.1278   -3.3257 O   0  0  0  0  0  0  0  0  0  0  0  0
    1.1985   -1.3395   -1.5095 C   0  0  0  0  0  0  0  0  0  0  0  0
   -0.1163   -1.2918   -2.3006 C   0  0  0  0  0  0  0  0  0  0  0  0
   -1.3219   -1.2885   -1.3660 C   0  0  0  0  0  0  0  0  0  0  0  0
   -1.3608   -0.0294   -0.4812 C   0  0  0  0  0  0  0  0  0  0  0  0
   -2.0927   -0.2943    0.8472 C   0  0  0  0  0  0  0  0  0  0  0  0
   -3.4550   -0.7660    0.6187 N   0  0  0  0  0  0  0  0  0  0  0  0
   -4.5917   -0.0129    0.8817 C   0  0  0  0  0  0  0  0  0  0  0  0
   -4.5848    1.3053    0.5134 N   0  0  0  0  0  0  0  0  0  0  0  0
   -5.6048    2.1988    0.7056 C   0  0  0  0  0  0  0  0  0  0  0  0
   -5.3646    3.7760    0.2083 S   0  0  0  0  0  0  0  0  0  0  0  0
   -6.7495    1.7642    1.3046 N   0  0  0  0  0  0  0  0  0  0  0  0
   -6.7979    0.5226    1.6678 C   0  0  0  0  0  0  0  0  0  0  0  0
   -8.0265    0.0360    2.3503 C   0  0  0  0  0  0  0  0  0  0  0  0
   -8.1123   -1.2273    2.7935 C   0  0  0  0  0  0  0  0  0  0  0  0
   -7.0441   -2.1774    2.6060 C   0  0  0  0  0  0  0  0  0  0  0  0
   -5.9087   -1.8368    1.9785 C   0  0  0  0  0  0  0  0  0  0  0  0
   -5.7032   -0.4893    1.4805 C   0  0  0  0  0  0  0  0  0  0  0  0
    0.0542    0.5326   -0.2242 C   0  0  0  0  0  0  0  0  0  0  0  0
    1.1153   -0.5692   -0.1792 C   0  0  0  0  0  0  0  0  0  0  0  0
    6.3588   -0.3534   -0.3849 C   0  0  0  0  0  0  0  0  0  0  0  0
    6.9122    0.5165    0.5572 C   0  0  0  0  0  0  0  0  0  0  0  0
    8.2589    2.5816    1.7091 H   0  0  0  0  0  0  0  0  0  0  0  0
    7.1303    3.8444    1.2481 H   0  0  0  0  0  0  0  0  0  0  0  0
    6.6692    2.6869    2.5064 H   0  0  0  0  0  0  0  0  0  0  0  0
    5.4804    3.4149   -0.4880 H   0  0  0  0  0  0  0  0  0  0  0  0
    4.4904    1.8804   -2.1403 H   0  0  0  0  0  0  0  0  0  0  0  0
    4.7290   -0.3319   -3.3363 H   0  0  0  0  0  0  0  0  0  0  0  0
    5.4936   -1.6869   -2.5144 H   0  0  0  0  0  0  0  0  0  0  0  0
    3.6091   -1.7161   -0.9331 H   0  0  0  0  0  0  0  0  0  0  0  0
    1.4073   -2.3937   -1.2678 H   0  0  0  0  0  0  0  0  0  0  0  0
   -0.1670   -0.4202   -2.9534 H   0  0  0  0  0  0  0  0  0  0  0  0
   -0.1644   -2.1675   -2.9571 H   0  0  0  0  0  0  0  0  0  0  0  0
   -1.2874   -2.1947   -0.7489 H   0  0  0  0  0  0  0  0  0  0  0  0
   -2.2442   -1.3521   -1.9507 H   0  0  0  0  0  0  0  0  0  0  0  0
   -1.9194    0.7472   -1.0236 H   0  0  0  0  0  0  0  0  0  0  0  0
   -1.5526   -1.0547    1.4300 H   0  0  0  0  0  0  0  0  0  0  0  0
   -2.1028    0.6152    1.4617 H   0  0  0  0  0  0  0  0  0  0  0  0
   -3.5592   -1.7474    0.8608 H   0  0  0  0  0  0  0  0  0  0  0  0
   -3.7766    1.6542    0.0288 H   0  0  0  0  0  0  0  0  0  0  0  0
   -8.8266    0.7563    2.4877 H   0  0  0  0  0  0  0  0  0  0  0  0
   -9.0045   -1.5623    3.3061 H   0  0  0  0  0  0  0  0  0  0  0  0
   -7.1958   -3.1885    2.9790 H   0  0  0  0  0  0  0  0  0  0  0  0
   -5.1331   -2.5829    1.8533 H   0  0  0  0  0  0  0  0  0  0  0  0
    0.0777    1.1122    0.7052 H   0  0  0  0  0  0  0  0  0  0  0  0
    0.3148    1.2354   -1.0264 H   0  0  0  0  0  0  0  0  0  0  0  0
    2.0834   -0.1294    0.0919 H   0  0  0  0  0  0  0  0  0  0  0  0
    0.8561   -1.2728    0.6280 H   0  0  0  0  0  0  0  0  0  0  0  0
    6.6075   -1.4099   -0.3417 H   0  0  0  0  0  0  0  0  0  0  0  0
    7.5802    0.1230    1.3195 H   0  0  0  0  0  0  0  0  0  0  0  0
  1  2  1  0
  2  3  2  0
  3  4  1  0
  4  5  2  0
  5  6  1  0
  6  7  1  0
  7  8  1  0
  8  9  2  0
  8 10  1  0
 10 11  1  0
 11 12  1  0
 12 13  1  0
 13 14  1  0
 14 15  1  0
 15 16  1  0
 16 17  1  0
 17 18  1  0
 18 19  2  0
 18 20  1  0
 20 21  2  0
 21 22  1  0
 22 23  2  0
 23 24  1  0
 24 25  2  0
 25 26  1  0
 13 27  1  0
 27 28  1  0
  5 29  1  0
 29 30  2  0
 30  2  1  0
 28 10  1  0
 26 16  2  0
 26 21  1  0
  1 31  1  0
  1 32  1  0
  1 33  1  0
  3 34  1  0
  4 35  1  0
  6 36  1  0
  6 37  1  0
  7 38  1  0
 10 39  1  0
 11 40  1  0
 11 41  1  0
 12 42  1  0
 12 43  1  0
 13 44  1  0
 14 45  1  0
 14 46  1  0
 15 47  1  0
 17 48  1  0
 22 49  1  0
 23 50  1  0
 24 51  1  0
 25 52  1  0
 27 53  1  0
 27 54  1  0
 28 55  1  0
 28 56  1  0
 29 57  1  0
 30 58  1  0
M  END
$$$$
