
     RDKit          3D

 54 56  0  0  0  0  0  0  0  0999 V2000
   -5.1737   -0.7938    2.3225 C   0  0  0  0  0  0  0  0  0  0  0  0
   -4.0471   -1.7208    1.9068 C   0  0  0  0  0  0  0  0  0  0  0  0
   -2.8512   -0.9685    1.6647 O   0  0  0  0  0  0  0  0  0  0  0  0
   -2.7116   -0.4496    0.4093 C   0  0  0  0  0  0  0  0  0  0  0  0
   -3.5342   -0.5964   -0.4876 O   0  0  0  0  0  0  0  0  0  0  0  0
   -1.4577    0.2817    0.2523 C   0  0  0  0  0  0  0  0  0  0  0  0
   -1.3747    1.4656   -0.4687 C   0  0  0  0  0  0  0  0  0  0  0  0
   -2.3424    2.1973   -1.0847 N   0  0  0  0  0  0  0  0  0  0  0  0
   -2.7224    1.7402   -2.2337 C   0  0  0  0  0  0  0  0  0  0  0  0
   -3.6858    2.2941   -3.0513 N   0  0  0  0  0  0  0  0  0  0  0  0
   -4.5241    3.3637   -2.5263 C   0  0  0  0  0  0  0  0  0  0  0  0
   -4.2787    1.4848   -4.1045 C   0  0  0  0  0  0  0  0  0  0  0  0
    0.2221    2.0934   -0.4555 S   0  0  0  0  0  0  0  0  0  0  0  0
    0.8318    0.7959    0.4690 C   0  0  0  0  0  0  0  0  0  0  0  0
    2.2410    0.7374    0.8023 C   0  0  0  0  0  0  0  0  0  0  0  0
    3.0918    1.6457    0.4281 N   0  0  0  0  0  0  0  0  0  0  0  0
    4.3693    1.3834    0.8414 N   0  0  0  0  0  0  0  0  0  0  0  0
    5.2931    0.9327   -0.1466 C   0  0  0  0  0  0  0  0  0  0  0  0
    6.6538    0.8627    0.1889 C   0  0  0  0  0  0  0  0  0  0  0  0
    7.5926    0.3643   -0.7186 C   0  0  0  0  0  0  0  0  0  0  0  0
    7.1796   -0.0899   -1.9685 C   0  0  0  0  0  0  0  0  0  0  0  0
    5.8289   -0.0535   -2.3068 C   0  0  0  0  0  0  0  0  0  0  0  0
    4.8915    0.4436   -1.3967 C   0  0  0  0  0  0  0  0  0  0  0  0
   -0.1723   -0.0994    0.8003 C   0  0  0  0  0  0  0  0  0  0  0  0
    0.1144   -1.3028    1.5700 C   0  0  0  0  0  0  0  0  0  0  0  0
    0.1964   -1.2405    2.9665 C   0  0  0  0  0  0  0  0  0  0  0  0
    0.4630   -2.3975    3.7020 C   0  0  0  0  0  0  0  0  0  0  0  0
    0.6451   -3.6117    3.0412 C   0  0  0  0  0  0  0  0  0  0  0  0
    0.9702   -5.0366    3.9485 Cl  0  0  0  0  0  0  0  0  0  0  0  0
    0.5630   -3.6807    1.6508 C   0  0  0  0  0  0  0  0  0  0  0  0
    0.2958   -2.5254    0.9126 C   0  0  0  0  0  0  0  0  0  0  0  0
   -4.8815   -0.2016    3.1959 H   0  0  0  0  0  0  0  0  0  0  0  0
   -5.4151   -0.0853    1.5239 H   0  0  0  0  0  0  0  0  0  0  0  0
   -6.0743   -1.3637    2.5676 H   0  0  0  0  0  0  0  0  0  0  0  0
   -4.3231   -2.3242    1.0346 H   0  0  0  0  0  0  0  0  0  0  0  0
   -3.8257   -2.4182    2.7214 H   0  0  0  0  0  0  0  0  0  0  0  0
   -2.2817    0.8226   -2.6710 H   0  0  0  0  0  0  0  0  0  0  0  0
   -5.0862    3.8529   -3.3290 H   0  0  0  0  0  0  0  0  0  0  0  0
   -5.2380    2.9674   -1.7967 H   0  0  0  0  0  0  0  0  0  0  0  0
   -3.9178    4.1368   -2.0423 H   0  0  0  0  0  0  0  0  0  0  0  0
   -3.5100    0.9224   -4.6453 H   0  0  0  0  0  0  0  0  0  0  0  0
   -4.7977    2.1114   -4.8374 H   0  0  0  0  0  0  0  0  0  0  0  0
   -4.9971    0.7750   -3.6816 H   0  0  0  0  0  0  0  0  0  0  0  0
    2.5883   -0.1291    1.3945 H   0  0  0  0  0  0  0  0  0  0  0  0
    4.8008    2.1833    1.3131 H   0  0  0  0  0  0  0  0  0  0  0  0
    6.9927    1.1929    1.1674 H   0  0  0  0  0  0  0  0  0  0  0  0
    8.6438    0.3254   -0.4457 H   0  0  0  0  0  0  0  0  0  0  0  0
    7.9077   -0.4774   -2.6760 H   0  0  0  0  0  0  0  0  0  0  0  0
    5.5003   -0.4123   -3.2784 H   0  0  0  0  0  0  0  0  0  0  0  0
    3.8435    0.4623   -1.6824 H   0  0  0  0  0  0  0  0  0  0  0  0
    0.0434   -0.2981    3.4885 H   0  0  0  0  0  0  0  0  0  0  0  0
    0.5228   -2.3457    4.7859 H   0  0  0  0  0  0  0  0  0  0  0  0
    0.7049   -4.6282    1.1374 H   0  0  0  0  0  0  0  0  0  0  0  0
    0.2323   -2.5875   -0.1718 H   0  0  0  0  0  0  0  0  0  0  0  0
  1  2  1  0
  2  3  1  0
  3  4  1  0
  4  5  2  0
  4  6  1  0
  6  7  2  0
  7  8  1  0
  8  9  2  3
  9 10  1  0
 10 11  1  0
 10 12  1  0
  7 13  1  0
 13 14  1  0
 14 15  1  0
 15 16  2  3
 16 17  1  0
 17 18  1  0
 18 19  2  0
 19 20  1  0
 20 21  2  0
 21 22  1  0
 22 23  2  0
 14 24  2  0
 24 25  1  0
 25 26  2  0
 26 27  1  0
 27 28  2  0
 28 29  1  0
 28 30  1  0
 30 31  2  0
 24  6  1  0
 31 25  1  0
 23 18  1  0
  1 32  1  0
  1 33  1  0
  1 34  1  0
  2 35  1  0
  2 36  1  0
  9 37  1  0
 11 38  1  0
 11 39  1  0
 11 40  1  0
 12 41  1  0
 12 42  1  0
 12 43  1  0
 15 44  1  0
 17 45  1  0
 19 46  1  0
 20 47  1  0
 21 48  1  0
 22 49  1  0
 23 50  1  0
 26 51  1  0
 27 52  1  0
 30 53  1  0
 31 54  1  0
M  END
$$$$
