
     RDKit          3D

 52 55  0  0  0  0  0  0  0  0999 V2000
    7.3897    1.1929    0.0790 C   0  0  0  0  0  0  0  0  0  0  0  0
    6.1727    0.2882    0.2217 C   0  0  0  0  0  0  0  0  0  0  0  0
    5.2058    0.3785   -0.9766 C   0  0  0  0  0  0  0  0  0  0  0  0
    5.8264   -0.0277   -2.3195 C   0  0  0  0  0  0  0  0  0  0  0  0
    3.8909   -0.2823   -0.6904 N   0  0  0  0  0  0  0  0  0  0  0  0
    2.8521    0.6152   -0.3866 C   0  0  0  0  0  0  0  0  0  0  0  0
    3.0263    1.8303   -0.2723 O   0  0  0  0  0  0  0  0  0  0  0  0
    1.4912    0.0426   -0.1839 C   0  0  0  0  0  0  0  0  0  0  0  0
    0.4823    0.9233   -0.0172 C   0  0  0  0  0  0  0  0  0  0  0  0
   -0.9363    0.6294    0.1998 C   0  0  0  0  0  0  0  0  0  0  0  0
   -1.4770    0.7273    1.4818 C   0  0  0  0  0  0  0  0  0  0  0  0
   -2.8390    0.4640    1.7051 C   0  0  0  0  0  0  0  0  0  0  0  0
   -3.6918    0.1300    0.6339 C   0  0  0  0  0  0  0  0  0  0  0  0
   -3.1363    0.0493   -0.6592 C   0  0  0  0  0  0  0  0  0  0  0  0
   -1.7669    0.2866   -0.8671 C   0  0  0  0  0  0  0  0  0  0  0  0
   -3.9971   -0.3333   -1.8361 C   0  0  0  0  0  0  0  0  0  0  0  0
   -5.4641   -0.0299   -1.5682 C   0  0  0  0  0  0  0  0  0  0  0  0
   -5.8739   -0.6291   -0.2322 C   0  0  0  0  0  0  0  0  0  0  0  0
   -5.0437   -0.1081    0.8455 N   0  0  0  0  0  0  0  0  0  0  0  0
   -5.6331    0.0763    2.1652 C   0  0  0  0  0  0  0  0  0  0  0  0
   -4.6421   -0.2730    3.2641 C   0  0  0  0  0  0  0  0  0  0  0  0
   -3.3852    0.5700    3.1057 C   0  0  0  0  0  0  0  0  0  0  0  0
    1.3128   -1.4171   -0.1594 C   0  0  0  0  0  0  0  0  0  0  0  0
    0.2537   -2.0075    0.0039 O   0  0  0  0  0  0  0  0  0  0  0  0
    2.4656   -2.1226   -0.3384 N   0  0  0  0  0  0  0  0  0  0  0  0
    3.7270   -1.6638   -0.6069 C   0  0  0  0  0  0  0  0  0  0  0  0
    4.8733   -2.8737   -0.7924 S   0  0  0  0  0  0  0  0  0  0  0  0
    8.0201    0.8848   -0.7604 H   0  0  0  0  0  0  0  0  0  0  0  0
    7.9996    1.1471    0.9871 H   0  0  0  0  0  0  0  0  0  0  0  0
    7.0905    2.2345   -0.0745 H   0  0  0  0  0  0  0  0  0  0  0  0
    6.5227   -0.7364    0.3748 H   0  0  0  0  0  0  0  0  0  0  0  0
    5.6368    0.5723    1.1361 H   0  0  0  0  0  0  0  0  0  0  0  0
    5.0084    1.4489   -1.1109 H   0  0  0  0  0  0  0  0  0  0  0  0
    6.3957   -0.9577   -2.2622 H   0  0  0  0  0  0  0  0  0  0  0  0
    6.5269    0.7424   -2.6622 H   0  0  0  0  0  0  0  0  0  0  0  0
    5.0569   -0.1349   -3.0915 H   0  0  0  0  0  0  0  0  0  0  0  0
    0.6827    1.9949   -0.0293 H   0  0  0  0  0  0  0  0  0  0  0  0
   -0.8399    0.9992    2.3202 H   0  0  0  0  0  0  0  0  0  0  0  0
   -1.3560    0.2036   -1.8702 H   0  0  0  0  0  0  0  0  0  0  0  0
   -3.6800    0.2136   -2.7319 H   0  0  0  0  0  0  0  0  0  0  0  0
   -3.8636   -1.4042   -2.0322 H   0  0  0  0  0  0  0  0  0  0  0  0
   -5.6225    1.0563   -1.5502 H   0  0  0  0  0  0  0  0  0  0  0  0
   -6.0848   -0.4361   -2.3743 H   0  0  0  0  0  0  0  0  0  0  0  0
   -6.9283   -0.3906   -0.0484 H   0  0  0  0  0  0  0  0  0  0  0  0
   -5.7904   -1.7225   -0.2594 H   0  0  0  0  0  0  0  0  0  0  0  0
   -6.5220   -0.5559    2.2782 H   0  0  0  0  0  0  0  0  0  0  0  0
   -5.9646    1.1168    2.2677 H   0  0  0  0  0  0  0  0  0  0  0  0
   -4.3863   -1.3391    3.2062 H   0  0  0  0  0  0  0  0  0  0  0  0
   -5.0898   -0.0988    4.2487 H   0  0  0  0  0  0  0  0  0  0  0  0
   -2.6373    0.2305    3.8320 H   0  0  0  0  0  0  0  0  0  0  0  0
   -3.6055    1.6232    3.3179 H   0  0  0  0  0  0  0  0  0  0  0  0
    2.3475   -3.1279   -0.3064 H   0  0  0  0  0  0  0  0  0  0  0  0
  1  2  1  0
  2  3  1  0
  3  4  1  0
  3  5  1  0
  5  6  1  0
  6  7  2  0
  6  8  1  0
  8  9  2  3
  9 10  1  0
 10 11  2  0
 11 12  1  0
 12 13  2  0
 13 14  1  0
 14 15  2  0
 14 16  1  0
 16 17  1  0
 17 18  1  0
 18 19  1  0
 19 20  1  0
 20 21  1  0
 21 22  1  0
  8 23  1  0
 23 24  2  0
 23 25  1  0
 25 26  1  0
 26 27  2  0
 26  5  1  0
 15 10  1  0
 22 12  1  0
 19 13  1  0
  1 28  1  0
  1 29  1  0
  1 30  1  0
  2 31  1  0
  2 32  1  0
  3 33  1  0
  4 34  1  0
  4 35  1  0
  4 36  1  0
  9 37  1  0
 11 38  1  0
 15 39  1  0
 16 40  1  0
 16 41  1  0
 17 42  1  0
 17 43  1  0
 18 44  1  0
 18 45  1  0
 20 46  1  0
 20 47  1  0
 21 48  1  0
 21 49  1  0
 22 50  1  0
 22 51  1  0
 25 52  1  0
M  END
$$$$
