
     RDKit          3D

 52 55  0  0  0  0  0  0  0  0999 V2000
    7.8724   -2.9844    0.3810 C   0  0  0  0  0  0  0  0  0  0  0  0
    7.6550   -1.5992   -0.2017 C   0  0  0  0  0  0  0  0  0  0  0  0
    6.2550   -1.2804   -0.2243 O   0  0  0  0  0  0  0  0  0  0  0  0
    5.7380   -0.7459    0.9233 C   0  0  0  0  0  0  0  0  0  0  0  0
    6.3970   -0.5646    1.9411 O   0  0  0  0  0  0  0  0  0  0  0  0
    4.3190   -0.4315    0.7777 C   0  0  0  0  0  0  0  0  0  0  0  0
    3.5585   -0.4902   -0.7610 S   0  0  0  0  0  0  0  0  0  0  0  0
    2.0764    0.0541   -0.1445 C   0  0  0  0  0  0  0  0  0  0  0  0
    1.0143    0.2358   -0.9590 N   0  0  0  0  0  0  0  0  0  0  0  0
   -0.0720    0.6761   -0.3911 C   0  0  0  0  0  0  0  0  0  0  0  0
   -1.3208    0.9178   -1.2144 C   0  0  0  0  0  0  0  0  0  0  0  0
   -1.3012    0.6635   -2.9300 S   0  0  0  0  0  0  0  0  0  0  0  0
   -0.7528   -1.0652   -3.0271 C   0  0  0  0  0  0  0  0  0  0  0  0
   -1.4612   -1.7525   -4.1630 C   0  0  0  0  0  0  0  0  0  0  0  0
   -1.0577   -1.8778   -5.3090 O   0  0  0  0  0  0  0  0  0  0  0  0
   -2.6668   -2.2492   -3.8126 O   0  0  0  0  0  0  0  0  0  0  0  0
   -2.4325    1.3714   -0.6176 C   0  0  0  0  0  0  0  0  0  0  0  0
   -2.4788    1.6005    0.8053 C   0  0  0  0  0  0  0  0  0  0  0  0
   -3.6958    2.0933    1.5219 C   0  0  0  0  0  0  0  0  0  0  0  0
   -3.6068    2.8104    2.5168 O   0  0  0  0  0  0  0  0  0  0  0  0
   -5.0381    1.7626    0.9893 C   0  0  0  0  0  0  0  0  0  0  0  0
   -5.9730    2.8036    0.9039 C   0  0  0  0  0  0  0  0  0  0  0  0
   -7.2543    2.5546    0.4146 C   0  0  0  0  0  0  0  0  0  0  0  0
   -7.6139    1.2626    0.0324 C   0  0  0  0  0  0  0  0  0  0  0  0
   -6.6968    0.2142    0.1420 C   0  0  0  0  0  0  0  0  0  0  0  0
   -5.4107    0.4649    0.6221 C   0  0  0  0  0  0  0  0  0  0  0  0
   -4.5279   -0.5710    0.7512 O   0  0  0  0  0  0  0  0  0  0  0  0
   -1.3726    1.4097    1.5387 C   0  0  0  0  0  0  0  0  0  0  0  0
   -0.1755    0.9518    0.9872 N   0  0  0  0  0  0  0  0  0  0  0  0
    0.9202    0.7682    1.8537 C   0  0  0  0  0  0  0  0  0  0  0  0
    0.8850    1.0017    3.0602 O   0  0  0  0  0  0  0  0  0  0  0  0
    2.1271    0.2712    1.2091 C   0  0  0  0  0  0  0  0  0  0  0  0
    3.4205   -0.0427    1.7731 C   0  0  0  0  0  0  0  0  0  0  0  0
    3.7572    0.0648    3.2313 C   0  0  0  0  0  0  0  0  0  0  0  0
    8.9288   -3.2664    0.3267 H   0  0  0  0  0  0  0  0  0  0  0  0
    7.2792   -3.7283   -0.1614 H   0  0  0  0  0  0  0  0  0  0  0  0
    7.5538   -3.0253    1.4277 H   0  0  0  0  0  0  0  0  0  0  0  0
    8.2268   -0.8376    0.3418 H   0  0  0  0  0  0  0  0  0  0  0  0
    8.0038   -1.5795   -1.2402 H   0  0  0  0  0  0  0  0  0  0  0  0
   -0.9534   -1.6198   -2.1034 H   0  0  0  0  0  0  0  0  0  0  0  0
    0.3246   -1.1121   -3.2187 H   0  0  0  0  0  0  0  0  0  0  0  0
   -3.0041   -2.6317   -4.6518 H   0  0  0  0  0  0  0  0  0  0  0  0
   -3.3244    1.5839   -1.2010 H   0  0  0  0  0  0  0  0  0  0  0  0
   -5.7016    3.8126    1.2168 H   0  0  0  0  0  0  0  0  0  0  0  0
   -7.9748    3.3666    0.3429 H   0  0  0  0  0  0  0  0  0  0  0  0
   -8.6182    1.0680   -0.3403 H   0  0  0  0  0  0  0  0  0  0  0  0
   -7.0092   -0.7837   -0.1471 H   0  0  0  0  0  0  0  0  0  0  0  0
   -4.9772   -1.4041    0.5199 H   0  0  0  0  0  0  0  0  0  0  0  0
   -1.3742    1.5973    2.6125 H   0  0  0  0  0  0  0  0  0  0  0  0
    4.1602    1.0584    3.4533 H   0  0  0  0  0  0  0  0  0  0  0  0
    2.8814   -0.1072    3.8626 H   0  0  0  0  0  0  0  0  0  0  0  0
    4.4923   -0.6892    3.5294 H   0  0  0  0  0  0  0  0  0  0  0  0
  1  2  1  0
  2  3  1  0
  3  4  1  0
  4  5  2  0
  4  6  1  0
  6  7  1  0
  7  8  1  0
  8  9  1  0
  9 10  2  0
 10 11  1  0
 11 12  1  0
 12 13  1  0
 13 14  1  0
 14 15  2  0
 14 16  1  0
 11 17  2  0
 17 18  1  0
 18 19  1  0
 19 20  2  0
 19 21  1  0
 21 22  2  0
 22 23  1  0
 23 24  2  0
 24 25  1  0
 25 26  2  0
 26 27  1  0
 18 28  2  0
 28 29  1  0
 29 30  1  0
 30 31  2  0
 30 32  1  0
 32 33  1  0
 33 34  1  0
 33  6  2  0
 32  8  2  0
 29 10  1  0
 26 21  1  0
  1 35  1  0
  1 36  1  0
  1 37  1  0
  2 38  1  0
  2 39  1  0
 13 40  1  0
 13 41  1  0
 16 42  1  0
 17 43  1  0
 22 44  1  0
 23 45  1  0
 24 46  1  0
 25 47  1  0
 27 48  1  0
 28 49  1  0
 34 50  1  0
 34 51  1  0
 34 52  1  0
M  END
$$$$
