
     RDKit          3D

 45 48  0  0  0  0  0  0  0  0999 V2000
    2.1524   -1.5741   -5.0058 O   0  0  0  0  0  0  0  0  0  0  0  0
    1.9184   -1.2488   -3.8556 C   0  0  0  0  0  0  0  0  0  0  0  0
    2.8912   -1.1734   -2.9352 O   0  0  0  0  0  0  0  0  0  0  0  0
    0.5812   -0.9098   -3.3522 C   0  0  0  0  0  0  0  0  0  0  0  0
    0.3308   -0.5521   -2.0824 C   0  0  0  0  0  0  0  0  0  0  0  0
   -0.9475   -0.2129   -1.5408 C   0  0  0  0  0  0  0  0  0  0  0  0
   -2.1469   -0.1914   -2.2181 C   0  0  0  0  0  0  0  0  0  0  0  0
   -3.1204    0.1890   -1.3182 N   0  0  0  0  0  0  0  0  0  0  0  0
   -4.5160    0.3523   -1.5538 C   0  0  0  0  0  0  0  0  0  0  0  0
   -5.0741    0.1243   -2.8196 C   0  0  0  0  0  0  0  0  0  0  0  0
   -6.4478    0.2930   -3.0199 C   0  0  0  0  0  0  0  0  0  0  0  0
   -7.2694    0.6878   -1.9655 C   0  0  0  0  0  0  0  0  0  0  0  0
   -6.7220    0.9161   -0.7052 C   0  0  0  0  0  0  0  0  0  0  0  0
   -5.3510    0.7498   -0.4972 C   0  0  0  0  0  0  0  0  0  0  0  0
   -2.5946    0.4131   -0.0885 N   0  0  0  0  0  0  0  0  0  0  0  0
   -1.2852    0.1716   -0.2199 C   0  0  0  0  0  0  0  0  0  0  0  0
   -0.3148    0.3231    1.0025 C   0  0  0  0  0  0  0  0  0  0  0  0
   -0.6839    0.7011    2.2776 C   0  0  0  0  0  0  0  0  0  0  0  0
    0.4972    0.7088    3.0598 C   0  0  0  0  0  0  0  0  0  0  0  0
    1.5296    0.3347    2.2224 C   0  0  0  0  0  0  0  0  0  0  0  0
    2.9699    0.1466    2.3877 C   0  0  0  0  0  0  0  0  0  0  0  0
    3.5793    0.3618    3.6350 C   0  0  0  0  0  0  0  0  0  0  0  0
    4.9579    0.1850    3.8059 C   0  0  0  0  0  0  0  0  0  0  0  0
    5.7432   -0.2124    2.7182 C   0  0  0  0  0  0  0  0  0  0  0  0
    7.1890   -0.3994    2.8911 N   0  0  0  0  0  4  0  0  0  0  0  0
    7.8474   -0.7519    1.9019 O   0  0  0  0  0  0  0  0  0  0  0  0
    7.6662   -0.1937    4.0162 O   0  0  0  0  0  1  0  0  0  0  0  0
    5.1587   -0.4325    1.4670 C   0  0  0  0  0  0  0  0  0  0  0  0
    3.7798   -0.2522    1.3098 C   0  0  0  0  0  0  0  0  0  0  0  0
    1.0318    0.1010    0.9721 O   0  0  0  0  0  0  0  0  0  0  0  0
    3.6976   -1.4261   -3.4320 H   0  0  0  0  0  0  0  0  0  0  0  0
   -0.1981   -0.9734   -4.1018 H   0  0  0  0  0  0  0  0  0  0  0  0
    1.1707   -0.5130   -1.3922 H   0  0  0  0  0  0  0  0  0  0  0  0
   -2.3848   -0.4109   -3.2466 H   0  0  0  0  0  0  0  0  0  0  0  0
   -4.4762   -0.1841   -3.6710 H   0  0  0  0  0  0  0  0  0  0  0  0
   -6.8786    0.1156   -4.0026 H   0  0  0  0  0  0  0  0  0  0  0  0
   -8.3367    0.8176   -2.1259 H   0  0  0  0  0  0  0  0  0  0  0  0
   -7.3609    1.2241    0.1186 H   0  0  0  0  0  0  0  0  0  0  0  0
   -4.9480    0.9345    0.4970 H   0  0  0  0  0  0  0  0  0  0  0  0
   -1.6897    0.9407    2.5948 H   0  0  0  0  0  0  0  0  0  0  0  0
    0.5762    0.9586    4.1081 H   0  0  0  0  0  0  0  0  0  0  0  0
    2.9879    0.6711    4.4943 H   0  0  0  0  0  0  0  0  0  0  0  0
    5.3963    0.3607    4.7864 H   0  0  0  0  0  0  0  0  0  0  0  0
    5.7522   -0.7418    0.6092 H   0  0  0  0  0  0  0  0  0  0  0  0
    3.3416   -0.4282    0.3281 H   0  0  0  0  0  0  0  0  0  0  0  0
  1  2  2  0
  2  3  1  0
  2  4  1  0
  4  5  2  3
  5  6  1  0
  6  7  2  0
  7  8  1  0
  8  9  1  0
  9 10  2  0
 10 11  1  0
 11 12  2  0
 12 13  1  0
 13 14  2  0
  8 15  1  0
 15 16  2  0
 16 17  1  0
 17 18  2  0
 18 19  1  0
 19 20  2  0
 20 21  1  0
 21 22  2  0
 22 23  1  0
 23 24  2  0
 24 25  1  0
 25 26  2  0
 25 27  1  0
 24 28  1  0
 28 29  2  0
 20 30  1  0
 16  6  1  0
 30 17  1  0
 14  9  1  0
 29 21  1  0
  3 31  1  0
  4 32  1  0
  5 33  1  0
  7 34  1  0
 10 35  1  0
 11 36  1  0
 12 37  1  0
 13 38  1  0
 14 39  1  0
 18 40  1  0
 19 41  1  0
 22 42  1  0
 23 43  1  0
 28 44  1  0
 29 45  1  0
M  CHG  2  25   1  27  -1
M  END
$$$$
