
     RDKit          3D

 35 36  0  0  0  0  0  0  0  0999 V2000
    4.0022    1.1096   -2.3954 C   0  0  0  0  0  0  0  0  0  0  0  0
    3.7439    1.7702   -1.0527 C   0  0  0  0  0  0  0  0  0  0  0  0
    3.6665    0.8047    0.0326 N   0  0  0  0  0  0  0  0  0  0  0  0
    4.8068    0.5349    0.7102 N   0  0  0  0  0  0  0  0  0  0  0  0
    4.4311   -0.3454    1.6342 C   0  0  0  0  0  0  0  0  0  0  0  0
    3.0636   -0.6279    1.5526 C   0  0  0  0  0  0  0  0  0  0  0  0
    2.2233   -1.8478    2.7024 Br  0  0  0  0  0  0  0  0  0  0  0  0
    2.5568    0.1250    0.5076 C   0  0  0  0  0  0  0  0  0  0  0  0
    1.2225    0.2438   -0.0604 C   0  0  0  0  0  0  0  0  0  0  0  0
    1.0332    0.7951   -1.1390 O   0  0  0  0  0  0  0  0  0  0  0  0
    0.2167   -0.2963    0.7181 N   0  0  0  0  0  0  0  0  0  0  0  0
   -1.1683   -0.3483    0.4532 C   0  0  0  0  0  0  0  0  0  0  0  0
   -1.7687    0.1548   -0.7020 C   0  0  0  0  0  0  0  0  0  0  0  0
   -3.1587    0.0763   -0.8834 C   0  0  0  0  0  0  0  0  0  0  0  0
   -3.7843    0.6002   -2.1433 C   0  0  0  0  0  0  0  0  0  0  0  0
   -3.9462   -0.5425    0.0938 C   0  0  0  0  0  0  0  0  0  0  0  0
   -3.3622   -1.0675    1.2506 C   0  0  0  0  0  0  0  0  0  0  0  0
   -4.2146   -1.6936    2.3145 C   0  0  0  0  0  0  0  0  0  0  0  0
   -1.9764   -0.9520    1.4271 C   0  0  0  0  0  0  0  0  0  0  0  0
    4.0561    1.8650   -3.1854 H   0  0  0  0  0  0  0  0  0  0  0  0
    3.2107    0.3998   -2.6548 H   0  0  0  0  0  0  0  0  0  0  0  0
    4.9491    0.5592   -2.3856 H   0  0  0  0  0  0  0  0  0  0  0  0
    2.8275    2.3663   -1.0597 H   0  0  0  0  0  0  0  0  0  0  0  0
    4.5614    2.4621   -0.8161 H   0  0  0  0  0  0  0  0  0  0  0  0
    5.1727   -0.7375    2.3183 H   0  0  0  0  0  0  0  0  0  0  0  0
    0.5045   -0.7077    1.5957 H   0  0  0  0  0  0  0  0  0  0  0  0
   -1.1793    0.6204   -1.4856 H   0  0  0  0  0  0  0  0  0  0  0  0
   -3.7722   -0.1741   -2.9165 H   0  0  0  0  0  0  0  0  0  0  0  0
   -4.8204    0.9081   -1.9677 H   0  0  0  0  0  0  0  0  0  0  0  0
   -3.2434    1.4785   -2.5111 H   0  0  0  0  0  0  0  0  0  0  0  0
   -5.0228   -0.6159   -0.0491 H   0  0  0  0  0  0  0  0  0  0  0  0
   -3.6643   -2.4783    2.8442 H   0  0  0  0  0  0  0  0  0  0  0  0
   -5.1047   -2.1598    1.8790 H   0  0  0  0  0  0  0  0  0  0  0  0
   -4.5304   -0.9336    3.0359 H   0  0  0  0  0  0  0  0  0  0  0  0
   -1.5316   -1.3459    2.3382 H   0  0  0  0  0  0  0  0  0  0  0  0
  1  2  1  0
  2  3  1  0
  3  4  1  0
  4  5  2  0
  5  6  1  0
  6  7  1  0
  6  8  2  0
  8  9  1  0
  9 10  2  0
  9 11  1  0
 11 12  1  0
 12 13  2  0
 13 14  1  0
 14 15  1  0
 14 16  2  0
 16 17  1  0
 17 18  1  0
 17 19  2  0
  8  3  1  0
 19 12  1  0
  1 20  1  0
  1 21  1  0
  1 22  1  0
  2 23  1  0
  2 24  1  0
  5 25  1  0
 11 26  1  0
 13 27  1  0
 15 28  1  0
 15 29  1  0
 15 30  1  0
 16 31  1  0
 18 32  1  0
 18 33  1  0
 18 34  1  0
 19 35  1  0
M  END
$$$$
