
     RDKit          3D

 50 53  0  0  0  0  0  0  0  0999 V2000
   -3.4779    3.3587   -0.8969 C   0  0  0  0  0  0  0  0  0  0  0  0
   -2.5833    2.6008   -0.0939 O   0  0  0  0  0  0  0  0  0  0  0  0
   -2.5433    1.2645   -0.4354 C   0  0  0  0  0  0  0  0  0  0  0  0
   -1.6571    0.5582    0.2425 N   0  0  0  0  0  0  0  0  0  0  0  0
   -1.6133   -0.7263   -0.0840 C   0  0  0  0  0  0  0  0  0  0  0  0
   -0.7023   -1.5976    0.5671 N   0  0  0  0  0  0  0  0  0  0  0  0
    0.5447   -1.1147    0.8954 N   0  0  0  0  0  0  0  0  0  0  0  0
    0.5689   -0.3542    1.9476 C   0  0  0  0  0  0  0  0  0  0  0  0
    1.7859    0.2450    2.4213 C   0  0  0  0  0  0  0  0  0  0  0  0
    2.0241    1.1034    3.4745 C   0  0  0  0  0  0  0  0  0  0  0  0
    3.4158    1.3751    3.4698 C   0  0  0  0  0  0  0  0  0  0  0  0
    3.9579    0.6597    2.4201 C   0  0  0  0  0  0  0  0  0  0  0  0
    5.2951    0.4838    1.8554 C   0  0  0  0  0  0  0  0  0  0  0  0
    5.4307    0.2691    0.4714 C   0  0  0  0  0  0  0  0  0  0  0  0
    6.6890    0.1233   -0.1275 C   0  0  0  0  0  0  0  0  0  0  0  0
    7.8481    0.1876    0.6429 C   0  0  0  0  0  0  0  0  0  0  0  0
    7.7513    0.3903    2.0163 C   0  0  0  0  0  0  0  0  0  0  0  0
    6.4820    0.5303    2.6009 C   0  0  0  0  0  0  0  0  0  0  0  0
    6.4470    0.6954    4.0355 N   0  0  0  0  0  4  0  0  0  0  0  0
    6.1304   -0.2902    4.7133 O   0  0  0  0  0  0  0  0  0  0  0  0
    6.7609    1.8089    4.4777 O   0  0  0  0  0  1  0  0  0  0  0  0
    2.9614   -0.0218    1.7796 O   0  0  0  0  0  0  0  0  0  0  0  0
   -2.4071   -1.2926   -0.9892 N   0  0  0  0  0  0  0  0  0  0  0  0
   -3.2768   -0.5032   -1.6110 C   0  0  0  0  0  0  0  0  0  0  0  0
   -4.0971   -1.0493   -2.5762 N   0  0  0  0  0  0  0  0  0  0  0  0
   -4.3029   -2.5004   -2.6207 C   0  0  0  0  0  0  0  0  0  0  0  0
   -5.8072   -2.8173   -2.6688 C   0  0  0  0  0  0  0  0  0  0  0  0
   -6.4954   -2.2231   -3.7799 O   0  0  0  0  0  0  0  0  0  0  0  0
   -5.9068   -0.9928   -4.2287 C   0  0  0  0  0  0  0  0  0  0  0  0
   -5.1732   -0.2194   -3.1225 C   0  0  0  0  0  0  0  0  0  0  0  0
   -3.3719    0.7960   -1.3607 N   0  0  0  0  0  0  0  0  0  0  0  0
   -3.4148    4.4022   -0.5731 H   0  0  0  0  0  0  0  0  0  0  0  0
   -3.1941    3.3220   -1.9546 H   0  0  0  0  0  0  0  0  0  0  0  0
   -4.5137    3.0302   -0.7565 H   0  0  0  0  0  0  0  0  0  0  0  0
   -0.6814   -2.4170   -0.0407 H   0  0  0  0  0  0  0  0  0  0  0  0
   -0.3478   -0.1398    2.5266 H   0  0  0  0  0  0  0  0  0  0  0  0
    1.2837    1.4941    4.1588 H   0  0  0  0  0  0  0  0  0  0  0  0
    3.9434    2.0266    4.1534 H   0  0  0  0  0  0  0  0  0  0  0  0
    4.5447    0.2187   -0.1623 H   0  0  0  0  0  0  0  0  0  0  0  0
    6.7574   -0.0400   -1.2013 H   0  0  0  0  0  0  0  0  0  0  0  0
    8.8220    0.0740    0.1723 H   0  0  0  0  0  0  0  0  0  0  0  0
    8.6535    0.4317    2.6227 H   0  0  0  0  0  0  0  0  0  0  0  0
   -3.8695   -3.0273   -1.7636 H   0  0  0  0  0  0  0  0  0  0  0  0
   -3.8193   -2.8835   -3.5269 H   0  0  0  0  0  0  0  0  0  0  0  0
   -5.9620   -3.8994   -2.7289 H   0  0  0  0  0  0  0  0  0  0  0  0
   -6.2974   -2.4684   -1.7522 H   0  0  0  0  0  0  0  0  0  0  0  0
   -6.7094   -0.3793   -4.6501 H   0  0  0  0  0  0  0  0  0  0  0  0
   -5.2171   -1.2357   -5.0458 H   0  0  0  0  0  0  0  0  0  0  0  0
   -4.7721    0.7075   -3.5490 H   0  0  0  0  0  0  0  0  0  0  0  0
   -5.8835    0.0362   -2.3262 H   0  0  0  0  0  0  0  0  0  0  0  0
  1  2  1  0
  2  3  1  0
  3  4  2  0
  4  5  1  0
  5  6  1  0
  6  7  1  0
  7  8  2  3
  8  9  1  0
  9 10  2  0
 10 11  1  0
 11 12  2  0
 12 13  1  0
 13 14  2  0
 14 15  1  0
 15 16  2  0
 16 17  1  0
 17 18  2  0
 18 19  1  0
 19 20  2  0
 19 21  1  0
 12 22  1  0
  5 23  2  0
 23 24  1  0
 24 25  1  0
 25 26  1  0
 26 27  1  0
 27 28  1  0
 28 29  1  0
 29 30  1  0
 24 31  2  0
 31  3  1  0
 22  9  1  0
 30 25  1  0
 18 13  1  0
  1 32  1  0
  1 33  1  0
  1 34  1  0
  6 35  1  0
  8 36  1  0
 10 37  1  0
 11 38  1  0
 14 39  1  0
 15 40  1  0
 16 41  1  0
 17 42  1  0
 26 43  1  0
 26 44  1  0
 27 45  1  0
 27 46  1  0
 29 47  1  0
 29 48  1  0
 30 49  1  0
 30 50  1  0
M  CHG  2  19   1  21  -1
M  END
$$$$
