
     RDKit          3D

 40 43  0  0  0  0  0  0  0  0999 V2000
   -3.1604   -0.2632   -4.0430 O   0  0  0  0  0  0  0  0  0  0  0  0
   -3.8148   -0.0564   -3.0348 C   0  0  0  0  0  0  0  0  0  0  0  0
   -5.0721    0.5026   -2.9770 N   0  0  0  0  0  0  0  0  0  0  0  0
   -5.3820    0.5039   -1.7253 C   0  0  0  0  0  0  0  0  0  0  0  0
   -6.6303    0.9957   -1.1104 C   0  0  0  0  0  0  0  0  0  0  0  0
   -6.7633    0.9166    0.2244 C   0  0  0  0  0  0  0  0  0  0  0  0
   -5.7300    0.3685    1.0879 C   0  0  0  0  0  0  0  0  0  0  0  0
   -4.5720   -0.0971    0.5910 C   0  0  0  0  0  0  0  0  0  0  0  0
   -4.3618   -0.0488   -0.8264 C   0  0  0  0  0  0  0  0  0  0  0  0
   -3.3745   -0.3904   -1.6544 C   0  0  0  0  0  0  0  0  0  0  0  0
   -2.1432   -0.9773   -1.2999 C   0  0  0  0  0  0  0  0  0  0  0  0
   -0.6431   -0.2534   -1.7574 S   0  0  0  0  0  0  0  0  0  0  0  0
    0.1898   -1.4888   -0.9311 C   0  0  0  0  0  0  0  0  0  0  0  0
    1.6373   -1.6160   -0.9045 N   0  0  0  0  0  0  0  0  0  0  0  0
    2.3186   -0.6787    0.3408 S   0  0  0  0  0  6  0  0  0  0  0  0
    1.5602    0.5440    0.4976 O   0  0  0  0  0  0  0  0  0  0  0  0
    2.5232   -1.6014    1.4388 O   0  0  0  0  0  0  0  0  0  0  0  0
    3.9045   -0.2986   -0.4110 C   0  0  0  0  0  0  0  0  0  0  0  0
    4.7345    0.5104    0.5502 C   0  0  0  0  0  0  0  0  0  0  0  0
    4.6593    1.9108    0.5513 C   0  0  0  0  0  0  0  0  0  0  0  0
    5.4262    2.6602    1.4446 C   0  0  0  0  0  0  0  0  0  0  0  0
    6.2733    2.0194    2.3461 C   0  0  0  0  0  0  0  0  0  0  0  0
    6.3520    0.6285    2.3584 C   0  0  0  0  0  0  0  0  0  0  0  0
    5.5863   -0.1237    1.4663 C   0  0  0  0  0  0  0  0  0  0  0  0
   -0.5333   -2.4458   -0.4095 N   0  0  0  0  0  0  0  0  0  0  0  0
   -1.8538   -2.1329   -0.5935 C   0  0  0  0  0  0  0  0  0  0  0  0
   -2.8161   -2.9351   -0.1157 O   0  0  0  0  0  0  0  0  0  0  0  0
   -7.3930    1.4031   -1.7610 H   0  0  0  0  0  0  0  0  0  0  0  0
   -7.6721    1.2718    0.7031 H   0  0  0  0  0  0  0  0  0  0  0  0
   -5.9232    0.3472    2.1571 H   0  0  0  0  0  0  0  0  0  0  0  0
   -3.8038   -0.5041    1.2398 H   0  0  0  0  0  0  0  0  0  0  0  0
    1.8417   -2.5933   -0.6852 H   0  0  0  0  0  0  0  0  0  0  0  0
    3.7183    0.2589   -1.3344 H   0  0  0  0  0  0  0  0  0  0  0  0
    4.4007   -1.2422   -0.6588 H   0  0  0  0  0  0  0  0  0  0  0  0
    3.9944    2.4309   -0.1362 H   0  0  0  0  0  0  0  0  0  0  0  0
    5.3574    3.7451    1.4413 H   0  0  0  0  0  0  0  0  0  0  0  0
    6.8666    2.6041    3.0444 H   0  0  0  0  0  0  0  0  0  0  0  0
    7.0059    0.1285    3.0684 H   0  0  0  0  0  0  0  0  0  0  0  0
    5.6542   -1.2094    1.5015 H   0  0  0  0  0  0  0  0  0  0  0  0
   -2.3615   -3.6799    0.3166 H   0  0  0  0  0  0  0  0  0  0  0  0
  1  2  2  0
  2  3  1  0
  3  4  2  0
  4  5  1  0
  5  6  2  0
  6  7  1  0
  7  8  2  0
  8  9  1  0
  9 10  2  0
 10 11  1  0
 11 12  1  0
 12 13  1  0
 13 14  1  0
 14 15  1  0
 15 16  2  0
 15 17  2  0
 15 18  1  0
 18 19  1  0
 19 20  2  0
 20 21  1  0
 21 22  2  0
 22 23  1  0
 23 24  2  0
 13 25  2  0
 25 26  1  0
 26 27  1  0
 10  2  1  0
 26 11  2  0
  9  4  1  0
 24 19  1  0
  5 28  1  0
  6 29  1  0
  7 30  1  0
  8 31  1  0
 14 32  1  0
 18 33  1  0
 18 34  1  0
 20 35  1  0
 21 36  1  0
 22 37  1  0
 23 38  1  0
 24 39  1  0
 27 40  1  0
M  END
$$$$
