
     RDKit          3D

 46 49  0  0  0  0  0  0  0  0999 V2000
    6.4441   -0.4632   -0.4896 N   0  0  0  0  0  0  0  0  0  0  0  0
    5.9936   -0.0337    1.0768 S   0  0  0  0  0  6  0  0  0  0  0  0
    6.3573   -1.1545    1.9132 O   0  0  0  0  0  0  0  0  0  0  0  0
    6.4757    1.3052    1.3209 O   0  0  0  0  0  0  0  0  0  0  0  0
    4.2293    0.0130    0.9331 C   0  0  0  0  0  0  0  0  0  0  0  0
    3.4927   -1.1597    1.0789 C   0  0  0  0  0  0  0  0  0  0  0  0
    2.1005   -1.1121    0.9473 C   0  0  0  0  0  0  0  0  0  0  0  0
    1.4133    0.0882    0.6848 C   0  0  0  0  0  0  0  0  0  0  0  0
    0.0259    0.0974    0.5515 N   0  0  0  0  0  0  0  0  0  0  0  0
   -0.6968   -1.0514    0.7020 N   0  0  0  0  0  0  0  0  0  0  0  0
   -1.9506   -0.7160    0.7500 C   0  0  0  0  0  0  0  0  0  0  0  0
   -3.0478   -1.7028    0.8896 C   0  0  0  0  0  0  0  0  0  0  0  0
   -4.3846   -1.3021    0.9972 C   0  0  0  0  0  0  0  0  0  0  0  0
   -5.3934   -2.2601    1.1298 C   0  0  0  0  0  0  0  0  0  0  0  0
   -5.0725   -3.6174    1.1555 C   0  0  0  0  0  0  0  0  0  0  0  0
   -3.7434   -4.0218    1.0479 C   0  0  0  0  0  0  0  0  0  0  0  0
   -2.7325   -3.0678    0.9164 C   0  0  0  0  0  0  0  0  0  0  0  0
   -2.2170    0.7626    0.6925 C   0  0  0  0  0  0  0  0  0  0  0  0
   -0.8140    1.2863    0.3816 C   0  0  0  0  0  0  0  0  0  0  0  0
   -0.7528    1.8810   -1.0179 C   0  0  0  0  0  0  0  0  0  0  0  0
   -0.9422    3.2630   -1.1878 C   0  0  0  0  0  0  0  0  0  0  0  0
   -0.9151    3.8355   -2.4611 C   0  0  0  0  0  0  0  0  0  0  0  0
   -0.7015    3.0354   -3.5812 C   0  0  0  0  0  0  0  0  0  0  0  0
   -0.5196    1.6632   -3.4303 C   0  0  0  0  0  0  0  0  0  0  0  0
   -0.5508    1.0877   -2.1590 C   0  0  0  0  0  0  0  0  0  0  0  0
    2.1913    1.2517    0.5603 C   0  0  0  0  0  0  0  0  0  0  0  0
    3.5859    1.2233    0.6844 C   0  0  0  0  0  0  0  0  0  0  0  0
    6.8863   -1.3841   -0.4634 H   0  0  0  0  0  0  0  0  0  0  0  0
    5.6671   -0.4304   -1.1494 H   0  0  0  0  0  0  0  0  0  0  0  0
    3.9797   -2.1078    1.2906 H   0  0  0  0  0  0  0  0  0  0  0  0
    1.5370   -2.0370    1.0568 H   0  0  0  0  0  0  0  0  0  0  0  0
   -4.6682   -0.2532    0.9800 H   0  0  0  0  0  0  0  0  0  0  0  0
   -6.4320   -1.9479    1.2115 H   0  0  0  0  0  0  0  0  0  0  0  0
   -5.8594   -4.3607    1.2580 H   0  0  0  0  0  0  0  0  0  0  0  0
   -3.4912   -5.0795    1.0657 H   0  0  0  0  0  0  0  0  0  0  0  0
   -1.6985   -3.3966    0.8336 H   0  0  0  0  0  0  0  0  0  0  0  0
   -2.5506    1.0981    1.6801 H   0  0  0  0  0  0  0  0  0  0  0  0
   -2.9677    1.0159   -0.0606 H   0  0  0  0  0  0  0  0  0  0  0  0
   -0.5420    2.0506    1.1221 H   0  0  0  0  0  0  0  0  0  0  0  0
   -1.1126    3.9070   -0.3277 H   0  0  0  0  0  0  0  0  0  0  0  0
   -1.0611    4.9056   -2.5808 H   0  0  0  0  0  0  0  0  0  0  0  0
   -0.6781    3.4815   -4.5714 H   0  0  0  0  0  0  0  0  0  0  0  0
   -0.3545    1.0371   -4.3034 H   0  0  0  0  0  0  0  0  0  0  0  0
   -0.4084    0.0123   -2.0623 H   0  0  0  0  0  0  0  0  0  0  0  0
    1.7264    2.2117    0.3532 H   0  0  0  0  0  0  0  0  0  0  0  0
    4.1529    2.1466    0.5804 H   0  0  0  0  0  0  0  0  0  0  0  0
  1  2  1  0
  2  3  2  0
  2  4  2  0
  2  5  1  0
  5  6  2  0
  6  7  1  0
  7  8  2  0
  8  9  1  0
  9 10  1  0
 10 11  2  0
 11 12  1  0
 12 13  2  0
 13 14  1  0
 14 15  2  0
 15 16  1  0
 16 17  2  0
 11 18  1  0
 18 19  1  0
 19 20  1  0
 20 21  2  0
 21 22  1  0
 22 23  2  0
 23 24  1  0
 24 25  2  0
  8 26  1  0
 26 27  2  0
 27  5  1  0
 19  9  1  0
 25 20  1  0
 17 12  1  0
  1 28  1  0
  1 29  1  0
  6 30  1  0
  7 31  1  0
 13 32  1  0
 14 33  1  0
 15 34  1  0
 16 35  1  0
 17 36  1  0
 18 37  1  0
 18 38  1  0
 19 39  1  0
 21 40  1  0
 22 41  1  0
 23 42  1  0
 24 43  1  0
 25 44  1  0
 26 45  1  0
 27 46  1  0
M  END
$$$$
