
     RDKit          3D

 68 71  0  0  0  0  0  0  0  0999 V2000
    7.5443    0.7876   -6.4237 C   0  0  0  0  0  0  0  0  0  0  0  0
    6.2709    1.4168   -6.3551 O   0  0  0  0  0  0  0  0  0  0  0  0
    5.3581    0.8729   -5.4946 C   0  0  0  0  0  0  0  0  0  0  0  0
    4.1316    1.5405   -5.4479 C   0  0  0  0  0  0  0  0  0  0  0  0
    3.1064    1.0935   -4.6108 C   0  0  0  0  0  0  0  0  0  0  0  0
    3.3019   -0.0332   -3.8090 C   0  0  0  0  0  0  0  0  0  0  0  0
    2.2375   -0.5050   -2.9196 C   0  0  0  0  0  0  0  0  0  0  0  0
    1.9811    0.0011   -1.6966 C   0  0  0  0  0  0  0  0  0  0  0  0
    2.7410    1.0668   -1.1376 C   0  0  0  0  0  0  0  0  0  0  0  0
    3.3290    1.9342   -0.6371 N   0  0  0  0  0  0  0  0  0  0  0  0
    0.8318   -0.5976   -0.9311 C   0  0  0  0  0  0  0  0  0  0  0  0
    0.1171   -1.4466   -1.4577 O   0  0  0  0  0  0  0  0  0  0  0  0
    0.6675   -0.1126    0.3458 N   0  0  0  0  0  0  0  0  0  0  0  0
   -0.3158   -0.4580    1.2999 C   0  0  0  0  0  0  0  0  0  0  0  0
   -1.3092   -1.4160    1.1066 C   0  0  0  0  0  0  0  0  0  0  0  0
   -2.2415   -1.6412    2.1245 C   0  0  0  0  0  0  0  0  0  0  0  0
   -3.5047   -2.8737    1.9192 S   0  0  0  0  0  6  0  0  0  0  0  0
   -3.6863   -3.5114    3.2068 O   0  0  0  0  0  0  0  0  0  0  0  0
   -3.2134   -3.6552    0.7369 O   0  0  0  0  0  0  0  0  0  0  0  0
   -4.8962   -1.9355    1.5908 N   0  0  0  0  0  0  0  0  0  0  0  0
   -4.8200   -1.0822    0.3698 C   0  0  0  0  0  0  0  0  0  0  0  0
   -6.1799   -0.4625    0.0701 C   0  0  0  0  0  0  0  0  0  0  0  0
   -7.2259   -1.5316   -0.2392 C   0  0  0  0  0  0  0  0  0  0  0  0
   -6.8967   -2.8693    0.4188 C   0  0  0  0  0  0  0  0  0  0  0  0
   -6.1830   -2.6777    1.7501 C   0  0  0  0  0  0  0  0  0  0  0  0
   -2.1810   -0.9381    3.3321 C   0  0  0  0  0  0  0  0  0  0  0  0
   -1.1796    0.0120    3.5280 C   0  0  0  0  0  0  0  0  0  0  0  0
   -0.2394    0.2627    2.5203 C   0  0  0  0  0  0  0  0  0  0  0  0
    0.8154    1.1960    2.6807 N   0  0  0  0  0  0  0  0  0  0  0  0
    1.8923    0.6895    3.5570 C   0  0  0  0  0  0  0  0  0  0  0  0
    2.2846    1.6988    4.6340 C   0  0  0  0  0  0  0  0  0  0  0  0
    2.5786    3.0776    4.0475 C   0  0  0  0  0  0  0  0  0  0  0  0
    1.5697    3.4957    2.9751 C   0  0  0  0  0  0  0  0  0  0  0  0
    0.3560    2.5714    2.9274 C   0  0  0  0  0  0  0  0  0  0  0  0
    4.5261   -0.7063   -3.8556 C   0  0  0  0  0  0  0  0  0  0  0  0
    5.5515   -0.2542   -4.6949 C   0  0  0  0  0  0  0  0  0  0  0  0
    8.0561    0.8253   -5.4564 H   0  0  0  0  0  0  0  0  0  0  0  0
    7.4565   -0.2421   -6.7858 H   0  0  0  0  0  0  0  0  0  0  0  0
    8.1530    1.3425   -7.1438 H   0  0  0  0  0  0  0  0  0  0  0  0
    3.9743    2.4191   -6.0697 H   0  0  0  0  0  0  0  0  0  0  0  0
    2.1620    1.6322   -4.5972 H   0  0  0  0  0  0  0  0  0  0  0  0
    1.6437   -1.3234   -3.3247 H   0  0  0  0  0  0  0  0  0  0  0  0
    1.2829    0.6110    0.7197 H   0  0  0  0  0  0  0  0  0  0  0  0
   -1.3736   -1.9909    0.1886 H   0  0  0  0  0  0  0  0  0  0  0  0
   -4.1058   -0.2719    0.5464 H   0  0  0  0  0  0  0  0  0  0  0  0
   -4.4750   -1.6647   -0.4921 H   0  0  0  0  0  0  0  0  0  0  0  0
   -6.1052    0.2356   -0.7714 H   0  0  0  0  0  0  0  0  0  0  0  0
   -6.5090    0.1242    0.9371 H   0  0  0  0  0  0  0  0  0  0  0  0
   -7.3078   -1.6779   -1.3225 H   0  0  0  0  0  0  0  0  0  0  0  0
   -8.2059   -1.1766    0.0992 H   0  0  0  0  0  0  0  0  0  0  0  0
   -6.2594   -3.4579   -0.2534 H   0  0  0  0  0  0  0  0  0  0  0  0
   -7.8180   -3.4458    0.5607 H   0  0  0  0  0  0  0  0  0  0  0  0
   -6.0249   -3.6568    2.2126 H   0  0  0  0  0  0  0  0  0  0  0  0
   -6.8126   -2.1074    2.4436 H   0  0  0  0  0  0  0  0  0  0  0  0
   -2.9032   -1.1349    4.1223 H   0  0  0  0  0  0  0  0  0  0  0  0
   -1.1280    0.5396    4.4760 H   0  0  0  0  0  0  0  0  0  0  0  0
    2.7633    0.4770    2.9268 H   0  0  0  0  0  0  0  0  0  0  0  0
    1.6237   -0.2567    4.0435 H   0  0  0  0  0  0  0  0  0  0  0  0
    3.1598    1.3363    5.1866 H   0  0  0  0  0  0  0  0  0  0  0  0
    1.4699    1.7857    5.3645 H   0  0  0  0  0  0  0  0  0  0  0  0
    2.5905    3.8169    4.8579 H   0  0  0  0  0  0  0  0  0  0  0  0
    3.5841    3.0838    3.6107 H   0  0  0  0  0  0  0  0  0  0  0  0
    2.0689    3.4864    1.9970 H   0  0  0  0  0  0  0  0  0  0  0  0
    1.2486    4.5293    3.1486 H   0  0  0  0  0  0  0  0  0  0  0  0
   -0.2986    2.8925    2.1090 H   0  0  0  0  0  0  0  0  0  0  0  0
   -0.2134    2.6531    3.8612 H   0  0  0  0  0  0  0  0  0  0  0  0
    4.6966   -1.5876   -3.2405 H   0  0  0  0  0  0  0  0  0  0  0  0
    6.4862   -0.8053   -4.6986 H   0  0  0  0  0  0  0  0  0  0  0  0
  1  2  1  0
  2  3  1  0
  3  4  2  0
  4  5  1  0
  5  6  2  0
  6  7  1  0
  7  8  2  3
  8  9  1  0
  9 10  3  0
  8 11  1  0
 11 12  2  0
 11 13  1  0
 13 14  1  0
 14 15  2  0
 15 16  1  0
 16 17  1  0
 17 18  2  0
 17 19  2  0
 17 20  1  0
 20 21  1  0
 21 22  1  0
 22 23  1  0
 23 24  1  0
 24 25  1  0
 16 26  2  0
 26 27  1  0
 27 28  2  0
 28 29  1  0
 29 30  1  0
 30 31  1  0
 31 32  1  0
 32 33  1  0
 33 34  1  0
  6 35  1  0
 35 36  2  0
 36  3  1  0
 28 14  1  0
 34 29  1  0
 25 20  1  0
  1 37  1  0
  1 38  1  0
  1 39  1  0
  4 40  1  0
  5 41  1  0
  7 42  1  0
 13 43  1  0
 15 44  1  0
 21 45  1  0
 21 46  1  0
 22 47  1  0
 22 48  1  0
 23 49  1  0
 23 50  1  0
 24 51  1  0
 24 52  1  0
 25 53  1  0
 25 54  1  0
 26 55  1  0
 27 56  1  0
 30 57  1  0
 30 58  1  0
 31 59  1  0
 31 60  1  0
 32 61  1  0
 32 62  1  0
 33 63  1  0
 33 64  1  0
 34 65  1  0
 34 66  1  0
 35 67  1  0
 36 68  1  0
M  END
$$$$
