
     RDKit          3D

 43 45  0  0  0  0  0  0  0  0999 V2000
    6.2374   -1.3590   -1.7950 C   0  0  0  0  0  0  0  0  0  0  0  0
    5.4272   -1.4653   -0.5130 C   0  0  0  0  0  0  0  0  0  0  0  0
    4.2635   -0.4748   -0.5023 C   0  0  0  0  0  0  0  0  0  0  0  0
    3.4501   -0.5895    0.7890 C   0  0  0  0  0  0  0  0  0  0  0  0
    2.3505    0.3701    0.8476 N   0  0  0  0  0  0  0  0  0  0  0  0
    1.1498    0.0666    0.0879 C   0  0  0  0  0  0  0  0  0  0  0  0
    0.0068    0.9712    0.4049 C   0  0  0  0  0  0  0  0  0  0  0  0
   -1.3178    0.6604    0.0814 C   0  0  0  0  0  0  0  0  0  0  0  0
   -2.3175    1.5993    0.3416 C   0  0  0  0  0  0  0  0  0  0  0  0
   -3.7383    1.3646    0.0222 C   0  0  0  0  0  0  0  0  0  0  0  0
   -4.4009    2.2878   -0.4486 O   0  0  0  0  0  0  0  0  0  0  0  0
   -4.3952    0.0483    0.2208 C   0  0  0  0  0  0  0  0  0  0  0  0
   -3.9616   -0.8414    1.2098 C   0  0  0  0  0  0  0  0  0  0  0  0
   -4.6014   -2.0696    1.3529 C   0  0  0  0  0  0  0  0  0  0  0  0
   -4.1746   -2.9219    2.2934 F   0  0  0  0  0  0  0  0  0  0  0  0
   -5.6718   -2.4282    0.5411 C   0  0  0  0  0  0  0  0  0  0  0  0
   -6.1261   -1.5357   -0.4275 C   0  0  0  0  0  0  0  0  0  0  0  0
   -5.4983   -0.2996   -0.5762 C   0  0  0  0  0  0  0  0  0  0  0  0
   -6.0181    0.5336   -1.5298 O   0  0  0  0  0  0  0  0  0  0  0  0
   -1.9411    2.8301    0.8624 C   0  0  0  0  0  0  0  0  0  0  0  0
   -0.6640    3.1526    1.1814 N   0  0  0  0  0  0  0  0  0  0  0  0
    0.2753    2.2138    0.9532 C   0  0  0  0  0  0  0  0  0  0  0  0
    1.5767    2.5268    1.2902 N   0  0  0  0  0  0  0  0  0  0  0  0
    2.6200    1.6551    1.2812 C   0  0  0  0  0  0  0  0  0  0  0  0
    3.7250    2.0184    1.6785 O   0  0  0  0  0  0  0  0  0  0  0  0
    7.0644   -2.0759   -1.7813 H   0  0  0  0  0  0  0  0  0  0  0  0
    5.6163   -1.5735   -2.6706 H   0  0  0  0  0  0  0  0  0  0  0  0
    6.6595   -0.3556   -1.9103 H   0  0  0  0  0  0  0  0  0  0  0  0
    6.0844   -1.2772    0.3440 H   0  0  0  0  0  0  0  0  0  0  0  0
    5.0463   -2.4882   -0.4119 H   0  0  0  0  0  0  0  0  0  0  0  0
    4.6473    0.5468   -0.6118 H   0  0  0  0  0  0  0  0  0  0  0  0
    3.6162   -0.6612   -1.3675 H   0  0  0  0  0  0  0  0  0  0  0  0
    3.0322   -1.5971    0.8970 H   0  0  0  0  0  0  0  0  0  0  0  0
    4.1070   -0.4221    1.6511 H   0  0  0  0  0  0  0  0  0  0  0  0
    0.8677   -0.9693    0.3081 H   0  0  0  0  0  0  0  0  0  0  0  0
    1.3897    0.1519   -0.9779 H   0  0  0  0  0  0  0  0  0  0  0  0
   -1.5512   -0.2903   -0.3907 H   0  0  0  0  0  0  0  0  0  0  0  0
   -3.1491   -0.6043    1.8887 H   0  0  0  0  0  0  0  0  0  0  0  0
   -6.1528   -3.3923    0.6752 H   0  0  0  0  0  0  0  0  0  0  0  0
   -6.9727   -1.7942   -1.0586 H   0  0  0  0  0  0  0  0  0  0  0  0
   -5.6341    1.4295   -1.3933 H   0  0  0  0  0  0  0  0  0  0  0  0
   -2.6721    3.6140    1.0479 H   0  0  0  0  0  0  0  0  0  0  0  0
    1.7453    3.4450    1.6731 H   0  0  0  0  0  0  0  0  0  0  0  0
  1  2  1  0
  2  3  1  0
  3  4  1  0
  4  5  1  0
  5  6  1  0
  6  7  1  0
  7  8  2  0
  8  9  1  0
  9 10  1  0
 10 11  2  0
 10 12  1  0
 12 13  2  0
 13 14  1  0
 14 15  1  0
 14 16  2  0
 16 17  1  0
 17 18  2  0
 18 19  1  0
  9 20  2  0
 20 21  1  0
 21 22  2  0
 22 23  1  0
 23 24  1  0
 24 25  2  0
 24  5  1  0
 22  7  1  0
 18 12  1  0
  1 26  1  0
  1 27  1  0
  1 28  1  0
  2 29  1  0
  2 30  1  0
  3 31  1  0
  3 32  1  0
  4 33  1  0
  4 34  1  0
  6 35  1  0
  6 36  1  0
  8 37  1  0
 13 38  1  0
 16 39  1  0
 17 40  1  0
 19 41  1  0
 20 42  1  0
 23 43  1  0
M  END
$$$$
