
     RDKit          3D

 41 44  0  0  0  0  0  0  0  0999 V2000
    5.4433   -1.4879   -2.8781 Cl  0  0  0  0  0  0  0  0  0  0  0  0
    4.3244   -1.0651   -1.6417 C   0  0  0  0  0  0  0  0  0  0  0  0
    4.2844    0.2421   -1.1623 C   0  0  0  0  0  0  0  0  0  0  0  0
    3.3756    0.5880   -0.1594 C   0  0  0  0  0  0  0  0  0  0  0  0
    2.4982   -0.3721    0.3676 C   0  0  0  0  0  0  0  0  0  0  0  0
    1.5048    0.0008    1.4425 C   0  0  0  0  0  0  0  0  0  0  0  0
    0.1360   -0.0505    0.9571 N   0  0  0  0  0  0  0  0  0  0  0  0
   -0.6654   -1.0781    1.3078 N   0  0  0  0  0  0  0  0  0  0  0  0
   -1.7896   -0.8024    0.6279 C   0  0  0  0  0  0  0  0  0  0  0  0
   -2.9866   -1.6382    0.6508 C   0  0  0  0  0  0  0  0  0  0  0  0
   -3.0321   -2.8157    1.4120 C   0  0  0  0  0  0  0  0  0  0  0  0
   -4.1820   -3.6100    1.4276 C   0  0  0  0  0  0  0  0  0  0  0  0
   -5.2985   -3.2355    0.6823 C   0  0  0  0  0  0  0  0  0  0  0  0
   -5.2677   -2.0683   -0.0784 C   0  0  0  0  0  0  0  0  0  0  0  0
   -4.1180   -1.2740   -0.0940 C   0  0  0  0  0  0  0  0  0  0  0  0
   -1.7189    0.3588   -0.1097 N   0  0  0  0  0  0  0  0  0  0  0  0
   -0.5119    0.8303    0.1285 C   0  0  0  0  0  0  0  0  0  0  0  0
    0.0620    2.0467   -0.4290 C   0  0  0  0  0  0  0  0  0  0  0  0
    0.3249    2.1244   -1.8016 C   0  0  0  0  0  0  0  0  0  0  0  0
    0.8973    3.2753   -2.3460 C   0  0  0  0  0  0  0  0  0  0  0  0
    1.1989    4.3598   -1.5235 C   0  0  0  0  0  0  0  0  0  0  0  0
    0.9222    4.2986   -0.1583 C   0  0  0  0  0  0  0  0  0  0  0  0
    0.3518    3.1469    0.3880 C   0  0  0  0  0  0  0  0  0  0  0  0
    2.5532   -1.6860   -0.1252 C   0  0  0  0  0  0  0  0  0  0  0  0
    3.4630   -2.0308   -1.1270 C   0  0  0  0  0  0  0  0  0  0  0  0
    4.9538    0.9968   -1.5668 H   0  0  0  0  0  0  0  0  0  0  0  0
    3.3534    1.6168    0.1957 H   0  0  0  0  0  0  0  0  0  0  0  0
    1.5958   -0.6903    2.2892 H   0  0  0  0  0  0  0  0  0  0  0  0
    1.6847    1.0073    1.8341 H   0  0  0  0  0  0  0  0  0  0  0  0
   -2.1686   -3.1211    1.9993 H   0  0  0  0  0  0  0  0  0  0  0  0
   -4.2036   -4.5197    2.0218 H   0  0  0  0  0  0  0  0  0  0  0  0
   -6.1927   -3.8532    0.6944 H   0  0  0  0  0  0  0  0  0  0  0  0
   -6.1369   -1.7736   -0.6606 H   0  0  0  0  0  0  0  0  0  0  0  0
   -4.1082   -0.3650   -0.6927 H   0  0  0  0  0  0  0  0  0  0  0  0
    0.0864    1.2842   -2.4512 H   0  0  0  0  0  0  0  0  0  0  0  0
    1.1008    3.3264   -3.4127 H   0  0  0  0  0  0  0  0  0  0  0  0
    1.6373    5.2587   -1.9502 H   0  0  0  0  0  0  0  0  0  0  0  0
    1.1398    5.1528    0.4782 H   0  0  0  0  0  0  0  0  0  0  0  0
    0.1203    3.1218    1.4504 H   0  0  0  0  0  0  0  0  0  0  0  0
    1.8782   -2.4483    0.2636 H   0  0  0  0  0  0  0  0  0  0  0  0
    3.4904   -3.0505   -1.5021 H   0  0  0  0  0  0  0  0  0  0  0  0
  1  2  1  0
  2  3  2  0
  3  4  1  0
  4  5  2  0
  5  6  1  0
  6  7  1  0
  7  8  1  0
  8  9  2  0
  9 10  1  0
 10 11  2  0
 11 12  1  0
 12 13  2  0
 13 14  1  0
 14 15  2  0
  9 16  1  0
 16 17  2  0
 17 18  1  0
 18 19  2  0
 19 20  1  0
 20 21  2  0
 21 22  1  0
 22 23  2  0
  5 24  1  0
 24 25  2  0
 25  2  1  0
 17  7  1  0
 23 18  1  0
 15 10  1  0
  3 26  1  0
  4 27  1  0
  6 28  1  0
  6 29  1  0
 11 30  1  0
 12 31  1  0
 13 32  1  0
 14 33  1  0
 15 34  1  0
 19 35  1  0
 20 36  1  0
 21 37  1  0
 22 38  1  0
 23 39  1  0
 24 40  1  0
 25 41  1  0
M  END
$$$$
