
     RDKit          3D

 45 47  0  0  0  0  0  0  0  0999 V2000
    1.7569   -0.2426   -3.7806 C   0  0  0  0  0  0  0  0  0  0  0  0
    1.6678   -0.0644   -2.3734 O   0  0  0  0  0  0  0  0  0  0  0  0
    2.7841   -0.3645   -1.6300 C   0  0  0  0  0  0  0  0  0  0  0  0
    3.8958   -1.0604   -2.1151 C   0  0  0  0  0  0  0  0  0  0  0  0
    4.9702   -1.3396   -1.2693 C   0  0  0  0  0  0  0  0  0  0  0  0
    4.9355   -0.9302    0.0607 C   0  0  0  0  0  0  0  0  0  0  0  0
    3.8274   -0.2376    0.5544 C   0  0  0  0  0  0  0  0  0  0  0  0
    2.7468    0.0525   -0.2814 C   0  0  0  0  0  0  0  0  0  0  0  0
    1.5963    0.7553    0.1434 N   0  0  0  0  0  0  0  0  0  0  0  0
    1.2809    1.2040    1.4143 C   0  0  0  0  0  0  0  0  0  0  0  0
    1.9984    1.1045    2.4071 O   0  0  0  0  0  0  0  0  0  0  0  0
   -0.0953    1.8951    1.4786 C   0  0  0  0  0  0  0  0  0  0  0  0
   -0.5317    2.2468    2.9018 C   0  0  0  0  0  0  0  0  0  0  0  0
   -1.2647    0.9995    3.3581 C   0  0  0  0  0  0  0  0  0  0  0  0
   -2.0466    0.6063    2.1156 C   0  0  0  0  0  0  0  0  0  0  0  0
   -1.1425    0.9376    0.9850 N   0  0  0  0  0  0  0  0  0  0  0  0
   -1.8528    1.3592   -0.4865 S   0  0  0  0  0  6  0  0  0  0  0  0
   -2.8416    2.3815   -0.2244 O   0  0  0  0  0  0  0  0  0  0  0  0
   -0.7746    1.5796   -1.4264 O   0  0  0  0  0  0  0  0  0  0  0  0
   -2.6762   -0.1391   -0.9553 C   0  0  0  0  0  0  0  0  0  0  0  0
   -4.0722   -0.1880   -1.0058 C   0  0  0  0  0  0  0  0  0  0  0  0
   -4.7017   -1.3762   -1.3832 C   0  0  0  0  0  0  0  0  0  0  0  0
   -3.9351   -2.4971   -1.7087 C   0  0  0  0  0  0  0  0  0  0  0  0
   -4.7167   -3.9581   -2.1714 Cl  0  0  0  0  0  0  0  0  0  0  0  0
   -2.5411   -2.4431   -1.6636 C   0  0  0  0  0  0  0  0  0  0  0  0
   -1.9050   -1.2587   -1.2883 C   0  0  0  0  0  0  0  0  0  0  0  0
    2.5983    0.3176   -4.2017 H   0  0  0  0  0  0  0  0  0  0  0  0
    0.8380    0.1516   -4.2254 H   0  0  0  0  0  0  0  0  0  0  0  0
    1.8202   -1.3050   -4.0364 H   0  0  0  0  0  0  0  0  0  0  0  0
    3.9527   -1.4062   -3.1414 H   0  0  0  0  0  0  0  0  0  0  0  0
    5.8341   -1.8807   -1.6475 H   0  0  0  0  0  0  0  0  0  0  0  0
    5.7716   -1.1482    0.7207 H   0  0  0  0  0  0  0  0  0  0  0  0
    3.8416    0.0664    1.5957 H   0  0  0  0  0  0  0  0  0  0  0  0
    0.9103    0.9164   -0.5977 H   0  0  0  0  0  0  0  0  0  0  0  0
   -0.0377    2.8096    0.8778 H   0  0  0  0  0  0  0  0  0  0  0  0
   -1.2309    3.0921    2.8748 H   0  0  0  0  0  0  0  0  0  0  0  0
    0.2908    2.5142    3.5709 H   0  0  0  0  0  0  0  0  0  0  0  0
   -1.9142    1.1813    4.2189 H   0  0  0  0  0  0  0  0  0  0  0  0
   -0.5504    0.2121    3.6264 H   0  0  0  0  0  0  0  0  0  0  0  0
   -2.2873   -0.4603    2.1184 H   0  0  0  0  0  0  0  0  0  0  0  0
   -2.9755    1.1836    2.0638 H   0  0  0  0  0  0  0  0  0  0  0  0
   -4.6723    0.6853   -0.7593 H   0  0  0  0  0  0  0  0  0  0  0  0
   -5.7873   -1.4221   -1.4251 H   0  0  0  0  0  0  0  0  0  0  0  0
   -1.9468   -3.3166   -1.9200 H   0  0  0  0  0  0  0  0  0  0  0  0
   -0.8177   -1.2138   -1.2556 H   0  0  0  0  0  0  0  0  0  0  0  0
  1  2  1  0
  2  3  1  0
  3  4  2  0
  4  5  1  0
  5  6  2  0
  6  7  1  0
  7  8  2  0
  8  9  1  0
  9 10  1  0
 10 11  2  0
 10 12  1  0
 12 13  1  0
 13 14  1  0
 14 15  1  0
 15 16  1  0
 16 17  1  0
 17 18  2  0
 17 19  2  0
 17 20  1  0
 20 21  2  0
 21 22  1  0
 22 23  2  0
 23 24  1  0
 23 25  1  0
 25 26  2  0
  8  3  1  0
 16 12  1  0
 26 20  1  0
  1 27  1  0
  1 28  1  0
  1 29  1  0
  4 30  1  0
  5 31  1  0
  6 32  1  0
  7 33  1  0
  9 34  1  0
 12 35  1  0
 13 36  1  0
 13 37  1  0
 14 38  1  0
 14 39  1  0
 15 40  1  0
 15 41  1  0
 21 42  1  0
 22 43  1  0
 25 44  1  0
 26 45  1  0
M  END
$$$$
