
     RDKit          3D

 56 59  0  0  0  0  0  0  0  0999 V2000
    2.1611    2.5044   -0.3341 C   0  0  0  0  0  0  0  0  0  0  0  0
    2.0861    0.9933   -0.5480 C   0  0  0  0  0  0  0  0  0  0  0  0
    3.4885    0.3540   -0.5621 C   0  0  0  0  0  0  0  0  0  0  0  0
    4.2206    0.3997    0.7869 C   0  0  0  0  0  0  0  0  0  0  0  0
    5.5663   -0.2834    0.7131 C   0  0  0  0  0  0  0  0  0  0  0  0
    5.6443   -1.6849    0.6842 C   0  0  0  0  0  0  0  0  0  0  0  0
    6.8807   -2.3258    0.5933 C   0  0  0  0  0  0  0  0  0  0  0  0
    8.0519   -1.5720    0.5338 C   0  0  0  0  0  0  0  0  0  0  0  0
    7.9870   -0.1762    0.5649 C   0  0  0  0  0  0  0  0  0  0  0  0
    6.7497    0.4669    0.6511 C   0  0  0  0  0  0  0  0  0  0  0  0
    1.1968    0.3971    0.4447 N   0  0  0  0  0  0  0  0  0  0  0  0
    0.7549   -0.9078    0.3420 C   0  0  0  0  0  0  0  0  0  0  0  0
    1.1350   -1.6950   -0.5211 O   0  0  0  0  0  0  0  0  0  0  0  0
   -0.3028   -1.2867    1.3839 C   0  0  0  0  0  0  0  0  0  0  0  0
   -1.6308   -1.1692    0.8750 O   0  0  0  0  0  0  0  0  0  0  0  0
   -2.0492    0.1068    0.6832 C   0  0  0  0  0  0  0  0  0  0  0  0
   -1.4353    1.1237    0.9701 O   0  0  0  0  0  0  0  0  0  0  0  0
   -3.3983    0.0769    0.0828 C   0  0  0  0  0  0  0  0  0  0  0  0
   -3.5433   -0.3640   -1.2649 C   0  0  0  0  0  0  0  0  0  0  0  0
   -2.4747   -0.7745   -2.1043 C   0  0  0  0  0  0  0  0  0  0  0  0
   -2.6909   -1.1974   -3.4174 C   0  0  0  0  0  0  0  0  0  0  0  0
   -3.9782   -1.2172   -3.9325 C   0  0  0  0  0  0  0  0  0  0  0  0
   -5.0472   -0.8127   -3.1347 C   0  0  0  0  0  0  0  0  0  0  0  0
   -4.8450   -0.3854   -1.8110 C   0  0  0  0  0  0  0  0  0  0  0  0
   -5.9370    0.0253   -1.0304 C   0  0  0  0  0  0  0  0  0  0  0  0
   -5.7839    0.4738    0.2907 C   0  0  0  0  0  0  0  0  0  0  0  0
   -6.9059    0.8847    1.0314 C   0  0  0  0  0  0  0  0  0  0  0  0
   -6.7759    1.3386    2.3433 C   0  0  0  0  0  0  0  0  0  0  0  0
   -5.5197    1.3845    2.9349 C   0  0  0  0  0  0  0  0  0  0  0  0
   -4.3965    0.9745    2.2127 C   0  0  0  0  0  0  0  0  0  0  0  0
   -4.4986    0.5116    0.8745 C   0  0  0  0  0  0  0  0  0  0  0  0
    1.1722    2.9602   -0.4596 H   0  0  0  0  0  0  0  0  0  0  0  0
    2.8383    2.9688   -1.0578 H   0  0  0  0  0  0  0  0  0  0  0  0
    2.5023    2.7554    0.6764 H   0  0  0  0  0  0  0  0  0  0  0  0
    1.6289    0.8138   -1.5301 H   0  0  0  0  0  0  0  0  0  0  0  0
    3.4069   -0.6881   -0.8937 H   0  0  0  0  0  0  0  0  0  0  0  0
    4.0977    0.8574   -1.3256 H   0  0  0  0  0  0  0  0  0  0  0  0
    4.3571    1.4369    1.1146 H   0  0  0  0  0  0  0  0  0  0  0  0
    3.6284   -0.0912    1.5676 H   0  0  0  0  0  0  0  0  0  0  0  0
    4.7363   -2.2835    0.7242 H   0  0  0  0  0  0  0  0  0  0  0  0
    6.9272   -3.4117    0.5648 H   0  0  0  0  0  0  0  0  0  0  0  0
    9.0151   -2.0710    0.4622 H   0  0  0  0  0  0  0  0  0  0  0  0
    8.9011    0.4111    0.5160 H   0  0  0  0  0  0  0  0  0  0  0  0
    6.7165    1.5563    0.6663 H   0  0  0  0  0  0  0  0  0  0  0  0
    0.5093    1.0271    0.8674 H   0  0  0  0  0  0  0  0  0  0  0  0
   -0.1843   -0.6939    2.2996 H   0  0  0  0  0  0  0  0  0  0  0  0
   -0.1388   -2.3318    1.6656 H   0  0  0  0  0  0  0  0  0  0  0  0
   -1.4474   -0.7747   -1.7468 H   0  0  0  0  0  0  0  0  0  0  0  0
   -1.8498   -1.5108   -4.0314 H   0  0  0  0  0  0  0  0  0  0  0  0
   -4.1522   -1.5445   -4.9539 H   0  0  0  0  0  0  0  0  0  0  0  0
   -6.0501   -0.8280   -3.5623 H   0  0  0  0  0  0  0  0  0  0  0  0
   -6.9349   -0.0021   -1.4652 H   0  0  0  0  0  0  0  0  0  0  0  0
   -7.8996    0.8556    0.5875 H   0  0  0  0  0  0  0  0  0  0  0  0
   -7.6535    1.6548    2.8998 H   0  0  0  0  0  0  0  0  0  0  0  0
   -5.4083    1.7404    3.9569 H   0  0  0  0  0  0  0  0  0  0  0  0
   -3.4283    1.0299    2.7128 H   0  0  0  0  0  0  0  0  0  0  0  0
  1  2  1  0
  2  3  1  0
  3  4  1  0
  4  5  1  0
  5  6  2  0
  6  7  1  0
  7  8  2  0
  8  9  1  0
  9 10  2  0
  2 11  1  0
 11 12  1  0
 12 13  2  0
 12 14  1  0
 14 15  1  0
 15 16  1  0
 16 17  2  0
 16 18  1  0
 18 19  1  0
 19 20  2  0
 20 21  1  0
 21 22  2  0
 22 23  1  0
 23 24  2  0
 24 25  1  0
 25 26  2  0
 26 27  1  0
 27 28  2  0
 28 29  1  0
 29 30  2  0
 30 31  1  0
 10  5  1  0
 31 18  2  0
 24 19  1  0
 31 26  1  0
  1 32  1  0
  1 33  1  0
  1 34  1  0
  2 35  1  0
  3 36  1  0
  3 37  1  0
  4 38  1  0
  4 39  1  0
  6 40  1  0
  7 41  1  0
  8 42  1  0
  9 43  1  0
 10 44  1  0
 11 45  1  0
 14 46  1  0
 14 47  1  0
 20 48  1  0
 21 49  1  0
 22 50  1  0
 23 51  1  0
 25 52  1  0
 27 53  1  0
 28 54  1  0
 29 55  1  0
 30 56  1  0
M  END
$$$$
