
     RDKit          3D

 43 45  0  0  0  0  0  0  0  0999 V2000
    6.6453   -1.7883    1.1397 C   0  0  0  0  0  0  0  0  0  0  0  0
    5.8035   -0.8179    0.3641 C   0  0  0  0  0  0  0  0  0  0  0  0
    6.4063    0.1307   -0.4657 C   0  0  0  0  0  0  0  0  0  0  0  0
    5.6242    1.0115   -1.2120 C   0  0  0  0  0  0  0  0  0  0  0  0
    4.2251    0.9531   -1.1473 C   0  0  0  0  0  0  0  0  0  0  0  0
    3.4009    1.9103   -1.9635 C   0  0  0  0  0  0  0  0  0  0  0  0
    3.6103   -0.0094   -0.3270 C   0  0  0  0  0  0  0  0  0  0  0  0
    2.2397   -0.0011   -0.3351 O   0  0  0  0  0  0  0  0  0  0  0  0
    1.5690   -0.9311    0.5120 C   0  0  0  0  0  0  0  0  0  0  0  0
    0.1143   -0.7065    0.3436 C   0  0  0  0  0  0  0  0  0  0  0  0
   -0.6706   -0.0388   -0.5632 C   0  0  0  0  0  0  0  0  0  0  0  0
   -2.0079   -0.2378   -0.1180 C   0  0  0  0  0  0  0  0  0  0  0  0
   -3.2138    0.2842   -0.7873 C   0  0  0  0  0  0  0  0  0  0  0  0
   -3.1015    0.8018   -1.9022 O   0  0  0  0  0  0  0  0  0  0  0  0
   -4.4773    0.2023   -0.1763 N   0  0  0  0  0  0  0  0  0  0  0  0
   -5.5936    0.8279   -0.8845 C   0  0  0  0  0  0  0  0  0  0  0  0
   -6.9363    0.2635   -0.4361 C   0  0  0  0  0  0  0  0  0  0  0  0
   -7.1012    0.3947    0.9906 N   0  0  0  0  0  0  0  0  0  0  0  0
   -6.0763    0.1153    1.8550 C   0  0  0  0  0  0  0  0  0  0  0  0
   -6.3046    0.0047    3.0578 O   0  0  0  0  0  0  0  0  0  0  0  0
   -4.6693   -0.0730    1.2587 C   0  0  0  0  0  0  0  0  0  0  0  0
   -2.0096   -1.0049    0.9846 N   0  0  0  0  0  0  0  0  0  0  0  0
   -0.6904   -1.2872    1.2714 O   0  0  0  0  0  0  0  0  0  0  0  0
    4.4031   -0.8907    0.4179 C   0  0  0  0  0  0  0  0  0  0  0  0
    6.1432   -2.0895    2.0653 H   0  0  0  0  0  0  0  0  0  0  0  0
    7.6020   -1.3364    1.4223 H   0  0  0  0  0  0  0  0  0  0  0  0
    6.8394   -2.6803    0.5358 H   0  0  0  0  0  0  0  0  0  0  0  0
    7.4901    0.1912   -0.5372 H   0  0  0  0  0  0  0  0  0  0  0  0
    6.1152    1.7445   -1.8483 H   0  0  0  0  0  0  0  0  0  0  0  0
    2.8050    1.3629   -2.7012 H   0  0  0  0  0  0  0  0  0  0  0  0
    2.7352    2.4885   -1.3143 H   0  0  0  0  0  0  0  0  0  0  0  0
    4.0318    2.6229   -2.5059 H   0  0  0  0  0  0  0  0  0  0  0  0
    1.8440   -0.7591    1.5591 H   0  0  0  0  0  0  0  0  0  0  0  0
    1.8074   -1.9592    0.2160 H   0  0  0  0  0  0  0  0  0  0  0  0
   -0.3399    0.5201   -1.4272 H   0  0  0  0  0  0  0  0  0  0  0  0
   -5.4816    0.6896   -1.9654 H   0  0  0  0  0  0  0  0  0  0  0  0
   -5.5416    1.9040   -0.6773 H   0  0  0  0  0  0  0  0  0  0  0  0
   -7.0079   -0.8028   -0.6778 H   0  0  0  0  0  0  0  0  0  0  0  0
   -7.7631    0.7899   -0.9219 H   0  0  0  0  0  0  0  0  0  0  0  0
   -8.0245    0.3940    1.4078 H   0  0  0  0  0  0  0  0  0  0  0  0
   -4.4110   -1.1224    1.4308 H   0  0  0  0  0  0  0  0  0  0  0  0
   -3.9922    0.5794    1.8212 H   0  0  0  0  0  0  0  0  0  0  0  0
    3.9591   -1.6508    1.0526 H   0  0  0  0  0  0  0  0  0  0  0  0
  1  2  1  0
  2  3  2  0
  3  4  1  0
  4  5  2  0
  5  6  1  0
  5  7  1  0
  7  8  1  0
  8  9  1  0
  9 10  1  0
 10 11  2  0
 11 12  1  0
 12 13  1  0
 13 14  2  0
 13 15  1  0
 15 16  1  0
 16 17  1  0
 17 18  1  0
 18 19  1  0
 19 20  2  0
 19 21  1  0
 12 22  2  0
 22 23  1  0
  7 24  2  0
 24  2  1  0
 23 10  1  0
 21 15  1  0
  1 25  1  0
  1 26  1  0
  1 27  1  0
  3 28  1  0
  4 29  1  0
  6 30  1  0
  6 31  1  0
  6 32  1  0
  9 33  1  0
  9 34  1  0
 11 35  1  0
 16 36  1  0
 16 37  1  0
 17 38  1  0
 17 39  1  0
 18 40  1  0
 21 41  1  0
 21 42  1  0
 24 43  1  0
M  END
$$$$
