
     RDKit          3D

 32 34  0  0  0  0  0  0  0  0999 V2000
    6.5757   -0.7641   -1.1321 C   0  0  0  0  0  0  0  0  0  0  0  0
    5.3047   -0.9494   -1.7434 O   0  0  0  0  0  0  0  0  0  0  0  0
    4.2020   -0.6375   -0.9934 C   0  0  0  0  0  0  0  0  0  0  0  0
    4.2166   -0.1523    0.3122 C   0  0  0  0  0  0  0  0  0  0  0  0
    3.0175    0.1324    0.9806 C   0  0  0  0  0  0  0  0  0  0  0  0
    1.7840   -0.0718    0.3329 C   0  0  0  0  0  0  0  0  0  0  0  0
    0.5326    0.1673    0.8712 N   0  0  0  0  0  0  0  0  0  0  0  0
   -0.3839   -0.1381   -0.0057 C   0  0  0  0  0  0  0  0  0  0  0  0
   -1.7436   -0.0562    0.0925 N   0  0  0  0  0  0  0  0  0  0  0  0
   -2.3810    0.3164    1.2513 C   0  0  0  0  0  0  0  0  0  0  0  0
   -1.8494    0.5405    2.3315 O   0  0  0  0  0  0  0  0  0  0  0  0
   -3.8372    0.3747    1.1306 C   0  0  0  0  0  0  0  0  0  0  0  0
   -4.7708    0.1734    2.1941 C   0  0  0  0  0  0  0  0  0  0  0  0
   -6.0251    0.3149    1.6568 C   0  0  0  0  0  0  0  0  0  0  0  0
   -5.9388    0.6150    0.3388 O   0  0  0  0  0  0  0  0  0  0  0  0
   -4.6139    0.6778    0.0201 C   0  0  0  0  0  0  0  0  0  0  0  0
   -4.3298    1.0750   -1.3769 C   0  0  0  0  0  0  0  0  0  0  0  0
    0.1595   -0.7107   -1.5172 S   0  0  0  0  0  0  0  0  0  0  0  0
    1.7889   -0.5587   -0.9757 C   0  0  0  0  0  0  0  0  0  0  0  0
    2.9843   -0.8464   -1.6536 C   0  0  0  0  0  0  0  0  0  0  0  0
    6.7425    0.2883   -0.8798 H   0  0  0  0  0  0  0  0  0  0  0  0
    6.6874   -1.4055   -0.2516 H   0  0  0  0  0  0  0  0  0  0  0  0
    7.3409   -1.0579   -1.8570 H   0  0  0  0  0  0  0  0  0  0  0  0
    5.1436    0.0197    0.8498 H   0  0  0  0  0  0  0  0  0  0  0  0
    3.0267    0.5105    1.9987 H   0  0  0  0  0  0  0  0  0  0  0  0
   -2.2697   -0.3630   -0.7078 H   0  0  0  0  0  0  0  0  0  0  0  0
   -4.5359   -0.0554    3.2253 H   0  0  0  0  0  0  0  0  0  0  0  0
   -7.0263    0.2462    2.0592 H   0  0  0  0  0  0  0  0  0  0  0  0
   -5.1743    1.6202   -1.8107 H   0  0  0  0  0  0  0  0  0  0  0  0
   -4.1439    0.1910   -1.9942 H   0  0  0  0  0  0  0  0  0  0  0  0
   -3.4536    1.7285   -1.4275 H   0  0  0  0  0  0  0  0  0  0  0  0
    2.9700   -1.2247   -2.6715 H   0  0  0  0  0  0  0  0  0  0  0  0
  1  2  1  0
  2  3  1  0
  3  4  2  0
  4  5  1  0
  5  6  2  0
  6  7  1  0
  7  8  2  0
  8  9  1  0
  9 10  1  0
 10 11  2  0
 10 12  1  0
 12 13  1  0
 13 14  2  0
 14 15  1  0
 15 16  1  0
 16 17  1  0
  8 18  1  0
 18 19  1  0
 19 20  2  0
 20  3  1  0
 19  6  1  0
 16 12  2  0
  1 21  1  0
  1 22  1  0
  1 23  1  0
  4 24  1  0
  5 25  1  0
  9 26  1  0
 13 27  1  0
 14 28  1  0
 17 29  1  0
 17 30  1  0
 17 31  1  0
 20 32  1  0
M  END
$$$$
