
     RDKit          3D

 52 56  0  0  0  0  0  0  0  0999 V2000
    0.6225    0.4398    3.1500 O   0  0  0  0  0  0  0  0  0  0  0  0
    0.4249    0.3747    1.9413 C   0  0  0  0  0  0  0  0  0  0  0  0
    1.5743    0.5959    1.0457 C   0  0  0  0  0  0  0  0  0  0  0  0
    2.4459   -0.4750    0.8632 C   0  0  0  0  0  0  0  0  0  0  0  0
    3.5235   -0.2960    0.0153 C   0  0  0  0  0  0  0  0  0  0  0  0
    4.4864   -1.3664   -0.2874 C   0  0  0  0  0  0  0  0  0  0  0  0
    4.6796   -1.7433   -1.6330 C   0  0  0  0  0  0  0  0  0  0  0  0
    5.5668   -2.7627   -1.9882 C   0  0  0  0  0  0  0  0  0  0  0  0
    6.2897   -3.4269   -1.0038 C   0  0  0  0  0  0  0  0  0  0  0  0
    6.1313   -3.0646    0.3324 C   0  0  0  0  0  0  0  0  0  0  0  0
    5.2424   -2.0414    0.6900 C   0  0  0  0  0  0  0  0  0  0  0  0
    5.1591   -1.6356    2.3717 Cl  0  0  0  0  0  0  0  0  0  0  0  0
    3.7271    0.8707   -0.6476 N   0  0  0  0  0  0  0  0  0  0  0  0
    2.9016    1.9098   -0.4377 C   0  0  0  0  0  0  0  0  0  0  0  0
    3.1580    3.1042   -1.0986 C   0  0  0  0  0  0  0  0  0  0  0  0
    2.3488    4.2317   -0.9312 C   0  0  0  0  0  0  0  0  0  0  0  0
    1.2562    4.1654   -0.0789 C   0  0  0  0  0  0  0  0  0  0  0  0
    0.1530    5.6790    0.1620 Br  0  0  0  0  0  0  0  0  0  0  0  0
    0.9716    2.9827    0.5971 C   0  0  0  0  0  0  0  0  0  0  0  0
    1.7887    1.8385    0.4186 C   0  0  0  0  0  0  0  0  0  0  0  0
   -0.8070    0.1034    1.3647 N   0  0  0  0  0  0  0  0  0  0  0  0
   -1.9712   -0.0876    2.2311 C   0  0  0  0  0  0  0  0  0  0  0  0
   -3.2688    0.4847    1.6290 C   0  0  0  0  0  0  0  0  0  0  0  0
   -3.4813    0.0680    0.2290 N   0  0  0  0  0  0  0  0  0  0  0  0
   -4.7758   -0.2920   -0.1459 C   0  0  0  0  0  0  0  0  0  0  0  0
   -5.8753    0.4644    0.2671 C   0  0  0  0  0  0  0  0  0  0  0  0
   -7.1639    0.1041   -0.1268 C   0  0  0  0  0  0  0  0  0  0  0  0
   -7.3369   -1.0049   -0.9379 C   0  0  0  0  0  0  0  0  0  0  0  0
   -6.2067   -1.6983   -1.3237 C   0  0  0  0  0  0  0  0  0  0  0  0
   -4.9501   -1.3631   -0.9522 N   0  0  0  0  0  0  0  0  0  0  0  0
   -2.4031   -0.7094   -0.3995 C   0  0  0  0  0  0  0  0  0  0  0  0
   -1.0357   -0.0799   -0.0774 C   0  0  0  0  0  0  0  0  0  0  0  0
    2.2724   -1.4195    1.3688 H   0  0  0  0  0  0  0  0  0  0  0  0
    4.1288   -1.2284   -2.4199 H   0  0  0  0  0  0  0  0  0  0  0  0
    5.6940   -3.0309   -3.0343 H   0  0  0  0  0  0  0  0  0  0  0  0
    6.9841   -4.2179   -1.2757 H   0  0  0  0  0  0  0  0  0  0  0  0
    6.7123   -3.5773    1.0956 H   0  0  0  0  0  0  0  0  0  0  0  0
    4.0189    3.1613   -1.7620 H   0  0  0  0  0  0  0  0  0  0  0  0
    2.5875    5.1473   -1.4659 H   0  0  0  0  0  0  0  0  0  0  0  0
    0.1164    2.9459    1.2692 H   0  0  0  0  0  0  0  0  0  0  0  0
   -1.7959    0.3593    3.2156 H   0  0  0  0  0  0  0  0  0  0  0  0
   -2.0756   -1.1694    2.3810 H   0  0  0  0  0  0  0  0  0  0  0  0
   -3.2177    1.5801    1.6473 H   0  0  0  0  0  0  0  0  0  0  0  0
   -4.0972    0.1790    2.2801 H   0  0  0  0  0  0  0  0  0  0  0  0
   -5.7382    1.3507    0.8770 H   0  0  0  0  0  0  0  0  0  0  0  0
   -8.0182    0.6933    0.1926 H   0  0  0  0  0  0  0  0  0  0  0  0
   -8.3212   -1.3156   -1.2674 H   0  0  0  0  0  0  0  0  0  0  0  0
   -6.2783   -2.5714   -1.9655 H   0  0  0  0  0  0  0  0  0  0  0  0
   -2.4232   -1.7458   -0.0376 H   0  0  0  0  0  0  0  0  0  0  0  0
   -2.5174   -0.7244   -1.4906 H   0  0  0  0  0  0  0  0  0  0  0  0
   -0.2350   -0.6983   -0.4955 H   0  0  0  0  0  0  0  0  0  0  0  0
   -0.9723    0.9123   -0.5388 H   0  0  0  0  0  0  0  0  0  0  0  0
  1  2  2  0
  2  3  1  0
  3  4  2  0
  4  5  1  0
  5  6  1  0
  6  7  2  0
  7  8  1  0
  8  9  2  0
  9 10  1  0
 10 11  2  0
 11 12  1  0
  5 13  2  0
 13 14  1  0
 14 15  2  0
 15 16  1  0
 16 17  2  0
 17 18  1  0
 17 19  1  0
 19 20  2  0
  2 21  1  0
 21 22  1  0
 22 23  1  0
 23 24  1  0
 24 25  1  0
 25 26  2  0
 26 27  1  0
 27 28  2  0
 28 29  1  0
 29 30  2  0
 24 31  1  0
 31 32  1  0
 20  3  1  0
 32 21  1  0
 11  6  1  0
 20 14  1  0
 30 25  1  0
  4 33  1  0
  7 34  1  0
  8 35  1  0
  9 36  1  0
 10 37  1  0
 15 38  1  0
 16 39  1  0
 19 40  1  0
 22 41  1  0
 22 42  1  0
 23 43  1  0
 23 44  1  0
 26 45  1  0
 27 46  1  0
 28 47  1  0
 29 48  1  0
 31 49  1  0
 31 50  1  0
 32 51  1  0
 32 52  1  0
M  END
$$$$
