
     RDKit          3D

 32 35  0  0  0  0  0  0  0  0999 V2000
   -4.2431    2.7043   -0.6709 C   0  0  0  0  0  0  0  0  0  0  0  0
   -4.9511    1.5664   -0.1964 O   0  0  0  0  0  0  0  0  0  0  0  0
   -4.1817    0.4423    0.0907 C   0  0  0  0  0  0  0  0  0  0  0  0
   -4.9500   -0.6760    0.4526 C   0  0  0  0  0  0  0  0  0  0  0  0
   -4.3493   -1.8873    0.7743 C   0  0  0  0  0  0  0  0  0  0  0  0
   -2.9614   -2.0179    0.7473 C   0  0  0  0  0  0  0  0  0  0  0  0
   -2.1916   -0.8970    0.3929 C   0  0  0  0  0  0  0  0  0  0  0  0
   -0.4804   -0.7732    0.2904 S   0  0  0  0  0  0  0  0  0  0  0  0
   -0.5991    0.8808   -0.1651 C   0  0  0  0  0  0  0  0  0  0  0  0
    0.4356    1.7104   -0.4267 N   0  0  0  0  0  0  0  0  0  0  0  0
    1.7671    1.5357   -0.4132 C   0  0  0  0  0  0  0  0  0  0  0  0
    2.6977    2.4283   -0.6712 N   0  0  0  0  0  0  0  0  0  0  0  0
    3.9112    1.7889   -0.5315 N   0  0  0  0  0  0  0  0  0  0  0  0
    3.6499    0.5381   -0.1987 C   0  0  0  0  0  0  0  0  0  0  0  0
    4.6296   -0.4832    0.0389 C   0  0  0  0  0  0  0  0  0  0  0  0
    4.3840   -1.8076    0.3545 C   0  0  0  0  0  0  0  0  0  0  0  0
    5.5829   -2.5618    0.5210 C   0  0  0  0  0  0  0  0  0  0  0  0
    6.7060   -1.7884    0.3300 C   0  0  0  0  0  0  0  0  0  0  0  0
    6.3121   -0.1681   -0.0484 S   0  0  0  0  0  0  0  0  0  0  0  0
    2.2958    0.3156   -0.1049 O   0  0  0  0  0  0  0  0  0  0  0  0
   -1.8339    1.3228   -0.2483 N   0  0  0  0  0  0  0  0  0  0  0  0
   -2.7642    0.3340    0.0639 C   0  0  0  0  0  0  0  0  0  0  0  0
   -4.9831    3.4724   -0.9184 H   0  0  0  0  0  0  0  0  0  0  0  0
   -3.5916    3.1179    0.1058 H   0  0  0  0  0  0  0  0  0  0  0  0
   -3.6948    2.4762   -1.5913 H   0  0  0  0  0  0  0  0  0  0  0  0
   -6.0341   -0.5888    0.4810 H   0  0  0  0  0  0  0  0  0  0  0  0
   -4.9669   -2.7395    1.0496 H   0  0  0  0  0  0  0  0  0  0  0  0
   -2.4890   -2.9631    0.9999 H   0  0  0  0  0  0  0  0  0  0  0  0
    0.1451    2.6503   -0.6697 H   0  0  0  0  0  0  0  0  0  0  0  0
    3.3872   -2.2219    0.4589 H   0  0  0  0  0  0  0  0  0  0  0  0
    5.6192   -3.6164    0.7689 H   0  0  0  0  0  0  0  0  0  0  0  0
    7.7417   -2.0942    0.3929 H   0  0  0  0  0  0  0  0  0  0  0  0
  1  2  1  0
  2  3  1  0
  3  4  2  0
  4  5  1  0
  5  6  2  0
  6  7  1  0
  7  8  1  0
  8  9  1  0
  9 10  1  0
 10 11  1  0
 11 12  2  0
 12 13  1  0
 13 14  2  0
 14 15  1  0
 15 16  2  0
 16 17  1  0
 17 18  2  0
 18 19  1  0
 14 20  1  0
  9 21  2  0
 21 22  1  0
 22  3  1  0
 22  7  2  0
 20 11  1  0
 19 15  1  0
  1 23  1  0
  1 24  1  0
  1 25  1  0
  4 26  1  0
  5 27  1  0
  6 28  1  0
 10 29  1  0
 16 30  1  0
 17 31  1  0
 18 32  1  0
M  END
$$$$
