
     RDKit          3D

 42 44  0  0  0  0  0  0  0  0999 V2000
    1.8603    2.1087    2.1605 C   0  0  0  0  0  0  0  0  0  0  0  0
    2.1933    0.9465    1.4122 O   0  0  0  0  0  0  0  0  0  0  0  0
    1.1625    0.2255    0.8684 C   0  0  0  0  0  0  0  0  0  0  0  0
   -0.1843    0.6232    0.8664 C   0  0  0  0  0  0  0  0  0  0  0  0
   -1.2163   -0.1429    0.2775 C   0  0  0  0  0  0  0  0  0  0  0  0
   -2.5276    0.3042    0.3404 N   0  0  0  0  0  0  0  0  0  0  0  0
   -2.9808    1.2766    1.3407 C   0  0  0  0  0  0  0  0  0  0  0  0
   -4.4817    1.0287    1.4713 C   0  0  0  0  0  0  0  0  0  0  0  0
   -4.8616    0.4807    0.1100 C   0  0  0  0  0  0  0  0  0  0  0  0
   -3.6687   -0.4063   -0.2362 C   0  0  0  0  0  0  0  0  0  0  0  0
   -0.7973   -1.3198   -0.3799 C   0  0  0  0  0  0  0  0  0  0  0  0
   -1.6985   -2.1397   -1.0220 O   0  0  0  0  0  0  0  0  0  0  0  0
   -1.5095   -2.0760   -2.4379 C   0  0  0  0  0  0  0  0  0  0  0  0
    0.5403   -1.7484   -0.3553 C   0  0  0  0  0  0  0  0  0  0  0  0
    1.5291   -0.9838    0.2684 C   0  0  0  0  0  0  0  0  0  0  0  0
    2.9632   -1.4553    0.2600 C   0  0  0  0  0  0  0  0  0  0  0  0
    3.8040   -0.6670   -0.6817 C   0  0  0  0  0  0  0  0  0  0  0  0
    3.7101   -0.6138   -1.9774 N   0  0  0  0  0  0  0  0  0  0  0  0
    4.6918    0.2640   -2.3902 C   0  0  0  0  0  0  0  0  0  0  0  0
    5.0482    0.7076   -3.9525 S   0  0  0  0  0  0  0  0  0  0  0  0
    5.3883    0.7565   -1.3346 N   0  0  0  0  0  0  0  0  0  0  0  0
    4.9390    0.1975   -0.1966 C   0  0  0  0  0  0  0  0  0  0  0  0
    5.3486    0.2870    0.9360 O   0  0  0  0  0  0  0  0  0  0  0  0
    1.4277    2.8796    1.5149 H   0  0  0  0  0  0  0  0  0  0  0  0
    2.7870    2.5103    2.5819 H   0  0  0  0  0  0  0  0  0  0  0  0
    1.1928    1.8673    2.9943 H   0  0  0  0  0  0  0  0  0  0  0  0
   -0.4501    1.5712    1.3190 H   0  0  0  0  0  0  0  0  0  0  0  0
   -2.7898    2.2936    0.9796 H   0  0  0  0  0  0  0  0  0  0  0  0
   -2.5022    1.1432    2.3174 H   0  0  0  0  0  0  0  0  0  0  0  0
   -4.6712    0.2738    2.2442 H   0  0  0  0  0  0  0  0  0  0  0  0
   -5.0338    1.9345    1.7371 H   0  0  0  0  0  0  0  0  0  0  0  0
   -4.9476    1.3000   -0.6141 H   0  0  0  0  0  0  0  0  0  0  0  0
   -5.8055   -0.0713    0.1200 H   0  0  0  0  0  0  0  0  0  0  0  0
   -3.7914   -1.3902    0.2314 H   0  0  0  0  0  0  0  0  0  0  0  0
   -3.5941   -0.5092   -1.3225 H   0  0  0  0  0  0  0  0  0  0  0  0
   -0.6283   -2.6495   -2.7424 H   0  0  0  0  0  0  0  0  0  0  0  0
   -1.4343   -1.0410   -2.7910 H   0  0  0  0  0  0  0  0  0  0  0  0
   -2.3853   -2.5308   -2.9109 H   0  0  0  0  0  0  0  0  0  0  0  0
    0.8027   -2.6900   -0.8316 H   0  0  0  0  0  0  0  0  0  0  0  0
    3.0178   -2.5069   -0.0466 H   0  0  0  0  0  0  0  0  0  0  0  0
    3.3746   -1.4132    1.2744 H   0  0  0  0  0  0  0  0  0  0  0  0
    6.1785    1.3749   -1.4027 H   0  0  0  0  0  0  0  0  0  0  0  0
  1  2  1  0
  2  3  1  0
  3  4  2  0
  4  5  1  0
  5  6  1  0
  6  7  1  0
  7  8  1  0
  8  9  1  0
  9 10  1  0
  5 11  2  0
 11 12  1  0
 12 13  1  0
 11 14  1  0
 14 15  2  0
 15 16  1  0
 16 17  1  0
 17 18  2  0
 18 19  1  0
 19 20  2  0
 19 21  1  0
 21 22  1  0
 22 23  2  0
 15  3  1  0
 22 17  1  0
 10  6  1  0
  1 24  1  0
  1 25  1  0
  1 26  1  0
  4 27  1  0
  7 28  1  0
  7 29  1  0
  8 30  1  0
  8 31  1  0
  9 32  1  0
  9 33  1  0
 10 34  1  0
 10 35  1  0
 13 36  1  0
 13 37  1  0
 13 38  1  0
 14 39  1  0
 16 40  1  0
 16 41  1  0
 21 42  1  0
M  END
$$$$
