
     RDKit          3D

 74 78  0  0  0  0  0  0  0  0999 V2000
    3.5620    5.8045    1.7981 C   0  0  0  0  0  0  0  0  0  0  0  0
    2.7265    4.6315    1.3774 C   0  0  0  0  0  0  0  0  0  0  0  0
    1.3361    4.7439    1.3044 C   0  0  0  0  0  0  0  0  0  0  0  0
    0.5406    3.6658    0.8849 C   0  0  0  0  0  0  0  0  0  0  0  0
   -0.9542    3.8471    0.8594 C   0  0  0  0  0  0  0  0  0  0  0  0
    1.1623    2.4578    0.5012 C   0  0  0  0  0  0  0  0  0  0  0  0
    0.3552    1.3823    0.0360 N   0  0  0  0  0  0  0  0  0  0  0  0
    0.1389    0.2313    0.7962 C   0  0  0  0  0  0  0  0  0  0  0  0
   -0.3545   -0.7935    0.3152 O   0  0  0  0  0  0  0  0  0  0  0  0
    0.4970    0.3107    2.2864 C   0  0  0  0  0  0  0  0  0  0  0  0
    0.2817   -0.9836    2.9363 N   0  0  0  0  0  0  0  0  0  0  0  0
    1.0168   -2.1537    2.6474 C   0  0  0  0  0  0  0  0  0  0  0  0
    2.0876   -2.1897    2.0712 O   0  0  0  0  0  0  0  0  0  0  0  0
    0.2843   -3.3237    3.1647 C   0  0  0  0  0  0  0  0  0  0  0  0
    0.6984   -4.6451    3.1084 C   0  0  0  0  0  0  0  0  0  0  0  0
   -0.1410   -5.6209    3.6576 C   0  0  0  0  0  0  0  0  0  0  0  0
   -1.3695   -5.2672    4.2480 C   0  0  0  0  0  0  0  0  0  0  0  0
   -1.7794   -3.9329    4.2981 C   0  0  0  0  0  0  0  0  0  0  0  0
   -0.9307   -2.9900    3.7479 C   0  0  0  0  0  0  0  0  0  0  0  0
   -1.1958   -1.2717    3.6757 S   0  0  0  0  0  6  0  0  0  0  0  0
   -2.2815   -1.0129    2.7635 O   0  0  0  0  0  0  0  0  0  0  0  0
   -1.1497   -0.7466    5.0203 O   0  0  0  0  0  0  0  0  0  0  0  0
   -0.0608    1.4308   -1.3858 C   0  0  0  0  0  0  0  0  0  0  0  0
   -1.5836    1.1539   -1.5595 C   0  0  0  0  0  0  0  0  0  0  0  0
   -2.4016    1.4322   -0.6790 O   0  0  0  0  0  0  0  0  0  0  0  0
   -1.9977    0.7102   -2.8005 N   0  0  0  0  0  0  0  0  0  0  0  0
   -3.3809    0.3500   -3.0683 C   0  0  0  0  0  0  0  0  0  0  0  0
   -3.6632   -1.1451   -2.8896 C   0  0  0  0  0  0  0  0  0  0  0  0
   -3.5493   -1.6866   -1.4751 C   0  0  0  0  0  0  0  0  0  0  0  0
   -3.3280   -3.1551   -1.7378 C   0  0  0  0  0  0  0  0  0  0  0  0
   -2.4379   -3.1268   -2.9629 C   0  0  0  0  0  0  0  0  0  0  0  0
   -2.7572   -1.9321   -3.6949 O   0  0  0  0  0  0  0  0  0  0  0  0
    0.8913    0.6974   -2.3339 C   0  0  0  0  0  0  0  0  0  0  0  0
    0.9035   -0.7016   -2.4624 C   0  0  0  0  0  0  0  0  0  0  0  0
    1.7929   -1.3330   -3.3347 C   0  0  0  0  0  0  0  0  0  0  0  0
    2.6784   -0.5707   -4.0834 C   0  0  0  0  0  0  0  0  0  0  0  0
    3.5313   -1.1771   -4.9191 F   0  0  0  0  0  0  0  0  0  0  0  0
    2.6922    0.8129   -3.9766 C   0  0  0  0  0  0  0  0  0  0  0  0
    1.8040    1.4453   -3.1045 C   0  0  0  0  0  0  0  0  0  0  0  0
    2.5668    2.3288    0.5716 C   0  0  0  0  0  0  0  0  0  0  0  0
    3.3264    1.0947    0.1577 C   0  0  0  0  0  0  0  0  0  0  0  0
    3.3298    3.4294    0.9996 C   0  0  0  0  0  0  0  0  0  0  0  0
    3.0392    6.4051    2.5500 H   0  0  0  0  0  0  0  0  0  0  0  0
    4.5053    5.4740    2.2459 H   0  0  0  0  0  0  0  0  0  0  0  0
    3.7848    6.4349    0.9317 H   0  0  0  0  0  0  0  0  0  0  0  0
    0.8638    5.6842    1.5854 H   0  0  0  0  0  0  0  0  0  0  0  0
   -1.2564    4.7369    1.4225 H   0  0  0  0  0  0  0  0  0  0  0  0
   -1.3047    3.9685   -0.1695 H   0  0  0  0  0  0  0  0  0  0  0  0
   -1.4561    2.9952    1.3281 H   0  0  0  0  0  0  0  0  0  0  0  0
   -0.1123    1.0856    2.7633 H   0  0  0  0  0  0  0  0  0  0  0  0
    1.5485    0.5752    2.4212 H   0  0  0  0  0  0  0  0  0  0  0  0
    1.6460   -4.9148    2.6507 H   0  0  0  0  0  0  0  0  0  0  0  0
    0.1578   -6.6675    3.6286 H   0  0  0  0  0  0  0  0  0  0  0  0
   -2.0058   -6.0442    4.6683 H   0  0  0  0  0  0  0  0  0  0  0  0
   -2.7253   -3.6485    4.7486 H   0  0  0  0  0  0  0  0  0  0  0  0
   -0.0100    2.4906   -1.6822 H   0  0  0  0  0  0  0  0  0  0  0  0
   -1.3162    0.3120   -3.4358 H   0  0  0  0  0  0  0  0  0  0  0  0
   -3.5522    0.6228   -4.1155 H   0  0  0  0  0  0  0  0  0  0  0  0
   -4.0546    0.9455   -2.4438 H   0  0  0  0  0  0  0  0  0  0  0  0
   -4.6729   -1.3502   -3.2687 H   0  0  0  0  0  0  0  0  0  0  0  0
   -2.6774   -1.2857   -0.9524 H   0  0  0  0  0  0  0  0  0  0  0  0
   -4.4363   -1.4826   -0.8695 H   0  0  0  0  0  0  0  0  0  0  0  0
   -2.8780   -3.6892   -0.8968 H   0  0  0  0  0  0  0  0  0  0  0  0
   -4.2818   -3.6386   -1.9792 H   0  0  0  0  0  0  0  0  0  0  0  0
   -1.3811   -3.0739   -2.6833 H   0  0  0  0  0  0  0  0  0  0  0  0
   -2.5828   -3.9999   -3.6054 H   0  0  0  0  0  0  0  0  0  0  0  0
    0.2164   -1.3205   -1.8894 H   0  0  0  0  0  0  0  0  0  0  0  0
    1.7983   -2.4142   -3.4306 H   0  0  0  0  0  0  0  0  0  0  0  0
    3.3956    1.3900   -4.5684 H   0  0  0  0  0  0  0  0  0  0  0  0
    1.8368    2.5307   -3.0233 H   0  0  0  0  0  0  0  0  0  0  0  0
    3.8130    1.2637   -0.8077 H   0  0  0  0  0  0  0  0  0  0  0  0
    2.6979    0.2066    0.0756 H   0  0  0  0  0  0  0  0  0  0  0  0
    4.0971    0.8623    0.9013 H   0  0  0  0  0  0  0  0  0  0  0  0
    4.4158    3.3450    1.0336 H   0  0  0  0  0  0  0  0  0  0  0  0
  1  2  1  0
  2  3  2  0
  3  4  1  0
  4  5  1  0
  4  6  2  0
  6  7  1  0
  7  8  1  0
  8  9  2  0
  8 10  1  0
 10 11  1  0
 11 12  1  0
 12 13  2  0
 12 14  1  0
 14 15  2  0
 15 16  1  0
 16 17  2  0
 17 18  1  0
 18 19  2  0
 19 20  1  0
 20 21  2  0
 20 22  2  0
  7 23  1  0
 23 24  1  0
 24 25  2  0
 24 26  1  0
 26 27  1  0
 27 28  1  0
 28 29  1  0
 29 30  1  0
 30 31  1  0
 31 32  1  0
 23 33  1  0
 33 34  2  0
 34 35  1  0
 35 36  2  0
 36 37  1  0
 36 38  1  0
 38 39  2  0
  6 40  1  0
 40 41  1  0
 40 42  2  0
 42  2  1  0
 20 11  1  0
 32 28  1  0
 39 33  1  0
 19 14  1  0
  1 43  1  0
  1 44  1  0
  1 45  1  0
  3 46  1  0
  5 47  1  0
  5 48  1  0
  5 49  1  0
 10 50  1  0
 10 51  1  0
 15 52  1  0
 16 53  1  0
 17 54  1  0
 18 55  1  0
 23 56  1  0
 26 57  1  0
 27 58  1  0
 27 59  1  0
 28 60  1  0
 29 61  1  0
 29 62  1  0
 30 63  1  0
 30 64  1  0
 31 65  1  0
 31 66  1  0
 34 67  1  0
 35 68  1  0
 38 69  1  0
 39 70  1  0
 41 71  1  0
 41 72  1  0
 41 73  1  0
 42 74  1  0
M  END
$$$$
