
     RDKit          3D

 56 61  0  0  0  0  0  0  0  0999 V2000
    0.2096    0.3731   -3.6453 C   0  0  0  0  0  0  0  0  0  0  0  0
    0.9475    0.1855   -2.3726 C   0  0  0  0  0  0  0  0  0  0  0  0
    2.2353    0.5336   -2.2946 N   0  0  0  0  0  0  0  0  0  0  0  0
    2.6200    0.2493   -1.0107 N   0  0  0  0  0  0  0  0  0  0  0  0
    3.9610    0.5289   -0.5983 C   0  0  0  0  0  0  0  0  0  0  0  0
    4.8581    1.0871   -1.5291 C   0  0  0  0  0  0  0  0  0  0  0  0
    6.1779    1.3775   -1.1676 C   0  0  0  0  0  0  0  0  0  0  0  0
    6.6095    1.1098    0.1355 C   0  0  0  0  0  0  0  0  0  0  0  0
    7.9932    1.4117    0.5216 N   0  0  0  0  0  4  0  0  0  0  0  0
    8.7315    1.9251   -0.3319 O   0  0  0  0  0  0  0  0  0  0  0  0
    8.3442    1.1359    1.6781 O   0  0  0  0  0  1  0  0  0  0  0  0
    5.7301    0.5567    1.0730 C   0  0  0  0  0  0  0  0  0  0  0  0
    4.4094    0.2684    0.7046 C   0  0  0  0  0  0  0  0  0  0  0  0
    1.5613   -0.3068   -0.2982 C   0  0  0  0  0  0  0  0  0  0  0  0
    0.4820   -0.3284   -1.1507 C   0  0  0  0  0  0  0  0  0  0  0  0
   -0.8166   -0.8757   -0.6726 C   0  0  0  0  0  0  0  0  0  0  0  0
   -1.7632    0.3263   -0.6678 C   0  0  0  0  0  0  0  0  0  0  0  0
   -1.6606    1.3496    0.2902 C   0  0  0  0  0  0  0  0  0  0  0  0
   -2.5347    2.4392    0.2681 C   0  0  0  0  0  0  0  0  0  0  0  0
   -3.5370    2.5299   -0.6982 C   0  0  0  0  0  0  0  0  0  0  0  0
   -4.3202    3.6458   -0.6099 O   0  0  0  0  0  0  0  0  0  0  0  0
   -5.5686    3.5917   -1.2779 C   0  0  0  0  0  0  0  0  0  0  0  0
   -6.2870    4.6739   -0.8853 F   0  0  0  0  0  0  0  0  0  0  0  0
   -5.3679    3.7232   -2.6125 F   0  0  0  0  0  0  0  0  0  0  0  0
   -3.6425    1.5306   -1.6647 C   0  0  0  0  0  0  0  0  0  0  0  0
   -2.7653    0.4391   -1.6482 C   0  0  0  0  0  0  0  0  0  0  0  0
   -0.7193   -1.5018    0.6646 N   0  0  0  0  0  0  0  0  0  0  0  0
    0.4700   -1.3216    1.3974 C   0  0  0  0  0  0  0  0  0  0  0  0
    1.5746   -0.7514    0.9832 N   0  0  0  0  0  0  0  0  0  0  0  0
    0.5306   -1.8368    2.8557 C   0  0  0  0  0  0  0  0  0  0  0  0
    1.4971   -1.6337    3.5774 O   0  0  0  0  0  0  0  0  0  0  0  0
   -0.5641   -2.5365    3.2879 N   0  0  0  0  0  0  0  0  0  0  0  0
   -1.6941   -2.7791    2.5026 C   0  0  0  0  0  0  0  0  0  0  0  0
   -2.7247   -3.5380    3.0703 C   0  0  0  0  0  0  0  0  0  0  0  0
   -3.8700   -3.8162    2.3332 C   0  0  0  0  0  0  0  0  0  0  0  0
   -3.9802   -3.3378    1.0339 C   0  0  0  0  0  0  0  0  0  0  0  0
   -2.9478   -2.5765    0.4709 C   0  0  0  0  0  0  0  0  0  0  0  0
   -1.7798   -2.2684    1.1890 C   0  0  0  0  0  0  0  0  0  0  0  0
   -0.4927   -0.4495   -3.8126 H   0  0  0  0  0  0  0  0  0  0  0  0
   -0.3528    1.3118   -3.6229 H   0  0  0  0  0  0  0  0  0  0  0  0
    0.8926    0.4051   -4.5007 H   0  0  0  0  0  0  0  0  0  0  0  0
    4.5410    1.3044   -2.5488 H   0  0  0  0  0  0  0  0  0  0  0  0
    6.8460    1.8091   -1.9100 H   0  0  0  0  0  0  0  0  0  0  0  0
    6.0484    0.3437    2.0921 H   0  0  0  0  0  0  0  0  0  0  0  0
    3.7627   -0.1564    1.4672 H   0  0  0  0  0  0  0  0  0  0  0  0
   -1.1413   -1.6264   -1.4048 H   0  0  0  0  0  0  0  0  0  0  0  0
   -0.8899    1.3152    1.0586 H   0  0  0  0  0  0  0  0  0  0  0  0
   -2.4293    3.2238    1.0149 H   0  0  0  0  0  0  0  0  0  0  0  0
   -6.1440    2.6856   -1.0573 H   0  0  0  0  0  0  0  0  0  0  0  0
   -4.3770    1.5800   -2.4636 H   0  0  0  0  0  0  0  0  0  0  0  0
   -2.8683   -0.3205   -2.4212 H   0  0  0  0  0  0  0  0  0  0  0  0
   -0.5088   -2.8855    4.2349 H   0  0  0  0  0  0  0  0  0  0  0  0
   -2.6434   -3.9191    4.0849 H   0  0  0  0  0  0  0  0  0  0  0  0
   -4.6719   -4.4063    2.7698 H   0  0  0  0  0  0  0  0  0  0  0  0
   -4.8723   -3.5560    0.4509 H   0  0  0  0  0  0  0  0  0  0  0  0
   -3.0978   -2.2420   -0.5496 H   0  0  0  0  0  0  0  0  0  0  0  0
  1  2  1  0
  2  3  2  0
  3  4  1  0
  4  5  1  0
  5  6  2  0
  6  7  1  0
  7  8  2  0
  8  9  1  0
  9 10  2  0
  9 11  1  0
  8 12  1  0
 12 13  2  0
  4 14  1  0
 14 15  2  0
 15 16  1  0
 16 17  1  0
 17 18  2  0
 18 19  1  0
 19 20  2  0
 20 21  1  0
 21 22  1  0
 22 23  1  0
 22 24  1  0
 20 25  1  0
 25 26  2  0
 16 27  1  0
 27 28  1  0
 28 29  2  0
 28 30  1  0
 30 31  2  0
 30 32  1  0
 32 33  1  0
 33 34  2  0
 34 35  1  0
 35 36  2  0
 36 37  1  0
 37 38  2  0
 15  2  1  0
 26 17  1  0
 38 27  1  0
 13  5  1  0
 29 14  1  0
 38 33  1  0
  1 39  1  0
  1 40  1  0
  1 41  1  0
  6 42  1  0
  7 43  1  0
 12 44  1  0
 13 45  1  0
 16 46  1  0
 18 47  1  0
 19 48  1  0
 22 49  1  0
 25 50  1  0
 26 51  1  0
 32 52  1  0
 34 53  1  0
 35 54  1  0
 36 55  1  0
 37 56  1  0
M  CHG  2   9   1  11  -1
M  END
$$$$
