
     RDKit          3D

 38 40  0  0  0  0  0  0  0  0999 V2000
    2.3435    0.4271    2.1240 O   0  0  0  0  0  0  0  0  0  0  0  0
    1.4316   -0.1272    1.5125 C   0  0  0  0  0  0  0  0  0  0  0  0
    0.1585   -0.5509    2.2600 C   0  0  0  0  0  0  0  0  0  0  0  0
   -1.0531   -0.6183    1.4254 N   0  0  0  0  0  0  0  0  0  0  0  0
   -1.5678   -1.8796    1.1336 C   0  0  0  0  0  0  0  0  0  0  0  0
   -0.9456   -2.9201    1.3482 O   0  0  0  0  0  0  0  0  0  0  0  0
   -2.9647   -1.9340    0.5590 C   0  0  0  0  0  0  0  0  0  0  0  0
   -2.9519   -1.8919   -0.9527 C   0  0  0  0  0  0  0  0  0  0  0  0
   -1.8502   -0.6378   -1.6748 S   0  0  0  0  0  0  0  0  0  0  0  0
   -2.0214    0.6860   -0.4762 C   0  0  0  0  0  0  0  0  0  0  0  0
   -2.4909    1.9094   -0.9799 C   0  0  0  0  0  0  0  0  0  0  0  0
   -2.5220    3.0463   -0.1770 C   0  0  0  0  0  0  0  0  0  0  0  0
   -2.0623    2.9777    1.1315 C   0  0  0  0  0  0  0  0  0  0  0  0
   -1.5792    1.7701    1.6428 C   0  0  0  0  0  0  0  0  0  0  0  0
   -1.5656    0.6020    0.8620 C   0  0  0  0  0  0  0  0  0  0  0  0
    1.4659   -0.5293    0.1897 N   0  0  0  0  0  0  0  0  0  0  0  0
    2.4807   -0.3041   -0.7588 C   0  0  0  0  0  0  0  0  0  0  0  0
    3.6510    0.4142   -0.4959 C   0  0  0  0  0  0  0  0  0  0  0  0
    4.6084    0.5984   -1.4990 C   0  0  0  0  0  0  0  0  0  0  0  0
    4.3945    0.0632   -2.7619 C   0  0  0  0  0  0  0  0  0  0  0  0
    5.3142    0.2386   -3.7199 F   0  0  0  0  0  0  0  0  0  0  0  0
    3.2393   -0.6530   -3.0430 C   0  0  0  0  0  0  0  0  0  0  0  0
    2.2818   -0.8342   -2.0422 C   0  0  0  0  0  0  0  0  0  0  0  0
   -0.0102    0.1331    3.0963 H   0  0  0  0  0  0  0  0  0  0  0  0
    0.3667   -1.5311    2.7060 H   0  0  0  0  0  0  0  0  0  0  0  0
   -3.4384   -2.8618    0.9017 H   0  0  0  0  0  0  0  0  0  0  0  0
   -3.5818   -1.1318    0.9799 H   0  0  0  0  0  0  0  0  0  0  0  0
   -2.6286   -2.8601   -1.3487 H   0  0  0  0  0  0  0  0  0  0  0  0
   -3.9671   -1.7141   -1.3212 H   0  0  0  0  0  0  0  0  0  0  0  0
   -2.8139    1.9915   -2.0168 H   0  0  0  0  0  0  0  0  0  0  0  0
   -2.8869    3.9876   -0.5806 H   0  0  0  0  0  0  0  0  0  0  0  0
   -2.0751    3.8665    1.7590 H   0  0  0  0  0  0  0  0  0  0  0  0
   -1.2513    1.7675    2.6780 H   0  0  0  0  0  0  0  0  0  0  0  0
    0.6519   -1.0392   -0.1375 H   0  0  0  0  0  0  0  0  0  0  0  0
    3.8501    0.8471    0.4797 H   0  0  0  0  0  0  0  0  0  0  0  0
    5.5172    1.1559   -1.2961 H   0  0  0  0  0  0  0  0  0  0  0  0
    3.0898   -1.0653   -4.0348 H   0  0  0  0  0  0  0  0  0  0  0  0
    1.3830   -1.3985   -2.2788 H   0  0  0  0  0  0  0  0  0  0  0  0
  1  2  2  0
  2  3  1  0
  3  4  1  0
  4  5  1  0
  5  6  2  0
  5  7  1  0
  7  8  1  0
  8  9  1  0
  9 10  1  0
 10 11  2  0
 11 12  1  0
 12 13  2  0
 13 14  1  0
 14 15  2  0
  2 16  1  0
 16 17  1  0
 17 18  2  0
 18 19  1  0
 19 20  2  0
 20 21  1  0
 20 22  1  0
 22 23  2  0
 15  4  1  0
 23 17  1  0
 15 10  1  0
  3 24  1  0
  3 25  1  0
  7 26  1  0
  7 27  1  0
  8 28  1  0
  8 29  1  0
 11 30  1  0
 12 31  1  0
 13 32  1  0
 14 33  1  0
 16 34  1  0
 18 35  1  0
 19 36  1  0
 22 37  1  0
 23 38  1  0
M  END
$$$$
