
     RDKit          3D

 55 58  0  0  0  0  0  0  0  0999 V2000
   -6.6171    0.3168   -3.0749 C   0  0  0  0  0  0  0  0  0  0  0  0
   -6.3006   -0.2284   -1.8025 O   0  0  0  0  0  0  0  0  0  0  0  0
   -5.0717    0.0693   -1.2689 C   0  0  0  0  0  0  0  0  0  0  0  0
   -4.1030    0.8505   -1.9017 C   0  0  0  0  0  0  0  0  0  0  0  0
   -2.8730    1.0982   -1.2800 C   0  0  0  0  0  0  0  0  0  0  0  0
   -2.5725    0.5692   -0.0147 C   0  0  0  0  0  0  0  0  0  0  0  0
   -1.2741    0.8106    0.6491 C   0  0  0  0  0  0  0  0  0  0  0  0
   -0.0863    0.9492   -0.0469 C   0  0  0  0  0  0  0  0  0  0  0  0
    1.0825    1.1646    0.6822 C   0  0  0  0  0  0  0  0  0  0  0  0
    2.3360    1.2885   -0.0815 C   0  0  0  0  0  0  0  0  0  0  0  0
    2.7657    2.4198   -0.2844 O   0  0  0  0  0  0  0  0  0  0  0  0
    2.9444    0.1205   -0.5546 N   0  0  0  0  0  0  0  0  0  0  0  0
    2.6533   -1.2050    0.0018 C   0  0  0  0  0  0  0  0  0  0  0  0
    2.9075   -2.3132   -1.0139 C   0  0  0  0  0  0  0  0  0  0  0  0
    4.3042   -2.2062   -1.6182 C   0  0  0  0  0  0  0  0  0  0  0  0
    4.5168   -0.8172   -2.2317 C   0  0  0  0  0  0  0  0  0  0  0  0
    5.9199   -0.6667   -2.7828 C   0  0  0  0  0  0  0  0  0  0  0  0
    6.8506   -0.8003   -1.8136 F   0  0  0  0  0  0  0  0  0  0  0  0
    6.0935    0.5420   -3.3582 F   0  0  0  0  0  0  0  0  0  0  0  0
    6.1714   -1.6030   -3.7244 F   0  0  0  0  0  0  0  0  0  0  0  0
    4.2529    0.2737   -1.1972 C   0  0  0  0  0  0  0  0  0  0  0  0
    1.0708    1.2713    2.0847 C   0  0  0  0  0  0  0  0  0  0  0  0
    2.2138    1.5192    2.8845 C   0  0  0  0  0  0  0  0  0  0  0  0
    2.1112    1.5945    4.2714 C   0  0  0  0  0  0  0  0  0  0  0  0
    0.8726    1.4239    4.8738 C   0  0  0  0  0  0  0  0  0  0  0  0
   -0.2550    1.1826    4.0843 C   0  0  0  0  0  0  0  0  0  0  0  0
   -0.1807    1.1048    2.6997 C   0  0  0  0  0  0  0  0  0  0  0  0
   -1.3085    0.8684    2.0050 N   0  0  0  0  0  0  0  0  0  0  0  0
   -3.5656   -0.2068    0.6149 C   0  0  0  0  0  0  0  0  0  0  0  0
   -4.8032   -0.4601    0.0064 C   0  0  0  0  0  0  0  0  0  0  0  0
   -5.8022   -1.2170    0.5688 O   0  0  0  0  0  0  0  0  0  0  0  0
   -5.6288   -1.6368    1.9148 C   0  0  0  0  0  0  0  0  0  0  0  0
   -5.9362   -0.0589   -3.8458 H   0  0  0  0  0  0  0  0  0  0  0  0
   -7.6279   -0.0105   -3.3370 H   0  0  0  0  0  0  0  0  0  0  0  0
   -6.6194    1.4114   -3.0470 H   0  0  0  0  0  0  0  0  0  0  0  0
   -4.2724    1.2894   -2.8793 H   0  0  0  0  0  0  0  0  0  0  0  0
   -2.1579    1.7326   -1.8002 H   0  0  0  0  0  0  0  0  0  0  0  0
   -0.0465    0.8775   -1.1282 H   0  0  0  0  0  0  0  0  0  0  0  0
    3.2978   -1.3340    0.8799 H   0  0  0  0  0  0  0  0  0  0  0  0
    1.6196   -1.2724    0.3491 H   0  0  0  0  0  0  0  0  0  0  0  0
    2.7815   -3.2910   -0.5361 H   0  0  0  0  0  0  0  0  0  0  0  0
    2.1625   -2.2474   -1.8168 H   0  0  0  0  0  0  0  0  0  0  0  0
    5.0542   -2.3975   -0.8403 H   0  0  0  0  0  0  0  0  0  0  0  0
    4.4306   -2.9809   -2.3834 H   0  0  0  0  0  0  0  0  0  0  0  0
    3.8045   -0.6951   -3.0585 H   0  0  0  0  0  0  0  0  0  0  0  0
    5.0041    0.2545   -0.3973 H   0  0  0  0  0  0  0  0  0  0  0  0
    4.3176    1.2577   -1.6759 H   0  0  0  0  0  0  0  0  0  0  0  0
    3.1899    1.6692    2.4258 H   0  0  0  0  0  0  0  0  0  0  0  0
    2.9931    1.7926    4.8756 H   0  0  0  0  0  0  0  0  0  0  0  0
    0.7753    1.4842    5.9547 H   0  0  0  0  0  0  0  0  0  0  0  0
   -1.2230    1.0565    4.5647 H   0  0  0  0  0  0  0  0  0  0  0  0
   -3.3399   -0.6153    1.5962 H   0  0  0  0  0  0  0  0  0  0  0  0
   -4.8004   -2.3473    2.0007 H   0  0  0  0  0  0  0  0  0  0  0  0
   -5.4901   -0.7814    2.5843 H   0  0  0  0  0  0  0  0  0  0  0  0
   -6.5421   -2.1547    2.2233 H   0  0  0  0  0  0  0  0  0  0  0  0
  1  2  1  0
  2  3  1  0
  3  4  2  0
  4  5  1  0
  5  6  2  0
  6  7  1  0
  7  8  2  0
  8  9  1  0
  9 10  1  0
 10 11  2  0
 10 12  1  0
 12 13  1  0
 13 14  1  0
 14 15  1  0
 15 16  1  0
 16 17  1  0
 17 18  1  0
 17 19  1  0
 17 20  1  0
 16 21  1  0
  9 22  2  0
 22 23  1  0
 23 24  2  0
 24 25  1  0
 25 26  2  0
 26 27  1  0
 27 28  2  0
  6 29  1  0
 29 30  2  0
 30 31  1  0
 31 32  1  0
 30  3  1  0
 28  7  1  0
 21 12  1  0
 27 22  1  0
  1 33  1  0
  1 34  1  0
  1 35  1  0
  4 36  1  0
  5 37  1  0
  8 38  1  0
 13 39  1  0
 13 40  1  0
 14 41  1  0
 14 42  1  0
 15 43  1  0
 15 44  1  0
 16 45  1  0
 21 46  1  0
 21 47  1  0
 23 48  1  0
 24 49  1  0
 25 50  1  0
 26 51  1  0
 29 52  1  0
 32 53  1  0
 32 54  1  0
 32 55  1  0
M  END
$$$$
