
     RDKit          3D

 46 49  0  0  0  0  0  0  0  0999 V2000
    4.1580   -1.3346    0.6234 C   0  0  0  0  0  0  0  0  0  0  0  0
    4.8081   -1.0762   -0.7004 C   0  0  0  0  0  0  0  0  0  0  0  0
    4.2868   -1.7995   -1.8981 C   0  0  0  0  0  0  0  0  0  0  0  0
    3.0743   -2.0256   -2.2899 N   0  0  0  0  0  0  0  0  0  0  0  0
    2.0524   -1.4553   -1.5980 N   0  0  0  0  0  0  0  0  0  0  0  0
    0.7281   -1.6902   -1.9301 C   0  0  0  0  0  0  0  0  0  0  0  0
    0.3269   -2.4608   -2.7974 O   0  0  0  0  0  0  0  0  0  0  0  0
   -0.1905   -0.8904   -1.1026 C   0  0  0  0  0  0  0  0  0  0  0  0
   -1.6063   -0.8702   -1.1760 C   0  0  0  0  0  0  0  0  0  0  0  0
   -2.0310    0.0260   -0.2152 C   0  0  0  0  0  0  0  0  0  0  0  0
   -3.3696    0.4525    0.1887 C   0  0  0  0  0  0  0  0  0  0  0  0
   -3.6033    1.7404    0.6843 C   0  0  0  0  0  0  0  0  0  0  0  0
   -4.8891    2.1341    1.0698 C   0  0  0  0  0  0  0  0  0  0  0  0
   -5.9721    1.2493    0.9670 C   0  0  0  0  0  0  0  0  0  0  0  0
   -7.2689    1.6292    1.3507 C   0  0  0  0  0  0  0  0  0  0  0  0
   -8.3358    0.7364    1.2388 C   0  0  0  0  0  0  0  0  0  0  0  0
   -8.1203   -0.5454    0.7416 C   0  0  0  0  0  0  0  0  0  0  0  0
   -6.8372   -0.9376    0.3566 C   0  0  0  0  0  0  0  0  0  0  0  0
   -5.7524   -0.0512    0.4629 C   0  0  0  0  0  0  0  0  0  0  0  0
   -4.4536   -0.4310    0.0788 C   0  0  0  0  0  0  0  0  0  0  0  0
   -0.8757    0.4655    0.3776 N   0  0  0  0  0  0  0  0  0  0  0  0
    0.2520   -0.0553   -0.1393 N   0  0  0  0  0  0  0  0  0  0  0  0
    5.9003   -0.3299   -0.9473 C   0  0  0  0  0  0  0  0  0  0  0  0
    6.5826    0.4403    0.0377 C   0  0  0  0  0  0  0  0  0  0  0  0
    7.7939    1.1138   -0.0923 C   0  0  0  0  0  0  0  0  0  0  0  0
    8.0776    1.7530    1.1378 C   0  0  0  0  0  0  0  0  0  0  0  0
    7.0265    1.4512    1.9637 C   0  0  0  0  0  0  0  0  0  0  0  0
    6.1271    0.6727    1.3171 O   0  0  0  0  0  0  0  0  0  0  0  0
    3.5314   -2.2324    0.5938 H   0  0  0  0  0  0  0  0  0  0  0  0
    4.9023   -1.5182    1.4049 H   0  0  0  0  0  0  0  0  0  0  0  0
    3.5315   -0.4885    0.9217 H   0  0  0  0  0  0  0  0  0  0  0  0
    5.0763   -2.1996   -2.5607 H   0  0  0  0  0  0  0  0  0  0  0  0
    2.2198   -0.7305   -0.9049 H   0  0  0  0  0  0  0  0  0  0  0  0
   -2.2214   -1.4391   -1.8605 H   0  0  0  0  0  0  0  0  0  0  0  0
   -2.8000    2.4691    0.7581 H   0  0  0  0  0  0  0  0  0  0  0  0
   -5.0404    3.1438    1.4459 H   0  0  0  0  0  0  0  0  0  0  0  0
   -7.4578    2.6271    1.7400 H   0  0  0  0  0  0  0  0  0  0  0  0
   -9.3345    1.0435    1.5382 H   0  0  0  0  0  0  0  0  0  0  0  0
   -8.9504   -1.2415    0.6520 H   0  0  0  0  0  0  0  0  0  0  0  0
   -6.6888   -1.9443   -0.0297 H   0  0  0  0  0  0  0  0  0  0  0  0
   -4.2886   -1.4376   -0.3019 H   0  0  0  0  0  0  0  0  0  0  0  0
   -0.7920    1.1142    1.1526 H   0  0  0  0  0  0  0  0  0  0  0  0
    6.3014   -0.2705   -1.9574 H   0  0  0  0  0  0  0  0  0  0  0  0
    8.4051    1.1347   -0.9844 H   0  0  0  0  0  0  0  0  0  0  0  0
    8.9377    2.3580    1.3879 H   0  0  0  0  0  0  0  0  0  0  0  0
    6.7798    1.7008    2.9863 H   0  0  0  0  0  0  0  0  0  0  0  0
  1  2  1  0
  2  3  1  0
  3  4  2  3
  4  5  1  0
  5  6  1  0
  6  7  2  0
  6  8  1  0
  8  9  1  0
  9 10  2  0
 10 11  1  0
 11 12  2  0
 12 13  1  0
 13 14  2  0
 14 15  1  0
 15 16  2  0
 16 17  1  0
 17 18  2  0
 18 19  1  0
 19 20  2  0
 10 21  1  0
 21 22  1  0
  2 23  2  3
 23 24  1  0
 24 25  2  0
 25 26  1  0
 26 27  2  0
 27 28  1  0
 22  8  2  0
 28 24  1  0
 20 11  1  0
 19 14  1  0
  1 29  1  0
  1 30  1  0
  1 31  1  0
  3 32  1  0
  5 33  1  0
  9 34  1  0
 12 35  1  0
 13 36  1  0
 15 37  1  0
 16 38  1  0
 17 39  1  0
 18 40  1  0
 20 41  1  0
 21 42  1  0
 23 43  1  0
 25 44  1  0
 26 45  1  0
 27 46  1  0
M  END
$$$$
