
     RDKit          3D

 50 52  0  0  0  0  0  0  0  0999 V2000
    7.2133    0.0408   -2.7305 C   0  0  0  0  0  0  0  0  0  0  0  0
    5.7899   -0.4203   -2.8382 C   0  0  0  0  0  0  0  0  0  0  0  0
    5.4505   -1.7478   -2.5519 C   0  0  0  0  0  0  0  0  0  0  0  0
    4.1200   -2.1700   -2.6252 C   0  0  0  0  0  0  0  0  0  0  0  0
    3.1112   -1.2665   -2.9696 C   0  0  0  0  0  0  0  0  0  0  0  0
    1.4172   -1.8152   -3.0533 S   0  0  0  0  0  0  0  0  0  0  0  0
    0.8907   -1.3944   -1.3591 C   0  0  0  0  0  0  0  0  0  0  0  0
    0.5153    0.0788   -1.1802 C   0  0  0  0  0  0  0  0  0  0  0  0
    0.4756    0.8621   -2.1301 O   0  0  0  0  0  0  0  0  0  0  0  0
    0.2081    0.5041    0.1209 N   0  0  0  0  0  0  0  0  0  0  0  0
    0.1281   -0.3987    1.2797 C   0  0  0  0  0  0  0  0  0  0  0  0
   -1.2774   -0.8042    1.5421 C   0  0  0  0  0  0  0  0  0  0  0  0
   -2.2299   -0.1735    2.1910 N   0  0  0  0  0  0  0  0  0  0  0  0
   -3.2919   -1.0507    2.0921 C   0  0  0  0  0  0  0  0  0  0  0  0
   -4.5999   -0.7594    2.6703 C   0  0  0  0  0  0  0  0  0  0  0  0
   -4.8266    0.4600    3.3273 C   0  0  0  0  0  0  0  0  0  0  0  0
   -6.0752    0.7475    3.8852 C   0  0  0  0  0  0  0  0  0  0  0  0
   -7.1106   -0.1806    3.7934 C   0  0  0  0  0  0  0  0  0  0  0  0
   -6.9012   -1.3944    3.1420 C   0  0  0  0  0  0  0  0  0  0  0  0
   -5.6530   -1.6827    2.5829 C   0  0  0  0  0  0  0  0  0  0  0  0
   -2.9964   -2.1816    1.4277 N   0  0  0  0  0  0  0  0  0  0  0  0
   -1.6655   -2.0171    1.0597 O   0  0  0  0  0  0  0  0  0  0  0  0
   -0.1929    1.9097    0.3617 C   0  0  0  0  0  0  0  0  0  0  0  0
   -1.4798    2.3018   -0.3681 C   0  0  0  0  0  0  0  0  0  0  0  0
    0.9442    2.8918    0.0690 C   0  0  0  0  0  0  0  0  0  0  0  0
    3.4461    0.0585   -3.2542 C   0  0  0  0  0  0  0  0  0  0  0  0
    4.7757    0.4821   -3.1793 C   0  0  0  0  0  0  0  0  0  0  0  0
    7.4240    0.3686   -1.7075 H   0  0  0  0  0  0  0  0  0  0  0  0
    7.4082    0.8725   -3.4161 H   0  0  0  0  0  0  0  0  0  0  0  0
    7.9056   -0.7662   -2.9945 H   0  0  0  0  0  0  0  0  0  0  0  0
    6.2211   -2.4646   -2.2770 H   0  0  0  0  0  0  0  0  0  0  0  0
    3.8811   -3.2094   -2.4143 H   0  0  0  0  0  0  0  0  0  0  0  0
    1.6994   -1.6642   -0.6750 H   0  0  0  0  0  0  0  0  0  0  0  0
    0.0093   -2.0016   -1.1351 H   0  0  0  0  0  0  0  0  0  0  0  0
    0.7469   -1.2861    1.1353 H   0  0  0  0  0  0  0  0  0  0  0  0
    0.5411    0.1220    2.1511 H   0  0  0  0  0  0  0  0  0  0  0  0
   -4.0299    1.1969    3.4097 H   0  0  0  0  0  0  0  0  0  0  0  0
   -6.2379    1.6961    4.3908 H   0  0  0  0  0  0  0  0  0  0  0  0
   -8.0820    0.0430    4.2274 H   0  0  0  0  0  0  0  0  0  0  0  0
   -7.7087   -2.1193    3.0691 H   0  0  0  0  0  0  0  0  0  0  0  0
   -5.5121   -2.6372    2.0785 H   0  0  0  0  0  0  0  0  0  0  0  0
   -0.4038    2.0037    1.4351 H   0  0  0  0  0  0  0  0  0  0  0  0
   -1.8218    3.2873   -0.0333 H   0  0  0  0  0  0  0  0  0  0  0  0
   -2.2803    1.5825   -0.1676 H   0  0  0  0  0  0  0  0  0  0  0  0
   -1.3458    2.3556   -1.4524 H   0  0  0  0  0  0  0  0  0  0  0  0
    1.1888    2.9427   -0.9959 H   0  0  0  0  0  0  0  0  0  0  0  0
    0.6706    3.9018    0.3920 H   0  0  0  0  0  0  0  0  0  0  0  0
    1.8536    2.6003    0.6057 H   0  0  0  0  0  0  0  0  0  0  0  0
    2.6752    0.7739   -3.5351 H   0  0  0  0  0  0  0  0  0  0  0  0
    5.0117    1.5217   -3.3965 H   0  0  0  0  0  0  0  0  0  0  0  0
  1  2  1  0
  2  3  2  0
  3  4  1  0
  4  5  2  0
  5  6  1  0
  6  7  1  0
  7  8  1  0
  8  9  2  0
  8 10  1  0
 10 11  1  0
 11 12  1  0
 12 13  2  0
 13 14  1  0
 14 15  1  0
 15 16  2  0
 16 17  1  0
 17 18  2  0
 18 19  1  0
 19 20  2  0
 14 21  2  0
 21 22  1  0
 10 23  1  0
 23 24  1  0
 23 25  1  0
  5 26  1  0
 26 27  2  0
 27  2  1  0
 22 12  1  0
 20 15  1  0
  1 28  1  0
  1 29  1  0
  1 30  1  0
  3 31  1  0
  4 32  1  0
  7 33  1  0
  7 34  1  0
 11 35  1  0
 11 36  1  0
 16 37  1  0
 17 38  1  0
 18 39  1  0
 19 40  1  0
 20 41  1  0
 23 42  1  0
 24 43  1  0
 24 44  1  0
 24 45  1  0
 25 46  1  0
 25 47  1  0
 25 48  1  0
 26 49  1  0
 27 50  1  0
M  END
$$$$
