
     RDKit          3D

 43 45  0  0  0  0  0  0  0  0999 V2000
    4.2103    0.0061    1.1708 C   0  0  0  0  0  0  0  0  0  0  0  0
    4.0747   -0.0830   -0.3472 C   0  0  0  0  0  0  0  0  0  0  0  0
    5.4442   -0.3004   -0.9895 C   0  0  0  0  0  0  0  0  0  0  0  0
    2.9937   -1.4906   -0.8184 S   0  0  0  0  0  0  0  0  0  0  0  0
    1.3678   -0.8506   -0.4372 C   0  0  0  0  0  0  0  0  0  0  0  0
    0.3067   -1.7289   -0.4187 C   0  0  0  0  0  0  0  0  0  0  0  0
   -0.9421   -1.2110   -0.1380 C   0  0  0  0  0  0  0  0  0  0  0  0
   -2.0593   -2.0704   -0.0857 N   0  0  0  0  0  0  0  0  0  0  0  0
   -3.2794   -1.4093    0.4335 C   0  0  0  0  0  0  0  0  0  0  0  0
   -4.4191   -2.4339    0.5399 C   0  0  0  0  0  0  0  0  0  0  0  0
   -4.6828   -3.0574   -0.7281 O   0  0  0  0  0  0  0  0  0  0  0  0
   -3.5070   -3.7346   -1.1980 C   0  0  0  0  0  0  0  0  0  0  0  0
   -2.3231   -2.7669   -1.3660 C   0  0  0  0  0  0  0  0  0  0  0  0
   -1.0936    0.0957    0.1315 N   0  0  0  0  0  0  0  0  0  0  0  0
   -0.0068    0.8888    0.0851 C   0  0  0  0  0  0  0  0  0  0  0  0
   -0.1899    2.3270    0.3721 C   0  0  0  0  0  0  0  0  0  0  0  0
   -1.4596    2.8642    0.6624 C   0  0  0  0  0  0  0  0  0  0  0  0
   -1.6353    4.2250    0.9351 C   0  0  0  0  0  0  0  0  0  0  0  0
   -0.5412    5.0843    0.9241 C   0  0  0  0  0  0  0  0  0  0  0  0
    0.7261    4.5848    0.6408 C   0  0  0  0  0  0  0  0  0  0  0  0
    0.8973    3.2234    0.3684 C   0  0  0  0  0  0  0  0  0  0  0  0
    1.2314    0.4604   -0.2024 N   0  0  0  0  0  0  0  0  0  0  0  0
    3.2473    0.1858    1.6590 H   0  0  0  0  0  0  0  0  0  0  0  0
    4.8695    0.8377    1.4442 H   0  0  0  0  0  0  0  0  0  0  0  0
    4.6425   -0.9075    1.5945 H   0  0  0  0  0  0  0  0  0  0  0  0
    3.6634    0.8509   -0.7442 H   0  0  0  0  0  0  0  0  0  0  0  0
    5.9207   -1.2228   -0.6381 H   0  0  0  0  0  0  0  0  0  0  0  0
    5.3695   -0.3452   -2.0819 H   0  0  0  0  0  0  0  0  0  0  0  0
    6.1155    0.5303   -0.7440 H   0  0  0  0  0  0  0  0  0  0  0  0
    0.4529   -2.7866   -0.5906 H   0  0  0  0  0  0  0  0  0  0  0  0
   -3.5899   -0.6058   -0.2476 H   0  0  0  0  0  0  0  0  0  0  0  0
   -3.0977   -0.9850    1.4283 H   0  0  0  0  0  0  0  0  0  0  0  0
   -5.3388   -1.9349    0.8611 H   0  0  0  0  0  0  0  0  0  0  0  0
   -4.1844   -3.2113    1.2768 H   0  0  0  0  0  0  0  0  0  0  0  0
   -3.2579   -4.5414   -0.4981 H   0  0  0  0  0  0  0  0  0  0  0  0
   -3.7512   -4.1922   -2.1618 H   0  0  0  0  0  0  0  0  0  0  0  0
   -1.4551   -3.3449   -1.7006 H   0  0  0  0  0  0  0  0  0  0  0  0
   -2.5670   -2.0273   -2.1401 H   0  0  0  0  0  0  0  0  0  0  0  0
   -2.3336    2.2148    0.6774 H   0  0  0  0  0  0  0  0  0  0  0  0
   -2.6280    4.6091    1.1553 H   0  0  0  0  0  0  0  0  0  0  0  0
   -0.6760    6.1417    1.1357 H   0  0  0  0  0  0  0  0  0  0  0  0
    1.5847    5.2511    0.6304 H   0  0  0  0  0  0  0  0  0  0  0  0
    1.9004    2.8606    0.1498 H   0  0  0  0  0  0  0  0  0  0  0  0
  1  2  1  0
  2  3  1  0
  2  4  1  0
  4  5  1  0
  5  6  2  0
  6  7  1  0
  7  8  1  0
  8  9  1  0
  9 10  1  0
 10 11  1  0
 11 12  1  0
 12 13  1  0
  7 14  2  0
 14 15  1  0
 15 16  1  0
 16 17  2  0
 17 18  1  0
 18 19  2  0
 19 20  1  0
 20 21  2  0
 15 22  2  0
 22  5  1  0
 13  8  1  0
 21 16  1  0
  1 23  1  0
  1 24  1  0
  1 25  1  0
  2 26  1  0
  3 27  1  0
  3 28  1  0
  3 29  1  0
  6 30  1  0
  9 31  1  0
  9 32  1  0
 10 33  1  0
 10 34  1  0
 12 35  1  0
 12 36  1  0
 13 37  1  0
 13 38  1  0
 17 39  1  0
 18 40  1  0
 19 41  1  0
 20 42  1  0
 21 43  1  0
M  END
$$$$
