
     RDKit          3D

 47 49  0  0  0  0  0  0  0  0999 V2000
   -6.3499   -1.4099   -1.1834 C   0  0  0  0  0  0  0  0  0  0  0  0
   -5.9388   -0.0708   -0.7711 N   0  0  0  0  0  0  0  0  0  0  0  0
   -4.6948    0.3602   -1.4408 C   0  0  0  0  0  0  0  0  0  0  0  0
   -3.4165    0.1735   -0.6029 C   0  0  0  0  0  0  0  0  0  0  0  0
   -3.4852    0.9074    0.7030 N   0  0  0  0  0  0  0  0  0  0  0  0
   -2.5043    2.2955    0.8283 S   0  0  0  0  0  6  0  0  0  0  0  0
   -2.6749    2.8537    2.1523 O   0  0  0  0  0  0  0  0  0  0  0  0
   -2.7277    3.0894   -0.3620 O   0  0  0  0  0  0  0  0  0  0  0  0
   -0.8662    1.6165    0.7539 C   0  0  0  0  0  0  0  0  0  0  0  0
   -0.4629    0.7064    1.7309 C   0  0  0  0  0  0  0  0  0  0  0  0
    0.8234    0.1535    1.6819 C   0  0  0  0  0  0  0  0  0  0  0  0
    1.7125    0.5041    0.6648 C   0  0  0  0  0  0  0  0  0  0  0  0
    3.0289    0.0166    0.5099 N   0  0  0  0  0  0  0  0  0  0  0  0
    3.7931   -0.9059    1.1862 C   0  0  0  0  0  0  0  0  0  0  0  0
    3.4129   -1.8730    2.4927 S   0  0  0  0  0  0  0  0  0  0  0  0
    5.0823   -1.0569    0.6936 N   0  0  0  0  0  0  0  0  0  0  0  0
    5.6833   -0.4343   -0.3835 C   0  0  0  0  0  0  0  0  0  0  0  0
    5.1503    0.4110   -1.0920 O   0  0  0  0  0  0  0  0  0  0  0  0
    7.0881   -0.8494   -0.6226 C   0  0  0  0  0  0  0  0  0  0  0  0
    7.4622   -2.3051   -0.7828 C   0  0  0  0  0  0  0  0  0  0  0  0
    7.4826   -1.3953   -1.9752 C   0  0  0  0  0  0  0  0  0  0  0  0
    1.2882    1.4335   -0.3022 C   0  0  0  0  0  0  0  0  0  0  0  0
    0.0066    1.9907   -0.2641 C   0  0  0  0  0  0  0  0  0  0  0  0
   -4.8919    1.1440    1.1664 C   0  0  0  0  0  0  0  0  0  0  0  0
   -5.8198    0.0088    0.7000 C   0  0  0  0  0  0  0  0  0  0  0  0
   -7.2877   -1.6926   -0.6924 H   0  0  0  0  0  0  0  0  0  0  0  0
   -6.5401   -1.4379   -2.2620 H   0  0  0  0  0  0  0  0  0  0  0  0
   -5.5932   -2.1665   -0.9471 H   0  0  0  0  0  0  0  0  0  0  0  0
   -4.5759   -0.1382   -2.4109 H   0  0  0  0  0  0  0  0  0  0  0  0
   -4.8046    1.4279   -1.6709 H   0  0  0  0  0  0  0  0  0  0  0  0
   -2.5519    0.4923   -1.1934 H   0  0  0  0  0  0  0  0  0  0  0  0
   -3.2604   -0.8888   -0.3789 H   0  0  0  0  0  0  0  0  0  0  0  0
   -1.1407    0.4255    2.5348 H   0  0  0  0  0  0  0  0  0  0  0  0
    1.0843   -0.5383    2.4713 H   0  0  0  0  0  0  0  0  0  0  0  0
    3.5274    0.4345   -0.2785 H   0  0  0  0  0  0  0  0  0  0  0  0
    5.6349   -1.7341    1.2022 H   0  0  0  0  0  0  0  0  0  0  0  0
    7.8154   -0.1947   -0.1511 H   0  0  0  0  0  0  0  0  0  0  0  0
    8.4152   -2.6325   -0.3816 H   0  0  0  0  0  0  0  0  0  0  0  0
    6.6866   -3.0627   -0.7527 H   0  0  0  0  0  0  0  0  0  0  0  0
    6.7089   -1.5153   -2.7264 H   0  0  0  0  0  0  0  0  0  0  0  0
    8.4441   -1.0983   -2.3787 H   0  0  0  0  0  0  0  0  0  0  0  0
    1.9576    1.7385   -1.1053 H   0  0  0  0  0  0  0  0  0  0  0  0
   -0.2929    2.7089   -1.0240 H   0  0  0  0  0  0  0  0  0  0  0  0
   -4.8931    1.1771    2.2616 H   0  0  0  0  0  0  0  0  0  0  0  0
   -5.2637    2.1050    0.7908 H   0  0  0  0  0  0  0  0  0  0  0  0
   -6.8189    0.1612    1.1244 H   0  0  0  0  0  0  0  0  0  0  0  0
   -5.4330   -0.9350    1.1085 H   0  0  0  0  0  0  0  0  0  0  0  0
  1  2  1  0
  2  3  1  0
  3  4  1  0
  4  5  1  0
  5  6  1  0
  6  7  2  0
  6  8  2  0
  6  9  1  0
  9 10  2  0
 10 11  1  0
 11 12  2  0
 12 13  1  0
 13 14  1  0
 14 15  2  0
 14 16  1  0
 16 17  1  0
 17 18  2  0
 17 19  1  0
 19 20  1  0
 20 21  1  0
 12 22  1  0
 22 23  2  0
  5 24  1  0
 24 25  1  0
 25  2  1  0
 23  9  1  0
 21 19  1  0
  1 26  1  0
  1 27  1  0
  1 28  1  0
  3 29  1  0
  3 30  1  0
  4 31  1  0
  4 32  1  0
 10 33  1  0
 11 34  1  0
 13 35  1  0
 16 36  1  0
 19 37  1  0
 20 38  1  0
 20 39  1  0
 21 40  1  0
 21 41  1  0
 22 42  1  0
 23 43  1  0
 24 44  1  0
 24 45  1  0
 25 46  1  0
 25 47  1  0
M  END
$$$$
