
     RDKit          3D

 40 41  0  0  0  0  0  0  0  0999 V2000
   -0.8827    3.8218   -1.2034 O   0  0  0  0  0  0  0  0  0  0  0  0
   -0.5519    2.7049   -0.8382 C   0  0  0  0  0  0  0  0  0  0  0  0
   -0.7517    1.6468   -1.6392 O   0  0  0  0  0  0  0  0  0  0  0  0
    0.1415    2.3829    0.4553 C   0  0  0  0  0  0  0  0  0  0  0  0
   -0.3949    1.0990    1.1006 C   0  0  0  0  0  0  0  0  0  0  0  0
    0.0321    1.0509    2.5284 N   0  0  0  0  0  0  0  0  0  0  0  0
   -0.5737   -0.0578    3.2829 C   0  0  0  0  0  0  0  0  0  0  0  0
   -2.0386    0.1164    3.4747 C   0  0  0  0  0  0  0  0  0  0  0  0
   -3.1403   -0.5921    3.0416 C   0  0  0  0  0  0  0  0  0  0  0  0
   -4.2737    0.0918    3.5420 C   0  0  0  0  0  0  0  0  0  0  0  0
   -3.7932    1.1710    4.2464 C   0  0  0  0  0  0  0  0  0  0  0  0
   -2.4363    1.1958    4.2105 O   0  0  0  0  0  0  0  0  0  0  0  0
    0.0954   -0.1587    0.3596 C   0  0  0  0  0  0  0  0  0  0  0  0
   -0.6112   -1.1420    0.1536 O   0  0  0  0  0  0  0  0  0  0  0  0
    1.4156   -0.0780    0.0374 O   0  0  0  0  0  0  0  0  0  0  0  0
    1.9628   -1.2228   -0.6409 C   0  0  0  0  0  0  0  0  0  0  0  0
    1.6074   -1.2050   -2.1282 C   0  0  0  0  0  0  0  0  0  0  0  0
    2.0318   -2.4719   -2.8528 C   0  0  0  0  0  0  0  0  0  0  0  0
    2.1651   -1.9789   -4.2714 C   0  0  0  0  0  0  0  0  0  0  0  0
    2.7621   -0.6026   -4.0687 C   0  0  0  0  0  0  0  0  0  0  0  0
    2.2911   -0.1238   -2.8002 O   0  0  0  0  0  0  0  0  0  0  0  0
   -1.1410    2.0313   -2.4545 H   0  0  0  0  0  0  0  0  0  0  0  0
    1.2208    2.3557    0.2744 H   0  0  0  0  0  0  0  0  0  0  0  0
   -0.0519    3.2335    1.1225 H   0  0  0  0  0  0  0  0  0  0  0  0
   -1.4900    1.1166    1.0292 H   0  0  0  0  0  0  0  0  0  0  0  0
   -0.2625    1.9129    2.9913 H   0  0  0  0  0  0  0  0  0  0  0  0
   -0.3516   -1.0255    2.8222 H   0  0  0  0  0  0  0  0  0  0  0  0
   -0.0993   -0.0863    4.2707 H   0  0  0  0  0  0  0  0  0  0  0  0
   -3.1206   -1.4849    2.4312 H   0  0  0  0  0  0  0  0  0  0  0  0
   -5.3140   -0.1653    3.4043 H   0  0  0  0  0  0  0  0  0  0  0  0
   -4.2603    1.9733    4.8003 H   0  0  0  0  0  0  0  0  0  0  0  0
    3.0493   -1.1618   -0.5093 H   0  0  0  0  0  0  0  0  0  0  0  0
    1.6237   -2.1456   -0.1546 H   0  0  0  0  0  0  0  0  0  0  0  0
    0.5358   -1.0258   -2.2718 H   0  0  0  0  0  0  0  0  0  0  0  0
    1.3106   -3.2860   -2.7411 H   0  0  0  0  0  0  0  0  0  0  0  0
    3.0066   -2.8229   -2.4930 H   0  0  0  0  0  0  0  0  0  0  0  0
    1.1732   -1.8933   -4.7304 H   0  0  0  0  0  0  0  0  0  0  0  0
    2.7811   -2.6224   -4.9052 H   0  0  0  0  0  0  0  0  0  0  0  0
    3.8555   -0.6500   -4.0188 H   0  0  0  0  0  0  0  0  0  0  0  0
    2.4778    0.0992   -4.8575 H   0  0  0  0  0  0  0  0  0  0  0  0
  1  2  2  0
  2  3  1  0
  2  4  1  0
  4  5  1  0
  5  6  1  0
  6  7  1  0
  7  8  1  0
  8  9  2  0
  9 10  1  0
 10 11  2  0
 11 12  1  0
  5 13  1  0
 13 14  2  0
 13 15  1  0
 15 16  1  0
 16 17  1  0
 17 18  1  0
 18 19  1  0
 19 20  1  0
 20 21  1  0
 12  8  1  0
 21 17  1  0
  3 22  1  0
  4 23  1  0
  4 24  1  0
  5 25  1  0
  6 26  1  0
  7 27  1  0
  7 28  1  0
  9 29  1  0
 10 30  1  0
 11 31  1  0
 16 32  1  0
 16 33  1  0
 17 34  1  0
 18 35  1  0
 18 36  1  0
 19 37  1  0
 19 38  1  0
 20 39  1  0
 20 40  1  0
M  END
$$$$
