
     RDKit          3D

 52 56  0  0  0  0  0  0  0  0999 V2000
    0.4004    0.3970   -3.0115 O   0  0  0  0  0  0  0  0  0  0  0  0
    0.2668    0.3178   -1.7941 C   0  0  0  0  0  0  0  0  0  0  0  0
    1.4533    0.5858   -0.9615 C   0  0  0  0  0  0  0  0  0  0  0  0
    2.4551   -0.3817   -0.9668 C   0  0  0  0  0  0  0  0  0  0  0  0
    3.5736   -0.1615   -0.1840 C   0  0  0  0  0  0  0  0  0  0  0  0
    4.6758   -1.1301   -0.0782 C   0  0  0  0  0  0  0  0  0  0  0  0
    5.0225   -1.6256    1.1962 C   0  0  0  0  0  0  0  0  0  0  0  0
    6.0484   -2.5591    1.3650 C   0  0  0  0  0  0  0  0  0  0  0  0
    6.7593   -3.0154    0.2608 C   0  0  0  0  0  0  0  0  0  0  0  0
    6.4494   -2.5309   -1.0086 C   0  0  0  0  0  0  0  0  0  0  0  0
    5.4211   -1.5937   -1.1791 C   0  0  0  0  0  0  0  0  0  0  0  0
    5.1517   -1.0185   -2.7904 Cl  0  0  0  0  0  0  0  0  0  0  0  0
    3.6979    0.9445    0.5927 N   0  0  0  0  0  0  0  0  0  0  0  0
    2.7440    1.8899    0.5642 C   0  0  0  0  0  0  0  0  0  0  0  0
    2.9179    3.0291    1.3394 C   0  0  0  0  0  0  0  0  0  0  0  0
    1.9739    4.0596    1.3639 C   0  0  0  0  0  0  0  0  0  0  0  0
    0.8272    3.9508    0.5908 C   0  0  0  0  0  0  0  0  0  0  0  0
   -0.4588    5.3335    0.6090 Br  0  0  0  0  0  0  0  0  0  0  0  0
    0.6231    2.8216   -0.1965 C   0  0  0  0  0  0  0  0  0  0  0  0
    1.5774    1.7735   -0.2123 C   0  0  0  0  0  0  0  0  0  0  0  0
   -0.9306   -0.0014   -1.1601 N   0  0  0  0  0  0  0  0  0  0  0  0
   -1.0158   -0.4992    0.2240 C   0  0  0  0  0  0  0  0  0  0  0  0
   -2.3839   -0.2125    0.8677 C   0  0  0  0  0  0  0  0  0  0  0  0
   -3.4735   -0.7144    0.0019 N   0  0  0  0  0  0  0  0  0  0  0  0
   -4.7438   -0.5696    0.6016 C   0  0  0  0  0  0  0  0  0  0  0  0
   -5.8457   -1.2148    0.0346 C   0  0  0  0  0  0  0  0  0  0  0  0
   -7.1048   -1.0904    0.6199 C   0  0  0  0  0  0  0  0  0  0  0  0
   -7.2424   -0.3288    1.7690 C   0  0  0  0  0  0  0  0  0  0  0  0
   -6.1077    0.2679    2.2844 C   0  0  0  0  0  0  0  0  0  0  0  0
   -4.8780    0.1583    1.7322 N   0  0  0  0  0  0  0  0  0  0  0  0
   -3.4276   -0.1132   -1.3507 C   0  0  0  0  0  0  0  0  0  0  0  0
   -2.0630   -0.3790   -2.0124 C   0  0  0  0  0  0  0  0  0  0  0  0
    2.3498   -1.2813   -1.5650 H   0  0  0  0  0  0  0  0  0  0  0  0
    4.4828   -1.2733    2.0750 H   0  0  0  0  0  0  0  0  0  0  0  0
    6.2923   -2.9230    2.3603 H   0  0  0  0  0  0  0  0  0  0  0  0
    7.5609   -3.7387    0.3876 H   0  0  0  0  0  0  0  0  0  0  0  0
    7.0204   -2.8799   -1.8659 H   0  0  0  0  0  0  0  0  0  0  0  0
    3.8203    3.1204    1.9410 H   0  0  0  0  0  0  0  0  0  0  0  0
    2.1512    4.9349    1.9832 H   0  0  0  0  0  0  0  0  0  0  0  0
   -0.2765    2.7539   -0.8053 H   0  0  0  0  0  0  0  0  0  0  0  0
   -0.8409   -1.5814    0.1782 H   0  0  0  0  0  0  0  0  0  0  0  0
   -0.2280   -0.0713    0.8480 H   0  0  0  0  0  0  0  0  0  0  0  0
   -2.4096   -0.7063    1.8472 H   0  0  0  0  0  0  0  0  0  0  0  0
   -2.4806    0.8714    1.0192 H   0  0  0  0  0  0  0  0  0  0  0  0
   -5.7244   -1.8342   -0.8475 H   0  0  0  0  0  0  0  0  0  0  0  0
   -7.9630   -1.5925    0.1836 H   0  0  0  0  0  0  0  0  0  0  0  0
   -8.2037   -0.2098    2.2549 H   0  0  0  0  0  0  0  0  0  0  0  0
   -6.1540    0.8703    3.1869 H   0  0  0  0  0  0  0  0  0  0  0  0
   -4.2037   -0.5275   -2.0043 H   0  0  0  0  0  0  0  0  0  0  0  0
   -3.5902    0.9709   -1.2802 H   0  0  0  0  0  0  0  0  0  0  0  0
   -2.0127    0.1570   -2.9665 H   0  0  0  0  0  0  0  0  0  0  0  0
   -1.9537   -1.4490   -2.2296 H   0  0  0  0  0  0  0  0  0  0  0  0
  1  2  2  0
  2  3  1  0
  3  4  2  0
  4  5  1  0
  5  6  1  0
  6  7  2  0
  7  8  1  0
  8  9  2  0
  9 10  1  0
 10 11  2  0
 11 12  1  0
  5 13  2  0
 13 14  1  0
 14 15  2  0
 15 16  1  0
 16 17  2  0
 17 18  1  0
 17 19  1  0
 19 20  2  0
  2 21  1  0
 21 22  1  0
 22 23  1  0
 23 24  1  0
 24 25  1  0
 25 26  2  0
 26 27  1  0
 27 28  2  0
 28 29  1  0
 29 30  2  0
 24 31  1  0
 31 32  1  0
 20  3  1  0
 32 21  1  0
 11  6  1  0
 20 14  1  0
 30 25  1  0
  4 33  1  0
  7 34  1  0
  8 35  1  0
  9 36  1  0
 10 37  1  0
 15 38  1  0
 16 39  1  0
 19 40  1  0
 22 41  1  0
 22 42  1  0
 23 43  1  0
 23 44  1  0
 26 45  1  0
 27 46  1  0
 28 47  1  0
 29 48  1  0
 31 49  1  0
 31 50  1  0
 32 51  1  0
 32 52  1  0
M  END
$$$$
