
     RDKit          3D

 41 42  0  0  0  0  0  0  0  0999 V2000
   -2.6531    1.2810    2.8170 C   0  0  0  0  0  0  0  0  0  0  0  0
   -2.8054    1.6472    1.3484 C   0  0  0  0  0  0  0  0  0  0  0  0
   -2.5994    0.4596    0.4938 N   0  0  0  0  0  0  0  0  0  0  0  0
   -3.8608   -0.1611    0.0430 C   0  0  0  0  0  0  0  0  0  0  0  0
   -4.3264    0.4572   -1.2672 C   0  0  0  0  0  0  0  0  0  0  0  0
   -1.3207    0.0103    0.0864 C   0  0  0  0  0  0  0  0  0  0  0  0
   -0.1670    0.6486    0.3882 C   0  0  0  0  0  0  0  0  0  0  0  0
    1.1430    0.2024   -0.0567 C   0  0  0  0  0  0  0  0  0  0  0  0
    2.2642    0.5607    0.5939 C   0  0  0  0  0  0  0  0  0  0  0  0
    3.5767   -0.0068    0.2780 C   0  0  0  0  0  0  0  0  0  0  0  0
    4.7450    0.5531    0.6786 C   0  0  0  0  0  0  0  0  0  0  0  0
    6.0015   -0.0519    0.3829 C   0  0  0  0  0  0  0  0  0  0  0  0
    7.0180   -0.5545    0.1358 N   0  0  0  0  0  0  0  0  0  0  0  0
    4.7862    1.7768    1.4105 C   0  0  0  0  0  0  0  0  0  0  0  0
    4.8085    2.7703    2.0105 N   0  0  0  0  0  0  0  0  0  0  0  0
    3.4853   -1.3163   -0.4953 C   0  0  0  0  0  0  0  0  0  0  0  0
    2.5298   -1.1911   -1.6783 C   0  0  0  0  0  0  0  0  0  0  0  0
    1.1323   -0.7089   -1.2632 C   0  0  0  0  0  0  0  0  0  0  0  0
    0.1653   -1.8507   -0.9609 C   0  0  0  0  0  0  0  0  0  0  0  0
   -1.2476   -1.2930   -0.7188 C   0  0  0  0  0  0  0  0  0  0  0  0
   -1.6507    0.8997    3.0354 H   0  0  0  0  0  0  0  0  0  0  0  0
   -2.8265    2.1594    3.4462 H   0  0  0  0  0  0  0  0  0  0  0  0
   -3.3736    0.5081    3.1045 H   0  0  0  0  0  0  0  0  0  0  0  0
   -2.1181    2.4553    1.0761 H   0  0  0  0  0  0  0  0  0  0  0  0
   -3.8088    2.0632    1.1927 H   0  0  0  0  0  0  0  0  0  0  0  0
   -4.6400   -0.0213    0.8028 H   0  0  0  0  0  0  0  0  0  0  0  0
   -3.7640   -1.2449   -0.0674 H   0  0  0  0  0  0  0  0  0  0  0  0
   -5.2641   -0.0049   -1.5915 H   0  0  0  0  0  0  0  0  0  0  0  0
   -4.4984    1.5330   -1.1584 H   0  0  0  0  0  0  0  0  0  0  0  0
   -3.5863    0.3191   -2.0616 H   0  0  0  0  0  0  0  0  0  0  0  0
   -0.1734    1.5335    1.0151 H   0  0  0  0  0  0  0  0  0  0  0  0
    2.1907    1.2555    1.4300 H   0  0  0  0  0  0  0  0  0  0  0  0
    4.4573   -1.6441   -0.8774 H   0  0  0  0  0  0  0  0  0  0  0  0
    3.1354   -2.1062    0.1824 H   0  0  0  0  0  0  0  0  0  0  0  0
    2.9530   -0.4669   -2.3880 H   0  0  0  0  0  0  0  0  0  0  0  0
    2.4688   -2.1444   -2.2163 H   0  0  0  0  0  0  0  0  0  0  0  0
    0.7311   -0.1483   -2.1206 H   0  0  0  0  0  0  0  0  0  0  0  0
    0.4965   -2.4106   -0.0758 H   0  0  0  0  0  0  0  0  0  0  0  0
    0.1310   -2.5653   -1.7919 H   0  0  0  0  0  0  0  0  0  0  0  0
   -1.7205   -1.1229   -1.6935 H   0  0  0  0  0  0  0  0  0  0  0  0
   -1.8145   -2.0799   -0.2081 H   0  0  0  0  0  0  0  0  0  0  0  0
  1  2  1  0
  2  3  1  0
  3  4  1  0
  4  5  1  0
  3  6  1  0
  6  7  2  0
  7  8  1  0
  8  9  2  0
  9 10  1  0
 10 11  2  3
 11 12  1  0
 12 13  3  0
 11 14  1  0
 14 15  3  0
 10 16  1  0
 16 17  1  0
 17 18  1  0
 18 19  1  0
 19 20  1  0
 20  6  1  0
 18  8  1  0
  1 21  1  0
  1 22  1  0
  1 23  1  0
  2 24  1  0
  2 25  1  0
  4 26  1  0
  4 27  1  0
  5 28  1  0
  5 29  1  0
  5 30  1  0
  7 31  1  0
  9 32  1  0
 16 33  1  0
 16 34  1  0
 17 35  1  0
 17 36  1  0
 18 37  1  0
 19 38  1  0
 19 39  1  0
 20 40  1  0
 20 41  1  0
M  END
$$$$
