
     RDKit          3D

 63 67  0  0  0  0  0  0  0  0999 V2000
   -2.8970    6.3463    0.9381 C   0  0  0  0  0  0  0  0  0  0  0  0
   -3.6422    5.3769    1.6639 O   0  0  0  0  0  0  0  0  0  0  0  0
   -3.6294    4.0984    1.1788 C   0  0  0  0  0  0  0  0  0  0  0  0
   -4.3608    3.1800    1.9349 C   0  0  0  0  0  0  0  0  0  0  0  0
   -4.4307    1.8368    1.5546 C   0  0  0  0  0  0  0  0  0  0  0  0
   -3.7685    1.3916    0.4044 C   0  0  0  0  0  0  0  0  0  0  0  0
   -3.8188   -0.0207    0.0046 C   0  0  0  0  0  0  0  0  0  0  0  0
   -5.3360   -0.6925   -0.4151 S   0  0  0  0  0  0  0  0  0  0  0  0
   -4.6627   -2.2331   -0.7676 C   0  0  0  0  0  0  0  0  0  0  0  0
   -5.3669   -3.3783   -1.2038 C   0  0  0  0  0  0  0  0  0  0  0  0
   -4.6621   -4.5603   -1.4398 C   0  0  0  0  0  0  0  0  0  0  0  0
   -5.2048   -5.7437   -1.8630 O   0  0  0  0  0  0  0  0  0  0  0  0
   -6.6106   -5.7680   -2.0771 C   0  0  0  0  0  0  0  0  0  0  0  0
   -3.2871   -4.5949   -1.2413 C   0  0  0  0  0  0  0  0  0  0  0  0
   -2.5940   -3.4590   -0.8103 C   0  0  0  0  0  0  0  0  0  0  0  0
   -3.2819   -2.2432   -0.5693 C   0  0  0  0  0  0  0  0  0  0  0  0
   -2.7988   -0.9516   -0.1281 C   0  0  0  0  0  0  0  0  0  0  0  0
   -1.4067   -0.6178    0.1605 C   0  0  0  0  0  0  0  0  0  0  0  0
   -0.4631   -0.6036   -0.8730 C   0  0  0  0  0  0  0  0  0  0  0  0
    0.8740   -0.2853   -0.6085 C   0  0  0  0  0  0  0  0  0  0  0  0
    1.2778    0.0188    0.6919 C   0  0  0  0  0  0  0  0  0  0  0  0
    2.5458    0.3465    1.0852 O   0  0  0  0  0  0  0  0  0  0  0  0
    3.5570    0.3669    0.0731 C   0  0  0  0  0  0  0  0  0  0  0  0
    4.8844    0.7711    0.7366 C   0  0  0  0  0  0  0  0  0  0  0  0
    6.0129    0.8960   -0.2026 N   0  0  0  0  0  0  0  0  0  0  0  0
    7.2089    1.4665    0.4587 C   0  0  0  0  0  0  0  0  0  0  0  0
    8.2431    0.4086    0.8747 C   0  0  0  0  0  0  0  0  0  0  0  0
    8.7379   -0.3618   -0.2291 O   0  0  0  0  0  0  0  0  0  0  0  0
    7.8057   -0.4511   -1.3151 C   0  0  0  0  0  0  0  0  0  0  0  0
    6.3444   -0.3973   -0.8433 C   0  0  0  0  0  0  0  0  0  0  0  0
    0.3347    0.0004    1.7228 C   0  0  0  0  0  0  0  0  0  0  0  0
   -1.0006   -0.3181    1.4635 C   0  0  0  0  0  0  0  0  0  0  0  0
   -3.0371    2.3166   -0.3517 C   0  0  0  0  0  0  0  0  0  0  0  0
   -2.9671    3.6616    0.0322 C   0  0  0  0  0  0  0  0  0  0  0  0
   -3.0029    7.3050    1.4550 H   0  0  0  0  0  0  0  0  0  0  0  0
   -3.2920    6.4696   -0.0758 H   0  0  0  0  0  0  0  0  0  0  0  0
   -1.8317    6.0938    0.9202 H   0  0  0  0  0  0  0  0  0  0  0  0
   -4.8792    3.5124    2.8309 H   0  0  0  0  0  0  0  0  0  0  0  0
   -5.0002    1.1427    2.1682 H   0  0  0  0  0  0  0  0  0  0  0  0
   -6.4396   -3.3103   -1.3429 H   0  0  0  0  0  0  0  0  0  0  0  0
   -6.8809   -6.7754   -2.4079 H   0  0  0  0  0  0  0  0  0  0  0  0
   -6.9015   -5.0687   -2.8680 H   0  0  0  0  0  0  0  0  0  0  0  0
   -7.1549   -5.5653   -1.1488 H   0  0  0  0  0  0  0  0  0  0  0  0
   -2.7400   -5.5177   -1.4205 H   0  0  0  0  0  0  0  0  0  0  0  0
   -1.5192   -3.5181   -0.6564 H   0  0  0  0  0  0  0  0  0  0  0  0
   -0.7634   -0.8340   -1.8930 H   0  0  0  0  0  0  0  0  0  0  0  0
    1.5698   -0.2821   -1.4407 H   0  0  0  0  0  0  0  0  0  0  0  0
    3.6472   -0.6307   -0.3716 H   0  0  0  0  0  0  0  0  0  0  0  0
    3.3007    1.1029   -0.6988 H   0  0  0  0  0  0  0  0  0  0  0  0
    5.1195    0.0674    1.5465 H   0  0  0  0  0  0  0  0  0  0  0  0
    4.7132    1.7388    1.2273 H   0  0  0  0  0  0  0  0  0  0  0  0
    6.9391    2.0886    1.3201 H   0  0  0  0  0  0  0  0  0  0  0  0
    7.6806    2.1409   -0.2674 H   0  0  0  0  0  0  0  0  0  0  0  0
    7.8155   -0.2839    1.6090 H   0  0  0  0  0  0  0  0  0  0  0  0
    9.1047    0.8913    1.3473 H   0  0  0  0  0  0  0  0  0  0  0  0
    7.9986   -1.3954   -1.8344 H   0  0  0  0  0  0  0  0  0  0  0  0
    8.0204    0.3585   -2.0227 H   0  0  0  0  0  0  0  0  0  0  0  0
    5.6820   -0.5529   -1.7016 H   0  0  0  0  0  0  0  0  0  0  0  0
    6.1876   -1.2238   -0.1377 H   0  0  0  0  0  0  0  0  0  0  0  0
    0.6414    0.2375    2.7387 H   0  0  0  0  0  0  0  0  0  0  0  0
   -1.7151   -0.3269    2.2830 H   0  0  0  0  0  0  0  0  0  0  0  0
   -2.5131    1.9965   -1.2496 H   0  0  0  0  0  0  0  0  0  0  0  0
   -2.3861    4.3367   -0.5867 H   0  0  0  0  0  0  0  0  0  0  0  0
  1  2  1  0
  2  3  1  0
  3  4  2  0
  4  5  1  0
  5  6  2  0
  6  7  1  0
  7  8  1  0
  8  9  1  0
  9 10  2  0
 10 11  1  0
 11 12  1  0
 12 13  1  0
 11 14  2  0
 14 15  1  0
 15 16  2  0
 16 17  1  0
 17 18  1  0
 18 19  2  0
 19 20  1  0
 20 21  2  0
 21 22  1  0
 22 23  1  0
 23 24  1  0
 24 25  1  0
 25 26  1  0
 26 27  1  0
 27 28  1  0
 28 29  1  0
 29 30  1  0
 21 31  1  0
 31 32  2  0
  6 33  1  0
 33 34  2  0
 34  3  1  0
 17  7  2  0
 32 18  1  0
 16  9  1  0
 30 25  1  0
  1 35  1  0
  1 36  1  0
  1 37  1  0
  4 38  1  0
  5 39  1  0
 10 40  1  0
 13 41  1  0
 13 42  1  0
 13 43  1  0
 14 44  1  0
 15 45  1  0
 19 46  1  0
 20 47  1  0
 23 48  1  0
 23 49  1  0
 24 50  1  0
 24 51  1  0
 26 52  1  0
 26 53  1  0
 27 54  1  0
 27 55  1  0
 29 56  1  0
 29 57  1  0
 30 58  1  0
 30 59  1  0
 31 60  1  0
 32 61  1  0
 33 62  1  0
 34 63  1  0
M  END
$$$$
