
     RDKit          3D

 55 58  0  0  0  0  0  0  0  0999 V2000
   -9.5639    1.9057   -0.4147 C   0  0  0  0  0  0  0  0  0  0  0  0
   -8.2728    2.3369    0.2624 C   0  0  0  0  0  0  0  0  0  0  0  0
   -7.0653    1.5984   -0.3122 C   0  0  0  0  0  0  0  0  0  0  0  0
   -5.7716    2.0352    0.3708 C   0  0  0  0  0  0  0  0  0  0  0  0
   -4.6198    1.3611   -0.1924 N   0  0  0  0  0  0  0  0  0  0  0  0
   -4.2419    0.1022    0.2272 C   0  0  0  0  0  0  0  0  0  0  0  0
   -4.8301   -0.5259    1.1001 O   0  0  0  0  0  0  0  0  0  0  0  0
   -3.0302   -0.4725   -0.4189 C   0  0  0  0  0  0  0  0  0  0  0  0
   -2.2488   -1.3718    0.3132 C   0  0  0  0  0  0  0  0  0  0  0  0
   -1.1002   -1.9317   -0.2529 C   0  0  0  0  0  0  0  0  0  0  0  0
   -0.7159   -1.6072   -1.5625 C   0  0  0  0  0  0  0  0  0  0  0  0
    0.5335   -2.2113   -2.1787 C   0  0  0  0  0  0  0  0  0  0  0  0
    1.7730   -1.7051   -1.5757 N   0  0  0  0  0  0  0  0  0  0  0  0
    2.3801   -0.5134   -2.0249 C   0  0  0  0  0  0  0  0  0  0  0  0
    1.8644    0.4725   -3.2851 S   0  0  0  0  0  0  0  0  0  0  0  0
    3.5269   -0.1015   -1.3788 N   0  0  0  0  0  0  0  0  0  0  0  0
    4.0809   -0.8139   -0.3505 C   0  0  0  0  0  0  0  0  0  0  0  0
    3.4890   -1.9736    0.0484 C   0  0  0  0  0  0  0  0  0  0  0  0
    4.2289   -2.4919    1.0744 N   0  0  0  0  0  0  0  0  0  0  0  0
    5.3004   -1.6616    1.3383 C   0  0  0  0  0  0  0  0  0  0  0  0
    6.3189   -1.7761    2.2893 C   0  0  0  0  0  0  0  0  0  0  0  0
    7.2908   -0.7664    2.3295 C   0  0  0  0  0  0  0  0  0  0  0  0
    7.2467    0.3173    1.4520 C   0  0  0  0  0  0  0  0  0  0  0  0
    8.1435    1.3519    1.4095 O   0  0  0  0  0  0  0  0  0  0  0  0
    9.2083    1.3219    2.3515 C   0  0  0  0  0  0  0  0  0  0  0  0
    6.2168    0.4118    0.5058 C   0  0  0  0  0  0  0  0  0  0  0  0
    5.2274   -0.5878    0.4440 C   0  0  0  0  0  0  0  0  0  0  0  0
    2.3033   -2.5061   -0.5419 C   0  0  0  0  0  0  0  0  0  0  0  0
    1.8207   -3.5703   -0.1645 O   0  0  0  0  0  0  0  0  0  0  0  0
   -1.5240   -0.7285   -2.3003 C   0  0  0  0  0  0  0  0  0  0  0  0
   -2.6725   -0.1641   -1.7355 C   0  0  0  0  0  0  0  0  0  0  0  0
   -9.7397    0.8339   -0.2781 H   0  0  0  0  0  0  0  0  0  0  0  0
  -10.4146    2.4464    0.0119 H   0  0  0  0  0  0  0  0  0  0  0  0
   -9.5326    2.1148   -1.4889 H   0  0  0  0  0  0  0  0  0  0  0  0
   -8.3496    2.1438    1.3388 H   0  0  0  0  0  0  0  0  0  0  0  0
   -8.1435    3.4179    0.1351 H   0  0  0  0  0  0  0  0  0  0  0  0
   -7.2026    0.5164   -0.1932 H   0  0  0  0  0  0  0  0  0  0  0  0
   -6.9925    1.7877   -1.3906 H   0  0  0  0  0  0  0  0  0  0  0  0
   -5.8159    1.8288    1.4460 H   0  0  0  0  0  0  0  0  0  0  0  0
   -5.6116    3.1103    0.2366 H   0  0  0  0  0  0  0  0  0  0  0  0
   -4.0248    1.8814   -0.8218 H   0  0  0  0  0  0  0  0  0  0  0  0
   -2.5326   -1.6389    1.3296 H   0  0  0  0  0  0  0  0  0  0  0  0
   -0.5165   -2.6334    0.3400 H   0  0  0  0  0  0  0  0  0  0  0  0
    0.5485   -2.0312   -3.2593 H   0  0  0  0  0  0  0  0  0  0  0  0
    0.4727   -3.3019   -2.0757 H   0  0  0  0  0  0  0  0  0  0  0  0
    3.9739    0.7561   -1.6819 H   0  0  0  0  0  0  0  0  0  0  0  0
    4.0163   -3.3531    1.5615 H   0  0  0  0  0  0  0  0  0  0  0  0
    6.3628   -2.6150    2.9770 H   0  0  0  0  0  0  0  0  0  0  0  0
    8.0782   -0.8624    3.0707 H   0  0  0  0  0  0  0  0  0  0  0  0
    9.8453    0.4444    2.1992 H   0  0  0  0  0  0  0  0  0  0  0  0
    8.8289    1.3632    3.3778 H   0  0  0  0  0  0  0  0  0  0  0  0
    9.8238    2.2119    2.1885 H   0  0  0  0  0  0  0  0  0  0  0  0
    6.1877    1.2577   -0.1745 H   0  0  0  0  0  0  0  0  0  0  0  0
   -1.2700   -0.4774   -3.3288 H   0  0  0  0  0  0  0  0  0  0  0  0
   -3.2879    0.4896   -2.3466 H   0  0  0  0  0  0  0  0  0  0  0  0
  1  2  1  0
  2  3  1  0
  3  4  1  0
  4  5  1  0
  5  6  1  0
  6  7  2  0
  6  8  1  0
  8  9  2  0
  9 10  1  0
 10 11  2  0
 11 12  1  0
 12 13  1  0
 13 14  1  0
 14 15  2  0
 14 16  1  0
 16 17  1  0
 17 18  2  0
 18 19  1  0
 19 20  1  0
 20 21  2  0
 21 22  1  0
 22 23  2  0
 23 24  1  0
 24 25  1  0
 23 26  1  0
 26 27  2  0
 18 28  1  0
 28 29  2  0
 11 30  1  0
 30 31  2  0
 31  8  1  0
 28 13  1  0
 27 17  1  0
 27 20  1  0
  1 32  1  0
  1 33  1  0
  1 34  1  0
  2 35  1  0
  2 36  1  0
  3 37  1  0
  3 38  1  0
  4 39  1  0
  4 40  1  0
  5 41  1  0
  9 42  1  0
 10 43  1  0
 12 44  1  0
 12 45  1  0
 16 46  1  0
 19 47  1  0
 21 48  1  0
 22 49  1  0
 25 50  1  0
 25 51  1  0
 25 52  1  0
 26 53  1  0
 30 54  1  0
 31 55  1  0
M  END
$$$$
