
     RDKit          3D

 50 53  0  0  0  0  0  0  0  0999 V2000
   -5.0697    1.8171   -0.4500 C   0  0  0  0  0  0  0  0  0  0  0  0
   -4.1992    1.2115   -1.5536 C   0  0  0  0  0  0  0  0  0  0  0  0
   -4.4997   -0.2702   -1.8179 C   0  0  0  0  0  0  0  0  0  0  0  0
   -3.8515   -1.2511   -0.8316 C   0  0  0  0  0  0  0  0  0  0  0  0
   -4.6183   -1.3779    0.4869 C   0  0  0  0  0  0  0  0  0  0  0  0
   -2.3723   -0.9146   -0.5911 C   0  0  0  0  0  0  0  0  0  0  0  0
   -2.2009    0.5062   -0.2756 N   0  0  0  0  0  0  0  0  0  0  0  0
   -0.9225    0.8257    0.1986 C   0  0  0  0  0  0  0  0  0  0  0  0
   -0.4693    2.0861    0.0727 N   0  0  0  0  0  0  0  0  0  0  0  0
    0.7503    2.3814    0.5724 C   0  0  0  0  0  0  0  0  0  0  0  0
    1.5459    1.4581    1.1991 C   0  0  0  0  0  0  0  0  0  0  0  0
    1.0310    0.1870    1.2886 C   0  0  0  0  0  0  0  0  0  0  0  0
   -0.1891   -0.1330    0.7993 N   0  0  0  0  0  0  0  0  0  0  0  0
    1.8041   -0.9210    1.9522 C   0  0  0  0  0  0  0  0  0  0  0  0
    3.3264   -0.6901    1.9153 C   0  0  0  0  0  0  0  0  0  0  0  0
    4.0318   -0.9622    0.5859 C   0  0  0  0  0  0  0  0  0  0  0  0
    3.3570   -1.1787   -0.6258 C   0  0  0  0  0  0  0  0  0  0  0  0
    4.0636   -1.4244   -1.8089 C   0  0  0  0  0  0  0  0  0  0  0  0
    5.4537   -1.4655   -1.7955 C   0  0  0  0  0  0  0  0  0  0  0  0
    6.3173   -1.7702   -3.2510 Cl  0  0  0  0  0  0  0  0  0  0  0  0
    6.1457   -1.2674   -0.6067 C   0  0  0  0  0  0  0  0  0  0  0  0
    5.4392   -1.0217    0.5740 C   0  0  0  0  0  0  0  0  0  0  0  0
    3.6368    0.7153    2.4581 C   0  0  0  0  0  0  0  0  0  0  0  0
    2.8673    1.8011    1.7395 C   0  0  0  0  0  0  0  0  0  0  0  0
    3.2823    2.9530    1.6595 O   0  0  0  0  0  0  0  0  0  0  0  0
   -2.7053    1.4450   -1.2828 C   0  0  0  0  0  0  0  0  0  0  0  0
   -6.1231    1.5537   -0.5895 H   0  0  0  0  0  0  0  0  0  0  0  0
   -4.9982    2.9105   -0.4737 H   0  0  0  0  0  0  0  0  0  0  0  0
   -4.7622    1.5024    0.5492 H   0  0  0  0  0  0  0  0  0  0  0  0
   -4.4575    1.7592   -2.4705 H   0  0  0  0  0  0  0  0  0  0  0  0
   -5.5817   -0.4396   -1.8747 H   0  0  0  0  0  0  0  0  0  0  0  0
   -4.1087   -0.5080   -2.8173 H   0  0  0  0  0  0  0  0  0  0  0  0
   -3.8918   -2.2460   -1.2963 H   0  0  0  0  0  0  0  0  0  0  0  0
   -4.4771   -0.5152    1.1408 H   0  0  0  0  0  0  0  0  0  0  0  0
   -5.6905   -1.5082    0.3084 H   0  0  0  0  0  0  0  0  0  0  0  0
   -4.2681   -2.2562    1.0412 H   0  0  0  0  0  0  0  0  0  0  0  0
   -1.7948   -1.1610   -1.4927 H   0  0  0  0  0  0  0  0  0  0  0  0
   -2.0095   -1.5644    0.2155 H   0  0  0  0  0  0  0  0  0  0  0  0
    1.0640    3.4141    0.4469 H   0  0  0  0  0  0  0  0  0  0  0  0
    1.4735   -0.9640    2.9983 H   0  0  0  0  0  0  0  0  0  0  0  0
    1.5468   -1.8862    1.4995 H   0  0  0  0  0  0  0  0  0  0  0  0
    3.7564   -1.4196    2.6176 H   0  0  0  0  0  0  0  0  0  0  0  0
    2.2719   -1.1696   -0.6913 H   0  0  0  0  0  0  0  0  0  0  0  0
    3.5189   -1.5852   -2.7359 H   0  0  0  0  0  0  0  0  0  0  0  0
    7.2317   -1.3036   -0.5885 H   0  0  0  0  0  0  0  0  0  0  0  0
    6.0052   -0.8790    1.4935 H   0  0  0  0  0  0  0  0  0  0  0  0
    3.3624    0.7752    3.5187 H   0  0  0  0  0  0  0  0  0  0  0  0
    4.7049    0.9467    2.3826 H   0  0  0  0  0  0  0  0  0  0  0  0
   -2.5828    2.4900   -0.9709 H   0  0  0  0  0  0  0  0  0  0  0  0
   -2.1443    1.3144   -2.2183 H   0  0  0  0  0  0  0  0  0  0  0  0
  1  2  1  0
  2  3  1  0
  3  4  1  0
  4  5  1  0
  4  6  1  0
  6  7  1  0
  7  8  1  0
  8  9  2  0
  9 10  1  0
 10 11  2  0
 11 12  1  0
 12 13  2  0
 12 14  1  0
 14 15  1  0
 15 16  1  0
 16 17  2  0
 17 18  1  0
 18 19  2  0
 19 20  1  0
 19 21  1  0
 21 22  2  0
 15 23  1  0
 23 24  1  0
 24 25  2  0
  7 26  1  0
 26  2  1  0
 13  8  1  0
 22 16  1  0
 24 11  1  0
  1 27  1  0
  1 28  1  0
  1 29  1  0
  2 30  1  0
  3 31  1  0
  3 32  1  0
  4 33  1  0
  5 34  1  0
  5 35  1  0
  5 36  1  0
  6 37  1  0
  6 38  1  0
 10 39  1  0
 14 40  1  0
 14 41  1  0
 15 42  1  0
 17 43  1  0
 18 44  1  0
 21 45  1  0
 22 46  1  0
 23 47  1  0
 23 48  1  0
 26 49  1  0
 26 50  1  0
M  END
$$$$
