
     RDKit          3D

 61 61  0  0  0  0  0  0  0  0999 V2000
    9.2879    2.1209    0.4484 C   0  0  0  0  0  0  0  0  0  0  0  0
    7.9883    1.5203   -0.0657 C   0  0  0  0  0  0  0  0  0  0  0  0
    6.7753    2.1409    0.6283 C   0  0  0  0  0  0  0  0  0  0  0  0
    5.4463    1.4936    0.2246 C   0  0  0  0  0  0  0  0  0  0  0  0
    5.0908    1.7106   -1.2485 C   0  0  0  0  0  0  0  0  0  0  0  0
    3.6683    1.2600   -1.5988 C   0  0  0  0  0  0  0  0  0  0  0  0
    3.4578   -0.2482   -1.4441 C   0  0  0  0  0  0  0  0  0  0  0  0
    2.1137   -0.7323   -1.9975 C   0  0  0  0  0  0  0  0  0  0  0  0
    0.8667   -0.1121   -1.3585 C   0  0  0  0  0  0  0  0  0  0  0  0
    0.7661   -0.3672    0.1489 C   0  0  0  0  0  0  0  0  0  0  0  0
   -0.5543    0.1316    0.7475 C   0  0  0  0  0  0  0  0  0  0  0  0
   -1.6170   -0.9550    0.9530 C   0  0  0  0  0  0  0  0  0  0  0  0
   -2.0997   -1.6103   -0.3413 C   0  0  0  0  0  0  0  0  0  0  0  0
   -3.2162   -2.6387   -0.1257 C   0  0  0  0  0  0  0  0  0  0  0  0
   -4.5185   -2.0966    0.4682 C   0  0  0  0  0  0  0  0  0  0  0  0
   -5.1600   -0.9981   -0.3725 C   0  0  0  0  0  0  0  0  0  0  0  0
   -6.4559   -0.6012    0.1875 N   0  0  0  0  0  0  0  0  0  0  0  0
   -7.6931   -1.1066   -0.1789 C   0  0  0  0  0  0  0  0  0  0  0  0
   -8.6238   -0.4629    0.5865 C   0  0  0  0  0  0  0  0  0  0  0  0
   -7.9318    0.4194    1.3997 N   0  0  0  0  0  4  0  0  0  0  0  0
   -8.5284    1.3170    2.3804 C   0  0  0  0  0  0  0  0  0  0  0  0
   -6.6187    0.3242    1.1456 C   0  0  0  0  0  0  0  0  0  0  0  0
   10.1432    1.6595   -0.0544 H   0  0  0  0  0  0  0  0  0  0  0  0
    9.3228    3.1984    0.2597 H   0  0  0  0  0  0  0  0  0  0  0  0
    9.3981    1.9567    1.5252 H   0  0  0  0  0  0  0  0  0  0  0  0
    7.9322    1.6813   -1.1472 H   0  0  0  0  0  0  0  0  0  0  0  0
    8.0010    0.4376    0.1032 H   0  0  0  0  0  0  0  0  0  0  0  0
    6.8907    2.0344    1.7141 H   0  0  0  0  0  0  0  0  0  0  0  0
    6.7391    3.2171    0.4197 H   0  0  0  0  0  0  0  0  0  0  0  0
    4.6539    1.9208    0.8515 H   0  0  0  0  0  0  0  0  0  0  0  0
    5.4874    0.4217    0.4495 H   0  0  0  0  0  0  0  0  0  0  0  0
    5.8025    1.1808   -1.8915 H   0  0  0  0  0  0  0  0  0  0  0  0
    5.1797    2.7776   -1.4867 H   0  0  0  0  0  0  0  0  0  0  0  0
    2.9550    1.8074   -0.9722 H   0  0  0  0  0  0  0  0  0  0  0  0
    3.4647    1.5467   -2.6379 H   0  0  0  0  0  0  0  0  0  0  0  0
    4.2548   -0.7781   -1.9803 H   0  0  0  0  0  0  0  0  0  0  0  0
    3.5469   -0.5389   -0.3920 H   0  0  0  0  0  0  0  0  0  0  0  0
    2.0648   -1.8223   -1.8832 H   0  0  0  0  0  0  0  0  0  0  0  0
    2.0837   -0.5353   -3.0765 H   0  0  0  0  0  0  0  0  0  0  0  0
    0.8455    0.9672   -1.5511 H   0  0  0  0  0  0  0  0  0  0  0  0
   -0.0100   -0.5255   -1.8680 H   0  0  0  0  0  0  0  0  0  0  0  0
    1.5816    0.1736    0.6445 H   0  0  0  0  0  0  0  0  0  0  0  0
    0.9134   -1.4306    0.3713 H   0  0  0  0  0  0  0  0  0  0  0  0
   -0.9680    0.9522    0.1494 H   0  0  0  0  0  0  0  0  0  0  0  0
   -0.3360    0.5543    1.7369 H   0  0  0  0  0  0  0  0  0  0  0  0
   -2.4630   -0.4877    1.4694 H   0  0  0  0  0  0  0  0  0  0  0  0
   -1.2244   -1.7255    1.6280 H   0  0  0  0  0  0  0  0  0  0  0  0
   -1.2615   -2.1366   -0.8123 H   0  0  0  0  0  0  0  0  0  0  0  0
   -2.4271   -0.8429   -1.0515 H   0  0  0  0  0  0  0  0  0  0  0  0
   -2.8430   -3.4384    0.5264 H   0  0  0  0  0  0  0  0  0  0  0  0
   -3.4406   -3.1097   -1.0910 H   0  0  0  0  0  0  0  0  0  0  0  0
   -4.3524   -1.7332    1.4882 H   0  0  0  0  0  0  0  0  0  0  0  0
   -5.2257   -2.9304    0.5642 H   0  0  0  0  0  0  0  0  0  0  0  0
   -5.3161   -1.3360   -1.4030 H   0  0  0  0  0  0  0  0  0  0  0  0
   -4.5293   -0.1034   -0.4067 H   0  0  0  0  0  0  0  0  0  0  0  0
   -7.7485   -1.8644   -0.9413 H   0  0  0  0  0  0  0  0  0  0  0  0
   -9.6964   -0.5162    0.6605 H   0  0  0  0  0  0  0  0  0  0  0  0
   -9.0880    0.7272    3.1114 H   0  0  0  0  0  0  0  0  0  0  0  0
   -9.1999    2.0107    1.8668 H   0  0  0  0  0  0  0  0  0  0  0  0
   -7.7453    1.8816    2.8932 H   0  0  0  0  0  0  0  0  0  0  0  0
   -5.8296    0.8909    1.6266 H   0  0  0  0  0  0  0  0  0  0  0  0
  1  2  1  0
  2  3  1  0
  3  4  1  0
  4  5  1  0
  5  6  1  0
  6  7  1  0
  7  8  1  0
  8  9  1  0
  9 10  1  0
 10 11  1  0
 11 12  1  0
 12 13  1  0
 13 14  1  0
 14 15  1  0
 15 16  1  0
 16 17  1  0
 17 18  1  0
 18 19  2  0
 19 20  1  0
 20 21  1  0
 20 22  2  0
 22 17  1  0
  1 23  1  0
  1 24  1  0
  1 25  1  0
  2 26  1  0
  2 27  1  0
  3 28  1  0
  3 29  1  0
  4 30  1  0
  4 31  1  0
  5 32  1  0
  5 33  1  0
  6 34  1  0
  6 35  1  0
  7 36  1  0
  7 37  1  0
  8 38  1  0
  8 39  1  0
  9 40  1  0
  9 41  1  0
 10 42  1  0
 10 43  1  0
 11 44  1  0
 11 45  1  0
 12 46  1  0
 12 47  1  0
 13 48  1  0
 13 49  1  0
 14 50  1  0
 14 51  1  0
 15 52  1  0
 15 53  1  0
 16 54  1  0
 16 55  1  0
 18 56  1  0
 19 57  1  0
 21 58  1  0
 21 59  1  0
 21 60  1  0
 22 61  1  0
M  CHG  1  20   1
M  END
$$$$
