
     RDKit          3D

 56 59  0  0  0  0  0  0  0  0999 V2000
    8.1113   -2.4234    0.0889 C   0  0  0  0  0  0  0  0  0  0  0  0
    7.4738   -1.1531    0.0482 O   0  0  0  0  0  0  0  0  0  0  0  0
    6.1187   -1.1348    0.2319 C   0  0  0  0  0  0  0  0  0  0  0  0
    5.3113   -2.2423    0.4998 C   0  0  0  0  0  0  0  0  0  0  0  0
    3.9311   -2.0825    0.6687 C   0  0  0  0  0  0  0  0  0  0  0  0
    3.3615   -0.8127    0.5830 C   0  0  0  0  0  0  0  0  0  0  0  0
    1.9472   -0.6430    0.7138 N   0  0  0  0  0  0  0  0  0  0  0  0
    1.0965   -0.7289   -0.7651 S   0  0  0  0  0  6  0  0  0  0  0  0
    0.7949   -2.1407   -0.9293 O   0  0  0  0  0  0  0  0  0  0  0  0
    1.7675    0.0067   -1.8150 O   0  0  0  0  0  0  0  0  0  0  0  0
   -0.4365    0.0977   -0.3950 C   0  0  0  0  0  0  0  0  0  0  0  0
   -1.6252   -0.6372   -0.5713 C   0  0  0  0  0  0  0  0  0  0  0  0
   -2.8691   -0.0627   -0.3020 C   0  0  0  0  0  0  0  0  0  0  0  0
   -4.0093   -0.8694   -0.5038 N   0  0  0  0  0  0  0  0  0  0  0  0
   -5.3309   -0.5274   -0.2866 C   0  0  0  0  0  0  0  0  0  0  0  0
   -5.7440    0.5630    0.0944 O   0  0  0  0  0  0  0  0  0  0  0  0
   -6.3455   -1.5638   -0.6031 C   0  0  0  0  0  0  0  0  0  0  0  0
   -7.5685   -1.1328   -1.1366 C   0  0  0  0  0  0  0  0  0  0  0  0
   -8.5582   -2.0603   -1.4539 C   0  0  0  0  0  0  0  0  0  0  0  0
   -8.2974   -3.3990   -1.2224 C   0  0  0  0  0  0  0  0  0  0  0  0
   -7.1395   -3.8534   -0.6991 N   0  0  0  0  0  0  0  0  0  0  0  0
   -6.1963   -2.9281   -0.3913 C   0  0  0  0  0  0  0  0  0  0  0  0
   -4.8047   -3.6546    0.3175 Cl  0  0  0  0  0  0  0  0  0  0  0  0
   -2.9092    1.2555    0.1386 C   0  0  0  0  0  0  0  0  0  0  0  0
   -1.7246    1.9853    0.3097 C   0  0  0  0  0  0  0  0  0  0  0  0
   -0.4611    1.4256    0.0588 C   0  0  0  0  0  0  0  0  0  0  0  0
    0.7007    2.1761    0.2168 N   0  0  0  0  0  0  0  0  0  0  0  0
    0.9222    2.8622    1.4976 C   0  0  0  0  0  0  0  0  0  0  0  0
    1.8456    4.0184    1.1318 C   0  0  0  0  0  0  0  0  0  0  0  0
    1.3202    4.4291   -0.2320 C   0  0  0  0  0  0  0  0  0  0  0  0
    1.0063    3.0920   -0.8993 C   0  0  0  0  0  0  0  0  0  0  0  0
    4.1565    0.2921    0.2937 C   0  0  0  0  0  0  0  0  0  0  0  0
    5.5330    0.1302    0.1278 C   0  0  0  0  0  0  0  0  0  0  0  0
    7.7312   -3.0822   -0.6989 H   0  0  0  0  0  0  0  0  0  0  0  0
    9.1789   -2.2676   -0.0941 H   0  0  0  0  0  0  0  0  0  0  0  0
    8.0069   -2.8853    1.0762 H   0  0  0  0  0  0  0  0  0  0  0  0
    5.7209   -3.2438    0.5756 H   0  0  0  0  0  0  0  0  0  0  0  0
    3.3136   -2.9568    0.8547 H   0  0  0  0  0  0  0  0  0  0  0  0
    1.5439   -1.3525    1.3249 H   0  0  0  0  0  0  0  0  0  0  0  0
   -1.5707   -1.6639   -0.9270 H   0  0  0  0  0  0  0  0  0  0  0  0
   -3.8193   -1.8125   -0.8260 H   0  0  0  0  0  0  0  0  0  0  0  0
   -7.7503   -0.0726   -1.3062 H   0  0  0  0  0  0  0  0  0  0  0  0
   -9.5090   -1.7430   -1.8696 H   0  0  0  0  0  0  0  0  0  0  0  0
   -9.0351   -4.1632   -1.4535 H   0  0  0  0  0  0  0  0  0  0  0  0
   -3.8458    1.7602    0.3538 H   0  0  0  0  0  0  0  0  0  0  0  0
   -1.8100    3.0214    0.6293 H   0  0  0  0  0  0  0  0  0  0  0  0
   -0.0010    3.2576    1.9354 H   0  0  0  0  0  0  0  0  0  0  0  0
    1.3910    2.1916    2.2248 H   0  0  0  0  0  0  0  0  0  0  0  0
    2.8816    3.6689    1.0490 H   0  0  0  0  0  0  0  0  0  0  0  0
    1.8115    4.8303    1.8634 H   0  0  0  0  0  0  0  0  0  0  0  0
    2.0379    5.0236   -0.8041 H   0  0  0  0  0  0  0  0  0  0  0  0
    0.4010    5.0165   -0.1185 H   0  0  0  0  0  0  0  0  0  0  0  0
    1.8914    2.7206   -1.4271 H   0  0  0  0  0  0  0  0  0  0  0  0
    0.1925    3.1981   -1.6262 H   0  0  0  0  0  0  0  0  0  0  0  0
    3.7079    1.2758    0.1902 H   0  0  0  0  0  0  0  0  0  0  0  0
    6.1524    0.9951   -0.0956 H   0  0  0  0  0  0  0  0  0  0  0  0
  1  2  1  0
  2  3  1  0
  3  4  2  0
  4  5  1  0
  5  6  2  0
  6  7  1  0
  7  8  1  0
  8  9  2  0
  8 10  2  0
  8 11  1  0
 11 12  2  0
 12 13  1  0
 13 14  1  0
 14 15  1  0
 15 16  2  0
 15 17  1  0
 17 18  2  0
 18 19  1  0
 19 20  2  0
 20 21  1  0
 21 22  2  0
 22 23  1  0
 13 24  2  0
 24 25  1  0
 25 26  2  0
 26 27  1  0
 27 28  1  0
 28 29  1  0
 29 30  1  0
 30 31  1  0
  6 32  1  0
 32 33  2  0
 33  3  1  0
 26 11  1  0
 31 27  1  0
 22 17  1  0
  1 34  1  0
  1 35  1  0
  1 36  1  0
  4 37  1  0
  5 38  1  0
  7 39  1  0
 12 40  1  0
 14 41  1  0
 18 42  1  0
 19 43  1  0
 20 44  1  0
 24 45  1  0
 25 46  1  0
 28 47  1  0
 28 48  1  0
 29 49  1  0
 29 50  1  0
 30 51  1  0
 30 52  1  0
 31 53  1  0
 31 54  1  0
 32 55  1  0
 33 56  1  0
M  END
$$$$
