
     RDKit          3D

 39 41  0  0  0  0  0  0  0  0999 V2000
    4.2702   -1.1776    1.4033 C   0  0  0  0  0  0  0  0  0  0  0  0
    3.9125   -2.0923    0.2441 C   0  0  0  0  0  0  0  0  0  0  0  0
    2.3428   -2.9749    0.5369 S   0  0  0  0  0  0  0  0  0  0  0  0
    1.1366   -1.6971    0.1992 C   0  0  0  0  0  0  0  0  0  0  0  0
   -0.1842   -1.9476    0.5055 C   0  0  0  0  0  0  0  0  0  0  0  0
   -1.1021   -0.9548    0.2355 C   0  0  0  0  0  0  0  0  0  0  0  0
   -2.4417   -1.1158    0.4963 N   0  0  0  0  0  0  0  0  0  0  0  0
   -2.9843   -2.0727    1.4532 C   0  0  0  0  0  0  0  0  0  0  0  0
   -4.3201   -1.4611    1.8779 C   0  0  0  0  0  0  0  0  0  0  0  0
   -4.7114   -0.5968    0.6899 C   0  0  0  0  0  0  0  0  0  0  0  0
   -3.3719   -0.0227    0.2389 C   0  0  0  0  0  0  0  0  0  0  0  0
   -0.7023    0.1986   -0.3267 N   0  0  0  0  0  0  0  0  0  0  0  0
    0.6043    0.3635   -0.6008 C   0  0  0  0  0  0  0  0  0  0  0  0
    1.0233    1.6433   -1.2111 C   0  0  0  0  0  0  0  0  0  0  0  0
    0.0884    2.6532   -1.5172 C   0  0  0  0  0  0  0  0  0  0  0  0
    0.4812    3.8669   -2.0940 C   0  0  0  0  0  0  0  0  0  0  0  0
    1.8236    4.0944   -2.3771 C   0  0  0  0  0  0  0  0  0  0  0  0
    2.3102    5.5842   -3.0853 Cl  0  0  0  0  0  0  0  0  0  0  0  0
    2.7738    3.1206   -2.0890 C   0  0  0  0  0  0  0  0  0  0  0  0
    2.3748    1.9088   -1.5122 C   0  0  0  0  0  0  0  0  0  0  0  0
    1.5525   -0.5511   -0.3538 N   0  0  0  0  0  0  0  0  0  0  0  0
    3.5340   -0.3804    1.5436 H   0  0  0  0  0  0  0  0  0  0  0  0
    5.2376   -0.7008    1.2132 H   0  0  0  0  0  0  0  0  0  0  0  0
    4.3574   -1.7369    2.3410 H   0  0  0  0  0  0  0  0  0  0  0  0
    4.6937   -2.8530    0.1416 H   0  0  0  0  0  0  0  0  0  0  0  0
    3.8826   -1.5429   -0.7019 H   0  0  0  0  0  0  0  0  0  0  0  0
   -0.4821   -2.8962    0.9299 H   0  0  0  0  0  0  0  0  0  0  0  0
   -3.1399   -3.0395    0.9619 H   0  0  0  0  0  0  0  0  0  0  0  0
   -2.3435   -2.2150    2.3304 H   0  0  0  0  0  0  0  0  0  0  0  0
   -4.1765   -0.8311    2.7643 H   0  0  0  0  0  0  0  0  0  0  0  0
   -5.0697   -2.2201    2.1185 H   0  0  0  0  0  0  0  0  0  0  0  0
   -5.4356    0.1804    0.9487 H   0  0  0  0  0  0  0  0  0  0  0  0
   -5.1418   -1.2218   -0.1019 H   0  0  0  0  0  0  0  0  0  0  0  0
   -3.1149    0.8564    0.8424 H   0  0  0  0  0  0  0  0  0  0  0  0
   -3.4035    0.2595   -0.8189 H   0  0  0  0  0  0  0  0  0  0  0  0
   -0.9686    2.4963   -1.3049 H   0  0  0  0  0  0  0  0  0  0  0  0
   -0.2667    4.6230   -2.3170 H   0  0  0  0  0  0  0  0  0  0  0  0
    3.8242    3.2918   -2.3082 H   0  0  0  0  0  0  0  0  0  0  0  0
    3.1370    1.1613   -1.2962 H   0  0  0  0  0  0  0  0  0  0  0  0
  1  2  1  0
  2  3  1  0
  3  4  1  0
  4  5  2  0
  5  6  1  0
  6  7  1  0
  7  8  1  0
  8  9  1  0
  9 10  1  0
 10 11  1  0
  6 12  2  0
 12 13  1  0
 13 14  1  0
 14 15  2  0
 15 16  1  0
 16 17  2  0
 17 18  1  0
 17 19  1  0
 19 20  2  0
 13 21  2  0
 21  4  1  0
 11  7  1  0
 20 14  1  0
  1 22  1  0
  1 23  1  0
  1 24  1  0
  2 25  1  0
  2 26  1  0
  5 27  1  0
  8 28  1  0
  8 29  1  0
  9 30  1  0
  9 31  1  0
 10 32  1  0
 10 33  1  0
 11 34  1  0
 11 35  1  0
 15 36  1  0
 16 37  1  0
 19 38  1  0
 20 39  1  0
M  END
$$$$
