
     RDKit          3D

 46 48  0  0  0  0  0  0  0  0999 V2000
   -1.9851    4.9205   -1.6298 C   0  0  0  0  0  0  0  0  0  0  0  0
   -2.5862    3.6446   -1.0704 C   0  0  0  0  0  0  0  0  0  0  0  0
   -1.6338    2.5763   -1.1397 O   0  0  0  0  0  0  0  0  0  0  0  0
   -0.7878    2.4866   -0.0956 C   0  0  0  0  0  0  0  0  0  0  0  0
   -0.7299    3.1841    0.9000 O   0  0  0  0  0  0  0  0  0  0  0  0
    0.1272    1.3128   -0.2923 C   0  0  0  0  0  0  0  0  0  0  0  0
    0.9918    1.2322   -1.2615 N   0  0  0  0  0  0  0  0  0  0  0  0
    1.6146    0.0248   -1.1127 N   0  0  0  0  0  0  0  0  0  0  0  0
    1.2726   -0.6322    0.1539 C   0  0  0  0  0  0  0  0  0  0  0  0
    2.4092   -0.6745    1.1829 C   0  0  0  0  0  0  0  0  0  0  0  0
    2.2022   -0.7047    2.3964 O   0  0  0  0  0  0  0  0  0  0  0  0
    3.8115   -0.8122    0.7194 C   0  0  0  0  0  0  0  0  0  0  0  0
    4.1534   -1.6919   -0.3141 C   0  0  0  0  0  0  0  0  0  0  0  0
    5.4854   -1.8018   -0.7166 C   0  0  0  0  0  0  0  0  0  0  0  0
    6.4724   -1.0466   -0.0819 C   0  0  0  0  0  0  0  0  0  0  0  0
    6.1342   -0.1868    0.9636 C   0  0  0  0  0  0  0  0  0  0  0  0
    4.8047   -0.0734    1.3708 C   0  0  0  0  0  0  0  0  0  0  0  0
    0.0729    0.1735    0.6784 C   0  0  0  0  0  0  0  0  0  0  0  0
   -1.2356   -0.5884    0.6357 C   0  0  0  0  0  0  0  0  0  0  0  0
   -1.8790   -0.9200    1.8343 C   0  0  0  0  0  0  0  0  0  0  0  0
   -3.0833   -1.6278    1.8193 C   0  0  0  0  0  0  0  0  0  0  0  0
   -3.6661   -2.0218    0.6139 C   0  0  0  0  0  0  0  0  0  0  0  0
   -4.8428   -2.7058    0.7436 O   0  0  0  0  0  0  0  0  0  0  0  0
   -5.4794   -3.1240   -0.4571 C   0  0  0  0  0  0  0  0  0  0  0  0
   -3.0285   -1.7034   -0.5838 C   0  0  0  0  0  0  0  0  0  0  0  0
   -1.8213   -0.9950   -0.5731 C   0  0  0  0  0  0  0  0  0  0  0  0
   -2.7242    5.7265   -1.6373 H   0  0  0  0  0  0  0  0  0  0  0  0
   -1.6261    4.7604   -2.6518 H   0  0  0  0  0  0  0  0  0  0  0  0
   -1.1233    5.2419   -1.0362 H   0  0  0  0  0  0  0  0  0  0  0  0
   -2.9492    3.7885   -0.0460 H   0  0  0  0  0  0  0  0  0  0  0  0
   -3.4471    3.3465   -1.6777 H   0  0  0  0  0  0  0  0  0  0  0  0
    2.5146   -0.0689   -1.5850 H   0  0  0  0  0  0  0  0  0  0  0  0
    1.0164   -1.6731   -0.0764 H   0  0  0  0  0  0  0  0  0  0  0  0
    3.4024   -2.3077   -0.8017 H   0  0  0  0  0  0  0  0  0  0  0  0
    5.7583   -2.4829   -1.5195 H   0  0  0  0  0  0  0  0  0  0  0  0
    7.5102   -1.1363   -0.3949 H   0  0  0  0  0  0  0  0  0  0  0  0
    6.9068    0.3910    1.4652 H   0  0  0  0  0  0  0  0  0  0  0  0
    4.5459    0.5901    2.1935 H   0  0  0  0  0  0  0  0  0  0  0  0
    0.2373    0.5849    1.6808 H   0  0  0  0  0  0  0  0  0  0  0  0
   -1.4505   -0.6339    2.7937 H   0  0  0  0  0  0  0  0  0  0  0  0
   -3.5718   -1.8758    2.7589 H   0  0  0  0  0  0  0  0  0  0  0  0
   -4.8502   -3.8268   -1.0134 H   0  0  0  0  0  0  0  0  0  0  0  0
   -5.7572   -2.2649   -1.0767 H   0  0  0  0  0  0  0  0  0  0  0  0
   -6.4000   -3.6478   -0.1823 H   0  0  0  0  0  0  0  0  0  0  0  0
   -3.4407   -1.9910   -1.5454 H   0  0  0  0  0  0  0  0  0  0  0  0
   -1.3449   -0.7652   -1.5261 H   0  0  0  0  0  0  0  0  0  0  0  0
  1  2  1  0
  2  3  1  0
  3  4  1  0
  4  5  2  0
  4  6  1  0
  6  7  2  0
  7  8  1  0
  8  9  1  0
  9 10  1  0
 10 11  2  0
 10 12  1  0
 12 13  2  0
 13 14  1  0
 14 15  2  0
 15 16  1  0
 16 17  2  0
  9 18  1  0
 18 19  1  0
 19 20  2  0
 20 21  1  0
 21 22  2  0
 22 23  1  0
 23 24  1  0
 22 25  1  0
 25 26  2  0
 18  6  1  0
 26 19  1  0
 17 12  1  0
  1 27  1  0
  1 28  1  0
  1 29  1  0
  2 30  1  0
  2 31  1  0
  8 32  1  0
  9 33  1  0
 13 34  1  0
 14 35  1  0
 15 36  1  0
 16 37  1  0
 17 38  1  0
 18 39  1  0
 20 40  1  0
 21 41  1  0
 24 42  1  0
 24 43  1  0
 24 44  1  0
 25 45  1  0
 26 46  1  0
M  END
$$$$
