
     RDKit          3D

 49 52  0  0  0  0  0  0  0  0999 V2000
   -0.9460   -3.5942    0.9387 N   0  0  0  0  0  0  0  0  0  0  0  0
   -0.7455   -2.4563    0.8090 C   0  0  0  0  0  0  0  0  0  0  0  0
   -0.4135   -1.0252    0.7192 C   0  0  0  0  0  0  0  0  0  0  0  0
    0.6711   -0.8599   -0.3398 C   0  0  0  0  0  0  0  0  0  0  0  0
    0.4335   -0.6645   -1.5309 O   0  0  0  0  0  0  0  0  0  0  0  0
    1.9680   -0.9450    0.1435 N   0  0  0  0  0  0  0  0  0  0  0  0
    3.1130   -0.9355   -0.7414 C   0  0  0  0  0  0  0  0  0  0  0  0
    3.6830   -2.3224   -0.8789 C   0  0  0  0  0  0  0  0  0  0  0  0
    4.8375   -2.6982   -0.1782 C   0  0  0  0  0  0  0  0  0  0  0  0
    5.3440   -3.9941   -0.2939 C   0  0  0  0  0  0  0  0  0  0  0  0
    4.6999   -4.9263   -1.1055 C   0  0  0  0  0  0  0  0  0  0  0  0
    3.5485   -4.5653   -1.8020 C   0  0  0  0  0  0  0  0  0  0  0  0
    3.0414   -3.2704   -1.6894 C   0  0  0  0  0  0  0  0  0  0  0  0
   -1.6059   -0.1321    0.4489 C   0  0  0  0  0  0  0  0  0  0  0  0
   -2.7907   -0.7084    0.0998 N   0  0  0  0  0  0  0  0  0  0  0  0
   -3.8341    0.1088   -0.1206 C   0  0  0  0  0  0  0  0  0  0  0  0
   -5.0611   -0.4272   -0.4917 C   0  0  0  0  0  0  0  0  0  0  0  0
   -6.1683    0.3889   -0.7263 C   0  0  0  0  0  0  0  0  0  0  0  0
   -6.0456    1.7650   -0.5866 C   0  0  0  0  0  0  0  0  0  0  0  0
   -4.8168    2.3115   -0.2130 C   0  0  0  0  0  0  0  0  0  0  0  0
   -3.7079    1.5073    0.0228 C   0  0  0  0  0  0  0  0  0  0  0  0
   -2.5412    2.0737    0.3840 N   0  0  0  0  0  0  0  0  0  0  0  0
   -1.4810    1.2590    0.5926 C   0  0  0  0  0  0  0  0  0  0  0  0
   -0.2389    1.8253    0.9716 N   0  0  0  0  0  0  0  0  0  0  0  0
    0.3418    2.5464   -0.1928 C   0  0  0  0  0  0  0  0  0  0  0  0
    0.8541    3.8660    0.3735 C   0  0  0  0  0  0  0  0  0  0  0  0
   -0.1707    4.1782    1.4435 C   0  0  0  0  0  0  0  0  0  0  0  0
   -0.4112    2.8094    2.0670 C   0  0  0  0  0  0  0  0  0  0  0  0
   -0.0006   -0.7317    1.6942 H   0  0  0  0  0  0  0  0  0  0  0  0
    2.1309   -1.2698    1.0877 H   0  0  0  0  0  0  0  0  0  0  0  0
    3.8524   -0.2583   -0.3003 H   0  0  0  0  0  0  0  0  0  0  0  0
    2.8523   -0.5336   -1.7265 H   0  0  0  0  0  0  0  0  0  0  0  0
    5.3522   -1.9854    0.4613 H   0  0  0  0  0  0  0  0  0  0  0  0
    6.2410   -4.2781    0.2499 H   0  0  0  0  0  0  0  0  0  0  0  0
    5.0926   -5.9358   -1.1935 H   0  0  0  0  0  0  0  0  0  0  0  0
    3.0414   -5.2921   -2.4318 H   0  0  0  0  0  0  0  0  0  0  0  0
    2.1372   -3.0025   -2.2344 H   0  0  0  0  0  0  0  0  0  0  0  0
   -5.1528   -1.5056   -0.6002 H   0  0  0  0  0  0  0  0  0  0  0  0
   -7.1181   -0.0527   -1.0171 H   0  0  0  0  0  0  0  0  0  0  0  0
   -6.8988    2.4137   -0.7670 H   0  0  0  0  0  0  0  0  0  0  0  0
   -4.7187    3.3887   -0.1042 H   0  0  0  0  0  0  0  0  0  0  0  0
   -0.3905    2.7484   -0.9863 H   0  0  0  0  0  0  0  0  0  0  0  0
    1.1640    1.9713   -0.6294 H   0  0  0  0  0  0  0  0  0  0  0  0
    1.8440    3.7273    0.8247 H   0  0  0  0  0  0  0  0  0  0  0  0
    0.9288    4.6474   -0.3876 H   0  0  0  0  0  0  0  0  0  0  0  0
   -1.0917    4.5602    0.9881 H   0  0  0  0  0  0  0  0  0  0  0  0
    0.1850    4.9127    2.1714 H   0  0  0  0  0  0  0  0  0  0  0  0
   -1.3740    2.7547    2.5892 H   0  0  0  0  0  0  0  0  0  0  0  0
    0.3662    2.6071    2.8140 H   0  0  0  0  0  0  0  0  0  0  0  0
  1  2  3  0
  2  3  1  0
  3  4  1  0
  4  5  2  0
  4  6  1  0
  6  7  1  0
  7  8  1  0
  8  9  2  0
  9 10  1  0
 10 11  2  0
 11 12  1  0
 12 13  2  0
  3 14  1  0
 14 15  2  0
 15 16  1  0
 16 17  2  0
 17 18  1  0
 18 19  2  0
 19 20  1  0
 20 21  2  0
 21 22  1  0
 22 23  2  0
 23 24  1  0
 24 25  1  0
 25 26  1  0
 26 27  1  0
 27 28  1  0
 13  8  1  0
 23 14  1  0
 28 24  1  0
 21 16  1  0
  3 29  1  0
  6 30  1  0
  7 31  1  0
  7 32  1  0
  9 33  1  0
 10 34  1  0
 11 35  1  0
 12 36  1  0
 13 37  1  0
 17 38  1  0
 18 39  1  0
 19 40  1  0
 20 41  1  0
 25 42  1  0
 25 43  1  0
 26 44  1  0
 26 45  1  0
 27 46  1  0
 27 47  1  0
 28 48  1  0
 28 49  1  0
M  END
$$$$
