
     RDKit          3D

 50 53  0  0  0  0  0  0  0  0999 V2000
  -10.1389   -0.0425   -1.4991 C   0  0  0  0  0  0  0  0  0  0  0  0
   -8.7543    0.2323   -0.9856 C   0  0  0  0  0  0  0  0  0  0  0  0
   -8.4981    1.3867   -0.2417 C   0  0  0  0  0  0  0  0  0  0  0  0
   -7.2073    1.6724    0.2185 C   0  0  0  0  0  0  0  0  0  0  0  0
   -6.1467    0.7945   -0.0779 C   0  0  0  0  0  0  0  0  0  0  0  0
   -4.8280    0.9526    0.3111 N   0  0  0  0  0  0  0  0  0  0  0  0
   -4.0861   -0.0440   -0.1344 C   0  0  0  0  0  0  0  0  0  0  0  0
   -2.6336   -0.1562    0.1219 C   0  0  0  0  0  0  0  0  0  0  0  0
   -2.0080    0.8232    0.9097 C   0  0  0  0  0  0  0  0  0  0  0  0
   -0.6361    0.7709    1.1868 C   0  0  0  0  0  0  0  0  0  0  0  0
    0.1539   -0.2653    0.6821 C   0  0  0  0  0  0  0  0  0  0  0  0
    1.5264   -0.2463    1.0048 N   0  0  0  0  0  0  0  0  0  0  0  0
    2.4936   -1.1617    0.6269 C   0  0  0  0  0  0  0  0  0  0  0  0
    2.3302   -2.1579   -0.0671 O   0  0  0  0  0  0  0  0  0  0  0  0
    3.8594   -0.7838    1.1615 C   0  0  0  0  0  0  0  0  0  0  0  0
    4.8838   -1.8649    0.8605 C   0  0  0  0  0  0  0  0  0  0  0  0
    6.5088   -1.4361    1.4349 S   0  0  0  0  0  6  0  0  0  0  0  0
    7.4033   -2.5375    1.1355 O   0  0  0  0  0  0  0  0  0  0  0  0
    6.3847   -0.9314    2.7903 O   0  0  0  0  0  0  0  0  0  0  0  0
    6.9986   -0.0808    0.3944 C   0  0  0  0  0  0  0  0  0  0  0  0
    7.0702    1.2127    0.9184 C   0  0  0  0  0  0  0  0  0  0  0  0
    7.4514    2.2662    0.0878 C   0  0  0  0  0  0  0  0  0  0  0  0
    7.7662    2.0233   -1.2506 C   0  0  0  0  0  0  0  0  0  0  0  0
    7.7098    0.7259   -1.7630 C   0  0  0  0  0  0  0  0  0  0  0  0
    7.3301   -0.3337   -0.9399 C   0  0  0  0  0  0  0  0  0  0  0  0
   -0.4535   -1.2440   -0.1019 C   0  0  0  0  0  0  0  0  0  0  0  0
   -1.8292   -1.1903   -0.3785 C   0  0  0  0  0  0  0  0  0  0  0  0
   -4.9507   -1.2221   -1.0472 S   0  0  0  0  0  0  0  0  0  0  0  0
   -6.4123   -0.3453   -0.8327 C   0  0  0  0  0  0  0  0  0  0  0  0
   -7.7037   -0.6439   -1.3015 C   0  0  0  0  0  0  0  0  0  0  0  0
  -10.2724    0.4226   -2.4806 H   0  0  0  0  0  0  0  0  0  0  0  0
  -10.3150   -1.1195   -1.5902 H   0  0  0  0  0  0  0  0  0  0  0  0
  -10.8954    0.3529   -0.8131 H   0  0  0  0  0  0  0  0  0  0  0  0
   -9.3039    2.0802   -0.0089 H   0  0  0  0  0  0  0  0  0  0  0  0
   -7.0136    2.5675    0.8010 H   0  0  0  0  0  0  0  0  0  0  0  0
   -2.5944    1.6453    1.3195 H   0  0  0  0  0  0  0  0  0  0  0  0
   -0.2058    1.5560    1.8032 H   0  0  0  0  0  0  0  0  0  0  0  0
    1.8282    0.5247    1.5884 H   0  0  0  0  0  0  0  0  0  0  0  0
    3.7812   -0.6263    2.2434 H   0  0  0  0  0  0  0  0  0  0  0  0
    4.1497    0.1665    0.7005 H   0  0  0  0  0  0  0  0  0  0  0  0
    4.6126   -2.7987    1.3663 H   0  0  0  0  0  0  0  0  0  0  0  0
    4.9540   -2.0800   -0.2108 H   0  0  0  0  0  0  0  0  0  0  0  0
    6.8415    1.4087    1.9635 H   0  0  0  0  0  0  0  0  0  0  0  0
    7.5135    3.2770    0.4844 H   0  0  0  0  0  0  0  0  0  0  0  0
    8.0694    2.8465   -1.8938 H   0  0  0  0  0  0  0  0  0  0  0  0
    7.9723    0.5411   -2.8021 H   0  0  0  0  0  0  0  0  0  0  0  0
    7.3078   -1.3451   -1.3401 H   0  0  0  0  0  0  0  0  0  0  0  0
    0.1102   -2.0723   -0.5206 H   0  0  0  0  0  0  0  0  0  0  0  0
   -2.2442   -1.9826   -0.9969 H   0  0  0  0  0  0  0  0  0  0  0  0
   -7.8793   -1.5373   -1.8942 H   0  0  0  0  0  0  0  0  0  0  0  0
  1  2  1  0
  2  3  2  0
  3  4  1  0
  4  5  2  0
  5  6  1  0
  6  7  2  0
  7  8  1  0
  8  9  2  0
  9 10  1  0
 10 11  2  0
 11 12  1  0
 12 13  1  0
 13 14  2  0
 13 15  1  0
 15 16  1  0
 16 17  1  0
 17 18  2  0
 17 19  2  0
 17 20  1  0
 20 21  2  0
 21 22  1  0
 22 23  2  0
 23 24  1  0
 24 25  2  0
 11 26  1  0
 26 27  2  0
  7 28  1  0
 28 29  1  0
 29 30  2  0
 30  2  1  0
 29  5  1  0
 27  8  1  0
 25 20  1  0
  1 31  1  0
  1 32  1  0
  1 33  1  0
  3 34  1  0
  4 35  1  0
  9 36  1  0
 10 37  1  0
 12 38  1  0
 15 39  1  0
 15 40  1  0
 16 41  1  0
 16 42  1  0
 21 43  1  0
 22 44  1  0
 23 45  1  0
 24 46  1  0
 25 47  1  0
 26 48  1  0
 27 49  1  0
 30 50  1  0
M  END
$$$$
