
     RDKit          3D

 56 59  0  0  0  0  0  0  0  0999 V2000
    7.0692    1.0277   -0.0600 C   0  0  0  0  0  0  0  0  0  0  0  0
    5.6483    1.0542   -0.5969 C   0  0  0  0  0  0  0  0  0  0  0  0
    4.8622    0.1420    0.1914 O   0  0  0  0  0  0  0  0  0  0  0  0
    3.6991   -0.1761   -0.4664 C   0  0  0  0  0  0  0  0  0  0  0  0
    2.6454    0.7415   -0.4643 C   0  0  0  0  0  0  0  0  0  0  0  0
    1.4416    0.4166   -1.0923 C   0  0  0  0  0  0  0  0  0  0  0  0
    0.3547    1.3993   -1.1192 C   0  0  0  0  0  0  0  0  0  0  0  0
   -0.8097    1.3045   -0.4621 C   0  0  0  0  0  0  0  0  0  0  0  0
   -1.3248    0.0520    0.5780 S   0  0  0  0  0  0  0  0  0  0  0  0
   -2.8863    0.8079    0.8626 C   0  0  0  0  0  0  0  0  0  0  0  0
   -3.8538    0.2792    1.5442 N   0  0  0  0  0  0  0  0  0  0  0  0
   -3.7102   -0.9728    2.1545 C   0  0  0  0  0  0  0  0  0  0  0  0
   -3.2332   -1.0692    3.4649 C   0  0  0  0  0  0  0  0  0  0  0  0
   -3.1118   -2.3154    4.0823 C   0  0  0  0  0  0  0  0  0  0  0  0
   -3.4805   -3.4717    3.3952 C   0  0  0  0  0  0  0  0  0  0  0  0
   -3.9779   -3.3820    2.0954 C   0  0  0  0  0  0  0  0  0  0  0  0
   -4.0996   -2.1343    1.4809 C   0  0  0  0  0  0  0  0  0  0  0  0
   -2.9619    2.0329    0.2106 N   0  0  0  0  0  0  0  0  0  0  0  0
   -4.1021    2.9091    0.2958 C   0  0  0  0  0  0  0  0  0  0  0  0
   -4.4269    3.7856   -0.7549 C   0  0  0  0  0  0  0  0  0  0  0  0
   -5.5350    4.6390   -0.6821 C   0  0  0  0  0  0  0  0  0  0  0  0
   -6.3441    4.6388    0.4470 C   0  0  0  0  0  0  0  0  0  0  0  0
   -6.0421    3.7886    1.5041 C   0  0  0  0  0  0  0  0  0  0  0  0
   -4.9339    2.9353    1.4280 C   0  0  0  0  0  0  0  0  0  0  0  0
   -1.8440    2.3728   -0.5472 C   0  0  0  0  0  0  0  0  0  0  0  0
   -1.6387    3.3972   -1.1892 O   0  0  0  0  0  0  0  0  0  0  0  0
    1.3052   -0.8333   -1.7085 C   0  0  0  0  0  0  0  0  0  0  0  0
    2.3592   -1.7572   -1.6916 C   0  0  0  0  0  0  0  0  0  0  0  0
    3.5666   -1.4376   -1.0665 C   0  0  0  0  0  0  0  0  0  0  0  0
    4.6660   -2.2507   -1.0037 O   0  0  0  0  0  0  0  0  0  0  0  0
    4.5329   -3.5746   -1.5067 C   0  0  0  0  0  0  0  0  0  0  0  0
    5.8321   -4.3395   -1.3303 C   0  0  0  0  0  0  0  0  0  0  0  0
    6.8833   -3.9492   -0.8543 O   0  0  0  0  0  0  0  0  0  0  0  0
    5.7388   -5.6067   -1.7923 O   0  0  0  0  0  0  0  0  0  0  0  0
    7.7053    1.7357   -0.6074 H   0  0  0  0  0  0  0  0  0  0  0  0
    7.5007    0.0193   -0.1539 H   0  0  0  0  0  0  0  0  0  0  0  0
    7.0830    1.2824    1.0085 H   0  0  0  0  0  0  0  0  0  0  0  0
    5.2353    2.0719   -0.4998 H   0  0  0  0  0  0  0  0  0  0  0  0
    5.6603    0.7664   -1.6617 H   0  0  0  0  0  0  0  0  0  0  0  0
    2.7701    1.6982    0.0372 H   0  0  0  0  0  0  0  0  0  0  0  0
    0.5611    2.2800   -1.7262 H   0  0  0  0  0  0  0  0  0  0  0  0
   -2.9554   -0.1692    4.0061 H   0  0  0  0  0  0  0  0  0  0  0  0
   -2.7335   -2.3822    5.0994 H   0  0  0  0  0  0  0  0  0  0  0  0
   -3.3872   -4.4425    3.8754 H   0  0  0  0  0  0  0  0  0  0  0  0
   -4.2756   -4.2816    1.5625 H   0  0  0  0  0  0  0  0  0  0  0  0
   -4.5003   -2.0651    0.4734 H   0  0  0  0  0  0  0  0  0  0  0  0
   -3.8516    3.8027   -1.6783 H   0  0  0  0  0  0  0  0  0  0  0  0
   -5.7704    5.2927   -1.5201 H   0  0  0  0  0  0  0  0  0  0  0  0
   -7.2069    5.2972    0.5026 H   0  0  0  0  0  0  0  0  0  0  0  0
   -6.6675    3.7808    2.3925 H   0  0  0  0  0  0  0  0  0  0  0  0
   -4.7314    2.3159    2.2974 H   0  0  0  0  0  0  0  0  0  0  0  0
    0.3761   -1.1021   -2.2084 H   0  0  0  0  0  0  0  0  0  0  0  0
    2.1993   -2.7134   -2.1801 H   0  0  0  0  0  0  0  0  0  0  0  0
    4.3157   -3.5491   -2.5825 H   0  0  0  0  0  0  0  0  0  0  0  0
    3.7552   -4.1133   -0.9509 H   0  0  0  0  0  0  0  0  0  0  0  0
    6.6301   -5.9782   -1.6167 H   0  0  0  0  0  0  0  0  0  0  0  0
  1  2  1  0
  2  3  1  0
  3  4  1  0
  4  5  2  0
  5  6  1  0
  6  7  1  0
  7  8  2  3
  8  9  1  0
  9 10  1  0
 10 11  2  3
 11 12  1  0
 12 13  2  0
 13 14  1  0
 14 15  2  0
 15 16  1  0
 16 17  2  0
 10 18  1  0
 18 19  1  0
 19 20  2  0
 20 21  1  0
 21 22  2  0
 22 23  1  0
 23 24  2  0
 18 25  1  0
 25 26  2  0
  6 27  2  0
 27 28  1  0
 28 29  2  0
 29 30  1  0
 30 31  1  0
 31 32  1  0
 32 33  2  0
 32 34  1  0
 29  4  1  0
 25  8  1  0
 17 12  1  0
 24 19  1  0
  1 35  1  0
  1 36  1  0
  1 37  1  0
  2 38  1  0
  2 39  1  0
  5 40  1  0
  7 41  1  0
 13 42  1  0
 14 43  1  0
 15 44  1  0
 16 45  1  0
 17 46  1  0
 20 47  1  0
 21 48  1  0
 22 49  1  0
 23 50  1  0
 24 51  1  0
 27 52  1  0
 28 53  1  0
 31 54  1  0
 31 55  1  0
 34 56  1  0
M  END
$$$$
