
     RDKit          3D

 55 57  0  0  0  0  0  0  0  0999 V2000
    0.9586    0.8822   -0.8069 O   0  0  0  0  0  0  0  0  0  0  0  0
    1.5969    0.2174    0.0047 C   0  0  0  0  0  0  0  0  0  0  0  0
    1.0726   -0.1327    1.4032 C   0  0  0  0  0  0  0  0  0  0  0  0
   -0.3008    0.1796    1.6118 O   0  0  0  0  0  0  0  0  0  0  0  0
   -1.1639   -0.6341    0.9446 C   0  0  0  0  0  0  0  0  0  0  0  0
   -0.8295   -1.5915    0.2528 O   0  0  0  0  0  0  0  0  0  0  0  0
   -2.6165   -0.2017    1.1705 C   0  0  0  0  0  0  0  0  0  0  0  0
   -3.0026    0.9174    0.1958 C   0  0  0  0  0  0  0  0  0  0  0  0
   -2.6093    2.2946    0.6764 C   0  0  0  0  0  0  0  0  0  0  0  0
   -1.5540    2.9877    0.0710 C   0  0  0  0  0  0  0  0  0  0  0  0
   -1.1871    4.2557    0.5245 C   0  0  0  0  0  0  0  0  0  0  0  0
   -1.8736    4.8450    1.5839 C   0  0  0  0  0  0  0  0  0  0  0  0
   -2.9285    4.1669    2.1910 C   0  0  0  0  0  0  0  0  0  0  0  0
   -3.2959    2.8982    1.7398 C   0  0  0  0  0  0  0  0  0  0  0  0
   -3.4600   -1.3837    0.9450 N   0  0  0  0  0  0  0  0  0  0  0  0
   -3.7178   -2.2770    1.9661 C   0  0  0  0  0  0  0  0  0  0  0  0
   -3.4505   -2.0042    3.1346 O   0  0  0  0  0  0  0  0  0  0  0  0
   -4.3052   -3.5503    1.5682 C   0  0  0  0  0  0  0  0  0  0  0  0
   -4.6502   -4.5965    2.4058 C   0  0  0  0  0  0  0  0  0  0  0  0
   -5.2019   -5.7063    1.7034 C   0  0  0  0  0  0  0  0  0  0  0  0
   -5.2624   -5.4756    0.3481 C   0  0  0  0  0  0  0  0  0  0  0  0
   -4.6575   -3.9316   -0.0669 S   0  0  0  0  0  0  0  0  0  0  0  0
    2.8642   -0.2759   -0.2490 N   0  0  0  0  0  0  0  0  0  0  0  0
    3.5710    0.0327   -1.4840 C   0  0  0  0  0  0  0  0  0  0  0  0
    4.2438    1.4057   -1.4063 C   0  0  0  0  0  0  0  0  0  0  0  0
    4.9069    1.7914   -2.7308 C   0  0  0  0  0  0  0  0  0  0  0  0
    5.3656    0.5904   -3.5593 C   0  0  0  0  0  0  0  0  0  0  0  0
    5.7583   -0.5867   -2.6781 C   0  0  0  0  0  0  0  0  0  0  0  0
    4.5942   -1.0679   -1.8081 C   0  0  0  0  0  0  0  0  0  0  0  0
    1.2603   -1.1906    1.6234 H   0  0  0  0  0  0  0  0  0  0  0  0
    1.6486    0.4587    2.1234 H   0  0  0  0  0  0  0  0  0  0  0  0
   -2.7316    0.1037    2.2164 H   0  0  0  0  0  0  0  0  0  0  0  0
   -4.0909    0.9242    0.0439 H   0  0  0  0  0  0  0  0  0  0  0  0
   -2.5712    0.7286   -0.7963 H   0  0  0  0  0  0  0  0  0  0  0  0
   -1.0026    2.5448   -0.7567 H   0  0  0  0  0  0  0  0  0  0  0  0
   -0.3631    4.7807    0.0483 H   0  0  0  0  0  0  0  0  0  0  0  0
   -1.5869    5.8324    1.9352 H   0  0  0  0  0  0  0  0  0  0  0  0
   -3.4660    4.6260    3.0165 H   0  0  0  0  0  0  0  0  0  0  0  0
   -4.1233    2.3839    2.2246 H   0  0  0  0  0  0  0  0  0  0  0  0
   -3.4375   -1.7891    0.0153 H   0  0  0  0  0  0  0  0  0  0  0  0
   -4.5081   -4.5584    3.4803 H   0  0  0  0  0  0  0  0  0  0  0  0
   -5.5361   -6.6254    2.1693 H   0  0  0  0  0  0  0  0  0  0  0  0
   -5.6328   -6.1400   -0.4209 H   0  0  0  0  0  0  0  0  0  0  0  0
    3.3927   -0.6689    0.5193 H   0  0  0  0  0  0  0  0  0  0  0  0
    2.8257    0.0628   -2.2900 H   0  0  0  0  0  0  0  0  0  0  0  0
    3.5247    2.1834   -1.1220 H   0  0  0  0  0  0  0  0  0  0  0  0
    5.0015    1.3932   -0.6112 H   0  0  0  0  0  0  0  0  0  0  0  0
    4.2113    2.3878   -3.3337 H   0  0  0  0  0  0  0  0  0  0  0  0
    5.7622    2.4441   -2.5177 H   0  0  0  0  0  0  0  0  0  0  0  0
    6.2058    0.8844   -4.1984 H   0  0  0  0  0  0  0  0  0  0  0  0
    4.5556    0.2814   -4.2321 H   0  0  0  0  0  0  0  0  0  0  0  0
    6.5927   -0.2865   -2.0315 H   0  0  0  0  0  0  0  0  0  0  0  0
    6.1247   -1.4165   -3.2932 H   0  0  0  0  0  0  0  0  0  0  0  0
    5.0085   -1.5050   -0.8904 H   0  0  0  0  0  0  0  0  0  0  0  0
    4.0711   -1.8890   -2.3152 H   0  0  0  0  0  0  0  0  0  0  0  0
  1  2  2  0
  2  3  1  0
  3  4  1  0
  4  5  1  0
  5  6  2  0
  5  7  1  0
  7  8  1  0
  8  9  1  0
  9 10  2  0
 10 11  1  0
 11 12  2  0
 12 13  1  0
 13 14  2  0
  7 15  1  0
 15 16  1  0
 16 17  2  0
 16 18  1  0
 18 19  2  0
 19 20  1  0
 20 21  2  0
 21 22  1  0
  2 23  1  0
 23 24  1  0
 24 25  1  0
 25 26  1  0
 26 27  1  0
 27 28  1  0
 28 29  1  0
 14  9  1  0
 22 18  1  0
 29 24  1  0
  3 30  1  0
  3 31  1  0
  7 32  1  0
  8 33  1  0
  8 34  1  0
 10 35  1  0
 11 36  1  0
 12 37  1  0
 13 38  1  0
 14 39  1  0
 15 40  1  0
 19 41  1  0
 20 42  1  0
 21 43  1  0
 23 44  1  0
 24 45  1  0
 25 46  1  0
 25 47  1  0
 26 48  1  0
 26 49  1  0
 27 50  1  0
 27 51  1  0
 28 52  1  0
 28 53  1  0
 29 54  1  0
 29 55  1  0
M  END
$$$$
