
     RDKit          3D

 45 47  0  0  0  0  0  0  0  0999 V2000
    8.4940    0.0731    0.4310 C   0  0  0  0  0  0  0  0  0  0  0  0
    7.0480    0.0016   -0.0261 C   0  0  0  0  0  0  0  0  0  0  0  0
    6.2156    0.1823    1.1184 O   0  0  0  0  0  0  0  0  0  0  0  0
    4.8646    0.1389    0.9159 C   0  0  0  0  0  0  0  0  0  0  0  0
    4.0952    0.3013    2.0680 C   0  0  0  0  0  0  0  0  0  0  0  0
    2.6986    0.2772    2.0025 C   0  0  0  0  0  0  0  0  0  0  0  0
    2.0485    0.0867    0.7790 C   0  0  0  0  0  0  0  0  0  0  0  0
    0.6401    0.0831    0.7884 N   0  0  0  0  0  0  0  0  0  0  0  0
   -0.2080   -0.2103   -0.2573 C   0  0  0  0  0  0  0  0  0  0  0  0
    0.1080   -0.6033   -1.3716 O   0  0  0  0  0  0  0  0  0  0  0  0
   -1.5225   -0.0174    0.1186 N   0  0  0  0  0  0  0  0  0  0  0  0
   -2.6010   -0.1992   -0.8454 C   0  0  0  0  0  0  0  0  0  0  0  0
   -2.6766    1.0284   -1.7762 C   0  0  0  0  0  0  0  0  0  0  0  0
   -3.9367    1.1172   -2.6464 C   0  0  0  0  0  0  0  0  0  0  0  0
   -4.9434   -0.0081   -2.4294 C   0  0  0  0  0  0  0  0  0  0  0  0
   -5.1026   -0.3216   -0.9654 C   0  0  0  0  0  0  0  0  0  0  0  0
   -6.3642   -0.5684   -0.4124 C   0  0  0  0  0  0  0  0  0  0  0  0
   -6.4815   -0.9267    0.9290 C   0  0  0  0  0  0  0  0  0  0  0  0
   -5.3403   -1.0622    1.7163 C   0  0  0  0  0  0  0  0  0  0  0  0
   -4.0775   -0.8294    1.1680 C   0  0  0  0  0  0  0  0  0  0  0  0
   -3.9434   -0.4352   -0.1711 C   0  0  0  0  0  0  0  0  0  0  0  0
    2.8201   -0.0688   -0.3730 C   0  0  0  0  0  0  0  0  0  0  0  0
    4.2207   -0.0450   -0.3059 C   0  0  0  0  0  0  0  0  0  0  0  0
    8.7012    1.0382    0.9051 H   0  0  0  0  0  0  0  0  0  0  0  0
    9.1767   -0.0599   -0.4129 H   0  0  0  0  0  0  0  0  0  0  0  0
    8.7007   -0.7001    1.1784 H   0  0  0  0  0  0  0  0  0  0  0  0
    6.8645   -0.9792   -0.4797 H   0  0  0  0  0  0  0  0  0  0  0  0
    6.8650    0.7963   -0.7586 H   0  0  0  0  0  0  0  0  0  0  0  0
    4.5874    0.4472    3.0264 H   0  0  0  0  0  0  0  0  0  0  0  0
    2.1347    0.4070    2.9219 H   0  0  0  0  0  0  0  0  0  0  0  0
    0.1963    0.1731    1.6894 H   0  0  0  0  0  0  0  0  0  0  0  0
   -1.6764    0.7087    0.8008 H   0  0  0  0  0  0  0  0  0  0  0  0
   -2.3720   -1.0918   -1.4427 H   0  0  0  0  0  0  0  0  0  0  0  0
   -2.6243    1.9447   -1.1704 H   0  0  0  0  0  0  0  0  0  0  0  0
   -1.7894    1.0629   -2.4210 H   0  0  0  0  0  0  0  0  0  0  0  0
   -3.6563    1.1537   -3.7060 H   0  0  0  0  0  0  0  0  0  0  0  0
   -4.4281    2.0768   -2.4359 H   0  0  0  0  0  0  0  0  0  0  0  0
   -4.6089   -0.9174   -2.9441 H   0  0  0  0  0  0  0  0  0  0  0  0
   -5.9031    0.2782   -2.8755 H   0  0  0  0  0  0  0  0  0  0  0  0
   -7.2597   -0.4924   -1.0246 H   0  0  0  0  0  0  0  0  0  0  0  0
   -7.4623   -1.1183    1.3562 H   0  0  0  0  0  0  0  0  0  0  0  0
   -5.4327   -1.3643    2.7564 H   0  0  0  0  0  0  0  0  0  0  0  0
   -3.2029   -0.9767    1.7960 H   0  0  0  0  0  0  0  0  0  0  0  0
    2.3625   -0.2079   -1.3479 H   0  0  0  0  0  0  0  0  0  0  0  0
    4.7714   -0.1729   -1.2318 H   0  0  0  0  0  0  0  0  0  0  0  0
  1  2  1  0
  2  3  1  0
  3  4  1  0
  4  5  2  0
  5  6  1  0
  6  7  2  0
  7  8  1  0
  8  9  1  0
  9 10  2  0
  9 11  1  0
 11 12  1  0
 12 13  1  0
 13 14  1  0
 14 15  1  0
 15 16  1  0
 16 17  2  0
 17 18  1  0
 18 19  2  0
 19 20  1  0
 20 21  2  0
  7 22  1  0
 22 23  2  0
 23  4  1  0
 21 12  1  0
 21 16  1  0
  1 24  1  0
  1 25  1  0
  1 26  1  0
  2 27  1  0
  2 28  1  0
  5 29  1  0
  6 30  1  0
  8 31  1  0
 11 32  1  0
 12 33  1  0
 13 34  1  0
 13 35  1  0
 14 36  1  0
 14 37  1  0
 15 38  1  0
 15 39  1  0
 17 40  1  0
 18 41  1  0
 19 42  1  0
 20 43  1  0
 22 44  1  0
 23 45  1  0
M  END
$$$$
