
     RDKit          3D

 34 36  0  0  0  0  0  0  0  0999 V2000
   -2.3415    1.0333   -1.8308 Br  0  0  0  0  0  0  0  0  0  0  0  0
   -1.8436    0.5188   -0.1049 C   0  0  0  0  0  0  0  0  0  0  0  0
   -0.4901    0.9586    0.3483 C   0  0  0  0  0  0  0  0  0  0  0  0
   -0.0343    0.7902    1.5531 N   0  0  0  0  0  0  0  0  0  0  0  0
    1.2471    1.2206    1.7866 N   0  0  0  0  0  0  0  0  0  0  0  0
    2.3193    0.9378    0.9981 C   0  0  0  0  0  0  0  0  0  0  0  0
    2.3643    0.4200   -0.2107 N   0  0  0  0  0  0  0  0  0  0  0  0
    3.6950    0.3528   -0.5403 C   0  0  0  0  0  0  0  0  0  0  0  0
    4.3082   -0.1195   -1.7094 C   0  0  0  0  0  0  0  0  0  0  0  0
    5.7055   -0.0753   -1.7991 C   0  0  0  0  0  0  0  0  0  0  0  0
    6.4750    0.4289   -0.7471 C   0  0  0  0  0  0  0  0  0  0  0  0
    5.8803    0.9049    0.4276 C   0  0  0  0  0  0  0  0  0  0  0  0
    4.4866    0.8475    0.4888 C   0  0  0  0  0  0  0  0  0  0  0  0
    3.5843    1.2139    1.4533 N   0  0  0  0  0  0  0  0  0  0  0  0
   -2.5996   -0.2061    0.7371 C   0  0  0  0  0  0  0  0  0  0  0  0
   -3.9405   -0.7152    0.4413 C   0  0  0  0  0  0  0  0  0  0  0  0
   -5.0636   -0.0556    0.9515 C   0  0  0  0  0  0  0  0  0  0  0  0
   -6.3452   -0.5353    0.6745 C   0  0  0  0  0  0  0  0  0  0  0  0
   -6.5092   -1.6758   -0.1110 C   0  0  0  0  0  0  0  0  0  0  0  0
   -5.3929   -2.3385   -0.6199 C   0  0  0  0  0  0  0  0  0  0  0  0
   -4.1105   -1.8606   -0.3441 C   0  0  0  0  0  0  0  0  0  0  0  0
    0.1066    1.4741   -0.4257 H   0  0  0  0  0  0  0  0  0  0  0  0
    1.4291    1.3563    2.7797 H   0  0  0  0  0  0  0  0  0  0  0  0
    3.7044   -0.5090   -2.5213 H   0  0  0  0  0  0  0  0  0  0  0  0
    6.1943   -0.4387   -2.7001 H   0  0  0  0  0  0  0  0  0  0  0  0
    7.5589    0.4518   -0.8431 H   0  0  0  0  0  0  0  0  0  0  0  0
    6.4789    1.2957    1.2430 H   0  0  0  0  0  0  0  0  0  0  0  0
    3.8074    1.6263    2.3442 H   0  0  0  0  0  0  0  0  0  0  0  0
   -2.2355   -0.4590    1.7305 H   0  0  0  0  0  0  0  0  0  0  0  0
   -4.9486    0.8362    1.5630 H   0  0  0  0  0  0  0  0  0  0  0  0
   -7.2153   -0.0182    1.0702 H   0  0  0  0  0  0  0  0  0  0  0  0
   -7.5072   -2.0478   -0.3274 H   0  0  0  0  0  0  0  0  0  0  0  0
   -5.5201   -3.2270   -1.2327 H   0  0  0  0  0  0  0  0  0  0  0  0
   -3.2474   -2.3859   -0.7466 H   0  0  0  0  0  0  0  0  0  0  0  0
  1  2  1  0
  2  3  1  0
  3  4  2  3
  4  5  1  0
  5  6  1  0
  6  7  2  0
  7  8  1  0
  8  9  2  0
  9 10  1  0
 10 11  2  0
 11 12  1  0
 12 13  2  0
 13 14  1  0
  2 15  2  3
 15 16  1  0
 16 17  2  0
 17 18  1  0
 18 19  2  0
 19 20  1  0
 20 21  2  0
 14  6  1  0
 21 16  1  0
 13  8  1  0
  3 22  1  0
  5 23  1  0
  9 24  1  0
 10 25  1  0
 11 26  1  0
 12 27  1  0
 14 28  1  0
 15 29  1  0
 17 30  1  0
 18 31  1  0
 19 32  1  0
 20 33  1  0
 21 34  1  0
M  END
$$$$
