
     RDKit          3D

 57 61  0  0  0  0  0  0  0  0999 V2000
    5.6728    0.0109    3.5166 C   0  0  0  0  0  0  0  0  0  0  0  0
    5.1810   -0.6792    2.2788 C   0  0  0  0  0  0  0  0  0  0  0  0
    3.8350   -1.0399    2.1564 C   0  0  0  0  0  0  0  0  0  0  0  0
    3.3816   -1.7091    1.0175 C   0  0  0  0  0  0  0  0  0  0  0  0
    4.2703   -2.0436   -0.0138 C   0  0  0  0  0  0  0  0  0  0  0  0
    3.7782   -2.7527   -1.2503 C   0  0  0  0  0  0  0  0  0  0  0  0
    3.5211   -1.8216   -2.3289 N   0  0  0  0  0  0  0  0  0  0  0  0
    4.4196   -1.6473   -3.3308 N   0  0  0  0  0  0  0  0  0  0  0  0
    3.9209   -0.7388   -4.1700 N   0  0  0  0  0  0  0  0  0  0  0  0
    2.7023   -0.3712   -3.6896 C   0  0  0  0  0  0  0  0  0  0  0  0
    1.7406    0.5761   -4.1824 C   0  0  0  0  0  0  0  0  0  0  0  0
    1.8486    1.2532   -5.1984 O   0  0  0  0  0  0  0  0  0  0  0  0
    0.6199    0.6562   -3.3638 N   0  0  0  0  0  0  0  0  0  0  0  0
    0.4285   -0.1123   -2.2165 C   0  0  0  0  0  0  0  0  0  0  0  0
   -0.8724    0.1675   -1.4760 C   0  0  0  0  0  0  0  0  0  0  0  0
   -0.7665    1.5120   -0.7419 C   0  0  0  0  0  0  0  0  0  0  0  0
   -2.0270    1.8083    0.0666 C   0  0  0  0  0  0  0  0  0  0  0  0
   -2.2870    0.6870    0.9954 N   0  0  0  0  0  0  0  0  0  0  0  0
   -3.2993    1.0117    2.3283 S   0  0  0  0  0  6  0  0  0  0  0  0
   -3.3694   -0.1804    3.1456 O   0  0  0  0  0  0  0  0  0  0  0  0
   -2.9075    2.2848    2.8939 O   0  0  0  0  0  0  0  0  0  0  0  0
   -4.9001    1.2358    1.5740 C   0  0  0  0  0  0  0  0  0  0  0  0
   -5.7567    0.1371    1.4294 C   0  0  0  0  0  0  0  0  0  0  0  0
   -7.0194    0.3221    0.8649 C   0  0  0  0  0  0  0  0  0  0  0  0
   -7.4157    1.5967    0.4683 C   0  0  0  0  0  0  0  0  0  0  0  0
   -8.6282    1.7702   -0.0728 F   0  0  0  0  0  0  0  0  0  0  0  0
   -6.5765    2.6956    0.6312 C   0  0  0  0  0  0  0  0  0  0  0  0
   -5.3120    2.5199    1.1945 C   0  0  0  0  0  0  0  0  0  0  0  0
   -2.4876   -0.6069    0.3050 C   0  0  0  0  0  0  0  0  0  0  0  0
   -1.2284   -0.9481   -0.4846 C   0  0  0  0  0  0  0  0  0  0  0  0
    1.2922   -0.9818   -1.7712 N   0  0  0  0  0  0  0  0  0  0  0  0
    2.4076   -1.0590   -2.5376 C   0  0  0  0  0  0  0  0  0  0  0  0
    5.6194   -1.6859    0.1135 C   0  0  0  0  0  0  0  0  0  0  0  0
    6.0712   -1.0169    1.2535 C   0  0  0  0  0  0  0  0  0  0  0  0
    6.5289    0.6554    3.2907 H   0  0  0  0  0  0  0  0  0  0  0  0
    5.9749   -0.7305    4.2630 H   0  0  0  0  0  0  0  0  0  0  0  0
    4.8916    0.6477    3.9456 H   0  0  0  0  0  0  0  0  0  0  0  0
    3.1274   -0.7965    2.9464 H   0  0  0  0  0  0  0  0  0  0  0  0
    2.3257   -1.9614    0.9402 H   0  0  0  0  0  0  0  0  0  0  0  0
    4.5155   -3.4870   -1.5951 H   0  0  0  0  0  0  0  0  0  0  0  0
    2.8503   -3.3011   -1.0516 H   0  0  0  0  0  0  0  0  0  0  0  0
   -0.0795    1.3124   -3.6773 H   0  0  0  0  0  0  0  0  0  0  0  0
   -1.6715    0.2402   -2.2265 H   0  0  0  0  0  0  0  0  0  0  0  0
    0.1037    1.4969   -0.0717 H   0  0  0  0  0  0  0  0  0  0  0  0
   -0.5949    2.3270   -1.4555 H   0  0  0  0  0  0  0  0  0  0  0  0
   -2.8811    1.9465   -0.6059 H   0  0  0  0  0  0  0  0  0  0  0  0
   -1.8696    2.7411    0.6174 H   0  0  0  0  0  0  0  0  0  0  0  0
   -5.4535   -0.8540    1.7607 H   0  0  0  0  0  0  0  0  0  0  0  0
   -7.7019   -0.5139    0.7415 H   0  0  0  0  0  0  0  0  0  0  0  0
   -6.9186    3.6814    0.3294 H   0  0  0  0  0  0  0  0  0  0  0  0
   -4.6633    3.3808    1.3438 H   0  0  0  0  0  0  0  0  0  0  0  0
   -2.6681   -1.4085    1.0276 H   0  0  0  0  0  0  0  0  0  0  0  0
   -3.3514   -0.5478   -0.3662 H   0  0  0  0  0  0  0  0  0  0  0  0
   -0.4006   -1.1086    0.2191 H   0  0  0  0  0  0  0  0  0  0  0  0
   -1.3744   -1.8934   -1.0211 H   0  0  0  0  0  0  0  0  0  0  0  0
    6.3292   -1.9214   -0.6782 H   0  0  0  0  0  0  0  0  0  0  0  0
    7.1243   -0.7553    1.3325 H   0  0  0  0  0  0  0  0  0  0  0  0
  1  2  1  0
  2  3  2  0
  3  4  1  0
  4  5  2  0
  5  6  1  0
  6  7  1  0
  7  8  1  0
  8  9  2  0
  9 10  1  0
 10 11  1  0
 11 12  2  0
 11 13  1  0
 13 14  1  0
 14 15  1  0
 15 16  1  0
 16 17  1  0
 17 18  1  0
 18 19  1  0
 19 20  2  0
 19 21  2  0
 19 22  1  0
 22 23  2  0
 23 24  1  0
 24 25  2  0
 25 26  1  0
 25 27  1  0
 27 28  2  0
 18 29  1  0
 29 30  1  0
 14 31  2  0
 31 32  1  0
  5 33  1  0
 33 34  2  0
 34  2  1  0
 32  7  1  0
 32 10  2  0
 30 15  1  0
 28 22  1  0
  1 35  1  0
  1 36  1  0
  1 37  1  0
  3 38  1  0
  4 39  1  0
  6 40  1  0
  6 41  1  0
 13 42  1  0
 15 43  1  0
 16 44  1  0
 16 45  1  0
 17 46  1  0
 17 47  1  0
 23 48  1  0
 24 49  1  0
 27 50  1  0
 28 51  1  0
 29 52  1  0
 29 53  1  0
 30 54  1  0
 30 55  1  0
 33 56  1  0
 34 57  1  0
M  END
$$$$
