
     RDKit          3D

 47 50  0  0  0  0  0  0  0  0999 V2000
    6.9777    1.1032    0.2109 C   0  0  0  0  0  0  0  0  0  0  0  0
    6.5459    0.4504   -0.8768 C   0  0  0  0  0  0  0  0  0  0  0  0
    5.9498   -0.9308   -0.8585 C   0  0  0  0  0  0  0  0  0  0  0  0
    4.5160   -0.8287   -1.0866 N   0  0  0  0  0  0  0  0  0  0  0  0
    4.0739   -0.8305   -2.3930 C   0  0  0  0  0  0  0  0  0  0  0  0
    4.8167   -0.8691   -3.3724 O   0  0  0  0  0  0  0  0  0  0  0  0
    2.7279   -0.7692   -2.5892 N   0  0  0  0  0  0  0  0  0  0  0  0
    1.7759   -0.4699   -1.6600 C   0  0  0  0  0  0  0  0  0  0  0  0
    0.6464   -0.1620   -2.0181 O   0  0  0  0  0  0  0  0  0  0  0  0
    2.2413   -0.5294   -0.2575 C   0  0  0  0  0  0  0  0  0  0  0  0
    1.4292   -0.4000    0.8116 C   0  0  0  0  0  0  0  0  0  0  0  0
   -0.0226   -0.2076    0.8071 C   0  0  0  0  0  0  0  0  0  0  0  0
   -0.8841   -1.2870    0.6065 C   0  0  0  0  0  0  0  0  0  0  0  0
   -2.2770   -1.1056    0.6447 C   0  0  0  0  0  0  0  0  0  0  0  0
   -2.8298    0.1735    0.8612 C   0  0  0  0  0  0  0  0  0  0  0  0
   -1.9481    1.2580    1.0461 C   0  0  0  0  0  0  0  0  0  0  0  0
   -0.5570    1.0606    1.0361 C   0  0  0  0  0  0  0  0  0  0  0  0
   -2.4888    2.6452    1.2824 C   0  0  0  0  0  0  0  0  0  0  0  0
   -3.8894    2.7881    0.7043 C   0  0  0  0  0  0  0  0  0  0  0  0
   -4.7719    1.6617    1.2197 C   0  0  0  0  0  0  0  0  0  0  0  0
   -4.2058    0.3590    0.8958 N   0  0  0  0  0  0  0  0  0  0  0  0
   -5.1019   -0.7274    0.5217 C   0  0  0  0  0  0  0  0  0  0  0  0
   -4.5587   -2.0654    0.9986 C   0  0  0  0  0  0  0  0  0  0  0  0
   -3.1739   -2.2944    0.4107 C   0  0  0  0  0  0  0  0  0  0  0  0
    3.6899   -0.7393    0.0248 C   0  0  0  0  0  0  0  0  0  0  0  0
    4.1050   -0.8282    1.1812 O   0  0  0  0  0  0  0  0  0  0  0  0
    6.8995    0.6690    1.2045 H   0  0  0  0  0  0  0  0  0  0  0  0
    7.4105    2.0959    0.1304 H   0  0  0  0  0  0  0  0  0  0  0  0
    6.6454    0.9229   -1.8526 H   0  0  0  0  0  0  0  0  0  0  0  0
    6.4187   -1.5366   -1.6425 H   0  0  0  0  0  0  0  0  0  0  0  0
    6.1503   -1.4337    0.0946 H   0  0  0  0  0  0  0  0  0  0  0  0
    2.4318   -0.6961   -3.5526 H   0  0  0  0  0  0  0  0  0  0  0  0
    1.8402   -0.4374    1.8208 H   0  0  0  0  0  0  0  0  0  0  0  0
   -0.4792   -2.2800    0.4244 H   0  0  0  0  0  0  0  0  0  0  0  0
    0.1052    1.9088    1.1954 H   0  0  0  0  0  0  0  0  0  0  0  0
   -1.8354    3.3924    0.8155 H   0  0  0  0  0  0  0  0  0  0  0  0
   -2.5020    2.8383    2.3624 H   0  0  0  0  0  0  0  0  0  0  0  0
   -3.8464    2.7519   -0.3926 H   0  0  0  0  0  0  0  0  0  0  0  0
   -4.3127    3.7601    0.9818 H   0  0  0  0  0  0  0  0  0  0  0  0
   -5.7701    1.7648    0.7775 H   0  0  0  0  0  0  0  0  0  0  0  0
   -4.8933    1.7399    2.3072 H   0  0  0  0  0  0  0  0  0  0  0  0
   -6.0928   -0.5720    0.9653 H   0  0  0  0  0  0  0  0  0  0  0  0
   -5.2330   -0.7322   -0.5676 H   0  0  0  0  0  0  0  0  0  0  0  0
   -5.2314   -2.8775    0.7011 H   0  0  0  0  0  0  0  0  0  0  0  0
   -4.5040   -2.0724    2.0952 H   0  0  0  0  0  0  0  0  0  0  0  0
   -2.7400   -3.1928    0.8659 H   0  0  0  0  0  0  0  0  0  0  0  0
   -3.2476   -2.4685   -0.6698 H   0  0  0  0  0  0  0  0  0  0  0  0
  1  2  2  0
  2  3  1  0
  3  4  1  0
  4  5  1  0
  5  6  2  0
  5  7  1  0
  7  8  1  0
  8  9  2  0
  8 10  1  0
 10 11  2  3
 11 12  1  0
 12 13  2  0
 13 14  1  0
 14 15  2  0
 15 16  1  0
 16 17  2  0
 16 18  1  0
 18 19  1  0
 19 20  1  0
 20 21  1  0
 21 22  1  0
 22 23  1  0
 23 24  1  0
 10 25  1  0
 25 26  2  0
 25  4  1  0
 17 12  1  0
 24 14  1  0
 21 15  1  0
  1 27  1  0
  1 28  1  0
  2 29  1  0
  3 30  1  0
  3 31  1  0
  7 32  1  0
 11 33  1  0
 13 34  1  0
 17 35  1  0
 18 36  1  0
 18 37  1  0
 19 38  1  0
 19 39  1  0
 20 40  1  0
 20 41  1  0
 22 42  1  0
 22 43  1  0
 23 44  1  0
 23 45  1  0
 24 46  1  0
 24 47  1  0
M  END
$$$$
