
     RDKit          3D

 43 44  0  0  0  0  0  0  0  0999 V2000
   -5.1218    2.1157   -2.1723 C   0  0  0  0  0  0  0  0  0  0  0  0
   -4.2671    1.4594   -1.0997 C   0  0  0  0  0  0  0  0  0  0  0  0
   -4.9730    0.2570   -0.4762 C   0  0  0  0  0  0  0  0  0  0  0  0
   -4.1382   -0.3746    0.5710 C   0  0  0  0  0  0  0  0  0  0  0  0
   -3.4364   -1.4870    0.5301 N   0  0  0  0  0  0  0  0  0  0  0  0
   -2.8500   -1.6143    1.7692 N   0  0  0  0  0  0  0  0  0  0  0  0
   -3.2234   -0.5669    2.4793 C   0  0  0  0  0  0  0  0  0  0  0  0
   -2.7065   -0.2474    4.1041 S   0  0  0  0  0  0  0  0  0  0  0  0
   -1.3668   -1.4614    4.2813 C   0  0  0  0  0  0  0  0  0  0  0  0
   -0.1152   -0.9976    3.5489 C   0  0  0  0  0  0  0  0  0  0  0  0
    0.7386   -0.3329    4.1306 O   0  0  0  0  0  0  0  0  0  0  0  0
   -0.0756   -1.3933    2.2221 N   0  0  0  0  0  0  0  0  0  0  0  0
    0.9268   -1.1192    1.2717 C   0  0  0  0  0  0  0  0  0  0  0  0
    0.6603   -1.4818   -0.0544 C   0  0  0  0  0  0  0  0  0  0  0  0
    1.5980   -1.2372   -1.0634 C   0  0  0  0  0  0  0  0  0  0  0  0
    2.8222   -0.6318   -0.7579 C   0  0  0  0  0  0  0  0  0  0  0  0
    3.7854   -0.3871   -1.8648 C   0  0  0  0  0  0  0  0  0  0  0  0
    3.5109   -0.5535   -3.0426 O   0  0  0  0  0  0  0  0  0  0  0  0
    4.9807    0.0211   -1.3712 O   0  0  0  0  0  0  0  0  0  0  0  0
    6.0043    0.2881   -2.3413 C   0  0  0  0  0  0  0  0  0  0  0  0
    5.9773    1.7568   -2.7182 C   0  0  0  0  0  0  0  0  0  0  0  0
    3.0912   -0.2717    0.5675 C   0  0  0  0  0  0  0  0  0  0  0  0
    2.1485   -0.5163    1.5744 C   0  0  0  0  0  0  0  0  0  0  0  0
   -4.0577    0.2624    1.7792 O   0  0  0  0  0  0  0  0  0  0  0  0
   -4.5994    2.9765   -2.6014 H   0  0  0  0  0  0  0  0  0  0  0  0
   -5.3404    1.4139   -2.9832 H   0  0  0  0  0  0  0  0  0  0  0  0
   -6.0714    2.4679   -1.7563 H   0  0  0  0  0  0  0  0  0  0  0  0
   -4.0311    2.2012   -0.3267 H   0  0  0  0  0  0  0  0  0  0  0  0
   -3.3113    1.1484   -1.5417 H   0  0  0  0  0  0  0  0  0  0  0  0
   -5.1975   -0.4856   -1.2510 H   0  0  0  0  0  0  0  0  0  0  0  0
   -5.9299    0.5644   -0.0396 H   0  0  0  0  0  0  0  0  0  0  0  0
   -1.1197   -1.5526    5.3445 H   0  0  0  0  0  0  0  0  0  0  0  0
   -1.6738   -2.4569    3.9439 H   0  0  0  0  0  0  0  0  0  0  0  0
   -0.9183   -1.8331    1.8515 H   0  0  0  0  0  0  0  0  0  0  0  0
   -0.2850   -1.9491   -0.3246 H   0  0  0  0  0  0  0  0  0  0  0  0
    1.3668   -1.5216   -2.0881 H   0  0  0  0  0  0  0  0  0  0  0  0
    5.9059   -0.3513   -3.2254 H   0  0  0  0  0  0  0  0  0  0  0  0
    6.9632    0.0433   -1.8722 H   0  0  0  0  0  0  0  0  0  0  0  0
    6.0954    2.3836   -1.8287 H   0  0  0  0  0  0  0  0  0  0  0  0
    5.0179    2.0272   -3.1722 H   0  0  0  0  0  0  0  0  0  0  0  0
    6.7791    1.9906   -3.4235 H   0  0  0  0  0  0  0  0  0  0  0  0
    4.0319    0.2026    0.8395 H   0  0  0  0  0  0  0  0  0  0  0  0
    2.4053   -0.2240    2.5880 H   0  0  0  0  0  0  0  0  0  0  0  0
  1  2  1  0
  2  3  1  0
  3  4  1  0
  4  5  2  0
  5  6  1  0
  6  7  2  0
  7  8  1  0
  8  9  1  0
  9 10  1  0
 10 11  2  0
 10 12  1  0
 12 13  1  0
 13 14  2  0
 14 15  1  0
 15 16  2  0
 16 17  1  0
 17 18  2  0
 17 19  1  0
 19 20  1  0
 20 21  1  0
 16 22  1  0
 22 23  2  0
  7 24  1  0
 24  4  1  0
 23 13  1  0
  1 25  1  0
  1 26  1  0
  1 27  1  0
  2 28  1  0
  2 29  1  0
  3 30  1  0
  3 31  1  0
  9 32  1  0
  9 33  1  0
 12 34  1  0
 14 35  1  0
 15 36  1  0
 20 37  1  0
 20 38  1  0
 21 39  1  0
 21 40  1  0
 21 41  1  0
 22 42  1  0
 23 43  1  0
M  END
$$$$
