
     RDKit          3D

 59 63  0  0  0  0  0  0  0  0999 V2000
    3.8636   -2.7955    4.5879 C   0  0  0  0  0  0  0  0  0  0  0  0
    3.7948   -3.3413    3.2766 O   0  0  0  0  0  0  0  0  0  0  0  0
    3.7524   -2.4515    2.2391 C   0  0  0  0  0  0  0  0  0  0  0  0
    3.7548   -1.0615    2.3490 C   0  0  0  0  0  0  0  0  0  0  0  0
    3.7039   -0.2647    1.1986 C   0  0  0  0  0  0  0  0  0  0  0  0
    3.6492   -0.8454   -0.0750 C   0  0  0  0  0  0  0  0  0  0  0  0
    3.5677   -0.0004   -1.2739 C   0  0  0  0  0  0  0  0  0  0  0  0
    4.8433   -0.0786   -2.4118 S   0  0  0  0  0  0  0  0  0  0  0  0
    4.1273    1.0987   -3.4358 C   0  0  0  0  0  0  0  0  0  0  0  0
    4.6432    1.5798   -4.6561 C   0  0  0  0  0  0  0  0  0  0  0  0
    3.9208    2.5392   -5.3677 C   0  0  0  0  0  0  0  0  0  0  0  0
    2.7112    3.0111   -4.8817 C   0  0  0  0  0  0  0  0  0  0  0  0
    2.2045    2.5314   -3.6702 C   0  0  0  0  0  0  0  0  0  0  0  0
    2.9158    1.5596   -2.9173 C   0  0  0  0  0  0  0  0  0  0  0  0
    2.6018    0.9195   -1.6567 C   0  0  0  0  0  0  0  0  0  0  0  0
    1.4150    1.1734   -0.8438 C   0  0  0  0  0  0  0  0  0  0  0  0
    0.4605    0.1706   -0.6435 C   0  0  0  0  0  0  0  0  0  0  0  0
   -0.6679    0.4125    0.1486 C   0  0  0  0  0  0  0  0  0  0  0  0
   -0.8548    1.6603    0.7425 C   0  0  0  0  0  0  0  0  0  0  0  0
   -1.9052    2.0334    1.5326 O   0  0  0  0  0  0  0  0  0  0  0  0
   -2.8525    1.0370    1.9305 C   0  0  0  0  0  0  0  0  0  0  0  0
   -3.9863    0.9210    0.8969 C   0  0  0  0  0  0  0  0  0  0  0  0
   -5.0318   -0.0377    1.2885 N   0  0  0  0  0  0  0  0  0  0  0  0
   -4.6133   -1.4497    1.1464 C   0  0  0  0  0  0  0  0  0  0  0  0
   -5.1831   -2.1422   -0.1031 C   0  0  0  0  0  0  0  0  0  0  0  0
   -6.6154   -2.1413   -0.1460 O   0  0  0  0  0  0  0  0  0  0  0  0
   -7.1978   -1.0139    0.5225 C   0  0  0  0  0  0  0  0  0  0  0  0
   -6.2756    0.2136    0.5261 C   0  0  0  0  0  0  0  0  0  0  0  0
    0.0925    2.6655    0.5281 C   0  0  0  0  0  0  0  0  0  0  0  0
    1.2228    2.4275   -0.2578 C   0  0  0  0  0  0  0  0  0  0  0  0
    3.6477   -2.2415   -0.1782 C   0  0  0  0  0  0  0  0  0  0  0  0
    3.6998   -3.0349    0.9714 C   0  0  0  0  0  0  0  0  0  0  0  0
    2.9731   -2.2002    4.8148 H   0  0  0  0  0  0  0  0  0  0  0  0
    4.7780   -2.2084    4.7239 H   0  0  0  0  0  0  0  0  0  0  0  0
    3.8952   -3.6296    5.2957 H   0  0  0  0  0  0  0  0  0  0  0  0
    3.7930   -0.5619    3.3110 H   0  0  0  0  0  0  0  0  0  0  0  0
    3.7059    0.8179    1.3064 H   0  0  0  0  0  0  0  0  0  0  0  0
    5.5892    1.2085   -5.0402 H   0  0  0  0  0  0  0  0  0  0  0  0
    4.3105    2.9149   -6.3109 H   0  0  0  0  0  0  0  0  0  0  0  0
    2.1515    3.7552   -5.4432 H   0  0  0  0  0  0  0  0  0  0  0  0
    1.2510    2.9074   -3.3064 H   0  0  0  0  0  0  0  0  0  0  0  0
    0.5900   -0.8091   -1.0983 H   0  0  0  0  0  0  0  0  0  0  0  0
   -1.3765   -0.3979    0.2740 H   0  0  0  0  0  0  0  0  0  0  0  0
   -3.2808    1.3861    2.8784 H   0  0  0  0  0  0  0  0  0  0  0  0
   -2.3648    0.0840    2.1621 H   0  0  0  0  0  0  0  0  0  0  0  0
   -4.4246    1.9241    0.8007 H   0  0  0  0  0  0  0  0  0  0  0  0
   -3.5883    0.6821   -0.0971 H   0  0  0  0  0  0  0  0  0  0  0  0
   -4.9889   -1.9797    2.0308 H   0  0  0  0  0  0  0  0  0  0  0  0
   -3.5242   -1.5622    1.1601 H   0  0  0  0  0  0  0  0  0  0  0  0
   -4.8126   -1.6613   -1.0162 H   0  0  0  0  0  0  0  0  0  0  0  0
   -4.8570   -3.1870   -0.1327 H   0  0  0  0  0  0  0  0  0  0  0  0
   -8.1358   -0.7793    0.0087 H   0  0  0  0  0  0  0  0  0  0  0  0
   -7.4531   -1.3150    1.5453 H   0  0  0  0  0  0  0  0  0  0  0  0
   -6.8006    1.0650    0.9725 H   0  0  0  0  0  0  0  0  0  0  0  0
   -6.0395    0.4692   -0.5156 H   0  0  0  0  0  0  0  0  0  0  0  0
   -0.0479    3.6428    0.9840 H   0  0  0  0  0  0  0  0  0  0  0  0
    1.9510    3.2225   -0.4001 H   0  0  0  0  0  0  0  0  0  0  0  0
    3.5992   -2.7238   -1.1517 H   0  0  0  0  0  0  0  0  0  0  0  0
    3.6979   -4.1181    0.8773 H   0  0  0  0  0  0  0  0  0  0  0  0
  1  2  1  0
  2  3  1  0
  3  4  2  0
  4  5  1  0
  5  6  2  0
  6  7  1  0
  7  8  1  0
  8  9  1  0
  9 10  2  0
 10 11  1  0
 11 12  2  0
 12 13  1  0
 13 14  2  0
 14 15  1  0
 15 16  1  0
 16 17  2  0
 17 18  1  0
 18 19  2  0
 19 20  1  0
 20 21  1  0
 21 22  1  0
 22 23  1  0
 23 24  1  0
 24 25  1  0
 25 26  1  0
 26 27  1  0
 27 28  1  0
 19 29  1  0
 29 30  2  0
  6 31  1  0
 31 32  2  0
 32  3  1  0
 15  7  2  0
 30 16  1  0
 14  9  1  0
 28 23  1  0
  1 33  1  0
  1 34  1  0
  1 35  1  0
  4 36  1  0
  5 37  1  0
 10 38  1  0
 11 39  1  0
 12 40  1  0
 13 41  1  0
 17 42  1  0
 18 43  1  0
 21 44  1  0
 21 45  1  0
 22 46  1  0
 22 47  1  0
 24 48  1  0
 24 49  1  0
 25 50  1  0
 25 51  1  0
 27 52  1  0
 27 53  1  0
 28 54  1  0
 28 55  1  0
 29 56  1  0
 30 57  1  0
 31 58  1  0
 32 59  1  0
M  END
$$$$
