
     RDKit          3D

 49 52  0  0  0  0  0  0  0  0999 V2000
   -1.1965    5.3435    1.8424 C   0  0  0  0  0  0  0  0  0  0  0  0
   -1.1564    4.0409    1.1000 C   0  0  0  0  0  0  0  0  0  0  0  0
   -0.7825    2.8637    1.7554 C   0  0  0  0  0  0  0  0  0  0  0  0
   -0.7120    1.6552    1.0582 C   0  0  0  0  0  0  0  0  0  0  0  0
   -0.9963    1.6002   -0.3147 C   0  0  0  0  0  0  0  0  0  0  0  0
   -0.9559    0.2960   -1.0971 C   0  0  0  0  0  0  0  0  0  0  0  0
   -2.2570   -0.4883   -0.9170 C   0  0  0  0  0  0  0  0  0  0  0  0
   -1.7587   -1.6658   -0.1259 C   0  0  0  0  0  0  0  0  0  0  0  0
   -2.6853   -2.6749    0.4391 C   0  0  0  0  0  0  0  0  0  0  0  0
   -2.1610   -3.7211    1.2085 C   0  0  0  0  0  0  0  0  0  0  0  0
   -3.0083   -4.6870    1.7546 C   0  0  0  0  0  0  0  0  0  0  0  0
   -4.3824   -4.6129    1.5343 C   0  0  0  0  0  0  0  0  0  0  0  0
   -4.9107   -3.5747    0.7679 C   0  0  0  0  0  0  0  0  0  0  0  0
   -4.0658   -2.6059    0.2194 C   0  0  0  0  0  0  0  0  0  0  0  0
   -0.4679   -1.7422   -0.0062 N   0  0  0  0  0  0  0  0  0  0  0  0
    0.0624   -0.6424   -0.6188 N   0  0  0  0  0  0  0  0  0  0  0  0
    1.4348   -0.5438   -0.8438 C   0  0  0  0  0  0  0  0  0  0  0  0
    2.0140    0.5494   -1.5102 C   0  0  0  0  0  0  0  0  0  0  0  0
    3.3958    0.6352   -1.7242 C   0  0  0  0  0  0  0  0  0  0  0  0
    4.2294   -0.3810   -1.2612 C   0  0  0  0  0  0  0  0  0  0  0  0
    5.9688   -0.2942   -1.5535 S   0  0  0  0  0  6  0  0  0  0  0  0
    6.5194    0.4677   -0.1626 N   0  0  0  0  0  0  0  0  0  0  0  0
    6.2265    0.6274   -2.6360 O   0  0  0  0  0  0  0  0  0  0  0  0
    6.5279   -1.6257   -1.5236 O   0  0  0  0  0  0  0  0  0  0  0  0
    3.6913   -1.4858   -0.6069 C   0  0  0  0  0  0  0  0  0  0  0  0
    2.3092   -1.5544   -0.4000 C   0  0  0  0  0  0  0  0  0  0  0  0
   -1.3644    2.7870   -0.9682 C   0  0  0  0  0  0  0  0  0  0  0  0
   -1.4354    3.9953   -0.2697 C   0  0  0  0  0  0  0  0  0  0  0  0
   -1.4694    5.1870    2.8913 H   0  0  0  0  0  0  0  0  0  0  0  0
   -0.2165    5.8285    1.8000 H   0  0  0  0  0  0  0  0  0  0  0  0
   -1.9440    6.0168    1.4098 H   0  0  0  0  0  0  0  0  0  0  0  0
   -0.5406    2.8765    2.8159 H   0  0  0  0  0  0  0  0  0  0  0  0
   -0.4196    0.7532    1.5944 H   0  0  0  0  0  0  0  0  0  0  0  0
   -0.8069    0.5064   -2.1641 H   0  0  0  0  0  0  0  0  0  0  0  0
   -2.6361   -0.8458   -1.8804 H   0  0  0  0  0  0  0  0  0  0  0  0
   -3.0413    0.0592   -0.3871 H   0  0  0  0  0  0  0  0  0  0  0  0
   -1.0897   -3.7901    1.3875 H   0  0  0  0  0  0  0  0  0  0  0  0
   -2.5940   -5.4961    2.3510 H   0  0  0  0  0  0  0  0  0  0  0  0
   -5.0416   -5.3656    1.9597 H   0  0  0  0  0  0  0  0  0  0  0  0
   -5.9832   -3.5205    0.5967 H   0  0  0  0  0  0  0  0  0  0  0  0
   -4.5079   -1.8128   -0.3754 H   0  0  0  0  0  0  0  0  0  0  0  0
    1.3996    1.3675   -1.8743 H   0  0  0  0  0  0  0  0  0  0  0  0
    3.8047    1.4967   -2.2469 H   0  0  0  0  0  0  0  0  0  0  0  0
    6.9400    1.3654   -0.4020 H   0  0  0  0  0  0  0  0  0  0  0  0
    7.1379   -0.1580    0.3533 H   0  0  0  0  0  0  0  0  0  0  0  0
    4.3270   -2.2939   -0.2541 H   0  0  0  0  0  0  0  0  0  0  0  0
    1.9046   -2.4217    0.1187 H   0  0  0  0  0  0  0  0  0  0  0  0
   -1.5951    2.7828   -2.0315 H   0  0  0  0  0  0  0  0  0  0  0  0
   -1.7110    4.9027   -0.8026 H   0  0  0  0  0  0  0  0  0  0  0  0
  1  2  1  0
  2  3  2  0
  3  4  1  0
  4  5  2  0
  5  6  1  0
  6  7  1  0
  7  8  1  0
  8  9  1  0
  9 10  2  0
 10 11  1  0
 11 12  2  0
 12 13  1  0
 13 14  2  0
  8 15  2  0
 15 16  1  0
 16 17  1  0
 17 18  2  0
 18 19  1  0
 19 20  2  0
 20 21  1  0
 21 22  1  0
 21 23  2  0
 21 24  2  0
 20 25  1  0
 25 26  2  0
  5 27  1  0
 27 28  2  0
 28  2  1  0
 16  6  1  0
 26 17  1  0
 14  9  1  0
  1 29  1  0
  1 30  1  0
  1 31  1  0
  3 32  1  0
  4 33  1  0
  6 34  1  0
  7 35  1  0
  7 36  1  0
 10 37  1  0
 11 38  1  0
 12 39  1  0
 13 40  1  0
 14 41  1  0
 18 42  1  0
 19 43  1  0
 22 44  1  0
 22 45  1  0
 25 46  1  0
 26 47  1  0
 27 48  1  0
 28 49  1  0
M  END
$$$$
