
     RDKit          3D

 59 62  0  0  0  0  0  0  0  0999 V2000
    8.3747    4.9683    0.3749 C   0  0  0  0  0  0  0  0  0  0  0  0
    8.4589    3.6690   -0.4071 C   0  0  0  0  0  0  0  0  0  0  0  0
    8.3844    2.5459    0.4692 O   0  0  0  0  0  0  0  0  0  0  0  0
    7.1598    2.0079    0.7482 C   0  0  0  0  0  0  0  0  0  0  0  0
    7.2034    0.8130    1.4701 C   0  0  0  0  0  0  0  0  0  0  0  0
    6.0277    0.1497    1.8295 C   0  0  0  0  0  0  0  0  0  0  0  0
    4.7828    0.6803    1.4764 C   0  0  0  0  0  0  0  0  0  0  0  0
    3.5112   -0.0410    1.8433 C   0  0  0  0  0  0  0  0  0  0  0  0
    3.1589   -1.1310    0.8321 C   0  0  0  0  0  0  0  0  0  0  0  0
    1.9013   -1.7785    1.1609 N   0  0  0  0  0  0  0  0  0  0  0  0
    1.5771   -3.0001    0.6009 C   0  0  0  0  0  0  0  0  0  0  0  0
    2.3670   -3.6749   -0.0539 O   0  0  0  0  0  0  0  0  0  0  0  0
    0.1672   -3.4795    0.9063 C   0  0  0  0  0  0  0  0  0  0  0  0
   -0.9080   -2.5178    0.4570 C   0  0  0  0  0  0  0  0  0  0  0  0
   -1.7644   -1.9174    1.3892 C   0  0  0  0  0  0  0  0  0  0  0  0
   -2.7483   -1.0196    0.9668 C   0  0  0  0  0  0  0  0  0  0  0  0
   -2.9032   -0.7217   -0.3888 C   0  0  0  0  0  0  0  0  0  0  0  0
   -3.8709    0.2014   -0.8042 N   0  0  0  0  0  0  0  0  0  0  0  0
   -5.0591   -0.1976   -1.1164 C   0  0  0  0  0  0  0  0  0  0  0  0
   -6.0337    0.6670   -1.5384 N   0  0  0  0  0  0  0  0  0  0  0  0
   -7.1252    0.0490   -2.2761 C   0  0  0  0  0  0  0  0  0  0  0  0
   -8.4108    0.8573   -2.1932 C   0  0  0  0  0  0  0  0  0  0  0  0
   -9.4465    0.0284   -1.0083 S   0  0  0  0  0  6  0  0  0  0  0  0
   -9.7911    0.9468    0.0546 O   0  0  0  0  0  0  0  0  0  0  0  0
  -10.4509   -0.7155   -1.7415 O   0  0  0  0  0  0  0  0  0  0  0  0
   -8.2364   -1.1272   -0.4187 C   0  0  0  0  0  0  0  0  0  0  0  0
   -7.3362   -1.3278   -1.6255 C   0  0  0  0  0  0  0  0  0  0  0  0
   -5.6662   -1.8531   -1.1186 S   0  0  0  0  0  0  0  0  0  0  0  0
   -2.0414   -1.3084   -1.3176 C   0  0  0  0  0  0  0  0  0  0  0  0
   -1.0567   -2.2076   -0.9020 C   0  0  0  0  0  0  0  0  0  0  0  0
    4.7401    1.8794    0.7549 C   0  0  0  0  0  0  0  0  0  0  0  0
    5.9209    2.5409    0.3966 C   0  0  0  0  0  0  0  0  0  0  0  0
    9.1523    5.0023    1.1452 H   0  0  0  0  0  0  0  0  0  0  0  0
    7.4145    5.0643    0.8907 H   0  0  0  0  0  0  0  0  0  0  0  0
    8.5008    5.8281   -0.2895 H   0  0  0  0  0  0  0  0  0  0  0  0
    9.4419    3.6200   -0.8896 H   0  0  0  0  0  0  0  0  0  0  0  0
    7.7248    3.6207   -1.2190 H   0  0  0  0  0  0  0  0  0  0  0  0
    8.1651    0.3908    1.7519 H   0  0  0  0  0  0  0  0  0  0  0  0
    6.0946   -0.7832    2.3848 H   0  0  0  0  0  0  0  0  0  0  0  0
    3.6133   -0.4761    2.8461 H   0  0  0  0  0  0  0  0  0  0  0  0
    2.6875    0.6807    1.9210 H   0  0  0  0  0  0  0  0  0  0  0  0
    3.0519   -0.7110   -0.1752 H   0  0  0  0  0  0  0  0  0  0  0  0
    3.9501   -1.8888    0.7867 H   0  0  0  0  0  0  0  0  0  0  0  0
    1.1204   -1.1776    1.3990 H   0  0  0  0  0  0  0  0  0  0  0  0
    0.0078   -4.4441    0.4094 H   0  0  0  0  0  0  0  0  0  0  0  0
    0.1027   -3.6660    1.9851 H   0  0  0  0  0  0  0  0  0  0  0  0
   -1.6753   -2.1399    2.4503 H   0  0  0  0  0  0  0  0  0  0  0  0
   -3.4026   -0.5501    1.6964 H   0  0  0  0  0  0  0  0  0  0  0  0
   -5.6587    1.5527   -1.8666 H   0  0  0  0  0  0  0  0  0  0  0  0
   -6.8125   -0.0523   -3.3228 H   0  0  0  0  0  0  0  0  0  0  0  0
   -8.9439    0.8470   -3.1485 H   0  0  0  0  0  0  0  0  0  0  0  0
   -8.2513    1.8904   -1.8740 H   0  0  0  0  0  0  0  0  0  0  0  0
   -8.7336   -2.0464   -0.0994 H   0  0  0  0  0  0  0  0  0  0  0  0
   -7.7320   -0.6618    0.4346 H   0  0  0  0  0  0  0  0  0  0  0  0
   -7.7772   -2.0357   -2.3354 H   0  0  0  0  0  0  0  0  0  0  0  0
   -2.1402   -1.0654   -2.3717 H   0  0  0  0  0  0  0  0  0  0  0  0
   -0.4034   -2.6600   -1.6464 H   0  0  0  0  0  0  0  0  0  0  0  0
    3.7849    2.3129    0.4658 H   0  0  0  0  0  0  0  0  0  0  0  0
    5.8319    3.4733   -0.1494 H   0  0  0  0  0  0  0  0  0  0  0  0
  1  2  1  0
  2  3  1  0
  3  4  1  0
  4  5  2  0
  5  6  1  0
  6  7  2  0
  7  8  1  0
  8  9  1  0
  9 10  1  0
 10 11  1  0
 11 12  2  0
 11 13  1  0
 13 14  1  0
 14 15  2  0
 15 16  1  0
 16 17  2  0
 17 18  1  0
 18 19  2  3
 19 20  1  0
 20 21  1  0
 21 22  1  0
 22 23  1  0
 23 24  2  0
 23 25  2  0
 23 26  1  0
 26 27  1  0
 27 28  1  0
 17 29  1  0
 29 30  2  0
  7 31  1  0
 31 32  2  0
 32  4  1  0
 30 14  1  0
 28 19  1  0
 27 21  1  0
  1 33  1  0
  1 34  1  0
  1 35  1  0
  2 36  1  0
  2 37  1  0
  5 38  1  0
  6 39  1  0
  8 40  1  0
  8 41  1  0
  9 42  1  0
  9 43  1  0
 10 44  1  0
 13 45  1  0
 13 46  1  0
 15 47  1  0
 16 48  1  0
 20 49  1  0
 21 50  1  0
 22 51  1  0
 22 52  1  0
 26 53  1  0
 26 54  1  0
 27 55  1  0
 29 56  1  0
 30 57  1  0
 31 58  1  0
 32 59  1  0
M  END
$$$$
