
     RDKit          3D

 43 45  0  0  0  0  0  0  0  0999 V2000
    1.5919   -2.6503    2.7151 C   0  0  0  0  0  0  0  0  0  0  0  0
    1.7417   -1.2828    2.2271 N   0  0  0  0  0  0  0  0  0  0  0  0
    0.4344   -0.6511    1.9420 C   0  0  0  0  0  0  0  0  0  0  0  0
    0.1333   -0.4185    0.4471 C   0  0  0  0  0  0  0  0  0  0  0  0
    1.2089    0.3374   -0.2070 N   0  0  0  0  0  0  0  0  0  0  0  0
    1.0331    1.3582   -1.1313 C   0  0  0  0  0  0  0  0  0  0  0  0
    1.9238    2.0921   -1.5491 O   0  0  0  0  0  0  0  0  0  0  0  0
   -0.3747    1.6325   -1.6301 C   0  0  0  0  0  0  0  0  0  0  0  0
   -0.9506    2.9703   -1.2228 C   0  0  0  0  0  0  0  0  0  0  0  0
   -1.0655    3.0769    0.2672 C   0  0  0  0  0  0  0  0  0  0  0  0
   -0.1048    3.5157    1.1612 C   0  0  0  0  0  0  0  0  0  0  0  0
   -0.5640    3.4902    2.5083 C   0  0  0  0  0  0  0  0  0  0  0  0
   -1.8623    3.0351    2.6013 C   0  0  0  0  0  0  0  0  0  0  0  0
   -2.5204    2.6581    1.0682 S   0  0  0  0  0  0  0  0  0  0  0  0
   -1.0615    0.8348   -2.3956 N   0  0  0  0  0  0  0  0  0  0  0  0
   -0.4543   -0.3064   -2.8583 C   0  0  0  0  0  0  0  0  0  0  0  0
    0.6845   -0.3560   -3.3071 O   0  0  0  0  0  0  0  0  0  0  0  0
   -1.3331   -1.4586   -2.7939 C   0  0  0  0  0  0  0  0  0  0  0  0
   -1.1356   -2.7586   -3.2272 C   0  0  0  0  0  0  0  0  0  0  0  0
   -2.3148   -3.4809   -2.9218 C   0  0  0  0  0  0  0  0  0  0  0  0
   -3.1614   -2.5862   -2.3124 C   0  0  0  0  0  0  0  0  0  0  0  0
   -2.5785   -1.3632   -2.2216 O   0  0  0  0  0  0  0  0  0  0  0  0
    2.5642    0.0830    0.2827 C   0  0  0  0  0  0  0  0  0  0  0  0
    2.6607   -1.2362    1.0687 C   0  0  0  0  0  0  0  0  0  0  0  0
    2.5683   -3.0769    2.9697 H   0  0  0  0  0  0  0  0  0  0  0  0
    1.1080   -3.3019    1.9765 H   0  0  0  0  0  0  0  0  0  0  0  0
    0.9929   -2.6682    3.6336 H   0  0  0  0  0  0  0  0  0  0  0  0
    0.4441    0.3267    2.4397 H   0  0  0  0  0  0  0  0  0  0  0  0
   -0.3941   -1.2110    2.3981 H   0  0  0  0  0  0  0  0  0  0  0  0
   -0.8264    0.0899    0.3384 H   0  0  0  0  0  0  0  0  0  0  0  0
    0.0588   -1.3809   -0.0684 H   0  0  0  0  0  0  0  0  0  0  0  0
   -1.9181    3.1211   -1.7155 H   0  0  0  0  0  0  0  0  0  0  0  0
   -0.2864    3.7556   -1.6005 H   0  0  0  0  0  0  0  0  0  0  0  0
    0.8868    3.8403    0.8561 H   0  0  0  0  0  0  0  0  0  0  0  0
    0.0282    3.7928    3.3687 H   0  0  0  0  0  0  0  0  0  0  0  0
   -2.4589    2.9226    3.4977 H   0  0  0  0  0  0  0  0  0  0  0  0
   -0.2405   -3.1244   -3.7144 H   0  0  0  0  0  0  0  0  0  0  0  0
   -2.5239   -4.5225   -3.1275 H   0  0  0  0  0  0  0  0  0  0  0  0
   -4.1664   -2.6590   -1.9146 H   0  0  0  0  0  0  0  0  0  0  0  0
    3.2525    0.0695   -0.5716 H   0  0  0  0  0  0  0  0  0  0  0  0
    2.8478    0.9287    0.9223 H   0  0  0  0  0  0  0  0  0  0  0  0
    2.4402   -2.0632    0.3782 H   0  0  0  0  0  0  0  0  0  0  0  0
    3.6921   -1.3744    1.4227 H   0  0  0  0  0  0  0  0  0  0  0  0
  1  2  1  0
  2  3  1  0
  3  4  1  0
  4  5  1  0
  5  6  1  0
  6  7  2  0
  6  8  1  0
  8  9  1  0
  9 10  1  0
 10 11  2  0
 11 12  1  0
 12 13  2  0
 13 14  1  0
  8 15  2  3
 15 16  1  0
 16 17  2  0
 16 18  1  0
 18 19  2  0
 19 20  1  0
 20 21  2  0
 21 22  1  0
  5 23  1  0
 23 24  1  0
 24  2  1  0
 14 10  1  0
 22 18  1  0
  1 25  1  0
  1 26  1  0
  1 27  1  0
  3 28  1  0
  3 29  1  0
  4 30  1  0
  4 31  1  0
  9 32  1  0
  9 33  1  0
 11 34  1  0
 12 35  1  0
 13 36  1  0
 19 37  1  0
 20 38  1  0
 21 39  1  0
 23 40  1  0
 23 41  1  0
 24 42  1  0
 24 43  1  0
M  END
$$$$
