
     RDKit          3D

 51 54  0  0  0  0  0  0  0  0999 V2000
   -6.3604   -0.8327   -2.0391 C   0  0  0  0  0  0  0  0  0  0  0  0
   -5.9502   -1.5762   -0.7671 C   0  0  0  0  0  0  0  0  0  0  0  0
   -5.6467   -3.0482   -1.0585 C   0  0  0  0  0  0  0  0  0  0  0  0
   -4.8306   -0.9056   -0.1024 N   0  0  0  0  0  0  0  0  0  0  0  0
   -3.5419   -0.8862   -0.5803 C   0  0  0  0  0  0  0  0  0  0  0  0
   -2.7435   -0.1892    0.3090 C   0  0  0  0  0  0  0  0  0  0  0  0
   -1.3182   -0.0016    0.1070 C   0  0  0  0  0  0  0  0  0  0  0  0
   -0.6257    0.6430    0.9865 N   0  0  0  0  0  0  0  0  0  0  0  0
    0.7299    0.7848    0.8206 N   0  0  0  0  0  0  0  0  0  0  0  0
    1.5740   -0.0055    0.0429 C   0  0  0  0  0  0  0  0  0  0  0  0
    1.2188   -0.8931   -0.7350 O   0  0  0  0  0  0  0  0  0  0  0  0
    3.0491    0.3467    0.2150 C   0  0  0  0  0  0  0  0  0  0  0  0
    3.4551    1.0783   -0.9334 O   0  0  0  0  0  0  0  0  0  0  0  0
    4.7770    0.9127   -1.2888 C   0  0  0  0  0  0  0  0  0  0  0  0
    4.9716    0.8433   -2.6762 C   0  0  0  0  0  0  0  0  0  0  0  0
    6.2440    0.6666   -3.1995 C   0  0  0  0  0  0  0  0  0  0  0  0
    7.3290    0.5798   -2.3332 C   0  0  0  0  0  0  0  0  0  0  0  0
    7.1465    0.6793   -0.9429 C   0  0  0  0  0  0  0  0  0  0  0  0
    8.2458    0.6057   -0.0768 C   0  0  0  0  0  0  0  0  0  0  0  0
    8.0633    0.7170    1.2950 C   0  0  0  0  0  0  0  0  0  0  0  0
    6.7772    0.8985    1.7579 C   0  0  0  0  0  0  0  0  0  0  0  0
    5.6897    0.9748    0.9516 N   0  0  0  0  0  0  0  0  0  0  0  0
    5.8552    0.8575   -0.3896 C   0  0  0  0  0  0  0  0  0  0  0  0
   -3.6015    0.2545    1.3679 C   0  0  0  0  0  0  0  0  0  0  0  0
   -3.3971    1.0053    2.5483 C   0  0  0  0  0  0  0  0  0  0  0  0
   -4.4763    1.2975    3.3905 C   0  0  0  0  0  0  0  0  0  0  0  0
   -5.7586    0.8519    3.0770 C   0  0  0  0  0  0  0  0  0  0  0  0
   -5.9927    0.1012    1.9217 C   0  0  0  0  0  0  0  0  0  0  0  0
   -4.9024   -0.1932    1.0796 C   0  0  0  0  0  0  0  0  0  0  0  0
   -6.5795    0.2177   -1.8188 H   0  0  0  0  0  0  0  0  0  0  0  0
   -5.5689   -0.8515   -2.7977 H   0  0  0  0  0  0  0  0  0  0  0  0
   -7.2559   -1.2788   -2.4812 H   0  0  0  0  0  0  0  0  0  0  0  0
   -6.7978   -1.5535   -0.0723 H   0  0  0  0  0  0  0  0  0  0  0  0
   -6.5525   -3.5628   -1.4043 H   0  0  0  0  0  0  0  0  0  0  0  0
   -4.8869   -3.1539   -1.8388 H   0  0  0  0  0  0  0  0  0  0  0  0
   -5.2900   -3.5610   -0.1540 H   0  0  0  0  0  0  0  0  0  0  0  0
   -3.2854   -1.3772   -1.5120 H   0  0  0  0  0  0  0  0  0  0  0  0
   -0.9173   -0.4168   -0.8294 H   0  0  0  0  0  0  0  0  0  0  0  0
    1.1432    1.4466    1.4687 H   0  0  0  0  0  0  0  0  0  0  0  0
    3.5907   -0.5991    0.3305 H   0  0  0  0  0  0  0  0  0  0  0  0
    3.1804    0.9576    1.1077 H   0  0  0  0  0  0  0  0  0  0  0  0
    4.1103    0.9141   -3.3486 H   0  0  0  0  0  0  0  0  0  0  0  0
    6.3864    0.5894   -4.2747 H   0  0  0  0  0  0  0  0  0  0  0  0
    8.3242    0.4389   -2.7511 H   0  0  0  0  0  0  0  0  0  0  0  0
    9.2485    0.4649   -0.4680 H   0  0  0  0  0  0  0  0  0  0  0  0
    8.8978    0.6661    1.9773 H   0  0  0  0  0  0  0  0  0  0  0  0
    6.5730    0.9911    2.8269 H   0  0  0  0  0  0  0  0  0  0  0  0
   -2.3999    1.3646    2.8026 H   0  0  0  0  0  0  0  0  0  0  0  0
   -4.3093    1.8795    4.2932 H   0  0  0  0  0  0  0  0  0  0  0  0
   -6.5901    1.0925    3.7379 H   0  0  0  0  0  0  0  0  0  0  0  0
   -7.0014   -0.2354    1.6937 H   0  0  0  0  0  0  0  0  0  0  0  0
  1  2  1  0
  2  3  1  0
  2  4  1  0
  4  5  1  0
  5  6  2  0
  6  7  1  0
  7  8  2  3
  8  9  1  0
  9 10  1  0
 10 11  2  0
 10 12  1  0
 12 13  1  0
 13 14  1  0
 14 15  2  0
 15 16  1  0
 16 17  2  0
 17 18  1  0
 18 19  2  0
 19 20  1  0
 20 21  2  0
 21 22  1  0
 22 23  2  0
  6 24  1  0
 24 25  2  0
 25 26  1  0
 26 27  2  0
 27 28  1  0
 28 29  2  0
 29  4  1  0
 23 14  1  0
 29 24  1  0
 23 18  1  0
  1 30  1  0
  1 31  1  0
  1 32  1  0
  2 33  1  0
  3 34  1  0
  3 35  1  0
  3 36  1  0
  5 37  1  0
  7 38  1  0
  9 39  1  0
 12 40  1  0
 12 41  1  0
 15 42  1  0
 16 43  1  0
 17 44  1  0
 19 45  1  0
 20 46  1  0
 21 47  1  0
 25 48  1  0
 26 49  1  0
 27 50  1  0
 28 51  1  0
M  END
$$$$
