
     RDKit          3D

 36 37  0  0  0  0  0  0  0  0999 V2000
    4.5566   -0.6848   -2.5186 C   0  0  0  0  0  0  0  0  0  0  0  0
    3.4358   -0.6382   -1.5960 N   0  0  0  0  0  0  0  0  0  0  0  0
    3.4939   -0.1977   -0.2863 C   0  0  0  0  0  0  0  0  0  0  0  0
    4.9080    0.3867    0.4138 S   0  0  0  0  0  0  0  0  0  0  0  0
    2.2638   -0.2864    0.3844 N   0  0  0  0  0  0  0  0  0  0  0  0
    2.0469    0.4233    1.6651 C   0  0  0  0  0  0  0  0  0  0  0  0
    0.6517    0.2648    2.2907 C   0  0  0  0  0  0  0  0  0  0  0  0
   -0.4262    0.1979    1.2424 C   0  0  0  0  0  0  0  0  0  0  0  0
   -1.6768    0.7985    1.4136 C   0  0  0  0  0  0  0  0  0  0  0  0
   -2.6588    0.6717    0.4241 C   0  0  0  0  0  0  0  0  0  0  0  0
   -3.9117    1.2302    0.5001 O   0  0  0  0  0  0  0  0  0  0  0  0
   -4.2075    2.0355    1.6316 C   0  0  0  0  0  0  0  0  0  0  0  0
   -2.3874   -0.0793   -0.7401 C   0  0  0  0  0  0  0  0  0  0  0  0
   -3.4090   -0.1579   -1.6554 O   0  0  0  0  0  0  0  0  0  0  0  0
   -3.1746   -0.8906   -2.8485 C   0  0  0  0  0  0  0  0  0  0  0  0
   -1.1377   -0.6910   -0.8978 C   0  0  0  0  0  0  0  0  0  0  0  0
   -0.1551   -0.5510    0.0882 C   0  0  0  0  0  0  0  0  0  0  0  0
    1.1951   -1.2146   -0.0178 C   0  0  0  0  0  0  0  0  0  0  0  0
    5.3893   -1.2359   -2.0743 H   0  0  0  0  0  0  0  0  0  0  0  0
    4.2268   -1.1944   -3.4274 H   0  0  0  0  0  0  0  0  0  0  0  0
    4.8659    0.3349   -2.7633 H   0  0  0  0  0  0  0  0  0  0  0  0
    2.5534   -0.4298   -2.0416 H   0  0  0  0  0  0  0  0  0  0  0  0
    2.2292    1.4873    1.4665 H   0  0  0  0  0  0  0  0  0  0  0  0
    2.7959    0.0905    2.3926 H   0  0  0  0  0  0  0  0  0  0  0  0
    0.4748    1.0881    2.9923 H   0  0  0  0  0  0  0  0  0  0  0  0
    0.6129   -0.6663    2.8704 H   0  0  0  0  0  0  0  0  0  0  0  0
   -1.8621    1.3565    2.3249 H   0  0  0  0  0  0  0  0  0  0  0  0
   -5.2259    2.4181    1.5128 H   0  0  0  0  0  0  0  0  0  0  0  0
   -3.5344    2.8971    1.6919 H   0  0  0  0  0  0  0  0  0  0  0  0
   -4.1805    1.4454    2.5534 H   0  0  0  0  0  0  0  0  0  0  0  0
   -4.0821   -0.8372   -3.4578 H   0  0  0  0  0  0  0  0  0  0  0  0
   -2.3582   -0.4497   -3.4298 H   0  0  0  0  0  0  0  0  0  0  0  0
   -2.9822   -1.9466   -2.6320 H   0  0  0  0  0  0  0  0  0  0  0  0
   -0.9087   -1.2826   -1.7773 H   0  0  0  0  0  0  0  0  0  0  0  0
    1.3474   -1.6237   -1.0189 H   0  0  0  0  0  0  0  0  0  0  0  0
    1.2316   -2.0689    0.6704 H   0  0  0  0  0  0  0  0  0  0  0  0
  1  2  1  0
  2  3  1  0
  3  4  2  0
  3  5  1  0
  5  6  1  0
  6  7  1  0
  7  8  1  0
  8  9  2  0
  9 10  1  0
 10 11  1  0
 11 12  1  0
 10 13  2  0
 13 14  1  0
 14 15  1  0
 13 16  1  0
 16 17  2  0
 17 18  1  0
 18  5  1  0
 17  8  1  0
  1 19  1  0
  1 20  1  0
  1 21  1  0
  2 22  1  0
  6 23  1  0
  6 24  1  0
  7 25  1  0
  7 26  1  0
  9 27  1  0
 12 28  1  0
 12 29  1  0
 12 30  1  0
 15 31  1  0
 15 32  1  0
 15 33  1  0
 16 34  1  0
 18 35  1  0
 18 36  1  0
M  END
$$$$
