
     RDKit          3D

 69 71  0  0  0  0  0  0  0  0999 V2000
   -7.3716    2.5911    2.4707 C   0  0  0  0  0  0  0  0  0  0  0  0
   -6.7385    2.2643    1.1286 C   0  0  0  0  0  0  0  0  0  0  0  0
   -5.8443    1.0269    1.2174 C   0  0  0  0  0  0  0  0  0  0  0  0
   -5.2060    0.7326   -0.0680 N   0  0  0  0  0  0  0  0  0  0  0  0
   -5.9776   -0.0509   -1.0373 C   0  0  0  0  0  0  0  0  0  0  0  0
   -5.4820   -1.4935   -1.1770 C   0  0  0  0  0  0  0  0  0  0  0  0
   -5.7107   -2.3294    0.0728 C   0  0  0  0  0  0  0  0  0  0  0  0
   -3.9685    1.2387   -0.4758 C   0  0  0  0  0  0  0  0  0  0  0  0
   -3.5461    1.0528   -1.6208 O   0  0  0  0  0  0  0  0  0  0  0  0
   -3.1654    2.0502    0.5551 C   0  0  0  0  0  0  0  0  0  0  0  0
   -1.8727    2.4639    0.0078 N   0  0  0  0  0  0  0  0  0  0  0  0
   -0.8139    1.5543    0.1246 C   0  0  0  0  0  0  0  0  0  0  0  0
   -0.9388    0.5155    0.7809 O   0  0  0  0  0  0  0  0  0  0  0  0
    0.3883    1.8773   -0.5153 N   0  0  0  0  0  0  0  0  0  0  0  0
    1.4854    0.9176   -0.4263 C   0  0  0  0  0  0  0  0  0  0  0  0
    2.4097    1.2282    0.7545 C   0  0  0  0  0  0  0  0  0  0  0  0
    3.5893    0.2586    0.8756 C   0  0  0  0  0  0  0  0  0  0  0  0
    4.5548    0.3395   -0.3123 C   0  0  0  0  0  0  0  0  0  0  0  0
    5.8537   -0.4356   -0.0869 C   0  0  0  0  0  0  0  0  0  0  0  0
    5.6997   -1.9503   -0.1481 C   0  0  0  0  0  0  0  0  0  0  0  0
    4.6131   -2.4936   -0.3028 O   0  0  0  0  0  0  0  0  0  0  0  0
    6.9264   -2.5825   -0.0110 N   0  0  0  0  0  0  0  0  0  0  0  0
    7.1762   -3.9674    0.0627 C   0  0  0  0  0  0  0  0  0  0  0  0
    8.5162   -4.3747    0.0768 C   0  0  0  0  0  0  0  0  0  0  0  0
    8.8504   -5.7303    0.1499 C   0  0  0  0  0  0  0  0  0  0  0  0
    7.8447   -6.6897    0.2285 C   0  0  0  0  0  0  0  0  0  0  0  0
    6.5087   -6.2907    0.2431 C   0  0  0  0  0  0  0  0  0  0  0  0
    6.1748   -4.9364    0.1555 C   0  0  0  0  0  0  0  0  0  0  0  0
    0.6424    3.0725   -1.1992 C   0  0  0  0  0  0  0  0  0  0  0  0
    1.7458    3.3449   -1.6695 O   0  0  0  0  0  0  0  0  0  0  0  0
   -0.5013    3.9365   -1.2831 C   0  0  0  0  0  0  0  0  0  0  0  0
   -0.4874    5.4206   -2.1065 S   0  0  0  0  0  0  0  0  0  0  0  0
   -2.1372    5.6912   -1.7401 C   0  0  0  0  0  0  0  0  0  0  0  0
   -2.6750    4.6616   -0.9949 C   0  0  0  0  0  0  0  0  0  0  0  0
   -1.7140    3.6440   -0.7195 C   0  0  0  0  0  0  0  0  0  0  0  0
   -8.0254    3.4636    2.3801 H   0  0  0  0  0  0  0  0  0  0  0  0
   -7.9724    1.7524    2.8341 H   0  0  0  0  0  0  0  0  0  0  0  0
   -6.6068    2.8178    3.2205 H   0  0  0  0  0  0  0  0  0  0  0  0
   -6.1575    3.1271    0.7833 H   0  0  0  0  0  0  0  0  0  0  0  0
   -7.5294    2.1037    0.3859 H   0  0  0  0  0  0  0  0  0  0  0  0
   -6.4288    0.1509    1.5223 H   0  0  0  0  0  0  0  0  0  0  0  0
   -5.0813    1.1777    1.9869 H   0  0  0  0  0  0  0  0  0  0  0  0
   -7.0385   -0.0350   -0.7606 H   0  0  0  0  0  0  0  0  0  0  0  0
   -5.9016    0.4427   -2.0136 H   0  0  0  0  0  0  0  0  0  0  0  0
   -6.0152   -1.9633   -2.0118 H   0  0  0  0  0  0  0  0  0  0  0  0
   -4.4153   -1.5118   -1.4293 H   0  0  0  0  0  0  0  0  0  0  0  0
   -5.4043   -3.3655   -0.1075 H   0  0  0  0  0  0  0  0  0  0  0  0
   -6.7685   -2.3351    0.3549 H   0  0  0  0  0  0  0  0  0  0  0  0
   -5.1293   -1.9491    0.9183 H   0  0  0  0  0  0  0  0  0  0  0  0
   -3.7321    2.9325    0.8644 H   0  0  0  0  0  0  0  0  0  0  0  0
   -2.9978    1.4285    1.4398 H   0  0  0  0  0  0  0  0  0  0  0  0
    1.0859   -0.0985   -0.3278 H   0  0  0  0  0  0  0  0  0  0  0  0
    2.0419    0.9458   -1.3685 H   0  0  0  0  0  0  0  0  0  0  0  0
    1.8276    1.1909    1.6835 H   0  0  0  0  0  0  0  0  0  0  0  0
    2.7911    2.2545    0.6777 H   0  0  0  0  0  0  0  0  0  0  0  0
    3.2081   -0.7617    0.9882 H   0  0  0  0  0  0  0  0  0  0  0  0
    4.1328    0.4946    1.7986 H   0  0  0  0  0  0  0  0  0  0  0  0
    4.8109    1.3923   -0.4861 H   0  0  0  0  0  0  0  0  0  0  0  0
    4.0652   -0.0243   -1.2224 H   0  0  0  0  0  0  0  0  0  0  0  0
    6.2920   -0.1683    0.8822 H   0  0  0  0  0  0  0  0  0  0  0  0
    6.5679   -0.1463   -0.8687 H   0  0  0  0  0  0  0  0  0  0  0  0
    7.7440   -1.9856    0.0018 H   0  0  0  0  0  0  0  0  0  0  0  0
    9.3197   -3.6463    0.0148 H   0  0  0  0  0  0  0  0  0  0  0  0
    9.8952   -6.0365    0.1360 H   0  0  0  0  0  0  0  0  0  0  0  0
    8.0967   -7.7453    0.2889 H   0  0  0  0  0  0  0  0  0  0  0  0
    5.7167   -7.0332    0.3298 H   0  0  0  0  0  0  0  0  0  0  0  0
    5.1215   -4.6704    0.1736 H   0  0  0  0  0  0  0  0  0  0  0  0
   -2.6318    6.5861   -2.0926 H   0  0  0  0  0  0  0  0  0  0  0  0
   -3.7096    4.6576   -0.6785 H   0  0  0  0  0  0  0  0  0  0  0  0
  1  2  1  0
  2  3  1  0
  3  4  1  0
  4  5  1  0
  5  6  1  0
  6  7  1  0
  4  8  1  0
  8  9  2  0
  8 10  1  0
 10 11  1  0
 11 12  1  0
 12 13  2  0
 12 14  1  0
 14 15  1  0
 15 16  1  0
 16 17  1  0
 17 18  1  0
 18 19  1  0
 19 20  1  0
 20 21  2  0
 20 22  1  0
 22 23  1  0
 23 24  2  0
 24 25  1  0
 25 26  2  0
 26 27  1  0
 27 28  2  0
 14 29  1  0
 29 30  2  0
 29 31  1  0
 31 32  1  0
 32 33  1  0
 33 34  2  0
 34 35  1  0
 35 11  1  0
 28 23  1  0
 35 31  2  0
  1 36  1  0
  1 37  1  0
  1 38  1  0
  2 39  1  0
  2 40  1  0
  3 41  1  0
  3 42  1  0
  5 43  1  0
  5 44  1  0
  6 45  1  0
  6 46  1  0
  7 47  1  0
  7 48  1  0
  7 49  1  0
 10 50  1  0
 10 51  1  0
 15 52  1  0
 15 53  1  0
 16 54  1  0
 16 55  1  0
 17 56  1  0
 17 57  1  0
 18 58  1  0
 18 59  1  0
 19 60  1  0
 19 61  1  0
 22 62  1  0
 24 63  1  0
 25 64  1  0
 26 65  1  0
 27 66  1  0
 28 67  1  0
 33 68  1  0
 34 69  1  0
M  END
$$$$
