
     RDKit          3D

 40 42  0  0  0  0  0  0  0  0999 V2000
   -1.9180   -2.0070    0.5147 O   0  0  0  0  0  0  0  0  0  0  0  0
   -1.4317   -0.8845    0.6575 C   0  0  0  0  0  0  0  0  0  0  0  0
   -2.2748    0.3859    0.5790 C   0  0  0  0  0  0  0  0  0  0  0  0
   -3.6502    0.1840   -0.0166 C   0  0  0  0  0  0  0  0  0  0  0  0
   -3.8502    0.3076   -1.3994 C   0  0  0  0  0  0  0  0  0  0  0  0
   -5.1182    0.1133   -1.9515 C   0  0  0  0  0  0  0  0  0  0  0  0
   -6.1901   -0.2122   -1.1234 C   0  0  0  0  0  0  0  0  0  0  0  0
   -7.9066   -0.4762   -1.8708 Br  0  0  0  0  0  0  0  0  0  0  0  0
   -6.0058   -0.3488    0.2505 C   0  0  0  0  0  0  0  0  0  0  0  0
   -4.7376   -0.1539    0.8021 C   0  0  0  0  0  0  0  0  0  0  0  0
   -0.0783   -0.7119    0.9206 N   0  0  0  0  0  0  0  0  0  0  0  0
    0.5657    0.5875    1.1769 C   0  0  0  0  0  0  0  0  0  0  0  0
    1.9619    0.4359    1.8026 C   0  0  0  0  0  0  0  0  0  0  0  0
    2.8455   -0.4102    0.9744 N   0  0  0  0  0  0  0  0  0  0  0  0
    3.6469    0.3075    0.0653 C   0  0  0  0  0  0  0  0  0  0  0  0
    4.7023   -0.3414   -0.5813 C   0  0  0  0  0  0  0  0  0  0  0  0
    5.5025    0.3566   -1.4842 C   0  0  0  0  0  0  0  0  0  0  0  0
    5.2387    1.6953   -1.7243 C   0  0  0  0  0  0  0  0  0  0  0  0
    4.1854    2.2754   -1.0435 C   0  0  0  0  0  0  0  0  0  0  0  0
    3.3964    1.6157   -0.1648 N   0  0  0  0  0  0  0  0  0  0  0  0
    2.1870   -1.5800    0.3391 C   0  0  0  0  0  0  0  0  0  0  0  0
    0.8064   -1.8837    0.9502 C   0  0  0  0  0  0  0  0  0  0  0  0
   -1.7497    1.1381   -0.0210 H   0  0  0  0  0  0  0  0  0  0  0  0
   -2.3777    0.7929    1.5922 H   0  0  0  0  0  0  0  0  0  0  0  0
   -3.0181    0.5499   -2.0569 H   0  0  0  0  0  0  0  0  0  0  0  0
   -5.2564    0.2115   -3.0247 H   0  0  0  0  0  0  0  0  0  0  0  0
   -6.8367   -0.6136    0.8985 H   0  0  0  0  0  0  0  0  0  0  0  0
   -4.6009   -0.2792    1.8740 H   0  0  0  0  0  0  0  0  0  0  0  0
    0.6275    1.1092    0.2153 H   0  0  0  0  0  0  0  0  0  0  0  0
   -0.0736    1.1772    1.8413 H   0  0  0  0  0  0  0  0  0  0  0  0
    2.3989    1.4165    2.0279 H   0  0  0  0  0  0  0  0  0  0  0  0
    1.8579   -0.0592    2.7772 H   0  0  0  0  0  0  0  0  0  0  0  0
    4.9171   -1.3833   -0.3693 H   0  0  0  0  0  0  0  0  0  0  0  0
    6.3261   -0.1430   -1.9852 H   0  0  0  0  0  0  0  0  0  0  0  0
    5.8401    2.2730   -2.4165 H   0  0  0  0  0  0  0  0  0  0  0  0
    3.9370    3.3228   -1.1881 H   0  0  0  0  0  0  0  0  0  0  0  0
    2.8310   -2.4598    0.4511 H   0  0  0  0  0  0  0  0  0  0  0  0
    2.0390   -1.4049   -0.7359 H   0  0  0  0  0  0  0  0  0  0  0  0
    0.9119   -2.1771    2.0016 H   0  0  0  0  0  0  0  0  0  0  0  0
    0.3495   -2.7259    0.4202 H   0  0  0  0  0  0  0  0  0  0  0  0
  1  2  2  0
  2  3  1  0
  3  4  1  0
  4  5  2  0
  5  6  1  0
  6  7  2  0
  7  8  1  0
  7  9  1  0
  9 10  2  0
  2 11  1  0
 11 12  1  0
 12 13  1  0
 13 14  1  0
 14 15  1  0
 15 16  2  0
 16 17  1  0
 17 18  2  0
 18 19  1  0
 19 20  2  0
 14 21  1  0
 21 22  1  0
 10  4  1  0
 22 11  1  0
 20 15  1  0
  3 23  1  0
  3 24  1  0
  5 25  1  0
  6 26  1  0
  9 27  1  0
 10 28  1  0
 12 29  1  0
 12 30  1  0
 13 31  1  0
 13 32  1  0
 16 33  1  0
 17 34  1  0
 18 35  1  0
 19 36  1  0
 21 37  1  0
 21 38  1  0
 22 39  1  0
 22 40  1  0
M  END
$$$$
