
     RDKit          3D

 38 39  0  0  0  0  0  0  0  0999 V2000
   -2.7958    3.3827   -1.8359 C   0  0  0  0  0  0  0  0  0  0  0  0
   -3.3919    2.3087   -1.1195 O   0  0  0  0  0  0  0  0  0  0  0  0
   -2.6341    1.6950   -0.1567 C   0  0  0  0  0  0  0  0  0  0  0  0
   -1.2935    1.9847    0.1134 C   0  0  0  0  0  0  0  0  0  0  0  0
   -0.6119    1.3073    1.1353 C   0  0  0  0  0  0  0  0  0  0  0  0
    0.7944    1.6164    1.3994 C   0  0  0  0  0  0  0  0  0  0  0  0
    1.8513    0.8903    1.0020 C   0  0  0  0  0  0  0  0  0  0  0  0
    1.7838   -0.3435    0.1643 C   0  0  0  0  0  0  0  0  0  0  0  0
    0.8505   -0.5762   -0.5949 O   0  0  0  0  0  0  0  0  0  0  0  0
    2.9411   -1.2793    0.2250 C   0  0  0  0  0  0  0  0  0  0  0  0
    3.7507   -1.4001    1.3641 C   0  0  0  0  0  0  0  0  0  0  0  0
    4.8225   -2.2992    1.3727 C   0  0  0  0  0  0  0  0  0  0  0  0
    5.0727   -3.0791    0.2476 C   0  0  0  0  0  0  0  0  0  0  0  0
    6.1053   -3.9674    0.2142 O   0  0  0  0  0  0  0  0  0  0  0  0
    4.2679   -2.9821   -0.8817 C   0  0  0  0  0  0  0  0  0  0  0  0
    3.1984   -2.0857   -0.8924 C   0  0  0  0  0  0  0  0  0  0  0  0
   -1.2773    0.3457    1.9020 C   0  0  0  0  0  0  0  0  0  0  0  0
   -2.6131    0.0490    1.6397 C   0  0  0  0  0  0  0  0  0  0  0  0
   -3.2769    0.7012    0.6003 C   0  0  0  0  0  0  0  0  0  0  0  0
   -4.5941    0.3647    0.4142 O   0  0  0  0  0  0  0  0  0  0  0  0
   -4.8267   -0.2290   -0.8735 C   0  0  0  0  0  0  0  0  0  0  0  0
   -5.9857    0.3965   -1.5316 C   0  0  0  0  0  0  0  0  0  0  0  0
   -6.9044    0.8585   -2.0737 N   0  0  0  0  0  0  0  0  0  0  0  0
   -1.9492    3.0329   -2.4353 H   0  0  0  0  0  0  0  0  0  0  0  0
   -3.5469    3.7827   -2.5241 H   0  0  0  0  0  0  0  0  0  0  0  0
   -2.4978    4.1921   -1.1614 H   0  0  0  0  0  0  0  0  0  0  0  0
   -0.7490    2.7226   -0.4661 H   0  0  0  0  0  0  0  0  0  0  0  0
    0.9559    2.5190    1.9845 H   0  0  0  0  0  0  0  0  0  0  0  0
    2.8449    1.2264    1.2799 H   0  0  0  0  0  0  0  0  0  0  0  0
    3.5525   -0.8211    2.2618 H   0  0  0  0  0  0  0  0  0  0  0  0
    5.4405   -2.3823    2.2618 H   0  0  0  0  0  0  0  0  0  0  0  0
    6.5725   -3.9417    1.0653 H   0  0  0  0  0  0  0  0  0  0  0  0
    4.4695   -3.6035   -1.7502 H   0  0  0  0  0  0  0  0  0  0  0  0
    2.5664   -2.0172   -1.7762 H   0  0  0  0  0  0  0  0  0  0  0  0
   -0.7604   -0.1821    2.6993 H   0  0  0  0  0  0  0  0  0  0  0  0
   -3.1319   -0.6963    2.2358 H   0  0  0  0  0  0  0  0  0  0  0  0
   -3.9527   -0.2027   -1.5364 H   0  0  0  0  0  0  0  0  0  0  0  0
   -5.0475   -1.2882   -0.6954 H   0  0  0  0  0  0  0  0  0  0  0  0
  1  2  1  0
  2  3  1  0
  3  4  2  0
  4  5  1  0
  5  6  1  0
  6  7  2  3
  7  8  1  0
  8  9  2  0
  8 10  1  0
 10 11  2  0
 11 12  1  0
 12 13  2  0
 13 14  1  0
 13 15  1  0
 15 16  2  0
  5 17  2  0
 17 18  1  0
 18 19  2  0
 19 20  1  0
 20 21  1  0
 21 22  1  0
 22 23  3  0
 19  3  1  0
 16 10  1  0
  1 24  1  0
  1 25  1  0
  1 26  1  0
  4 27  1  0
  6 28  1  0
  7 29  1  0
 11 30  1  0
 12 31  1  0
 14 32  1  0
 15 33  1  0
 16 34  1  0
 17 35  1  0
 18 36  1  0
 21 37  1  0
 21 38  1  0
M  END
$$$$
