
     RDKit          3D

 58 62  0  0  0  0  0  0  0  0999 V2000
   -1.8383   -0.2708   -4.1023 C   0  0  0  0  0  0  0  0  0  0  0  0
   -2.5970    0.7245   -3.4153 O   0  0  0  0  0  0  0  0  0  0  0  0
   -3.7343    0.2258   -2.8353 C   0  0  0  0  0  0  0  0  0  0  0  0
   -4.6640   -0.5138   -3.5750 C   0  0  0  0  0  0  0  0  0  0  0  0
   -5.8386   -0.9670   -2.9743 C   0  0  0  0  0  0  0  0  0  0  0  0
   -6.0951   -0.6700   -1.6391 C   0  0  0  0  0  0  0  0  0  0  0  0
   -5.1792    0.0854   -0.9051 C   0  0  0  0  0  0  0  0  0  0  0  0
   -3.9865    0.5452   -1.4922 C   0  0  0  0  0  0  0  0  0  0  0  0
   -3.0081    1.3572   -0.6688 C   0  0  0  0  0  0  0  0  0  0  0  0
   -2.3470    0.5658    0.3698 N   0  0  0  0  0  0  0  0  0  0  0  0
   -2.8454    0.5801    1.6661 C   0  0  0  0  0  0  0  0  0  0  0  0
   -3.8213    1.2459    2.0078 O   0  0  0  0  0  0  0  0  0  0  0  0
   -2.1569   -0.2553    2.6916 C   0  0  0  0  0  0  0  0  0  0  0  0
   -2.6483   -0.2338    4.0065 C   0  0  0  0  0  0  0  0  0  0  0  0
   -2.0299   -0.9877    5.0002 C   0  0  0  0  0  0  0  0  0  0  0  0
   -0.9169   -1.7602    4.6848 C   0  0  0  0  0  0  0  0  0  0  0  0
   -0.4199   -1.7900    3.3770 C   0  0  0  0  0  0  0  0  0  0  0  0
   -1.0414   -1.0448    2.3703 C   0  0  0  0  0  0  0  0  0  0  0  0
   -0.6123   -1.0161    1.0249 N   0  0  0  0  0  0  0  0  0  0  0  0
    0.3899   -1.6399    0.3067 C   0  0  0  0  0  0  0  0  0  0  0  0
    1.5411   -2.8008    0.8775 S   0  0  0  0  0  0  0  0  0  0  0  0
    3.0701   -1.9977    0.2947 C   0  0  0  0  0  0  0  0  0  0  0  0
    3.2580   -0.6140    0.9198 C   0  0  0  0  0  0  0  0  0  0  0  0
    2.7378   -0.3119    1.9976 O   0  0  0  0  0  0  0  0  0  0  0  0
    4.0591    0.2885    0.2233 N   0  0  0  0  0  0  0  0  0  0  0  0
    4.1626    1.6607    0.7215 C   0  0  0  0  0  0  0  0  0  0  0  0
    4.3388    2.6581   -0.4173 C   0  0  0  0  0  0  0  0  0  0  0  0
    5.5783    2.3574   -1.2604 C   0  0  0  0  0  0  0  0  0  0  0  0
    5.9894    0.8864   -1.2151 C   0  0  0  0  0  0  0  0  0  0  0  0
    4.7973   -0.0388   -0.9984 C   0  0  0  0  0  0  0  0  0  0  0  0
    0.3876   -1.2206   -0.9399 N   0  0  0  0  0  0  0  0  0  0  0  0
   -0.6363   -0.3291   -1.0791 N   0  0  0  0  0  0  0  0  0  0  0  0
   -1.2437   -0.2209    0.0821 C   0  0  0  0  0  0  0  0  0  0  0  0
   -2.2331   -0.4209   -5.1126 H   0  0  0  0  0  0  0  0  0  0  0  0
   -1.8100   -1.2203   -3.5551 H   0  0  0  0  0  0  0  0  0  0  0  0
   -0.8118    0.0971   -4.1944 H   0  0  0  0  0  0  0  0  0  0  0  0
   -4.4946   -0.7262   -4.6263 H   0  0  0  0  0  0  0  0  0  0  0  0
   -6.5577   -1.5415   -3.5521 H   0  0  0  0  0  0  0  0  0  0  0  0
   -7.0127   -1.0152   -1.1697 H   0  0  0  0  0  0  0  0  0  0  0  0
   -5.4056    0.3219    0.1332 H   0  0  0  0  0  0  0  0  0  0  0  0
   -3.5552    2.1901   -0.2089 H   0  0  0  0  0  0  0  0  0  0  0  0
   -2.2356    1.8271   -1.2887 H   0  0  0  0  0  0  0  0  0  0  0  0
   -3.5136    0.3758    4.2619 H   0  0  0  0  0  0  0  0  0  0  0  0
   -2.4100   -0.9653    6.0186 H   0  0  0  0  0  0  0  0  0  0  0  0
   -0.4230   -2.3399    5.4623 H   0  0  0  0  0  0  0  0  0  0  0  0
    0.4616   -2.3954    3.2120 H   0  0  0  0  0  0  0  0  0  0  0  0
    3.0241   -1.9371   -0.7956 H   0  0  0  0  0  0  0  0  0  0  0  0
    3.9224   -2.6214    0.5803 H   0  0  0  0  0  0  0  0  0  0  0  0
    5.0211    1.6972    1.4029 H   0  0  0  0  0  0  0  0  0  0  0  0
    3.2704    1.9202    1.3020 H   0  0  0  0  0  0  0  0  0  0  0  0
    3.4529    2.6180   -1.0646 H   0  0  0  0  0  0  0  0  0  0  0  0
    4.3949    3.6798   -0.0256 H   0  0  0  0  0  0  0  0  0  0  0  0
    6.4209    2.9697   -0.9160 H   0  0  0  0  0  0  0  0  0  0  0  0
    5.3841    2.6599   -2.2969 H   0  0  0  0  0  0  0  0  0  0  0  0
    6.7024    0.7444   -0.3923 H   0  0  0  0  0  0  0  0  0  0  0  0
    6.5183    0.6192   -2.1369 H   0  0  0  0  0  0  0  0  0  0  0  0
    4.0937    0.0400   -1.8357 H   0  0  0  0  0  0  0  0  0  0  0  0
    5.1466   -1.0748   -0.9488 H   0  0  0  0  0  0  0  0  0  0  0  0
  1  2  1  0
  2  3  1  0
  3  4  2  0
  4  5  1  0
  5  6  2  0
  6  7  1  0
  7  8  2  0
  8  9  1  0
  9 10  1  0
 10 11  1  0
 11 12  2  0
 11 13  1  0
 13 14  2  0
 14 15  1  0
 15 16  2  0
 16 17  1  0
 17 18  2  0
 18 19  1  0
 19 20  1  0
 20 21  1  0
 21 22  1  0
 22 23  1  0
 23 24  2  0
 23 25  1  0
 25 26  1  0
 26 27  1  0
 27 28  1  0
 28 29  1  0
 29 30  1  0
 20 31  2  0
 31 32  1  0
 32 33  2  0
  8  3  1  0
 33 10  1  0
 18 13  1  0
 33 19  1  0
 30 25  1  0
  1 34  1  0
  1 35  1  0
  1 36  1  0
  4 37  1  0
  5 38  1  0
  6 39  1  0
  7 40  1  0
  9 41  1  0
  9 42  1  0
 14 43  1  0
 15 44  1  0
 16 45  1  0
 17 46  1  0
 22 47  1  0
 22 48  1  0
 26 49  1  0
 26 50  1  0
 27 51  1  0
 27 52  1  0
 28 53  1  0
 28 54  1  0
 29 55  1  0
 29 56  1  0
 30 57  1  0
 30 58  1  0
M  END
$$$$
