
     RDKit          3D

 48 50  0  0  0  0  0  0  0  0999 V2000
    2.8631    2.2227   -2.8375 C   0  0  0  0  0  0  0  0  0  0  0  0
    2.5113    1.2839   -1.7334 C   0  0  0  0  0  0  0  0  0  0  0  0
    1.2580    1.0792   -1.1941 C   0  0  0  0  0  0  0  0  0  0  0  0
    1.3374    0.0293   -0.2493 C   0  0  0  0  0  0  0  0  0  0  0  0
    0.2510   -0.5194    0.5405 C   0  0  0  0  0  0  0  0  0  0  0  0
   -0.9328   -0.0149    0.4136 N   0  0  0  0  0  0  0  0  0  0  0  0
   -1.9099   -0.5790    1.1825 N   0  0  0  0  0  0  0  0  0  0  0  0
   -3.2176   -0.0968    1.1055 C   0  0  0  0  0  0  0  0  0  0  0  0
   -3.5678    0.8355    0.3910 O   0  0  0  0  0  0  0  0  0  0  0  0
   -4.1321   -0.8584    2.0484 C   0  0  0  0  0  0  0  0  0  0  0  0
   -5.6223   -0.5496    1.9075 C   0  0  0  0  0  0  0  0  0  0  0  0
   -6.3980   -1.3590    2.9548 C   0  0  0  0  0  0  0  0  0  0  0  0
   -6.1262   -0.9544    0.6271 O   0  0  0  0  0  0  0  0  0  0  0  0
   -6.5834    0.2504    0.0086 C   0  0  0  0  0  0  0  0  0  0  0  0
   -6.8590    1.1886    1.1553 C   0  0  0  0  0  0  0  0  0  0  0  0
   -5.8982    0.8335    2.1494 O   0  0  0  0  0  0  0  0  0  0  0  0
    2.6692   -0.3704   -0.2030 C   0  0  0  0  0  0  0  0  0  0  0  0
    3.3002   -1.3622    0.7218 C   0  0  0  0  0  0  0  0  0  0  0  0
    3.3874    0.3840   -1.1361 N   0  0  0  0  0  0  0  0  0  0  0  0
    4.7755    0.2482   -1.4341 C   0  0  0  0  0  0  0  0  0  0  0  0
    5.5867    1.3831   -1.5451 C   0  0  0  0  0  0  0  0  0  0  0  0
    6.9468    1.2441   -1.8356 C   0  0  0  0  0  0  0  0  0  0  0  0
    7.5029   -0.0248   -2.0197 C   0  0  0  0  0  0  0  0  0  0  0  0
    9.1910   -0.1194   -2.3731 Cl  0  0  0  0  0  0  0  0  0  0  0  0
    6.6927   -1.1604   -1.9127 C   0  0  0  0  0  0  0  0  0  0  0  0
    7.3076   -2.7604   -2.1350 Cl  0  0  0  0  0  0  0  0  0  0  0  0
    5.3309   -1.0243   -1.6201 C   0  0  0  0  0  0  0  0  0  0  0  0
    3.3071    3.1400   -2.4402 H   0  0  0  0  0  0  0  0  0  0  0  0
    1.9644    2.5099   -3.3949 H   0  0  0  0  0  0  0  0  0  0  0  0
    3.5512    1.7666   -3.5556 H   0  0  0  0  0  0  0  0  0  0  0  0
    0.3567    1.6157   -1.4716 H   0  0  0  0  0  0  0  0  0  0  0  0
    0.4696   -1.3566    1.2241 H   0  0  0  0  0  0  0  0  0  0  0  0
   -1.6796   -1.3490    1.7994 H   0  0  0  0  0  0  0  0  0  0  0  0
   -3.9654   -1.9287    1.8711 H   0  0  0  0  0  0  0  0  0  0  0  0
   -3.7993   -0.6137    3.0653 H   0  0  0  0  0  0  0  0  0  0  0  0
   -6.1031   -1.0799    3.9720 H   0  0  0  0  0  0  0  0  0  0  0  0
   -7.4751   -1.1736    2.8693 H   0  0  0  0  0  0  0  0  0  0  0  0
   -6.2471   -2.4353    2.8183 H   0  0  0  0  0  0  0  0  0  0  0  0
   -5.7946    0.6273   -0.6477 H   0  0  0  0  0  0  0  0  0  0  0  0
   -7.4701    0.0528   -0.5999 H   0  0  0  0  0  0  0  0  0  0  0  0
   -7.8573    1.0205    1.5737 H   0  0  0  0  0  0  0  0  0  0  0  0
   -6.7634    2.2427    0.8827 H   0  0  0  0  0  0  0  0  0  0  0  0
    3.3111   -2.3573    0.2671 H   0  0  0  0  0  0  0  0  0  0  0  0
    4.3208   -1.0785    0.9954 H   0  0  0  0  0  0  0  0  0  0  0  0
    2.7409   -1.4309    1.6605 H   0  0  0  0  0  0  0  0  0  0  0  0
    5.1913    2.3802   -1.3668 H   0  0  0  0  0  0  0  0  0  0  0  0
    7.5705    2.1325   -1.9085 H   0  0  0  0  0  0  0  0  0  0  0  0
    4.7071   -1.9137   -1.5821 H   0  0  0  0  0  0  0  0  0  0  0  0
  1  2  1  0
  2  3  2  0
  3  4  1  0
  4  5  1  0
  5  6  2  3
  6  7  1  0
  7  8  1  0
  8  9  2  0
  8 10  1  0
 10 11  1  0
 11 12  1  0
 11 13  1  0
 13 14  1  0
 14 15  1  0
 15 16  1  0
  4 17  2  0
 17 18  1  0
 17 19  1  0
 19 20  1  0
 20 21  2  0
 21 22  1  0
 22 23  2  0
 23 24  1  0
 23 25  1  0
 25 26  1  0
 25 27  2  0
 19  2  1  0
 27 20  1  0
 16 11  1  0
  1 28  1  0
  1 29  1  0
  1 30  1  0
  3 31  1  0
  5 32  1  0
  7 33  1  0
 10 34  1  0
 10 35  1  0
 12 36  1  0
 12 37  1  0
 12 38  1  0
 14 39  1  0
 14 40  1  0
 15 41  1  0
 15 42  1  0
 18 43  1  0
 18 44  1  0
 18 45  1  0
 21 46  1  0
 22 47  1  0
 27 48  1  0
M  END
$$$$
