
     RDKit          3D

 67 71  0  0  0  0  0  0  0  0999 V2000
    7.2994   -2.7055    1.2196 O   0  0  0  0  0  0  0  0  0  0  0  0
    7.5185   -2.1251    0.1701 C   0  0  0  0  0  0  0  0  0  0  0  0
    8.7471   -1.3118   -0.1512 C   0  0  0  0  0  0  0  0  0  0  0  0
    8.3147   -0.5070   -1.3723 C   0  0  0  0  0  0  0  0  0  0  0  0
    7.2912   -1.3960   -2.0515 C   0  0  0  0  0  0  0  0  0  0  0  0
    6.7015   -2.1157   -0.9506 N   0  0  0  0  0  0  0  0  0  0  0  0
    5.4983   -2.9157   -1.0884 C   0  0  0  0  0  0  0  0  0  0  0  0
    4.2272   -2.1074   -0.8454 C   0  0  0  0  0  0  0  0  0  0  0  0
    4.1003   -1.6469    0.6064 C   0  0  0  0  0  0  0  0  0  0  0  0
    2.8333   -0.9666    0.7988 N   0  0  0  0  0  0  0  0  0  0  0  0
    2.6185    0.3875    0.7632 C   0  0  0  0  0  0  0  0  0  0  0  0
    3.5582    1.3253    0.0637 C   0  0  0  0  0  0  0  0  0  0  0  0
    3.2827    2.6349    0.0598 C   0  0  0  0  0  0  0  0  0  0  0  0
    2.1220    3.0862    0.7131 C   0  0  0  0  0  0  0  0  0  0  0  0
    1.5950    4.2792    0.8726 N   0  0  0  0  0  0  0  0  0  0  0  0
    0.4420    4.1295    1.6124 N   0  0  0  0  0  0  0  0  0  0  0  0
    0.2903    2.8467    1.8847 C   0  0  0  0  0  0  0  0  0  0  0  0
   -0.7924    2.2132    2.6903 C   0  0  0  0  0  0  0  0  0  0  0  0
   -1.7925    1.4427    1.8285 C   0  0  0  0  0  0  0  0  0  0  0  0
   -2.8527    2.3326    1.1967 C   0  0  0  0  0  0  0  0  0  0  0  0
   -3.0354    3.4877    1.5764 O   0  0  0  0  0  0  0  0  0  0  0  0
   -3.6439    1.7505    0.2157 N   0  0  0  0  0  0  0  0  0  0  0  0
   -3.5402    0.3495   -0.2190 C   0  0  0  0  0  0  0  0  0  0  0  0
   -4.4944    0.0089   -1.3760 C   0  0  0  0  0  0  0  0  0  0  0  0
   -5.8804    0.3831   -1.0515 N   0  0  0  0  0  0  0  0  0  0  0  0
   -6.8273   -0.5744   -0.6817 C   0  0  0  0  0  0  0  0  0  0  0  0
   -8.1964   -0.2511   -0.6818 C   0  0  0  0  0  0  0  0  0  0  0  0
   -9.1805   -1.1822   -0.3300 C   0  0  0  0  0  0  0  0  0  0  0  0
   -8.8175   -2.4728    0.0320 C   0  0  0  0  0  0  0  0  0  0  0  0
   -7.4738   -2.8257    0.0392 C   0  0  0  0  0  0  0  0  0  0  0  0
   -6.4952   -1.8876   -0.3161 C   0  0  0  0  0  0  0  0  0  0  0  0
   -6.0525    1.7284   -0.4412 C   0  0  0  0  0  0  0  0  0  0  0  0
   -4.7353    2.5277   -0.3872 C   0  0  0  0  0  0  0  0  0  0  0  0
    1.3332    2.1404    1.3293 N   0  0  0  0  0  0  0  0  0  0  0  0
    1.5332    0.7881    1.3771 N   0  0  0  0  0  0  0  0  0  0  0  0
    9.0164   -0.6622    0.6846 H   0  0  0  0  0  0  0  0  0  0  0  0
    9.5703   -1.9933   -0.3875 H   0  0  0  0  0  0  0  0  0  0  0  0
    9.1493   -0.2399   -2.0258 H   0  0  0  0  0  0  0  0  0  0  0  0
    7.8356    0.4232   -1.0415 H   0  0  0  0  0  0  0  0  0  0  0  0
    6.5341   -0.8188   -2.5906 H   0  0  0  0  0  0  0  0  0  0  0  0
    7.7626   -2.1190   -2.7254 H   0  0  0  0  0  0  0  0  0  0  0  0
    5.4905   -3.3393   -2.0987 H   0  0  0  0  0  0  0  0  0  0  0  0
    5.5437   -3.7534   -0.3830 H   0  0  0  0  0  0  0  0  0  0  0  0
    3.3624   -2.7334   -1.1004 H   0  0  0  0  0  0  0  0  0  0  0  0
    4.1962   -1.2448   -1.5211 H   0  0  0  0  0  0  0  0  0  0  0  0
    4.1287   -2.5186    1.2705 H   0  0  0  0  0  0  0  0  0  0  0  0
    4.9323   -0.9996    0.9018 H   0  0  0  0  0  0  0  0  0  0  0  0
    2.1849   -1.4460    1.4178 H   0  0  0  0  0  0  0  0  0  0  0  0
    4.4345    0.9265   -0.4270 H   0  0  0  0  0  0  0  0  0  0  0  0
    3.9231    3.3579   -0.4312 H   0  0  0  0  0  0  0  0  0  0  0  0
   -0.3326    1.5167    3.4032 H   0  0  0  0  0  0  0  0  0  0  0  0
   -1.2911    2.9797    3.2951 H   0  0  0  0  0  0  0  0  0  0  0  0
   -1.2649    0.8786    1.0551 H   0  0  0  0  0  0  0  0  0  0  0  0
   -2.3273    0.7280    2.4658 H   0  0  0  0  0  0  0  0  0  0  0  0
   -3.7576   -0.2781    0.6528 H   0  0  0  0  0  0  0  0  0  0  0  0
   -2.5102    0.1525   -0.5315 H   0  0  0  0  0  0  0  0  0  0  0  0
   -4.3886   -1.0385   -1.6747 H   0  0  0  0  0  0  0  0  0  0  0  0
   -4.1970    0.5847   -2.2620 H   0  0  0  0  0  0  0  0  0  0  0  0
   -8.5212    0.7402   -0.9866 H   0  0  0  0  0  0  0  0  0  0  0  0
  -10.2282   -0.8939   -0.3483 H   0  0  0  0  0  0  0  0  0  0  0  0
   -9.5767   -3.1997    0.3046 H   0  0  0  0  0  0  0  0  0  0  0  0
   -7.1789   -3.8322    0.3235 H   0  0  0  0  0  0  0  0  0  0  0  0
   -5.4619   -2.2143   -0.2706 H   0  0  0  0  0  0  0  0  0  0  0  0
   -6.4224    1.6245    0.5884 H   0  0  0  0  0  0  0  0  0  0  0  0
   -6.7891    2.3032   -1.0150 H   0  0  0  0  0  0  0  0  0  0  0  0
   -4.4115    2.7932   -1.4005 H   0  0  0  0  0  0  0  0  0  0  0  0
   -4.9017    3.4655    0.1518 H   0  0  0  0  0  0  0  0  0  0  0  0
  1  2  2  0
  2  3  1  0
  3  4  1  0
  4  5  1  0
  5  6  1  0
  6  7  1  0
  7  8  1  0
  8  9  1  0
  9 10  1  0
 10 11  1  0
 11 12  1  0
 12 13  2  0
 13 14  1  0
 14 15  2  0
 15 16  1  0
 16 17  2  0
 17 18  1  0
 18 19  1  0
 19 20  1  0
 20 21  2  0
 20 22  1  0
 22 23  1  0
 23 24  1  0
 24 25  1  0
 25 26  1  0
 26 27  2  0
 27 28  1  0
 28 29  2  0
 29 30  1  0
 30 31  2  0
 25 32  1  0
 32 33  1  0
 17 34  1  0
 34 35  1  0
  6  2  1  0
 35 11  2  0
 34 14  1  0
 33 22  1  0
 31 26  1  0
  3 36  1  0
  3 37  1  0
  4 38  1  0
  4 39  1  0
  5 40  1  0
  5 41  1  0
  7 42  1  0
  7 43  1  0
  8 44  1  0
  8 45  1  0
  9 46  1  0
  9 47  1  0
 10 48  1  0
 12 49  1  0
 13 50  1  0
 18 51  1  0
 18 52  1  0
 19 53  1  0
 19 54  1  0
 23 55  1  0
 23 56  1  0
 24 57  1  0
 24 58  1  0
 27 59  1  0
 28 60  1  0
 29 61  1  0
 30 62  1  0
 31 63  1  0
 32 64  1  0
 32 65  1  0
 33 66  1  0
 33 67  1  0
M  END
$$$$
