
     RDKit          3D

 40 41  0  0  0  0  0  0  0  0999 V2000
    0.2423   -3.6210   -0.6598 C   0  0  0  0  0  0  0  0  0  0  0  0
    0.6395   -2.4616    0.0726 O   0  0  0  0  0  0  0  0  0  0  0  0
    1.1961   -1.4955   -0.6975 C   0  0  0  0  0  0  0  0  0  0  0  0
    1.4294   -1.5514   -1.8938 O   0  0  0  0  0  0  0  0  0  0  0  0
    1.5001   -0.3263    0.1563 C   0  0  0  0  0  0  0  0  0  0  0  0
    2.7459    0.1738    0.1860 C   0  0  0  0  0  0  0  0  0  0  0  0
    3.9392   -0.3457   -0.5631 C   0  0  0  0  0  0  0  0  0  0  0  0
    3.0855    1.2334    1.0595 O   0  0  0  0  0  0  0  0  0  0  0  0
    2.1616    1.8813    1.8098 C   0  0  0  0  0  0  0  0  0  0  0  0
    2.6162    2.6644    2.7315 N   0  0  0  0  0  0  0  0  0  0  0  0
    0.7132    1.7119    1.4178 C   0  0  0  0  0  0  0  0  0  0  0  0
   -0.1691    2.0993    2.5290 C   0  0  0  0  0  0  0  0  0  0  0  0
   -0.8375    2.4174    3.4224 N   0  0  0  0  0  0  0  0  0  0  0  0
    0.3862    0.2729    0.9741 C   0  0  0  0  0  0  0  0  0  0  0  0
   -0.9486    0.2335    0.2495 C   0  0  0  0  0  0  0  0  0  0  0  0
   -2.1513   -0.3689    0.7255 C   0  0  0  0  0  0  0  0  0  0  0  0
   -2.3864   -1.0779    2.0097 C   0  0  0  0  0  0  0  0  0  0  0  0
   -3.1469   -0.2489   -0.1545 N   0  0  0  0  0  0  0  0  0  0  0  0
   -2.6087    0.4135   -1.1870 N   0  0  0  0  0  0  0  0  0  0  0  0
   -3.4279    0.7015   -2.3422 C   0  0  0  0  0  0  0  0  0  0  0  0
   -1.2881    0.7386   -1.0007 C   0  0  0  0  0  0  0  0  0  0  0  0
   -0.5021    1.4597   -2.0377 C   0  0  0  0  0  0  0  0  0  0  0  0
   -0.4944   -3.3579   -1.4256 H   0  0  0  0  0  0  0  0  0  0  0  0
   -0.2218   -4.3212    0.0401 H   0  0  0  0  0  0  0  0  0  0  0  0
    1.1142   -4.1060   -1.1099 H   0  0  0  0  0  0  0  0  0  0  0  0
    3.7999   -1.3566   -0.9542 H   0  0  0  0  0  0  0  0  0  0  0  0
    4.1743    0.3216   -1.3981 H   0  0  0  0  0  0  0  0  0  0  0  0
    4.8109   -0.3826    0.0995 H   0  0  0  0  0  0  0  0  0  0  0  0
    1.8821    3.1644    3.2448 H   0  0  0  0  0  0  0  0  0  0  0  0
    0.5511    2.4188    0.5932 H   0  0  0  0  0  0  0  0  0  0  0  0
    0.3036   -0.3583    1.8721 H   0  0  0  0  0  0  0  0  0  0  0  0
   -2.1915   -0.4125    2.8561 H   0  0  0  0  0  0  0  0  0  0  0  0
   -1.7251   -1.9464    2.0911 H   0  0  0  0  0  0  0  0  0  0  0  0
   -3.4192   -1.4326    2.0915 H   0  0  0  0  0  0  0  0  0  0  0  0
   -4.4167    0.2539   -2.2111 H   0  0  0  0  0  0  0  0  0  0  0  0
   -2.9448    0.2756   -3.2248 H   0  0  0  0  0  0  0  0  0  0  0  0
   -3.5207    1.7862   -2.4353 H   0  0  0  0  0  0  0  0  0  0  0  0
   -0.4085    0.8481   -2.9407 H   0  0  0  0  0  0  0  0  0  0  0  0
    0.5068    1.6983   -1.6917 H   0  0  0  0  0  0  0  0  0  0  0  0
   -0.9890    2.4032   -2.3046 H   0  0  0  0  0  0  0  0  0  0  0  0
  1  2  1  0
  2  3  1  0
  3  4  2  0
  3  5  1  0
  5  6  2  0
  6  7  1  0
  6  8  1  0
  8  9  1  0
  9 10  2  3
  9 11  1  0
 11 12  1  0
 12 13  3  0
 11 14  1  0
 14 15  1  0
 15 16  1  0
 16 17  1  0
 16 18  2  0
 18 19  1  0
 19 20  1  0
 19 21  1  0
 21 22  1  0
 14  5  1  0
 21 15  2  0
  1 23  1  0
  1 24  1  0
  1 25  1  0
  7 26  1  0
  7 27  1  0
  7 28  1  0
 10 29  1  0
 11 30  1  0
 14 31  1  0
 17 32  1  0
 17 33  1  0
 17 34  1  0
 20 35  1  0
 20 36  1  0
 20 37  1  0
 22 38  1  0
 22 39  1  0
 22 40  1  0
M  END
$$$$
