
     RDKit          3D

 44 46  0  0  0  0  0  0  0  0999 V2000
    4.7299    0.8865    0.0356 C   0  0  0  0  0  0  0  0  0  0  0  0
    3.4882    0.0824   -0.3736 C   0  0  0  0  0  0  0  0  0  0  0  0
    3.3546   -1.1404    0.5522 C   0  0  0  0  0  0  0  0  0  0  0  0
    3.6464   -0.4228   -1.8127 C   0  0  0  0  0  0  0  0  0  0  0  0
    2.2518    0.9875   -0.1947 C   0  0  0  0  0  0  0  0  0  0  0  0
    1.5323    0.9009    0.8094 O   0  0  0  0  0  0  0  0  0  0  0  0
    1.9514    2.0588   -1.2282 C   0  0  0  0  0  0  0  0  0  0  0  0
    0.8128    1.4948   -2.5290 S   0  0  0  0  0  0  0  0  0  0  0  0
   -0.3819    0.6064   -1.5396 C   0  0  0  0  0  0  0  0  0  0  0  0
   -0.1888   -0.7389   -1.5710 N   0  0  0  0  0  0  0  0  0  0  0  0
   -1.0145   -1.4677   -0.8096 C   0  0  0  0  0  0  0  0  0  0  0  0
   -2.0352   -0.9482   -0.0277 C   0  0  0  0  0  0  0  0  0  0  0  0
   -2.2515    0.4235   -0.0172 C   0  0  0  0  0  0  0  0  0  0  0  0
   -3.3165    0.9925    0.8068 C   0  0  0  0  0  0  0  0  0  0  0  0
   -3.2403    1.4760    2.0978 C   0  0  0  0  0  0  0  0  0  0  0  0
   -4.4967    1.9628    2.5643 C   0  0  0  0  0  0  0  0  0  0  0  0
   -5.4848    1.8365    1.6129 C   0  0  0  0  0  0  0  0  0  0  0  0
   -4.9005    1.1235    0.1705 S   0  0  0  0  0  0  0  0  0  0  0  0
   -1.3954    1.2285   -0.7925 C   0  0  0  0  0  0  0  0  0  0  0  0
   -1.5434    2.6527   -0.8078 C   0  0  0  0  0  0  0  0  0  0  0  0
   -1.6380    3.8103   -0.8164 N   0  0  0  0  0  0  0  0  0  0  0  0
   -2.7728   -2.0459    0.6737 C   0  0  0  0  0  0  0  0  0  0  0  0
   -1.7623   -3.1983    0.5723 C   0  0  0  0  0  0  0  0  0  0  0  0
   -0.9695   -2.9667   -0.7191 C   0  0  0  0  0  0  0  0  0  0  0  0
    5.6342    0.2682    0.0048 H   0  0  0  0  0  0  0  0  0  0  0  0
    4.8910    1.7425   -0.6293 H   0  0  0  0  0  0  0  0  0  0  0  0
    4.6284    1.2818    1.0528 H   0  0  0  0  0  0  0  0  0  0  0  0
    3.3010   -0.8428    1.6056 H   0  0  0  0  0  0  0  0  0  0  0  0
    2.4450   -1.7090    0.3257 H   0  0  0  0  0  0  0  0  0  0  0  0
    4.2098   -1.8173    0.4444 H   0  0  0  0  0  0  0  0  0  0  0  0
    3.8119    0.3966   -2.5193 H   0  0  0  0  0  0  0  0  0  0  0  0
    2.7585   -0.9733   -2.1404 H   0  0  0  0  0  0  0  0  0  0  0  0
    4.5050   -1.0993   -1.9003 H   0  0  0  0  0  0  0  0  0  0  0  0
    2.8778    2.4178   -1.6833 H   0  0  0  0  0  0  0  0  0  0  0  0
    1.5104    2.9160   -0.7092 H   0  0  0  0  0  0  0  0  0  0  0  0
   -2.3258    1.4859    2.6806 H   0  0  0  0  0  0  0  0  0  0  0  0
   -4.6645    2.3917    3.5451 H   0  0  0  0  0  0  0  0  0  0  0  0
   -6.5232    2.1281    1.6924 H   0  0  0  0  0  0  0  0  0  0  0  0
   -2.9940   -1.8121    1.7185 H   0  0  0  0  0  0  0  0  0  0  0  0
   -3.6965   -2.2841    0.1374 H   0  0  0  0  0  0  0  0  0  0  0  0
   -2.2427   -4.1811    0.5990 H   0  0  0  0  0  0  0  0  0  0  0  0
   -1.0761   -3.1488    1.4296 H   0  0  0  0  0  0  0  0  0  0  0  0
   -1.4777   -3.4059   -1.5834 H   0  0  0  0  0  0  0  0  0  0  0  0
    0.0520   -3.3494   -0.6477 H   0  0  0  0  0  0  0  0  0  0  0  0
  1  2  1  0
  2  3  1  0
  2  4  1  0
  2  5  1  0
  5  6  2  0
  5  7  1  0
  7  8  1  0
  8  9  1  0
  9 10  2  0
 10 11  1  0
 11 12  2  0
 12 13  1  0
 13 14  1  0
 14 15  2  0
 15 16  1  0
 16 17  2  0
 17 18  1  0
 13 19  2  0
 19 20  1  0
 20 21  3  0
 12 22  1  0
 22 23  1  0
 23 24  1  0
 19  9  1  0
 24 11  1  0
 18 14  1  0
  1 25  1  0
  1 26  1  0
  1 27  1  0
  3 28  1  0
  3 29  1  0
  3 30  1  0
  4 31  1  0
  4 32  1  0
  4 33  1  0
  7 34  1  0
  7 35  1  0
 15 36  1  0
 16 37  1  0
 17 38  1  0
 22 39  1  0
 22 40  1  0
 23 41  1  0
 23 42  1  0
 24 43  1  0
 24 44  1  0
M  END
$$$$
