
     RDKit          3D

 51 54  0  0  0  0  0  0  0  0999 V2000
    7.5809   -1.6354    2.3788 C   0  0  0  0  0  0  0  0  0  0  0  0
    6.3679   -1.4880    1.5088 C   0  0  0  0  0  0  0  0  0  0  0  0
    6.4426   -1.7567    0.1379 C   0  0  0  0  0  0  0  0  0  0  0  0
    5.3221   -1.5886   -0.6785 C   0  0  0  0  0  0  0  0  0  0  0  0
    4.1076   -1.1437   -0.1390 C   0  0  0  0  0  0  0  0  0  0  0  0
    2.9086   -0.9480   -1.0330 C   0  0  0  0  0  0  0  0  0  0  0  0
    3.0754    0.2324   -1.8699 N   0  0  0  0  0  0  0  0  0  0  0  0
    2.0240    0.4934   -3.1392 S   0  0  0  0  0  6  0  0  0  0  0  0
    2.0180   -0.6945   -3.9641 O   0  0  0  0  0  0  0  0  0  0  0  0
    2.3307    1.7986   -3.6789 O   0  0  0  0  0  0  0  0  0  0  0  0
    0.4490    0.6061   -2.3231 C   0  0  0  0  0  0  0  0  0  0  0  0
    0.1546    1.7547   -1.5687 C   0  0  0  0  0  0  0  0  0  0  0  0
   -1.0731    1.8637   -0.9070 C   0  0  0  0  0  0  0  0  0  0  0  0
   -1.9872    0.8277   -1.0242 C   0  0  0  0  0  0  0  0  0  0  0  0
   -1.6908   -0.3027   -1.7909 C   0  0  0  0  0  0  0  0  0  0  0  0
   -0.4766   -0.4342   -2.4493 C   0  0  0  0  0  0  0  0  0  0  0  0
   -2.8117   -1.2908   -1.7621 C   0  0  0  0  0  0  0  0  0  0  0  0
   -3.8811   -0.5378   -0.9617 C   0  0  0  0  0  0  0  0  0  0  0  0
   -3.2747    0.7092   -0.4678 N   0  0  0  0  0  0  0  0  0  0  0  0
   -3.8915    1.6294    0.3752 C   0  0  0  0  0  0  0  0  0  0  0  0
   -3.3327    2.6599    0.7691 O   0  0  0  0  0  0  0  0  0  0  0  0
   -5.3471    1.2799    0.8042 C   0  0  0  0  0  0  0  0  0  0  0  0
   -6.1414    2.3537    1.6060 C   0  0  0  0  0  0  0  0  0  0  0  0
   -6.7707    1.1990    2.4060 C   0  0  0  0  0  0  0  0  0  0  0  0
   -5.5230    0.3694    2.0525 C   0  0  0  0  0  0  0  0  0  0  0  0
    4.0408   -0.8524    1.2296 C   0  0  0  0  0  0  0  0  0  0  0  0
    5.1626   -1.0214    2.0453 C   0  0  0  0  0  0  0  0  0  0  0  0
    7.2971   -1.8970    3.4036 H   0  0  0  0  0  0  0  0  0  0  0  0
    8.2322   -2.4343    2.0088 H   0  0  0  0  0  0  0  0  0  0  0  0
    8.1452   -0.6980    2.3960 H   0  0  0  0  0  0  0  0  0  0  0  0
    7.3760   -2.0965   -0.3057 H   0  0  0  0  0  0  0  0  0  0  0  0
    5.4016   -1.7979   -1.7440 H   0  0  0  0  0  0  0  0  0  0  0  0
    2.7738   -1.8470   -1.6446 H   0  0  0  0  0  0  0  0  0  0  0  0
    2.0127   -0.8356   -0.4126 H   0  0  0  0  0  0  0  0  0  0  0  0
    3.4694    1.0713   -1.4497 H   0  0  0  0  0  0  0  0  0  0  0  0
    0.8734    2.5687   -1.4977 H   0  0  0  0  0  0  0  0  0  0  0  0
   -1.2888    2.7563   -0.3289 H   0  0  0  0  0  0  0  0  0  0  0  0
   -0.2571   -1.3180   -3.0418 H   0  0  0  0  0  0  0  0  0  0  0  0
   -3.1666   -1.5371   -2.7672 H   0  0  0  0  0  0  0  0  0  0  0  0
   -2.5065   -2.2055   -1.2440 H   0  0  0  0  0  0  0  0  0  0  0  0
   -4.2468   -1.1344   -0.1201 H   0  0  0  0  0  0  0  0  0  0  0  0
   -4.7358   -0.2794   -1.5973 H   0  0  0  0  0  0  0  0  0  0  0  0
   -5.9515    0.9335   -0.0468 H   0  0  0  0  0  0  0  0  0  0  0  0
   -6.8426    2.9565    1.0226 H   0  0  0  0  0  0  0  0  0  0  0  0
   -5.5242    3.0219    2.2177 H   0  0  0  0  0  0  0  0  0  0  0  0
   -7.6970    0.8115    1.9666 H   0  0  0  0  0  0  0  0  0  0  0  0
   -6.9314    1.3880    3.4701 H   0  0  0  0  0  0  0  0  0  0  0  0
   -4.7128    0.4516    2.7865 H   0  0  0  0  0  0  0  0  0  0  0  0
   -5.7106   -0.6881    1.8490 H   0  0  0  0  0  0  0  0  0  0  0  0
    3.1168   -0.4884    1.6736 H   0  0  0  0  0  0  0  0  0  0  0  0
    5.0902   -0.7848    3.1047 H   0  0  0  0  0  0  0  0  0  0  0  0
  1  2  1  0
  2  3  2  0
  3  4  1  0
  4  5  2  0
  5  6  1  0
  6  7  1  0
  7  8  1  0
  8  9  2  0
  8 10  2  0
  8 11  1  0
 11 12  2  0
 12 13  1  0
 13 14  2  0
 14 15  1  0
 15 16  2  0
 15 17  1  0
 17 18  1  0
 18 19  1  0
 19 20  1  0
 20 21  2  0
 20 22  1  0
 22 23  1  0
 23 24  1  0
 24 25  1  0
  5 26  1  0
 26 27  2  0
 27  2  1  0
 16 11  1  0
 25 22  1  0
 19 14  1  0
  1 28  1  0
  1 29  1  0
  1 30  1  0
  3 31  1  0
  4 32  1  0
  6 33  1  0
  6 34  1  0
  7 35  1  0
 12 36  1  0
 13 37  1  0
 16 38  1  0
 17 39  1  0
 17 40  1  0
 18 41  1  0
 18 42  1  0
 22 43  1  0
 23 44  1  0
 23 45  1  0
 24 46  1  0
 24 47  1  0
 25 48  1  0
 25 49  1  0
 26 50  1  0
 27 51  1  0
M  END
$$$$
