
     RDKit          3D

 33 35  0  0  0  0  0  0  0  0999 V2000
   -0.3804   -1.0853   -2.1316 O   0  0  0  0  0  0  0  0  0  0  0  0
    0.0312   -0.0526   -1.6195 C   0  0  0  0  0  0  0  0  0  0  0  0
    1.2619    0.0655   -0.7929 C   0  0  0  0  0  0  0  0  0  0  0  0
    1.9480   -1.0312   -0.4445 C   0  0  0  0  0  0  0  0  0  0  0  0
    3.1182   -1.0479    0.3682 C   0  0  0  0  0  0  0  0  0  0  0  0
    4.2308   -0.2232    0.3911 C   0  0  0  0  0  0  0  0  0  0  0  0
    5.1925   -0.6055    1.3721 C   0  0  0  0  0  0  0  0  0  0  0  0
    4.8007   -1.7254    2.0659 C   0  0  0  0  0  0  0  0  0  0  0  0
    3.2908   -2.3135    1.5303 S   0  0  0  0  0  0  0  0  0  0  0  0
    1.5346    1.7163   -0.3749 S   0  0  0  0  0  0  0  0  0  0  0  0
    0.0928    2.2851   -1.2142 C   0  0  0  0  0  0  0  0  0  0  0  0
   -0.3247    3.8913   -1.3193 S   0  0  0  0  0  0  0  0  0  0  0  0
   -0.5632    1.1915   -1.7362 N   0  0  0  0  0  0  0  0  0  0  0  0
   -1.8588    1.2876   -2.5043 N   0  0  0  0  0  0  0  0  0  0  0  0
   -3.3124    1.2063   -1.6100 S   0  0  0  0  0  6  0  0  0  0  0  0
   -4.1735    0.2964   -2.3344 O   0  0  0  0  0  0  0  0  0  0  0  0
   -3.7299    2.5547   -1.2995 O   0  0  0  0  0  0  0  0  0  0  0  0
   -2.8527    0.4165   -0.0852 C   0  0  0  0  0  0  0  0  0  0  0  0
   -2.8258   -0.9792   -0.0094 C   0  0  0  0  0  0  0  0  0  0  0  0
   -2.4317   -1.5927    1.1792 C   0  0  0  0  0  0  0  0  0  0  0  0
   -2.0855   -0.8156    2.2860 C   0  0  0  0  0  0  0  0  0  0  0  0
   -2.1435    0.5772    2.2146 C   0  0  0  0  0  0  0  0  0  0  0  0
   -2.5360    1.1992    1.0302 C   0  0  0  0  0  0  0  0  0  0  0  0
    1.5708   -2.0022   -0.7673 H   0  0  0  0  0  0  0  0  0  0  0  0
    4.3660    0.6232   -0.2715 H   0  0  0  0  0  0  0  0  0  0  0  0
    6.1263   -0.0871    1.5528 H   0  0  0  0  0  0  0  0  0  0  0  0
    5.3331   -2.2337    2.8583 H   0  0  0  0  0  0  0  0  0  0  0  0
   -1.9220    0.5908   -3.2568 H   0  0  0  0  0  0  0  0  0  0  0  0
   -3.0923   -1.5920   -0.8686 H   0  0  0  0  0  0  0  0  0  0  0  0
   -2.3981   -2.6780    1.2455 H   0  0  0  0  0  0  0  0  0  0  0  0
   -1.7833   -1.2983    3.2131 H   0  0  0  0  0  0  0  0  0  0  0  0
   -1.8915    1.1764    3.0870 H   0  0  0  0  0  0  0  0  0  0  0  0
   -2.5926    2.2856    0.9869 H   0  0  0  0  0  0  0  0  0  0  0  0
  1  2  2  0
  2  3  1  0
  3  4  2  3
  4  5  1  0
  5  6  2  0
  6  7  1  0
  7  8  2  0
  8  9  1  0
  3 10  1  0
 10 11  1  0
 11 12  2  0
 11 13  1  0
 13 14  1  0
 14 15  1  0
 15 16  2  0
 15 17  2  0
 15 18  1  0
 18 19  2  0
 19 20  1  0
 20 21  2  0
 21 22  1  0
 22 23  2  0
 13  2  1  0
 23 18  1  0
  9  5  1  0
  4 24  1  0
  6 25  1  0
  7 26  1  0
  8 27  1  0
 14 28  1  0
 19 29  1  0
 20 30  1  0
 21 31  1  0
 22 32  1  0
 23 33  1  0
M  END
$$$$
