
     RDKit          3D

 70 72  0  0  0  0  0  0  0  0999 V2000
   -4.6781   -1.4950   -2.0932 C   0  0  0  0  0  0  0  0  0  0  0  0
   -3.2436   -2.0549   -1.9788 C   0  0  0  0  0  0  0  0  0  0  0  0
   -3.2928   -3.5570   -1.6175 C   0  0  0  0  0  0  0  0  0  0  0  0
   -2.6382   -1.9824   -3.4061 C   0  0  0  0  0  0  0  0  0  0  0  0
   -2.4342   -1.2656   -0.9205 C   0  0  0  0  0  0  0  0  0  0  0  0
   -1.3046   -0.5156   -1.2916 C   0  0  0  0  0  0  0  0  0  0  0  0
   -0.5324    0.1889   -0.3542 C   0  0  0  0  0  0  0  0  0  0  0  0
    0.6787    1.0090   -0.8318 C   0  0  0  0  0  0  0  0  0  0  0  0
    0.2259    2.4337   -1.1393 C   0  0  0  0  0  0  0  0  0  0  0  0
    0.0863    2.8795   -2.4601 C   0  0  0  0  0  0  0  0  0  0  0  0
   -0.3408    4.1804   -2.7129 C   0  0  0  0  0  0  0  0  0  0  0  0
   -0.6192    5.0017   -1.6338 C   0  0  0  0  0  0  0  0  0  0  0  0
   -0.5015    4.6143   -0.3472 N   0  0  0  0  0  0  0  0  0  0  0  0
   -0.0883    3.3428   -0.1307 C   0  0  0  0  0  0  0  0  0  0  0  0
    1.8465    0.9411    0.0943 N   0  0  0  0  0  0  0  0  0  0  0  0
    2.9593    1.8121   -0.3631 C   0  0  0  0  0  0  0  0  0  0  0  0
    4.3314    1.3865    0.2038 C   0  0  0  0  0  0  0  0  0  0  0  0
    4.7645    0.0586   -0.2904 N   0  0  0  0  0  0  0  0  0  0  0  0
    5.7257   -0.5756    0.6396 C   0  0  0  0  0  0  0  0  0  0  0  0
    7.0563    0.1906    0.7051 C   0  0  0  0  0  0  0  0  0  0  0  0
    7.5653    0.3866   -0.6135 O   0  0  0  0  0  0  0  0  0  0  0  0
    3.5950   -0.8143   -0.5307 C   0  0  0  0  0  0  0  0  0  0  0  0
    2.3374   -0.4472    0.2888 C   0  0  0  0  0  0  0  0  0  0  0  0
   -0.9065    0.1449    0.9986 C   0  0  0  0  0  0  0  0  0  0  0  0
   -2.0207   -0.5843    1.4478 C   0  0  0  0  0  0  0  0  0  0  0  0
   -2.3721   -0.6384    2.9547 C   0  0  0  0  0  0  0  0  0  0  0  0
   -2.4227   -2.1012    3.4524 C   0  0  0  0  0  0  0  0  0  0  0  0
   -3.7265    0.0533    3.2197 C   0  0  0  0  0  0  0  0  0  0  0  0
   -1.3366    0.0803    3.8611 C   0  0  0  0  0  0  0  0  0  0  0  0
   -2.7724   -1.2571    0.4547 C   0  0  0  0  0  0  0  0  0  0  0  0
   -3.9039   -1.9220    0.8409 O   0  0  0  0  0  0  0  0  0  0  0  0
   -4.6657   -0.4158   -2.2861 H   0  0  0  0  0  0  0  0  0  0  0  0
   -5.2234   -1.9730   -2.9158 H   0  0  0  0  0  0  0  0  0  0  0  0
   -5.2734   -1.6627   -1.1921 H   0  0  0  0  0  0  0  0  0  0  0  0
   -3.8459   -3.7575   -0.6957 H   0  0  0  0  0  0  0  0  0  0  0  0
   -2.2825   -3.9640   -1.4907 H   0  0  0  0  0  0  0  0  0  0  0  0
   -3.7880   -4.1361   -2.4061 H   0  0  0  0  0  0  0  0  0  0  0  0
   -3.2290   -2.5725   -4.1175 H   0  0  0  0  0  0  0  0  0  0  0  0
   -1.6168   -2.3802   -3.4322 H   0  0  0  0  0  0  0  0  0  0  0  0
   -2.6196   -0.9546   -3.7873 H   0  0  0  0  0  0  0  0  0  0  0  0
   -0.9955   -0.4591   -2.3315 H   0  0  0  0  0  0  0  0  0  0  0  0
    1.0158    0.5585   -1.7776 H   0  0  0  0  0  0  0  0  0  0  0  0
    0.3073    2.2197   -3.2950 H   0  0  0  0  0  0  0  0  0  0  0  0
   -0.4556    4.5449   -3.7274 H   0  0  0  0  0  0  0  0  0  0  0  0
   -0.9554    6.0241   -1.7804 H   0  0  0  0  0  0  0  0  0  0  0  0
   -0.0031    3.0697    0.9179 H   0  0  0  0  0  0  0  0  0  0  0  0
    3.0323    1.8196   -1.4594 H   0  0  0  0  0  0  0  0  0  0  0  0
    2.7663    2.8413   -0.0405 H   0  0  0  0  0  0  0  0  0  0  0  0
    4.2712    1.4022    1.3005 H   0  0  0  0  0  0  0  0  0  0  0  0
    5.0776    2.1334   -0.0905 H   0  0  0  0  0  0  0  0  0  0  0  0
    5.3022   -0.6931    1.6440 H   0  0  0  0  0  0  0  0  0  0  0  0
    5.9592   -1.5779    0.2581 H   0  0  0  0  0  0  0  0  0  0  0  0
    6.9370    1.1703    1.1781 H   0  0  0  0  0  0  0  0  0  0  0  0
    7.7967   -0.3762    1.2771 H   0  0  0  0  0  0  0  0  0  0  0  0
    6.7709    0.5095   -1.1714 H   0  0  0  0  0  0  0  0  0  0  0  0
    3.8413   -1.8704   -0.3652 H   0  0  0  0  0  0  0  0  0  0  0  0
    3.3448   -0.7404   -1.5972 H   0  0  0  0  0  0  0  0  0  0  0  0
    2.5766   -0.5574    1.3548 H   0  0  0  0  0  0  0  0  0  0  0  0
    1.5667   -1.1995    0.0902 H   0  0  0  0  0  0  0  0  0  0  0  0
   -0.2848    0.6966    1.6986 H   0  0  0  0  0  0  0  0  0  0  0  0
   -2.5731   -2.1436    4.5378 H   0  0  0  0  0  0  0  0  0  0  0  0
   -1.4870   -2.6260    3.2257 H   0  0  0  0  0  0  0  0  0  0  0  0
   -3.2388   -2.6764    3.0070 H   0  0  0  0  0  0  0  0  0  0  0  0
   -3.7330    1.0737    2.8185 H   0  0  0  0  0  0  0  0  0  0  0  0
   -3.9328    0.1175    4.2948 H   0  0  0  0  0  0  0  0  0  0  0  0
   -4.5704   -0.4809    2.7766 H   0  0  0  0  0  0  0  0  0  0  0  0
   -1.6091   -0.0063    4.9202 H   0  0  0  0  0  0  0  0  0  0  0  0
   -1.2773    1.1523    3.6382 H   0  0  0  0  0  0  0  0  0  0  0  0
   -0.3351   -0.3525    3.7520 H   0  0  0  0  0  0  0  0  0  0  0  0
   -4.6079   -1.2507    0.8231 H   0  0  0  0  0  0  0  0  0  0  0  0
  1  2  1  0
  2  3  1  0
  2  4  1  0
  2  5  1  0
  5  6  2  0
  6  7  1  0
  7  8  1  0
  8  9  1  0
  9 10  2  0
 10 11  1  0
 11 12  2  0
 12 13  1  0
 13 14  2  0
  8 15  1  0
 15 16  1  0
 16 17  1  0
 17 18  1  0
 18 19  1  0
 19 20  1  0
 20 21  1  0
 18 22  1  0
 22 23  1  0
  7 24  2  0
 24 25  1  0
 25 26  1  0
 26 27  1  0
 26 28  1  0
 26 29  1  0
 25 30  2  0
 30 31  1  0
 30  5  1  0
 14  9  1  0
 23 15  1  0
  1 32  1  0
  1 33  1  0
  1 34  1  0
  3 35  1  0
  3 36  1  0
  3 37  1  0
  4 38  1  0
  4 39  1  0
  4 40  1  0
  6 41  1  0
  8 42  1  0
 10 43  1  0
 11 44  1  0
 12 45  1  0
 14 46  1  0
 16 47  1  0
 16 48  1  0
 17 49  1  0
 17 50  1  0
 19 51  1  0
 19 52  1  0
 20 53  1  0
 20 54  1  0
 21 55  1  0
 22 56  1  0
 22 57  1  0
 23 58  1  0
 23 59  1  0
 24 60  1  0
 27 61  1  0
 27 62  1  0
 27 63  1  0
 28 64  1  0
 28 65  1  0
 28 66  1  0
 29 67  1  0
 29 68  1  0
 29 69  1  0
 31 70  1  0
M  END
$$$$
