
     RDKit          3D

 53 55  0  0  0  0  0  0  0  0999 V2000
   -2.2347   -0.3655    1.4713 O   0  0  0  0  0  0  0  0  0  0  0  0
   -1.6905   -0.3391    0.3735 C   0  0  0  0  0  0  0  0  0  0  0  0
   -2.3219    0.1104   -0.7634 N   0  0  0  0  0  0  0  0  0  0  0  0
   -3.6713    0.6940   -0.7095 C   0  0  0  0  0  0  0  0  0  0  0  0
   -4.7462   -0.3947   -0.5643 C   0  0  0  0  0  0  0  0  0  0  0  0
   -5.9463    0.0743    0.2255 C   0  0  0  0  0  0  0  0  0  0  0  0
   -5.8981    0.0900    1.6270 C   0  0  0  0  0  0  0  0  0  0  0  0
   -6.9947    0.5313    2.3680 C   0  0  0  0  0  0  0  0  0  0  0  0
   -8.1478    0.9639    1.7163 C   0  0  0  0  0  0  0  0  0  0  0  0
   -8.2039    0.9571    0.3237 C   0  0  0  0  0  0  0  0  0  0  0  0
   -7.1081    0.5151   -0.4198 C   0  0  0  0  0  0  0  0  0  0  0  0
   -3.9141    1.5057   -1.9892 C   0  0  0  0  0  0  0  0  0  0  0  0
   -4.9326    2.0929   -2.3147 O   0  0  0  0  0  0  0  0  0  0  0  0
   -2.8349    1.5486   -2.8129 O   0  0  0  0  0  0  0  0  0  0  0  0
   -0.2712   -0.7706    0.2259 C   0  0  0  0  0  0  0  0  0  0  0  0
    0.2557   -1.2016   -1.0012 C   0  0  0  0  0  0  0  0  0  0  0  0
    1.5933   -1.5990   -1.0905 C   0  0  0  0  0  0  0  0  0  0  0  0
    2.3984   -1.5701    0.0515 C   0  0  0  0  0  0  0  0  0  0  0  0
    4.1007   -2.0725   -0.0422 S   0  0  0  0  0  6  0  0  0  0  0  0
    4.2939   -3.1011    0.9566 O   0  0  0  0  0  0  0  0  0  0  0  0
    4.4363   -2.2970   -1.4329 O   0  0  0  0  0  0  0  0  0  0  0  0
    4.9307   -0.6664    0.4598 N   0  0  0  0  0  0  0  0  0  0  0  0
    4.7964    0.5296   -0.4199 C   0  0  0  0  0  0  0  0  0  0  0  0
    6.1082    0.8706   -1.1133 C   0  0  0  0  0  0  0  0  0  0  0  0
    7.2182    1.1660   -0.1070 C   0  0  0  0  0  0  0  0  0  0  0  0
    7.0584    0.3669    1.1847 C   0  0  0  0  0  0  0  0  0  0  0  0
    6.3133   -0.9392    0.9421 C   0  0  0  0  0  0  0  0  0  0  0  0
    1.8801   -1.1632    1.2837 C   0  0  0  0  0  0  0  0  0  0  0  0
    0.5443   -0.7656    1.3679 C   0  0  0  0  0  0  0  0  0  0  0  0
   -1.7781    0.3538   -1.5847 H   0  0  0  0  0  0  0  0  0  0  0  0
   -3.6753    1.4003    0.1293 H   0  0  0  0  0  0  0  0  0  0  0  0
   -4.3435   -1.2810   -0.0564 H   0  0  0  0  0  0  0  0  0  0  0  0
   -5.0704   -0.7554   -1.5497 H   0  0  0  0  0  0  0  0  0  0  0  0
   -5.0006   -0.2418    2.1483 H   0  0  0  0  0  0  0  0  0  0  0  0
   -6.9467    0.5383    3.4536 H   0  0  0  0  0  0  0  0  0  0  0  0
   -9.0015    1.3089    2.2934 H   0  0  0  0  0  0  0  0  0  0  0  0
   -9.1006    1.2999   -0.1855 H   0  0  0  0  0  0  0  0  0  0  0  0
   -7.1671    0.5265   -1.5059 H   0  0  0  0  0  0  0  0  0  0  0  0
   -3.1477    2.1110   -3.5553 H   0  0  0  0  0  0  0  0  0  0  0  0
   -0.3652   -1.2634   -1.8906 H   0  0  0  0  0  0  0  0  0  0  0  0
    1.9932   -1.9396   -2.0436 H   0  0  0  0  0  0  0  0  0  0  0  0
    4.0186    0.3835   -1.1761 H   0  0  0  0  0  0  0  0  0  0  0  0
    4.4650    1.3684    0.2041 H   0  0  0  0  0  0  0  0  0  0  0  0
    5.9750    1.7323   -1.7770 H   0  0  0  0  0  0  0  0  0  0  0  0
    6.4117    0.0294   -1.7495 H   0  0  0  0  0  0  0  0  0  0  0  0
    7.2322    2.2354    0.1355 H   0  0  0  0  0  0  0  0  0  0  0  0
    8.1864    0.9422   -0.5706 H   0  0  0  0  0  0  0  0  0  0  0  0
    8.0438    0.1698    1.6214 H   0  0  0  0  0  0  0  0  0  0  0  0
    6.5048    0.9704    1.9157 H   0  0  0  0  0  0  0  0  0  0  0  0
    6.2534   -1.4909    1.8867 H   0  0  0  0  0  0  0  0  0  0  0  0
    6.8574   -1.5545    0.2159 H   0  0  0  0  0  0  0  0  0  0  0  0
    2.5065   -1.1605    2.1735 H   0  0  0  0  0  0  0  0  0  0  0  0
    0.1370   -0.4535    2.3285 H   0  0  0  0  0  0  0  0  0  0  0  0
  1  2  2  0
  2  3  1  0
  3  4  1  0
  4  5  1  0
  5  6  1  0
  6  7  2  0
  7  8  1  0
  8  9  2  0
  9 10  1  0
 10 11  2  0
  4 12  1  0
 12 13  2  0
 12 14  1  0
  2 15  1  0
 15 16  2  0
 16 17  1  0
 17 18  2  0
 18 19  1  0
 19 20  2  0
 19 21  2  0
 19 22  1  0
 22 23  1  0
 23 24  1  0
 24 25  1  0
 25 26  1  0
 26 27  1  0
 18 28  1  0
 28 29  2  0
 11  6  1  0
 29 15  1  0
 27 22  1  0
  3 30  1  0
  4 31  1  0
  5 32  1  0
  5 33  1  0
  7 34  1  0
  8 35  1  0
  9 36  1  0
 10 37  1  0
 11 38  1  0
 14 39  1  0
 16 40  1  0
 17 41  1  0
 23 42  1  0
 23 43  1  0
 24 44  1  0
 24 45  1  0
 25 46  1  0
 25 47  1  0
 26 48  1  0
 26 49  1  0
 27 50  1  0
 27 51  1  0
 28 52  1  0
 29 53  1  0
M  END
$$$$
