
     RDKit          3D

 61 64  0  0  0  0  0  0  0  0999 V2000
    9.3598   -2.2291   -0.4045 C   0  0  0  0  0  0  0  0  0  0  0  0
    8.1383   -1.8528    0.3985 C   0  0  0  0  0  0  0  0  0  0  0  0
    8.2328   -1.0613    1.3301 O   0  0  0  0  0  0  0  0  0  0  0  0
    6.9864   -2.4740   -0.0497 N   0  0  0  0  0  0  0  0  0  0  0  0
    5.6815   -2.3421    0.4706 C   0  0  0  0  0  0  0  0  0  0  0  0
    5.3518   -1.5288    1.5587 C   0  0  0  0  0  0  0  0  0  0  0  0
    4.0313   -1.4500    2.0131 C   0  0  0  0  0  0  0  0  0  0  0  0
    3.0340   -2.1867    1.3719 C   0  0  0  0  0  0  0  0  0  0  0  0
    1.3643   -2.0760    1.9653 S   0  0  0  0  0  6  0  0  0  0  0  0
    0.5234   -2.9032    1.1246 O   0  0  0  0  0  0  0  0  0  0  0  0
    1.4059   -2.2573    3.4003 O   0  0  0  0  0  0  0  0  0  0  0  0
    0.9634   -0.4527    1.6408 N   0  0  0  0  0  0  0  0  0  0  0  0
    0.8430   -0.0861    0.1899 C   0  0  0  0  0  0  0  0  0  0  0  0
   -0.6157   -0.1279   -0.3015 C   0  0  0  0  0  0  0  0  0  0  0  0
   -1.5039    0.7667    0.4789 N   0  0  0  0  0  0  0  0  0  0  0  0
   -2.1326    1.7484   -0.2227 C   0  0  0  0  0  0  0  0  0  0  0  0
   -1.8562    3.0315   -0.2063 N   0  0  0  0  0  0  0  0  0  0  0  0
   -2.7593    3.6180   -1.0541 C   0  0  0  0  0  0  0  0  0  0  0  0
   -2.8950    4.9683   -1.4097 C   0  0  0  0  0  0  0  0  0  0  0  0
   -3.9126    5.3340   -2.3001 C   0  0  0  0  0  0  0  0  0  0  0  0
   -4.7791    4.3737   -2.8249 C   0  0  0  0  0  0  0  0  0  0  0  0
   -4.6602    3.0219   -2.4792 C   0  0  0  0  0  0  0  0  0  0  0  0
   -3.6329    2.6757   -1.5906 C   0  0  0  0  0  0  0  0  0  0  0  0
   -3.2277    1.4870   -1.0220 N   0  0  0  0  0  0  0  0  0  0  0  0
   -3.8758    0.1996   -1.1967 C   0  0  0  0  0  0  0  0  0  0  0  0
   -4.6638   -0.2883    0.0334 C   0  0  0  0  0  0  0  0  0  0  0  0
   -5.8469    0.6263    0.3594 C   0  0  0  0  0  0  0  0  0  0  0  0
   -5.1614   -1.7157   -0.2060 C   0  0  0  0  0  0  0  0  0  0  0  0
   -0.9314    1.2050    1.7726 C   0  0  0  0  0  0  0  0  0  0  0  0
   -0.1971    0.0431    2.4590 C   0  0  0  0  0  0  0  0  0  0  0  0
    3.3461   -3.0128    0.2925 C   0  0  0  0  0  0  0  0  0  0  0  0
    4.6685   -3.0838   -0.1561 C   0  0  0  0  0  0  0  0  0  0  0  0
    9.6299   -1.3942   -1.0568 H   0  0  0  0  0  0  0  0  0  0  0  0
    9.1922   -3.1199   -1.0171 H   0  0  0  0  0  0  0  0  0  0  0  0
   10.1839   -2.4416    0.2824 H   0  0  0  0  0  0  0  0  0  0  0  0
    7.0823   -3.0930   -0.8438 H   0  0  0  0  0  0  0  0  0  0  0  0
    6.1012   -0.9427    2.0831 H   0  0  0  0  0  0  0  0  0  0  0  0
    3.7913   -0.8165    2.8648 H   0  0  0  0  0  0  0  0  0  0  0  0
    1.2580    0.9219    0.0662 H   0  0  0  0  0  0  0  0  0  0  0  0
    1.4577   -0.7439   -0.4319 H   0  0  0  0  0  0  0  0  0  0  0  0
   -1.0067   -1.1481   -0.2095 H   0  0  0  0  0  0  0  0  0  0  0  0
   -0.6319    0.1243   -1.3705 H   0  0  0  0  0  0  0  0  0  0  0  0
   -2.2205    5.7085   -0.9920 H   0  0  0  0  0  0  0  0  0  0  0  0
   -4.0280    6.3784   -2.5802 H   0  0  0  0  0  0  0  0  0  0  0  0
   -5.5662    4.6814   -3.5112 H   0  0  0  0  0  0  0  0  0  0  0  0
   -5.3450    2.2858   -2.8857 H   0  0  0  0  0  0  0  0  0  0  0  0
   -4.5361    0.2629   -2.0702 H   0  0  0  0  0  0  0  0  0  0  0  0
   -3.0917   -0.5181   -1.4645 H   0  0  0  0  0  0  0  0  0  0  0  0
   -4.0032   -0.3086    0.9097 H   0  0  0  0  0  0  0  0  0  0  0  0
   -6.4081    0.2400    1.2186 H   0  0  0  0  0  0  0  0  0  0  0  0
   -5.5085    1.6345    0.6185 H   0  0  0  0  0  0  0  0  0  0  0  0
   -6.5376    0.7043   -0.4884 H   0  0  0  0  0  0  0  0  0  0  0  0
   -5.8353   -1.7625   -1.0697 H   0  0  0  0  0  0  0  0  0  0  0  0
   -4.3219   -2.3943   -0.3927 H   0  0  0  0  0  0  0  0  0  0  0  0
   -5.7058   -2.0900    0.6680 H   0  0  0  0  0  0  0  0  0  0  0  0
   -0.2365    2.0432    1.6289 H   0  0  0  0  0  0  0  0  0  0  0  0
   -1.7409    1.5493    2.4280 H   0  0  0  0  0  0  0  0  0  0  0  0
   -0.9099   -0.7733    2.6306 H   0  0  0  0  0  0  0  0  0  0  0  0
    0.1875    0.3768    3.4287 H   0  0  0  0  0  0  0  0  0  0  0  0
    2.5765   -3.6029   -0.1992 H   0  0  0  0  0  0  0  0  0  0  0  0
    4.8945   -3.7321   -0.9991 H   0  0  0  0  0  0  0  0  0  0  0  0
  1  2  1  0
  2  3  2  0
  2  4  1  0
  4  5  1  0
  5  6  2  0
  6  7  1  0
  7  8  2  0
  8  9  1  0
  9 10  2  0
  9 11  2  0
  9 12  1  0
 12 13  1  0
 13 14  1  0
 14 15  1  0
 15 16  1  0
 16 17  2  0
 17 18  1  0
 18 19  2  0
 19 20  1  0
 20 21  2  0
 21 22  1  0
 22 23  2  0
 23 24  1  0
 24 25  1  0
 25 26  1  0
 26 27  1  0
 26 28  1  0
 15 29  1  0
 29 30  1  0
  8 31  1  0
 31 32  2  0
 32  5  1  0
 30 12  1  0
 24 16  1  0
 23 18  1  0
  1 33  1  0
  1 34  1  0
  1 35  1  0
  4 36  1  0
  6 37  1  0
  7 38  1  0
 13 39  1  0
 13 40  1  0
 14 41  1  0
 14 42  1  0
 19 43  1  0
 20 44  1  0
 21 45  1  0
 22 46  1  0
 25 47  1  0
 25 48  1  0
 26 49  1  0
 27 50  1  0
 27 51  1  0
 27 52  1  0
 28 53  1  0
 28 54  1  0
 28 55  1  0
 29 56  1  0
 29 57  1  0
 30 58  1  0
 30 59  1  0
 31 60  1  0
 32 61  1  0
M  END
$$$$
