
     RDKit          3D

 52 55  0  0  0  0  0  0  0  0999 V2000
   -5.9043    3.1055   -0.1716 C   0  0  0  0  0  0  0  0  0  0  0  0
   -5.1401    2.4683    0.9778 C   0  0  0  0  0  0  0  0  0  0  0  0
   -3.7933    1.9128    0.5153 C   0  0  0  0  0  0  0  0  0  0  0  0
   -3.0270    1.2778    1.6771 C   0  0  0  0  0  0  0  0  0  0  0  0
   -1.7320    0.6968    1.2313 C   0  0  0  0  0  0  0  0  0  0  0  0
   -0.5753    1.3237    1.3728 N   0  0  0  0  0  0  0  0  0  0  0  0
    0.4194    0.5297    0.8720 N   0  0  0  0  0  0  0  0  0  0  0  0
   -0.1496   -0.5565    0.4064 C   0  0  0  0  0  0  0  0  0  0  0  0
    0.4749   -1.6968   -0.1907 C   0  0  0  0  0  0  0  0  0  0  0  0
    1.8708   -1.6544   -0.4206 N   0  0  0  0  0  0  0  0  0  0  0  0
    2.6849   -2.8748   -0.2513 C   0  0  0  0  0  0  0  0  0  0  0  0
    2.4376   -0.6121   -1.6497 S   0  0  0  0  0  6  0  0  0  0  0  0
    3.0140   -1.4366   -2.6952 O   0  0  0  0  0  0  0  0  0  0  0  0
    1.4222    0.3650   -1.9790 O   0  0  0  0  0  0  0  0  0  0  0  0
    3.7794    0.2400   -0.8489 C   0  0  0  0  0  0  0  0  0  0  0  0
    3.5128    1.3604   -0.0603 C   0  0  0  0  0  0  0  0  0  0  0  0
    4.5676    2.0436    0.5479 C   0  0  0  0  0  0  0  0  0  0  0  0
    5.8916    1.6300    0.3500 C   0  0  0  0  0  0  0  0  0  0  0  0
    7.0189    2.3497    1.0305 C   0  0  0  0  0  0  0  0  0  0  0  0
    6.1473    0.5102   -0.4523 C   0  0  0  0  0  0  0  0  0  0  0  0
    5.0964   -0.1781   -1.0621 C   0  0  0  0  0  0  0  0  0  0  0  0
   -0.1959   -2.7787   -0.4391 N   0  0  0  0  0  0  0  0  0  0  0  0
   -1.5910   -2.7682   -0.2109 C   0  0  0  0  0  0  0  0  0  0  0  0
   -2.3019   -3.9241   -0.5433 C   0  0  0  0  0  0  0  0  0  0  0  0
   -3.6824   -3.9872   -0.3614 C   0  0  0  0  0  0  0  0  0  0  0  0
   -4.3657   -2.8884    0.1541 C   0  0  0  0  0  0  0  0  0  0  0  0
   -3.6765   -1.7211    0.4954 C   0  0  0  0  0  0  0  0  0  0  0  0
   -2.2932   -1.6584    0.3173 C   0  0  0  0  0  0  0  0  0  0  0  0
   -1.5009   -0.5354    0.6456 N   0  0  0  0  0  0  0  0  0  0  0  0
   -6.8639    3.4959    0.1815 H   0  0  0  0  0  0  0  0  0  0  0  0
   -6.1048    2.3751   -0.9620 H   0  0  0  0  0  0  0  0  0  0  0  0
   -5.3387    3.9360   -0.6061 H   0  0  0  0  0  0  0  0  0  0  0  0
   -4.9847    3.2155    1.7647 H   0  0  0  0  0  0  0  0  0  0  0  0
   -5.7460    1.6630    1.4091 H   0  0  0  0  0  0  0  0  0  0  0  0
   -3.1928    2.7214    0.0784 H   0  0  0  0  0  0  0  0  0  0  0  0
   -3.9544    1.1815   -0.2857 H   0  0  0  0  0  0  0  0  0  0  0  0
   -3.6282    0.5391    2.2138 H   0  0  0  0  0  0  0  0  0  0  0  0
   -2.8125    2.0597    2.4181 H   0  0  0  0  0  0  0  0  0  0  0  0
    3.7510   -2.6423   -0.1955 H   0  0  0  0  0  0  0  0  0  0  0  0
    2.4181   -3.3625    0.6923 H   0  0  0  0  0  0  0  0  0  0  0  0
    2.5038   -3.5803   -1.0676 H   0  0  0  0  0  0  0  0  0  0  0  0
    2.4938    1.7119    0.0861 H   0  0  0  0  0  0  0  0  0  0  0  0
    4.3469    2.9070    1.1727 H   0  0  0  0  0  0  0  0  0  0  0  0
    7.2070    1.9055    2.0127 H   0  0  0  0  0  0  0  0  0  0  0  0
    6.7828    3.4111    1.1608 H   0  0  0  0  0  0  0  0  0  0  0  0
    7.9356    2.2922    0.4341 H   0  0  0  0  0  0  0  0  0  0  0  0
    7.1692    0.1730   -0.6135 H   0  0  0  0  0  0  0  0  0  0  0  0
    5.3149   -1.0319   -1.6992 H   0  0  0  0  0  0  0  0  0  0  0  0
   -1.7716   -4.7806   -0.9534 H   0  0  0  0  0  0  0  0  0  0  0  0
   -4.2237   -4.8920   -0.6276 H   0  0  0  0  0  0  0  0  0  0  0  0
   -5.4445   -2.9401    0.2881 H   0  0  0  0  0  0  0  0  0  0  0  0
   -4.2659   -0.9007    0.8792 H   0  0  0  0  0  0  0  0  0  0  0  0
  1  2  1  0
  2  3  1  0
  3  4  1  0
  4  5  1  0
  5  6  2  0
  6  7  1  0
  7  8  2  0
  8  9  1  0
  9 10  1  0
 10 11  1  0
 10 12  1  0
 12 13  2  0
 12 14  2  0
 12 15  1  0
 15 16  2  0
 16 17  1  0
 17 18  2  0
 18 19  1  0
 18 20  1  0
 20 21  2  0
  9 22  2  0
 22 23  1  0
 23 24  2  0
 24 25  1  0
 25 26  2  0
 26 27  1  0
 27 28  2  0
 28 29  1  0
 29  5  1  0
 29  8  1  0
 21 15  1  0
 28 23  1  0
  1 30  1  0
  1 31  1  0
  1 32  1  0
  2 33  1  0
  2 34  1  0
  3 35  1  0
  3 36  1  0
  4 37  1  0
  4 38  1  0
 11 39  1  0
 11 40  1  0
 11 41  1  0
 16 42  1  0
 17 43  1  0
 19 44  1  0
 19 45  1  0
 19 46  1  0
 20 47  1  0
 21 48  1  0
 24 49  1  0
 25 50  1  0
 26 51  1  0
 27 52  1  0
M  END
$$$$
