
     RDKit          3D

 60 61  0  0  0  0  0  0  0  0999 V2000
   -7.0710   -0.9153    1.9983 C   0  0  0  0  0  0  0  0  0  0  0  0
   -6.1321   -1.5768    1.1596 O   0  0  0  0  0  0  0  0  0  0  0  0
   -4.8134   -1.2357    1.3037 C   0  0  0  0  0  0  0  0  0  0  0  0
   -4.3003   -0.3194    2.2229 C   0  0  0  0  0  0  0  0  0  0  0  0
   -2.9239   -0.0611    2.2734 C   0  0  0  0  0  0  0  0  0  0  0  0
   -2.3460    0.8506    3.1232 O   0  0  0  0  0  0  0  0  0  0  0  0
   -3.1594    1.4320    4.1332 C   0  0  0  0  0  0  0  0  0  0  0  0
   -2.0558   -0.7338    1.3868 C   0  0  0  0  0  0  0  0  0  0  0  0
   -0.6163   -0.4776    1.4300 C   0  0  0  0  0  0  0  0  0  0  0  0
    0.1271   -0.8578    2.4816 N   0  0  0  0  0  0  0  0  0  0  0  0
    1.4245   -0.5023    2.1815 O   0  0  0  0  0  0  0  0  0  0  0  0
    1.4725    0.0942    0.9571 C   0  0  0  0  0  0  0  0  0  0  0  0
    2.7300    0.6135    0.4898 C   0  0  0  0  0  0  0  0  0  0  0  0
    2.8692    1.4135   -0.4257 O   0  0  0  0  0  0  0  0  0  0  0  0
    3.7482    0.0898    1.2264 O   0  0  0  0  0  0  0  0  0  0  0  0
    5.1277    0.4481    0.9589 C   0  0  0  0  0  0  0  0  0  0  0  0
    5.3713    1.9416    1.2011 C   0  0  0  0  0  0  0  0  0  0  0  0
    5.5521    0.0182   -0.4500 C   0  0  0  0  0  0  0  0  0  0  0  0
    5.9441   -0.3549    1.9831 C   0  0  0  0  0  0  0  0  0  0  0  0
    0.1997    0.1085    0.4226 C   0  0  0  0  0  0  0  0  0  0  0  0
   -0.2033    0.6037   -0.8686 C   0  0  0  0  0  0  0  0  0  0  0  0
   -1.2778    1.1542   -1.0667 O   0  0  0  0  0  0  0  0  0  0  0  0
    0.7266    0.3382   -1.8246 O   0  0  0  0  0  0  0  0  0  0  0  0
    0.5258    0.7467   -3.2001 C   0  0  0  0  0  0  0  0  0  0  0  0
    0.4038    2.2694   -3.3215 C   0  0  0  0  0  0  0  0  0  0  0  0
    1.8022    0.2982   -3.9280 C   0  0  0  0  0  0  0  0  0  0  0  0
   -0.6736    0.0221   -3.8205 C   0  0  0  0  0  0  0  0  0  0  0  0
   -2.5761   -1.6474    0.4461 C   0  0  0  0  0  0  0  0  0  0  0  0
   -1.6712   -2.2537   -0.3923 O   0  0  0  0  0  0  0  0  0  0  0  0
   -2.1888   -3.0358   -1.4609 C   0  0  0  0  0  0  0  0  0  0  0  0
   -3.9512   -1.8936    0.4222 C   0  0  0  0  0  0  0  0  0  0  0  0
   -8.0675   -1.2910    1.7461 H   0  0  0  0  0  0  0  0  0  0  0  0
   -6.8864   -1.1434    3.0534 H   0  0  0  0  0  0  0  0  0  0  0  0
   -7.0675    0.1648    1.8192 H   0  0  0  0  0  0  0  0  0  0  0  0
   -4.9714    0.1996    2.8938 H   0  0  0  0  0  0  0  0  0  0  0  0
   -3.6092    0.6658    4.7739 H   0  0  0  0  0  0  0  0  0  0  0  0
   -3.9240    2.0814    3.6939 H   0  0  0  0  0  0  0  0  0  0  0  0
   -2.5168    2.0553    4.7628 H   0  0  0  0  0  0  0  0  0  0  0  0
    6.4392    2.1823    1.1628 H   0  0  0  0  0  0  0  0  0  0  0  0
    4.8691    2.5646    0.4549 H   0  0  0  0  0  0  0  0  0  0  0  0
    4.9801    2.2455    2.1786 H   0  0  0  0  0  0  0  0  0  0  0  0
    6.6320    0.1333   -0.5933 H   0  0  0  0  0  0  0  0  0  0  0  0
    5.0554    0.6091   -1.2258 H   0  0  0  0  0  0  0  0  0  0  0  0
    5.2851   -1.0288   -0.6339 H   0  0  0  0  0  0  0  0  0  0  0  0
    7.0186   -0.1716    1.8806 H   0  0  0  0  0  0  0  0  0  0  0  0
    5.7637   -1.4301    1.8684 H   0  0  0  0  0  0  0  0  0  0  0  0
    5.6453   -0.0995    3.0065 H   0  0  0  0  0  0  0  0  0  0  0  0
   -0.5246    2.6437   -2.8792 H   0  0  0  0  0  0  0  0  0  0  0  0
    0.4176    2.5873   -4.3697 H   0  0  0  0  0  0  0  0  0  0  0  0
    1.2255    2.7681   -2.7951 H   0  0  0  0  0  0  0  0  0  0  0  0
    2.6884    0.7694   -3.4865 H   0  0  0  0  0  0  0  0  0  0  0  0
    1.7724    0.5488   -4.9936 H   0  0  0  0  0  0  0  0  0  0  0  0
    1.9480   -0.7836   -3.8302 H   0  0  0  0  0  0  0  0  0  0  0  0
   -1.6207    0.3431   -3.3759 H   0  0  0  0  0  0  0  0  0  0  0  0
   -0.7366    0.2076   -4.8980 H   0  0  0  0  0  0  0  0  0  0  0  0
   -0.6017   -1.0592   -3.6565 H   0  0  0  0  0  0  0  0  0  0  0  0
   -1.3433   -3.3607   -2.0750 H   0  0  0  0  0  0  0  0  0  0  0  0
   -2.8545   -2.4457   -2.0996 H   0  0  0  0  0  0  0  0  0  0  0  0
   -2.6904   -3.9332   -1.0845 H   0  0  0  0  0  0  0  0  0  0  0  0
   -4.3908   -2.5998   -0.2749 H   0  0  0  0  0  0  0  0  0  0  0  0
  1  2  1  0
  2  3  1  0
  3  4  2  0
  4  5  1  0
  5  6  1  0
  6  7  1  0
  5  8  2  0
  8  9  1  0
  9 10  2  0
 10 11  1  0
 11 12  1  0
 12 13  1  0
 13 14  2  0
 13 15  1  0
 15 16  1  0
 16 17  1  0
 16 18  1  0
 16 19  1  0
 12 20  2  0
 20 21  1  0
 21 22  2  0
 21 23  1  0
 23 24  1  0
 24 25  1  0
 24 26  1  0
 24 27  1  0
  8 28  1  0
 28 29  1  0
 29 30  1  0
 28 31  2  0
 31  3  1  0
 20  9  1  0
  1 32  1  0
  1 33  1  0
  1 34  1  0
  4 35  1  0
  7 36  1  0
  7 37  1  0
  7 38  1  0
 17 39  1  0
 17 40  1  0
 17 41  1  0
 18 42  1  0
 18 43  1  0
 18 44  1  0
 19 45  1  0
 19 46  1  0
 19 47  1  0
 25 48  1  0
 25 49  1  0
 25 50  1  0
 26 51  1  0
 26 52  1  0
 26 53  1  0
 27 54  1  0
 27 55  1  0
 27 56  1  0
 30 57  1  0
 30 58  1  0
 30 59  1  0
 31 60  1  0
M  END
$$$$
