
     RDKit          3D

 54 56  0  0  0  0  0  0  0  0999 V2000
   -4.8353   -0.6468    2.6117 C   0  0  0  0  0  0  0  0  0  0  0  0
   -4.6172   -0.0515    1.2447 C   0  0  0  0  0  0  0  0  0  0  0  0
   -5.6817    0.6899    0.7047 C   0  0  0  0  0  0  0  0  0  0  0  0
   -5.6191    1.1917   -0.5889 C   0  0  0  0  0  0  0  0  0  0  0  0
   -4.4827    0.9753   -1.3613 C   0  0  0  0  0  0  0  0  0  0  0  0
   -3.3692    0.2839   -0.8466 C   0  0  0  0  0  0  0  0  0  0  0  0
   -2.1218    0.1239   -1.7183 C   0  0  0  0  0  0  0  0  0  0  0  0
   -2.2146   -1.1571   -2.5490 C   0  0  0  0  0  0  0  0  0  0  0  0
   -1.8159    1.3225   -2.6270 C   0  0  0  0  0  0  0  0  0  0  0  0
   -3.4401   -0.2268    0.4802 C   0  0  0  0  0  0  0  0  0  0  0  0
   -2.3457   -0.9840    0.9694 N   0  0  0  0  0  0  0  0  0  0  0  0
   -1.7279   -0.7677    2.1951 C   0  0  0  0  0  0  0  0  0  0  0  0
   -2.0702    0.0623    3.0347 O   0  0  0  0  0  0  0  0  0  0  0  0
   -0.5549   -1.7031    2.4712 C   0  0  0  0  0  0  0  0  0  0  0  0
    0.4307   -1.7387    1.3373 C   0  0  0  0  0  0  0  0  0  0  0  0
    0.7707   -2.8123    0.5378 C   0  0  0  0  0  0  0  0  0  0  0  0
    1.7141   -2.4566   -0.4683 C   0  0  0  0  0  0  0  0  0  0  0  0
    2.0730   -1.1251   -0.4037 C   0  0  0  0  0  0  0  0  0  0  0  0
    3.1471   -0.1308   -1.4132 S   0  0  0  0  0  6  0  0  0  0  0  0
    2.2562    0.7442   -2.1428 O   0  0  0  0  0  0  0  0  0  0  0  0
    3.9952   -1.0829   -2.0995 O   0  0  0  0  0  0  0  0  0  0  0  0
    4.1329    0.8156   -0.4016 N   0  0  0  0  0  0  0  0  0  0  0  0
    5.1049    0.0405    0.4329 C   0  0  0  0  0  0  0  0  0  0  0  0
    5.8246    0.9966    1.3904 C   0  0  0  0  0  0  0  0  0  0  0  0
    6.5167    2.0247    0.6669 O   0  0  0  0  0  0  0  0  0  0  0  0
    5.5903    2.7935   -0.1171 C   0  0  0  0  0  0  0  0  0  0  0  0
    4.8502    1.9102   -1.1279 C   0  0  0  0  0  0  0  0  0  0  0  0
    1.2994   -0.3286    0.8949 S   0  0  0  0  0  0  0  0  0  0  0  0
   -4.2722   -1.5744    2.7495 H   0  0  0  0  0  0  0  0  0  0  0  0
   -4.5686    0.0729    3.3910 H   0  0  0  0  0  0  0  0  0  0  0  0
   -5.8897   -0.9159    2.7485 H   0  0  0  0  0  0  0  0  0  0  0  0
   -6.5846    0.8547    1.2898 H   0  0  0  0  0  0  0  0  0  0  0  0
   -6.4601    1.7446   -0.9998 H   0  0  0  0  0  0  0  0  0  0  0  0
   -4.4786    1.3678   -2.3749 H   0  0  0  0  0  0  0  0  0  0  0  0
   -1.2461    0.0512   -1.0656 H   0  0  0  0  0  0  0  0  0  0  0  0
   -1.2945   -1.3147   -3.1220 H   0  0  0  0  0  0  0  0  0  0  0  0
   -2.3650   -2.0366   -1.9144 H   0  0  0  0  0  0  0  0  0  0  0  0
   -3.0496   -1.1133   -3.2571 H   0  0  0  0  0  0  0  0  0  0  0  0
   -0.8305    1.2029   -3.0909 H   0  0  0  0  0  0  0  0  0  0  0  0
   -1.8040    2.2571   -2.0561 H   0  0  0  0  0  0  0  0  0  0  0  0
   -2.5426    1.4255   -3.4395 H   0  0  0  0  0  0  0  0  0  0  0  0
   -1.7348   -1.3674    0.2627 H   0  0  0  0  0  0  0  0  0  0  0  0
   -0.9616   -2.7031    2.6621 H   0  0  0  0  0  0  0  0  0  0  0  0
   -0.0502   -1.3747    3.3875 H   0  0  0  0  0  0  0  0  0  0  0  0
    0.3525   -3.8056    0.6556 H   0  0  0  0  0  0  0  0  0  0  0  0
    2.1079   -3.1335   -1.2185 H   0  0  0  0  0  0  0  0  0  0  0  0
    5.8390   -0.4439   -0.2224 H   0  0  0  0  0  0  0  0  0  0  0  0
    4.5833   -0.7243    1.0150 H   0  0  0  0  0  0  0  0  0  0  0  0
    5.1197    1.4623    2.0892 H   0  0  0  0  0  0  0  0  0  0  0  0
    6.5669    0.4488    1.9776 H   0  0  0  0  0  0  0  0  0  0  0  0
    6.1619    3.5637   -0.6436 H   0  0  0  0  0  0  0  0  0  0  0  0
    4.8874    3.2992    0.5564 H   0  0  0  0  0  0  0  0  0  0  0  0
    4.1371    2.5276   -1.6823 H   0  0  0  0  0  0  0  0  0  0  0  0
    5.5670    1.4663   -1.8290 H   0  0  0  0  0  0  0  0  0  0  0  0
  1  2  1  0
  2  3  2  0
  3  4  1  0
  4  5  2  0
  5  6  1  0
  6  7  1  0
  7  8  1  0
  7  9  1  0
  6 10  2  0
 10 11  1  0
 11 12  1  0
 12 13  2  0
 12 14  1  0
 14 15  1  0
 15 16  2  0
 16 17  1  0
 17 18  2  0
 18 19  1  0
 19 20  2  0
 19 21  2  0
 19 22  1  0
 22 23  1  0
 23 24  1  0
 24 25  1  0
 25 26  1  0
 26 27  1  0
 18 28  1  0
 10  2  1  0
 28 15  1  0
 27 22  1  0
  1 29  1  0
  1 30  1  0
  1 31  1  0
  3 32  1  0
  4 33  1  0
  5 34  1  0
  7 35  1  0
  8 36  1  0
  8 37  1  0
  8 38  1  0
  9 39  1  0
  9 40  1  0
  9 41  1  0
 11 42  1  0
 14 43  1  0
 14 44  1  0
 16 45  1  0
 17 46  1  0
 23 47  1  0
 23 48  1  0
 24 49  1  0
 24 50  1  0
 26 51  1  0
 26 52  1  0
 27 53  1  0
 27 54  1  0
M  END
$$$$
