
     RDKit          3D

 52 55  0  0  0  0  0  0  0  0999 V2000
    8.6667   -0.9438    1.6053 C   0  0  0  0  0  0  0  0  0  0  0  0
    8.4277    0.1595    0.5894 C   0  0  0  0  0  0  0  0  0  0  0  0
    7.5553   -0.2885   -0.4463 O   0  0  0  0  0  0  0  0  0  0  0  0
    6.2107   -0.0973   -0.3043 C   0  0  0  0  0  0  0  0  0  0  0  0
    5.5523    0.3400    0.8421 C   0  0  0  0  0  0  0  0  0  0  0  0
    4.1581    0.4829    0.8430 C   0  0  0  0  0  0  0  0  0  0  0  0
    3.4051    0.1947   -0.3009 C   0  0  0  0  0  0  0  0  0  0  0  0
    2.0077    0.3465   -0.2143 N   0  0  0  0  0  0  0  0  0  0  0  0
    1.1002    0.3500   -1.2514 C   0  0  0  0  0  0  0  0  0  0  0  0
    1.3898    0.3865   -2.4436 O   0  0  0  0  0  0  0  0  0  0  0  0
   -0.2363    0.3501   -0.8130 N   0  0  0  0  0  0  0  0  0  0  0  0
   -1.2418    0.5096   -1.8618 C   0  0  0  0  0  0  0  0  0  0  0  0
   -2.5854    0.9679   -1.3087 C   0  0  0  0  0  0  0  0  0  0  0  0
   -3.0521    0.0364   -0.1865 C   0  0  0  0  0  0  0  0  0  0  0  0
   -4.3469    0.4343    0.3396 N   0  0  0  0  0  0  0  0  0  0  0  0
   -4.6290    1.6322    1.0370 C   0  0  0  0  0  0  0  0  0  0  0  0
   -3.8548    2.5165    1.3615 O   0  0  0  0  0  0  0  0  0  0  0  0
   -6.0065    1.6298    1.2981 N   0  0  0  0  0  0  0  0  0  0  0  0
   -6.5689    0.4809    0.7597 C   0  0  0  0  0  0  0  0  0  0  0  0
   -7.8858    0.0810    0.7661 C   0  0  0  0  0  0  0  0  0  0  0  0
   -8.1791   -1.1292    0.1323 C   0  0  0  0  0  0  0  0  0  0  0  0
   -7.1625   -1.8905   -0.4813 C   0  0  0  0  0  0  0  0  0  0  0  0
   -5.8295   -1.4594   -0.4737 C   0  0  0  0  0  0  0  0  0  0  0  0
   -5.5541   -0.2651    0.1581 C   0  0  0  0  0  0  0  0  0  0  0  0
   -1.9809   -0.0356    0.9082 C   0  0  0  0  0  0  0  0  0  0  0  0
   -0.6454   -0.4792    0.3247 C   0  0  0  0  0  0  0  0  0  0  0  0
    4.0653   -0.2576   -1.4415 C   0  0  0  0  0  0  0  0  0  0  0  0
    5.4576   -0.4007   -1.4400 C   0  0  0  0  0  0  0  0  0  0  0  0
    9.3896   -0.6234    2.3610 H   0  0  0  0  0  0  0  0  0  0  0  0
    9.0500   -1.8427    1.1109 H   0  0  0  0  0  0  0  0  0  0  0  0
    7.7396   -1.2315    2.1099 H   0  0  0  0  0  0  0  0  0  0  0  0
    8.0869    1.0906    1.0555 H   0  0  0  0  0  0  0  0  0  0  0  0
    9.3829    0.3979    0.1077 H   0  0  0  0  0  0  0  0  0  0  0  0
    6.0857    0.5704    1.7574 H   0  0  0  0  0  0  0  0  0  0  0  0
    3.6733    0.8248    1.7537 H   0  0  0  0  0  0  0  0  0  0  0  0
    1.6516    0.7304    0.6476 H   0  0  0  0  0  0  0  0  0  0  0  0
   -0.8903    1.2398   -2.6002 H   0  0  0  0  0  0  0  0  0  0  0  0
   -1.3435   -0.4537   -2.3773 H   0  0  0  0  0  0  0  0  0  0  0  0
   -2.4899    1.9947   -0.9342 H   0  0  0  0  0  0  0  0  0  0  0  0
   -3.3276    0.9940   -2.1154 H   0  0  0  0  0  0  0  0  0  0  0  0
   -3.1535   -0.9715   -0.6063 H   0  0  0  0  0  0  0  0  0  0  0  0
   -6.4821    2.3743    1.7801 H   0  0  0  0  0  0  0  0  0  0  0  0
   -8.6624    0.6720    1.2358 H   0  0  0  0  0  0  0  0  0  0  0  0
   -9.2054   -1.4903    0.1084 H   0  0  0  0  0  0  0  0  0  0  0  0
   -7.4206   -2.8285   -0.9696 H   0  0  0  0  0  0  0  0  0  0  0  0
   -5.0626   -2.0558   -0.9511 H   0  0  0  0  0  0  0  0  0  0  0  0
   -1.8496    0.9430    1.3848 H   0  0  0  0  0  0  0  0  0  0  0  0
   -2.2913   -0.7322    1.6961 H   0  0  0  0  0  0  0  0  0  0  0  0
    0.1094   -0.4745    1.1155 H   0  0  0  0  0  0  0  0  0  0  0  0
   -0.7100   -1.5131   -0.0373 H   0  0  0  0  0  0  0  0  0  0  0  0
    3.5257   -0.5145   -2.3479 H   0  0  0  0  0  0  0  0  0  0  0  0
    5.9571   -0.7524   -2.3397 H   0  0  0  0  0  0  0  0  0  0  0  0
  1  2  1  0
  2  3  1  0
  3  4  1  0
  4  5  2  0
  5  6  1  0
  6  7  2  0
  7  8  1  0
  8  9  1  0
  9 10  2  0
  9 11  1  0
 11 12  1  0
 12 13  1  0
 13 14  1  0
 14 15  1  0
 15 16  1  0
 16 17  2  0
 16 18  1  0
 18 19  1  0
 19 20  2  0
 20 21  1  0
 21 22  2  0
 22 23  1  0
 23 24  2  0
 14 25  1  0
 25 26  1  0
  7 27  1  0
 27 28  2  0
 28  4  1  0
 26 11  1  0
 24 15  1  0
 24 19  1  0
  1 29  1  0
  1 30  1  0
  1 31  1  0
  2 32  1  0
  2 33  1  0
  5 34  1  0
  6 35  1  0
  8 36  1  0
 12 37  1  0
 12 38  1  0
 13 39  1  0
 13 40  1  0
 14 41  1  0
 18 42  1  0
 20 43  1  0
 21 44  1  0
 22 45  1  0
 23 46  1  0
 25 47  1  0
 25 48  1  0
 26 49  1  0
 26 50  1  0
 27 51  1  0
 28 52  1  0
M  END
$$$$
