
     RDKit          3D

 48 50  0  0  0  0  0  0  0  0999 V2000
    6.9596   -0.2119    0.4507 C   0  0  0  0  0  0  0  0  0  0  0  0
    5.9910    0.8172    0.3188 O   0  0  0  0  0  0  0  0  0  0  0  0
    4.8325    0.4916   -0.3322 C   0  0  0  0  0  0  0  0  0  0  0  0
    3.8669    1.5030   -0.3399 C   0  0  0  0  0  0  0  0  0  0  0  0
    2.6331    1.3111   -0.9684 C   0  0  0  0  0  0  0  0  0  0  0  0
    2.3528    0.0955   -1.6096 C   0  0  0  0  0  0  0  0  0  0  0  0
    1.0242   -0.1410   -2.2834 C   0  0  0  0  0  0  0  0  0  0  0  0
    0.0584   -0.9210   -1.4017 C   0  0  0  0  0  0  0  0  0  0  0  0
    0.0997   -2.1466   -1.3568 O   0  0  0  0  0  0  0  0  0  0  0  0
   -0.8223   -0.0944   -0.7156 N   0  0  0  0  0  0  0  0  0  0  0  0
   -1.7905   -0.5306    0.1763 C   0  0  0  0  0  0  0  0  0  0  0  0
   -2.0946   -1.7827    0.6699 C   0  0  0  0  0  0  0  0  0  0  0  0
   -3.1816   -1.6043    1.5192 C   0  0  0  0  0  0  0  0  0  0  0  0
   -3.5908   -0.3462    1.5895 N   0  0  0  0  0  0  0  0  0  0  0  0
   -2.7099    0.3271    0.7987 N   0  0  0  0  0  0  0  0  0  0  0  0
   -2.8505    1.8000    0.6931 C   0  0  0  0  0  0  0  0  0  0  0  0
   -3.1482    2.2162   -0.7622 C   0  0  0  0  0  0  0  0  0  0  0  0
   -1.5803    2.5021    1.2182 C   0  0  0  0  0  0  0  0  0  0  0  0
   -4.0347    2.3264    1.5520 C   0  0  0  0  0  0  0  0  0  0  0  0
   -3.7517   -2.7726    2.2008 C   0  0  0  0  0  0  0  0  0  0  0  0
   -2.6336   -4.1850    1.7323 S   0  0  0  0  0  3  0  0  0  0  0  0
   -1.6827   -4.5249    3.0579 O   0  0  0  0  0  1  0  0  0  0  0  0
   -1.6000   -3.1631    0.5424 C   0  0  0  0  0  0  0  0  0  0  0  0
    3.3227   -0.9182   -1.5986 C   0  0  0  0  0  0  0  0  0  0  0  0
    4.5558   -0.7210   -0.9672 C   0  0  0  0  0  0  0  0  0  0  0  0
    7.3479   -0.5148   -0.5255 H   0  0  0  0  0  0  0  0  0  0  0  0
    6.5560   -1.0713    0.9977 H   0  0  0  0  0  0  0  0  0  0  0  0
    7.7963    0.1909    1.0326 H   0  0  0  0  0  0  0  0  0  0  0  0
    4.0780    2.4521    0.1547 H   0  0  0  0  0  0  0  0  0  0  0  0
    1.9044    2.1217   -0.9505 H   0  0  0  0  0  0  0  0  0  0  0  0
    0.5758    0.8116   -2.5956 H   0  0  0  0  0  0  0  0  0  0  0  0
    1.1689   -0.7080   -3.2133 H   0  0  0  0  0  0  0  0  0  0  0  0
   -0.7268    0.8960   -0.8757 H   0  0  0  0  0  0  0  0  0  0  0  0
   -2.3080    2.0395   -1.4378 H   0  0  0  0  0  0  0  0  0  0  0  0
   -3.3825    3.2859   -0.8280 H   0  0  0  0  0  0  0  0  0  0  0  0
   -4.0080    1.6628   -1.1597 H   0  0  0  0  0  0  0  0  0  0  0  0
   -0.6888    2.2805    0.6220 H   0  0  0  0  0  0  0  0  0  0  0  0
   -1.7033    3.5939    1.2114 H   0  0  0  0  0  0  0  0  0  0  0  0
   -1.3629    2.1968    2.2507 H   0  0  0  0  0  0  0  0  0  0  0  0
   -4.1370    3.4180    1.4630 H   0  0  0  0  0  0  0  0  0  0  0  0
   -4.9898    1.8836    1.2348 H   0  0  0  0  0  0  0  0  0  0  0  0
   -3.8907    2.0996    2.6169 H   0  0  0  0  0  0  0  0  0  0  0  0
   -4.7537   -3.0141    1.8352 H   0  0  0  0  0  0  0  0  0  0  0  0
   -3.7513   -2.6773    3.2896 H   0  0  0  0  0  0  0  0  0  0  0  0
   -0.5527   -3.2818    0.8387 H   0  0  0  0  0  0  0  0  0  0  0  0
   -1.7899   -3.5804   -0.4532 H   0  0  0  0  0  0  0  0  0  0  0  0
    3.1198   -1.8765   -2.0769 H   0  0  0  0  0  0  0  0  0  0  0  0
    5.2732   -1.5354   -0.9865 H   0  0  0  0  0  0  0  0  0  0  0  0
  1  2  1  0
  2  3  1  0
  3  4  2  0
  4  5  1  0
  5  6  2  0
  6  7  1  0
  7  8  1  0
  8  9  2  0
  8 10  1  0
 10 11  1  0
 11 12  2  0
 12 13  1  0
 13 14  2  0
 14 15  1  0
 15 16  1  0
 16 17  1  0
 16 18  1  0
 16 19  1  0
 13 20  1  0
 20 21  1  0
 21 22  1  0
 21 23  1  0
  6 24  1  0
 24 25  2  0
 25  3  1  0
 15 11  1  0
 23 12  1  0
  1 26  1  0
  1 27  1  0
  1 28  1  0
  4 29  1  0
  5 30  1  0
  7 31  1  0
  7 32  1  0
 10 33  1  0
 17 34  1  0
 17 35  1  0
 17 36  1  0
 18 37  1  0
 18 38  1  0
 18 39  1  0
 19 40  1  0
 19 41  1  0
 19 42  1  0
 20 43  1  0
 20 44  1  0
 23 45  1  0
 23 46  1  0
 24 47  1  0
 25 48  1  0
M  CHG  2  21   1  22  -1
M  END
$$$$
