
     RDKit          3D

 55 59  0  0  0  0  0  0  0  0999 V2000
   -2.1173    0.9631   -1.6151 C   0  0  0  0  0  0  0  0  0  0  0  0
   -2.6369    0.2314   -0.4080 C   0  0  0  0  0  0  0  0  0  0  0  0
   -3.9616   -0.1913   -0.3116 C   0  0  0  0  0  0  0  0  0  0  0  0
   -4.9871    0.0616   -1.3360 C   0  0  0  0  0  0  0  0  0  0  0  0
   -5.3813    1.3698   -1.6703 C   0  0  0  0  0  0  0  0  0  0  0  0
   -6.3595    1.6011   -2.6412 C   0  0  0  0  0  0  0  0  0  0  0  0
   -6.9660    0.5254   -3.2870 C   0  0  0  0  0  0  0  0  0  0  0  0
   -6.5974   -0.7758   -2.9537 C   0  0  0  0  0  0  0  0  0  0  0  0
   -7.3526   -2.1048   -3.7445 Cl  0  0  0  0  0  0  0  0  0  0  0  0
   -5.6211   -1.0105   -1.9856 C   0  0  0  0  0  0  0  0  0  0  0  0
   -4.4312   -0.8854    0.7550 N   0  0  0  0  0  0  0  0  0  0  0  0
   -3.6274   -1.1411    1.7965 C   0  0  0  0  0  0  0  0  0  0  0  0
   -4.1578   -1.8333    2.8775 C   0  0  0  0  0  0  0  0  0  0  0  0
   -3.4011   -2.1229    4.0141 C   0  0  0  0  0  0  0  0  0  0  0  0
   -2.0797   -1.7093    4.0792 C   0  0  0  0  0  0  0  0  0  0  0  0
   -1.5252   -1.0163    3.0046 C   0  0  0  0  0  0  0  0  0  0  0  0
   -2.2868   -0.7281    1.8419 C   0  0  0  0  0  0  0  0  0  0  0  0
   -1.8113   -0.0381    0.7004 C   0  0  0  0  0  0  0  0  0  0  0  0
   -0.4179    0.4434    0.6638 C   0  0  0  0  0  0  0  0  0  0  0  0
   -0.0937    1.6177    0.6536 O   0  0  0  0  0  0  0  0  0  0  0  0
    0.4120   -0.6202    0.5421 O   0  0  0  0  0  0  0  0  0  0  0  0
    1.7881   -0.2596    0.3986 C   0  0  0  0  0  0  0  0  0  0  0  0
    2.4026    0.3375    1.6701 C   0  0  0  0  0  0  0  0  0  0  0  0
    1.9248    0.0952    2.7863 O   0  0  0  0  0  0  0  0  0  0  0  0
    3.5822    1.2777    1.5331 C   0  0  0  0  0  0  0  0  0  0  0  0
    3.1257    2.6066    1.1129 C   0  0  0  0  0  0  0  0  0  0  0  0
    2.8807    3.6816    0.7487 N   0  0  0  0  0  0  0  0  0  0  0  0
    4.6157    0.7344    0.5887 C   0  0  0  0  0  0  0  0  0  0  0  0
    4.7788   -0.5288    0.2443 N   0  0  0  0  0  0  0  0  0  0  0  0
    5.8464   -0.5553   -0.6196 C   0  0  0  0  0  0  0  0  0  0  0  0
    6.4336   -1.6369   -1.2896 C   0  0  0  0  0  0  0  0  0  0  0  0
    7.5263   -1.3900   -2.1306 C   0  0  0  0  0  0  0  0  0  0  0  0
    8.0221   -0.0945   -2.2984 C   0  0  0  0  0  0  0  0  0  0  0  0
    7.4480    0.9964   -1.6353 C   0  0  0  0  0  0  0  0  0  0  0  0
    6.3608    0.7208   -0.8037 C   0  0  0  0  0  0  0  0  0  0  0  0
    5.5740    1.5227   -0.0180 N   0  0  0  0  0  0  0  0  0  0  0  0
   -2.1908    2.0440   -1.4608 H   0  0  0  0  0  0  0  0  0  0  0  0
   -2.6680    0.6969   -2.5228 H   0  0  0  0  0  0  0  0  0  0  0  0
   -1.0743    0.7031   -1.8236 H   0  0  0  0  0  0  0  0  0  0  0  0
   -4.9322    2.2213   -1.1618 H   0  0  0  0  0  0  0  0  0  0  0  0
   -6.6522    2.6189   -2.8864 H   0  0  0  0  0  0  0  0  0  0  0  0
   -7.7288    0.7065   -4.0395 H   0  0  0  0  0  0  0  0  0  0  0  0
   -5.3508   -2.0320   -1.7250 H   0  0  0  0  0  0  0  0  0  0  0  0
   -5.1974   -2.1518    2.8358 H   0  0  0  0  0  0  0  0  0  0  0  0
   -3.8494   -2.6640    4.8429 H   0  0  0  0  0  0  0  0  0  0  0  0
   -1.4785   -1.9211    4.9598 H   0  0  0  0  0  0  0  0  0  0  0  0
   -0.4870   -0.7006    3.0869 H   0  0  0  0  0  0  0  0  0  0  0  0
    2.3262   -1.1814    0.1613 H   0  0  0  0  0  0  0  0  0  0  0  0
    1.8989    0.4265   -0.4484 H   0  0  0  0  0  0  0  0  0  0  0  0
    4.0540    1.3527    2.5215 H   0  0  0  0  0  0  0  0  0  0  0  0
    6.0454   -2.6405   -1.1552 H   0  0  0  0  0  0  0  0  0  0  0  0
    7.9936   -2.2191   -2.6576 H   0  0  0  0  0  0  0  0  0  0  0  0
    8.8720    0.0699   -2.9586 H   0  0  0  0  0  0  0  0  0  0  0  0
    7.8349    2.0011   -1.7671 H   0  0  0  0  0  0  0  0  0  0  0  0
    5.6757    2.5256    0.0752 H   0  0  0  0  0  0  0  0  0  0  0  0
  1  2  1  0
  2  3  2  0
  3  4  1  0
  4  5  2  0
  5  6  1  0
  6  7  2  0
  7  8  1  0
  8  9  1  0
  8 10  2  0
  3 11  1  0
 11 12  2  0
 12 13  1  0
 13 14  2  0
 14 15  1  0
 15 16  2  0
 16 17  1  0
 17 18  2  0
 18 19  1  0
 19 20  2  0
 19 21  1  0
 21 22  1  0
 22 23  1  0
 23 24  2  0
 23 25  1  0
 25 26  1  0
 26 27  3  0
 25 28  1  0
 28 29  2  0
 29 30  1  0
 30 31  2  0
 31 32  1  0
 32 33  2  0
 33 34  1  0
 34 35  2  0
 35 36  1  0
 18  2  1  0
 36 28  1  0
 10  4  1  0
 17 12  1  0
 35 30  1  0
  1 37  1  0
  1 38  1  0
  1 39  1  0
  5 40  1  0
  6 41  1  0
  7 42  1  0
 10 43  1  0
 13 44  1  0
 14 45  1  0
 15 46  1  0
 16 47  1  0
 22 48  1  0
 22 49  1  0
 25 50  1  0
 31 51  1  0
 32 52  1  0
 33 53  1  0
 34 54  1  0
 36 55  1  0
M  END
$$$$
