
     RDKit          3D

 71 75  0  0  0  0  0  0  0  0999 V2000
   -2.4689    5.2838    4.1740 C   0  0  0  0  0  0  0  0  0  0  0  0
   -2.5725    4.9538    2.7944 O   0  0  0  0  0  0  0  0  0  0  0  0
   -2.2685    3.6675    2.4434 C   0  0  0  0  0  0  0  0  0  0  0  0
   -2.3899    3.3881    1.0815 C   0  0  0  0  0  0  0  0  0  0  0  0
   -2.1073    2.1129    0.5815 C   0  0  0  0  0  0  0  0  0  0  0  0
   -1.6959    1.0845    1.4383 C   0  0  0  0  0  0  0  0  0  0  0  0
   -1.3457   -0.3246    0.9565 C   0  0  0  0  0  0  0  0  0  0  0  0
   -2.0550   -0.8264   -0.3294 C   0  0  0  0  0  0  0  0  0  0  0  0
   -3.5730   -0.9954   -0.1267 C   0  0  0  0  0  0  0  0  0  0  0  0
   -4.3430   -1.5181   -1.2641 N   0  0  0  0  0  0  0  0  0  0  0  0
   -3.9786   -2.8935   -1.6458 C   0  0  0  0  0  0  0  0  0  0  0  0
   -4.8810   -3.4004   -2.7830 C   0  0  0  0  0  0  0  0  0  0  0  0
   -4.8009   -2.5433   -3.9311 O   0  0  0  0  0  0  0  0  0  0  0  0
   -5.1886   -1.2074   -3.5756 C   0  0  0  0  0  0  0  0  0  0  0  0
   -4.2976   -0.6482   -2.4543 C   0  0  0  0  0  0  0  0  0  0  0  0
    0.1744   -0.5384    0.8764 C   0  0  0  0  0  0  0  0  0  0  0  0
    0.8169   -1.4168    1.7690 C   0  0  0  0  0  0  0  0  0  0  0  0
    0.0343   -2.0605    2.6928 O   0  0  0  0  0  0  0  0  0  0  0  0
    0.4955   -3.3416    3.1185 C   0  0  0  0  0  0  0  0  0  0  0  0
    2.2051   -1.5636    1.7278 C   0  0  0  0  0  0  0  0  0  0  0  0
    2.9703   -0.8790    0.7740 C   0  0  0  0  0  0  0  0  0  0  0  0
    4.3333   -1.0264    0.8263 O   0  0  0  0  0  0  0  0  0  0  0  0
    4.7378   -2.3182    0.3680 C   0  0  0  0  0  0  0  0  0  0  0  0
    2.3747    0.0031   -0.1396 C   0  0  0  0  0  0  0  0  0  0  0  0
    3.1161    0.7902   -1.1537 C   0  0  0  0  0  0  0  0  0  0  0  0
    4.5774    0.8159   -1.3726 C   0  0  0  0  0  0  0  0  0  0  0  0
    5.3977    1.6179   -0.5692 C   0  0  0  0  0  0  0  0  0  0  0  0
    6.7758    1.6587   -0.7896 C   0  0  0  0  0  0  0  0  0  0  0  0
    7.3413    0.9017   -1.8147 C   0  0  0  0  0  0  0  0  0  0  0  0
    6.5307    0.1054   -2.6235 C   0  0  0  0  0  0  0  0  0  0  0  0
    5.1527    0.0625   -2.4055 C   0  0  0  0  0  0  0  0  0  0  0  0
    2.4247    1.5970   -1.9763 C   0  0  0  0  0  0  0  0  0  0  0  0
    0.9677    1.7266   -1.9434 C   0  0  0  0  0  0  0  0  0  0  0  0
    0.3741    2.4349   -2.7471 O   0  0  0  0  0  0  0  0  0  0  0  0
    0.3109    0.9922   -0.9784 O   0  0  0  0  0  0  0  0  0  0  0  0
    0.9794    0.1409   -0.0681 C   0  0  0  0  0  0  0  0  0  0  0  0
   -1.5724    1.3789    2.8081 C   0  0  0  0  0  0  0  0  0  0  0  0
   -1.8587    2.6550    3.3075 C   0  0  0  0  0  0  0  0  0  0  0  0
   -3.1700    4.6938    4.7741 H   0  0  0  0  0  0  0  0  0  0  0  0
   -2.7415    6.3373    4.2894 H   0  0  0  0  0  0  0  0  0  0  0  0
   -1.4417    5.1655    4.5324 H   0  0  0  0  0  0  0  0  0  0  0  0
   -2.7024    4.1727    0.3960 H   0  0  0  0  0  0  0  0  0  0  0  0
   -2.2059    1.9523   -0.4886 H   0  0  0  0  0  0  0  0  0  0  0  0
   -1.7412   -0.9841    1.7414 H   0  0  0  0  0  0  0  0  0  0  0  0
   -1.8620   -0.1586   -1.1734 H   0  0  0  0  0  0  0  0  0  0  0  0
   -1.6231   -1.7983   -0.5996 H   0  0  0  0  0  0  0  0  0  0  0  0
   -4.0163   -0.0344    0.1604 H   0  0  0  0  0  0  0  0  0  0  0  0
   -3.7466   -1.6576    0.7322 H   0  0  0  0  0  0  0  0  0  0  0  0
   -2.9381   -2.9329   -1.9891 H   0  0  0  0  0  0  0  0  0  0  0  0
   -4.0825   -3.5646   -0.7855 H   0  0  0  0  0  0  0  0  0  0  0  0
   -5.9266   -3.4762   -2.4595 H   0  0  0  0  0  0  0  0  0  0  0  0
   -4.5585   -4.3992   -3.0944 H   0  0  0  0  0  0  0  0  0  0  0  0
   -6.2454   -1.2053   -3.2825 H   0  0  0  0  0  0  0  0  0  0  0  0
   -5.0912   -0.5851   -4.4717 H   0  0  0  0  0  0  0  0  0  0  0  0
   -4.6415    0.3606   -2.1990 H   0  0  0  0  0  0  0  0  0  0  0  0
   -3.2729   -0.5751   -2.8365 H   0  0  0  0  0  0  0  0  0  0  0  0
    0.8585   -3.9452    2.2771 H   0  0  0  0  0  0  0  0  0  0  0  0
    1.2674   -3.2385    3.8904 H   0  0  0  0  0  0  0  0  0  0  0  0
   -0.3532   -3.8722    3.5633 H   0  0  0  0  0  0  0  0  0  0  0  0
    2.7221   -2.1807    2.4571 H   0  0  0  0  0  0  0  0  0  0  0  0
    4.2846   -2.5628   -0.5992 H   0  0  0  0  0  0  0  0  0  0  0  0
    5.8238   -2.3006    0.2415 H   0  0  0  0  0  0  0  0  0  0  0  0
    4.4990   -3.0905    1.1068 H   0  0  0  0  0  0  0  0  0  0  0  0
    4.9681    2.2049    0.2392 H   0  0  0  0  0  0  0  0  0  0  0  0
    7.4078    2.2792   -0.1588 H   0  0  0  0  0  0  0  0  0  0  0  0
    8.4141    0.9341   -1.9852 H   0  0  0  0  0  0  0  0  0  0  0  0
    6.9728   -0.4816   -3.4244 H   0  0  0  0  0  0  0  0  0  0  0  0
    4.5308   -0.5618   -3.0433 H   0  0  0  0  0  0  0  0  0  0  0  0
    2.9082    2.2088   -2.7325 H   0  0  0  0  0  0  0  0  0  0  0  0
   -1.2447    0.6066    3.5029 H   0  0  0  0  0  0  0  0  0  0  0  0
   -1.7455    2.8202    4.3731 H   0  0  0  0  0  0  0  0  0  0  0  0
  1  2  1  0
  2  3  1  0
  3  4  2  0
  4  5  1  0
  5  6  2  0
  6  7  1  0
  7  8  1  0
  8  9  1  0
  9 10  1  0
 10 11  1  0
 11 12  1  0
 12 13  1  0
 13 14  1  0
 14 15  1  0
  7 16  1  0
 16 17  2  0
 17 18  1  0
 18 19  1  0
 17 20  1  0
 20 21  2  0
 21 22  1  0
 22 23  1  0
 21 24  1  0
 24 25  1  0
 25 26  1  0
 26 27  2  0
 27 28  1  0
 28 29  2  0
 29 30  1  0
 30 31  2  0
 25 32  2  0
 32 33  1  0
 33 34  2  0
 33 35  1  0
 35 36  1  0
  6 37  1  0
 37 38  2  0
 38  3  1  0
 15 10  1  0
 36 16  1  0
 36 24  2  0
 31 26  1  0
  1 39  1  0
  1 40  1  0
  1 41  1  0
  4 42  1  0
  5 43  1  0
  7 44  1  0
  8 45  1  0
  8 46  1  0
  9 47  1  0
  9 48  1  0
 11 49  1  0
 11 50  1  0
 12 51  1  0
 12 52  1  0
 14 53  1  0
 14 54  1  0
 15 55  1  0
 15 56  1  0
 19 57  1  0
 19 58  1  0
 19 59  1  0
 20 60  1  0
 23 61  1  0
 23 62  1  0
 23 63  1  0
 27 64  1  0
 28 65  1  0
 29 66  1  0
 30 67  1  0
 31 68  1  0
 32 69  1  0
 37 70  1  0
 38 71  1  0
M  END
$$$$
