
     RDKit          3D

 44 46  0  0  0  0  0  0  0  0999 V2000
    5.9631   -2.8107   -2.0242 C   0  0  0  0  0  0  0  0  0  0  0  0
    4.8268   -2.0820   -1.3684 C   0  0  0  0  0  0  0  0  0  0  0  0
    3.5115   -2.5262   -1.5451 C   0  0  0  0  0  0  0  0  0  0  0  0
    2.4520   -1.8667   -0.9168 C   0  0  0  0  0  0  0  0  0  0  0  0
    2.6953   -0.7574   -0.0965 C   0  0  0  0  0  0  0  0  0  0  0  0
    1.5310   -0.0906    0.5457 C   0  0  0  0  0  0  0  0  0  0  0  0
    0.3750   -0.4573    0.3982 O   0  0  0  0  0  0  0  0  0  0  0  0
    1.9306    0.9651    1.2945 O   0  0  0  0  0  0  0  0  0  0  0  0
    0.8799    1.6730    1.9528 C   0  0  0  0  0  0  0  0  0  0  0  0
    0.0933    2.5936    1.0171 C   0  0  0  0  0  0  0  0  0  0  0  0
    0.3794    3.7789    0.8673 O   0  0  0  0  0  0  0  0  0  0  0  0
   -0.9560    1.9781    0.3740 N   0  0  0  0  0  0  0  0  0  0  0  0
   -1.7551    2.6544   -0.6276 C   0  0  0  0  0  0  0  0  0  0  0  0
   -3.2367    2.2353   -0.6648 C   0  0  0  0  0  0  0  0  0  0  0  0
   -4.0230    2.5556    0.6063 C   0  0  0  0  0  0  0  0  0  0  0  0
   -3.6713    1.7156    1.7069 O   0  0  0  0  0  0  0  0  0  0  0  0
   -3.6175    0.4009    1.3253 C   0  0  0  0  0  0  0  0  0  0  0  0
   -3.6613   -0.5474    2.3462 C   0  0  0  0  0  0  0  0  0  0  0  0
   -3.6065   -1.9065    2.0361 C   0  0  0  0  0  0  0  0  0  0  0  0
   -3.5014   -2.3154    0.7055 C   0  0  0  0  0  0  0  0  0  0  0  0
   -3.4428   -1.3648   -0.3150 C   0  0  0  0  0  0  0  0  0  0  0  0
   -3.4894   -0.0060   -0.0056 C   0  0  0  0  0  0  0  0  0  0  0  0
   -3.3794    0.8611   -1.0601 O   0  0  0  0  0  0  0  0  0  0  0  0
    4.0113   -0.3190    0.0927 C   0  0  0  0  0  0  0  0  0  0  0  0
    5.0695   -0.9823   -0.5362 C   0  0  0  0  0  0  0  0  0  0  0  0
    6.1996   -3.7211   -1.4623 H   0  0  0  0  0  0  0  0  0  0  0  0
    6.8605   -2.1839   -2.0665 H   0  0  0  0  0  0  0  0  0  0  0  0
    5.7039   -3.0818   -3.0549 H   0  0  0  0  0  0  0  0  0  0  0  0
    3.3038   -3.3879   -2.1754 H   0  0  0  0  0  0  0  0  0  0  0  0
    1.4355   -2.2240   -1.0700 H   0  0  0  0  0  0  0  0  0  0  0  0
    1.3370    2.2973    2.7284 H   0  0  0  0  0  0  0  0  0  0  0  0
    0.2032    0.9827    2.4724 H   0  0  0  0  0  0  0  0  0  0  0  0
   -0.9327    0.9566    0.3432 H   0  0  0  0  0  0  0  0  0  0  0  0
   -1.2856    2.4191   -1.5900 H   0  0  0  0  0  0  0  0  0  0  0  0
   -1.6856    3.7377   -0.4789 H   0  0  0  0  0  0  0  0  0  0  0  0
   -3.6944    2.8178   -1.4749 H   0  0  0  0  0  0  0  0  0  0  0  0
   -5.1000    2.4376    0.4267 H   0  0  0  0  0  0  0  0  0  0  0  0
   -3.8569    3.5950    0.9100 H   0  0  0  0  0  0  0  0  0  0  0  0
   -3.7437   -0.2265    3.3813 H   0  0  0  0  0  0  0  0  0  0  0  0
   -3.6431   -2.6463    2.8314 H   0  0  0  0  0  0  0  0  0  0  0  0
   -3.4538   -3.3738    0.4627 H   0  0  0  0  0  0  0  0  0  0  0  0
   -3.3442   -1.6831   -1.3495 H   0  0  0  0  0  0  0  0  0  0  0  0
    4.2315    0.5362    0.7270 H   0  0  0  0  0  0  0  0  0  0  0  0
    6.0865   -0.6305   -0.3727 H   0  0  0  0  0  0  0  0  0  0  0  0
  1  2  1  0
  2  3  2  0
  3  4  1  0
  4  5  2  0
  5  6  1  0
  6  7  2  0
  6  8  1  0
  8  9  1  0
  9 10  1  0
 10 11  2  0
 10 12  1  0
 12 13  1  0
 13 14  1  0
 14 15  1  0
 15 16  1  0
 16 17  1  0
 17 18  2  0
 18 19  1  0
 19 20  2  0
 20 21  1  0
 21 22  2  0
 22 23  1  0
  5 24  1  0
 24 25  2  0
 25  2  1  0
 23 14  1  0
 22 17  1  0
  1 26  1  0
  1 27  1  0
  1 28  1  0
  3 29  1  0
  4 30  1  0
  9 31  1  0
  9 32  1  0
 12 33  1  0
 13 34  1  0
 13 35  1  0
 14 36  1  0
 15 37  1  0
 15 38  1  0
 18 39  1  0
 19 40  1  0
 20 41  1  0
 21 42  1  0
 24 43  1  0
 25 44  1  0
M  END
$$$$
