
     RDKit          3D

 56 61  0  0  0  0  0  0  0  0999 V2000
    5.7102   -3.1915   -0.9774 C   0  0  0  0  0  0  0  0  0  0  0  0
    4.7830   -2.5897   -0.0816 O   0  0  0  0  0  0  0  0  0  0  0  0
    3.7932   -1.8283   -0.6393 C   0  0  0  0  0  0  0  0  0  0  0  0
    3.6216   -1.5692   -1.9973 C   0  0  0  0  0  0  0  0  0  0  0  0
    2.5596   -0.7716   -2.4284 C   0  0  0  0  0  0  0  0  0  0  0  0
    1.6654   -0.2281   -1.5057 C   0  0  0  0  0  0  0  0  0  0  0  0
    1.8187   -0.4727   -0.1306 C   0  0  0  0  0  0  0  0  0  0  0  0
    0.8583    0.1014    0.9095 C   0  0  0  0  0  0  0  0  0  0  0  0
   -0.3833   -0.7053    0.7556 C   0  0  0  0  0  0  0  0  0  0  0  0
   -0.7272   -2.0449    1.0033 C   0  0  0  0  0  0  0  0  0  0  0  0
    0.1267   -3.1463    1.5110 C   0  0  0  0  0  0  0  0  0  0  0  0
   -2.0107   -2.2791    0.7131 N   0  0  0  0  0  0  0  0  0  0  0  0
   -2.5154   -1.0840    0.2721 N   0  0  0  0  0  0  0  0  0  0  0  0
   -3.8843   -1.0051   -0.1363 C   0  0  0  0  0  0  0  0  0  0  0  0
   -4.4544    0.1873   -0.6051 C   0  0  0  0  0  0  0  0  0  0  0  0
   -5.7990    0.2266   -0.9970 C   0  0  0  0  0  0  0  0  0  0  0  0
   -6.5803   -0.9320   -0.9216 C   0  0  0  0  0  0  0  0  0  0  0  0
   -7.9890   -0.8906   -1.3321 N   0  0  0  0  0  4  0  0  0  0  0  0
   -8.6450   -1.9393   -1.2502 O   0  0  0  0  0  0  0  0  0  0  0  0
   -8.4419    0.1896   -1.7370 O   0  0  0  0  0  1  0  0  0  0  0  0
   -6.0267   -2.1298   -0.4581 C   0  0  0  0  0  0  0  0  0  0  0  0
   -4.6837   -2.1622   -0.0683 C   0  0  0  0  0  0  0  0  0  0  0  0
   -1.5352   -0.0967    0.3142 C   0  0  0  0  0  0  0  0  0  0  0  0
   -1.6729    1.2143   -0.0055 N   0  0  0  0  0  0  0  0  0  0  0  0
   -0.6190    1.9633    0.2072 C   0  0  0  0  0  0  0  0  0  0  0  0
   -0.8218    3.4569   -0.1446 C   0  0  0  0  0  0  0  0  0  0  0  0
   -1.8467    3.8677   -0.6711 O   0  0  0  0  0  0  0  0  0  0  0  0
    0.2161    4.2916    0.1722 N   0  0  0  0  0  0  0  0  0  0  0  0
    1.4120    3.8623    0.7537 C   0  0  0  0  0  0  0  0  0  0  0  0
    2.3751    4.8361    1.0448 C   0  0  0  0  0  0  0  0  0  0  0  0
    3.5830    4.4673    1.6256 C   0  0  0  0  0  0  0  0  0  0  0  0
    3.8228    3.1299    1.9140 C   0  0  0  0  0  0  0  0  0  0  0  0
    2.8571    2.1588    1.6198 C   0  0  0  0  0  0  0  0  0  0  0  0
    1.6282    2.4939    1.0263 C   0  0  0  0  0  0  0  0  0  0  0  0
    0.6304    1.5499    0.7081 N   0  0  0  0  0  0  0  0  0  0  0  0
    2.8949   -1.2809    0.2821 C   0  0  0  0  0  0  0  0  0  0  0  0
    6.2746   -2.4327   -1.5294 H   0  0  0  0  0  0  0  0  0  0  0  0
    5.2073   -3.8855   -1.6591 H   0  0  0  0  0  0  0  0  0  0  0  0
    6.4237   -3.7688   -0.3814 H   0  0  0  0  0  0  0  0  0  0  0  0
    4.2930   -1.9723   -2.7481 H   0  0  0  0  0  0  0  0  0  0  0  0
    2.4258   -0.5747   -3.4896 H   0  0  0  0  0  0  0  0  0  0  0  0
    0.8422    0.3834   -1.8712 H   0  0  0  0  0  0  0  0  0  0  0  0
    1.2327   -0.0701    1.9271 H   0  0  0  0  0  0  0  0  0  0  0  0
   -0.4752   -3.9357    1.9734 H   0  0  0  0  0  0  0  0  0  0  0  0
    0.8274   -2.7787    2.2671 H   0  0  0  0  0  0  0  0  0  0  0  0
    0.6999   -3.5909    0.6916 H   0  0  0  0  0  0  0  0  0  0  0  0
   -3.8870    1.1106   -0.6835 H   0  0  0  0  0  0  0  0  0  0  0  0
   -6.2129    1.1672   -1.3563 H   0  0  0  0  0  0  0  0  0  0  0  0
   -6.6175   -3.0411   -0.3930 H   0  0  0  0  0  0  0  0  0  0  0  0
   -4.2713   -3.1052    0.2897 H   0  0  0  0  0  0  0  0  0  0  0  0
    0.0686    5.2680   -0.0428 H   0  0  0  0  0  0  0  0  0  0  0  0
    2.1932    5.8846    0.8240 H   0  0  0  0  0  0  0  0  0  0  0  0
    4.3339    5.2196    1.8532 H   0  0  0  0  0  0  0  0  0  0  0  0
    4.7656    2.8340    2.3692 H   0  0  0  0  0  0  0  0  0  0  0  0
    3.1108    1.1357    1.8756 H   0  0  0  0  0  0  0  0  0  0  0  0
    3.0452   -1.4971    1.3382 H   0  0  0  0  0  0  0  0  0  0  0  0
  1  2  1  0
  2  3  1  0
  3  4  2  0
  4  5  1  0
  5  6  2  0
  6  7  1  0
  7  8  1  0
  8  9  1  0
  9 10  1  0
 10 11  1  0
 10 12  2  0
 12 13  1  0
 13 14  1  0
 14 15  2  0
 15 16  1  0
 16 17  2  0
 17 18  1  0
 18 19  2  0
 18 20  1  0
 17 21  1  0
 21 22  2  0
 13 23  1  0
 23 24  1  0
 24 25  2  0
 25 26  1  0
 26 27  2  0
 26 28  1  0
 28 29  1  0
 29 30  2  0
 30 31  1  0
 31 32  2  0
 32 33  1  0
 33 34  2  0
 34 35  1  0
  7 36  2  0
 36  3  1  0
 35  8  1  0
 23  9  2  0
 35 25  1  0
 22 14  1  0
 34 29  1  0
  1 37  1  0
  1 38  1  0
  1 39  1  0
  4 40  1  0
  5 41  1  0
  6 42  1  0
  8 43  1  0
 11 44  1  0
 11 45  1  0
 11 46  1  0
 15 47  1  0
 16 48  1  0
 21 49  1  0
 22 50  1  0
 28 51  1  0
 30 52  1  0
 31 53  1  0
 32 54  1  0
 33 55  1  0
 36 56  1  0
M  CHG  2  18   1  20  -1
M  END
$$$$
