
     RDKit          3D

 40 42  0  0  0  0  0  0  0  0999 V2000
   -3.9310    2.6452   -1.1253 C   0  0  0  0  0  0  0  0  0  0  0  0
   -3.1392    1.5832   -0.6100 O   0  0  0  0  0  0  0  0  0  0  0  0
   -3.4391    1.1183    0.6466 C   0  0  0  0  0  0  0  0  0  0  0  0
   -4.5330    1.5554    1.4049 C   0  0  0  0  0  0  0  0  0  0  0  0
   -4.7586    1.0483    2.6874 C   0  0  0  0  0  0  0  0  0  0  0  0
   -3.8938    0.1022    3.2270 C   0  0  0  0  0  0  0  0  0  0  0  0
   -2.8039   -0.3446    2.4815 C   0  0  0  0  0  0  0  0  0  0  0  0
   -2.5714    0.1443    1.1858 C   0  0  0  0  0  0  0  0  0  0  0  0
   -1.3873   -0.3758    0.4819 C   0  0  0  0  0  0  0  0  0  0  0  0
   -1.4385   -0.8838   -0.7573 C   0  0  0  0  0  0  0  0  0  0  0  0
   -0.2217   -1.4092   -1.4195 C   0  0  0  0  0  0  0  0  0  0  0  0
    0.9335   -1.4633   -0.8446 N   0  0  0  0  0  0  0  0  0  0  0  0
    1.9754   -2.0099   -1.5303 N   0  0  0  0  0  0  0  0  0  0  0  0
    3.2737   -1.6182   -1.3496 C   0  0  0  0  0  0  0  0  0  0  0  0
    3.6173   -0.4901   -0.4835 C   0  0  0  0  0  0  0  0  0  0  0  0
    4.0884    0.6756   -1.1017 C   0  0  0  0  0  0  0  0  0  0  0  0
    4.4209    1.7857   -0.3242 C   0  0  0  0  0  0  0  0  0  0  0  0
    4.2910    1.7220    1.0632 C   0  0  0  0  0  0  0  0  0  0  0  0
    4.7016    3.0925    2.0191 Cl  0  0  0  0  0  0  0  0  0  0  0  0
    3.8419    0.5566    1.6840 C   0  0  0  0  0  0  0  0  0  0  0  0
    3.5086   -0.5581    0.9099 C   0  0  0  0  0  0  0  0  0  0  0  0
    3.0232   -1.9954    1.7357 Cl  0  0  0  0  0  0  0  0  0  0  0  0
    4.1496   -2.2977   -2.0386 N   0  0  0  0  0  0  0  0  0  0  0  0
    3.3977   -3.2414   -2.6895 N   0  0  0  0  0  0  0  0  0  0  0  0
    2.0473   -3.1314   -2.3391 C   0  0  0  0  0  0  0  0  0  0  0  0
    0.9069   -4.2318   -2.8323 S   0  0  0  0  0  0  0  0  0  0  0  0
   -3.5226    2.9219   -2.1021 H   0  0  0  0  0  0  0  0  0  0  0  0
   -4.9668    2.3251   -1.2777 H   0  0  0  0  0  0  0  0  0  0  0  0
   -3.8782    3.5290   -0.4809 H   0  0  0  0  0  0  0  0  0  0  0  0
   -5.2321    2.2943    1.0277 H   0  0  0  0  0  0  0  0  0  0  0  0
   -5.6105    1.3968    3.2662 H   0  0  0  0  0  0  0  0  0  0  0  0
   -4.0666   -0.2897    4.2261 H   0  0  0  0  0  0  0  0  0  0  0  0
   -2.1377   -1.0880    2.9154 H   0  0  0  0  0  0  0  0  0  0  0  0
   -0.4564   -0.3550    1.0435 H   0  0  0  0  0  0  0  0  0  0  0  0
   -2.3577   -0.9318   -1.3297 H   0  0  0  0  0  0  0  0  0  0  0  0
   -0.3860   -1.7133   -2.4667 H   0  0  0  0  0  0  0  0  0  0  0  0
    4.1917    0.7208   -2.1838 H   0  0  0  0  0  0  0  0  0  0  0  0
    4.7804    2.6931   -0.8036 H   0  0  0  0  0  0  0  0  0  0  0  0
    3.7601    0.5143    2.7671 H   0  0  0  0  0  0  0  0  0  0  0  0
    3.8230   -3.9960   -3.2148 H   0  0  0  0  0  0  0  0  0  0  0  0
  1  2  1  0
  2  3  1  0
  3  4  2  0
  4  5  1  0
  5  6  2  0
  6  7  1  0
  7  8  2  0
  8  9  1  0
  9 10  2  3
 10 11  1  0
 11 12  2  3
 12 13  1  0
 13 14  1  0
 14 15  1  0
 15 16  2  0
 16 17  1  0
 17 18  2  0
 18 19  1  0
 18 20  1  0
 20 21  2  0
 21 22  1  0
 14 23  2  0
 23 24  1  0
 24 25  1  0
 25 26  2  0
  8  3  1  0
 25 13  1  0
 21 15  1  0
  1 27  1  0
  1 28  1  0
  1 29  1  0
  4 30  1  0
  5 31  1  0
  6 32  1  0
  7 33  1  0
  9 34  1  0
 10 35  1  0
 11 36  1  0
 16 37  1  0
 17 38  1  0
 20 39  1  0
 24 40  1  0
M  END
$$$$
