
     RDKit          3D

 43 45  0  0  0  0  0  0  0  0999 V2000
    5.3961   -0.1766   -2.6322 C   0  0  0  0  0  0  0  0  0  0  0  0
    4.7755    0.0240   -1.2591 C   0  0  0  0  0  0  0  0  0  0  0  0
    3.8937    1.2731   -1.2212 C   0  0  0  0  0  0  0  0  0  0  0  0
    3.3299    1.5809    0.1691 C   0  0  0  0  0  0  0  0  0  0  0  0
    2.4429    0.5496    0.7004 N   0  0  0  0  0  0  0  0  0  0  0  0
    1.1535    0.3687    0.0552 C   0  0  0  0  0  0  0  0  0  0  0  0
    0.2198   -0.5116    0.8140 C   0  0  0  0  0  0  0  0  0  0  0  0
   -1.1515   -0.5713    0.5411 C   0  0  0  0  0  0  0  0  0  0  0  0
   -1.9491   -1.4729    1.2484 C   0  0  0  0  0  0  0  0  0  0  0  0
   -3.4024   -1.6264    1.0210 C   0  0  0  0  0  0  0  0  0  0  0  0
   -3.9309   -2.7146    1.2376 O   0  0  0  0  0  0  0  0  0  0  0  0
   -4.2446   -0.5261    0.5012 C   0  0  0  0  0  0  0  0  0  0  0  0
   -5.1719   -0.8421   -0.4985 C   0  0  0  0  0  0  0  0  0  0  0  0
   -6.0054    0.1519   -0.9947 C   0  0  0  0  0  0  0  0  0  0  0  0
   -6.8872   -0.1453   -1.9573 F   0  0  0  0  0  0  0  0  0  0  0  0
   -5.9411    1.4534   -0.5070 C   0  0  0  0  0  0  0  0  0  0  0  0
   -5.0343    1.7703    0.5056 C   0  0  0  0  0  0  0  0  0  0  0  0
   -4.1931    0.7776    1.0137 C   0  0  0  0  0  0  0  0  0  0  0  0
   -3.3373    1.0818    2.0339 O   0  0  0  0  0  0  0  0  0  0  0  0
   -1.3254   -2.3083    2.1671 C   0  0  0  0  0  0  0  0  0  0  0  0
    0.0021   -2.2740    2.4436 N   0  0  0  0  0  0  0  0  0  0  0  0
    0.7371   -1.3713    1.7667 C   0  0  0  0  0  0  0  0  0  0  0  0
    2.0853   -1.3150    2.0554 N   0  0  0  0  0  0  0  0  0  0  0  0
    2.9498   -0.3777    1.5899 C   0  0  0  0  0  0  0  0  0  0  0  0
    4.1131   -0.3717    1.9884 O   0  0  0  0  0  0  0  0  0  0  0  0
    6.0070   -1.0853   -2.6455 H   0  0  0  0  0  0  0  0  0  0  0  0
    4.6231   -0.2759   -3.3999 H   0  0  0  0  0  0  0  0  0  0  0  0
    6.0394    0.6667   -2.8975 H   0  0  0  0  0  0  0  0  0  0  0  0
    4.1841   -0.8632   -1.0099 H   0  0  0  0  0  0  0  0  0  0  0  0
    5.5754    0.1069   -0.5150 H   0  0  0  0  0  0  0  0  0  0  0  0
    3.0747    1.1645   -1.9408 H   0  0  0  0  0  0  0  0  0  0  0  0
    4.4836    2.1385   -1.5472 H   0  0  0  0  0  0  0  0  0  0  0  0
    2.7562    2.5146    0.1295 H   0  0  0  0  0  0  0  0  0  0  0  0
    4.1575    1.7538    0.8673 H   0  0  0  0  0  0  0  0  0  0  0  0
    0.7018    1.3588   -0.0727 H   0  0  0  0  0  0  0  0  0  0  0  0
    1.3311   -0.0725   -0.9307 H   0  0  0  0  0  0  0  0  0  0  0  0
   -1.5784    0.0724   -0.2217 H   0  0  0  0  0  0  0  0  0  0  0  0
   -5.2538   -1.8538   -0.8855 H   0  0  0  0  0  0  0  0  0  0  0  0
   -6.6082    2.2088   -0.9120 H   0  0  0  0  0  0  0  0  0  0  0  0
   -5.0078    2.7866    0.8899 H   0  0  0  0  0  0  0  0  0  0  0  0
   -3.5520    1.9622    2.3896 H   0  0  0  0  0  0  0  0  0  0  0  0
   -1.8894   -3.0509    2.7270 H   0  0  0  0  0  0  0  0  0  0  0  0
    2.4311   -1.9587    2.7509 H   0  0  0  0  0  0  0  0  0  0  0  0
  1  2  1  0
  2  3  1  0
  3  4  1  0
  4  5  1  0
  5  6  1  0
  6  7  1  0
  7  8  2  0
  8  9  1  0
  9 10  1  0
 10 11  2  0
 10 12  1  0
 12 13  2  0
 13 14  1  0
 14 15  1  0
 14 16  2  0
 16 17  1  0
 17 18  2  0
 18 19  1  0
  9 20  2  0
 20 21  1  0
 21 22  2  0
 22 23  1  0
 23 24  1  0
 24 25  2  0
 24  5  1  0
 22  7  1  0
 18 12  1  0
  1 26  1  0
  1 27  1  0
  1 28  1  0
  2 29  1  0
  2 30  1  0
  3 31  1  0
  3 32  1  0
  4 33  1  0
  4 34  1  0
  6 35  1  0
  6 36  1  0
  8 37  1  0
 13 38  1  0
 16 39  1  0
 17 40  1  0
 19 41  1  0
 20 42  1  0
 23 43  1  0
M  END
$$$$
