
     RDKit          3D

 52 53  0  0  0  0  0  0  0  0999 V2000
    7.3404    1.3638   -1.8723 C   0  0  0  0  0  0  0  0  0  0  0  0
    5.9740    1.3322   -1.4754 O   0  0  0  0  0  0  0  0  0  0  0  0
    5.6366    0.4308   -0.5038 C   0  0  0  0  0  0  0  0  0  0  0  0
    6.5202   -0.3942    0.1879 C   0  0  0  0  0  0  0  0  0  0  0  0
    6.0355   -1.2791    1.1528 C   0  0  0  0  0  0  0  0  0  0  0  0
    4.6683   -1.3368    1.4377 C   0  0  0  0  0  0  0  0  0  0  0  0
    3.7740   -0.5085    0.7625 C   0  0  0  0  0  0  0  0  0  0  0  0
    2.3872   -0.4872    0.9989 N   0  0  0  0  0  0  0  0  0  0  0  0
    1.6550   -1.2695    1.8763 C   0  0  0  0  0  0  0  0  0  0  0  0
    2.0882   -2.1675    2.5940 O   0  0  0  0  0  0  0  0  0  0  0  0
    0.1666   -0.8998    1.8839 C   0  0  0  0  0  0  0  0  0  0  0  0
   -0.5179   -1.3283    0.6650 N   0  0  0  0  0  0  0  0  0  0  0  0
   -0.9583   -2.7141    0.6084 C   0  0  0  0  0  0  0  0  0  0  0  0
   -0.4150   -0.5102   -0.4469 C   0  0  0  0  0  0  0  0  0  0  0  0
    0.2148    0.5452   -0.4455 O   0  0  0  0  0  0  0  0  0  0  0  0
   -1.0389   -0.9922   -1.6960 C   0  0  0  0  0  0  0  0  0  0  0  0
   -2.2990   -0.6736   -2.0391 C   0  0  0  0  0  0  0  0  0  0  0  0
   -3.1984    0.1857   -1.2569 C   0  0  0  0  0  0  0  0  0  0  0  0
   -2.9451    1.5647   -1.2120 C   0  0  0  0  0  0  0  0  0  0  0  0
   -3.7789    2.4253   -0.5019 C   0  0  0  0  0  0  0  0  0  0  0  0
   -3.4182    3.7437   -0.5445 O   0  0  0  0  0  0  0  0  0  0  0  0
   -4.1318    4.6356    0.3015 C   0  0  0  0  0  0  0  0  0  0  0  0
   -4.8874    1.9019    0.1565 C   0  0  0  0  0  0  0  0  0  0  0  0
   -5.1508    0.5273    0.1167 C   0  0  0  0  0  0  0  0  0  0  0  0
   -4.3123   -0.3415   -0.5843 C   0  0  0  0  0  0  0  0  0  0  0  0
   -4.4862   -1.6999   -0.6716 O   0  0  0  0  0  0  0  0  0  0  0  0
   -5.5807   -2.2609    0.0409 C   0  0  0  0  0  0  0  0  0  0  0  0
    4.2699    0.3714   -0.2081 C   0  0  0  0  0  0  0  0  0  0  0  0
    7.9792    1.7123   -1.0535 H   0  0  0  0  0  0  0  0  0  0  0  0
    7.6690    0.3857   -2.2414 H   0  0  0  0  0  0  0  0  0  0  0  0
    7.4328    2.0773   -2.6966 H   0  0  0  0  0  0  0  0  0  0  0  0
    7.5863   -0.3779    0.0023 H   0  0  0  0  0  0  0  0  0  0  0  0
    6.7241   -1.9296    1.6887 H   0  0  0  0  0  0  0  0  0  0  0  0
    4.3362   -2.0405    2.1953 H   0  0  0  0  0  0  0  0  0  0  0  0
    1.8418    0.1686    0.4344 H   0  0  0  0  0  0  0  0  0  0  0  0
   -0.3200   -1.3529    2.7561 H   0  0  0  0  0  0  0  0  0  0  0  0
    0.0756    0.1880    1.9996 H   0  0  0  0  0  0  0  0  0  0  0  0
   -1.3091   -3.0321    1.5932 H   0  0  0  0  0  0  0  0  0  0  0  0
   -1.7756   -2.8469   -0.1059 H   0  0  0  0  0  0  0  0  0  0  0  0
   -0.1135   -3.3362    0.3005 H   0  0  0  0  0  0  0  0  0  0  0  0
   -0.4251   -1.6276   -2.3152 H   0  0  0  0  0  0  0  0  0  0  0  0
   -2.7318   -1.0769   -2.9499 H   0  0  0  0  0  0  0  0  0  0  0  0
   -2.0833    1.9765   -1.7290 H   0  0  0  0  0  0  0  0  0  0  0  0
   -3.6997    5.6335    0.1804 H   0  0  0  0  0  0  0  0  0  0  0  0
   -5.1872    4.6953    0.0145 H   0  0  0  0  0  0  0  0  0  0  0  0
   -4.0241    4.3502    1.3542 H   0  0  0  0  0  0  0  0  0  0  0  0
   -5.5728    2.5368    0.7057 H   0  0  0  0  0  0  0  0  0  0  0  0
   -6.0303    0.1733    0.6414 H   0  0  0  0  0  0  0  0  0  0  0  0
   -5.5543   -3.3437   -0.1105 H   0  0  0  0  0  0  0  0  0  0  0  0
   -6.5365   -1.8909   -0.3493 H   0  0  0  0  0  0  0  0  0  0  0  0
   -5.4872   -2.0766    1.1153 H   0  0  0  0  0  0  0  0  0  0  0  0
    3.5938    1.0224   -0.7549 H   0  0  0  0  0  0  0  0  0  0  0  0
  1  2  1  0
  2  3  1  0
  3  4  2  0
  4  5  1  0
  5  6  2  0
  6  7  1  0
  7  8  1  0
  8  9  1  0
  9 10  2  0
  9 11  1  0
 11 12  1  0
 12 13  1  0
 12 14  1  0
 14 15  2  0
 14 16  1  0
 16 17  2  3
 17 18  1  0
 18 19  2  0
 19 20  1  0
 20 21  1  0
 21 22  1  0
 20 23  2  0
 23 24  1  0
 24 25  2  0
 25 26  1  0
 26 27  1  0
  7 28  2  0
 28  3  1  0
 25 18  1  0
  1 29  1  0
  1 30  1  0
  1 31  1  0
  4 32  1  0
  5 33  1  0
  6 34  1  0
  8 35  1  0
 11 36  1  0
 11 37  1  0
 13 38  1  0
 13 39  1  0
 13 40  1  0
 16 41  1  0
 17 42  1  0
 19 43  1  0
 22 44  1  0
 22 45  1  0
 22 46  1  0
 23 47  1  0
 24 48  1  0
 27 49  1  0
 27 50  1  0
 27 51  1  0
 28 52  1  0
M  END
$$$$
