
     RDKit          3D

 48 48  0  0  0  0  0  0  0  0999 V2000
   -7.5687   -0.3819   -1.0624 C   0  0  0  0  0  0  0  0  0  0  0  0
   -7.4486   -0.4296    0.4529 C   0  0  0  0  0  0  0  0  0  0  0  0
   -6.3093    0.4309    1.0037 C   0  0  0  0  0  0  0  0  0  0  0  0
   -4.9204   -0.0633    0.5891 C   0  0  0  0  0  0  0  0  0  0  0  0
   -3.8188    0.7699    1.2502 C   0  0  0  0  0  0  0  0  0  0  0  0
   -2.4052    0.2507    0.9662 C   0  0  0  0  0  0  0  0  0  0  0  0
   -1.9874    0.3972   -0.4994 C   0  0  0  0  0  0  0  0  0  0  0  0
   -0.5730   -0.1194   -0.7812 C   0  0  0  0  0  0  0  0  0  0  0  0
    0.5234    0.7085   -0.1120 C   0  0  0  0  0  0  0  0  0  0  0  0
    1.9165    0.2521   -0.5147 C   0  0  0  0  0  0  0  0  0  0  0  0
    2.1223   -0.6809   -1.2846 O   0  0  0  0  0  0  0  0  0  0  0  0
    2.9055    1.0144    0.1176 N   0  0  0  0  0  0  0  0  0  0  0  0
    4.2073    0.9484   -0.3046 N   0  0  0  0  0  0  0  0  0  0  0  0
    4.8668   -0.1667   -0.1472 C   0  0  0  0  0  0  0  0  0  0  0  0
    4.3542   -1.3684    0.6257 C   0  0  0  0  0  0  0  0  0  0  0  0
    6.2373   -0.2601   -0.7327 C   0  0  0  0  0  0  0  0  0  0  0  0
    6.9439    0.8980   -1.0683 C   0  0  0  0  0  0  0  0  0  0  0  0
    8.2218    0.7937   -1.6143 C   0  0  0  0  0  0  0  0  0  0  0  0
    8.7515   -0.4711   -1.8105 C   0  0  0  0  0  0  0  0  0  0  0  0
    8.0970   -1.6128   -1.5069 N   0  0  0  0  0  0  0  0  0  0  0  0
    6.8516   -1.4812   -0.9839 C   0  0  0  0  0  0  0  0  0  0  0  0
   -7.6626    0.6492   -1.4173 H   0  0  0  0  0  0  0  0  0  0  0  0
   -6.7017   -0.8385   -1.5485 H   0  0  0  0  0  0  0  0  0  0  0  0
   -8.4574   -0.9336   -1.3858 H   0  0  0  0  0  0  0  0  0  0  0  0
   -8.3913   -0.0760    0.8876 H   0  0  0  0  0  0  0  0  0  0  0  0
   -7.3213   -1.4692    0.7763 H   0  0  0  0  0  0  0  0  0  0  0  0
   -6.3790    0.4290    2.0986 H   0  0  0  0  0  0  0  0  0  0  0  0
   -6.4438    1.4703    0.6804 H   0  0  0  0  0  0  0  0  0  0  0  0
   -4.8224   -0.0046   -0.4992 H   0  0  0  0  0  0  0  0  0  0  0  0
   -4.8055   -1.1161    0.8733 H   0  0  0  0  0  0  0  0  0  0  0  0
   -3.9705    0.7629    2.3369 H   0  0  0  0  0  0  0  0  0  0  0  0
   -3.8994    1.8149    0.9272 H   0  0  0  0  0  0  0  0  0  0  0  0
   -1.7132    0.8143    1.6019 H   0  0  0  0  0  0  0  0  0  0  0  0
   -2.3313   -0.8003    1.2704 H   0  0  0  0  0  0  0  0  0  0  0  0
   -2.0626    1.4480   -0.8040 H   0  0  0  0  0  0  0  0  0  0  0  0
   -2.6777   -0.1676   -1.1358 H   0  0  0  0  0  0  0  0  0  0  0  0
   -0.4919   -1.1676   -0.4673 H   0  0  0  0  0  0  0  0  0  0  0  0
   -0.4169   -0.1103   -1.8676 H   0  0  0  0  0  0  0  0  0  0  0  0
    0.4141    1.7628   -0.3920 H   0  0  0  0  0  0  0  0  0  0  0  0
    0.4503    0.6298    0.9780 H   0  0  0  0  0  0  0  0  0  0  0  0
    2.6229    1.9636    0.3454 H   0  0  0  0  0  0  0  0  0  0  0  0
    3.6025   -1.0770    1.3636 H   0  0  0  0  0  0  0  0  0  0  0  0
    5.1696   -1.8412    1.1818 H   0  0  0  0  0  0  0  0  0  0  0  0
    3.9241   -2.0987   -0.0645 H   0  0  0  0  0  0  0  0  0  0  0  0
    6.5069    1.8802   -0.9073 H   0  0  0  0  0  0  0  0  0  0  0  0
    8.7882    1.6788   -1.8815 H   0  0  0  0  0  0  0  0  0  0  0  0
    9.7437   -0.6037   -2.2328 H   0  0  0  0  0  0  0  0  0  0  0  0
    6.3584   -2.4278   -0.7856 H   0  0  0  0  0  0  0  0  0  0  0  0
  1  2  1  0
  2  3  1  0
  3  4  1  0
  4  5  1  0
  5  6  1  0
  6  7  1  0
  7  8  1  0
  8  9  1  0
  9 10  1  0
 10 11  2  0
 10 12  1  0
 12 13  1  0
 13 14  2  3
 14 15  1  0
 14 16  1  0
 16 17  2  0
 17 18  1  0
 18 19  2  0
 19 20  1  0
 20 21  2  0
 21 16  1  0
  1 22  1  0
  1 23  1  0
  1 24  1  0
  2 25  1  0
  2 26  1  0
  3 27  1  0
  3 28  1  0
  4 29  1  0
  4 30  1  0
  5 31  1  0
  5 32  1  0
  6 33  1  0
  6 34  1  0
  7 35  1  0
  7 36  1  0
  8 37  1  0
  8 38  1  0
  9 39  1  0
  9 40  1  0
 12 41  1  0
 15 42  1  0
 15 43  1  0
 15 44  1  0
 17 45  1  0
 18 46  1  0
 19 47  1  0
 21 48  1  0
M  END
$$$$
