
     RDKit          3D

 42 44  0  0  0  0  0  0  0  0999 V2000
   -5.1881    3.3077   -1.7130 C   0  0  0  0  0  0  0  0  0  0  0  0
   -3.8397    3.1050   -1.3154 O   0  0  0  0  0  0  0  0  0  0  0  0
   -3.3943    1.8190   -1.1766 C   0  0  0  0  0  0  0  0  0  0  0  0
   -2.0458    1.7444   -0.8016 C   0  0  0  0  0  0  0  0  0  0  0  0
   -1.4014    0.5143   -0.6112 C   0  0  0  0  0  0  0  0  0  0  0  0
    0.0279    0.5222   -0.2555 C   0  0  0  0  0  0  0  0  0  0  0  0
    0.6383   -0.1818    0.7219 C   0  0  0  0  0  0  0  0  0  0  0  0
   -0.0858   -1.0449    1.5999 C   0  0  0  0  0  0  0  0  0  0  0  0
   -0.6434   -1.8034    2.2796 N   0  0  0  0  0  0  0  0  0  0  0  0
    2.0402    0.0421    0.9030 C   0  0  0  0  0  0  0  0  0  0  0  0
    2.6866    1.1931    0.8188 N   0  0  0  0  0  0  0  0  0  0  0  0
    3.9968    0.9281    1.1126 C   0  0  0  0  0  0  0  0  0  0  0  0
    5.0860    1.8077    1.1963 C   0  0  0  0  0  0  0  0  0  0  0  0
    6.3455    1.2909    1.5201 C   0  0  0  0  0  0  0  0  0  0  0  0
    6.5160   -0.0736    1.7549 C   0  0  0  0  0  0  0  0  0  0  0  0
    5.4401   -0.9649    1.6723 C   0  0  0  0  0  0  0  0  0  0  0  0
    4.1869   -0.4281    1.3470 C   0  0  0  0  0  0  0  0  0  0  0  0
    2.9354   -0.9837    1.1705 N   0  0  0  0  0  0  0  0  0  0  0  0
    2.6699   -2.4051    1.2095 C   0  0  0  0  0  0  0  0  0  0  0  0
   -2.1183   -0.6694   -0.8238 C   0  0  0  0  0  0  0  0  0  0  0  0
   -3.4693   -0.6173   -1.1719 C   0  0  0  0  0  0  0  0  0  0  0  0
   -4.2786   -1.7099   -1.3812 O   0  0  0  0  0  0  0  0  0  0  0  0
   -3.7954   -2.9560   -0.8894 C   0  0  0  0  0  0  0  0  0  0  0  0
   -4.0983    0.6274   -1.3576 C   0  0  0  0  0  0  0  0  0  0  0  0
   -5.4227    0.6125   -1.7174 O   0  0  0  0  0  0  0  0  0  0  0  0
   -5.3786    2.8876   -2.7060 H   0  0  0  0  0  0  0  0  0  0  0  0
   -5.3501    4.3879   -1.7850 H   0  0  0  0  0  0  0  0  0  0  0  0
   -5.8869    2.9260   -0.9617 H   0  0  0  0  0  0  0  0  0  0  0  0
   -1.4971    2.6746   -0.6558 H   0  0  0  0  0  0  0  0  0  0  0  0
    0.6209    1.2177   -0.8528 H   0  0  0  0  0  0  0  0  0  0  0  0
    4.9437    2.8672    1.0155 H   0  0  0  0  0  0  0  0  0  0  0  0
    7.1969    1.9632    1.5908 H   0  0  0  0  0  0  0  0  0  0  0  0
    7.5044   -0.4529    2.0074 H   0  0  0  0  0  0  0  0  0  0  0  0
    5.5849   -2.0235    1.8600 H   0  0  0  0  0  0  0  0  0  0  0  0
    3.5823   -2.9568    0.9720 H   0  0  0  0  0  0  0  0  0  0  0  0
    1.9166   -2.6585    0.4589 H   0  0  0  0  0  0  0  0  0  0  0  0
    2.3307   -2.6623    2.2157 H   0  0  0  0  0  0  0  0  0  0  0  0
   -1.6119   -1.6234   -0.7280 H   0  0  0  0  0  0  0  0  0  0  0  0
   -2.9592   -3.3152   -1.4967 H   0  0  0  0  0  0  0  0  0  0  0  0
   -4.6067   -3.6852   -0.9749 H   0  0  0  0  0  0  0  0  0  0  0  0
   -3.5176   -2.8893    0.1679 H   0  0  0  0  0  0  0  0  0  0  0  0
   -5.6614   -0.3332   -1.7774 H   0  0  0  0  0  0  0  0  0  0  0  0
  1  2  1  0
  2  3  1  0
  3  4  2  0
  4  5  1  0
  5  6  1  0
  6  7  2  3
  7  8  1  0
  8  9  3  0
  7 10  1  0
 10 11  2  0
 11 12  1  0
 12 13  2  0
 13 14  1  0
 14 15  2  0
 15 16  1  0
 16 17  2  0
 17 18  1  0
 18 19  1  0
  5 20  2  0
 20 21  1  0
 21 22  1  0
 22 23  1  0
 21 24  2  0
 24 25  1  0
 24  3  1  0
 18 10  1  0
 17 12  1  0
  1 26  1  0
  1 27  1  0
  1 28  1  0
  4 29  1  0
  6 30  1  0
 13 31  1  0
 14 32  1  0
 15 33  1  0
 16 34  1  0
 19 35  1  0
 19 36  1  0
 19 37  1  0
 20 38  1  0
 23 39  1  0
 23 40  1  0
 23 41  1  0
 25 42  1  0
M  END
$$$$
