
     RDKit          3D

 51 53  0  0  0  0  0  0  0  0999 V2000
   -2.2770    6.0124   -2.1195 C   0  0  0  0  0  0  0  0  0  0  0  0
   -2.0031    5.7357   -0.6467 C   0  0  0  0  0  0  0  0  0  0  0  0
   -1.4063    4.3534   -0.3776 C   0  0  0  0  0  0  0  0  0  0  0  0
   -2.5972    3.0138   -0.7281 S   0  0  0  0  0  0  0  0  0  0  0  0
   -1.6065    1.5758   -0.3424 C   0  0  0  0  0  0  0  0  0  0  0  0
   -2.1641    0.3283   -0.5204 C   0  0  0  0  0  0  0  0  0  0  0  0
   -1.3808   -0.7699   -0.2285 C   0  0  0  0  0  0  0  0  0  0  0  0
   -1.8699   -2.0624   -0.3737 N   0  0  0  0  0  0  0  0  0  0  0  0
   -1.0097   -3.1550    0.1067 C   0  0  0  0  0  0  0  0  0  0  0  0
   -1.7588   -4.5054    0.0284 C   0  0  0  0  0  0  0  0  0  0  0  0
   -2.2756   -4.8692   -1.3098 N   0  0  0  0  0  0  0  0  0  0  0  0
   -1.4996   -5.9458   -1.9185 C   0  0  0  0  0  0  0  0  0  0  0  0
   -2.3318   -3.6964   -2.2061 C   0  0  0  0  0  0  0  0  0  0  0  0
   -2.7606   -2.3871   -1.5024 C   0  0  0  0  0  0  0  0  0  0  0  0
   -0.1345   -0.6021    0.2454 N   0  0  0  0  0  0  0  0  0  0  0  0
    0.3364    0.6502    0.3934 C   0  0  0  0  0  0  0  0  0  0  0  0
    1.7134    0.8117    0.9059 C   0  0  0  0  0  0  0  0  0  0  0  0
    2.2975    2.0811    1.0649 C   0  0  0  0  0  0  0  0  0  0  0  0
    3.6023    2.2295    1.5509 C   0  0  0  0  0  0  0  0  0  0  0  0
    4.3658    1.1147    1.8939 C   0  0  0  0  0  0  0  0  0  0  0  0
    5.6208    1.3982    2.3549 O   0  0  0  0  0  0  0  0  0  0  0  0
    6.4344    0.2917    2.7235 C   0  0  0  0  0  0  0  0  0  0  0  0
    3.8114   -0.1537    1.7452 C   0  0  0  0  0  0  0  0  0  0  0  0
    2.5040   -0.2988    1.2580 C   0  0  0  0  0  0  0  0  0  0  0  0
   -0.3582    1.7600    0.1049 N   0  0  0  0  0  0  0  0  0  0  0  0
   -1.3740    5.8665   -2.7210 H   0  0  0  0  0  0  0  0  0  0  0  0
   -3.0650    5.3638   -2.5134 H   0  0  0  0  0  0  0  0  0  0  0  0
   -2.6056    7.0485   -2.2511 H   0  0  0  0  0  0  0  0  0  0  0  0
   -2.9239    5.8754   -0.0679 H   0  0  0  0  0  0  0  0  0  0  0  0
   -1.2921    6.4897   -0.2864 H   0  0  0  0  0  0  0  0  0  0  0  0
   -1.1177    4.2950    0.6773 H   0  0  0  0  0  0  0  0  0  0  0  0
   -0.5071    4.2147   -0.9884 H   0  0  0  0  0  0  0  0  0  0  0  0
   -3.1864    0.2216   -0.8563 H   0  0  0  0  0  0  0  0  0  0  0  0
   -0.7294   -2.9836    1.1534 H   0  0  0  0  0  0  0  0  0  0  0  0
   -0.0893   -3.2109   -0.4890 H   0  0  0  0  0  0  0  0  0  0  0  0
   -1.1221   -5.2974    0.4421 H   0  0  0  0  0  0  0  0  0  0  0  0
   -2.6301   -4.4469    0.6940 H   0  0  0  0  0  0  0  0  0  0  0  0
   -0.4478   -5.6705   -2.0559 H   0  0  0  0  0  0  0  0  0  0  0  0
   -1.9170   -6.2174   -2.8945 H   0  0  0  0  0  0  0  0  0  0  0  0
   -1.5423   -6.8476   -1.2977 H   0  0  0  0  0  0  0  0  0  0  0  0
   -1.3495   -3.5231   -2.6679 H   0  0  0  0  0  0  0  0  0  0  0  0
   -3.0360   -3.9066   -3.0198 H   0  0  0  0  0  0  0  0  0  0  0  0
   -3.7846   -2.4877   -1.1231 H   0  0  0  0  0  0  0  0  0  0  0  0
   -2.7647   -1.5959   -2.2620 H   0  0  0  0  0  0  0  0  0  0  0  0
    1.7350    2.9774    0.8091 H   0  0  0  0  0  0  0  0  0  0  0  0
    4.0232    3.2259    1.6617 H   0  0  0  0  0  0  0  0  0  0  0  0
    5.9850   -0.2724    3.5475 H   0  0  0  0  0  0  0  0  0  0  0  0
    7.3939    0.6845    3.0742 H   0  0  0  0  0  0  0  0  0  0  0  0
    6.6341   -0.3552    1.8625 H   0  0  0  0  0  0  0  0  0  0  0  0
    4.3618   -1.0539    1.9970 H   0  0  0  0  0  0  0  0  0  0  0  0
    2.0993   -1.3049    1.1538 H   0  0  0  0  0  0  0  0  0  0  0  0
  1  2  1  0
  2  3  1  0
  3  4  1  0
  4  5  1  0
  5  6  2  0
  6  7  1  0
  7  8  1  0
  8  9  1  0
  9 10  1  0
 10 11  1  0
 11 12  1  0
 11 13  1  0
 13 14  1  0
  7 15  2  0
 15 16  1  0
 16 17  1  0
 17 18  2  0
 18 19  1  0
 19 20  2  0
 20 21  1  0
 21 22  1  0
 20 23  1  0
 23 24  2  0
 16 25  2  0
 25  5  1  0
 14  8  1  0
 24 17  1  0
  1 26  1  0
  1 27  1  0
  1 28  1  0
  2 29  1  0
  2 30  1  0
  3 31  1  0
  3 32  1  0
  6 33  1  0
  9 34  1  0
  9 35  1  0
 10 36  1  0
 10 37  1  0
 12 38  1  0
 12 39  1  0
 12 40  1  0
 13 41  1  0
 13 42  1  0
 14 43  1  0
 14 44  1  0
 18 45  1  0
 19 46  1  0
 22 47  1  0
 22 48  1  0
 22 49  1  0
 23 50  1  0
 24 51  1  0
M  END
$$$$
