
     RDKit          3D

 64 67  0  0  0  0  0  0  0  0999 V2000
   -3.3307    0.4401   -1.7544 C   0  0  0  0  0  0  0  0  0  0  0  0
   -3.2537    0.5015   -0.3285 O   0  0  0  0  0  0  0  0  0  0  0  0
   -2.5769    1.6241    0.0820 C   0  0  0  0  0  0  0  0  0  0  0  0
   -3.1902    2.8751   -0.0827 C   0  0  0  0  0  0  0  0  0  0  0  0
   -2.5486    4.0396    0.3370 C   0  0  0  0  0  0  0  0  0  0  0  0
   -3.0733    5.3016    0.2110 O   0  0  0  0  0  0  0  0  0  0  0  0
   -4.4290    5.4113   -0.2098 C   0  0  0  0  0  0  0  0  0  0  0  0
   -1.2755    3.9419    0.9229 C   0  0  0  0  0  0  0  0  0  0  0  0
   -0.5347    5.1207    1.3708 C   0  0  0  0  0  0  0  0  0  0  0  0
    0.6744    4.9993    1.9221 C   0  0  0  0  0  0  0  0  0  0  0  0
    1.3173    3.6935    2.1074 C   0  0  0  0  0  0  0  0  0  0  0  0
    2.4305    3.6003    2.6092 O   0  0  0  0  0  0  0  0  0  0  0  0
    0.5964    2.5886    1.6865 O   0  0  0  0  0  0  0  0  0  0  0  0
   -0.6921    2.6759    1.1000 C   0  0  0  0  0  0  0  0  0  0  0  0
   -1.3289    1.4831    0.7128 C   0  0  0  0  0  0  0  0  0  0  0  0
   -0.7296    0.0806    0.9080 C   0  0  0  0  0  0  0  0  0  0  0  0
    0.0400   -0.1208    2.2414 C   0  0  0  0  0  0  0  0  0  0  0  0
   -0.1178   -1.5272    2.8559 C   0  0  0  0  0  0  0  0  0  0  0  0
    0.4386   -2.6342    2.0726 N   0  0  0  0  0  0  0  0  0  0  0  0
    1.9119   -2.5568    1.9629 C   0  0  0  0  0  0  0  0  0  0  0  0
    2.4291   -3.9578    2.2544 C   0  0  0  0  0  0  0  0  0  0  0  0
    1.4091   -4.4792    3.2393 C   0  0  0  0  0  0  0  0  0  0  0  0
    0.1082   -3.9385    2.6689 C   0  0  0  0  0  0  0  0  0  0  0  0
    0.0669   -0.3701   -0.3146 C   0  0  0  0  0  0  0  0  0  0  0  0
   -0.3606   -1.4714   -1.0609 C   0  0  0  0  0  0  0  0  0  0  0  0
    0.3559   -1.9081   -2.1854 C   0  0  0  0  0  0  0  0  0  0  0  0
    1.5357   -1.2807   -2.6155 C   0  0  0  0  0  0  0  0  0  0  0  0
    2.2477   -1.7115   -3.7435 N   0  0  0  0  0  0  0  0  0  0  0  0
    3.6428   -1.2923   -3.8815 C   0  0  0  0  0  0  0  0  0  0  0  0
    1.9229   -3.0103   -4.3259 C   0  0  0  0  0  0  0  0  0  0  0  0
    1.9336   -0.1625   -1.8648 C   0  0  0  0  0  0  0  0  0  0  0  0
    1.2260    0.2814   -0.7359 C   0  0  0  0  0  0  0  0  0  0  0  0
   -4.2236    0.9657   -2.1059 H   0  0  0  0  0  0  0  0  0  0  0  0
   -3.4202   -0.6096   -2.0328 H   0  0  0  0  0  0  0  0  0  0  0  0
   -2.4387    0.8471   -2.2463 H   0  0  0  0  0  0  0  0  0  0  0  0
   -4.1732    2.9014   -0.5358 H   0  0  0  0  0  0  0  0  0  0  0  0
   -5.0993    4.8682    0.4650 H   0  0  0  0  0  0  0  0  0  0  0  0
   -4.5481    5.0734   -1.2440 H   0  0  0  0  0  0  0  0  0  0  0  0
   -4.7043    6.4695   -0.1733 H   0  0  0  0  0  0  0  0  0  0  0  0
   -0.9854    6.0995    1.2443 H   0  0  0  0  0  0  0  0  0  0  0  0
    1.2375    5.8623    2.2545 H   0  0  0  0  0  0  0  0  0  0  0  0
   -1.5948   -0.5905    0.9962 H   0  0  0  0  0  0  0  0  0  0  0  0
   -0.3614    0.5671    2.9976 H   0  0  0  0  0  0  0  0  0  0  0  0
    1.1017    0.1226    2.1330 H   0  0  0  0  0  0  0  0  0  0  0  0
    0.3316   -1.5176    3.8570 H   0  0  0  0  0  0  0  0  0  0  0  0
   -1.1895   -1.6993    3.0092 H   0  0  0  0  0  0  0  0  0  0  0  0
    2.2295   -2.2263    0.9628 H   0  0  0  0  0  0  0  0  0  0  0  0
    2.3417   -1.8609    2.7035 H   0  0  0  0  0  0  0  0  0  0  0  0
    2.4244   -4.5643    1.3402 H   0  0  0  0  0  0  0  0  0  0  0  0
    3.4424   -3.9566    2.6679 H   0  0  0  0  0  0  0  0  0  0  0  0
    1.5906   -4.0605    4.2380 H   0  0  0  0  0  0  0  0  0  0  0  0
    1.4159   -5.5690    3.3106 H   0  0  0  0  0  0  0  0  0  0  0  0
   -0.2333   -4.5989    1.8585 H   0  0  0  0  0  0  0  0  0  0  0  0
   -0.6925   -3.9076    3.4199 H   0  0  0  0  0  0  0  0  0  0  0  0
   -1.2526   -2.0180   -0.7667 H   0  0  0  0  0  0  0  0  0  0  0  0
   -0.0440   -2.7700   -2.7071 H   0  0  0  0  0  0  0  0  0  0  0  0
    3.7220   -0.2057   -3.9984 H   0  0  0  0  0  0  0  0  0  0  0  0
    4.2410   -1.6151   -3.0213 H   0  0  0  0  0  0  0  0  0  0  0  0
    4.0991   -1.7254   -4.7785 H   0  0  0  0  0  0  0  0  0  0  0  0
    2.5515   -3.2155   -5.2010 H   0  0  0  0  0  0  0  0  0  0  0  0
    0.8888   -3.0361   -4.6866 H   0  0  0  0  0  0  0  0  0  0  0  0
    2.0812   -3.8186   -3.6036 H   0  0  0  0  0  0  0  0  0  0  0  0
    2.8145    0.4069   -2.1390 H   0  0  0  0  0  0  0  0  0  0  0  0
    1.6024    1.1448   -0.1978 H   0  0  0  0  0  0  0  0  0  0  0  0
  1  2  1  0
  2  3  1  0
  3  4  2  0
  4  5  1  0
  5  6  1  0
  6  7  1  0
  5  8  2  0
  8  9  1  0
  9 10  2  0
 10 11  1  0
 11 12  2  0
 11 13  1  0
 13 14  1  0
 14 15  2  0
 15 16  1  0
 16 17  1  0
 17 18  1  0
 18 19  1  0
 19 20  1  0
 20 21  1  0
 21 22  1  0
 22 23  1  0
 16 24  1  0
 24 25  2  0
 25 26  1  0
 26 27  2  0
 27 28  1  0
 28 29  1  0
 28 30  1  0
 27 31  1  0
 31 32  2  0
 15  3  1  0
 23 19  1  0
 32 24  1  0
 14  8  1  0
  1 33  1  0
  1 34  1  0
  1 35  1  0
  4 36  1  0
  7 37  1  0
  7 38  1  0
  7 39  1  0
  9 40  1  0
 10 41  1  0
 16 42  1  0
 17 43  1  0
 17 44  1  0
 18 45  1  0
 18 46  1  0
 20 47  1  0
 20 48  1  0
 21 49  1  0
 21 50  1  0
 22 51  1  0
 22 52  1  0
 23 53  1  0
 23 54  1  0
 25 55  1  0
 26 56  1  0
 29 57  1  0
 29 58  1  0
 29 59  1  0
 30 60  1  0
 30 61  1  0
 30 62  1  0
 31 63  1  0
 32 64  1  0
M  END
$$$$
