
     RDKit          3D

 39 41  0  0  0  0  0  0  0  0999 V2000
    4.4353   -0.7727   -2.4553 C   0  0  0  0  0  0  0  0  0  0  0  0
    4.4953   -0.5280   -0.9925 C   0  0  0  0  0  0  0  0  0  0  0  0
    5.6646   -0.6152   -0.3445 N   0  0  0  0  0  0  0  0  0  0  0  0
    5.3526   -0.3265    0.9304 N   0  0  0  0  0  0  0  0  0  0  0  0
    6.3922   -0.3159    1.9300 C   0  0  0  0  0  0  0  0  0  0  0  0
    4.0300   -0.0697    1.1206 C   0  0  0  0  0  0  0  0  0  0  0  0
    3.4278   -0.1919   -0.1158 C   0  0  0  0  0  0  0  0  0  0  0  0
    2.0291   -0.0135   -0.4321 C   0  0  0  0  0  0  0  0  0  0  0  0
    1.2066    0.2979    0.5184 N   0  0  0  0  0  0  0  0  0  0  0  0
   -0.1170    0.4977    0.2005 N   0  0  0  0  0  0  0  0  0  0  0  0
   -0.5961    1.0425   -0.9858 C   0  0  0  0  0  0  0  0  0  0  0  0
    0.1013    1.3557   -1.9464 O   0  0  0  0  0  0  0  0  0  0  0  0
   -2.0459    1.2814   -0.9842 C   0  0  0  0  0  0  0  0  0  0  0  0
   -2.5848    2.3434   -1.6937 C   0  0  0  0  0  0  0  0  0  0  0  0
   -4.2785    2.4700   -1.5399 S   0  0  0  0  0  0  0  0  0  0  0  0
   -4.3428    1.0784   -0.5687 C   0  0  0  0  0  0  0  0  0  0  0  0
   -3.0969    0.5158   -0.3457 C   0  0  0  0  0  0  0  0  0  0  0  0
   -2.9550   -0.7511    0.4555 C   0  0  0  0  0  0  0  0  0  0  0  0
   -4.2883   -1.5024    0.5910 C   0  0  0  0  0  0  0  0  0  0  0  0
   -5.4270   -0.5522    0.9811 C   0  0  0  0  0  0  0  0  0  0  0  0
   -5.6512    0.5272   -0.0866 C   0  0  0  0  0  0  0  0  0  0  0  0
    4.0408    0.1074   -2.9731 H   0  0  0  0  0  0  0  0  0  0  0  0
    5.4251   -0.9921   -2.8689 H   0  0  0  0  0  0  0  0  0  0  0  0
    3.7821   -1.6239   -2.6722 H   0  0  0  0  0  0  0  0  0  0  0  0
    5.9608   -0.0632    2.9016 H   0  0  0  0  0  0  0  0  0  0  0  0
    7.1360    0.4327    1.6460 H   0  0  0  0  0  0  0  0  0  0  0  0
    6.8429   -1.3108    1.9693 H   0  0  0  0  0  0  0  0  0  0  0  0
    3.6233    0.1767    2.0916 H   0  0  0  0  0  0  0  0  0  0  0  0
    1.7325   -0.1887   -1.4786 H   0  0  0  0  0  0  0  0  0  0  0  0
   -0.7100    0.6006    1.0169 H   0  0  0  0  0  0  0  0  0  0  0  0
   -2.0461    3.0694   -2.2896 H   0  0  0  0  0  0  0  0  0  0  0  0
   -2.5927   -0.4931    1.4579 H   0  0  0  0  0  0  0  0  0  0  0  0
   -2.2163   -1.4148   -0.0073 H   0  0  0  0  0  0  0  0  0  0  0  0
   -4.5354   -1.9919   -0.3597 H   0  0  0  0  0  0  0  0  0  0  0  0
   -4.1865   -2.2933    1.3426 H   0  0  0  0  0  0  0  0  0  0  0  0
   -6.3541   -1.1171    1.1304 H   0  0  0  0  0  0  0  0  0  0  0  0
   -5.1846   -0.0762    1.9400 H   0  0  0  0  0  0  0  0  0  0  0  0
   -6.1845    0.0864   -0.9382 H   0  0  0  0  0  0  0  0  0  0  0  0
   -6.2845    1.3210    0.3257 H   0  0  0  0  0  0  0  0  0  0  0  0
  1  2  1  0
  2  3  2  0
  3  4  1  0
  4  5  1  0
  4  6  1  0
  6  7  2  0
  7  8  1  0
  8  9  2  3
  9 10  1  0
 10 11  1  0
 11 12  2  0
 11 13  1  0
 13 14  2  0
 14 15  1  0
 15 16  1  0
 16 17  2  0
 17 18  1  0
 18 19  1  0
 19 20  1  0
 20 21  1  0
  7  2  1  0
 17 13  1  0
 21 16  1  0
  1 22  1  0
  1 23  1  0
  1 24  1  0
  5 25  1  0
  5 26  1  0
  5 27  1  0
  6 28  1  0
  8 29  1  0
 10 30  1  0
 14 31  1  0
 18 32  1  0
 18 33  1  0
 19 34  1  0
 19 35  1  0
 20 36  1  0
 20 37  1  0
 21 38  1  0
 21 39  1  0
M  END
$$$$
