
     RDKit          3D

 61 65  0  0  0  0  0  0  0  0999 V2000
   -7.0460   -3.4159    2.0756 C   0  0  0  0  0  0  0  0  0  0  0  0
   -6.6424   -2.1193    1.4388 C   0  0  0  0  0  0  0  0  0  0  0  0
   -5.6588   -1.3148    2.0230 C   0  0  0  0  0  0  0  0  0  0  0  0
   -5.2619   -0.1236    1.4109 C   0  0  0  0  0  0  0  0  0  0  0  0
   -5.8402    0.2828    0.2006 C   0  0  0  0  0  0  0  0  0  0  0  0
   -5.4071    1.5647   -0.4651 C   0  0  0  0  0  0  0  0  0  0  0  0
   -4.4429    1.3171   -1.5163 N   0  0  0  0  0  0  0  0  0  0  0  0
   -4.8350    1.2021   -2.8107 N   0  0  0  0  0  0  0  0  0  0  0  0
   -3.7454    0.9895   -3.5486 N   0  0  0  0  0  0  0  0  0  0  0  0
   -2.6794    0.9964   -2.7042 C   0  0  0  0  0  0  0  0  0  0  0  0
   -1.2766    0.8170   -2.9568 C   0  0  0  0  0  0  0  0  0  0  0  0
   -0.7590    0.6132   -4.0494 O   0  0  0  0  0  0  0  0  0  0  0  0
   -0.5203    0.9000   -1.7934 N   0  0  0  0  0  0  0  0  0  0  0  0
   -1.0508    1.1439   -0.5306 C   0  0  0  0  0  0  0  0  0  0  0  0
   -0.0601    1.1929    0.6240 C   0  0  0  0  0  0  0  0  0  0  0  0
    0.5736   -0.1850    0.8363 C   0  0  0  0  0  0  0  0  0  0  0  0
    1.6262   -0.1501    1.9389 C   0  0  0  0  0  0  0  0  0  0  0  0
    2.5478    0.9981    1.7880 N   0  0  0  0  0  0  0  0  0  0  0  0
    4.1009    0.8208    2.4676 S   0  0  0  0  0  6  0  0  0  0  0  0
    3.9189    0.1397    3.7329 O   0  0  0  0  0  0  0  0  0  0  0  0
    4.7342    2.1227    2.4213 O   0  0  0  0  0  0  0  0  0  0  0  0
    4.9386   -0.2673    1.4031 C   0  0  0  0  0  0  0  0  0  0  0  0
    5.5881    0.2124    0.3333 C   0  0  0  0  0  0  0  0  0  0  0  0
    6.3272   -0.6286   -0.6155 C   0  0  0  0  0  0  0  0  0  0  0  0
    5.8755   -1.8972   -1.0046 C   0  0  0  0  0  0  0  0  0  0  0  0
    6.5935   -2.6494   -1.9379 C   0  0  0  0  0  0  0  0  0  0  0  0
    7.7632   -2.1375   -2.4975 C   0  0  0  0  0  0  0  0  0  0  0  0
    8.2145   -0.8720   -2.1288 C   0  0  0  0  0  0  0  0  0  0  0  0
    7.4969   -0.1191   -1.1968 C   0  0  0  0  0  0  0  0  0  0  0  0
    2.4230    1.7842    0.5500 C   0  0  0  0  0  0  0  0  0  0  0  0
    0.9902    2.3016    0.4374 C   0  0  0  0  0  0  0  0  0  0  0  0
   -2.3229    1.3119   -0.2925 N   0  0  0  0  0  0  0  0  0  0  0  0
   -3.0849    1.2209   -1.4106 C   0  0  0  0  0  0  0  0  0  0  0  0
   -6.8088   -0.5364   -0.3938 C   0  0  0  0  0  0  0  0  0  0  0  0
   -7.2034   -1.7278    0.2185 C   0  0  0  0  0  0  0  0  0  0  0  0
   -8.1107   -3.6132    1.9120 H   0  0  0  0  0  0  0  0  0  0  0  0
   -6.8832   -3.3897    3.1577 H   0  0  0  0  0  0  0  0  0  0  0  0
   -6.4623   -4.2388    1.6520 H   0  0  0  0  0  0  0  0  0  0  0  0
   -5.1930   -1.6119    2.9602 H   0  0  0  0  0  0  0  0  0  0  0  0
   -4.4914    0.4823    1.8839 H   0  0  0  0  0  0  0  0  0  0  0  0
   -6.2682    2.0839   -0.9021 H   0  0  0  0  0  0  0  0  0  0  0  0
   -4.9516    2.2532    0.2558 H   0  0  0  0  0  0  0  0  0  0  0  0
    0.4707    0.7797   -1.9358 H   0  0  0  0  0  0  0  0  0  0  0  0
   -0.6391    1.4364    1.5266 H   0  0  0  0  0  0  0  0  0  0  0  0
    1.0367   -0.5453   -0.0912 H   0  0  0  0  0  0  0  0  0  0  0  0
   -0.1999   -0.9207    1.0888 H   0  0  0  0  0  0  0  0  0  0  0  0
    2.1749   -1.0979    1.9266 H   0  0  0  0  0  0  0  0  0  0  0  0
    1.1329   -0.0606    2.9139 H   0  0  0  0  0  0  0  0  0  0  0  0
    4.9148   -1.3132    1.6719 H   0  0  0  0  0  0  0  0  0  0  0  0
    5.6203    1.2834    0.1390 H   0  0  0  0  0  0  0  0  0  0  0  0
    4.9586   -2.3156   -0.5974 H   0  0  0  0  0  0  0  0  0  0  0  0
    6.2381   -3.6343   -2.2312 H   0  0  0  0  0  0  0  0  0  0  0  0
    8.3213   -2.7230   -3.2232 H   0  0  0  0  0  0  0  0  0  0  0  0
    9.1261   -0.4692   -2.5659 H   0  0  0  0  0  0  0  0  0  0  0  0
    7.8694    0.8662   -0.9216 H   0  0  0  0  0  0  0  0  0  0  0  0
    3.0989    2.6444    0.5590 H   0  0  0  0  0  0  0  0  0  0  0  0
    2.6799    1.1675   -0.3181 H   0  0  0  0  0  0  0  0  0  0  0  0
    0.8683    2.8319   -0.5148 H   0  0  0  0  0  0  0  0  0  0  0  0
    0.8299    3.0572    1.2195 H   0  0  0  0  0  0  0  0  0  0  0  0
   -7.2574   -0.2571   -1.3455 H   0  0  0  0  0  0  0  0  0  0  0  0
   -7.9502   -2.3511   -0.2673 H   0  0  0  0  0  0  0  0  0  0  0  0
  1  2  1  0
  2  3  2  0
  3  4  1  0
  4  5  2  0
  5  6  1  0
  6  7  1  0
  7  8  1  0
  8  9  2  0
  9 10  1  0
 10 11  1  0
 11 12  2  0
 11 13  1  0
 13 14  1  0
 14 15  1  0
 15 16  1  0
 16 17  1  0
 17 18  1  0
 18 19  1  0
 19 20  2  0
 19 21  2  0
 19 22  1  0
 22 23  2  3
 23 24  1  0
 24 25  2  0
 25 26  1  0
 26 27  2  0
 27 28  1  0
 28 29  2  0
 18 30  1  0
 30 31  1  0
 14 32  2  0
 32 33  1  0
  5 34  1  0
 34 35  2  0
 35  2  1  0
 33  7  1  0
 33 10  2  0
 31 15  1  0
 29 24  1  0
  1 36  1  0
  1 37  1  0
  1 38  1  0
  3 39  1  0
  4 40  1  0
  6 41  1  0
  6 42  1  0
 13 43  1  0
 15 44  1  0
 16 45  1  0
 16 46  1  0
 17 47  1  0
 17 48  1  0
 22 49  1  0
 23 50  1  0
 25 51  1  0
 26 52  1  0
 27 53  1  0
 28 54  1  0
 29 55  1  0
 30 56  1  0
 30 57  1  0
 31 58  1  0
 31 59  1  0
 34 60  1  0
 35 61  1  0
M  END
$$$$
