
     RDKit          3D

 48 48  0  0  0  0  0  0  0  0999 V2000
   -7.7167   -0.7794    1.0913 C   0  0  0  0  0  0  0  0  0  0  0  0
   -6.2189   -0.5312    1.1862 C   0  0  0  0  0  0  0  0  0  0  0  0
   -5.6322   -0.1391   -0.1704 C   0  0  0  0  0  0  0  0  0  0  0  0
   -4.1455    0.2254   -0.1068 C   0  0  0  0  0  0  0  0  0  0  0  0
   -3.2491   -0.9565    0.2716 C   0  0  0  0  0  0  0  0  0  0  0  0
   -1.7540   -0.6529    0.1222 C   0  0  0  0  0  0  0  0  0  0  0  0
   -1.2601    0.4334    1.0813 C   0  0  0  0  0  0  0  0  0  0  0  0
    0.2638    0.5868    1.0862 C   0  0  0  0  0  0  0  0  0  0  0  0
    0.8260    1.0893   -0.2428 C   0  0  0  0  0  0  0  0  0  0  0  0
    2.3244    1.3324   -0.1779 C   0  0  0  0  0  0  0  0  0  0  0  0
    2.9922    1.1631    0.8378 O   0  0  0  0  0  0  0  0  0  0  0  0
    2.8268    1.7559   -1.4147 N   0  0  0  0  0  0  0  0  0  0  0  0
    4.1084    2.2369   -1.5071 N   0  0  0  0  0  0  0  0  0  0  0  0
    5.1007    1.4265   -1.2654 C   0  0  0  0  0  0  0  0  0  0  0  0
    6.4831    2.0355   -1.1903 C   0  0  0  0  0  0  0  0  0  0  0  0
    5.0204   -0.0436   -1.1097 C   0  0  0  0  0  0  0  0  0  0  0  0
    4.4378   -0.8326   -2.1012 C   0  0  0  0  0  0  0  0  0  0  0  0
    4.4210   -2.2156   -1.9420 C   0  0  0  0  0  0  0  0  0  0  0  0
    4.9993   -2.7543   -0.8015 C   0  0  0  0  0  0  0  0  0  0  0  0
    5.5777   -2.0152    0.1714 N   0  0  0  0  0  0  0  0  0  0  0  0
    5.5658   -0.6701    0.0016 C   0  0  0  0  0  0  0  0  0  0  0  0
   -8.1167   -1.0615    2.0703 H   0  0  0  0  0  0  0  0  0  0  0  0
   -7.9360   -1.5894    0.3883 H   0  0  0  0  0  0  0  0  0  0  0  0
   -8.2433    0.1196    0.7554 H   0  0  0  0  0  0  0  0  0  0  0  0
   -6.0320    0.2637    1.9174 H   0  0  0  0  0  0  0  0  0  0  0  0
   -5.7369   -1.4401    1.5617 H   0  0  0  0  0  0  0  0  0  0  0  0
   -5.7808   -0.9550   -0.8884 H   0  0  0  0  0  0  0  0  0  0  0  0
   -6.1801    0.7277   -0.5607 H   0  0  0  0  0  0  0  0  0  0  0  0
   -4.0081    1.0472    0.6052 H   0  0  0  0  0  0  0  0  0  0  0  0
   -3.8441    0.6038   -1.0914 H   0  0  0  0  0  0  0  0  0  0  0  0
   -3.4496   -1.2686    1.3027 H   0  0  0  0  0  0  0  0  0  0  0  0
   -3.4902   -1.8114   -0.3722 H   0  0  0  0  0  0  0  0  0  0  0  0
   -1.5493   -0.3638   -0.9149 H   0  0  0  0  0  0  0  0  0  0  0  0
   -1.1967   -1.5790    0.3101 H   0  0  0  0  0  0  0  0  0  0  0  0
   -1.5823    0.1862    2.1004 H   0  0  0  0  0  0  0  0  0  0  0  0
   -1.7165    1.3973    0.8284 H   0  0  0  0  0  0  0  0  0  0  0  0
    0.5347    1.2917    1.8825 H   0  0  0  0  0  0  0  0  0  0  0  0
    0.7316   -0.3699    1.3500 H   0  0  0  0  0  0  0  0  0  0  0  0
    0.6414    0.3567   -1.0360 H   0  0  0  0  0  0  0  0  0  0  0  0
    0.3378    2.0310   -0.5197 H   0  0  0  0  0  0  0  0  0  0  0  0
    2.1703    2.2952   -1.9725 H   0  0  0  0  0  0  0  0  0  0  0  0
    6.5732    2.6030   -0.2595 H   0  0  0  0  0  0  0  0  0  0  0  0
    6.6274    2.7147   -2.0360 H   0  0  0  0  0  0  0  0  0  0  0  0
    7.2662    1.2734   -1.2235 H   0  0  0  0  0  0  0  0  0  0  0  0
    4.0096   -0.3773   -2.9892 H   0  0  0  0  0  0  0  0  0  0  0  0
    3.9745   -2.8603   -2.6909 H   0  0  0  0  0  0  0  0  0  0  0  0
    5.0139   -3.8280   -0.6352 H   0  0  0  0  0  0  0  0  0  0  0  0
    6.0106   -0.1013    0.8130 H   0  0  0  0  0  0  0  0  0  0  0  0
  1  2  1  0
  2  3  1  0
  3  4  1  0
  4  5  1  0
  5  6  1  0
  6  7  1  0
  7  8  1  0
  8  9  1  0
  9 10  1  0
 10 11  2  0
 10 12  1  0
 12 13  1  0
 13 14  2  3
 14 15  1  0
 14 16  1  0
 16 17  2  0
 17 18  1  0
 18 19  2  0
 19 20  1  0
 20 21  2  0
 21 16  1  0
  1 22  1  0
  1 23  1  0
  1 24  1  0
  2 25  1  0
  2 26  1  0
  3 27  1  0
  3 28  1  0
  4 29  1  0
  4 30  1  0
  5 31  1  0
  5 32  1  0
  6 33  1  0
  6 34  1  0
  7 35  1  0
  7 36  1  0
  8 37  1  0
  8 38  1  0
  9 39  1  0
  9 40  1  0
 12 41  1  0
 15 42  1  0
 15 43  1  0
 15 44  1  0
 17 45  1  0
 18 46  1  0
 19 47  1  0
 21 48  1  0
M  END
$$$$
