
     RDKit          3D

 44 47  0  0  0  0  0  0  0  0999 V2000
    6.6127    0.4609   -1.0899 C   0  0  0  0  0  0  0  0  0  0  0  0
    5.1959    0.3330   -1.0785 O   0  0  0  0  0  0  0  0  0  0  0  0
    4.6274   -0.1342    0.0728 C   0  0  0  0  0  0  0  0  0  0  0  0
    5.2991   -0.4953    1.2325 C   0  0  0  0  0  0  0  0  0  0  0  0
    4.5769   -0.9568    2.3393 C   0  0  0  0  0  0  0  0  0  0  0  0
    3.1940   -1.0718    2.3249 C   0  0  0  0  0  0  0  0  0  0  0  0
    2.5809   -1.5215    3.4320 N   0  0  0  0  0  0  0  0  0  0  0  0
    1.2379   -1.6346    3.4152 C   0  0  0  0  0  0  0  0  0  0  0  0
    0.4544   -1.3128    2.3267 C   0  0  0  0  0  0  0  0  0  0  0  0
    1.0852   -0.8408    1.1747 C   0  0  0  0  0  0  0  0  0  0  0  0
    0.2566   -0.5151    0.0039 C   0  0  0  0  0  0  0  0  0  0  0  0
   -0.6465    0.4772    0.0221 C   0  0  0  0  0  0  0  0  0  0  0  0
   -1.4664    0.8119   -1.1534 C   0  0  0  0  0  0  0  0  0  0  0  0
   -0.8180    1.2474   -2.3109 C   0  0  0  0  0  0  0  0  0  0  0  0
   -1.5873    1.5826   -3.4049 C   0  0  0  0  0  0  0  0  0  0  0  0
   -2.9329    1.5173   -3.4221 N   0  0  0  0  0  0  0  0  0  0  0  0
   -3.5633    1.1036   -2.3108 C   0  0  0  0  0  0  0  0  0  0  0  0
   -4.9476    1.0391   -2.3303 C   0  0  0  0  0  0  0  0  0  0  0  0
   -5.6806    0.6174   -1.2185 C   0  0  0  0  0  0  0  0  0  0  0  0
   -5.0297    0.2449   -0.0484 C   0  0  0  0  0  0  0  0  0  0  0  0
   -5.8544   -0.1512    0.9661 O   0  0  0  0  0  0  0  0  0  0  0  0
   -5.2389   -0.5373    2.1882 C   0  0  0  0  0  0  0  0  0  0  0  0
   -3.6373    0.3018   -0.0066 C   0  0  0  0  0  0  0  0  0  0  0  0
   -2.8819    0.7332   -1.1302 C   0  0  0  0  0  0  0  0  0  0  0  0
    2.4963   -0.7124    1.1526 C   0  0  0  0  0  0  0  0  0  0  0  0
    3.2359   -0.2431    0.0384 C   0  0  0  0  0  0  0  0  0  0  0  0
    6.9498    1.1821   -0.3381 H   0  0  0  0  0  0  0  0  0  0  0  0
    6.9058    0.8427   -2.0726 H   0  0  0  0  0  0  0  0  0  0  0  0
    7.0977   -0.5111   -0.9517 H   0  0  0  0  0  0  0  0  0  0  0  0
    6.3785   -0.4324    1.3189 H   0  0  0  0  0  0  0  0  0  0  0  0
    5.1131   -1.2356    3.2442 H   0  0  0  0  0  0  0  0  0  0  0  0
    0.7947   -2.0079    4.3340 H   0  0  0  0  0  0  0  0  0  0  0  0
   -0.6215   -1.4382    2.3763 H   0  0  0  0  0  0  0  0  0  0  0  0
    0.4288   -1.1181   -0.8847 H   0  0  0  0  0  0  0  0  0  0  0  0
   -0.8133    1.0833    0.9092 H   0  0  0  0  0  0  0  0  0  0  0  0
    0.2622    1.3345   -2.3613 H   0  0  0  0  0  0  0  0  0  0  0  0
   -1.1292    1.9276   -4.3275 H   0  0  0  0  0  0  0  0  0  0  0  0
   -5.4747    1.3248   -3.2378 H   0  0  0  0  0  0  0  0  0  0  0  0
   -6.7658    0.5801   -1.2728 H   0  0  0  0  0  0  0  0  0  0  0  0
   -4.6839    0.2962    2.6313 H   0  0  0  0  0  0  0  0  0  0  0  0
   -4.5944   -1.4112    2.0465 H   0  0  0  0  0  0  0  0  0  0  0  0
   -6.0319   -0.8185    2.8879 H   0  0  0  0  0  0  0  0  0  0  0  0
   -3.1082    0.0089    0.8936 H   0  0  0  0  0  0  0  0  0  0  0  0
    2.7237    0.0490   -0.8756 H   0  0  0  0  0  0  0  0  0  0  0  0
  1  2  1  0
  2  3  1  0
  3  4  2  0
  4  5  1  0
  5  6  2  0
  6  7  1  0
  7  8  2  0
  8  9  1  0
  9 10  2  0
 10 11  1  0
 11 12  2  3
 12 13  1  0
 13 14  2  0
 14 15  1  0
 15 16  2  0
 16 17  1  0
 17 18  2  0
 18 19  1  0
 19 20  2  0
 20 21  1  0
 21 22  1  0
 20 23  1  0
 23 24  2  0
 10 25  1  0
 25 26  2  0
 26  3  1  0
 25  6  1  0
 24 13  1  0
 24 17  1  0
  1 27  1  0
  1 28  1  0
  1 29  1  0
  4 30  1  0
  5 31  1  0
  8 32  1  0
  9 33  1  0
 11 34  1  0
 12 35  1  0
 14 36  1  0
 15 37  1  0
 18 38  1  0
 19 39  1  0
 22 40  1  0
 22 41  1  0
 22 42  1  0
 23 43  1  0
 26 44  1  0
M  END
$$$$
