
     RDKit          3D

 41 42  0  0  0  0  0  0  0  0999 V2000
   -3.4315   -2.9409    2.9372 C   0  0  0  0  0  0  0  0  0  0  0  0
   -4.1971   -2.0738    2.1033 O   0  0  0  0  0  0  0  0  0  0  0  0
   -3.5667   -0.9580    1.6218 C   0  0  0  0  0  0  0  0  0  0  0  0
   -2.2207   -0.6348    1.7993 C   0  0  0  0  0  0  0  0  0  0  0  0
   -1.6989    0.5419    1.2471 C   0  0  0  0  0  0  0  0  0  0  0  0
   -2.5191    1.4125    0.5169 C   0  0  0  0  0  0  0  0  0  0  0  0
   -1.9573    2.6681   -0.0982 C   0  0  0  0  0  0  0  0  0  0  0  0
   -1.5534    2.4922   -1.5421 C   0  0  0  0  0  0  0  0  0  0  0  0
   -2.1508    3.0074   -2.4837 O   0  0  0  0  0  0  0  0  0  0  0  0
   -0.4239    1.7177   -1.5979 O   0  0  0  0  0  0  0  0  0  0  0  0
   -0.0236    1.5251   -2.9318 N   0  0  0  0  0  0  0  0  0  0  0  0
    1.0988    0.8674   -3.0213 C   0  0  0  0  0  0  0  0  0  0  0  0
    1.5494    0.5375   -4.2763 N   0  0  0  0  0  0  0  0  0  0  0  0
    1.9396    0.4609   -1.8608 C   0  0  0  0  0  0  0  0  0  0  0  0
    2.3091   -0.8785   -1.7236 C   0  0  0  0  0  0  0  0  0  0  0  0
    3.1238   -1.2711   -0.6553 C   0  0  0  0  0  0  0  0  0  0  0  0
    3.5762   -0.3242    0.2675 C   0  0  0  0  0  0  0  0  0  0  0  0
    4.3799   -0.5741    1.3469 O   0  0  0  0  0  0  0  0  0  0  0  0
    4.7696   -1.9232    1.5628 C   0  0  0  0  0  0  0  0  0  0  0  0
    3.2123    1.0170    0.1119 C   0  0  0  0  0  0  0  0  0  0  0  0
    2.3978    1.4154   -0.9499 C   0  0  0  0  0  0  0  0  0  0  0  0
   -3.8664    1.0792    0.3330 C   0  0  0  0  0  0  0  0  0  0  0  0
   -4.3825   -0.0965    0.8835 C   0  0  0  0  0  0  0  0  0  0  0  0
   -3.0782   -2.4164    3.8311 H   0  0  0  0  0  0  0  0  0  0  0  0
   -4.0890   -3.7522    3.2669 H   0  0  0  0  0  0  0  0  0  0  0  0
   -2.5993   -3.3886    2.3849 H   0  0  0  0  0  0  0  0  0  0  0  0
   -1.5448   -1.2815    2.3546 H   0  0  0  0  0  0  0  0  0  0  0  0
   -0.6408    0.7632    1.3854 H   0  0  0  0  0  0  0  0  0  0  0  0
   -1.0897    3.0326    0.4682 H   0  0  0  0  0  0  0  0  0  0  0  0
   -2.7033    3.4725   -0.0422 H   0  0  0  0  0  0  0  0  0  0  0  0
    1.0547    1.0576   -4.9985 H   0  0  0  0  0  0  0  0  0  0  0  0
    2.5564    0.5581   -4.4003 H   0  0  0  0  0  0  0  0  0  0  0  0
    1.9578   -1.6190   -2.4395 H   0  0  0  0  0  0  0  0  0  0  0  0
    3.3879   -2.3212   -0.5773 H   0  0  0  0  0  0  0  0  0  0  0  0
    5.3561   -2.3048    0.7217 H   0  0  0  0  0  0  0  0  0  0  0  0
    3.9002   -2.5582    1.7609 H   0  0  0  0  0  0  0  0  0  0  0  0
    5.4126   -1.9511    2.4500 H   0  0  0  0  0  0  0  0  0  0  0  0
    3.5726    1.7570    0.8241 H   0  0  0  0  0  0  0  0  0  0  0  0
    2.1348    2.4623   -1.0694 H   0  0  0  0  0  0  0  0  0  0  0  0
   -4.5223    1.7277   -0.2450 H   0  0  0  0  0  0  0  0  0  0  0  0
   -5.4303   -0.3413    0.7342 H   0  0  0  0  0  0  0  0  0  0  0  0
  1  2  1  0
  2  3  1  0
  3  4  2  0
  4  5  1  0
  5  6  2  0
  6  7  1  0
  7  8  1  0
  8  9  2  0
  8 10  1  0
 10 11  1  0
 11 12  2  3
 12 13  1  0
 12 14  1  0
 14 15  2  0
 15 16  1  0
 16 17  2  0
 17 18  1  0
 18 19  1  0
 17 20  1  0
 20 21  2  0
  6 22  1  0
 22 23  2  0
 23  3  1  0
 21 14  1  0
  1 24  1  0
  1 25  1  0
  1 26  1  0
  4 27  1  0
  5 28  1  0
  7 29  1  0
  7 30  1  0
 13 31  1  0
 13 32  1  0
 15 33  1  0
 16 34  1  0
 19 35  1  0
 19 36  1  0
 19 37  1  0
 20 38  1  0
 21 39  1  0
 22 40  1  0
 23 41  1  0
M  END
$$$$
