
     RDKit          3D

 34 34  0  0  0  0  0  0  0  0999 V2000
    4.9448    1.5398    0.8158 C   0  0  0  0  0  0  0  0  0  0  0  0
    3.8962    1.2278   -0.0891 O   0  0  0  0  0  0  0  0  0  0  0  0
    2.7897    0.5886    0.4135 C   0  0  0  0  0  0  0  0  0  0  0  0
    2.5924    0.2969    1.7673 C   0  0  0  0  0  0  0  0  0  0  0  0
    1.4289   -0.3516    2.1916 C   0  0  0  0  0  0  0  0  0  0  0  0
    0.4461   -0.7220    1.2688 C   0  0  0  0  0  0  0  0  0  0  0  0
   -0.8136   -1.4198    1.7173 C   0  0  0  0  0  0  0  0  0  0  0  0
   -1.9744   -0.6018    1.4426 N   0  0  0  0  0  0  0  0  0  0  0  0
   -2.8781   -0.9429    0.4703 C   0  0  0  0  0  0  0  0  0  0  0  0
   -2.8829   -1.9996   -0.1443 O   0  0  0  0  0  0  0  0  0  0  0  0
   -3.8895    0.1154    0.2453 C   0  0  0  0  0  0  0  0  0  0  0  0
   -4.4298    0.3784   -0.9525 C   0  0  0  0  0  0  0  0  0  0  0  0
   -4.0362   -0.2510   -2.2160 C   0  0  0  0  0  0  0  0  0  0  0  0
   -4.8129   -0.6178   -3.0783 O   0  0  0  0  0  0  0  0  0  0  0  0
   -2.7066   -0.2651   -2.3959 O   0  0  0  0  0  0  0  0  0  0  0  0
    0.6476   -0.4341   -0.0913 C   0  0  0  0  0  0  0  0  0  0  0  0
    1.8037    0.2257   -0.5248 C   0  0  0  0  0  0  0  0  0  0  0  0
    2.0652    0.5486   -1.8340 O   0  0  0  0  0  0  0  0  0  0  0  0
    1.0272    0.3336   -2.7797 C   0  0  0  0  0  0  0  0  0  0  0  0
    5.3471    0.6354    1.2841 H   0  0  0  0  0  0  0  0  0  0  0  0
    5.7534    2.0046    0.2435 H   0  0  0  0  0  0  0  0  0  0  0  0
    4.6136    2.2624    1.5687 H   0  0  0  0  0  0  0  0  0  0  0  0
    3.3257    0.5640    2.5206 H   0  0  0  0  0  0  0  0  0  0  0  0
    1.3015   -0.5659    3.2506 H   0  0  0  0  0  0  0  0  0  0  0  0
   -0.7979   -1.5869    2.7998 H   0  0  0  0  0  0  0  0  0  0  0  0
   -0.8884   -2.3986    1.2313 H   0  0  0  0  0  0  0  0  0  0  0  0
   -1.9775    0.3339    1.8232 H   0  0  0  0  0  0  0  0  0  0  0  0
   -4.2391    0.6426    1.1247 H   0  0  0  0  0  0  0  0  0  0  0  0
   -5.2446    1.0867   -1.0437 H   0  0  0  0  0  0  0  0  0  0  0  0
   -2.6026   -0.7533   -3.2385 H   0  0  0  0  0  0  0  0  0  0  0  0
   -0.1217   -0.7402   -0.7955 H   0  0  0  0  0  0  0  0  0  0  0  0
    0.1235    0.8913   -2.5123 H   0  0  0  0  0  0  0  0  0  0  0  0
    0.8154   -0.7343   -2.8961 H   0  0  0  0  0  0  0  0  0  0  0  0
    1.3739    0.7092   -3.7472 H   0  0  0  0  0  0  0  0  0  0  0  0
  1  2  1  0
  2  3  1  0
  3  4  2  0
  4  5  1  0
  5  6  2  0
  6  7  1  0
  7  8  1  0
  8  9  1  0
  9 10  2  0
  9 11  1  0
 11 12  2  3
 12 13  1  0
 13 14  2  0
 13 15  1  0
  6 16  1  0
 16 17  2  0
 17 18  1  0
 18 19  1  0
 17  3  1  0
  1 20  1  0
  1 21  1  0
  1 22  1  0
  4 23  1  0
  5 24  1  0
  7 25  1  0
  7 26  1  0
  8 27  1  0
 11 28  1  0
 12 29  1  0
 15 30  1  0
 16 31  1  0
 19 32  1  0
 19 33  1  0
 19 34  1  0
M  END
$$$$
