
     RDKit          3D

 42 45  0  0  0  0  0  0  0  0999 V2000
   -3.4568   -2.1104   -1.5464 O   0  0  0  0  0  0  0  0  0  0  0  0
   -3.1546   -1.0679   -0.9778 C   0  0  0  0  0  0  0  0  0  0  0  0
   -1.8589   -0.6521   -0.7708 N   0  0  0  0  0  0  0  0  0  0  0  0
   -0.7129   -1.4619   -1.1172 C   0  0  0  0  0  0  0  0  0  0  0  0
   -0.4586   -2.5543   -0.0519 C   0  0  0  0  0  0  0  0  0  0  0  0
    0.1895   -1.9806    1.2236 C   0  0  0  0  0  0  0  0  0  0  0  0
    1.5586   -1.3327    0.9371 C   0  0  0  0  0  0  0  0  0  0  0  0
    1.4900   -0.4866   -0.2893 C   0  0  0  0  0  0  0  0  0  0  0  0
    0.4601   -0.5477   -1.2125 C   0  0  0  0  0  0  0  0  0  0  0  0
    0.7647    0.4415   -2.1504 C   0  0  0  0  0  0  0  0  0  0  0  0
    1.8854    1.0917   -1.8500 N   0  0  0  0  0  0  0  0  0  0  0  0
    2.3626    0.5106   -0.7149 N   0  0  0  0  0  0  0  0  0  0  0  0
    3.6083    0.9391   -0.1705 C   0  0  0  0  0  0  0  0  0  0  0  0
    4.3603    0.1211    0.6860 C   0  0  0  0  0  0  0  0  0  0  0  0
    5.5885    0.5596    1.1976 C   0  0  0  0  0  0  0  0  0  0  0  0
    6.0842    1.8152    0.8589 C   0  0  0  0  0  0  0  0  0  0  0  0
    5.3525    2.6323    0.0032 C   0  0  0  0  0  0  0  0  0  0  0  0
    4.1286    2.1968   -0.5088 C   0  0  0  0  0  0  0  0  0  0  0  0
    3.4635    3.0606   -1.2895 F   0  0  0  0  0  0  0  0  0  0  0  0
   -4.1925   -0.1335   -0.4340 C   0  0  0  0  0  0  0  0  0  0  0  0
   -5.5407   -0.4120   -0.6180 C   0  0  0  0  0  0  0  0  0  0  0  0
   -6.4705    0.4823   -0.0966 C   0  0  0  0  0  0  0  0  0  0  0  0
   -6.0240    1.6118    0.5837 C   0  0  0  0  0  0  0  0  0  0  0  0
   -4.6574    1.8066    0.7204 C   0  0  0  0  0  0  0  0  0  0  0  0
   -3.7247    0.9616    0.2315 N   0  0  0  0  0  0  0  0  0  0  0  0
   -1.7416    0.1936   -0.2173 H   0  0  0  0  0  0  0  0  0  0  0  0
   -0.9067   -1.9419   -2.0837 H   0  0  0  0  0  0  0  0  0  0  0  0
   -1.3918   -3.0663    0.2096 H   0  0  0  0  0  0  0  0  0  0  0  0
    0.2156   -3.3133   -0.4703 H   0  0  0  0  0  0  0  0  0  0  0  0
    0.3154   -2.7773    1.9658 H   0  0  0  0  0  0  0  0  0  0  0  0
   -0.4831   -1.2364    1.6689 H   0  0  0  0  0  0  0  0  0  0  0  0
    1.8609   -0.7469    1.8111 H   0  0  0  0  0  0  0  0  0  0  0  0
    2.2884   -2.1352    0.7806 H   0  0  0  0  0  0  0  0  0  0  0  0
    0.2072    0.7345   -3.0311 H   0  0  0  0  0  0  0  0  0  0  0  0
    4.0548   -0.8850    0.9430 H   0  0  0  0  0  0  0  0  0  0  0  0
    6.1649   -0.0900    1.8530 H   0  0  0  0  0  0  0  0  0  0  0  0
    7.0380    2.1540    1.2546 H   0  0  0  0  0  0  0  0  0  0  0  0
    5.7203    3.6165   -0.2715 H   0  0  0  0  0  0  0  0  0  0  0  0
   -5.8575   -1.3005   -1.1546 H   0  0  0  0  0  0  0  0  0  0  0  0
   -7.5346    0.3004   -0.2214 H   0  0  0  0  0  0  0  0  0  0  0  0
   -6.7270    2.3266    0.9984 H   0  0  0  0  0  0  0  0  0  0  0  0
   -4.2684    2.6763    1.2434 H   0  0  0  0  0  0  0  0  0  0  0  0
  1  2  2  0
  2  3  1  0
  3  4  1  0
  4  5  1  0
  5  6  1  0
  6  7  1  0
  7  8  1  0
  8  9  2  0
  9 10  1  0
 10 11  2  0
 11 12  1  0
 12 13  1  0
 13 14  2  0
 14 15  1  0
 15 16  2  0
 16 17  1  0
 17 18  2  0
 18 19  1  0
  2 20  1  0
 20 21  2  0
 21 22  1  0
 22 23  2  0
 23 24  1  0
 24 25  2  0
  9  4  1  0
 18 13  1  0
 25 20  1  0
 12  8  1  0
  3 26  1  0
  4 27  1  0
  5 28  1  0
  5 29  1  0
  6 30  1  0
  6 31  1  0
  7 32  1  0
  7 33  1  0
 10 34  1  0
 14 35  1  0
 15 36  1  0
 16 37  1  0
 17 38  1  0
 21 39  1  0
 22 40  1  0
 23 41  1  0
 24 42  1  0
M  END
$$$$
