
     RDKit          3D

 62 65  0  0  0  0  0  0  0  0999 V2000
    8.0541   -3.6006    1.6506 C   0  0  0  0  0  0  0  0  0  0  0  0
    8.1820   -2.0878    1.6400 C   0  0  0  0  0  0  0  0  0  0  0  0
    7.1711   -1.5126    0.7991 O   0  0  0  0  0  0  0  0  0  0  0  0
    5.9693   -1.2713    1.3920 C   0  0  0  0  0  0  0  0  0  0  0  0
    5.7244   -1.5086    2.5689 O   0  0  0  0  0  0  0  0  0  0  0  0
    5.0545   -0.7377    0.5061 N   0  0  0  0  0  0  0  0  0  0  0  0
    5.3725   -0.5058   -0.9054 C   0  0  0  0  0  0  0  0  0  0  0  0
    4.2291    0.1619   -1.6798 C   0  0  0  0  0  0  0  0  0  0  0  0
    2.9501   -0.5214   -1.4572 N   0  0  0  0  0  0  0  0  0  0  0  0
    2.1016   -0.7455   -2.5334 C   0  0  0  0  0  0  0  0  0  0  0  0
    2.3802   -0.3691   -3.6752 O   0  0  0  0  0  0  0  0  0  0  0  0
    0.8027   -1.5215   -2.2765 C   0  0  0  0  0  0  0  0  0  0  0  0
   -0.1249   -0.8434   -1.4401 O   0  0  0  0  0  0  0  0  0  0  0  0
   -1.1350   -0.1588   -2.0619 C   0  0  0  0  0  0  0  0  0  0  0  0
   -1.0025    0.4676   -3.3054 C   0  0  0  0  0  0  0  0  0  0  0  0
   -2.0824    1.1445   -3.8756 C   0  0  0  0  0  0  0  0  0  0  0  0
   -3.2996    1.2067   -3.2026 C   0  0  0  0  0  0  0  0  0  0  0  0
   -3.4355    0.6077   -1.9450 C   0  0  0  0  0  0  0  0  0  0  0  0
   -2.3472   -0.0620   -1.3582 C   0  0  0  0  0  0  0  0  0  0  0  0
   -2.5419   -0.7334   -0.0257 C   0  0  0  0  0  0  0  0  0  0  0  0
   -3.5615    0.0318    0.8077 C   0  0  0  0  0  0  0  0  0  0  0  0
   -4.7991    0.2641    0.0761 N   0  0  0  0  0  0  0  0  0  0  0  0
   -6.0459    0.4051    0.8252 C   0  0  0  0  0  0  0  0  0  0  0  0
   -6.0814    1.6204    1.7183 C   0  0  0  0  0  0  0  0  0  0  0  0
   -5.5937    1.5678    3.0351 C   0  0  0  0  0  0  0  0  0  0  0  0
   -5.6207    2.7027    3.8513 C   0  0  0  0  0  0  0  0  0  0  0  0
   -6.1388    3.9024    3.3647 C   0  0  0  0  0  0  0  0  0  0  0  0
   -6.6301    3.9663    2.0625 C   0  0  0  0  0  0  0  0  0  0  0  0
   -6.5977    2.8330    1.2528 C   0  0  0  0  0  0  0  0  0  0  0  0
   -7.0952    2.9238    0.0119 F   0  0  0  0  0  0  0  0  0  0  0  0
   -4.7605    0.6623   -1.2585 C   0  0  0  0  0  0  0  0  0  0  0  0
   -5.7477    1.0245   -1.8902 O   0  0  0  0  0  0  0  0  0  0  0  0
    2.6558   -0.9343   -0.0765 C   0  0  0  0  0  0  0  0  0  0  0  0
    3.6936   -0.4426    0.9422 C   0  0  0  0  0  0  0  0  0  0  0  0
    7.0793   -3.9115    2.0403 H   0  0  0  0  0  0  0  0  0  0  0  0
    8.1336   -3.9998    0.6336 H   0  0  0  0  0  0  0  0  0  0  0  0
    8.8373   -4.0517    2.2671 H   0  0  0  0  0  0  0  0  0  0  0  0
    8.1431   -1.6735    2.6549 H   0  0  0  0  0  0  0  0  0  0  0  0
    9.1509   -1.8047    1.2154 H   0  0  0  0  0  0  0  0  0  0  0  0
    5.5955   -1.4850   -1.3470 H   0  0  0  0  0  0  0  0  0  0  0  0
    6.2812    0.1034   -0.9687 H   0  0  0  0  0  0  0  0  0  0  0  0
    4.0953    1.1961   -1.3401 H   0  0  0  0  0  0  0  0  0  0  0  0
    4.4791    0.1978   -2.7446 H   0  0  0  0  0  0  0  0  0  0  0  0
    1.0694   -2.4602   -1.7757 H   0  0  0  0  0  0  0  0  0  0  0  0
    0.3595   -1.8259   -3.2337 H   0  0  0  0  0  0  0  0  0  0  0  0
   -0.0662    0.4540   -3.8562 H   0  0  0  0  0  0  0  0  0  0  0  0
   -1.9746    1.6201   -4.8485 H   0  0  0  0  0  0  0  0  0  0  0  0
   -4.1421    1.7235   -3.6590 H   0  0  0  0  0  0  0  0  0  0  0  0
   -1.6044   -0.7855    0.5384 H   0  0  0  0  0  0  0  0  0  0  0  0
   -2.8878   -1.7588   -0.2039 H   0  0  0  0  0  0  0  0  0  0  0  0
   -3.7820   -0.5430    1.7139 H   0  0  0  0  0  0  0  0  0  0  0  0
   -3.1618    1.0099    1.1037 H   0  0  0  0  0  0  0  0  0  0  0  0
   -6.1706   -0.5029    1.4293 H   0  0  0  0  0  0  0  0  0  0  0  0
   -6.9029    0.4231    0.1400 H   0  0  0  0  0  0  0  0  0  0  0  0
   -5.1919    0.6396    3.4363 H   0  0  0  0  0  0  0  0  0  0  0  0
   -5.2402    2.6520    4.8689 H   0  0  0  0  0  0  0  0  0  0  0  0
   -6.1638    4.7842    3.9999 H   0  0  0  0  0  0  0  0  0  0  0  0
   -7.0439    4.8901    1.6686 H   0  0  0  0  0  0  0  0  0  0  0  0
    2.6260   -2.0302   -0.0708 H   0  0  0  0  0  0  0  0  0  0  0  0
    1.6668   -0.5651    0.2082 H   0  0  0  0  0  0  0  0  0  0  0  0
    3.6267    0.6468    1.0473 H   0  0  0  0  0  0  0  0  0  0  0  0
    3.4885   -0.8787    1.9254 H   0  0  0  0  0  0  0  0  0  0  0  0
  1  2  1  0
  2  3  1  0
  3  4  1  0
  4  5  2  0
  4  6  1  0
  6  7  1  0
  7  8  1  0
  8  9  1  0
  9 10  1  0
 10 11  2  0
 10 12  1  0
 12 13  1  0
 13 14  1  0
 14 15  2  0
 15 16  1  0
 16 17  2  0
 17 18  1  0
 18 19  2  0
 19 20  1  0
 20 21  1  0
 21 22  1  0
 22 23  1  0
 23 24  1  0
 24 25  2  0
 25 26  1  0
 26 27  2  0
 27 28  1  0
 28 29  2  0
 29 30  1  0
 22 31  1  0
 31 32  2  0
  9 33  1  0
 33 34  1  0
 34  6  1  0
 19 14  1  0
 29 24  1  0
 31 18  1  0
  1 35  1  0
  1 36  1  0
  1 37  1  0
  2 38  1  0
  2 39  1  0
  7 40  1  0
  7 41  1  0
  8 42  1  0
  8 43  1  0
 12 44  1  0
 12 45  1  0
 15 46  1  0
 16 47  1  0
 17 48  1  0
 20 49  1  0
 20 50  1  0
 21 51  1  0
 21 52  1  0
 23 53  1  0
 23 54  1  0
 25 55  1  0
 26 56  1  0
 27 57  1  0
 28 58  1  0
 33 59  1  0
 33 60  1  0
 34 61  1  0
 34 62  1  0
M  END
$$$$
