
     RDKit          3D

 35 36  0  0  0  0  0  0  0  0999 V2000
    4.6743   -0.5415   -3.0138 C   0  0  0  0  0  0  0  0  0  0  0  0
    3.5793   -0.4802   -1.9912 C   0  0  0  0  0  0  0  0  0  0  0  0
    3.8434   -0.0296   -0.6942 C   0  0  0  0  0  0  0  0  0  0  0  0
    2.8188    0.0549    0.2564 C   0  0  0  0  0  0  0  0  0  0  0  0
    1.5154   -0.3132   -0.0727 C   0  0  0  0  0  0  0  0  0  0  0  0
    0.4189   -0.2283    0.8097 N   0  0  0  0  0  0  0  0  0  0  0  0
    0.3508   -0.2160    2.1796 C   0  0  0  0  0  0  0  0  0  0  0  0
    1.5068   -0.6778    3.2918 S   0  0  0  0  0  0  0  0  0  0  0  0
   -0.8566    0.1961    2.6869 N   0  0  0  0  0  0  0  0  0  0  0  0
   -1.8294    1.0475    2.0274 C   0  0  0  0  0  0  0  0  0  0  0  0
   -2.6932    0.2356    1.1214 C   0  0  0  0  0  0  0  0  0  0  0  0
   -3.2583   -1.0141    1.3192 C   0  0  0  0  0  0  0  0  0  0  0  0
   -3.9781   -1.3592    0.1541 C   0  0  0  0  0  0  0  0  0  0  0  0
   -3.8498   -0.3118   -0.7280 C   0  0  0  0  0  0  0  0  0  0  0  0
   -3.0824    0.6564   -0.1339 N   0  0  0  0  0  0  0  0  0  0  0  0
   -2.7393    1.9170   -0.7580 C   0  0  0  0  0  0  0  0  0  0  0  0
    1.2445   -0.7266   -1.3831 C   0  0  0  0  0  0  0  0  0  0  0  0
    2.2663   -0.8125   -2.3338 C   0  0  0  0  0  0  0  0  0  0  0  0
    4.7508    0.4159   -3.5382 H   0  0  0  0  0  0  0  0  0  0  0  0
    4.4808   -1.3321   -3.7463 H   0  0  0  0  0  0  0  0  0  0  0  0
    5.6370   -0.7650   -2.5420 H   0  0  0  0  0  0  0  0  0  0  0  0
    4.8510    0.2660   -0.4097 H   0  0  0  0  0  0  0  0  0  0  0  0
    3.0706    0.4445    1.2362 H   0  0  0  0  0  0  0  0  0  0  0  0
   -0.4788   -0.4266    0.3843 H   0  0  0  0  0  0  0  0  0  0  0  0
   -0.8786    0.2014    3.6993 H   0  0  0  0  0  0  0  0  0  0  0  0
   -2.4443    1.5111    2.8057 H   0  0  0  0  0  0  0  0  0  0  0  0
   -1.2865    1.8367    1.4988 H   0  0  0  0  0  0  0  0  0  0  0  0
   -3.1468   -1.6180    2.2117 H   0  0  0  0  0  0  0  0  0  0  0  0
   -4.5313   -2.2727   -0.0223 H   0  0  0  0  0  0  0  0  0  0  0  0
   -4.2501   -0.1807   -1.7252 H   0  0  0  0  0  0  0  0  0  0  0  0
   -1.6623    1.9254   -0.9433 H   0  0  0  0  0  0  0  0  0  0  0  0
   -3.0272    2.7280   -0.0844 H   0  0  0  0  0  0  0  0  0  0  0  0
   -3.2795    2.0165   -1.7030 H   0  0  0  0  0  0  0  0  0  0  0  0
    0.2354   -1.0025   -1.6794 H   0  0  0  0  0  0  0  0  0  0  0  0
    2.0283   -1.1448   -3.3417 H   0  0  0  0  0  0  0  0  0  0  0  0
  1  2  1  0
  2  3  2  0
  3  4  1  0
  4  5  2  0
  5  6  1  0
  6  7  1  0
  7  8  2  0
  7  9  1  0
  9 10  1  0
 10 11  1  0
 11 12  2  0
 12 13  1  0
 13 14  2  0
 14 15  1  0
 15 16  1  0
  5 17  1  0
 17 18  2  0
 18  2  1  0
 15 11  1  0
  1 19  1  0
  1 20  1  0
  1 21  1  0
  3 22  1  0
  4 23  1  0
  6 24  1  0
  9 25  1  0
 10 26  1  0
 10 27  1  0
 12 28  1  0
 13 29  1  0
 14 30  1  0
 16 31  1  0
 16 32  1  0
 16 33  1  0
 17 34  1  0
 18 35  1  0
M  END
$$$$
