
     RDKit          3D

 36 38  0  0  0  0  0  0  0  0999 V2000
   -4.6681    2.3182    0.5709 C   0  0  0  0  0  0  0  0  0  0  0  0
   -3.5498    1.4113    0.4263 N   0  0  0  0  0  0  0  0  0  0  0  0
   -2.2342    1.7652    0.5710 C   0  0  0  0  0  0  0  0  0  0  0  0
   -1.4642    0.6453    0.3444 C   0  0  0  0  0  0  0  0  0  0  0  0
   -0.0368    0.6699    0.4025 C   0  0  0  0  0  0  0  0  0  0  0  0
    0.7808   -0.0630   -0.3722 C   0  0  0  0  0  0  0  0  0  0  0  0
    2.2455   -0.0267   -0.2983 C   0  0  0  0  0  0  0  0  0  0  0  0
    2.9573    1.1587   -0.1215 C   0  0  0  0  0  0  0  0  0  0  0  0
    4.3474    1.1308   -0.0892 C   0  0  0  0  0  0  0  0  0  0  0  0
    5.0169   -0.0335   -0.2411 N   0  0  0  0  0  4  0  0  0  0  0  0
    6.4889   -0.0402   -0.1906 C   0  0  0  0  0  0  0  0  0  0  0  0
    4.3492   -1.1946   -0.4209 C   0  0  0  0  0  0  0  0  0  0  0  0
    2.9595   -1.2128   -0.4621 C   0  0  0  0  0  0  0  0  0  0  0  0
   -2.3525   -0.4463    0.0909 C   0  0  0  0  0  0  0  0  0  0  0  0
   -2.1865   -1.8274   -0.1552 C   0  0  0  0  0  0  0  0  0  0  0  0
   -3.3097   -2.6302   -0.3724 C   0  0  0  0  0  0  0  0  0  0  0  0
   -3.0931   -4.3113   -0.6804 Cl  0  0  0  0  0  0  0  0  0  0  0  0
   -4.5916   -2.0956   -0.3418 C   0  0  0  0  0  0  0  0  0  0  0  0
   -4.7876   -0.7364   -0.0833 C   0  0  0  0  0  0  0  0  0  0  0  0
   -3.6553    0.0668    0.1352 C   0  0  0  0  0  0  0  0  0  0  0  0
   -4.2990    3.3213    0.7993 H   0  0  0  0  0  0  0  0  0  0  0  0
   -5.2236    2.3341   -0.3703 H   0  0  0  0  0  0  0  0  0  0  0  0
   -5.2990    1.9609    1.3887 H   0  0  0  0  0  0  0  0  0  0  0  0
   -1.9571    2.7847    0.8071 H   0  0  0  0  0  0  0  0  0  0  0  0
    0.3871    1.3603    1.1287 H   0  0  0  0  0  0  0  0  0  0  0  0
    0.3617   -0.7397   -1.1144 H   0  0  0  0  0  0  0  0  0  0  0  0
    2.4414    2.1113   -0.0184 H   0  0  0  0  0  0  0  0  0  0  0  0
    4.9319    2.0353    0.0540 H   0  0  0  0  0  0  0  0  0  0  0  0
    6.8654   -0.8474   -0.8242 H   0  0  0  0  0  0  0  0  0  0  0  0
    6.8650    0.9163   -0.5627 H   0  0  0  0  0  0  0  0  0  0  0  0
    6.7795   -0.1945    0.8514 H   0  0  0  0  0  0  0  0  0  0  0  0
    4.9345   -2.1033   -0.5310 H   0  0  0  0  0  0  0  0  0  0  0  0
    2.4408   -2.1585   -0.6113 H   0  0  0  0  0  0  0  0  0  0  0  0
   -1.1973   -2.2707   -0.1658 H   0  0  0  0  0  0  0  0  0  0  0  0
   -5.4554   -2.7342   -0.5119 H   0  0  0  0  0  0  0  0  0  0  0  0
   -5.7918   -0.3243   -0.0493 H   0  0  0  0  0  0  0  0  0  0  0  0
  1  2  1  0
  2  3  1  0
  3  4  2  0
  4  5  1  0
  5  6  2  3
  6  7  1  0
  7  8  2  0
  8  9  1  0
  9 10  2  0
 10 11  1  0
 10 12  1  0
 12 13  2  0
  4 14  1  0
 14 15  2  0
 15 16  1  0
 16 17  1  0
 16 18  2  0
 18 19  1  0
 19 20  2  0
 20  2  1  0
 13  7  1  0
 20 14  1  0
  1 21  1  0
  1 22  1  0
  1 23  1  0
  3 24  1  0
  5 25  1  0
  6 26  1  0
  8 27  1  0
  9 28  1  0
 11 29  1  0
 11 30  1  0
 11 31  1  0
 12 32  1  0
 13 33  1  0
 15 34  1  0
 18 35  1  0
 19 36  1  0
M  CHG  1  10   1
M  END
$$$$
