
     RDKit          3D

 50 52  0  0  0  0  0  0  0  0999 V2000
   -4.5371   -3.8946   -0.9308 C   0  0  0  0  0  0  0  0  0  0  0  0
   -4.7490   -2.4911   -1.0163 O   0  0  0  0  0  0  0  0  0  0  0  0
   -3.8566   -1.6852   -0.3580 C   0  0  0  0  0  0  0  0  0  0  0  0
   -2.6190   -2.1042    0.1271 C   0  0  0  0  0  0  0  0  0  0  0  0
   -1.7789   -1.1863    0.7682 C   0  0  0  0  0  0  0  0  0  0  0  0
   -0.4730   -1.6630    1.2735 C   0  0  0  0  0  0  0  0  0  0  0  0
   -0.4716   -2.6329    2.0272 O   0  0  0  0  0  0  0  0  0  0  0  0
    0.6824   -0.9999    0.8795 N   0  0  0  0  0  0  0  0  0  0  0  0
    0.7691   -0.0284   -0.2230 C   0  0  0  0  0  0  0  0  0  0  0  0
    2.1070   -0.0784   -0.9892 C   0  0  0  0  0  0  0  0  0  0  0  0
    3.2893   -0.0768   -0.1046 N   0  0  0  0  0  0  0  0  0  0  0  0
    4.2899    0.8667   -0.3668 C   0  0  0  0  0  0  0  0  0  0  0  0
    5.5509    0.3577   -0.7266 C   0  0  0  0  0  0  0  0  0  0  0  0
    6.6213    1.2072   -1.0070 C   0  0  0  0  0  0  0  0  0  0  0  0
    8.1465    0.5453   -1.4488 Cl  0  0  0  0  0  0  0  0  0  0  0  0
    6.4640    2.5866   -0.9318 C   0  0  0  0  0  0  0  0  0  0  0  0
    5.2263    3.1171   -0.5701 C   0  0  0  0  0  0  0  0  0  0  0  0
    4.1471    2.2684   -0.2872 C   0  0  0  0  0  0  0  0  0  0  0  0
    2.6639    3.0290    0.1766 Cl  0  0  0  0  0  0  0  0  0  0  0  0
    3.0523   -0.3489    1.3250 C   0  0  0  0  0  0  0  0  0  0  0  0
    1.9511   -1.4076    1.4906 C   0  0  0  0  0  0  0  0  0  0  0  0
   -2.1760    0.1408    0.9758 C   0  0  0  0  0  0  0  0  0  0  0  0
   -3.4085    0.5762    0.4918 C   0  0  0  0  0  0  0  0  0  0  0  0
   -3.8891    1.8534    0.6175 O   0  0  0  0  0  0  0  0  0  0  0  0
   -3.1975    2.7280    1.4994 C   0  0  0  0  0  0  0  0  0  0  0  0
   -4.2287   -0.3371   -0.1975 C   0  0  0  0  0  0  0  0  0  0  0  0
   -5.4654    0.0744   -0.6456 O   0  0  0  0  0  0  0  0  0  0  0  0
   -5.3571    0.5684   -1.9792 C   0  0  0  0  0  0  0  0  0  0  0  0
   -4.4693   -4.2266    0.1108 H   0  0  0  0  0  0  0  0  0  0  0  0
   -5.4009   -4.3913   -1.3833 H   0  0  0  0  0  0  0  0  0  0  0  0
   -3.6492   -4.1902   -1.4991 H   0  0  0  0  0  0  0  0  0  0  0  0
   -2.2773   -3.1287    0.0205 H   0  0  0  0  0  0  0  0  0  0  0  0
   -0.0508   -0.1875   -0.9302 H   0  0  0  0  0  0  0  0  0  0  0  0
    0.6333    0.9593    0.2282 H   0  0  0  0  0  0  0  0  0  0  0  0
    2.1403   -1.0167   -1.5579 H   0  0  0  0  0  0  0  0  0  0  0  0
    2.1377    0.7303   -1.7295 H   0  0  0  0  0  0  0  0  0  0  0  0
    5.6868   -0.7198   -0.7912 H   0  0  0  0  0  0  0  0  0  0  0  0
    7.2961    3.2511   -1.1489 H   0  0  0  0  0  0  0  0  0  0  0  0
    5.1078    4.1963   -0.5060 H   0  0  0  0  0  0  0  0  0  0  0  0
    3.9741   -0.7182    1.7901 H   0  0  0  0  0  0  0  0  0  0  0  0
    2.7545    0.5668    1.8498 H   0  0  0  0  0  0  0  0  0  0  0  0
    2.2519   -2.3451    1.0066 H   0  0  0  0  0  0  0  0  0  0  0  0
    1.7891   -1.6196    2.5534 H   0  0  0  0  0  0  0  0  0  0  0  0
   -1.5110    0.8032    1.5192 H   0  0  0  0  0  0  0  0  0  0  0  0
   -3.1291    2.3058    2.5076 H   0  0  0  0  0  0  0  0  0  0  0  0
   -3.7708    3.6579    1.5661 H   0  0  0  0  0  0  0  0  0  0  0  0
   -2.2063    2.9753    1.1057 H   0  0  0  0  0  0  0  0  0  0  0  0
   -6.3610    0.8442   -2.3158 H   0  0  0  0  0  0  0  0  0  0  0  0
   -4.7291    1.4652   -2.0205 H   0  0  0  0  0  0  0  0  0  0  0  0
   -4.9705   -0.1966   -2.6619 H   0  0  0  0  0  0  0  0  0  0  0  0
  1  2  1  0
  2  3  1  0
  3  4  2  0
  4  5  1  0
  5  6  1  0
  6  7  2  0
  6  8  1  0
  8  9  1  0
  9 10  1  0
 10 11  1  0
 11 12  1  0
 12 13  2  0
 13 14  1  0
 14 15  1  0
 14 16  2  0
 16 17  1  0
 17 18  2  0
 18 19  1  0
 11 20  1  0
 20 21  1  0
  5 22  2  0
 22 23  1  0
 23 24  1  0
 24 25  1  0
 23 26  2  0
 26 27  1  0
 27 28  1  0
 26  3  1  0
 21  8  1  0
 18 12  1  0
  1 29  1  0
  1 30  1  0
  1 31  1  0
  4 32  1  0
  9 33  1  0
  9 34  1  0
 10 35  1  0
 10 36  1  0
 13 37  1  0
 16 38  1  0
 17 39  1  0
 20 40  1  0
 20 41  1  0
 21 42  1  0
 21 43  1  0
 22 44  1  0
 25 45  1  0
 25 46  1  0
 25 47  1  0
 28 48  1  0
 28 49  1  0
 28 50  1  0
M  END
$$$$
