
     RDKit          3D

 31 33  0  0  0  0  0  0  0  0999 V2000
    4.2419    2.7236    1.0120 O   0  0  0  0  0  0  0  0  0  0  0  0
    3.8679    2.2815   -0.0640 C   0  0  0  0  0  0  0  0  0  0  0  0
    4.0766    2.9766   -1.1997 O   0  0  0  0  0  0  0  0  0  0  0  0
    3.1802    0.9552   -0.3043 C   0  0  0  0  0  0  0  0  0  0  0  0
    2.7799    0.3676    0.9821 N   0  0  0  0  0  0  0  0  0  0  0  0
    1.8778   -1.0405    0.9627 S   0  0  0  0  0  6  0  0  0  0  0  0
    1.9808   -1.6100    2.2860 O   0  0  0  0  0  0  0  0  0  0  0  0
    2.2738   -1.7638   -0.2239 O   0  0  0  0  0  0  0  0  0  0  0  0
    0.2132   -0.4460    0.7838 C   0  0  0  0  0  0  0  0  0  0  0  0
   -0.1428    0.7394    1.4900 C   0  0  0  0  0  0  0  0  0  0  0  0
   -1.4265    1.2953    1.3834 C   0  0  0  0  0  0  0  0  0  0  0  0
   -2.3241    0.6442    0.5720 C   0  0  0  0  0  0  0  0  0  0  0  0
   -1.9767   -0.5023   -0.0951 C   0  0  0  0  0  0  0  0  0  0  0  0
   -3.0552   -0.9496   -0.8174 C   0  0  0  0  0  0  0  0  0  0  0  0
   -2.9806   -2.0981   -1.5745 C   0  0  0  0  0  0  0  0  0  0  0  0
   -1.7618   -2.7880   -1.5698 C   0  0  0  0  0  0  0  0  0  0  0  0
   -0.6546   -2.3184   -0.8201 C   0  0  0  0  0  0  0  0  0  0  0  0
   -0.7300   -1.1236   -0.0444 C   0  0  0  0  0  0  0  0  0  0  0  0
   -4.1632    0.0022   -0.5838 C   0  0  0  0  0  0  0  0  0  0  0  0
   -5.2792   -0.0576   -1.0563 O   0  0  0  0  0  0  0  0  0  0  0  0
   -3.6475    0.9567    0.2787 N   0  0  0  0  0  0  0  0  0  0  0  0
    4.5350    3.7929   -0.9063 H   0  0  0  0  0  0  0  0  0  0  0  0
    2.2978    1.1245   -0.9280 H   0  0  0  0  0  0  0  0  0  0  0  0
    3.8960    0.2990   -0.8080 H   0  0  0  0  0  0  0  0  0  0  0  0
    3.4394    0.4380    1.7600 H   0  0  0  0  0  0  0  0  0  0  0  0
    0.5864    1.2280    2.1354 H   0  0  0  0  0  0  0  0  0  0  0  0
   -1.6923    2.1965    1.9243 H   0  0  0  0  0  0  0  0  0  0  0  0
   -3.8343   -2.4515   -2.1427 H   0  0  0  0  0  0  0  0  0  0  0  0
   -1.6609   -3.7046   -2.1489 H   0  0  0  0  0  0  0  0  0  0  0  0
    0.2603   -2.9073   -0.8497 H   0  0  0  0  0  0  0  0  0  0  0  0
   -4.1773    1.7402    0.6288 H   0  0  0  0  0  0  0  0  0  0  0  0
  1  2  2  0
  2  3  1  0
  2  4  1  0
  4  5  1  0
  5  6  1  0
  6  7  2  0
  6  8  2  0
  6  9  1  0
  9 10  2  0
 10 11  1  0
 11 12  2  0
 12 13  1  0
 13 14  2  0
 14 15  1  0
 15 16  2  0
 16 17  1  0
 17 18  2  0
 14 19  1  0
 19 20  2  0
 19 21  1  0
 18  9  1  0
 21 12  1  0
 18 13  1  0
  3 22  1  0
  4 23  1  0
  4 24  1  0
  5 25  1  0
 10 26  1  0
 11 27  1  0
 15 28  1  0
 16 29  1  0
 17 30  1  0
 21 31  1  0
M  END
$$$$
