
     RDKit          3D

 43 44  0  0  0  0  0  0  0  0999 V2000
   -2.4025    0.1951   -3.0966 C   0  0  0  0  0  0  0  0  0  0  0  0
   -2.7440    1.2576   -2.2112 O   0  0  0  0  0  0  0  0  0  0  0  0
   -2.6749    0.9724   -0.8710 C   0  0  0  0  0  0  0  0  0  0  0  0
   -2.4824   -0.2902   -0.3097 C   0  0  0  0  0  0  0  0  0  0  0  0
   -2.3937   -0.4433    1.0819 C   0  0  0  0  0  0  0  0  0  0  0  0
   -2.1826   -1.7577    1.6990 C   0  0  0  0  0  0  0  0  0  0  0  0
   -1.1331   -2.5736    1.5193 C   0  0  0  0  0  0  0  0  0  0  0  0
    0.0269   -2.2880    0.6279 C   0  0  0  0  0  0  0  0  0  0  0  0
   -0.1337   -2.1835   -0.5869 O   0  0  0  0  0  0  0  0  0  0  0  0
    1.3926   -2.2664    1.2602 C   0  0  0  0  0  0  0  0  0  0  0  0
    1.4713   -1.4650    2.5336 C   0  0  0  0  0  0  0  0  0  0  0  0
    1.7621   -2.0031    3.6038 O   0  0  0  0  0  0  0  0  0  0  0  0
    1.1133   -0.0206    2.5580 C   0  0  0  0  0  0  0  0  0  0  0  0
    1.3554    0.9235    1.6379 C   0  0  0  0  0  0  0  0  0  0  0  0
    2.1224    0.7769    0.4035 C   0  0  0  0  0  0  0  0  0  0  0  0
    3.5079    0.5771    0.4464 C   0  0  0  0  0  0  0  0  0  0  0  0
    4.2324    0.4394   -0.7383 C   0  0  0  0  0  0  0  0  0  0  0  0
    3.5729    0.5088   -1.9596 C   0  0  0  0  0  0  0  0  0  0  0  0
    4.3179    0.3682   -3.0932 O   0  0  0  0  0  0  0  0  0  0  0  0
    2.1989    0.7191   -2.0184 C   0  0  0  0  0  0  0  0  0  0  0  0
    1.4742    0.8604   -0.8331 C   0  0  0  0  0  0  0  0  0  0  0  0
   -2.5500    0.6757    1.9121 C   0  0  0  0  0  0  0  0  0  0  0  0
   -2.7595    1.9379    1.3604 C   0  0  0  0  0  0  0  0  0  0  0  0
   -2.8164    2.0732   -0.0204 C   0  0  0  0  0  0  0  0  0  0  0  0
   -3.0159    3.3236   -0.5397 O   0  0  0  0  0  0  0  0  0  0  0  0
   -2.4247    0.5912   -4.1164 H   0  0  0  0  0  0  0  0  0  0  0  0
   -3.1359   -0.6157   -3.0392 H   0  0  0  0  0  0  0  0  0  0  0  0
   -1.3881   -0.1706   -2.9040 H   0  0  0  0  0  0  0  0  0  0  0  0
   -2.3932   -1.1728   -0.9362 H   0  0  0  0  0  0  0  0  0  0  0  0
   -2.9538   -2.0524    2.4090 H   0  0  0  0  0  0  0  0  0  0  0  0
   -1.0576   -3.4967    2.0857 H   0  0  0  0  0  0  0  0  0  0  0  0
    2.1344   -1.9122    0.5433 H   0  0  0  0  0  0  0  0  0  0  0  0
    1.6626   -3.3054    1.4879 H   0  0  0  0  0  0  0  0  0  0  0  0
    0.6002    0.2664    3.4728 H   0  0  0  0  0  0  0  0  0  0  0  0
    0.9921    1.9346    1.8180 H   0  0  0  0  0  0  0  0  0  0  0  0
    4.0328    0.5272    1.3975 H   0  0  0  0  0  0  0  0  0  0  0  0
    5.3064    0.2801   -0.7087 H   0  0  0  0  0  0  0  0  0  0  0  0
    3.7259    0.4422   -3.8606 H   0  0  0  0  0  0  0  0  0  0  0  0
    1.6758    0.7727   -2.9674 H   0  0  0  0  0  0  0  0  0  0  0  0
    0.3997    1.0206   -0.8829 H   0  0  0  0  0  0  0  0  0  0  0  0
   -2.5073    0.5735    2.9943 H   0  0  0  0  0  0  0  0  0  0  0  0
   -2.8813    2.8083    1.9978 H   0  0  0  0  0  0  0  0  0  0  0  0
   -3.0474    3.1917   -1.5076 H   0  0  0  0  0  0  0  0  0  0  0  0
  1  2  1  0
  2  3  1  0
  3  4  2  0
  4  5  1  0
  5  6  1  0
  6  7  2  3
  7  8  1  0
  8  9  2  0
  8 10  1  0
 10 11  1  0
 11 12  2  0
 11 13  1  0
 13 14  2  3
 14 15  1  0
 15 16  2  0
 16 17  1  0
 17 18  2  0
 18 19  1  0
 18 20  1  0
 20 21  2  0
  5 22  2  0
 22 23  1  0
 23 24  2  0
 24 25  1  0
 24  3  1  0
 21 15  1  0
  1 26  1  0
  1 27  1  0
  1 28  1  0
  4 29  1  0
  6 30  1  0
  7 31  1  0
 10 32  1  0
 10 33  1  0
 13 34  1  0
 14 35  1  0
 16 36  1  0
 17 37  1  0
 19 38  1  0
 20 39  1  0
 21 40  1  0
 22 41  1  0
 23 42  1  0
 25 43  1  0
M  END
$$$$
