
     RDKit          3D

 33 35  0  0  0  0  0  0  0  0999 V2000
    0.2980   -0.9575   -1.5025 O   0  0  0  0  0  0  0  0  0  0  0  0
    0.1946   -1.4935   -0.4084 C   0  0  0  0  0  0  0  0  0  0  0  0
    1.2451   -1.5865    0.6458 C   0  0  0  0  0  0  0  0  0  0  0  0
    2.4160   -0.9402    0.7373 C   0  0  0  0  0  0  0  0  0  0  0  0
    2.9025    0.0034   -0.2076 C   0  0  0  0  0  0  0  0  0  0  0  0
    3.1102   -0.1032   -1.5713 C   0  0  0  0  0  0  0  0  0  0  0  0
    3.6343    1.0892   -2.1508 C   0  0  0  0  0  0  0  0  0  0  0  0
    3.8342    2.0722   -1.2106 C   0  0  0  0  0  0  0  0  0  0  0  0
    3.3978    1.5557    0.3572 S   0  0  0  0  0  0  0  0  0  0  0  0
    0.6989   -2.6519    1.9093 S   0  0  0  0  0  0  0  0  0  0  0  0
   -0.8923   -2.8791    1.1910 C   0  0  0  0  0  0  0  0  0  0  0  0
   -2.0679   -3.8414    1.8667 S   0  0  0  0  0  0  0  0  0  0  0  0
   -0.9480   -2.1461    0.0273 N   0  0  0  0  0  0  0  0  0  0  0  0
   -2.1729   -2.0835   -0.8559 N   0  0  0  0  0  0  0  0  0  0  0  0
   -3.2983   -0.8351   -0.5408 S   0  0  0  0  0  6  0  0  0  0  0  0
   -3.6402   -0.2713   -1.8290 O   0  0  0  0  0  0  0  0  0  0  0  0
   -4.3120   -1.3550    0.3489 O   0  0  0  0  0  0  0  0  0  0  0  0
   -2.3674    0.3867    0.3549 C   0  0  0  0  0  0  0  0  0  0  0  0
   -1.6088    1.3292   -0.3455 C   0  0  0  0  0  0  0  0  0  0  0  0
   -0.8409    2.2529    0.3624 C   0  0  0  0  0  0  0  0  0  0  0  0
   -0.8516    2.2475    1.7582 C   0  0  0  0  0  0  0  0  0  0  0  0
   -1.6375    1.3266    2.4530 C   0  0  0  0  0  0  0  0  0  0  0  0
   -2.4046    0.3958    1.7534 C   0  0  0  0  0  0  0  0  0  0  0  0
    3.0312   -1.0858    1.6243 H   0  0  0  0  0  0  0  0  0  0  0  0
    2.8867   -0.9972   -2.1419 H   0  0  0  0  0  0  0  0  0  0  0  0
    3.8540    1.2151   -3.2039 H   0  0  0  0  0  0  0  0  0  0  0  0
    4.2220    3.0694   -1.3677 H   0  0  0  0  0  0  0  0  0  0  0  0
   -1.9299   -2.0300   -1.8531 H   0  0  0  0  0  0  0  0  0  0  0  0
   -1.5893    1.3361   -1.4339 H   0  0  0  0  0  0  0  0  0  0  0  0
   -0.2317    2.9773   -0.1741 H   0  0  0  0  0  0  0  0  0  0  0  0
   -0.2537    2.9731    2.3057 H   0  0  0  0  0  0  0  0  0  0  0  0
   -1.6564    1.3407    3.5406 H   0  0  0  0  0  0  0  0  0  0  0  0
   -3.0219   -0.3135    2.3020 H   0  0  0  0  0  0  0  0  0  0  0  0
  1  2  2  0
  2  3  1  0
  3  4  2  3
  4  5  1  0
  5  6  2  0
  6  7  1  0
  7  8  2  0
  8  9  1  0
  3 10  1  0
 10 11  1  0
 11 12  2  0
 11 13  1  0
 13 14  1  0
 14 15  1  0
 15 16  2  0
 15 17  2  0
 15 18  1  0
 18 19  2  0
 19 20  1  0
 20 21  2  0
 21 22  1  0
 22 23  2  0
 13  2  1  0
 23 18  1  0
  9  5  1  0
  4 24  1  0
  6 25  1  0
  7 26  1  0
  8 27  1  0
 14 28  1  0
 19 29  1  0
 20 30  1  0
 21 31  1  0
 22 32  1  0
 23 33  1  0
M  END
$$$$
