
     RDKit          3D

 52 54  0  0  0  0  0  0  0  0999 V2000
    6.5672    1.7478   -2.0856 C   0  0  0  0  0  0  0  0  0  0  0  0
    6.0661    0.4986   -1.5273 N   0  0  0  0  0  0  0  0  0  0  0  0
    7.0701   -0.4728   -1.0752 C   0  0  0  0  0  0  0  0  0  0  0  0
    7.6587   -0.1178    0.2914 C   0  0  0  0  0  0  0  0  0  0  0  0
    8.6169   -1.1431    0.7150 C   0  0  0  0  0  0  0  0  0  0  0  0
    9.3687   -1.9640    1.0403 N   0  0  0  0  0  0  0  0  0  0  0  0
    4.7080    0.4309   -1.2067 C   0  0  0  0  0  0  0  0  0  0  0  0
    3.9544    1.3943   -1.3659 O   0  0  0  0  0  0  0  0  0  0  0  0
    4.1825   -0.8924   -0.6281 C   0  0  0  0  0  0  0  0  0  0  0  0
    2.7660   -0.8801   -0.4381 O   0  0  0  0  0  0  0  0  0  0  0  0
    2.0548   -1.0517   -1.5793 C   0  0  0  0  0  0  0  0  0  0  0  0
    2.5157   -1.3362   -2.6731 O   0  0  0  0  0  0  0  0  0  0  0  0
    0.6003   -0.8626   -1.3246 C   0  0  0  0  0  0  0  0  0  0  0  0
   -0.2914   -1.0485   -2.4123 C   0  0  0  0  0  0  0  0  0  0  0  0
   -1.6732   -0.8852   -2.2541 C   0  0  0  0  0  0  0  0  0  0  0  0
   -2.1261   -0.5349   -0.9981 C   0  0  0  0  0  0  0  0  0  0  0  0
   -1.2623   -0.3516    0.0645 C   0  0  0  0  0  0  0  0  0  0  0  0
    0.1060   -0.5057   -0.0600 C   0  0  0  0  0  0  0  0  0  0  0  0
   -2.0684    0.0033    1.2297 C   0  0  0  0  0  0  0  0  0  0  0  0
   -1.6011    0.2094    2.3333 O   0  0  0  0  0  0  0  0  0  0  0  0
   -3.3740    0.0331    0.8137 N   0  0  0  0  0  0  0  0  0  0  0  0
   -4.4923    0.3326    1.7058 C   0  0  0  0  0  0  0  0  0  0  0  0
   -5.2853    1.5628    1.2401 C   0  0  0  0  0  0  0  0  0  0  0  0
   -6.4436    1.8709    2.1866 C   0  0  0  0  0  0  0  0  0  0  0  0
   -7.3536    0.6602    2.3742 C   0  0  0  0  0  0  0  0  0  0  0  0
   -6.5719   -0.5671    2.8344 C   0  0  0  0  0  0  0  0  0  0  0  0
   -5.4127   -0.8830    1.8917 C   0  0  0  0  0  0  0  0  0  0  0  0
   -3.4834   -0.2955   -0.5121 C   0  0  0  0  0  0  0  0  0  0  0  0
   -4.4727   -0.3982   -1.2115 O   0  0  0  0  0  0  0  0  0  0  0  0
    6.9621    2.3649   -1.2736 H   0  0  0  0  0  0  0  0  0  0  0  0
    5.7772    2.3028   -2.5992 H   0  0  0  0  0  0  0  0  0  0  0  0
    7.3616    1.5304   -2.8053 H   0  0  0  0  0  0  0  0  0  0  0  0
    6.6229   -1.4708   -1.0373 H   0  0  0  0  0  0  0  0  0  0  0  0
    7.8590   -0.5224   -1.8362 H   0  0  0  0  0  0  0  0  0  0  0  0
    8.1575    0.8568    0.2462 H   0  0  0  0  0  0  0  0  0  0  0  0
    6.8584   -0.0273    1.0346 H   0  0  0  0  0  0  0  0  0  0  0  0
    4.4731   -1.7356   -1.2640 H   0  0  0  0  0  0  0  0  0  0  0  0
    4.6311   -1.0356    0.3599 H   0  0  0  0  0  0  0  0  0  0  0  0
    0.1013   -1.3203   -3.3927 H   0  0  0  0  0  0  0  0  0  0  0  0
   -2.3611   -1.0252   -3.0822 H   0  0  0  0  0  0  0  0  0  0  0  0
    0.7531   -0.3468    0.7969 H   0  0  0  0  0  0  0  0  0  0  0  0
   -4.0651    0.5723    2.6890 H   0  0  0  0  0  0  0  0  0  0  0  0
   -5.6845    1.4053    0.2311 H   0  0  0  0  0  0  0  0  0  0  0  0
   -4.6207    2.4332    1.1790 H   0  0  0  0  0  0  0  0  0  0  0  0
   -7.0258    2.7124    1.7944 H   0  0  0  0  0  0  0  0  0  0  0  0
   -6.0463    2.1837    3.1600 H   0  0  0  0  0  0  0  0  0  0  0  0
   -8.1339    0.8959    3.1066 H   0  0  0  0  0  0  0  0  0  0  0  0
   -7.8607    0.4354    1.4278 H   0  0  0  0  0  0  0  0  0  0  0  0
   -6.1830   -0.3942    3.8455 H   0  0  0  0  0  0  0  0  0  0  0  0
   -7.2436   -1.4308    2.8944 H   0  0  0  0  0  0  0  0  0  0  0  0
   -4.8381   -1.7287    2.2888 H   0  0  0  0  0  0  0  0  0  0  0  0
   -5.8178   -1.2090    0.9261 H   0  0  0  0  0  0  0  0  0  0  0  0
  1  2  1  0
  2  3  1  0
  3  4  1  0
  4  5  1  0
  5  6  3  0
  2  7  1  0
  7  8  2  0
  7  9  1  0
  9 10  1  0
 10 11  1  0
 11 12  2  0
 11 13  1  0
 13 14  2  0
 14 15  1  0
 15 16  2  0
 16 17  1  0
 17 18  2  0
 17 19  1  0
 19 20  2  0
 19 21  1  0
 21 22  1  0
 22 23  1  0
 23 24  1  0
 24 25  1  0
 25 26  1  0
 26 27  1  0
 21 28  1  0
 28 29  2  0
 18 13  1  0
 27 22  1  0
 28 16  1  0
  1 30  1  0
  1 31  1  0
  1 32  1  0
  3 33  1  0
  3 34  1  0
  4 35  1  0
  4 36  1  0
  9 37  1  0
  9 38  1  0
 14 39  1  0
 15 40  1  0
 18 41  1  0
 22 42  1  0
 23 43  1  0
 23 44  1  0
 24 45  1  0
 24 46  1  0
 25 47  1  0
 25 48  1  0
 26 49  1  0
 26 50  1  0
 27 51  1  0
 27 52  1  0
M  END
$$$$
