
     RDKit          3D

 56 59  0  0  0  0  0  0  0  0999 V2000
    3.1483   -2.0838   -2.0042 C   0  0  0  0  0  0  0  0  0  0  0  0
    2.6600   -1.1042   -0.9363 C   0  0  0  0  0  0  0  0  0  0  0  0
    3.7705   -0.1649   -0.4399 C   0  0  0  0  0  0  0  0  0  0  0  0
    4.9049   -0.8974    0.2821 C   0  0  0  0  0  0  0  0  0  0  0  0
    5.9104    0.0706    0.8564 C   0  0  0  0  0  0  0  0  0  0  0  0
    5.8080    0.4933    2.1888 C   0  0  0  0  0  0  0  0  0  0  0  0
    6.7329    1.3953    2.7176 C   0  0  0  0  0  0  0  0  0  0  0  0
    7.7630    1.8876    1.9182 C   0  0  0  0  0  0  0  0  0  0  0  0
    7.8687    1.4804    0.5891 C   0  0  0  0  0  0  0  0  0  0  0  0
    6.9459    0.5770    0.0589 C   0  0  0  0  0  0  0  0  0  0  0  0
    1.5570   -0.3112   -1.4701 N   0  0  0  0  0  0  0  0  0  0  0  0
    0.2548   -0.7722   -1.4709 C   0  0  0  0  0  0  0  0  0  0  0  0
   -0.0782   -1.8477   -0.9782 O   0  0  0  0  0  0  0  0  0  0  0  0
   -0.7380    0.1692   -2.1627 C   0  0  0  0  0  0  0  0  0  0  0  0
   -2.0706    0.0474   -1.6749 O   0  0  0  0  0  0  0  0  0  0  0  0
   -2.2485    0.6019   -0.4513 C   0  0  0  0  0  0  0  0  0  0  0  0
   -1.4267    1.2214    0.2017 O   0  0  0  0  0  0  0  0  0  0  0  0
   -3.6339    0.3428   -0.0241 C   0  0  0  0  0  0  0  0  0  0  0  0
   -4.6629    1.2128   -0.4798 C   0  0  0  0  0  0  0  0  0  0  0  0
   -4.4536    2.3276   -1.3305 C   0  0  0  0  0  0  0  0  0  0  0  0
   -5.5110    3.1390   -1.7483 C   0  0  0  0  0  0  0  0  0  0  0  0
   -6.8034    2.8609   -1.3249 C   0  0  0  0  0  0  0  0  0  0  0  0
   -7.0362    1.7751   -0.4818 C   0  0  0  0  0  0  0  0  0  0  0  0
   -5.9824    0.9497   -0.0534 C   0  0  0  0  0  0  0  0  0  0  0  0
   -6.2356   -0.1361    0.7999 C   0  0  0  0  0  0  0  0  0  0  0  0
   -5.2118   -0.9858    1.2513 C   0  0  0  0  0  0  0  0  0  0  0  0
   -5.5078   -2.0621    2.1067 C   0  0  0  0  0  0  0  0  0  0  0  0
   -4.5048   -2.9176    2.5612 C   0  0  0  0  0  0  0  0  0  0  0  0
   -3.1909   -2.7077    2.1667 C   0  0  0  0  0  0  0  0  0  0  0  0
   -2.8818   -1.6421    1.3189 C   0  0  0  0  0  0  0  0  0  0  0  0
   -3.8806   -0.7570    0.8420 C   0  0  0  0  0  0  0  0  0  0  0  0
    3.9287   -2.7456   -1.6185 H   0  0  0  0  0  0  0  0  0  0  0  0
    3.5465   -1.5522   -2.8762 H   0  0  0  0  0  0  0  0  0  0  0  0
    2.3287   -2.7201   -2.3547 H   0  0  0  0  0  0  0  0  0  0  0  0
    2.2761   -1.6826   -0.0868 H   0  0  0  0  0  0  0  0  0  0  0  0
    3.3264    0.5732    0.2439 H   0  0  0  0  0  0  0  0  0  0  0  0
    4.1737    0.4134   -1.2825 H   0  0  0  0  0  0  0  0  0  0  0  0
    5.4276   -1.5782   -0.4005 H   0  0  0  0  0  0  0  0  0  0  0  0
    4.4989   -1.5238    1.0866 H   0  0  0  0  0  0  0  0  0  0  0  0
    5.0073    0.1212    2.8238 H   0  0  0  0  0  0  0  0  0  0  0  0
    6.6491    1.7129    3.7532 H   0  0  0  0  0  0  0  0  0  0  0  0
    8.4829    2.5887    2.3312 H   0  0  0  0  0  0  0  0  0  0  0  0
    8.6708    1.8662   -0.0346 H   0  0  0  0  0  0  0  0  0  0  0  0
    7.0411    0.2687   -0.9799 H   0  0  0  0  0  0  0  0  0  0  0  0
    1.7745    0.5546   -1.9477 H   0  0  0  0  0  0  0  0  0  0  0  0
   -0.7535   -0.1027   -3.2236 H   0  0  0  0  0  0  0  0  0  0  0  0
   -0.4012    1.2113   -2.1000 H   0  0  0  0  0  0  0  0  0  0  0  0
   -3.4533    2.5799   -1.6786 H   0  0  0  0  0  0  0  0  0  0  0  0
   -5.3213    3.9863   -2.4021 H   0  0  0  0  0  0  0  0  0  0  0  0
   -7.6307    3.4892   -1.6456 H   0  0  0  0  0  0  0  0  0  0  0  0
   -8.0563    1.5770   -0.1584 H   0  0  0  0  0  0  0  0  0  0  0  0
   -7.2595   -0.3250    1.1234 H   0  0  0  0  0  0  0  0  0  0  0  0
   -6.5315   -2.2448    2.4275 H   0  0  0  0  0  0  0  0  0  0  0  0
   -4.7510   -3.7457    3.2207 H   0  0  0  0  0  0  0  0  0  0  0  0
   -2.4010   -3.3696    2.5120 H   0  0  0  0  0  0  0  0  0  0  0  0
   -1.8391   -1.5145    1.0304 H   0  0  0  0  0  0  0  0  0  0  0  0
  1  2  1  0
  2  3  1  0
  3  4  1  0
  4  5  1  0
  5  6  2  0
  6  7  1  0
  7  8  2  0
  8  9  1  0
  9 10  2  0
  2 11  1  0
 11 12  1  0
 12 13  2  0
 12 14  1  0
 14 15  1  0
 15 16  1  0
 16 17  2  0
 16 18  1  0
 18 19  1  0
 19 20  2  0
 20 21  1  0
 21 22  2  0
 22 23  1  0
 23 24  2  0
 24 25  1  0
 25 26  2  0
 26 27  1  0
 27 28  2  0
 28 29  1  0
 29 30  2  0
 30 31  1  0
 10  5  1  0
 31 18  2  0
 24 19  1  0
 31 26  1  0
  1 32  1  0
  1 33  1  0
  1 34  1  0
  2 35  1  0
  3 36  1  0
  3 37  1  0
  4 38  1  0
  4 39  1  0
  6 40  1  0
  7 41  1  0
  8 42  1  0
  9 43  1  0
 10 44  1  0
 11 45  1  0
 14 46  1  0
 14 47  1  0
 20 48  1  0
 21 49  1  0
 22 50  1  0
 23 51  1  0
 25 52  1  0
 27 53  1  0
 28 54  1  0
 29 55  1  0
 30 56  1  0
M  END
$$$$
