
     RDKit          3D

 44 46  0  0  0  0  0  0  0  0999 V2000
    0.9004    0.3903   -1.4333 N   0  0  0  0  0  0  0  0  0  0  0  0
    0.5470    0.0857   -0.3696 C   0  0  0  0  0  0  0  0  0  0  0  0
    0.0159   -0.3300    0.8810 C   0  0  0  0  0  0  0  0  0  0  0  0
    0.5957   -0.0950    2.0743 C   0  0  0  0  0  0  0  0  0  0  0  0
    1.8229    0.6031    2.2600 C   0  0  0  0  0  0  0  0  0  0  0  0
    2.4794    0.8784    3.4531 C   0  0  0  0  0  0  0  0  0  0  0  0
    3.6618    1.5949    3.1469 C   0  0  0  0  0  0  0  0  0  0  0  0
    3.6893    1.7342    1.7770 C   0  0  0  0  0  0  0  0  0  0  0  0
    4.6080    2.3553    0.8249 C   0  0  0  0  0  0  0  0  0  0  0  0
    4.3555    2.3275   -0.5564 C   0  0  0  0  0  0  0  0  0  0  0  0
    5.2377    2.9233   -1.4640 C   0  0  0  0  0  0  0  0  0  0  0  0
    6.3856    3.5551   -0.9964 C   0  0  0  0  0  0  0  0  0  0  0  0
    7.5804    4.3614   -2.2184 Br  0  0  0  0  0  0  0  0  0  0  0  0
    6.6583    3.5962    0.3681 C   0  0  0  0  0  0  0  0  0  0  0  0
    5.7729    2.9987    1.2724 C   0  0  0  0  0  0  0  0  0  0  0  0
    2.5832    1.1374    1.2486 O   0  0  0  0  0  0  0  0  0  0  0  0
   -1.2817   -1.0864    0.9141 C   0  0  0  0  0  0  0  0  0  0  0  0
   -1.7797   -1.4567    1.9750 O   0  0  0  0  0  0  0  0  0  0  0  0
   -1.8788   -1.3336   -0.3046 N   0  0  0  0  0  0  0  0  0  0  0  0
   -3.1910   -1.9633   -0.4008 C   0  0  0  0  0  0  0  0  0  0  0  0
   -4.3093   -0.9371   -0.2006 C   0  0  0  0  0  0  0  0  0  0  0  0
   -5.6918   -1.5939   -0.1975 C   0  0  0  0  0  0  0  0  0  0  0  0
   -5.7622   -2.8787   -1.0243 C   0  0  0  0  0  0  0  0  0  0  0  0
   -4.7963   -2.8471   -2.2001 C   0  0  0  0  0  0  0  0  0  0  0  0
   -3.3423   -2.6914   -1.7467 C   0  0  0  0  0  0  0  0  0  0  0  0
    0.1143   -0.4535    2.9826 H   0  0  0  0  0  0  0  0  0  0  0  0
    2.1379    0.5906    4.4387 H   0  0  0  0  0  0  0  0  0  0  0  0
    4.3991    1.9615    3.8464 H   0  0  0  0  0  0  0  0  0  0  0  0
    3.4635    1.8386   -0.9455 H   0  0  0  0  0  0  0  0  0  0  0  0
    5.0148    2.8850   -2.5271 H   0  0  0  0  0  0  0  0  0  0  0  0
    7.5532    4.0881    0.7400 H   0  0  0  0  0  0  0  0  0  0  0  0
    6.0092    3.0450    2.3326 H   0  0  0  0  0  0  0  0  0  0  0  0
   -1.5070   -0.9217   -1.1531 H   0  0  0  0  0  0  0  0  0  0  0  0
   -3.2603   -2.7064    0.4047 H   0  0  0  0  0  0  0  0  0  0  0  0
   -4.1718   -0.3792    0.7334 H   0  0  0  0  0  0  0  0  0  0  0  0
   -4.2639   -0.1906   -1.0051 H   0  0  0  0  0  0  0  0  0  0  0  0
   -5.9909   -1.8233    0.8324 H   0  0  0  0  0  0  0  0  0  0  0  0
   -6.4248   -0.8697   -0.5735 H   0  0  0  0  0  0  0  0  0  0  0  0
   -6.7879   -3.0320   -1.3784 H   0  0  0  0  0  0  0  0  0  0  0  0
   -5.5218   -3.7371   -0.3845 H   0  0  0  0  0  0  0  0  0  0  0  0
   -4.8983   -3.7582   -2.8005 H   0  0  0  0  0  0  0  0  0  0  0  0
   -5.0612   -2.0095   -2.8579 H   0  0  0  0  0  0  0  0  0  0  0  0
   -2.8764   -3.6814   -1.6594 H   0  0  0  0  0  0  0  0  0  0  0  0
   -2.7884   -2.1744   -2.5409 H   0  0  0  0  0  0  0  0  0  0  0  0
  1  2  3  0
  2  3  1  0
  3  4  2  3
  4  5  1  0
  5  6  2  0
  6  7  1  0
  7  8  2  0
  8  9  1  0
  9 10  2  0
 10 11  1  0
 11 12  2  0
 12 13  1  0
 12 14  1  0
 14 15  2  0
  8 16  1  0
  3 17  1  0
 17 18  2  0
 17 19  1  0
 19 20  1  0
 20 21  1  0
 21 22  1  0
 22 23  1  0
 23 24  1  0
 24 25  1  0
 16  5  1  0
 25 20  1  0
 15  9  1  0
  4 26  1  0
  6 27  1  0
  7 28  1  0
 10 29  1  0
 11 30  1  0
 14 31  1  0
 15 32  1  0
 19 33  1  0
 20 34  1  0
 21 35  1  0
 21 36  1  0
 22 37  1  0
 22 38  1  0
 23 39  1  0
 23 40  1  0
 24 41  1  0
 24 42  1  0
 25 43  1  0
 25 44  1  0
M  END
$$$$
