
     RDKit          3D

 58 60  0  0  0  0  0  0  0  0999 V2000
    1.7542   -2.0357    4.0367 C   0  0  0  0  0  0  0  0  0  0  0  0
    0.7006   -2.7241    3.1824 C   0  0  0  0  0  0  0  0  0  0  0  0
    1.2351   -3.2511    1.8444 C   0  0  0  0  0  0  0  0  0  0  0  0
    1.6252   -2.1740    0.8727 C   0  0  0  0  0  0  0  0  0  0  0  0
    2.9572   -1.7753    0.7853 N   0  0  0  0  0  0  0  0  0  0  0  0
    2.9945   -0.7244   -0.1371 N   0  0  0  0  0  0  0  0  0  0  0  0
    4.2038   -0.0581   -0.4339 C   0  0  0  0  0  0  0  0  0  0  0  0
    4.2374    1.0350   -1.3138 C   0  0  0  0  0  0  0  0  0  0  0  0
    5.4335    1.7154   -1.5812 C   0  0  0  0  0  0  0  0  0  0  0  0
    6.6160    1.2956   -0.9745 C   0  0  0  0  0  0  0  0  0  0  0  0
    7.8685    2.0134   -1.2362 N   0  0  0  0  0  4  0  0  0  0  0  0
    8.9249    1.4678   -0.8860 O   0  0  0  0  0  0  0  0  0  0  0  0
    7.7944    3.1253   -1.7813 O   0  0  0  0  0  1  0  0  0  0  0  0
    6.6122    0.1986   -0.1076 C   0  0  0  0  0  0  0  0  0  0  0  0
    5.4096   -0.4696    0.1568 C   0  0  0  0  0  0  0  0  0  0  0  0
    1.7169   -0.5404   -0.6784 C   0  0  0  0  0  0  0  0  0  0  0  0
    1.3170    0.2545   -1.5179 O   0  0  0  0  0  0  0  0  0  0  0  0
    0.8328   -1.5194    0.0058 C   0  0  0  0  0  0  0  0  0  0  0  0
   -0.6087   -1.6530   -0.2417 C   0  0  0  0  0  0  0  0  0  0  0  0
   -1.4093   -2.2399    0.5778 N   0  0  0  0  0  0  0  0  0  0  0  0
   -2.8218   -2.2770    0.1769 C   0  0  0  0  0  0  0  0  0  0  0  0
   -3.6204   -1.2157    0.9468 C   0  0  0  0  0  0  0  0  0  0  0  0
   -3.7184    0.0929    0.1929 C   0  0  0  0  0  0  0  0  0  0  0  0
   -2.7107    1.0572    0.2878 C   0  0  0  0  0  0  0  0  0  0  0  0
   -2.7890    2.2421   -0.4531 C   0  0  0  0  0  0  0  0  0  0  0  0
   -3.8830    2.4841   -1.2922 C   0  0  0  0  0  0  0  0  0  0  0  0
   -4.0384    3.6107   -2.0614 O   0  0  0  0  0  0  0  0  0  0  0  0
   -3.0551    4.6293   -1.9414 C   0  0  0  0  0  0  0  0  0  0  0  0
   -4.9104    1.5225   -1.3869 C   0  0  0  0  0  0  0  0  0  0  0  0
   -5.9504    1.8297   -2.2271 O   0  0  0  0  0  0  0  0  0  0  0  0
   -7.0153    0.8916   -2.3336 C   0  0  0  0  0  0  0  0  0  0  0  0
   -4.8181    0.3380   -0.6471 C   0  0  0  0  0  0  0  0  0  0  0  0
    2.0859   -1.0977    3.5939 H   0  0  0  0  0  0  0  0  0  0  0  0
    1.3388   -1.8021    5.0209 H   0  0  0  0  0  0  0  0  0  0  0  0
    2.6287   -2.6773    4.1845 H   0  0  0  0  0  0  0  0  0  0  0  0
   -0.1345   -2.0317    3.0173 H   0  0  0  0  0  0  0  0  0  0  0  0
    0.3006   -3.5740    3.7493 H   0  0  0  0  0  0  0  0  0  0  0  0
    0.4757   -3.8930    1.3904 H   0  0  0  0  0  0  0  0  0  0  0  0
    2.0915   -3.9088    2.0260 H   0  0  0  0  0  0  0  0  0  0  0  0
    3.3356   -1.5324    1.6979 H   0  0  0  0  0  0  0  0  0  0  0  0
    3.3364    1.3904   -1.8079 H   0  0  0  0  0  0  0  0  0  0  0  0
    5.4198    2.5663   -2.2643 H   0  0  0  0  0  0  0  0  0  0  0  0
    7.5252   -0.1448    0.3728 H   0  0  0  0  0  0  0  0  0  0  0  0
    5.4404   -1.3262    0.8246 H   0  0  0  0  0  0  0  0  0  0  0  0
   -0.9655   -1.1860   -1.1782 H   0  0  0  0  0  0  0  0  0  0  0  0
   -3.2014   -3.2655    0.4559 H   0  0  0  0  0  0  0  0  0  0  0  0
   -2.9539   -2.1874   -0.9108 H   0  0  0  0  0  0  0  0  0  0  0  0
   -4.6394   -1.5937    1.1207 H   0  0  0  0  0  0  0  0  0  0  0  0
   -3.1916   -1.0367    1.9433 H   0  0  0  0  0  0  0  0  0  0  0  0
   -1.8503    0.8887    0.9335 H   0  0  0  0  0  0  0  0  0  0  0  0
   -1.9696    2.9514   -0.3624 H   0  0  0  0  0  0  0  0  0  0  0  0
   -3.3633    5.4729   -2.5705 H   0  0  0  0  0  0  0  0  0  0  0  0
   -2.9872    4.9965   -0.9116 H   0  0  0  0  0  0  0  0  0  0  0  0
   -2.0816    4.2818   -2.3046 H   0  0  0  0  0  0  0  0  0  0  0  0
   -6.6665   -0.0583   -2.7582 H   0  0  0  0  0  0  0  0  0  0  0  0
   -7.5042    0.7351   -1.3651 H   0  0  0  0  0  0  0  0  0  0  0  0
   -7.7605    1.3082   -3.0228 H   0  0  0  0  0  0  0  0  0  0  0  0
   -5.5939   -0.4220   -0.7085 H   0  0  0  0  0  0  0  0  0  0  0  0
  1  2  1  0
  2  3  1  0
  3  4  1  0
  4  5  1  0
  5  6  1  0
  6  7  1  0
  7  8  2  0
  8  9  1  0
  9 10  2  0
 10 11  1  0
 11 12  2  0
 11 13  1  0
 10 14  1  0
 14 15  2  0
  6 16  1  0
 16 17  2  0
 16 18  1  0
 18 19  1  0
 19 20  2  3
 20 21  1  0
 21 22  1  0
 22 23  1  0
 23 24  2  0
 24 25  1  0
 25 26  2  0
 26 27  1  0
 27 28  1  0
 26 29  1  0
 29 30  1  0
 30 31  1  0
 29 32  2  0
 18  4  2  0
 32 23  1  0
 15  7  1  0
  1 33  1  0
  1 34  1  0
  1 35  1  0
  2 36  1  0
  2 37  1  0
  3 38  1  0
  3 39  1  0
  5 40  1  0
  8 41  1  0
  9 42  1  0
 14 43  1  0
 15 44  1  0
 19 45  1  0
 21 46  1  0
 21 47  1  0
 22 48  1  0
 22 49  1  0
 24 50  1  0
 25 51  1  0
 28 52  1  0
 28 53  1  0
 28 54  1  0
 31 55  1  0
 31 56  1  0
 31 57  1  0
 32 58  1  0
M  CHG  2  11   1  13  -1
M  END
$$$$
