
     RDKit          3D

 54 56  0  0  0  0  0  0  0  0999 V2000
   -0.9742   -4.0311    1.3140 N   0  0  0  0  0  0  0  0  0  0  0  0
   -1.9826   -3.2580    0.8706 C   0  0  0  0  0  0  0  0  0  0  0  0
   -3.2044   -3.6918    0.7713 N   0  0  0  0  0  0  0  0  0  0  0  0
   -3.9532   -2.5278    0.2200 C   0  0  0  0  0  0  0  0  0  0  0  0
   -3.0041   -1.3127    0.2930 C   0  0  0  0  0  0  0  0  0  0  0  0
   -2.9974   -0.4733   -0.9883 C   0  0  0  0  0  0  0  0  0  0  0  0
   -4.2796    0.3016   -1.1847 C   0  0  0  0  0  0  0  0  0  0  0  0
   -4.5238    1.4676   -0.4453 C   0  0  0  0  0  0  0  0  0  0  0  0
   -5.7140    2.1766   -0.6139 C   0  0  0  0  0  0  0  0  0  0  0  0
   -6.6711    1.7275   -1.5213 C   0  0  0  0  0  0  0  0  0  0  0  0
   -6.4381    0.5701   -2.2617 C   0  0  0  0  0  0  0  0  0  0  0  0
   -5.2482   -0.1404   -2.0951 C   0  0  0  0  0  0  0  0  0  0  0  0
   -1.7116   -1.9711    0.5157 N   0  0  0  0  0  0  0  0  0  0  0  0
   -0.6343   -1.1768    1.0951 C   0  0  0  0  0  0  0  0  0  0  0  0
    0.5701   -1.1637    0.1524 C   0  0  0  0  0  0  0  0  0  0  0  0
    1.7085   -0.3117    0.7178 C   0  0  0  0  0  0  0  0  0  0  0  0
    2.9268   -0.3248   -0.2113 C   0  0  0  0  0  0  0  0  0  0  0  0
    4.1262    0.4688    0.3479 C   0  0  0  0  0  0  0  0  0  0  0  0
    5.3715    0.2833   -0.5458 C   0  0  0  0  0  0  0  0  0  0  0  0
    5.5275    1.4107   -1.5588 C   0  0  0  0  0  0  0  0  0  0  0  0
    5.6916    2.7691   -0.8749 C   0  0  0  0  0  0  0  0  0  0  0  0
    5.0086    2.8485    0.4907 C   0  0  0  0  0  0  0  0  0  0  0  0
    3.7752    1.9565    0.5548 C   0  0  0  0  0  0  0  0  0  0  0  0
   -1.2899   -4.9926    1.3917 H   0  0  0  0  0  0  0  0  0  0  0  0
   -0.1543   -3.9714    0.7260 H   0  0  0  0  0  0  0  0  0  0  0  0
   -4.8590   -2.3519    0.8092 H   0  0  0  0  0  0  0  0  0  0  0  0
   -4.2513   -2.7674   -0.8066 H   0  0  0  0  0  0  0  0  0  0  0  0
   -3.2669   -0.7062    1.1699 H   0  0  0  0  0  0  0  0  0  0  0  0
   -2.1670    0.2448   -0.9669 H   0  0  0  0  0  0  0  0  0  0  0  0
   -2.8015   -1.1082   -1.8629 H   0  0  0  0  0  0  0  0  0  0  0  0
   -3.7864    1.8338    0.2651 H   0  0  0  0  0  0  0  0  0  0  0  0
   -5.8930    3.0807   -0.0389 H   0  0  0  0  0  0  0  0  0  0  0  0
   -7.5976    2.2801   -1.6533 H   0  0  0  0  0  0  0  0  0  0  0  0
   -7.1840    0.2202   -2.9707 H   0  0  0  0  0  0  0  0  0  0  0  0
   -5.0840   -1.0416   -2.6825 H   0  0  0  0  0  0  0  0  0  0  0  0
   -0.3505   -1.5639    2.0811 H   0  0  0  0  0  0  0  0  0  0  0  0
   -0.9686   -0.1447    1.2591 H   0  0  0  0  0  0  0  0  0  0  0  0
    0.2678   -0.7698   -0.8258 H   0  0  0  0  0  0  0  0  0  0  0  0
    0.9263   -2.1856   -0.0197 H   0  0  0  0  0  0  0  0  0  0  0  0
    1.9977   -0.6935    1.7046 H   0  0  0  0  0  0  0  0  0  0  0  0
    1.3506    0.7142    0.8584 H   0  0  0  0  0  0  0  0  0  0  0  0
    3.2326   -1.3667   -0.3708 H   0  0  0  0  0  0  0  0  0  0  0  0
    2.6441    0.0731   -1.1942 H   0  0  0  0  0  0  0  0  0  0  0  0
    4.3739    0.0374    1.3281 H   0  0  0  0  0  0  0  0  0  0  0  0
    5.3445   -0.6837   -1.0614 H   0  0  0  0  0  0  0  0  0  0  0  0
    6.2652    0.2620    0.0924 H   0  0  0  0  0  0  0  0  0  0  0  0
    4.6465    1.4351   -2.2126 H   0  0  0  0  0  0  0  0  0  0  0  0
    6.3906    1.2205   -2.2074 H   0  0  0  0  0  0  0  0  0  0  0  0
    5.2922    3.5458   -1.5380 H   0  0  0  0  0  0  0  0  0  0  0  0
    6.7572    2.9957   -0.7482 H   0  0  0  0  0  0  0  0  0  0  0  0
    5.7160    2.5430    1.2720 H   0  0  0  0  0  0  0  0  0  0  0  0
    4.7376    3.8886    0.7052 H   0  0  0  0  0  0  0  0  0  0  0  0
    3.0582    2.2917   -0.2060 H   0  0  0  0  0  0  0  0  0  0  0  0
    3.2837    2.0834    1.5265 H   0  0  0  0  0  0  0  0  0  0  0  0
  1  2  1  0
  2  3  2  0
  3  4  1  0
  4  5  1  0
  5  6  1  0
  6  7  1  0
  7  8  2  0
  8  9  1  0
  9 10  2  0
 10 11  1  0
 11 12  2  0
  5 13  1  0
 13 14  1  0
 14 15  1  0
 15 16  1  0
 16 17  1  0
 17 18  1  0
 18 19  1  0
 19 20  1  0
 20 21  1  0
 21 22  1  0
 22 23  1  0
 13  2  1  0
 23 18  1  0
 12  7  1  0
  1 24  1  0
  1 25  1  0
  4 26  1  0
  4 27  1  0
  5 28  1  0
  6 29  1  0
  6 30  1  0
  8 31  1  0
  9 32  1  0
 10 33  1  0
 11 34  1  0
 12 35  1  0
 14 36  1  0
 14 37  1  0
 15 38  1  0
 15 39  1  0
 16 40  1  0
 16 41  1  0
 17 42  1  0
 17 43  1  0
 18 44  1  0
 19 45  1  0
 19 46  1  0
 20 47  1  0
 20 48  1  0
 21 49  1  0
 21 50  1  0
 22 51  1  0
 22 52  1  0
 23 53  1  0
 23 54  1  0
M  END
$$$$
