
     RDKit          3D

 31 33  0  0  0  0  0  0  0  0999 V2000
   -3.5871   -1.4484    0.7949 C   0  0  0  0  0  0  0  0  0  0  0  0
   -2.9351   -0.9752   -0.4020 N   0  0  0  0  0  0  0  0  0  0  0  0
   -3.3101   -1.2717   -1.6817 C   0  0  0  0  0  0  0  0  0  0  0  0
   -2.5245   -0.6945   -2.5615 N   0  0  0  0  0  0  0  0  0  0  0  0
   -1.6019    0.0035   -1.8004 C   0  0  0  0  0  0  0  0  0  0  0  0
   -0.6077    0.7979   -2.4606 N   0  0  0  0  0  4  0  0  0  0  0  0
   -0.7009    2.0271   -2.3318 O   0  0  0  0  0  0  0  0  0  0  0  0
    0.2483    0.1922   -3.1195 O   0  0  0  0  0  1  0  0  0  0  0  0
   -1.8210   -0.1649   -0.4424 C   0  0  0  0  0  0  0  0  0  0  0  0
   -1.2521    0.2283    0.7018 O   0  0  0  0  0  0  0  0  0  0  0  0
   -0.0221    0.8438    0.6909 C   0  0  0  0  0  0  0  0  0  0  0  0
   -0.0086    2.2346    0.8190 C   0  0  0  0  0  0  0  0  0  0  0  0
    1.2039    2.9136    0.8253 C   0  0  0  0  0  0  0  0  0  0  0  0
    2.3993    2.2015    0.7227 C   0  0  0  0  0  0  0  0  0  0  0  0
    2.4022    0.7996    0.6247 C   0  0  0  0  0  0  0  0  0  0  0  0
    3.6114    0.0908    0.5360 C   0  0  0  0  0  0  0  0  0  0  0  0
    3.6220   -1.3013    0.4500 C   0  0  0  0  0  0  0  0  0  0  0  0
    2.4237   -2.0047    0.4553 C   0  0  0  0  0  0  0  0  0  0  0  0
    1.2129   -1.3155    0.5410 C   0  0  0  0  0  0  0  0  0  0  0  0
    1.1752    0.0945    0.6182 C   0  0  0  0  0  0  0  0  0  0  0  0
   -4.4488   -2.0636    0.5239 H   0  0  0  0  0  0  0  0  0  0  0  0
   -2.8708   -2.0443    1.3664 H   0  0  0  0  0  0  0  0  0  0  0  0
   -3.9178   -0.5827    1.3743 H   0  0  0  0  0  0  0  0  0  0  0  0
   -4.1565   -1.9057   -1.9168 H   0  0  0  0  0  0  0  0  0  0  0  0
   -0.9407    2.7881    0.8899 H   0  0  0  0  0  0  0  0  0  0  0  0
    1.2212    3.9977    0.9013 H   0  0  0  0  0  0  0  0  0  0  0  0
    3.3373    2.7533    0.7226 H   0  0  0  0  0  0  0  0  0  0  0  0
    4.5608    0.6222    0.5321 H   0  0  0  0  0  0  0  0  0  0  0  0
    4.5668   -1.8338    0.3784 H   0  0  0  0  0  0  0  0  0  0  0  0
    2.4288   -3.0895    0.3890 H   0  0  0  0  0  0  0  0  0  0  0  0
    0.2919   -1.8927    0.5465 H   0  0  0  0  0  0  0  0  0  0  0  0
  1  2  1  0
  2  3  1  0
  3  4  2  0
  4  5  1  0
  5  6  1  0
  6  7  2  0
  6  8  1  0
  5  9  2  0
  9 10  1  0
 10 11  1  0
 11 12  2  0
 12 13  1  0
 13 14  2  0
 14 15  1  0
 15 16  2  0
 16 17  1  0
 17 18  2  0
 18 19  1  0
 19 20  2  0
  9  2  1  0
 20 11  1  0
 20 15  1  0
  1 21  1  0
  1 22  1  0
  1 23  1  0
  3 24  1  0
 12 25  1  0
 13 26  1  0
 14 27  1  0
 16 28  1  0
 17 29  1  0
 18 30  1  0
 19 31  1  0
M  CHG  2   6   1   8  -1
M  END
$$$$
