
     RDKit          3D

 56 60  0  0  0  0  0  0  0  0999 V2000
   -6.0081   -1.1949    2.7533 C   0  0  0  0  0  0  0  0  0  0  0  0
   -5.2309   -1.1231    1.4714 C   0  0  0  0  0  0  0  0  0  0  0  0
   -5.5944   -0.2113    0.4711 C   0  0  0  0  0  0  0  0  0  0  0  0
   -4.8930   -0.1654   -0.7344 C   0  0  0  0  0  0  0  0  0  0  0  0
   -3.8227   -1.0391   -0.9387 C   0  0  0  0  0  0  0  0  0  0  0  0
   -2.9161   -0.9925   -2.4753 S   0  0  0  0  0  6  0  0  0  0  0  0
   -2.6449   -2.3762   -2.8253 O   0  0  0  0  0  0  0  0  0  0  0  0
   -3.6693   -0.1512   -3.3897 O   0  0  0  0  0  0  0  0  0  0  0  0
   -1.4626   -0.1966   -2.0011 C   0  0  0  0  0  0  0  0  0  0  0  0
   -1.4548    1.1397   -1.8662 C   0  0  0  0  0  0  0  0  0  0  0  0
   -0.2932    1.8640   -1.3727 C   0  0  0  0  0  0  0  0  0  0  0  0
   -0.3662    3.3440   -1.2117 C   0  0  0  0  0  0  0  0  0  0  0  0
   -1.4068    3.9386   -1.5006 O   0  0  0  0  0  0  0  0  0  0  0  0
    0.7724    3.9596   -0.7250 N   0  0  0  0  0  0  0  0  0  0  0  0
    0.7848    5.3396   -0.5493 C   0  0  0  0  0  0  0  0  0  0  0  0
    1.8601    5.9800   -0.0745 C   0  0  0  0  0  0  0  0  0  0  0  0
    3.0431    5.2364    0.2663 C   0  0  0  0  0  0  0  0  0  0  0  0
    3.0747    3.9063    0.1156 C   0  0  0  0  0  0  0  0  0  0  0  0
    1.8771    3.1901   -0.4090 C   0  0  0  0  0  0  0  0  0  0  0  0
    1.9336    1.9038   -0.5377 N   0  0  0  0  0  0  0  0  0  0  0  0
    0.8448    1.2194   -1.0282 C   0  0  0  0  0  0  0  0  0  0  0  0
    0.8935   -0.1885   -1.1768 N   0  0  0  0  0  0  0  0  0  0  0  0
    2.1206   -0.9162   -0.7909 C   0  0  0  0  0  0  0  0  0  0  0  0
    2.0389   -1.3579    0.6729 C   0  0  0  0  0  0  0  0  0  0  0  0
    3.2660   -2.1239    1.1018 C   0  0  0  0  0  0  0  0  0  0  0  0
    4.3420   -1.4643    1.7095 C   0  0  0  0  0  0  0  0  0  0  0  0
    5.4797   -2.1759    2.0922 C   0  0  0  0  0  0  0  0  0  0  0  0
    5.5535   -3.5493    1.8668 C   0  0  0  0  0  0  0  0  0  0  0  0
    4.4916   -4.2124    1.2549 C   0  0  0  0  0  0  0  0  0  0  0  0
    3.3530   -3.5034    0.8719 C   0  0  0  0  0  0  0  0  0  0  0  0
   -0.2078   -0.9271   -1.6415 C   0  0  0  0  0  0  0  0  0  0  0  0
   -0.1099   -2.2210   -1.7448 N   0  0  0  0  0  0  0  0  0  0  0  0
   -3.4651   -1.9730    0.0381 C   0  0  0  0  0  0  0  0  0  0  0  0
   -4.1713   -2.0113    1.2409 C   0  0  0  0  0  0  0  0  0  0  0  0
   -6.7495   -1.9970    2.6961 H   0  0  0  0  0  0  0  0  0  0  0  0
   -6.5272   -0.2522    2.9541 H   0  0  0  0  0  0  0  0  0  0  0  0
   -5.3397   -1.3846    3.5999 H   0  0  0  0  0  0  0  0  0  0  0  0
   -6.4315    0.4672    0.6244 H   0  0  0  0  0  0  0  0  0  0  0  0
   -5.1934    0.5467   -1.5003 H   0  0  0  0  0  0  0  0  0  0  0  0
   -2.3388    1.7312   -2.1000 H   0  0  0  0  0  0  0  0  0  0  0  0
   -0.1202    5.8812   -0.8145 H   0  0  0  0  0  0  0  0  0  0  0  0
    1.8604    7.0573    0.0593 H   0  0  0  0  0  0  0  0  0  0  0  0
    3.9046    5.7772    0.6451 H   0  0  0  0  0  0  0  0  0  0  0  0
    3.9458    3.3105    0.3580 H   0  0  0  0  0  0  0  0  0  0  0  0
    3.0099   -0.2923   -0.9492 H   0  0  0  0  0  0  0  0  0  0  0  0
    2.2792   -1.7811   -1.4479 H   0  0  0  0  0  0  0  0  0  0  0  0
    1.9067   -0.4854    1.3258 H   0  0  0  0  0  0  0  0  0  0  0  0
    1.1506   -1.9805    0.8393 H   0  0  0  0  0  0  0  0  0  0  0  0
    4.2991   -0.3924    1.8882 H   0  0  0  0  0  0  0  0  0  0  0  0
    6.3094   -1.6588    2.5658 H   0  0  0  0  0  0  0  0  0  0  0  0
    6.4394   -4.1030    2.1656 H   0  0  0  0  0  0  0  0  0  0  0  0
    4.5493   -5.2826    1.0749 H   0  0  0  0  0  0  0  0  0  0  0  0
    2.5320   -4.0316    0.3901 H   0  0  0  0  0  0  0  0  0  0  0  0
   -0.9530   -2.6590   -2.1524 H   0  0  0  0  0  0  0  0  0  0  0  0
   -2.6504   -2.6754   -0.1251 H   0  0  0  0  0  0  0  0  0  0  0  0
   -3.8951   -2.7426    1.9982 H   0  0  0  0  0  0  0  0  0  0  0  0
  1  2  1  0
  2  3  2  0
  3  4  1  0
  4  5  2  0
  5  6  1  0
  6  7  2  0
  6  8  2  0
  6  9  1  0
  9 10  2  0
 10 11  1  0
 11 12  1  0
 12 13  2  0
 12 14  1  0
 14 15  1  0
 15 16  2  0
 16 17  1  0
 17 18  2  0
 18 19  1  0
 19 20  2  0
 20 21  1  0
 21 22  1  0
 22 23  1  0
 23 24  1  0
 24 25  1  0
 25 26  2  0
 26 27  1  0
 27 28  2  0
 28 29  1  0
 29 30  2  0
 22 31  1  0
 31 32  2  3
  5 33  1  0
 33 34  2  0
 34  2  1  0
 31  9  1  0
 21 11  2  0
 30 25  1  0
 19 14  1  0
  1 35  1  0
  1 36  1  0
  1 37  1  0
  3 38  1  0
  4 39  1  0
 10 40  1  0
 15 41  1  0
 16 42  1  0
 17 43  1  0
 18 44  1  0
 23 45  1  0
 23 46  1  0
 24 47  1  0
 24 48  1  0
 26 49  1  0
 27 50  1  0
 28 51  1  0
 29 52  1  0
 30 53  1  0
 32 54  1  0
 33 55  1  0
 34 56  1  0
M  END
$$$$
