
     RDKit          3D

 58 60  0  0  0  0  0  0  0  0999 V2000
   -8.2306   -3.3022    1.4744 C   0  0  0  0  0  0  0  0  0  0  0  0
   -7.0992   -3.3896    0.6198 O   0  0  0  0  0  0  0  0  0  0  0  0
   -6.0994   -2.4660    0.7831 C   0  0  0  0  0  0  0  0  0  0  0  0
   -6.1814   -1.3546    1.6320 C   0  0  0  0  0  0  0  0  0  0  0  0
   -5.1051   -0.4671    1.7350 C   0  0  0  0  0  0  0  0  0  0  0  0
   -5.1014    0.6542    2.5279 O   0  0  0  0  0  0  0  0  0  0  0  0
   -5.8319    0.5395    3.7458 C   0  0  0  0  0  0  0  0  0  0  0  0
   -3.9556   -0.6718    0.9565 C   0  0  0  0  0  0  0  0  0  0  0  0
   -2.8347    0.2055    1.1156 N   0  0  0  0  0  0  0  0  0  0  0  0
   -1.6643   -0.2761    2.2494 S   0  0  0  0  0  6  0  0  0  0  0  0
   -2.2591   -1.1609    3.2283 O   0  0  0  0  0  0  0  0  0  0  0  0
   -0.9570    0.9230    2.6439 O   0  0  0  0  0  0  0  0  0  0  0  0
   -0.5495   -1.2221    1.2382 C   0  0  0  0  0  0  0  0  0  0  0  0
   -0.4715   -2.6081    1.3927 C   0  0  0  0  0  0  0  0  0  0  0  0
    0.4078   -3.3399    0.5919 C   0  0  0  0  0  0  0  0  0  0  0  0
    1.2092   -2.6929   -0.3575 C   0  0  0  0  0  0  0  0  0  0  0  0
    2.2983   -3.6707   -1.2725 Cl  0  0  0  0  0  0  0  0  0  0  0  0
    1.1312   -1.3020   -0.5011 C   0  0  0  0  0  0  0  0  0  0  0  0
    1.9317   -0.5904   -1.5166 C   0  0  0  0  0  0  0  0  0  0  0  0
    2.0000   -0.9041   -2.6914 O   0  0  0  0  0  0  0  0  0  0  0  0
    2.5500    0.4537   -0.9196 O   0  0  0  0  0  0  0  0  0  0  0  0
    3.3996    1.2459   -1.7696 C   0  0  0  0  0  0  0  0  0  0  0  0
    2.5529    2.3262   -2.4333 C   0  0  0  0  0  0  0  0  0  0  0  0
    4.4936    1.8988   -0.9057 C   0  0  0  0  0  0  0  0  0  0  0  0
    4.3668    2.0143    0.3156 O   0  0  0  0  0  0  0  0  0  0  0  0
    5.6196    2.3744   -1.5497 N   0  0  0  0  0  0  0  0  0  0  0  0
    5.9970    2.1938   -2.9446 C   0  0  0  0  0  0  0  0  0  0  0  0
    7.4675    2.5912   -2.9978 C   0  0  0  0  0  0  0  0  0  0  0  0
    7.5870    3.6156   -1.8784 C   0  0  0  0  0  0  0  0  0  0  0  0
    6.6720    3.0456   -0.8058 C   0  0  0  0  0  0  0  0  0  0  0  0
    0.2527   -0.5605    0.3042 C   0  0  0  0  0  0  0  0  0  0  0  0
   -3.8600   -1.7714    0.1118 C   0  0  0  0  0  0  0  0  0  0  0  0
   -4.9306   -2.6623    0.0254 C   0  0  0  0  0  0  0  0  0  0  0  0
   -4.7645   -4.0141   -1.0406 Cl  0  0  0  0  0  0  0  0  0  0  0  0
   -8.8041   -2.3917    1.2735 H   0  0  0  0  0  0  0  0  0  0  0  0
   -7.9381   -3.3618    2.5271 H   0  0  0  0  0  0  0  0  0  0  0  0
   -8.8775   -4.1577    1.2599 H   0  0  0  0  0  0  0  0  0  0  0  0
   -7.0824   -1.1638    2.2008 H   0  0  0  0  0  0  0  0  0  0  0  0
   -5.5099    1.3513    4.4045 H   0  0  0  0  0  0  0  0  0  0  0  0
   -5.6264   -0.4083    4.2558 H   0  0  0  0  0  0  0  0  0  0  0  0
   -6.9041    0.6626    3.5634 H   0  0  0  0  0  0  0  0  0  0  0  0
   -3.1016    1.1698    1.3360 H   0  0  0  0  0  0  0  0  0  0  0  0
   -1.0852   -3.1248    2.1286 H   0  0  0  0  0  0  0  0  0  0  0  0
    0.4696   -4.4193    0.7174 H   0  0  0  0  0  0  0  0  0  0  0  0
    3.8788    0.6027   -2.5137 H   0  0  0  0  0  0  0  0  0  0  0  0
    1.7620    1.8809   -3.0445 H   0  0  0  0  0  0  0  0  0  0  0  0
    2.0559    2.9432   -1.6770 H   0  0  0  0  0  0  0  0  0  0  0  0
    3.1473    2.9877   -3.0682 H   0  0  0  0  0  0  0  0  0  0  0  0
    5.8392    1.1629   -3.2701 H   0  0  0  0  0  0  0  0  0  0  0  0
    5.3861    2.8667   -3.5539 H   0  0  0  0  0  0  0  0  0  0  0  0
    8.0988    1.7232   -2.7729 H   0  0  0  0  0  0  0  0  0  0  0  0
    7.7630    2.9856   -3.9737 H   0  0  0  0  0  0  0  0  0  0  0  0
    7.2058    4.5846   -2.2212 H   0  0  0  0  0  0  0  0  0  0  0  0
    8.6135    3.7529   -1.5295 H   0  0  0  0  0  0  0  0  0  0  0  0
    7.1880    2.2937   -0.1981 H   0  0  0  0  0  0  0  0  0  0  0  0
    6.2580    3.8141   -0.1465 H   0  0  0  0  0  0  0  0  0  0  0  0
    0.1911    0.5216    0.1999 H   0  0  0  0  0  0  0  0  0  0  0  0
   -2.9687   -1.9311   -0.4866 H   0  0  0  0  0  0  0  0  0  0  0  0
  1  2  1  0
  2  3  1  0
  3  4  2  0
  4  5  1  0
  5  6  1  0
  6  7  1  0
  5  8  2  0
  8  9  1  0
  9 10  1  0
 10 11  2  0
 10 12  2  0
 10 13  1  0
 13 14  2  0
 14 15  1  0
 15 16  2  0
 16 17  1  0
 16 18  1  0
 18 19  1  0
 19 20  2  0
 19 21  1  0
 21 22  1  0
 22 23  1  0
 22 24  1  0
 24 25  2  0
 24 26  1  0
 26 27  1  0
 27 28  1  0
 28 29  1  0
 29 30  1  0
 18 31  2  0
  8 32  1  0
 32 33  2  0
 33 34  1  0
 33  3  1  0
 31 13  1  0
 30 26  1  0
  1 35  1  0
  1 36  1  0
  1 37  1  0
  4 38  1  0
  7 39  1  0
  7 40  1  0
  7 41  1  0
  9 42  1  0
 14 43  1  0
 15 44  1  0
 22 45  1  0
 23 46  1  0
 23 47  1  0
 23 48  1  0
 27 49  1  0
 27 50  1  0
 28 51  1  0
 28 52  1  0
 29 53  1  0
 29 54  1  0
 30 55  1  0
 30 56  1  0
 31 57  1  0
 32 58  1  0
M  END
$$$$
