
     RDKit          3D

 40 42  0  0  0  0  0  0  0  0999 V2000
    4.3577   -3.1148   -1.7992 C   0  0  0  0  0  0  0  0  0  0  0  0
    3.8943   -1.8251   -1.1954 C   0  0  0  0  0  0  0  0  0  0  0  0
    4.5259   -1.1756   -0.3761 O   0  0  0  0  0  0  0  0  0  0  0  0
    2.6642   -1.4979   -1.6757 O   0  0  0  0  0  0  0  0  0  0  0  0
    2.1334   -0.2387   -1.2184 C   0  0  0  0  0  0  0  0  0  0  0  0
    1.6871   -0.3033    0.2476 C   0  0  0  0  0  0  0  0  0  0  0  0
    0.5654    0.6087    0.5095 N   0  0  0  0  0  0  0  0  0  0  0  0
    0.8081    1.9373    0.8363 C   0  0  0  0  0  0  0  0  0  0  0  0
    1.9954    2.4617    0.8614 N   0  0  0  0  0  0  0  0  0  0  0  0
    2.1886    3.7757    1.1863 C   0  0  0  0  0  0  0  0  0  0  0  0
    3.1902    4.3942    0.8432 O   0  0  0  0  0  0  0  0  0  0  0  0
    1.2313    4.4312    1.9034 N   0  0  0  0  0  0  0  0  0  0  0  0
   -0.0893    4.2080    1.6636 C   0  0  0  0  0  0  0  0  0  0  0  0
   -0.9530    5.0624    1.7697 O   0  0  0  0  0  0  0  0  0  0  0  0
   -0.3746    2.8135    1.1745 C   0  0  0  0  0  0  0  0  0  0  0  0
   -1.5992    2.3984    1.0633 N   0  0  0  0  0  0  0  0  0  0  0  0
   -1.8197    1.0863    0.6041 C   0  0  0  0  0  0  0  0  0  0  0  0
   -3.1529    0.6970    0.4311 C   0  0  0  0  0  0  0  0  0  0  0  0
   -3.4909   -0.5817   -0.0282 C   0  0  0  0  0  0  0  0  0  0  0  0
   -4.9401   -0.9452   -0.1978 C   0  0  0  0  0  0  0  0  0  0  0  0
   -2.4612   -1.4881   -0.3260 C   0  0  0  0  0  0  0  0  0  0  0  0
   -2.7632   -2.8734   -0.8326 C   0  0  0  0  0  0  0  0  0  0  0  0
   -1.1195   -1.0954   -0.1485 C   0  0  0  0  0  0  0  0  0  0  0  0
   -0.7686    0.1826    0.3215 C   0  0  0  0  0  0  0  0  0  0  0  0
    5.3655   -3.3415   -1.4399 H   0  0  0  0  0  0  0  0  0  0  0  0
    4.3910   -3.0241   -2.8878 H   0  0  0  0  0  0  0  0  0  0  0  0
    3.6880   -3.9250   -1.5004 H   0  0  0  0  0  0  0  0  0  0  0  0
    1.2841   -0.0183   -1.8744 H   0  0  0  0  0  0  0  0  0  0  0  0
    2.8661    0.5615   -1.3802 H   0  0  0  0  0  0  0  0  0  0  0  0
    1.4511   -1.3306    0.5484 H   0  0  0  0  0  0  0  0  0  0  0  0
    2.5352   -0.0404    0.8929 H   0  0  0  0  0  0  0  0  0  0  0  0
    1.4549    5.4039    2.0578 H   0  0  0  0  0  0  0  0  0  0  0  0
   -3.9341    1.4193    0.6624 H   0  0  0  0  0  0  0  0  0  0  0  0
   -5.5991   -0.1241    0.1038 H   0  0  0  0  0  0  0  0  0  0  0  0
   -5.1908   -1.8114    0.4226 H   0  0  0  0  0  0  0  0  0  0  0  0
   -5.1544   -1.1723   -1.2469 H   0  0  0  0  0  0  0  0  0  0  0  0
   -1.8470   -3.4413   -1.0260 H   0  0  0  0  0  0  0  0  0  0  0  0
   -3.3214   -2.8212   -1.7727 H   0  0  0  0  0  0  0  0  0  0  0  0
   -3.3452   -3.4301   -0.0914 H   0  0  0  0  0  0  0  0  0  0  0  0
   -0.3533   -1.8220   -0.4023 H   0  0  0  0  0  0  0  0  0  0  0  0
  1  2  1  0
  2  3  2  0
  2  4  1  0
  4  5  1  0
  5  6  1  0
  6  7  1  0
  7  8  1  0
  8  9  2  0
  9 10  1  0
 10 11  2  0
 10 12  1  0
 12 13  1  0
 13 14  2  0
 13 15  1  0
 15 16  2  0
 16 17  1  0
 17 18  2  0
 18 19  1  0
 19 20  1  0
 19 21  2  0
 21 22  1  0
 21 23  1  0
 23 24  2  0
 24  7  1  0
 15  8  1  0
 24 17  1  0
  1 25  1  0
  1 26  1  0
  1 27  1  0
  5 28  1  0
  5 29  1  0
  6 30  1  0
  6 31  1  0
 12 32  1  0
 18 33  1  0
 20 34  1  0
 20 35  1  0
 20 36  1  0
 22 37  1  0
 22 38  1  0
 22 39  1  0
 23 40  1  0
M  END
$$$$
