
     RDKit          3D

 48 50  0  0  0  0  0  0  0  0999 V2000
   -1.3160   -2.7313   -2.6141 C   0  0  0  0  0  0  0  0  0  0  0  0
   -2.3222   -1.9145   -1.8260 C   0  0  0  0  0  0  0  0  0  0  0  0
   -1.8907   -0.5477   -1.7357 O   0  0  0  0  0  0  0  0  0  0  0  0
   -1.0446   -0.2600   -0.7053 C   0  0  0  0  0  0  0  0  0  0  0  0
   -0.6529   -1.0670    0.1261 O   0  0  0  0  0  0  0  0  0  0  0  0
   -0.6621    1.1979   -0.7437 C   0  0  0  0  0  0  0  0  0  0  0  0
    0.4971    1.6455    0.1272 C   0  0  0  0  0  0  0  0  0  0  0  0
    1.6374    0.7121    0.4654 C   0  0  0  0  0  0  0  0  0  0  0  0
    2.5448    0.2794   -0.9961 S   0  0  0  0  0  6  0  0  0  0  0  0
    3.3396    1.4154   -1.4187 O   0  0  0  0  0  0  0  0  0  0  0  0
    1.6330   -0.3604   -1.9274 O   0  0  0  0  0  0  0  0  0  0  0  0
    3.6755   -0.9631   -0.4182 C   0  0  0  0  0  0  0  0  0  0  0  0
    3.4886   -2.3002   -0.7826 C   0  0  0  0  0  0  0  0  0  0  0  0
    4.3817   -3.2655   -0.3189 C   0  0  0  0  0  0  0  0  0  0  0  0
    5.4508   -2.8942    0.4999 C   0  0  0  0  0  0  0  0  0  0  0  0
    5.6374   -1.5552    0.8507 C   0  0  0  0  0  0  0  0  0  0  0  0
    4.7527   -0.5816    0.3878 C   0  0  0  0  0  0  0  0  0  0  0  0
    0.6112    2.8629    0.5667 N   0  0  0  0  0  0  0  0  0  0  0  0
   -0.3066    3.8292    0.2676 C   0  0  0  0  0  0  0  0  0  0  0  0
   -0.1192    5.0188    0.4903 O   0  0  0  0  0  0  0  0  0  0  0  0
   -1.4870    3.4400   -0.2863 N   0  0  0  0  0  0  0  0  0  0  0  0
   -1.8788    2.0613   -0.4123 C   0  0  0  0  0  0  0  0  0  0  0  0
   -2.7145    1.6086    0.7801 C   0  0  0  0  0  0  0  0  0  0  0  0
   -3.9607    0.9977    0.5494 C   0  0  0  0  0  0  0  0  0  0  0  0
   -4.7408    0.5313    1.6096 C   0  0  0  0  0  0  0  0  0  0  0  0
   -4.2911    0.6741    2.9188 C   0  0  0  0  0  0  0  0  0  0  0  0
   -3.0667    1.2875    3.1681 C   0  0  0  0  0  0  0  0  0  0  0  0
   -2.2827    1.7509    2.1083 C   0  0  0  0  0  0  0  0  0  0  0  0
   -0.3481   -2.7596   -2.1034 H   0  0  0  0  0  0  0  0  0  0  0  0
   -1.1449   -2.2853   -3.5987 H   0  0  0  0  0  0  0  0  0  0  0  0
   -1.6691   -3.7567   -2.7467 H   0  0  0  0  0  0  0  0  0  0  0  0
   -3.2858   -1.9124   -2.3459 H   0  0  0  0  0  0  0  0  0  0  0  0
   -2.4971   -2.3428   -0.8316 H   0  0  0  0  0  0  0  0  0  0  0  0
   -0.3320    1.4217   -1.7684 H   0  0  0  0  0  0  0  0  0  0  0  0
    2.3345    1.2107    1.1479 H   0  0  0  0  0  0  0  0  0  0  0  0
    1.2812   -0.1896    0.9586 H   0  0  0  0  0  0  0  0  0  0  0  0
    2.6624   -2.5973   -1.4260 H   0  0  0  0  0  0  0  0  0  0  0  0
    4.2484   -4.3081   -0.5989 H   0  0  0  0  0  0  0  0  0  0  0  0
    6.1458   -3.6504    0.8585 H   0  0  0  0  0  0  0  0  0  0  0  0
    6.4795   -1.2713    1.4797 H   0  0  0  0  0  0  0  0  0  0  0  0
    4.9155    0.4613    0.6501 H   0  0  0  0  0  0  0  0  0  0  0  0
   -2.1768    4.1778   -0.3490 H   0  0  0  0  0  0  0  0  0  0  0  0
   -2.5395    2.0554   -1.2901 H   0  0  0  0  0  0  0  0  0  0  0  0
   -4.3362    0.8686   -0.4647 H   0  0  0  0  0  0  0  0  0  0  0  0
   -5.6989    0.0562    1.4133 H   0  0  0  0  0  0  0  0  0  0  0  0
   -4.8968    0.3121    3.7449 H   0  0  0  0  0  0  0  0  0  0  0  0
   -2.7180    1.4070    4.1913 H   0  0  0  0  0  0  0  0  0  0  0  0
   -1.3372    2.2308    2.3487 H   0  0  0  0  0  0  0  0  0  0  0  0
  1  2  1  0
  2  3  1  0
  3  4  1  0
  4  5  2  0
  4  6  1  0
  6  7  1  0
  7  8  1  0
  8  9  1  0
  9 10  2  0
  9 11  2  0
  9 12  1  0
 12 13  2  0
 13 14  1  0
 14 15  2  0
 15 16  1  0
 16 17  2  0
  7 18  2  0
 18 19  1  0
 19 20  2  0
 19 21  1  0
 21 22  1  0
 22 23  1  0
 23 24  2  0
 24 25  1  0
 25 26  2  0
 26 27  1  0
 27 28  2  0
 22  6  1  0
 28 23  1  0
 17 12  1  0
  1 29  1  0
  1 30  1  0
  1 31  1  0
  2 32  1  0
  2 33  1  0
  6 34  1  0
  8 35  1  0
  8 36  1  0
 13 37  1  0
 14 38  1  0
 15 39  1  0
 16 40  1  0
 17 41  1  0
 21 42  1  0
 22 43  1  0
 24 44  1  0
 25 45  1  0
 26 46  1  0
 27 47  1  0
 28 48  1  0
M  END
$$$$
