
     RDKit          3D

 71 76  0  0  0  0  0  0  0  0999 V2000
   -4.4714   -3.7082    3.5767 C   0  0  0  0  0  0  0  0  0  0  0  0
   -3.5024   -2.8935    2.9300 O   0  0  0  0  0  0  0  0  0  0  0  0
   -3.4135   -2.9898    1.5680 C   0  0  0  0  0  0  0  0  0  0  0  0
   -4.1919   -3.8338    0.7525 C   0  0  0  0  0  0  0  0  0  0  0  0
   -4.0166   -3.8558   -0.6370 C   0  0  0  0  0  0  0  0  0  0  0  0
   -3.0601   -3.0212   -1.1723 C   0  0  0  0  0  0  0  0  0  0  0  0
   -2.2824   -2.1721   -0.3830 C   0  0  0  0  0  0  0  0  0  0  0  0
   -2.4481   -2.1538    0.9933 C   0  0  0  0  0  0  0  0  0  0  0  0
   -1.3527   -1.4058   -1.2729 C   0  0  1  0  0  0  0  0  0  0  0  0
   -1.6917   -1.9563   -2.6869 C   0  0  0  0  0  0  0  0  0  0  0  0
   -1.1802   -1.6781   -3.7611 O   0  0  0  0  0  0  0  0  0  0  0  0
   -2.7196   -2.8892   -2.5121 N   0  0  0  0  0  0  0  0  0  0  0  0
   -1.6210    0.0504   -1.1309 C   0  0  0  0  0  0  0  0  0  0  0  0
   -0.4008    0.7633   -1.1558 C   0  0  0  0  0  0  0  0  0  0  0  0
   -0.6714    2.0991   -1.0430 C   0  0  0  0  0  0  0  0  0  0  0  0
    0.1062    3.1741   -1.0570 O   0  0  0  0  0  0  0  0  0  0  0  0
   -2.0484    2.2050   -0.8981 N   0  0  0  0  0  0  0  0  0  0  0  0
   -2.7737    3.4586   -0.7326 C   0  0  0  0  0  0  0  0  0  0  0  0
   -2.9331    3.8241    0.7236 C   0  0  0  0  0  0  0  0  0  0  0  0
   -1.9632    4.6000    1.3748 C   0  0  0  0  0  0  0  0  0  0  0  0
   -2.1056    4.9283    2.7239 C   0  0  0  0  0  0  0  0  0  0  0  0
   -3.2160    4.4811    3.4375 C   0  0  0  0  0  0  0  0  0  0  0  0
   -4.1826    3.7022    2.8044 C   0  0  0  0  0  0  0  0  0  0  0  0
   -4.0415    3.3734    1.4553 C   0  0  0  0  0  0  0  0  0  0  0  0
   -2.6418    0.9524   -0.9781 C   0  0  0  0  0  0  0  0  0  0  0  0
   -3.9580    0.8049   -0.8893 O   0  0  0  0  0  0  0  0  0  0  0  0
    0.7219   -0.1777   -1.3510 C   0  0  1  0  0  0  0  0  0  0  0  0
    2.0050    0.0241   -0.5523 C   0  0  0  0  0  0  0  0  0  0  0  0
    2.9024   -1.1389   -0.7105 N   0  0  0  0  0  0  0  0  0  0  0  0
    4.2635   -1.0417   -0.4730 C   0  0  0  0  0  0  0  0  0  0  0  0
    5.0017   -2.0125   -0.3668 O   0  0  0  0  0  0  0  0  0  0  0  0
    4.6735    0.2492   -0.3770 O   0  0  0  0  0  0  0  0  0  0  0  0
    6.0641    0.5770   -0.1264 C   0  0  0  0  0  0  0  0  0  0  0  0
    6.0978    2.1128   -0.0869 C   0  0  0  0  0  0  0  0  0  0  0  0
    6.5273    0.0438    1.2337 C   0  0  0  0  0  0  0  0  0  0  0  0
    6.9654    0.0982   -1.2696 C   0  0  0  0  0  0  0  0  0  0  0  0
    2.2830   -2.4702   -0.5956 C   0  0  0  0  0  0  0  0  0  0  0  0
    0.9015   -2.5924   -1.2878 C   0  0  0  0  0  0  0  0  0  0  0  0
    0.0795   -1.4561   -0.9079 N   0  0  0  0  0  0  0  0  0  0  0  0
   -4.2578   -4.7714    3.4245 H   0  0  0  0  0  0  0  0  0  0  0  0
   -5.4838   -3.4560    3.2445 H   0  0  0  0  0  0  0  0  0  0  0  0
   -4.4138   -3.5079    4.6509 H   0  0  0  0  0  0  0  0  0  0  0  0
   -4.9438   -4.4916    1.1777 H   0  0  0  0  0  0  0  0  0  0  0  0
   -4.6146   -4.5122   -1.2592 H   0  0  0  0  0  0  0  0  0  0  0  0
   -1.8428   -1.4988    1.6146 H   0  0  0  0  0  0  0  0  0  0  0  0
   -3.1229   -3.4029   -3.2814 H   0  0  0  0  0  0  0  0  0  0  0  0
    1.0215    2.8768   -1.1947 H   0  0  0  0  0  0  0  0  0  0  0  0
   -3.7499    3.3599   -1.2215 H   0  0  0  0  0  0  0  0  0  0  0  0
   -2.2356    4.2430   -1.2776 H   0  0  0  0  0  0  0  0  0  0  0  0
   -1.0852    4.9448    0.8319 H   0  0  0  0  0  0  0  0  0  0  0  0
   -1.3466    5.5282    3.2186 H   0  0  0  0  0  0  0  0  0  0  0  0
   -3.3244    4.7337    4.4887 H   0  0  0  0  0  0  0  0  0  0  0  0
   -5.0442    3.3450    3.3617 H   0  0  0  0  0  0  0  0  0  0  0  0
   -4.7969    2.7539    0.9758 H   0  0  0  0  0  0  0  0  0  0  0  0
   -4.1421   -0.1499   -0.8352 H   0  0  0  0  0  0  0  0  0  0  0  0
    0.9561   -0.2255   -2.4244 H   0  0  0  0  0  0  0  0  0  0  0  0
    2.5069    0.9391   -0.8843 H   0  0  0  0  0  0  0  0  0  0  0  0
    1.8026    0.1370    0.5206 H   0  0  0  0  0  0  0  0  0  0  0  0
    5.4323    2.4972    0.6948 H   0  0  0  0  0  0  0  0  0  0  0  0
    7.1075    2.4932    0.1003 H   0  0  0  0  0  0  0  0  0  0  0  0
    5.7386    2.5349   -1.0329 H   0  0  0  0  0  0  0  0  0  0  0  0
    7.5164    0.4332    1.4984 H   0  0  0  0  0  0  0  0  0  0  0  0
    5.8198    0.3238    2.0224 H   0  0  0  0  0  0  0  0  0  0  0  0
    6.5933   -1.0483    1.2447 H   0  0  0  0  0  0  0  0  0  0  0  0
    6.5662    0.4175   -2.2389 H   0  0  0  0  0  0  0  0  0  0  0  0
    7.0382   -0.9929   -1.3044 H   0  0  0  0  0  0  0  0  0  0  0  0
    7.9830    0.4904   -1.1658 H   0  0  0  0  0  0  0  0  0  0  0  0
    2.9618   -3.2284   -1.0017 H   0  0  0  0  0  0  0  0  0  0  0  0
    2.1747   -2.6716    0.4781 H   0  0  0  0  0  0  0  0  0  0  0  0
    0.4368   -3.5342   -0.9759 H   0  0  0  0  0  0  0  0  0  0  0  0
    1.0437   -2.6347   -2.3743 H   0  0  0  0  0  0  0  0  0  0  0  0
  1  2  1  0
  2  3  1  0
  3  4  2  0
  4  5  1  0
  5  6  2  0
  6  7  1  0
  7  8  2  0
  7  9  1  0
  9 10  1  0
 10 11  2  0
 10 12  1  0
  9 13  1  0
 13 14  1  0
 14 15  2  0
 15 16  1  0
 15 17  1  0
 17 18  1  0
 18 19  1  0
 19 20  2  0
 20 21  1  0
 21 22  2  0
 22 23  1  0
 23 24  2  0
 17 25  1  0
 25 26  1  0
 14 27  1  0
 27 28  1  0
 28 29  1  0
 29 30  1  0
 30 31  2  0
 30 32  1  0
 32 33  1  0
 33 34  1  0
 33 35  1  0
 33 36  1  0
 29 37  1  0
 37 38  1  0
 38 39  1  0
  8  3  1  0
  9 39  1  1
 12  6  1  0
 25 13  2  0
 39 27  1  0
 24 19  1  0
  1 40  1  0
  1 41  1  0
  1 42  1  0
  4 43  1  0
  5 44  1  0
  8 45  1  0
 12 46  1  0
 16 47  1  0
 18 48  1  0
 18 49  1  0
 20 50  1  0
 21 51  1  0
 22 52  1  0
 23 53  1  0
 24 54  1  0
 26 55  1  0
 27 56  1  6
 28 57  1  0
 28 58  1  0
 34 59  1  0
 34 60  1  0
 34 61  1  0
 35 62  1  0
 35 63  1  0
 35 64  1  0
 36 65  1  0
 36 66  1  0
 36 67  1  0
 37 68  1  0
 37 69  1  0
 38 70  1  0
 38 71  1  0
M  END
$$$$
