
     RDKit          3D

 48 50  0  0  0  0  0  0  0  0999 V2000
   -1.4997    0.1757   -3.8054 C   0  0  0  0  0  0  0  0  0  0  0  0
   -2.0580    1.2525   -2.8933 C   0  0  0  0  0  0  0  0  0  0  0  0
   -1.8872    0.8695   -1.5205 O   0  0  0  0  0  0  0  0  0  0  0  0
   -0.7049    1.2187   -0.9387 C   0  0  0  0  0  0  0  0  0  0  0  0
    0.1843    1.8196   -1.5317 O   0  0  0  0  0  0  0  0  0  0  0  0
   -0.6170    0.8205    0.4693 C   0  0  0  0  0  0  0  0  0  0  0  0
    0.1329    1.5048    1.4127 C   0  0  0  0  0  0  0  0  0  0  0  0
    0.9810    2.6023    1.3946 N   0  0  0  0  0  0  0  0  0  0  0  0
    2.2632    2.5618    0.8817 C   0  0  0  0  0  0  0  0  0  0  0  0
    3.3795    3.5398    1.6636 S   0  0  0  0  0  0  0  0  0  0  0  0
    2.4723    1.7666   -0.2103 N   0  0  0  0  0  0  0  0  0  0  0  0
    3.6621    1.2551   -0.7731 C   0  0  0  0  0  0  0  0  0  0  0  0
    4.8359    1.0335   -0.0519 C   0  0  0  0  0  0  0  0  0  0  0  0
    5.9665    0.5008   -0.6810 C   0  0  0  0  0  0  0  0  0  0  0  0
    5.9267    0.1682   -2.0328 C   0  0  0  0  0  0  0  0  0  0  0  0
    4.7515    0.3555   -2.7544 C   0  0  0  0  0  0  0  0  0  0  0  0
    3.6226    0.8877   -2.1247 C   0  0  0  0  0  0  0  0  0  0  0  0
   -0.1478    0.9776    3.0030 S   0  0  0  0  0  0  0  0  0  0  0  0
   -1.0835   -0.3415    2.4746 C   0  0  0  0  0  0  0  0  0  0  0  0
   -1.3114   -0.3052    1.1059 C   0  0  0  0  0  0  0  0  0  0  0  0
   -2.1267   -1.3634    0.3902 C   0  0  0  0  0  0  0  0  0  0  0  0
   -3.0372   -2.2406    1.2850 C   0  0  0  0  0  0  0  0  0  0  0  0
   -3.5061   -3.4618    0.4746 C   0  0  0  0  0  0  0  0  0  0  0  0
   -4.2788   -1.4645    1.7566 C   0  0  0  0  0  0  0  0  0  0  0  0
   -2.1061   -2.8944    2.7349 S   0  0  0  0  0  0  0  0  0  0  0  0
   -1.5828   -1.3244    3.4874 C   0  0  0  0  0  0  0  0  0  0  0  0
   -1.9701   -0.7902   -3.5931 H   0  0  0  0  0  0  0  0  0  0  0  0
   -1.6716    0.4293   -4.8549 H   0  0  0  0  0  0  0  0  0  0  0  0
   -0.4245    0.0465   -3.6475 H   0  0  0  0  0  0  0  0  0  0  0  0
   -3.1349    1.3599   -3.0646 H   0  0  0  0  0  0  0  0  0  0  0  0
   -1.6007    2.2269   -3.0978 H   0  0  0  0  0  0  0  0  0  0  0  0
    1.0296    3.0633    2.2999 H   0  0  0  0  0  0  0  0  0  0  0  0
    1.6753    1.7638   -0.8449 H   0  0  0  0  0  0  0  0  0  0  0  0
    4.8953    1.2364    1.0115 H   0  0  0  0  0  0  0  0  0  0  0  0
    6.8764    0.3396   -0.1081 H   0  0  0  0  0  0  0  0  0  0  0  0
    6.8090   -0.2419   -2.5188 H   0  0  0  0  0  0  0  0  0  0  0  0
    4.7118    0.0913   -3.8073 H   0  0  0  0  0  0  0  0  0  0  0  0
    2.7155    1.0294   -2.7096 H   0  0  0  0  0  0  0  0  0  0  0  0
   -1.4152   -1.9989   -0.1561 H   0  0  0  0  0  0  0  0  0  0  0  0
   -2.7686   -0.8985   -0.3635 H   0  0  0  0  0  0  0  0  0  0  0  0
   -2.6616   -4.0668    0.1221 H   0  0  0  0  0  0  0  0  0  0  0  0
   -4.0673   -3.1453   -0.4129 H   0  0  0  0  0  0  0  0  0  0  0  0
   -4.1668   -4.1110    1.0614 H   0  0  0  0  0  0  0  0  0  0  0  0
   -4.8842   -1.1495    0.8975 H   0  0  0  0  0  0  0  0  0  0  0  0
   -4.9223   -2.0821    2.3949 H   0  0  0  0  0  0  0  0  0  0  0  0
   -4.0274   -0.5560    2.3122 H   0  0  0  0  0  0  0  0  0  0  0  0
   -2.4289   -0.9004    4.0390 H   0  0  0  0  0  0  0  0  0  0  0  0
   -0.8003   -1.5599    4.2170 H   0  0  0  0  0  0  0  0  0  0  0  0
  1  2  1  0
  2  3  1  0
  3  4  1  0
  4  5  2  0
  4  6  1  0
  6  7  2  0
  7  8  1  0
  8  9  1  0
  9 10  2  0
  9 11  1  0
 11 12  1  0
 12 13  2  0
 13 14  1  0
 14 15  2  0
 15 16  1  0
 16 17  2  0
  7 18  1  0
 18 19  1  0
 19 20  2  0
 20 21  1  0
 21 22  1  0
 22 23  1  0
 22 24  1  0
 22 25  1  0
 25 26  1  0
 20  6  1  0
 17 12  1  0
 26 19  1  0
  1 27  1  0
  1 28  1  0
  1 29  1  0
  2 30  1  0
  2 31  1  0
  8 32  1  0
 11 33  1  0
 13 34  1  0
 14 35  1  0
 15 36  1  0
 16 37  1  0
 17 38  1  0
 21 39  1  0
 21 40  1  0
 23 41  1  0
 23 42  1  0
 23 43  1  0
 24 44  1  0
 24 45  1  0
 24 46  1  0
 26 47  1  0
 26 48  1  0
M  END
$$$$
