
     RDKit          3D

 44 47  0  0  0  0  0  0  0  0999 V2000
   -6.2842   -1.0789   -2.5173 C   0  0  0  0  0  0  0  0  0  0  0  0
   -5.8517   -1.6020   -1.2679 O   0  0  0  0  0  0  0  0  0  0  0  0
   -4.6809   -1.1087   -0.7626 C   0  0  0  0  0  0  0  0  0  0  0  0
   -4.2981   -1.6550    0.4634 C   0  0  0  0  0  0  0  0  0  0  0  0
   -3.1218   -1.2423    1.0949 C   0  0  0  0  0  0  0  0  0  0  0  0
   -2.3019   -0.2706    0.5064 C   0  0  0  0  0  0  0  0  0  0  0  0
   -1.0293    0.1767    1.2088 C   0  0  0  0  0  0  0  0  0  0  0  0
    0.1935    0.0196    0.3326 C   0  0  0  0  0  0  0  0  0  0  0  0
    1.2139    0.8960    0.3319 C   0  0  0  0  0  0  0  0  0  0  0  0
    2.3661    0.6686   -0.5608 C   0  0  0  0  0  0  0  0  0  0  0  0
    2.3171    1.2359   -1.8349 C   0  0  0  0  0  0  0  0  0  0  0  0
    3.3843    1.0277   -2.6830 C   0  0  0  0  0  0  0  0  0  0  0  0
    4.4736    0.3053   -2.3533 N   0  0  0  0  0  0  0  0  0  0  0  0
    4.5250   -0.2489   -1.1323 C   0  0  0  0  0  0  0  0  0  0  0  0
    5.6468   -0.9967   -0.7989 C   0  0  0  0  0  0  0  0  0  0  0  0
    5.7820   -1.6105    0.4489 C   0  0  0  0  0  0  0  0  0  0  0  0
    4.7706   -1.4738    1.3877 C   0  0  0  0  0  0  0  0  0  0  0  0
    4.9201   -2.2248    2.9268 Cl  0  0  0  0  0  0  0  0  0  0  0  0
    3.6337   -0.7294    1.0846 C   0  0  0  0  0  0  0  0  0  0  0  0
    3.4913   -0.1044   -0.1790 C   0  0  0  0  0  0  0  0  0  0  0  0
    1.2800    2.1121    1.2154 C   0  0  0  0  0  0  0  0  0  0  0  0
    0.1434    2.1183    2.2229 C   0  0  0  0  0  0  0  0  0  0  0  0
    0.2763    2.6134    3.3424 O   0  0  0  0  0  0  0  0  0  0  0  0
   -1.1908    1.6032    1.7443 C   0  0  0  0  0  0  0  0  0  0  0  0
   -2.6945    0.2767   -0.7255 C   0  0  0  0  0  0  0  0  0  0  0  0
   -3.8735   -0.1396   -1.3554 C   0  0  0  0  0  0  0  0  0  0  0  0
   -5.5609   -1.2992   -3.3093 H   0  0  0  0  0  0  0  0  0  0  0  0
   -6.4808   -0.0038   -2.4483 H   0  0  0  0  0  0  0  0  0  0  0  0
   -7.2249   -1.5729   -2.7790 H   0  0  0  0  0  0  0  0  0  0  0  0
   -4.9233   -2.4110    0.9329 H   0  0  0  0  0  0  0  0  0  0  0  0
   -2.8566   -1.6893    2.0506 H   0  0  0  0  0  0  0  0  0  0  0  0
   -0.8591   -0.4899    2.0667 H   0  0  0  0  0  0  0  0  0  0  0  0
    0.2288   -0.8644   -0.3047 H   0  0  0  0  0  0  0  0  0  0  0  0
    1.4684    1.8253   -2.1647 H   0  0  0  0  0  0  0  0  0  0  0  0
    3.3950    1.4482   -3.6848 H   0  0  0  0  0  0  0  0  0  0  0  0
    6.4411   -1.1058   -1.5347 H   0  0  0  0  0  0  0  0  0  0  0  0
    6.6747   -2.1881    0.6722 H   0  0  0  0  0  0  0  0  0  0  0  0
    2.8534   -0.6367    1.8359 H   0  0  0  0  0  0  0  0  0  0  0  0
    1.2078    3.0266    0.6170 H   0  0  0  0  0  0  0  0  0  0  0  0
    2.2228    2.1252    1.7738 H   0  0  0  0  0  0  0  0  0  0  0  0
   -1.9046    1.6191    2.5763 H   0  0  0  0  0  0  0  0  0  0  0  0
   -1.5601    2.3014    0.9834 H   0  0  0  0  0  0  0  0  0  0  0  0
   -2.0824    1.0339   -1.2111 H   0  0  0  0  0  0  0  0  0  0  0  0
   -4.1302    0.3135   -2.3070 H   0  0  0  0  0  0  0  0  0  0  0  0
  1  2  1  0
  2  3  1  0
  3  4  2  0
  4  5  1  0
  5  6  2  0
  6  7  1  0
  7  8  1  0
  8  9  2  0
  9 10  1  0
 10 11  2  0
 11 12  1  0
 12 13  2  0
 13 14  1  0
 14 15  2  0
 15 16  1  0
 16 17  2  0
 17 18  1  0
 17 19  1  0
 19 20  2  0
  9 21  1  0
 21 22  1  0
 22 23  2  0
 22 24  1  0
  6 25  1  0
 25 26  2  0
 26  3  1  0
 24  7  1  0
 20 10  1  0
 20 14  1  0
  1 27  1  0
  1 28  1  0
  1 29  1  0
  4 30  1  0
  5 31  1  0
  7 32  1  0
  8 33  1  0
 11 34  1  0
 12 35  1  0
 15 36  1  0
 16 37  1  0
 19 38  1  0
 21 39  1  0
 21 40  1  0
 24 41  1  0
 24 42  1  0
 25 43  1  0
 26 44  1  0
M  END
$$$$
