
     RDKit          3D

123129  0  0  0  0  0  0  0  0999 V2000
    5.1304   -3.6551    0.9564 C   0  0  0  0  0  0  0  0  0  0  0  0
    5.6882   -2.2853    0.5825 C   0  0  0  0  0  0  0  0  0  0  0  0
    4.8609   -1.6963   -0.4292 O   0  0  0  0  0  0  0  0  0  0  0  0
    4.1605   -0.5179   -0.0414 C   0  0  0  0  0  0  0  0  0  0  0  0
    3.1566   -0.8338    0.9307 O   0  0  0  0  0  0  0  0  0  0  0  0
    1.8181   -0.4381    0.5664 C   0  0  0  0  0  0  0  0  0  0  0  0
    1.1201   -0.0978    1.8855 C   0  0  0  0  0  0  0  0  0  0  0  0
   -0.2702    0.5123    1.7071 C   0  0  0  0  0  0  0  0  0  0  0  0
   -1.0574    0.0478    0.4345 C   0  0  0  0  0  0  0  0  0  0  0  0
   -0.8337    1.1134   -0.6608 C   0  0  0  0  0  0  0  0  0  0  0  0
   -0.5434   -1.3834    0.0435 C   0  0  0  0  0  0  0  0  0  0  0  0
   -1.4343   -2.0622   -1.0180 C   0  0  0  0  0  0  0  0  0  0  0  0
   -2.8970   -2.1685   -0.5674 C   0  0  0  0  0  0  0  0  0  0  0  0
   -3.5393   -0.8091   -0.1944 C   0  0  0  0  0  0  0  0  0  0  0  0
   -3.7068    0.0046   -1.5188 C   0  0  0  0  0  0  0  0  0  0  0  0
   -2.5917   -0.0781    0.8239 C   0  0  0  0  0  0  0  0  0  0  0  0
   -3.2575    1.1785    1.3410 C   0  0  0  0  0  0  0  0  0  0  0  0
   -4.5857    1.3811    1.3299 C   0  0  0  0  0  0  0  0  0  0  0  0
   -5.5693    0.4138    0.8335 C   0  0  0  0  0  0  0  0  0  0  0  0
   -6.8758    0.7294    0.6292 C   0  0  0  0  0  0  0  0  0  0  0  0
   -7.4339    2.1508    0.7016 C   0  0  0  0  0  0  0  0  0  0  0  0
   -8.0097    2.6196   -0.6597 C   0  0  0  0  0  0  0  0  0  0  0  0
   -6.8735    2.8172   -1.6858 C   0  0  0  0  0  0  0  0  0  0  0  0
   -8.7168    3.9741   -0.4666 C   0  0  0  0  0  0  0  0  0  0  0  0
   -9.0314    1.5953   -1.1932 C   0  0  0  0  0  0  0  0  0  0  0  0
   -8.5159    0.1509   -1.1756 C   0  0  0  0  0  0  0  0  0  0  0  0
   -7.9499   -0.3084    0.1995 C   0  0  0  0  0  0  0  0  0  0  0  0
   -9.1202   -0.3711    1.2306 C   0  0  0  0  0  0  0  0  0  0  0  0
   -8.6657   -0.7222    2.5392 O   0  0  0  0  0  0  0  0  0  0  0  0
   -7.3915   -1.7624    0.0971 C   0  0  0  0  0  0  0  0  0  0  0  0
   -8.1881   -2.5577   -0.7901 O   0  0  0  0  0  0  0  0  0  0  0  0
   -5.9503   -1.7910   -0.3979 C   0  0  0  0  0  0  0  0  0  0  0  0
   -4.9857   -0.9868    0.5170 C   0  0  0  0  0  0  0  0  0  0  0  0
   -4.9039   -1.7611    1.8709 C   0  0  0  0  0  0  0  0  0  0  0  0
    1.0203   -1.5391   -0.2158 C   0  0  0  0  0  0  0  0  0  0  0  0
    1.4188   -2.9516    0.2949 C   0  0  0  0  0  0  0  0  0  0  0  0
    1.4140   -1.5347   -1.7164 C   0  0  0  0  0  0  0  0  0  0  0  0
    1.2264   -0.2647   -2.3170 O   0  0  0  0  0  0  0  0  0  0  0  0
    5.1192    0.5773    0.4924 C   0  0  0  0  0  0  0  0  0  0  0  0
    4.3809    1.6210    1.1521 O   0  0  0  0  0  0  0  0  0  0  0  0
    6.1959    0.0326    1.4474 C   0  0  0  0  0  0  0  0  0  0  0  0
    7.5146    0.0325    0.8401 O   0  0  0  0  0  0  0  0  0  0  0  0
    8.1904    1.2906    0.9407 C   0  0  0  0  0  0  0  0  0  0  0  0
    7.9416    2.1151   -0.1920 O   0  0  0  0  0  0  0  0  0  0  0  0
    8.2890    1.5210   -1.4615 C   0  0  0  0  0  0  0  0  0  0  0  0
    8.4371    2.6686   -2.4743 C   0  0  0  0  0  0  0  0  0  0  0  0
    9.6686    3.3728   -2.3008 O   0  0  0  0  0  0  0  0  0  0  0  0
    9.5218    0.5979   -1.3816 C   0  0  0  0  0  0  0  0  0  0  0  0
   10.2566    0.5620   -2.6123 O   0  0  0  0  0  0  0  0  0  0  0  0
   10.4418    1.0405   -0.2468 C   0  0  0  0  0  0  0  0  0  0  0  0
   11.5817    0.1598   -0.2026 O   0  0  0  0  0  0  0  0  0  0  0  0
    9.7109    1.0359    1.1013 C   0  0  0  0  0  0  0  0  0  0  0  0
   10.3300    2.0416    1.9294 O   0  0  0  0  0  0  0  0  0  0  0  0
    5.9017   -1.4197    1.8376 C   0  0  0  0  0  0  0  0  0  0  0  0
    6.9846   -1.9347    2.6253 O   0  0  0  0  0  0  0  0  0  0  0  0
    5.8157   -4.2002    1.6106 H   0  0  0  0  0  0  0  0  0  0  0  0
    4.1733   -3.5617    1.4776 H   0  0  0  0  0  0  0  0  0  0  0  0
    4.9512   -4.2575    0.0605 H   0  0  0  0  0  0  0  0  0  0  0  0
    6.6590   -2.4681    0.1068 H   0  0  0  0  0  0  0  0  0  0  0  0
    3.6916   -0.1202   -0.9455 H   0  0  0  0  0  0  0  0  0  0  0  0
    1.8811    0.4912   -0.0051 H   0  0  0  0  0  0  0  0  0  0  0  0
    1.7358    0.5934    2.4748 H   0  0  0  0  0  0  0  0  0  0  0  0
    1.0498   -0.9993    2.5099 H   0  0  0  0  0  0  0  0  0  0  0  0
   -0.8310    0.2777    2.6207 H   0  0  0  0  0  0  0  0  0  0  0  0
   -0.1786    1.6074    1.7092 H   0  0  0  0  0  0  0  0  0  0  0  0
    0.1768    1.5316   -0.6338 H   0  0  0  0  0  0  0  0  0  0  0  0
   -0.9734    0.7230   -1.6686 H   0  0  0  0  0  0  0  0  0  0  0  0
   -1.5067    1.9689   -0.5374 H   0  0  0  0  0  0  0  0  0  0  0  0
   -0.7258   -1.9787    0.9549 H   0  0  0  0  0  0  0  0  0  0  0  0
   -1.0811   -3.0820   -1.2082 H   0  0  0  0  0  0  0  0  0  0  0  0
   -1.3689   -1.5381   -1.9766 H   0  0  0  0  0  0  0  0  0  0  0  0
   -3.4677   -2.6522   -1.3699 H   0  0  0  0  0  0  0  0  0  0  0  0
   -2.9312   -2.8498    0.2895 H   0  0  0  0  0  0  0  0  0  0  0  0
   -4.0389    1.0341   -1.3520 H   0  0  0  0  0  0  0  0  0  0  0  0
   -4.4201   -0.4578   -2.2055 H   0  0  0  0  0  0  0  0  0  0  0  0
   -2.7905    0.0641   -2.1025 H   0  0  0  0  0  0  0  0  0  0  0  0
   -2.5413   -0.7342    1.7041 H   0  0  0  0  0  0  0  0  0  0  0  0
   -2.6262    1.9521    1.7731 H   0  0  0  0  0  0  0  0  0  0  0  0
   -4.9344    2.3181    1.7487 H   0  0  0  0  0  0  0  0  0  0  0  0
   -6.6914    2.8869    1.0168 H   0  0  0  0  0  0  0  0  0  0  0  0
   -8.2073    2.1898    1.4793 H   0  0  0  0  0  0  0  0  0  0  0  0
   -6.1559    3.5695   -1.3343 H   0  0  0  0  0  0  0  0  0  0  0  0
   -7.2697    3.1633   -2.6474 H   0  0  0  0  0  0  0  0  0  0  0  0
   -6.3175    1.8944   -1.8730 H   0  0  0  0  0  0  0  0  0  0  0  0
   -9.1257    4.3451   -1.4131 H   0  0  0  0  0  0  0  0  0  0  0  0
   -8.0235    4.7328   -0.0839 H   0  0  0  0  0  0  0  0  0  0  0  0
   -9.5449    3.8921    0.2467 H   0  0  0  0  0  0  0  0  0  0  0  0
   -9.3251    1.8539   -2.2195 H   0  0  0  0  0  0  0  0  0  0  0  0
   -9.9550    1.6499   -0.6028 H   0  0  0  0  0  0  0  0  0  0  0  0
   -7.7465    0.0424   -1.9512 H   0  0  0  0  0  0  0  0  0  0  0  0
   -9.3469   -0.4984   -1.4790 H   0  0  0  0  0  0  0  0  0  0  0  0
   -9.6685    0.5700    1.3219 H   0  0  0  0  0  0  0  0  0  0  0  0
   -9.8539   -1.1274    0.9287 H   0  0  0  0  0  0  0  0  0  0  0  0
   -8.0355   -0.0326    2.8167 H   0  0  0  0  0  0  0  0  0  0  0  0
   -7.4478   -2.2662    1.0659 H   0  0  0  0  0  0  0  0  0  0  0  0
   -7.8989   -3.4811   -0.6836 H   0  0  0  0  0  0  0  0  0  0  0  0
   -5.6226   -2.8362   -0.4697 H   0  0  0  0  0  0  0  0  0  0  0  0
   -5.9519   -1.4311   -1.4279 H   0  0  0  0  0  0  0  0  0  0  0  0
   -5.8743   -1.7999    2.3794 H   0  0  0  0  0  0  0  0  0  0  0  0
   -4.2341   -1.2989    2.6025 H   0  0  0  0  0  0  0  0  0  0  0  0
   -4.5788   -2.7969    1.7228 H   0  0  0  0  0  0  0  0  0  0  0  0
    1.3112   -3.0369    1.3812 H   0  0  0  0  0  0  0  0  0  0  0  0
    2.4540   -3.1898    0.0431 H   0  0  0  0  0  0  0  0  0  0  0  0
    0.8038   -3.7354   -0.1595 H   0  0  0  0  0  0  0  0  0  0  0  0
    0.8417   -2.2720   -2.2874 H   0  0  0  0  0  0  0  0  0  0  0  0
    2.4666   -1.8058   -1.8446 H   0  0  0  0  0  0  0  0  0  0  0  0
    1.4727   -0.3552   -3.2551 H   0  0  0  0  0  0  0  0  0  0  0  0
    5.6038    1.0395   -0.3715 H   0  0  0  0  0  0  0  0  0  0  0  0
    3.7173    1.1746    1.7087 H   0  0  0  0  0  0  0  0  0  0  0  0
    6.2450    0.6184    2.3747 H   0  0  0  0  0  0  0  0  0  0  0  0
    7.8458    1.8430    1.8230 H   0  0  0  0  0  0  0  0  0  0  0  0
    7.4262    0.9246   -1.7860 H   0  0  0  0  0  0  0  0  0  0  0  0
    7.6303    3.3973   -2.3461 H   0  0  0  0  0  0  0  0  0  0  0  0
    8.3977    2.2973   -3.5043 H   0  0  0  0  0  0  0  0  0  0  0  0
   10.3383    2.8326   -2.7687 H   0  0  0  0  0  0  0  0  0  0  0  0
    9.1960   -0.4343   -1.1962 H   0  0  0  0  0  0  0  0  0  0  0  0
   11.0808    0.0708   -2.3945 H   0  0  0  0  0  0  0  0  0  0  0  0
   10.8579    2.0320   -0.4612 H   0  0  0  0  0  0  0  0  0  0  0  0
   12.1162    0.4594    0.5595 H   0  0  0  0  0  0  0  0  0  0  0  0
    9.8716    0.0849    1.6228 H   0  0  0  0  0  0  0  0  0  0  0  0
   10.0857    2.9129    1.5594 H   0  0  0  0  0  0  0  0  0  0  0  0
    5.0124   -1.4434    2.4769 H   0  0  0  0  0  0  0  0  0  0  0  0
    7.8002   -1.7246    2.1281 H   0  0  0  0  0  0  0  0  0  0  0  0
  1  2  1  0
  2  3  1  0
  3  4  1  0
  4  5  1  0
  5  6  1  0
  6  7  1  0
  7  8  1  0
  8  9  1  0
  9 10  1  0
  9 11  1  0
 11 12  1  0
 12 13  1  0
 13 14  1  0
 14 15  1  0
 14 16  1  0
 16 17  1  0
 17 18  2  0
 18 19  1  0
 19 20  2  0
 20 21  1  0
 21 22  1  0
 22 23  1  0
 22 24  1  0
 22 25  1  0
 25 26  1  0
 26 27  1  0
 27 28  1  0
 28 29  1  0
 27 30  1  0
 30 31  1  0
 30 32  1  0
 32 33  1  0
 33 34  1  0
 11 35  1  0
 35 36  1  0
 35 37  1  0
 37 38  1  0
  4 39  1  0
 39 40  1  0
 39 41  1  0
 41 42  1  0
 42 43  1  0
 43 44  1  0
 44 45  1  0
 45 46  1  0
 46 47  1  0
 45 48  1  0
 48 49  1  0
 48 50  1  0
 50 51  1  0
 50 52  1  0
 52 53  1  0
 41 54  1  0
 54 55  1  0
 54  2  1  0
 35  6  1  0
 52 43  1  0
 16  9  1  0
 33 19  1  0
 33 14  1  0
 27 20  1  0
  1 56  1  0
  1 57  1  0
  1 58  1  0
  2 59  1  0
  4 60  1  0
  6 61  1  0
  7 62  1  0
  7 63  1  0
  8 64  1  0
  8 65  1  0
 10 66  1  0
 10 67  1  0
 10 68  1  0
 11 69  1  0
 12 70  1  0
 12 71  1  0
 13 72  1  0
 13 73  1  0
 15 74  1  0
 15 75  1  0
 15 76  1  0
 16 77  1  0
 17 78  1  0
 18 79  1  0
 21 80  1  0
 21 81  1  0
 23 82  1  0
 23 83  1  0
 23 84  1  0
 24 85  1  0
 24 86  1  0
 24 87  1  0
 25 88  1  0
 25 89  1  0
 26 90  1  0
 26 91  1  0
 28 92  1  0
 28 93  1  0
 29 94  1  0
 30 95  1  0
 31 96  1  0
 32 97  1  0
 32 98  1  0
 34 99  1  0
 34100  1  0
 34101  1  0
 36102  1  0
 36103  1  0
 36104  1  0
 37105  1  0
 37106  1  0
 38107  1  0
 39108  1  0
 40109  1  0
 41110  1  0
 43111  1  0
 45112  1  0
 46113  1  0
 46114  1  0
 47115  1  0
 48116  1  0
 49117  1  0
 50118  1  0
 51119  1  0
 52120  1  0
 53121  1  0
 54122  1  0
 55123  1  0
M  END
$$$$
