
     RDKit          3D

 44 46  0  0  0  0  0  0  0  0999 V2000
    6.2483   -0.0714    2.6532 C   0  0  0  0  0  0  0  0  0  0  0  0
    6.0726    0.9590    1.5538 C   0  0  0  0  0  0  0  0  0  0  0  0
    4.8121    0.7692    0.8951 O   0  0  0  0  0  0  0  0  0  0  0  0
    4.8096   -0.1202   -0.1286 C   0  0  0  0  0  0  0  0  0  0  0  0
    5.7703   -0.7599   -0.5263 O   0  0  0  0  0  0  0  0  0  0  0  0
    3.4493   -0.2329   -0.7213 C   0  0  0  0  0  0  0  0  0  0  0  0
    2.3644    0.5249   -0.2700 C   0  0  0  0  0  0  0  0  0  0  0  0
    1.1049    0.3764   -0.8650 C   0  0  0  0  0  0  0  0  0  0  0  0
    0.8928   -0.5427   -1.8999 C   0  0  0  0  0  0  0  0  0  0  0  0
   -0.3485   -0.6784   -2.5598 N   0  0  0  0  0  0  0  0  0  0  0  0
   -1.6476   -0.4501   -2.0410 C   0  0  0  0  0  0  0  0  0  0  0  0
   -2.6993   -0.4155   -2.9389 C   0  0  0  0  0  0  0  0  0  0  0  0
   -3.9604   -0.1854   -2.4289 C   0  0  0  0  0  0  0  0  0  0  0  0
   -5.1479   -0.1282   -3.3409 C   0  0  0  0  0  0  0  0  0  0  0  0
   -4.1792   -0.0020   -1.1152 N   0  0  0  0  0  0  0  0  0  0  0  0
   -3.1047   -0.0450   -0.3049 C   0  0  0  0  0  0  0  0  0  0  0  0
   -3.3190    0.1551    1.1434 C   0  0  0  0  0  0  0  0  0  0  0  0
   -4.5907    0.4649    1.6641 C   0  0  0  0  0  0  0  0  0  0  0  0
   -4.7953    0.6539    3.0351 C   0  0  0  0  0  0  0  0  0  0  0  0
   -3.7291    0.5363    3.9212 C   0  0  0  0  0  0  0  0  0  0  0  0
   -2.4607    0.2303    3.4381 C   0  0  0  0  0  0  0  0  0  0  0  0
   -2.2603    0.0428    2.0664 C   0  0  0  0  0  0  0  0  0  0  0  0
   -1.8456   -0.2592   -0.7283 N   0  0  0  0  0  0  0  0  0  0  0  0
    1.9973   -1.2702   -2.3682 C   0  0  0  0  0  0  0  0  0  0  0  0
    3.2595   -1.1276   -1.7800 C   0  0  0  0  0  0  0  0  0  0  0  0
    5.4117   -0.0273    3.3581 H   0  0  0  0  0  0  0  0  0  0  0  0
    7.1801    0.0995    3.1996 H   0  0  0  0  0  0  0  0  0  0  0  0
    6.2652   -1.0855    2.2421 H   0  0  0  0  0  0  0  0  0  0  0  0
    6.9041    0.9304    0.8403 H   0  0  0  0  0  0  0  0  0  0  0  0
    6.0573    1.9632    1.9897 H   0  0  0  0  0  0  0  0  0  0  0  0
    2.4774    1.2428    0.5383 H   0  0  0  0  0  0  0  0  0  0  0  0
    0.2895    1.0012   -0.5085 H   0  0  0  0  0  0  0  0  0  0  0  0
   -0.3655   -1.4892   -3.1691 H   0  0  0  0  0  0  0  0  0  0  0  0
   -2.5391   -0.5486   -4.0011 H   0  0  0  0  0  0  0  0  0  0  0  0
   -5.2638   -1.0787   -3.8710 H   0  0  0  0  0  0  0  0  0  0  0  0
   -5.0264    0.6785   -4.0706 H   0  0  0  0  0  0  0  0  0  0  0  0
   -6.0658    0.0599   -2.7747 H   0  0  0  0  0  0  0  0  0  0  0  0
   -5.4428    0.5628    0.9926 H   0  0  0  0  0  0  0  0  0  0  0  0
   -5.7888    0.8922    3.4059 H   0  0  0  0  0  0  0  0  0  0  0  0
   -3.8865    0.6819    4.9866 H   0  0  0  0  0  0  0  0  0  0  0  0
   -1.6236    0.1348    4.1251 H   0  0  0  0  0  0  0  0  0  0  0  0
   -1.2579   -0.1997    1.7159 H   0  0  0  0  0  0  0  0  0  0  0  0
    1.8883   -1.9662   -3.1966 H   0  0  0  0  0  0  0  0  0  0  0  0
    4.0937   -1.7169   -2.1562 H   0  0  0  0  0  0  0  0  0  0  0  0
  1  2  1  0
  2  3  1  0
  3  4  1  0
  4  5  2  0
  4  6  1  0
  6  7  2  0
  7  8  1  0
  8  9  2  0
  9 10  1  0
 10 11  1  0
 11 12  2  0
 12 13  1  0
 13 14  1  0
 13 15  2  0
 15 16  1  0
 16 17  1  0
 17 18  2  0
 18 19  1  0
 19 20  2  0
 20 21  1  0
 21 22  2  0
 16 23  2  0
  9 24  1  0
 24 25  2  0
 25  6  1  0
 23 11  1  0
 22 17  1  0
  1 26  1  0
  1 27  1  0
  1 28  1  0
  2 29  1  0
  2 30  1  0
  7 31  1  0
  8 32  1  0
 10 33  1  0
 12 34  1  0
 14 35  1  0
 14 36  1  0
 14 37  1  0
 18 38  1  0
 19 39  1  0
 20 40  1  0
 21 41  1  0
 22 42  1  0
 24 43  1  0
 25 44  1  0
M  END
$$$$
