
     RDKit          3D

 29 31  0  0  0  0  0  0  0  0999 V2000
   -5.4215   -0.7202   -1.0639 O   0  0  0  0  0  0  0  0  0  0  0  0
   -4.5755   -0.1842   -1.7619 C   0  0  0  0  0  0  0  0  0  0  0  0
   -4.8473    0.5674   -2.8694 N   0  0  0  0  0  0  0  0  0  0  0  0
   -3.7992    1.1056   -3.5494 C   0  0  0  0  0  0  0  0  0  0  0  0
   -3.9702    2.0386   -4.9059 S   0  0  0  0  0  0  0  0  0  0  0  0
   -2.3015    0.6585   -2.7713 S   0  0  0  0  0  0  0  0  0  0  0  0
   -3.1040   -0.2466   -1.5407 C   0  0  0  0  0  0  0  0  0  0  0  0
   -2.6102   -0.9345   -0.5033 C   0  0  0  0  0  0  0  0  0  0  0  0
   -1.2317   -1.0743   -0.1781 C   0  0  0  0  0  0  0  0  0  0  0  0
   -0.6778   -1.7560    0.8980 C   0  0  0  0  0  0  0  0  0  0  0  0
    0.7300   -1.6280    0.8184 C   0  0  0  0  0  0  0  0  0  0  0  0
    0.9954   -0.8668   -0.2982 C   0  0  0  0  0  0  0  0  0  0  0  0
    2.5026   -0.3332   -0.9943 S   0  0  0  0  0  0  0  0  0  0  0  0
    3.6850   -0.5067    0.3669 C   0  0  0  0  0  0  0  0  0  0  0  0
    3.4241    0.4359    1.4842 C   0  0  0  0  0  0  0  0  0  0  0  0
    3.3623    1.8120    1.5800 C   0  0  0  0  0  0  0  0  0  0  0  0
    3.0812    2.1073    2.9353 C   0  0  0  0  0  0  0  0  0  0  0  0
    2.9970    0.8972    3.5817 C   0  0  0  0  0  0  0  0  0  0  0  0
    3.2080   -0.1231    2.7114 O   0  0  0  0  0  0  0  0  0  0  0  0
   -0.1875   -0.5461   -0.8965 O   0  0  0  0  0  0  0  0  0  0  0  0
   -5.8009    0.7126   -3.1634 H   0  0  0  0  0  0  0  0  0  0  0  0
   -3.3105   -1.4369    0.1620 H   0  0  0  0  0  0  0  0  0  0  0  0
   -1.2334   -2.2882    1.6584 H   0  0  0  0  0  0  0  0  0  0  0  0
    1.4523   -2.0436    1.5060 H   0  0  0  0  0  0  0  0  0  0  0  0
    4.6831   -0.3034   -0.0364 H   0  0  0  0  0  0  0  0  0  0  0  0
    3.6965   -1.5446    0.7157 H   0  0  0  0  0  0  0  0  0  0  0  0
    3.4952    2.5128    0.7669 H   0  0  0  0  0  0  0  0  0  0  0  0
    2.9545    3.0816    3.3857 H   0  0  0  0  0  0  0  0  0  0  0  0
    2.8042    0.6068    4.6050 H   0  0  0  0  0  0  0  0  0  0  0  0
  1  2  2  0
  2  3  1  0
  3  4  1  0
  4  5  2  0
  4  6  1  0
  6  7  1  0
  7  8  2  3
  8  9  1  0
  9 10  2  0
 10 11  1  0
 11 12  2  0
 12 13  1  0
 13 14  1  0
 14 15  1  0
 15 16  2  0
 16 17  1  0
 17 18  2  0
 18 19  1  0
 12 20  1  0
  7  2  1  0
 20  9  1  0
 19 15  1  0
  3 21  1  0
  8 22  1  0
 10 23  1  0
 11 24  1  0
 14 25  1  0
 14 26  1  0
 16 27  1  0
 17 28  1  0
 18 29  1  0
M  END
$$$$
