
     RDKit          3D

 45 47  0  0  0  0  0  0  0  0999 V2000
   -5.3826   -1.8518    0.0359 C   0  0  0  0  0  0  0  0  0  0  0  0
   -5.0071   -0.8481    1.1180 C   0  0  0  0  0  0  0  0  0  0  0  0
   -4.3728    0.3501    0.5510 N   0  0  0  0  0  0  0  0  0  0  0  0
   -5.1607    1.5890    0.5899 C   0  0  0  0  0  0  0  0  0  0  0  0
   -6.0529    1.7155   -0.6355 C   0  0  0  0  0  0  0  0  0  0  0  0
   -3.0708    0.3340    0.0590 C   0  0  0  0  0  0  0  0  0  0  0  0
   -2.1883   -0.7323    0.3003 C   0  0  0  0  0  0  0  0  0  0  0  0
   -0.8733   -0.7548   -0.1937 C   0  0  0  0  0  0  0  0  0  0  0  0
   -0.3801    0.3070   -0.9453 C   0  0  0  0  0  0  0  0  0  0  0  0
    0.9656    0.3091   -1.5256 C   0  0  0  0  0  0  0  0  0  0  0  0
    2.1259    0.0915   -0.8921 C   0  0  0  0  0  0  0  0  0  0  0  0
    2.4176   -0.1983    0.5386 C   0  0  0  0  0  0  0  0  0  0  0  0
    1.6599   -0.3286    1.4749 O   0  0  0  0  0  0  0  0  0  0  0  0
    3.8798   -0.3102    0.6208 C   0  0  0  0  0  0  0  0  0  0  0  0
    4.6493   -0.5727    1.7401 C   0  0  0  0  0  0  0  0  0  0  0  0
    6.0385   -0.6329    1.5733 C   0  0  0  0  0  0  0  0  0  0  0  0
    6.6285   -0.4314    0.3023 C   0  0  0  0  0  0  0  0  0  0  0  0
    8.0981   -0.4913    0.1069 C   0  0  0  0  0  0  0  0  0  0  0  0
    8.6799   -0.3296   -0.9487 O   0  0  0  0  0  0  0  0  0  0  0  0
    8.7638   -0.7511    1.2443 O   0  0  0  0  0  0  0  0  0  0  0  0
    5.8273   -0.1663   -0.8188 C   0  0  0  0  0  0  0  0  0  0  0  0
    4.4572   -0.1116   -0.6299 C   0  0  0  0  0  0  0  0  0  0  0  0
    3.4182    0.1478   -1.6318 C   0  0  0  0  0  0  0  0  0  0  0  0
    3.6015    0.3622   -2.8113 O   0  0  0  0  0  0  0  0  0  0  0  0
   -1.2373    1.3711   -1.2183 C   0  0  0  0  0  0  0  0  0  0  0  0
   -2.5502    1.3807   -0.7201 C   0  0  0  0  0  0  0  0  0  0  0  0
   -6.0553   -1.4044   -0.7023 H   0  0  0  0  0  0  0  0  0  0  0  0
   -5.8937   -2.7110    0.4819 H   0  0  0  0  0  0  0  0  0  0  0  0
   -4.5053   -2.2259   -0.4996 H   0  0  0  0  0  0  0  0  0  0  0  0
   -5.9275   -0.5725    1.6480 H   0  0  0  0  0  0  0  0  0  0  0  0
   -4.3716   -1.3119    1.8805 H   0  0  0  0  0  0  0  0  0  0  0  0
   -5.7926    1.5994    1.4870 H   0  0  0  0  0  0  0  0  0  0  0  0
   -4.5233    2.4745    0.6944 H   0  0  0  0  0  0  0  0  0  0  0  0
   -5.4746    1.6830   -1.5638 H   0  0  0  0  0  0  0  0  0  0  0  0
   -6.7886    0.9060   -0.6719 H   0  0  0  0  0  0  0  0  0  0  0  0
   -6.6000    2.6631   -0.6074 H   0  0  0  0  0  0  0  0  0  0  0  0
   -2.4931   -1.5855    0.8978 H   0  0  0  0  0  0  0  0  0  0  0  0
   -0.2496   -1.6160    0.0315 H   0  0  0  0  0  0  0  0  0  0  0  0
    0.9870    0.5395   -2.5911 H   0  0  0  0  0  0  0  0  0  0  0  0
    4.1898   -0.7256    2.7127 H   0  0  0  0  0  0  0  0  0  0  0  0
    6.6634   -0.8381    2.4417 H   0  0  0  0  0  0  0  0  0  0  0  0
    9.7062   -0.7613    0.9719 H   0  0  0  0  0  0  0  0  0  0  0  0
    6.2597   -0.0080   -1.8038 H   0  0  0  0  0  0  0  0  0  0  0  0
   -0.9022    2.2114   -1.8220 H   0  0  0  0  0  0  0  0  0  0  0  0
   -3.1634    2.2365   -0.9846 H   0  0  0  0  0  0  0  0  0  0  0  0
  1  2  1  0
  2  3  1  0
  3  4  1  0
  4  5  1  0
  3  6  1  0
  6  7  2  0
  7  8  1  0
  8  9  2  0
  9 10  1  0
 10 11  2  3
 11 12  1  0
 12 13  2  0
 12 14  1  0
 14 15  2  0
 15 16  1  0
 16 17  2  0
 17 18  1  0
 18 19  2  0
 18 20  1  0
 17 21  1  0
 21 22  2  0
 22 23  1  0
 23 24  2  0
  9 25  1  0
 25 26  2  0
 26  6  1  0
 23 11  1  0
 22 14  1  0
  1 27  1  0
  1 28  1  0
  1 29  1  0
  2 30  1  0
  2 31  1  0
  4 32  1  0
  4 33  1  0
  5 34  1  0
  5 35  1  0
  5 36  1  0
  7 37  1  0
  8 38  1  0
 10 39  1  0
 15 40  1  0
 16 41  1  0
 20 42  1  0
 21 43  1  0
 25 44  1  0
 26 45  1  0
M  END
$$$$
