
     RDKit          3D

 42 44  0  0  0  0  0  0  0  0999 V2000
   -4.5851    3.3735   -1.1825 C   0  0  0  0  0  0  0  0  0  0  0  0
   -4.5916    2.1976   -0.2218 C   0  0  0  0  0  0  0  0  0  0  0  0
   -3.3674    2.2253    0.5131 O   0  0  0  0  0  0  0  0  0  0  0  0
   -3.0396    1.0190    1.0885 C   0  0  0  0  0  0  0  0  0  0  0  0
   -3.9654    0.2460    1.7913 C   0  0  0  0  0  0  0  0  0  0  0  0
   -3.5646   -0.9552    2.3765 C   0  0  0  0  0  0  0  0  0  0  0  0
   -2.2377   -1.3689    2.2838 C   0  0  0  0  0  0  0  0  0  0  0  0
   -1.3042   -0.5881    1.5977 C   0  0  0  0  0  0  0  0  0  0  0  0
   -1.6977    0.6050    0.9834 C   0  0  0  0  0  0  0  0  0  0  0  0
   -0.8159    1.4681    0.2940 N   0  0  0  0  0  0  0  0  0  0  0  0
    0.4496    1.3047   -0.1898 C   0  0  0  0  0  0  0  0  0  0  0  0
    1.3119    2.6818   -0.5798 S   0  0  0  0  0  0  0  0  0  0  0  0
    0.8791    0.0184   -0.3730 N   0  0  0  0  0  0  0  0  0  0  0  0
    2.1725   -0.3973   -0.9145 C   0  0  0  0  0  0  0  0  0  0  0  0
    2.1839   -1.8977   -1.2902 C   0  0  0  0  0  0  0  0  0  0  0  0
    3.3530   -2.4569   -0.4609 C   0  0  0  0  0  0  0  0  0  0  0  0
    4.6774   -1.9077   -1.0202 C   0  0  0  0  0  0  0  0  0  0  0  0
    4.6557   -0.4368   -0.5818 C   0  0  0  0  0  0  0  0  0  0  0  0
    3.3037   -0.3153    0.1434 C   0  0  0  0  0  0  0  0  0  0  0  0
    3.2100   -1.6733    0.8405 C   0  0  0  0  0  0  0  0  0  0  0  0
   -3.6999    3.3460   -1.8267 H   0  0  0  0  0  0  0  0  0  0  0  0
   -4.5515    4.3186   -0.6297 H   0  0  0  0  0  0  0  0  0  0  0  0
   -5.4759    3.3662   -1.8104 H   0  0  0  0  0  0  0  0  0  0  0  0
   -4.6894    1.2655   -0.7947 H   0  0  0  0  0  0  0  0  0  0  0  0
   -5.4384    2.2990    0.4664 H   0  0  0  0  0  0  0  0  0  0  0  0
   -4.9899    0.5753    1.9159 H   0  0  0  0  0  0  0  0  0  0  0  0
   -4.2800   -1.5559    2.9297 H   0  0  0  0  0  0  0  0  0  0  0  0
   -1.9200   -2.2909    2.7657 H   0  0  0  0  0  0  0  0  0  0  0  0
   -0.2689   -0.9090    1.6080 H   0  0  0  0  0  0  0  0  0  0  0  0
   -1.1877    2.4080    0.1696 H   0  0  0  0  0  0  0  0  0  0  0  0
    0.1134   -0.6268   -0.5187 H   0  0  0  0  0  0  0  0  0  0  0  0
    2.3919    0.2156   -1.7962 H   0  0  0  0  0  0  0  0  0  0  0  0
    1.2483   -2.3998   -1.0146 H   0  0  0  0  0  0  0  0  0  0  0  0
    2.3401   -2.0427   -2.3665 H   0  0  0  0  0  0  0  0  0  0  0  0
    3.3371   -3.5436   -0.3639 H   0  0  0  0  0  0  0  0  0  0  0  0
    4.7489   -2.0122   -2.1079 H   0  0  0  0  0  0  0  0  0  0  0  0
    5.5345   -2.4206   -0.5704 H   0  0  0  0  0  0  0  0  0  0  0  0
    5.4854   -0.2366    0.1069 H   0  0  0  0  0  0  0  0  0  0  0  0
    4.7424    0.2494   -1.4299 H   0  0  0  0  0  0  0  0  0  0  0  0
    3.2492    0.5429    0.8170 H   0  0  0  0  0  0  0  0  0  0  0  0
    2.2528   -1.8381    1.3446 H   0  0  0  0  0  0  0  0  0  0  0  0
    4.0300   -1.8522    1.5454 H   0  0  0  0  0  0  0  0  0  0  0  0
  1  2  1  0
  2  3  1  0
  3  4  1  0
  4  5  2  0
  5  6  1  0
  6  7  2  0
  7  8  1  0
  8  9  2  0
  9 10  1  0
 10 11  1  0
 11 12  2  0
 11 13  1  0
 13 14  1  0
 14 15  1  0
 15 16  1  0
 16 17  1  0
 17 18  1  0
 18 19  1  0
 19 20  1  0
  9  4  1  0
 19 14  1  0
 20 16  1  0
  1 21  1  0
  1 22  1  0
  1 23  1  0
  2 24  1  0
  2 25  1  0
  5 26  1  0
  6 27  1  0
  7 28  1  0
  8 29  1  0
 10 30  1  0
 13 31  1  0
 14 32  1  0
 15 33  1  0
 15 34  1  0
 16 35  1  0
 17 36  1  0
 17 37  1  0
 18 38  1  0
 18 39  1  0
 19 40  1  0
 20 41  1  0
 20 42  1  0
M  END
$$$$
