
     RDKit          3D

 39 40  0  0  0  0  0  0  0  0999 V2000
    7.7107    0.1434   -0.1607 C   0  0  0  0  0  0  0  0  0  0  0  0
    6.8543   -0.7545    0.5335 O   0  0  0  0  0  0  0  0  0  0  0  0
    5.5298   -0.7323    0.1935 C   0  0  0  0  0  0  0  0  0  0  0  0
    4.9436    0.0806   -0.7760 C   0  0  0  0  0  0  0  0  0  0  0  0
    3.5685    0.0012   -1.0243 C   0  0  0  0  0  0  0  0  0  0  0  0
    2.7635   -0.8943   -0.3094 C   0  0  0  0  0  0  0  0  0  0  0  0
    1.2813   -0.9623   -0.5640 C   0  0  0  0  0  0  0  0  0  0  0  0
    0.5006    0.0311    0.2922 C   0  0  0  0  0  0  0  0  0  0  0  0
   -0.8954   -0.1133   -0.0156 O   0  0  0  0  0  0  0  0  0  0  0  0
   -1.7050    0.7354    0.6629 C   0  0  0  0  0  0  0  0  0  0  0  0
   -1.3480    1.5710    1.4768 O   0  0  0  0  0  0  0  0  0  0  0  0
   -3.1281    0.5203    0.2852 C   0  0  0  0  0  0  0  0  0  0  0  0
   -3.5262   -0.4802   -0.6087 C   0  0  0  0  0  0  0  0  0  0  0  0
   -4.8795   -0.6457   -0.9308 C   0  0  0  0  0  0  0  0  0  0  0  0
   -5.8741    0.1500   -0.3446 C   0  0  0  0  0  0  0  0  0  0  0  0
   -7.1878    0.0166   -0.8238 N   0  0  0  0  0  0  0  0  0  0  0  0
   -5.4502    1.1857    0.5116 C   0  0  0  0  0  0  0  0  0  0  0  0
   -6.4203    2.1036    1.1089 N   0  0  0  0  0  4  0  0  0  0  0  0
   -7.5523    1.6629    1.3649 O   0  0  0  0  0  0  0  0  0  0  0  0
   -6.0449    3.2617    1.3403 O   0  0  0  0  0  1  0  0  0  0  0  0
   -4.0954    1.3627    0.8429 C   0  0  0  0  0  0  0  0  0  0  0  0
    3.3552   -1.7039    0.6659 C   0  0  0  0  0  0  0  0  0  0  0  0
    4.7279   -1.6224    0.9108 C   0  0  0  0  0  0  0  0  0  0  0  0
    7.7314   -0.0799   -1.2325 H   0  0  0  0  0  0  0  0  0  0  0  0
    8.7245    0.0058    0.2273 H   0  0  0  0  0  0  0  0  0  0  0  0
    7.4231    1.1842    0.0215 H   0  0  0  0  0  0  0  0  0  0  0  0
    5.5255    0.7883   -1.3567 H   0  0  0  0  0  0  0  0  0  0  0  0
    3.1312    0.6471   -1.7830 H   0  0  0  0  0  0  0  0  0  0  0  0
    0.9143   -1.9806   -0.3803 H   0  0  0  0  0  0  0  0  0  0  0  0
    1.0750   -0.7808   -1.6269 H   0  0  0  0  0  0  0  0  0  0  0  0
    0.8193    1.0573    0.0717 H   0  0  0  0  0  0  0  0  0  0  0  0
    0.6605   -0.1743    1.3577 H   0  0  0  0  0  0  0  0  0  0  0  0
   -2.7949   -1.1358   -1.0771 H   0  0  0  0  0  0  0  0  0  0  0  0
   -5.1517   -1.4099   -1.6571 H   0  0  0  0  0  0  0  0  0  0  0  0
   -7.8985    0.3818   -0.1824 H   0  0  0  0  0  0  0  0  0  0  0  0
   -7.4306   -0.9141   -1.1516 H   0  0  0  0  0  0  0  0  0  0  0  0
   -3.7912    2.1557    1.5260 H   0  0  0  0  0  0  0  0  0  0  0  0
    2.7559   -2.4041    1.2433 H   0  0  0  0  0  0  0  0  0  0  0  0
    5.1776   -2.2578    1.6699 H   0  0  0  0  0  0  0  0  0  0  0  0
  1  2  1  0
  2  3  1  0
  3  4  2  0
  4  5  1  0
  5  6  2  0
  6  7  1  0
  7  8  1  0
  8  9  1  0
  9 10  1  0
 10 11  2  0
 10 12  1  0
 12 13  2  0
 13 14  1  0
 14 15  2  0
 15 16  1  0
 15 17  1  0
 17 18  1  0
 18 19  2  0
 18 20  1  0
 17 21  2  0
  6 22  1  0
 22 23  2  0
 23  3  1  0
 21 12  1  0
  1 24  1  0
  1 25  1  0
  1 26  1  0
  4 27  1  0
  5 28  1  0
  7 29  1  0
  7 30  1  0
  8 31  1  0
  8 32  1  0
 13 33  1  0
 14 34  1  0
 16 35  1  0
 16 36  1  0
 21 37  1  0
 22 38  1  0
 23 39  1  0
M  CHG  2  18   1  20  -1
M  END
$$$$
