
     RDKit          3D

 50 52  0  0  0  0  0  0  0  0999 V2000
    6.0679   -2.8887   -2.8145 C   0  0  0  0  0  0  0  0  0  0  0  0
    4.8005   -2.1260   -2.5656 C   0  0  0  0  0  0  0  0  0  0  0  0
    3.7769   -2.6806   -1.7882 C   0  0  0  0  0  0  0  0  0  0  0  0
    2.6076   -1.9577   -1.5357 C   0  0  0  0  0  0  0  0  0  0  0  0
    2.4555   -0.6648   -2.0416 C   0  0  0  0  0  0  0  0  0  0  0  0
    0.9585    0.2383   -1.7016 S   0  0  0  0  0  0  0  0  0  0  0  0
    1.6543    1.5660   -0.6613 C   0  0  0  0  0  0  0  0  0  0  0  0
    0.5315    2.4499   -0.1472 C   0  0  0  0  0  0  0  0  0  0  0  0
    0.0498    3.2939   -0.9136 O   0  0  0  0  0  0  0  0  0  0  0  0
    0.0609    2.3229    1.1567 N   0  0  0  0  0  0  0  0  0  0  0  0
   -1.1172    3.1395    1.4971 C   0  0  0  0  0  0  0  0  0  0  0  0
   -2.3625    2.3251    1.4514 C   0  0  0  0  0  0  0  0  0  0  0  0
   -2.6549    1.2423    0.7664 N   0  0  0  0  0  0  0  0  0  0  0  0
   -3.9390    0.9576    1.1779 C   0  0  0  0  0  0  0  0  0  0  0  0
   -4.6787   -0.1918    0.6673 C   0  0  0  0  0  0  0  0  0  0  0  0
   -4.1131   -1.0077   -0.3249 C   0  0  0  0  0  0  0  0  0  0  0  0
   -4.8072   -2.1159   -0.8171 C   0  0  0  0  0  0  0  0  0  0  0  0
   -6.0738   -2.4216   -0.3233 C   0  0  0  0  0  0  0  0  0  0  0  0
   -6.6492   -1.6192    0.6605 C   0  0  0  0  0  0  0  0  0  0  0  0
   -5.9562   -0.5097    1.1530 C   0  0  0  0  0  0  0  0  0  0  0  0
   -4.4153    1.8174    2.0952 N   0  0  0  0  0  0  0  0  0  0  0  0
   -3.3757    2.7283    2.2696 O   0  0  0  0  0  0  0  0  0  0  0  0
    0.5572    1.4373    2.2353 C   0  0  0  0  0  0  0  0  0  0  0  0
    1.9095    1.8955    2.7825 C   0  0  0  0  0  0  0  0  0  0  0  0
    0.5230   -0.0565    1.9167 C   0  0  0  0  0  0  0  0  0  0  0  0
    3.4759   -0.1070   -2.8163 C   0  0  0  0  0  0  0  0  0  0  0  0
    4.6449   -0.8299   -3.0698 C   0  0  0  0  0  0  0  0  0  0  0  0
    5.8908   -3.9686   -2.7763 H   0  0  0  0  0  0  0  0  0  0  0  0
    6.8151   -2.6273   -2.0601 H   0  0  0  0  0  0  0  0  0  0  0  0
    6.4699   -2.6615   -3.8069 H   0  0  0  0  0  0  0  0  0  0  0  0
    3.8792   -3.6826   -1.3783 H   0  0  0  0  0  0  0  0  0  0  0  0
    1.8194   -2.4127   -0.9403 H   0  0  0  0  0  0  0  0  0  0  0  0
    2.3165    2.1969   -1.2647 H   0  0  0  0  0  0  0  0  0  0  0  0
    2.2643    1.1479    0.1333 H   0  0  0  0  0  0  0  0  0  0  0  0
   -0.9626    3.5593    2.4975 H   0  0  0  0  0  0  0  0  0  0  0  0
   -1.2285    3.9902    0.8183 H   0  0  0  0  0  0  0  0  0  0  0  0
   -3.1248   -0.7819   -0.7240 H   0  0  0  0  0  0  0  0  0  0  0  0
   -4.3570   -2.7374   -1.5868 H   0  0  0  0  0  0  0  0  0  0  0  0
   -6.6136   -3.2838   -0.7066 H   0  0  0  0  0  0  0  0  0  0  0  0
   -7.6381   -1.8557    1.0456 H   0  0  0  0  0  0  0  0  0  0  0  0
   -6.4229    0.1031    1.9214 H   0  0  0  0  0  0  0  0  0  0  0  0
   -0.1466    1.5587    3.0705 H   0  0  0  0  0  0  0  0  0  0  0  0
    1.8675    2.9527    3.0713 H   0  0  0  0  0  0  0  0  0  0  0  0
    2.1802    1.3155    3.6720 H   0  0  0  0  0  0  0  0  0  0  0  0
    2.7211    1.7885    2.0589 H   0  0  0  0  0  0  0  0  0  0  0  0
   -0.4099   -0.3361    1.4169 H   0  0  0  0  0  0  0  0  0  0  0  0
    0.5910   -0.6360    2.8444 H   0  0  0  0  0  0  0  0  0  0  0  0
    1.3587   -0.3792    1.2934 H   0  0  0  0  0  0  0  0  0  0  0  0
    3.3687    0.8892   -3.2376 H   0  0  0  0  0  0  0  0  0  0  0  0
    5.4304   -0.3766   -3.6709 H   0  0  0  0  0  0  0  0  0  0  0  0
  1  2  1  0
  2  3  2  0
  3  4  1  0
  4  5  2  0
  5  6  1  0
  6  7  1  0
  7  8  1  0
  8  9  2  0
  8 10  1  0
 10 11  1  0
 11 12  1  0
 12 13  2  0
 13 14  1  0
 14 15  1  0
 15 16  2  0
 16 17  1  0
 17 18  2  0
 18 19  1  0
 19 20  2  0
 14 21  2  0
 21 22  1  0
 10 23  1  0
 23 24  1  0
 23 25  1  0
  5 26  1  0
 26 27  2  0
 27  2  1  0
 22 12  1  0
 20 15  1  0
  1 28  1  0
  1 29  1  0
  1 30  1  0
  3 31  1  0
  4 32  1  0
  7 33  1  0
  7 34  1  0
 11 35  1  0
 11 36  1  0
 16 37  1  0
 17 38  1  0
 18 39  1  0
 19 40  1  0
 20 41  1  0
 23 42  1  0
 24 43  1  0
 24 44  1  0
 24 45  1  0
 25 46  1  0
 25 47  1  0
 25 48  1  0
 26 49  1  0
 27 50  1  0
M  END
$$$$
