
     RDKit          3D

 42 45  0  0  0  0  0  0  0  0999 V2000
   -2.7975    3.9837   -0.1381 C   0  0  0  0  0  0  0  0  0  0  0  0
   -1.7798    2.9120    0.1256 C   0  0  0  0  0  0  0  0  0  0  0  0
   -0.7909    3.1056    1.1113 C   0  0  0  0  0  0  0  0  0  0  0  0
    0.1591    2.1162    1.3968 C   0  0  0  0  0  0  0  0  0  0  0  0
    0.1121    0.9320    0.6848 C   0  0  0  0  0  0  0  0  0  0  0  0
   -0.9001    0.7226   -0.2714 C   0  0  0  0  0  0  0  0  0  0  0  0
   -1.8396    1.6969   -0.5675 C   0  0  0  0  0  0  0  0  0  0  0  0
   -0.7019   -0.6166   -0.9065 C   0  0  0  0  0  0  0  0  0  0  0  0
   -1.8512   -1.5157   -1.3306 C   0  0  0  0  0  0  0  0  0  0  0  0
   -1.2844   -2.7709   -1.8722 N   0  0  0  0  0  0  0  0  0  0  0  0
   -2.3506   -3.6713   -2.3099 C   0  0  0  0  0  0  0  0  0  0  0  0
   -0.3739   -3.4583   -0.9325 C   0  0  0  0  0  0  0  0  0  0  0  0
    0.7383   -2.5470   -0.3771 C   0  0  0  0  0  0  0  0  0  0  0  0
    0.0708   -1.3181    0.2194 C   0  0  0  0  0  0  0  0  0  0  0  0
    0.8914   -0.2548    0.8189 N   0  0  0  0  0  0  0  0  0  0  0  0
    1.8255   -0.5206    1.8132 C   0  0  0  0  0  0  0  0  0  0  0  0
    1.8326   -1.6088    2.3942 O   0  0  0  0  0  0  0  0  0  0  0  0
    2.8438    0.4783    2.0897 C   0  0  0  0  0  0  0  0  0  0  0  0
    3.7118    0.5983    3.1612 C   0  0  0  0  0  0  0  0  0  0  0  0
    4.5323    1.7230    2.9027 C   0  0  0  0  0  0  0  0  0  0  0  0
    4.1345    2.2124    1.6808 C   0  0  0  0  0  0  0  0  0  0  0  0
    4.8831    3.7248    0.8046 Br  0  0  0  0  0  0  0  0  0  0  0  0
    3.1226    1.4602    1.1755 O   0  0  0  0  0  0  0  0  0  0  0  0
   -3.1497    3.9423   -1.1741 H   0  0  0  0  0  0  0  0  0  0  0  0
   -3.6537    3.8588    0.5319 H   0  0  0  0  0  0  0  0  0  0  0  0
   -2.3661    4.9780    0.0184 H   0  0  0  0  0  0  0  0  0  0  0  0
   -0.7587    4.0397    1.6696 H   0  0  0  0  0  0  0  0  0  0  0  0
    0.8853    2.3006    2.1780 H   0  0  0  0  0  0  0  0  0  0  0  0
   -2.5958    1.5265   -1.3278 H   0  0  0  0  0  0  0  0  0  0  0  0
   -0.0464   -0.4416   -1.7745 H   0  0  0  0  0  0  0  0  0  0  0  0
   -2.4391   -1.0101   -2.1061 H   0  0  0  0  0  0  0  0  0  0  0  0
   -2.5267   -1.7157   -0.4885 H   0  0  0  0  0  0  0  0  0  0  0  0
   -2.9768   -3.1869   -3.0673 H   0  0  0  0  0  0  0  0  0  0  0  0
   -1.9301   -4.5685   -2.7772 H   0  0  0  0  0  0  0  0  0  0  0  0
   -2.9931   -3.9829   -1.4786 H   0  0  0  0  0  0  0  0  0  0  0  0
   -0.9461   -3.8695   -0.0899 H   0  0  0  0  0  0  0  0  0  0  0  0
    0.1027   -4.3043   -1.4424 H   0  0  0  0  0  0  0  0  0  0  0  0
    1.3151   -3.0943    0.3752 H   0  0  0  0  0  0  0  0  0  0  0  0
    1.4382   -2.2647   -1.1732 H   0  0  0  0  0  0  0  0  0  0  0  0
   -0.6082   -1.6500    1.0226 H   0  0  0  0  0  0  0  0  0  0  0  0
    3.7393   -0.0598    4.0197 H   0  0  0  0  0  0  0  0  0  0  0  0
    5.3219    2.1186    3.5259 H   0  0  0  0  0  0  0  0  0  0  0  0
  1  2  1  0
  2  3  2  0
  3  4  1  0
  4  5  2  0
  5  6  1  0
  6  7  2  0
  6  8  1  0
  8  9  1  0
  9 10  1  0
 10 11  1  0
 10 12  1  0
 12 13  1  0
 13 14  1  0
 14 15  1  0
 15 16  1  0
 16 17  2  0
 16 18  1  0
 18 19  2  0
 19 20  1  0
 20 21  2  0
 21 22  1  0
 21 23  1  0
  7  2  1  0
 14  8  1  0
 23 18  1  0
 15  5  1  0
  1 24  1  0
  1 25  1  0
  1 26  1  0
  3 27  1  0
  4 28  1  0
  7 29  1  0
  8 30  1  0
  9 31  1  0
  9 32  1  0
 11 33  1  0
 11 34  1  0
 11 35  1  0
 12 36  1  0
 12 37  1  0
 13 38  1  0
 13 39  1  0
 14 40  1  0
 19 41  1  0
 20 42  1  0
M  END
$$$$
