
     RDKit          3D

 43 44  0  0  0  0  0  0  0  0999 V2000
   -6.3657    0.8021   -1.8124 C   0  0  0  0  0  0  0  0  0  0  0  0
   -6.5233    0.9658   -0.4073 O   0  0  0  0  0  0  0  0  0  0  0  0
   -5.4637    0.5880    0.3774 C   0  0  0  0  0  0  0  0  0  0  0  0
   -4.2547    0.0523   -0.0700 C   0  0  0  0  0  0  0  0  0  0  0  0
   -3.2491   -0.2972    0.8489 C   0  0  0  0  0  0  0  0  0  0  0  0
   -1.9577   -0.8380    0.4033 C   0  0  0  0  0  0  0  0  0  0  0  0
   -1.8661   -1.8470   -0.4751 C   0  0  0  0  0  0  0  0  0  0  0  0
   -0.5925   -2.4385   -0.9727 C   0  0  0  0  0  0  0  0  0  0  0  0
   -0.6614   -3.4224   -1.7126 O   0  0  0  0  0  0  0  0  0  0  0  0
    0.7423   -1.8771   -0.5524 C   0  0  0  0  0  0  0  0  0  0  0  0
    1.0877   -0.5593   -1.1979 C   0  0  0  0  0  0  0  0  0  0  0  0
    0.2914    0.0744   -1.8894 O   0  0  0  0  0  0  0  0  0  0  0  0
    2.4381    0.0337   -0.9800 C   0  0  0  0  0  0  0  0  0  0  0  0
    3.3978   -0.5112   -0.2178 C   0  0  0  0  0  0  0  0  0  0  0  0
    4.7161    0.1091   -0.0184 C   0  0  0  0  0  0  0  0  0  0  0  0
    5.3217    0.0198    1.2424 C   0  0  0  0  0  0  0  0  0  0  0  0
    6.5853    0.5725    1.4635 C   0  0  0  0  0  0  0  0  0  0  0  0
    7.2522    1.2053    0.4227 C   0  0  0  0  0  0  0  0  0  0  0  0
    8.4829    1.7295    0.6827 O   0  0  0  0  0  0  0  0  0  0  0  0
    6.6783    1.2918   -0.8404 C   0  0  0  0  0  0  0  0  0  0  0  0
    5.4128    0.7386   -1.0605 C   0  0  0  0  0  0  0  0  0  0  0  0
   -3.4571   -0.0811    2.2180 C   0  0  0  0  0  0  0  0  0  0  0  0
   -4.6630    0.4522    2.6715 C   0  0  0  0  0  0  0  0  0  0  0  0
   -5.6499    0.7775    1.7511 C   0  0  0  0  0  0  0  0  0  0  0  0
   -6.8240    1.3002    2.2212 O   0  0  0  0  0  0  0  0  0  0  0  0
   -5.5423    1.4166   -2.1912 H   0  0  0  0  0  0  0  0  0  0  0  0
   -7.2863    1.1461   -2.2935 H   0  0  0  0  0  0  0  0  0  0  0  0
   -6.2274   -0.2522   -2.0737 H   0  0  0  0  0  0  0  0  0  0  0  0
   -4.0654   -0.0910   -1.1290 H   0  0  0  0  0  0  0  0  0  0  0  0
   -1.0857   -0.3643    0.8423 H   0  0  0  0  0  0  0  0  0  0  0  0
   -2.7519   -2.3215   -0.8887 H   0  0  0  0  0  0  0  0  0  0  0  0
    0.7647   -1.7816    0.5379 H   0  0  0  0  0  0  0  0  0  0  0  0
    1.5016   -2.6151   -0.8381 H   0  0  0  0  0  0  0  0  0  0  0  0
    2.5830    0.9810   -1.4923 H   0  0  0  0  0  0  0  0  0  0  0  0
    3.2465   -1.4438    0.3183 H   0  0  0  0  0  0  0  0  0  0  0  0
    4.8150   -0.4726    2.0692 H   0  0  0  0  0  0  0  0  0  0  0  0
    7.0475    0.5078    2.4446 H   0  0  0  0  0  0  0  0  0  0  0  0
    8.8256    2.1384   -0.1289 H   0  0  0  0  0  0  0  0  0  0  0  0
    7.1960    1.7757   -1.6626 H   0  0  0  0  0  0  0  0  0  0  0  0
    4.9861    0.7969   -2.0592 H   0  0  0  0  0  0  0  0  0  0  0  0
   -2.6875   -0.3338    2.9435 H   0  0  0  0  0  0  0  0  0  0  0  0
   -4.8326    0.6143    3.7316 H   0  0  0  0  0  0  0  0  0  0  0  0
   -7.3655    1.4582    1.4233 H   0  0  0  0  0  0  0  0  0  0  0  0
  1  2  1  0
  2  3  1  0
  3  4  2  0
  4  5  1  0
  5  6  1  0
  6  7  2  3
  7  8  1  0
  8  9  2  0
  8 10  1  0
 10 11  1  0
 11 12  2  0
 11 13  1  0
 13 14  2  3
 14 15  1  0
 15 16  2  0
 16 17  1  0
 17 18  2  0
 18 19  1  0
 18 20  1  0
 20 21  2  0
  5 22  2  0
 22 23  1  0
 23 24  2  0
 24 25  1  0
 24  3  1  0
 21 15  1  0
  1 26  1  0
  1 27  1  0
  1 28  1  0
  4 29  1  0
  6 30  1  0
  7 31  1  0
 10 32  1  0
 10 33  1  0
 13 34  1  0
 14 35  1  0
 16 36  1  0
 17 37  1  0
 19 38  1  0
 20 39  1  0
 21 40  1  0
 22 41  1  0
 23 42  1  0
 25 43  1  0
M  END
$$$$
