
     RDKit          3D

 40 42  0  0  0  0  0  0  0  0999 V2000
    5.3468    1.6130   -3.0752 C   0  0  0  0  0  0  0  0  0  0  0  0
    5.9940    0.9657   -1.9878 O   0  0  0  0  0  0  0  0  0  0  0  0
    5.1958    0.4590   -0.9989 C   0  0  0  0  0  0  0  0  0  0  0  0
    5.8843   -0.1844    0.0294 C   0  0  0  0  0  0  0  0  0  0  0  0
    5.1903   -0.7444    1.0998 C   0  0  0  0  0  0  0  0  0  0  0  0
    3.7973   -0.6651    1.1493 C   0  0  0  0  0  0  0  0  0  0  0  0
    3.0910   -0.0277    0.1286 C   0  0  0  0  0  0  0  0  0  0  0  0
    1.6847    0.1011    0.1096 N   0  0  0  0  0  0  0  0  0  0  0  0
    0.7791   -0.4390    1.0058 C   0  0  0  0  0  0  0  0  0  0  0  0
    1.0257   -1.1890    1.9421 O   0  0  0  0  0  0  0  0  0  0  0  0
   -0.6433   -0.0805    0.7433 C   0  0  0  0  0  0  0  0  0  0  0  0
   -1.0093    1.1948    0.3013 C   0  0  0  0  0  0  0  0  0  0  0  0
   -2.3531    1.4876    0.0608 C   0  0  0  0  0  0  0  0  0  0  0  0
   -3.3456    0.5158    0.2611 C   0  0  0  0  0  0  0  0  0  0  0  0
   -2.9841   -0.7554    0.7437 C   0  0  0  0  0  0  0  0  0  0  0  0
   -1.6303   -1.0455    0.9744 C   0  0  0  0  0  0  0  0  0  0  0  0
   -4.0121   -1.8379    0.9678 C   0  0  0  0  0  0  0  0  0  0  0  0
   -5.4408   -1.3044    1.0533 C   0  0  0  0  0  0  0  0  0  0  0  0
   -5.7133   -0.3276   -0.0832 C   0  0  0  0  0  0  0  0  0  0  0  0
   -4.7905    0.8850    0.0231 C   0  0  0  0  0  0  0  0  0  0  0  0
    3.8010    0.5369   -0.9445 C   0  0  0  0  0  0  0  0  0  0  0  0
    6.1199    1.9460   -3.7744 H   0  0  0  0  0  0  0  0  0  0  0  0
    4.6884    0.9216   -3.6113 H   0  0  0  0  0  0  0  0  0  0  0  0
    4.7996    2.4992   -2.7373 H   0  0  0  0  0  0  0  0  0  0  0  0
    6.9690   -0.2496   -0.0034 H   0  0  0  0  0  0  0  0  0  0  0  0
    5.7320   -1.2434    1.8990 H   0  0  0  0  0  0  0  0  0  0  0  0
    3.2938   -1.1082    2.0027 H   0  0  0  0  0  0  0  0  0  0  0  0
    1.2987    0.5861   -0.6892 H   0  0  0  0  0  0  0  0  0  0  0  0
   -0.2683    1.9783    0.1705 H   0  0  0  0  0  0  0  0  0  0  0  0
   -2.6286    2.4860   -0.2739 H   0  0  0  0  0  0  0  0  0  0  0  0
   -1.3393   -2.0310    1.3362 H   0  0  0  0  0  0  0  0  0  0  0  0
   -3.7845   -2.3833    1.8915 H   0  0  0  0  0  0  0  0  0  0  0  0
   -3.9408   -2.5502    0.1361 H   0  0  0  0  0  0  0  0  0  0  0  0
   -5.5942   -0.8000    2.0157 H   0  0  0  0  0  0  0  0  0  0  0  0
   -6.1484   -2.1400    1.0122 H   0  0  0  0  0  0  0  0  0  0  0  0
   -5.5591   -0.8316   -1.0458 H   0  0  0  0  0  0  0  0  0  0  0  0
   -6.7580    0.0020   -0.0566 H   0  0  0  0  0  0  0  0  0  0  0  0
   -4.8772    1.4749   -0.8972 H   0  0  0  0  0  0  0  0  0  0  0  0
   -5.1200    1.5190    0.8558 H   0  0  0  0  0  0  0  0  0  0  0  0
    3.2494    1.0340   -1.7341 H   0  0  0  0  0  0  0  0  0  0  0  0
  1  2  1  0
  2  3  1  0
  3  4  2  0
  4  5  1  0
  5  6  2  0
  6  7  1  0
  7  8  1  0
  8  9  1  0
  9 10  2  0
  9 11  1  0
 11 12  2  0
 12 13  1  0
 13 14  2  0
 14 15  1  0
 15 16  2  0
 15 17  1  0
 17 18  1  0
 18 19  1  0
 19 20  1  0
  7 21  2  0
 21  3  1  0
 16 11  1  0
 20 14  1  0
  1 22  1  0
  1 23  1  0
  1 24  1  0
  4 25  1  0
  5 26  1  0
  6 27  1  0
  8 28  1  0
 12 29  1  0
 13 30  1  0
 16 31  1  0
 17 32  1  0
 17 33  1  0
 18 34  1  0
 18 35  1  0
 19 36  1  0
 19 37  1  0
 20 38  1  0
 20 39  1  0
 21 40  1  0
M  END
$$$$
