
     RDKit          3D

 68 73  0  0  0  0  0  0  0  0999 V2000
   -4.6511    5.0323   -1.3867 C   0  0  0  0  0  0  0  0  0  0  0  0
   -3.6728    4.0086   -1.2588 O   0  0  0  0  0  0  0  0  0  0  0  0
   -3.4710    3.4897   -0.0089 C   0  0  0  0  0  0  0  0  0  0  0  0
   -4.1424    3.8876    1.1634 C   0  0  0  0  0  0  0  0  0  0  0  0
   -3.8548    3.2899    2.3970 C   0  0  0  0  0  0  0  0  0  0  0  0
   -2.8976    2.2995    2.4179 C   0  0  0  0  0  0  0  0  0  0  0  0
   -2.2264    1.8841    1.2661 C   0  0  0  0  0  0  0  0  0  0  0  0
   -2.5018    2.4804    0.0453 C   0  0  0  0  0  0  0  0  0  0  0  0
   -1.2634    0.7987    1.6364 C   0  0  1  0  0  0  0  0  0  0  0  0
   -1.4601    0.6680    3.1733 C   0  0  0  0  0  0  0  0  0  0  0  0
   -0.8751   -0.0611    3.9599 O   0  0  0  0  0  0  0  0  0  0  0  0
   -2.4552    1.5859    3.5241 N   0  0  0  0  0  0  0  0  0  0  0  0
   -1.6023   -0.4482    0.8956 C   0  0  0  0  0  0  0  0  0  0  0  0
   -0.4223   -1.0920    0.4884 C   0  0  0  0  0  0  0  0  0  0  0  0
   -0.7488   -2.2450   -0.1711 C   0  0  0  0  0  0  0  0  0  0  0  0
    0.0432   -3.2037   -0.6452 O   0  0  0  0  0  0  0  0  0  0  0  0
   -2.1616   -2.3198   -0.2186 N   0  0  0  0  0  0  0  0  0  0  0  0
   -2.9365   -3.3651   -0.8344 C   0  0  0  0  0  0  0  0  0  0  0  0
   -4.2481   -3.6314   -0.4145 C   0  0  0  0  0  0  0  0  0  0  0  0
   -4.9992   -4.6487   -1.0134 C   0  0  0  0  0  0  0  0  0  0  0  0
   -4.4521   -5.4123   -2.0398 C   0  0  0  0  0  0  0  0  0  0  0  0
   -3.1527   -5.1596   -2.4681 C   0  0  0  0  0  0  0  0  0  0  0  0
   -2.3988   -4.1437   -1.8700 C   0  0  0  0  0  0  0  0  0  0  0  0
   -2.6727   -1.1830    0.4529 C   0  0  0  0  0  0  0  0  0  0  0  0
   -3.9753   -0.9194    0.5362 O   0  0  0  0  0  0  0  0  0  0  0  0
    0.7546   -0.3379    0.9717 C   0  0  1  0  0  0  0  0  0  0  0  0
    1.9572   -0.1657    0.0494 C   0  0  0  0  0  0  0  0  0  0  0  0
    2.9133    0.8037    0.6215 N   0  0  0  0  0  0  0  0  0  0  0  0
    4.2461    0.8175    0.2446 C   0  0  0  0  0  0  0  0  0  0  0  0
    5.0157    1.7294    0.5179 O   0  0  0  0  0  0  0  0  0  0  0  0
    4.5898   -0.2948   -0.4538 O   0  0  0  0  0  0  0  0  0  0  0  0
    5.9434   -0.4864   -0.9389 C   0  0  0  0  0  0  0  0  0  0  0  0
    6.3385    0.6017   -1.9432 C   0  0  0  0  0  0  0  0  0  0  0  0
    5.9034   -1.8366   -1.6712 C   0  0  0  0  0  0  0  0  0  0  0  0
    6.9404   -0.5886    0.2202 C   0  0  0  0  0  0  0  0  0  0  0  0
    2.3453    2.0486    1.1664 C   0  0  0  0  0  0  0  0  0  0  0  0
    1.0310    1.8530    1.9642 C   0  0  0  0  0  0  0  0  0  0  0  0
    0.1333    1.0038    1.1987 N   0  0  0  0  0  0  0  0  0  0  0  0
   -5.6448    4.6656   -1.1089 H   0  0  0  0  0  0  0  0  0  0  0  0
   -4.6883    5.3294   -2.4391 H   0  0  0  0  0  0  0  0  0  0  0  0
   -4.3766    5.9156   -0.8008 H   0  0  0  0  0  0  0  0  0  0  0  0
   -4.8957    4.6694    1.1436 H   0  0  0  0  0  0  0  0  0  0  0  0
   -4.3702    3.6054    3.2975 H   0  0  0  0  0  0  0  0  0  0  0  0
   -1.9775    2.1695   -0.8546 H   0  0  0  0  0  0  0  0  0  0  0  0
   -2.7707    1.7076    4.4751 H   0  0  0  0  0  0  0  0  0  0  0  0
    0.9579   -3.0038   -0.3857 H   0  0  0  0  0  0  0  0  0  0  0  0
   -4.7065   -3.0883    0.4059 H   0  0  0  0  0  0  0  0  0  0  0  0
   -6.0111   -4.8451   -0.6690 H   0  0  0  0  0  0  0  0  0  0  0  0
   -5.0364   -6.2018   -2.5038 H   0  0  0  0  0  0  0  0  0  0  0  0
   -2.7213   -5.7479   -3.2737 H   0  0  0  0  0  0  0  0  0  0  0  0
   -1.4033   -3.9619   -2.2625 H   0  0  0  0  0  0  0  0  0  0  0  0
   -4.0828   -0.0169    0.8838 H   0  0  0  0  0  0  0  0  0  0  0  0
    1.0793   -0.7717    1.9286 H   0  0  0  0  0  0  0  0  0  0  0  0
    1.6616    0.2107   -0.9383 H   0  0  0  0  0  0  0  0  0  0  0  0
    2.4455   -1.1334   -0.1064 H   0  0  0  0  0  0  0  0  0  0  0  0
    6.4563    1.5783   -1.4643 H   0  0  0  0  0  0  0  0  0  0  0  0
    5.5668    0.7198   -2.7125 H   0  0  0  0  0  0  0  0  0  0  0  0
    7.2878    0.3635   -2.4354 H   0  0  0  0  0  0  0  0  0  0  0  0
    6.8825   -2.1067   -2.0810 H   0  0  0  0  0  0  0  0  0  0  0  0
    5.1786   -1.8126   -2.4938 H   0  0  0  0  0  0  0  0  0  0  0  0
    5.5774   -2.6369   -0.9962 H   0  0  0  0  0  0  0  0  0  0  0  0
    6.5967   -1.3153    0.9649 H   0  0  0  0  0  0  0  0  0  0  0  0
    7.0589    0.3646    0.7439 H   0  0  0  0  0  0  0  0  0  0  0  0
    7.9314   -0.8935   -0.1325 H   0  0  0  0  0  0  0  0  0  0  0  0
    2.1592    2.7076    0.3085 H   0  0  0  0  0  0  0  0  0  0  0  0
    3.0871    2.5443    1.8026 H   0  0  0  0  0  0  0  0  0  0  0  0
    1.2630    1.4089    2.9396 H   0  0  0  0  0  0  0  0  0  0  0  0
    0.5825    2.8363    2.1441 H   0  0  0  0  0  0  0  0  0  0  0  0
  1  2  1  0
  2  3  1  0
  3  4  2  0
  4  5  1  0
  5  6  2  0
  6  7  1  0
  7  8  2  0
  7  9  1  0
  9 10  1  0
 10 11  2  0
 10 12  1  0
  9 13  1  0
 13 14  1  0
 14 15  2  0
 15 16  1  0
 15 17  1  0
 17 18  1  0
 18 19  2  0
 19 20  1  0
 20 21  2  0
 21 22  1  0
 22 23  2  0
 17 24  1  0
 24 25  1  0
 14 26  1  0
 26 27  1  0
 27 28  1  0
 28 29  1  0
 29 30  2  0
 29 31  1  0
 31 32  1  0
 32 33  1  0
 32 34  1  0
 32 35  1  0
 28 36  1  0
 36 37  1  0
 37 38  1  0
  8  3  1  0
  9 38  1  1
 12  6  1  0
 24 13  2  0
 38 26  1  0
 23 18  1  0
  1 39  1  0
  1 40  1  0
  1 41  1  0
  4 42  1  0
  5 43  1  0
  8 44  1  0
 12 45  1  0
 16 46  1  0
 19 47  1  0
 20 48  1  0
 21 49  1  0
 22 50  1  0
 23 51  1  0
 25 52  1  0
 26 53  1  1
 27 54  1  0
 27 55  1  0
 33 56  1  0
 33 57  1  0
 33 58  1  0
 34 59  1  0
 34 60  1  0
 34 61  1  0
 35 62  1  0
 35 63  1  0
 35 64  1  0
 36 65  1  0
 36 66  1  0
 37 67  1  0
 37 68  1  0
M  END
$$$$
