
     RDKit          3D

 53 57  0  0  0  0  0  0  0  0999 V2000
    3.7546   -1.3568   -0.9602 C   0  0  0  0  0  0  0  0  0  0  0  0
    4.0370   -1.0842    0.4913 C   0  0  0  0  0  0  0  0  0  0  0  0
    5.3748   -1.0993    0.9232 C   0  0  0  0  0  0  0  0  0  0  0  0
    5.7043   -0.8770    2.2620 C   0  0  0  0  0  0  0  0  0  0  0  0
    4.7026   -0.6446    3.1990 C   0  0  0  0  0  0  0  0  0  0  0  0
    3.3678   -0.6354    2.7989 C   0  0  0  0  0  0  0  0  0  0  0  0
    3.0325   -0.8539    1.4529 C   0  0  0  0  0  0  0  0  0  0  0  0
    1.2876   -0.8249    1.0153 S   0  0  0  0  0  6  0  0  0  0  0  0
    1.0766   -1.8923    0.0633 O   0  0  0  0  0  0  0  0  0  0  0  0
    0.5497   -0.7546    2.2601 O   0  0  0  0  0  0  0  0  0  0  0  0
    1.2169    0.6707    0.2265 N   0  0  0  0  0  0  0  0  0  0  0  0
    0.0438    1.4229    0.4979 C   0  0  0  0  0  0  0  0  0  0  0  0
    0.3793    2.6460    0.9605 N   0  0  0  0  0  0  0  0  0  0  0  0
   -0.6506    3.4469    1.2821 C   0  0  0  0  0  0  0  0  0  0  0  0
   -0.3948    4.7142    1.7915 C   0  0  0  0  0  0  0  0  0  0  0  0
   -1.4319    5.5792    2.1437 C   0  0  0  0  0  0  0  0  0  0  0  0
   -2.7491    5.1705    1.9830 C   0  0  0  0  0  0  0  0  0  0  0  0
   -3.0183    3.9007    1.4704 C   0  0  0  0  0  0  0  0  0  0  0  0
   -1.9950    3.0307    1.1160 C   0  0  0  0  0  0  0  0  0  0  0  0
   -2.3037    1.8187    0.6154 N   0  0  0  0  0  0  0  0  0  0  0  0
   -1.2842    0.9911    0.2820 C   0  0  0  0  0  0  0  0  0  0  0  0
   -1.5781   -0.2598   -0.2980 N   0  0  0  0  0  0  0  0  0  0  0  0
   -2.9286   -0.7406    0.0141 C   0  0  0  0  0  0  0  0  0  0  0  0
   -3.0372   -2.2134   -0.3875 C   0  0  0  0  0  0  0  0  0  0  0  0
   -2.6211   -2.4281   -1.8209 C   0  0  0  0  0  0  0  0  0  0  0  0
   -3.0468   -3.5704   -2.5125 C   0  0  0  0  0  0  0  0  0  0  0  0
   -2.6390   -3.7913   -3.8273 C   0  0  0  0  0  0  0  0  0  0  0  0
   -1.7964   -2.8793   -4.4576 C   0  0  0  0  0  0  0  0  0  0  0  0
   -1.3563   -1.7466   -3.7719 C   0  0  0  0  0  0  0  0  0  0  0  0
   -1.7537   -1.5127   -2.4454 C   0  0  0  0  0  0  0  0  0  0  0  0
   -1.2730   -0.2565   -1.7399 C   0  0  0  0  0  0  0  0  0  0  0  0
    3.3719   -2.3736   -1.0885 H   0  0  0  0  0  0  0  0  0  0  0  0
    4.6659   -1.2690   -1.5627 H   0  0  0  0  0  0  0  0  0  0  0  0
    3.0446   -0.6344   -1.3717 H   0  0  0  0  0  0  0  0  0  0  0  0
    6.1785   -1.2912    0.2138 H   0  0  0  0  0  0  0  0  0  0  0  0
    6.7460   -0.8938    2.5736 H   0  0  0  0  0  0  0  0  0  0  0  0
    4.9592   -0.4787    4.2424 H   0  0  0  0  0  0  0  0  0  0  0  0
    2.5960   -0.4613    3.5466 H   0  0  0  0  0  0  0  0  0  0  0  0
    2.0224    1.2557    0.4381 H   0  0  0  0  0  0  0  0  0  0  0  0
    0.6365    5.0343    1.9201 H   0  0  0  0  0  0  0  0  0  0  0  0
   -1.2078    6.5655    2.5425 H   0  0  0  0  0  0  0  0  0  0  0  0
   -3.5675    5.8331    2.2539 H   0  0  0  0  0  0  0  0  0  0  0  0
   -4.0497    3.5800    1.3431 H   0  0  0  0  0  0  0  0  0  0  0  0
   -3.1323   -0.6668    1.0902 H   0  0  0  0  0  0  0  0  0  0  0  0
   -3.6874   -0.1496   -0.5175 H   0  0  0  0  0  0  0  0  0  0  0  0
   -4.0706   -2.5477   -0.2390 H   0  0  0  0  0  0  0  0  0  0  0  0
   -2.3875   -2.8231    0.2528 H   0  0  0  0  0  0  0  0  0  0  0  0
   -3.6949   -4.2955   -2.0260 H   0  0  0  0  0  0  0  0  0  0  0  0
   -2.9737   -4.6789   -4.3572 H   0  0  0  0  0  0  0  0  0  0  0  0
   -1.4763   -3.0534   -5.4812 H   0  0  0  0  0  0  0  0  0  0  0  0
   -0.6937   -1.0466   -4.2756 H   0  0  0  0  0  0  0  0  0  0  0  0
   -0.1915   -0.1754   -1.8981 H   0  0  0  0  0  0  0  0  0  0  0  0
   -1.7583    0.6006   -2.2275 H   0  0  0  0  0  0  0  0  0  0  0  0
  1  2  1  0
  2  3  2  0
  3  4  1  0
  4  5  2  0
  5  6  1  0
  6  7  2  0
  7  8  1  0
  8  9  2  0
  8 10  2  0
  8 11  1  0
 11 12  1  0
 12 13  2  0
 13 14  1  0
 14 15  2  0
 15 16  1  0
 16 17  2  0
 17 18  1  0
 18 19  2  0
 19 20  1  0
 20 21  2  0
 21 22  1  0
 22 23  1  0
 23 24  1  0
 24 25  1  0
 25 26  2  0
 26 27  1  0
 27 28  2  0
 28 29  1  0
 29 30  2  0
 30 31  1  0
  7  2  1  0
 21 12  1  0
 31 22  1  0
 19 14  1  0
 30 25  1  0
  1 32  1  0
  1 33  1  0
  1 34  1  0
  3 35  1  0
  4 36  1  0
  5 37  1  0
  6 38  1  0
 11 39  1  0
 15 40  1  0
 16 41  1  0
 17 42  1  0
 18 43  1  0
 23 44  1  0
 23 45  1  0
 24 46  1  0
 24 47  1  0
 26 48  1  0
 27 49  1  0
 28 50  1  0
 29 51  1  0
 31 52  1  0
 31 53  1  0
M  END
$$$$
