
     RDKit          3D

 50 53  0  0  0  0  0  0  0  0999 V2000
   -0.2197    2.9148    0.7282 C   0  0  0  0  0  0  0  0  0  0  0  0
    0.4526    1.8028    0.1468 O   0  0  0  0  0  0  0  0  0  0  0  0
    1.7883    1.9642   -0.1355 C   0  0  0  0  0  0  0  0  0  0  0  0
    2.5900    2.9820    0.3913 C   0  0  0  0  0  0  0  0  0  0  0  0
    3.9395    3.0609    0.0430 C   0  0  0  0  0  0  0  0  0  0  0  0
    4.4921    2.1221   -0.8242 C   0  0  0  0  0  0  0  0  0  0  0  0
    3.7007    1.0961   -1.3466 C   0  0  0  0  0  0  0  0  0  0  0  0
    2.3490    1.0049   -1.0067 C   0  0  0  0  0  0  0  0  0  0  0  0
    1.4883   -0.0062   -1.4850 N   0  0  0  0  0  0  0  0  0  0  0  0
    1.7500   -1.0291   -2.3708 C   0  0  0  0  0  0  0  0  0  0  0  0
    2.8211   -1.1911   -2.9486 O   0  0  0  0  0  0  0  0  0  0  0  0
    0.6285   -1.9224   -2.5844 C   0  0  0  0  0  0  0  0  0  0  0  0
   -0.5965   -2.0165   -1.9567 C   0  0  0  0  0  0  0  0  0  0  0  0
   -1.0630   -1.2014   -0.9218 N   0  0  0  0  0  0  0  0  0  0  0  0
   -0.9280   -1.7759    0.2350 C   0  0  0  0  0  0  0  0  0  0  0  0
   -1.2871   -1.1092    1.5118 C   0  0  0  0  0  0  0  0  0  0  0  0
   -0.4990   -1.4483    2.6246 C   0  0  0  0  0  0  0  0  0  0  0  0
    0.5106   -2.3656    2.4980 O   0  0  0  0  0  0  0  0  0  0  0  0
   -0.7180   -0.8506    3.8592 C   0  0  0  0  0  0  0  0  0  0  0  0
   -1.7331    0.0937    3.9920 C   0  0  0  0  0  0  0  0  0  0  0  0
   -2.5505    0.4401    2.9053 C   0  0  0  0  0  0  0  0  0  0  0  0
   -3.5750    1.3847    3.0864 C   0  0  0  0  0  0  0  0  0  0  0  0
   -4.4217    1.7397    2.0389 C   0  0  0  0  0  0  0  0  0  0  0  0
   -4.2577    1.1490    0.7952 C   0  0  0  0  0  0  0  0  0  0  0  0
   -3.2402    0.2105    0.5983 C   0  0  0  0  0  0  0  0  0  0  0  0
   -2.3482   -0.1648    1.6362 C   0  0  0  0  0  0  0  0  0  0  0  0
   -1.3044   -3.0462   -2.5903 C   0  0  0  0  0  0  0  0  0  0  0  0
   -0.5735   -3.6273   -3.5434 N   0  0  0  0  0  0  0  0  0  0  0  0
    0.5893   -2.9303   -3.5252 N   0  0  0  0  0  0  0  0  0  0  0  0
    1.6269   -3.2888   -4.4674 C   0  0  0  0  0  0  0  0  0  0  0  0
    0.0710    3.0373    1.7763 H   0  0  0  0  0  0  0  0  0  0  0  0
   -1.2933    2.7113    0.6988 H   0  0  0  0  0  0  0  0  0  0  0  0
   -0.0461    3.8348    0.1582 H   0  0  0  0  0  0  0  0  0  0  0  0
    2.1950    3.7214    1.0791 H   0  0  0  0  0  0  0  0  0  0  0  0
    4.5609    3.8535    0.4513 H   0  0  0  0  0  0  0  0  0  0  0  0
    5.5428    2.1831   -1.0960 H   0  0  0  0  0  0  0  0  0  0  0  0
    4.1712    0.3799   -2.0124 H   0  0  0  0  0  0  0  0  0  0  0  0
    0.5353    0.0494   -1.1213 H   0  0  0  0  0  0  0  0  0  0  0  0
   -0.4784   -2.7847    0.3279 H   0  0  0  0  0  0  0  0  0  0  0  0
    1.0286   -2.3944    3.3213 H   0  0  0  0  0  0  0  0  0  0  0  0
   -0.1126   -1.1017    4.7259 H   0  0  0  0  0  0  0  0  0  0  0  0
   -1.8910    0.5536    4.9666 H   0  0  0  0  0  0  0  0  0  0  0  0
   -3.7280    1.8530    4.0569 H   0  0  0  0  0  0  0  0  0  0  0  0
   -5.2104    2.4715    2.1973 H   0  0  0  0  0  0  0  0  0  0  0  0
   -4.9180    1.4111   -0.0271 H   0  0  0  0  0  0  0  0  0  0  0  0
   -3.1597   -0.2309   -0.3922 H   0  0  0  0  0  0  0  0  0  0  0  0
   -2.3079   -3.3998   -2.3974 H   0  0  0  0  0  0  0  0  0  0  0  0
    2.4989   -3.6303   -3.9068 H   0  0  0  0  0  0  0  0  0  0  0  0
    1.2682   -4.0961   -5.1120 H   0  0  0  0  0  0  0  0  0  0  0  0
    1.8622   -2.4137   -5.0780 H   0  0  0  0  0  0  0  0  0  0  0  0
  1  2  1  0
  2  3  1  0
  3  4  2  0
  4  5  1  0
  5  6  2  0
  6  7  1  0
  7  8  2  0
  8  9  1  0
  9 10  1  0
 10 11  2  0
 10 12  1  0
 12 13  2  0
 13 14  1  0
 14 15  2  3
 15 16  1  0
 16 17  2  0
 17 18  1  0
 17 19  1  0
 19 20  2  0
 20 21  1  0
 21 22  2  0
 22 23  1  0
 23 24  2  0
 24 25  1  0
 25 26  2  0
 13 27  1  0
 27 28  2  0
 28 29  1  0
 29 30  1  0
  8  3  1  0
 29 12  1  0
 26 16  1  0
 26 21  1  0
  1 31  1  0
  1 32  1  0
  1 33  1  0
  4 34  1  0
  5 35  1  0
  6 36  1  0
  7 37  1  0
  9 38  1  0
 15 39  1  0
 18 40  1  0
 19 41  1  0
 20 42  1  0
 22 43  1  0
 23 44  1  0
 24 45  1  0
 25 46  1  0
 27 47  1  0
 30 48  1  0
 30 49  1  0
 30 50  1  0
M  END
$$$$
