
     RDKit          3D

 49 51  0  0  0  0  0  0  0  0999 V2000
   -0.3900   -1.0790    2.8848 N   0  0  0  0  0  0  0  0  0  0  0  0
   -0.0768   -1.1310    1.5771 C   0  0  0  0  0  0  0  0  0  0  0  0
   -0.0800   -2.2329    0.8909 N   0  0  0  0  0  0  0  0  0  0  0  0
    0.3350   -1.8132   -0.4783 C   0  0  0  0  0  0  0  0  0  0  0  0
    0.6185   -0.2967   -0.4258 C   0  0  0  0  0  0  0  0  0  0  0  0
    2.0612    0.1012   -0.7862 C   0  0  0  0  0  0  0  0  0  0  0  0
    3.1796   -0.5037    0.0340 C   0  0  0  0  0  0  0  0  0  0  0  0
    3.9397   -1.5681   -0.4726 C   0  0  0  0  0  0  0  0  0  0  0  0
    4.9795   -2.1178    0.2790 C   0  0  0  0  0  0  0  0  0  0  0  0
    5.2656   -1.6057    1.5376 C   0  0  0  0  0  0  0  0  0  0  0  0
    6.2906   -2.1716    2.2364 O   0  0  0  0  0  0  0  0  0  0  0  0
    4.5280   -0.5494    2.0599 C   0  0  0  0  0  0  0  0  0  0  0  0
    3.4879    0.0003    1.3065 C   0  0  0  0  0  0  0  0  0  0  0  0
    0.2699    0.0252    0.9567 N   0  0  0  0  0  0  0  0  0  0  0  0
   -0.2429    1.3494    1.2854 C   0  0  0  0  0  0  0  0  0  0  0  0
   -1.7778    1.4450    1.3021 C   0  0  0  0  0  0  0  0  0  0  0  0
   -2.4335    1.2745   -0.0487 C   0  0  0  0  0  0  0  0  0  0  0  0
   -2.4914    2.3413   -0.9553 C   0  0  0  0  0  0  0  0  0  0  0  0
   -3.0821    2.1828   -2.2188 C   0  0  0  0  0  0  0  0  0  0  0  0
   -3.1137    3.3327   -3.1978 C   0  0  0  0  0  0  0  0  0  0  0  0
   -3.1838    4.5496   -2.5899 F   0  0  0  0  0  0  0  0  0  0  0  0
   -4.1727    3.2801   -4.0517 F   0  0  0  0  0  0  0  0  0  0  0  0
   -2.0004    3.3690   -3.9805 F   0  0  0  0  0  0  0  0  0  0  0  0
   -3.6041    0.9277   -2.5727 C   0  0  0  0  0  0  0  0  0  0  0  0
   -3.5631   -0.1527   -1.6765 C   0  0  0  0  0  0  0  0  0  0  0  0
   -4.0995   -1.5083   -2.0735 C   0  0  0  0  0  0  0  0  0  0  0  0
   -3.1326   -2.3081   -2.6001 F   0  0  0  0  0  0  0  0  0  0  0  0
   -4.6426   -2.1985   -1.0345 F   0  0  0  0  0  0  0  0  0  0  0  0
   -5.0769   -1.4337   -3.0204 F   0  0  0  0  0  0  0  0  0  0  0  0
   -2.9717    0.0338   -0.4186 C   0  0  0  0  0  0  0  0  0  0  0  0
    0.2931   -0.5517    3.4121 H   0  0  0  0  0  0  0  0  0  0  0  0
   -0.4595   -2.0244    3.2495 H   0  0  0  0  0  0  0  0  0  0  0  0
    1.1953   -2.4046   -0.8028 H   0  0  0  0  0  0  0  0  0  0  0  0
   -0.4888   -2.0217   -1.1706 H   0  0  0  0  0  0  0  0  0  0  0  0
   -0.0521    0.2102   -1.1287 H   0  0  0  0  0  0  0  0  0  0  0  0
    2.2308   -0.1397   -1.8440 H   0  0  0  0  0  0  0  0  0  0  0  0
    2.1574    1.1937   -0.7230 H   0  0  0  0  0  0  0  0  0  0  0  0
    3.7283   -1.9818   -1.4560 H   0  0  0  0  0  0  0  0  0  0  0  0
    5.5623   -2.9448   -0.1164 H   0  0  0  0  0  0  0  0  0  0  0  0
    6.3586   -1.7278    3.0971 H   0  0  0  0  0  0  0  0  0  0  0  0
    4.7447   -0.1427    3.0419 H   0  0  0  0  0  0  0  0  0  0  0  0
    2.9137    0.8263    1.7188 H   0  0  0  0  0  0  0  0  0  0  0  0
    0.1316    1.6263    2.2784 H   0  0  0  0  0  0  0  0  0  0  0  0
    0.1718    2.0907    0.5914 H   0  0  0  0  0  0  0  0  0  0  0  0
   -2.2072    0.7251    2.0087 H   0  0  0  0  0  0  0  0  0  0  0  0
   -2.0599    2.4315    1.6933 H   0  0  0  0  0  0  0  0  0  0  0  0
   -2.0744    3.3095   -0.6775 H   0  0  0  0  0  0  0  0  0  0  0  0
   -4.0517    0.7900   -3.5589 H   0  0  0  0  0  0  0  0  0  0  0  0
   -2.9136   -0.8064    0.2770 H   0  0  0  0  0  0  0  0  0  0  0  0
  1  2  1  0
  2  3  2  0
  3  4  1  0
  4  5  1  0
  5  6  1  0
  6  7  1  0
  7  8  2  0
  8  9  1  0
  9 10  2  0
 10 11  1  0
 10 12  1  0
 12 13  2  0
  5 14  1  0
 14 15  1  0
 15 16  1  0
 16 17  1  0
 17 18  2  0
 18 19  1  0
 19 20  1  0
 20 21  1  0
 20 22  1  0
 20 23  1  0
 19 24  2  0
 24 25  1  0
 25 26  1  0
 26 27  1  0
 26 28  1  0
 26 29  1  0
 25 30  2  0
 14  2  1  0
 30 17  1  0
 13  7  1  0
  1 31  1  0
  1 32  1  0
  4 33  1  0
  4 34  1  0
  5 35  1  0
  6 36  1  0
  6 37  1  0
  8 38  1  0
  9 39  1  0
 11 40  1  0
 12 41  1  0
 13 42  1  0
 15 43  1  0
 15 44  1  0
 16 45  1  0
 16 46  1  0
 18 47  1  0
 24 48  1  0
 30 49  1  0
M  END
$$$$
