
     RDKit          3D

 66 68  0  0  0  0  0  0  0  0999 V2000
    0.9772    3.6753    5.4263 C   0  0  0  0  0  0  0  0  0  0  0  0
    1.4862    3.0797    4.1265 C   0  0  0  0  0  0  0  0  0  0  0  0
    0.9393    1.6794    3.8915 C   0  0  0  0  0  0  0  0  0  0  0  0
    1.4585    1.1979    2.6611 O   0  0  0  0  0  0  0  0  0  0  0  0
    0.6453    0.0132    1.8938 P   0  0  0  0  0  5  0  0  0  0  0  0
   -0.0847   -0.8781    2.8741 O   0  0  0  0  0  0  0  0  0  0  0  0
    1.8490   -0.7586    0.8466 C   0  0  0  0  0  0  0  0  0  0  0  0
    2.9305   -0.0494    0.3244 C   0  0  0  0  0  0  0  0  0  0  0  0
    3.8476   -0.6713   -0.5359 C   0  0  0  0  0  0  0  0  0  0  0  0
    3.7247   -2.0177   -0.9223 C   0  0  0  0  0  0  0  0  0  0  0  0
    4.6496   -2.6323   -1.7747 N   0  0  0  0  0  0  0  0  0  0  0  0
    5.5094   -1.7909   -2.6054 C   0  0  0  0  0  0  0  0  0  0  0  0
    4.3526   -3.9587   -2.3113 C   0  0  0  0  0  0  0  0  0  0  0  0
    2.6407   -2.7153   -0.3618 C   0  0  0  0  0  0  0  0  0  0  0  0
    1.7193   -2.1031    0.5000 C   0  0  0  0  0  0  0  0  0  0  0  0
   -0.5464    0.9620    0.8044 C   0  0  0  0  0  0  0  0  0  0  0  0
   -1.5629    1.5551    1.6930 N   0  0  0  0  0  0  0  0  0  0  0  0
   -2.4632    2.5259    1.2676 C   0  0  0  0  0  0  0  0  0  0  0  0
   -2.2600    3.3433    0.1510 C   0  0  0  0  0  0  0  0  0  0  0  0
   -3.1703    4.3515   -0.1872 C   0  0  0  0  0  0  0  0  0  0  0  0
   -4.2901    4.5784    0.6060 C   0  0  0  0  0  0  0  0  0  0  0  0
   -4.4916    3.8043    1.7431 C   0  0  0  0  0  0  0  0  0  0  0  0
   -3.5786    2.7984    2.0732 C   0  0  0  0  0  0  0  0  0  0  0  0
   -1.1744    0.0842   -0.2647 C   0  0  0  0  0  0  0  0  0  0  0  0
   -0.8417    0.2639   -1.6092 C   0  0  0  0  0  0  0  0  0  0  0  0
   -1.3746   -0.5762   -2.5976 C   0  0  0  0  0  0  0  0  0  0  0  0
   -2.2495   -1.6336   -2.2956 C   0  0  0  0  0  0  0  0  0  0  0  0
   -2.7801   -2.4537   -3.3001 N   0  0  0  0  0  0  0  0  0  0  0  0
   -1.9533   -2.6942   -4.4828 C   0  0  0  0  0  0  0  0  0  0  0  0
   -3.6815   -3.5430   -2.9321 C   0  0  0  0  0  0  0  0  0  0  0  0
   -2.5826   -1.7837   -0.9397 C   0  0  0  0  0  0  0  0  0  0  0  0
   -2.0525   -0.9534    0.0590 C   0  0  0  0  0  0  0  0  0  0  0  0
    1.3894    4.6788    5.5711 H   0  0  0  0  0  0  0  0  0  0  0  0
   -0.1145    3.7545    5.4201 H   0  0  0  0  0  0  0  0  0  0  0  0
    1.2729    3.0602    6.2820 H   0  0  0  0  0  0  0  0  0  0  0  0
    1.2082    3.7272    3.2868 H   0  0  0  0  0  0  0  0  0  0  0  0
    2.5823    3.0497    4.1337 H   0  0  0  0  0  0  0  0  0  0  0  0
   -0.1535    1.6968    3.8738 H   0  0  0  0  0  0  0  0  0  0  0  0
    1.2604    1.0002    4.6882 H   0  0  0  0  0  0  0  0  0  0  0  0
    3.0777    0.9960    0.5887 H   0  0  0  0  0  0  0  0  0  0  0  0
    4.6747   -0.0632   -0.8896 H   0  0  0  0  0  0  0  0  0  0  0  0
    4.9151   -1.1323   -3.2485 H   0  0  0  0  0  0  0  0  0  0  0  0
    6.1887   -1.1907   -1.9911 H   0  0  0  0  0  0  0  0  0  0  0  0
    6.1502   -2.3959   -3.2566 H   0  0  0  0  0  0  0  0  0  0  0  0
    4.2378   -4.6955   -1.5089 H   0  0  0  0  0  0  0  0  0  0  0  0
    3.4474   -3.9413   -2.9284 H   0  0  0  0  0  0  0  0  0  0  0  0
    5.1737   -4.3252   -2.9381 H   0  0  0  0  0  0  0  0  0  0  0  0
    2.4758   -3.7659   -0.5813 H   0  0  0  0  0  0  0  0  0  0  0  0
    0.8919   -2.6879    0.8985 H   0  0  0  0  0  0  0  0  0  0  0  0
    0.0671    1.7491    0.3510 H   0  0  0  0  0  0  0  0  0  0  0  0
   -1.9772    0.8583    2.3106 H   0  0  0  0  0  0  0  0  0  0  0  0
   -1.3923    3.2172   -0.4861 H   0  0  0  0  0  0  0  0  0  0  0  0
   -2.9969    4.9620   -1.0693 H   0  0  0  0  0  0  0  0  0  0  0  0
   -4.9963    5.3613    0.3447 H   0  0  0  0  0  0  0  0  0  0  0  0
   -5.3544    3.9823    2.3790 H   0  0  0  0  0  0  0  0  0  0  0  0
   -3.7501    2.2193    2.9775 H   0  0  0  0  0  0  0  0  0  0  0  0
   -0.1633    1.0581   -1.9129 H   0  0  0  0  0  0  0  0  0  0  0  0
   -1.0958   -0.3661   -3.6257 H   0  0  0  0  0  0  0  0  0  0  0  0
   -0.9617   -3.0673   -4.2024 H   0  0  0  0  0  0  0  0  0  0  0  0
   -2.4106   -3.4412   -5.1419 H   0  0  0  0  0  0  0  0  0  0  0  0
   -1.8468   -1.7861   -5.0849 H   0  0  0  0  0  0  0  0  0  0  0  0
   -4.5345   -3.1748   -2.3511 H   0  0  0  0  0  0  0  0  0  0  0  0
   -3.1541   -4.3173   -2.3644 H   0  0  0  0  0  0  0  0  0  0  0  0
   -4.1077   -4.0139   -3.8255 H   0  0  0  0  0  0  0  0  0  0  0  0
   -3.2587   -2.5674   -0.6129 H   0  0  0  0  0  0  0  0  0  0  0  0
   -2.3368   -1.1387    1.0930 H   0  0  0  0  0  0  0  0  0  0  0  0
  1  2  1  0
  2  3  1  0
  3  4  1  0
  4  5  1  0
  5  6  2  0
  5  7  1  0
  7  8  2  0
  8  9  1  0
  9 10  2  0
 10 11  1  0
 11 12  1  0
 11 13  1  0
 10 14  1  0
 14 15  2  0
  5 16  1  0
 16 17  1  0
 17 18  1  0
 18 19  2  0
 19 20  1  0
 20 21  2  0
 21 22  1  0
 22 23  2  0
 16 24  1  0
 24 25  2  0
 25 26  1  0
 26 27  2  0
 27 28  1  0
 28 29  1  0
 28 30  1  0
 27 31  1  0
 31 32  2  0
 15  7  1  0
 23 18  1  0
 32 24  1  0
  1 33  1  0
  1 34  1  0
  1 35  1  0
  2 36  1  0
  2 37  1  0
  3 38  1  0
  3 39  1  0
  8 40  1  0
  9 41  1  0
 12 42  1  0
 12 43  1  0
 12 44  1  0
 13 45  1  0
 13 46  1  0
 13 47  1  0
 14 48  1  0
 15 49  1  0
 16 50  1  0
 17 51  1  0
 19 52  1  0
 20 53  1  0
 21 54  1  0
 22 55  1  0
 23 56  1  0
 25 57  1  0
 26 58  1  0
 29 59  1  0
 29 60  1  0
 29 61  1  0
 30 62  1  0
 30 63  1  0
 30 64  1  0
 31 65  1  0
 32 66  1  0
M  END
$$$$
