
     RDKit          3D

 45 48  0  0  0  0  0  0  0  0999 V2000
   -4.8144    2.5535    0.5197 C   0  0  0  0  0  0  0  0  0  0  0  0
   -3.9649    1.4731    0.1621 O   0  0  0  0  0  0  0  0  0  0  0  0
   -4.5059    0.2094    0.0974 C   0  0  0  0  0  0  0  0  0  0  0  0
   -5.8558   -0.0484    0.3984 C   0  0  0  0  0  0  0  0  0  0  0  0
   -6.3869   -1.3311    0.2763 C   0  0  0  0  0  0  0  0  0  0  0  0
   -5.5760   -2.3710   -0.1472 C   0  0  0  0  0  0  0  0  0  0  0  0
   -4.2331   -2.1261   -0.4434 C   0  0  0  0  0  0  0  0  0  0  0  0
   -3.6519   -0.8440   -0.3302 C   0  0  0  0  0  0  0  0  0  0  0  0
   -2.2963   -0.6928   -0.6245 N   0  0  0  0  0  0  0  0  0  0  0  0
   -1.4871    0.3848   -0.0399 C   0  0  0  0  0  0  0  0  0  0  0  0
    0.0114    0.0163   -0.0228 C   0  0  0  0  0  0  0  0  0  0  0  0
    0.5316   -0.3882   -1.3374 N   0  0  0  0  0  0  0  0  0  0  0  0
    1.8708   -0.3361   -1.7314 C   0  0  0  0  0  0  0  0  0  0  0  0
    2.1780   -0.4818   -2.9173 O   0  0  0  0  0  0  0  0  0  0  0  0
    2.9355   -0.1085   -0.7390 C   0  0  0  0  0  0  0  0  0  0  0  0
    4.2836    0.2298   -1.0409 C   0  0  0  0  0  0  0  0  0  0  0  0
    4.9376    0.3134    0.1699 C   0  0  0  0  0  0  0  0  0  0  0  0
    6.3068    0.6278    0.4735 C   0  0  0  0  0  0  0  0  0  0  0  0
    6.8775    0.6736    1.7322 C   0  0  0  0  0  0  0  0  0  0  0  0
    8.2609    1.0174    1.6968 C   0  0  0  0  0  0  0  0  0  0  0  0
    8.7048    1.2243    0.4108 C   0  0  0  0  0  0  0  0  0  0  0  0
    7.4592    1.0044   -0.7389 S   0  0  0  0  0  0  0  0  0  0  0  0
    4.0198    0.0251    1.1445 O   0  0  0  0  0  0  0  0  0  0  0  0
    2.7900   -0.2482    0.5870 N   0  0  0  0  0  0  0  0  0  0  0  0
   -0.4765   -0.7641   -2.3311 C   0  0  0  0  0  0  0  0  0  0  0  0
   -1.6861   -1.4825   -1.7073 C   0  0  0  0  0  0  0  0  0  0  0  0
   -5.6292    2.6734   -0.2019 H   0  0  0  0  0  0  0  0  0  0  0  0
   -5.1970    2.4347    1.5386 H   0  0  0  0  0  0  0  0  0  0  0  0
   -4.2157    3.4693    0.4968 H   0  0  0  0  0  0  0  0  0  0  0  0
   -6.5276    0.7365    0.7282 H   0  0  0  0  0  0  0  0  0  0  0  0
   -7.4317   -1.5139    0.5123 H   0  0  0  0  0  0  0  0  0  0  0  0
   -5.9771   -3.3765   -0.2399 H   0  0  0  0  0  0  0  0  0  0  0  0
   -3.6238   -2.9761   -0.7396 H   0  0  0  0  0  0  0  0  0  0  0  0
   -1.7865    0.5841    0.9958 H   0  0  0  0  0  0  0  0  0  0  0  0
   -1.6161    1.3003   -0.6300 H   0  0  0  0  0  0  0  0  0  0  0  0
    0.1696   -0.8298    0.6560 H   0  0  0  0  0  0  0  0  0  0  0  0
    0.5759    0.8788    0.3442 H   0  0  0  0  0  0  0  0  0  0  0  0
    4.7017    0.3854   -2.0251 H   0  0  0  0  0  0  0  0  0  0  0  0
    6.3275    0.4682    2.6436 H   0  0  0  0  0  0  0  0  0  0  0  0
    8.8956    1.1073    2.5700 H   0  0  0  0  0  0  0  0  0  0  0  0
    9.7014    1.4941    0.0886 H   0  0  0  0  0  0  0  0  0  0  0  0
   -0.0304   -1.4048   -3.0995 H   0  0  0  0  0  0  0  0  0  0  0  0
   -0.7995    0.1623   -2.8219 H   0  0  0  0  0  0  0  0  0  0  0  0
   -2.4113   -1.6772   -2.5070 H   0  0  0  0  0  0  0  0  0  0  0  0
   -1.3581   -2.4464   -1.2995 H   0  0  0  0  0  0  0  0  0  0  0  0
  1  2  1  0
  2  3  1  0
  3  4  2  0
  4  5  1  0
  5  6  2  0
  6  7  1  0
  7  8  2  0
  8  9  1  0
  9 10  1  0
 10 11  1  0
 11 12  1  0
 12 13  1  0
 13 14  2  0
 13 15  1  0
 15 16  1  0
 16 17  2  0
 17 18  1  0
 18 19  2  0
 19 20  1  0
 20 21  2  0
 21 22  1  0
 17 23  1  0
 23 24  1  0
 12 25  1  0
 25 26  1  0
  8  3  1  0
 26  9  1  0
 24 15  2  0
 22 18  1  0
  1 27  1  0
  1 28  1  0
  1 29  1  0
  4 30  1  0
  5 31  1  0
  6 32  1  0
  7 33  1  0
 10 34  1  0
 10 35  1  0
 11 36  1  0
 11 37  1  0
 16 38  1  0
 19 39  1  0
 20 40  1  0
 21 41  1  0
 25 42  1  0
 25 43  1  0
 26 44  1  0
 26 45  1  0
M  END
$$$$
