
     RDKit          3D

 55 59  0  0  0  0  0  0  0  0999 V2000
   -2.7128   -1.6992   -0.5794 C   0  0  0  0  0  0  0  0  0  0  0  0
   -2.8902   -0.3574    0.0767 C   0  0  0  0  0  0  0  0  0  0  0  0
   -3.9171    0.5110   -0.2900 C   0  0  0  0  0  0  0  0  0  0  0  0
   -4.8880    0.2329   -1.3593 C   0  0  0  0  0  0  0  0  0  0  0  0
   -4.4829    0.1016   -2.7001 C   0  0  0  0  0  0  0  0  0  0  0  0
   -5.4126   -0.1615   -3.7098 C   0  0  0  0  0  0  0  0  0  0  0  0
   -6.7640   -0.2906   -3.3940 C   0  0  0  0  0  0  0  0  0  0  0  0
   -7.1812   -0.1455   -2.0728 C   0  0  0  0  0  0  0  0  0  0  0  0
   -8.8519   -0.2944   -1.6833 Cl  0  0  0  0  0  0  0  0  0  0  0  0
   -6.2567    0.1180   -1.0622 C   0  0  0  0  0  0  0  0  0  0  0  0
   -4.1171    1.7060    0.3193 N   0  0  0  0  0  0  0  0  0  0  0  0
   -3.2896    2.1100    1.2930 C   0  0  0  0  0  0  0  0  0  0  0  0
   -3.5243    3.3447    1.8849 C   0  0  0  0  0  0  0  0  0  0  0  0
   -2.7046    3.8492    2.8965 C   0  0  0  0  0  0  0  0  0  0  0  0
   -1.6212    3.1033    3.3350 C   0  0  0  0  0  0  0  0  0  0  0  0
   -1.3675    1.8599    2.7581 C   0  0  0  0  0  0  0  0  0  0  0  0
   -2.1971    1.3439    1.7276 C   0  0  0  0  0  0  0  0  0  0  0  0
   -2.0133    0.0998    1.0787 C   0  0  0  0  0  0  0  0  0  0  0  0
   -0.8691   -0.7420    1.4757 C   0  0  0  0  0  0  0  0  0  0  0  0
   -0.7470   -1.2904    2.5556 O   0  0  0  0  0  0  0  0  0  0  0  0
    0.0108   -0.7776    0.4477 O   0  0  0  0  0  0  0  0  0  0  0  0
    1.1640   -1.5714    0.7151 C   0  0  0  0  0  0  0  0  0  0  0  0
    2.0934   -1.5814   -0.4912 C   0  0  0  0  0  0  0  0  0  0  0  0
    1.8998   -0.8746   -1.4864 O   0  0  0  0  0  0  0  0  0  0  0  0
    3.3025   -2.4840   -0.3796 C   0  0  0  0  0  0  0  0  0  0  0  0
    3.3810   -3.3719   -1.5430 C   0  0  0  0  0  0  0  0  0  0  0  0
    3.4286   -4.0851   -2.4578 N   0  0  0  0  0  0  0  0  0  0  0  0
    4.5184   -1.6262   -0.2580 C   0  0  0  0  0  0  0  0  0  0  0  0
    5.3423   -1.6025    0.7714 N   0  0  0  0  0  0  0  0  0  0  0  0
    6.3033   -0.6713    0.4591 C   0  0  0  0  0  0  0  0  0  0  0  0
    7.4247   -0.2589    1.1917 C   0  0  0  0  0  0  0  0  0  0  0  0
    8.2594    0.7240    0.6446 C   0  0  0  0  0  0  0  0  0  0  0  0
    7.9811    1.2842   -0.6047 C   0  0  0  0  0  0  0  0  0  0  0  0
    6.8640    0.8855   -1.3486 C   0  0  0  0  0  0  0  0  0  0  0  0
    6.0513   -0.0970   -0.7804 C   0  0  0  0  0  0  0  0  0  0  0  0
    4.9067   -0.7130   -1.2159 N   0  0  0  0  0  0  0  0  0  0  0  0
   -2.2800   -2.4320    0.1100 H   0  0  0  0  0  0  0  0  0  0  0  0
   -3.6709   -2.1264   -0.8913 H   0  0  0  0  0  0  0  0  0  0  0  0
   -2.0609   -1.6083   -1.4539 H   0  0  0  0  0  0  0  0  0  0  0  0
   -3.4336    0.2180   -2.9670 H   0  0  0  0  0  0  0  0  0  0  0  0
   -5.0830   -0.2573   -4.7418 H   0  0  0  0  0  0  0  0  0  0  0  0
   -7.4854   -0.4937   -4.1808 H   0  0  0  0  0  0  0  0  0  0  0  0
   -6.5965    0.2409   -0.0351 H   0  0  0  0  0  0  0  0  0  0  0  0
   -4.3719    3.9359    1.5440 H   0  0  0  0  0  0  0  0  0  0  0  0
   -2.9174    4.8210    3.3356 H   0  0  0  0  0  0  0  0  0  0  0  0
   -0.9766    3.4831    4.1242 H   0  0  0  0  0  0  0  0  0  0  0  0
   -0.5159    1.2909    3.1275 H   0  0  0  0  0  0  0  0  0  0  0  0
    0.8576   -2.6039    0.9161 H   0  0  0  0  0  0  0  0  0  0  0  0
    1.7172   -1.1529    1.5634 H   0  0  0  0  0  0  0  0  0  0  0  0
    3.2047   -3.0945    0.5254 H   0  0  0  0  0  0  0  0  0  0  0  0
    7.6362   -0.6976    2.1608 H   0  0  0  0  0  0  0  0  0  0  0  0
    9.1353    1.0512    1.2000 H   0  0  0  0  0  0  0  0  0  0  0  0
    8.6471    2.0442   -1.0092 H   0  0  0  0  0  0  0  0  0  0  0  0
    6.6511    1.3192   -2.3201 H   0  0  0  0  0  0  0  0  0  0  0  0
    4.4196   -0.5161   -2.0820 H   0  0  0  0  0  0  0  0  0  0  0  0
  1  2  1  0
  2  3  2  0
  3  4  1  0
  4  5  2  0
  5  6  1  0
  6  7  2  0
  7  8  1  0
  8  9  1  0
  8 10  2  0
  3 11  1  0
 11 12  2  0
 12 13  1  0
 13 14  2  0
 14 15  1  0
 15 16  2  0
 16 17  1  0
 17 18  2  0
 18 19  1  0
 19 20  2  0
 19 21  1  0
 21 22  1  0
 22 23  1  0
 23 24  2  0
 23 25  1  0
 25 26  1  0
 26 27  3  0
 25 28  1  0
 28 29  2  0
 29 30  1  0
 30 31  2  0
 31 32  1  0
 32 33  2  0
 33 34  1  0
 34 35  2  0
 35 36  1  0
 18  2  1  0
 36 28  1  0
 10  4  1  0
 17 12  1  0
 35 30  1  0
  1 37  1  0
  1 38  1  0
  1 39  1  0
  5 40  1  0
  6 41  1  0
  7 42  1  0
 10 43  1  0
 13 44  1  0
 14 45  1  0
 15 46  1  0
 16 47  1  0
 22 48  1  0
 22 49  1  0
 25 50  1  0
 31 51  1  0
 32 52  1  0
 33 53  1  0
 34 54  1  0
 36 55  1  0
M  END
$$$$
