
     RDKit          3D

 52 56  0  0  0  0  0  0  0  0999 V2000
   -0.1969   -2.8442    1.9818 C   0  0  0  0  0  0  0  0  0  0  0  0
   -1.0297   -2.2935    0.8333 C   0  0  0  0  0  0  0  0  0  0  0  0
   -0.5689   -0.9098    0.3618 C   0  0  0  0  0  0  0  0  0  0  0  0
   -0.5618    0.1522    1.4341 C   0  0  0  0  0  0  0  0  0  0  0  0
    0.4137    0.2278    2.1720 O   0  0  0  0  0  0  0  0  0  0  0  0
   -1.7242    1.0588    1.6279 C   0  0  0  0  0  0  0  0  0  0  0  0
   -2.9839    0.7971    1.0759 C   0  0  0  0  0  0  0  0  0  0  0  0
   -4.0504    1.6715    1.3193 C   0  0  0  0  0  0  0  0  0  0  0  0
   -3.8602    2.8026    2.1128 C   0  0  0  0  0  0  0  0  0  0  0  0
   -5.1819    3.8613    2.4247 Cl  0  0  0  0  0  0  0  0  0  0  0  0
   -2.6115    3.0698    2.6685 C   0  0  0  0  0  0  0  0  0  0  0  0
   -1.5450    2.1976    2.4285 C   0  0  0  0  0  0  0  0  0  0  0  0
   -0.8748   -0.4932   -1.0743 C   0  0  0  0  0  0  0  0  0  0  0  0
   -1.4845   -1.3945   -2.1040 C   0  0  0  0  0  0  0  0  0  0  0  0
   -2.8029   -1.2271   -2.5515 C   0  0  0  0  0  0  0  0  0  0  0  0
   -3.3419   -2.0540   -3.5430 C   0  0  0  0  0  0  0  0  0  0  0  0
   -2.5665   -3.0645   -4.1113 C   0  0  0  0  0  0  0  0  0  0  0  0
   -1.2544   -3.2480   -3.6892 C   0  0  0  0  0  0  0  0  0  0  0  0
   -0.7354   -2.4159   -2.6970 C   0  0  0  0  0  0  0  0  0  0  0  0
    0.5827   -2.6978   -2.2763 O   0  0  0  0  0  0  0  0  0  0  0  0
    1.1963   -2.0511   -1.1991 C   0  0  0  0  0  0  0  0  0  0  0  0
    2.2078   -2.4951   -0.6699 O   0  0  0  0  0  0  0  0  0  0  0  0
    0.5695   -0.7953   -0.7009 C   0  0  0  0  0  0  0  0  0  0  0  0
    1.4840    0.4048   -0.7223 C   0  0  0  0  0  0  0  0  0  0  0  0
    1.2768    1.2770   -1.5560 O   0  0  0  0  0  0  0  0  0  0  0  0
    2.4792    0.3794    0.2282 N   0  0  0  0  0  0  0  0  0  0  0  0
    3.4819    1.3433    0.4558 C   0  0  0  0  0  0  0  0  0  0  0  0
    3.6337    2.5089   -0.2971 C   0  0  0  0  0  0  0  0  0  0  0  0
    4.6573    3.4166   -0.0000 C   0  0  0  0  0  0  0  0  0  0  0  0
    5.5384    3.1652    1.0486 C   0  0  0  0  0  0  0  0  0  0  0  0
    5.3970    2.0044    1.8037 C   0  0  0  0  0  0  0  0  0  0  0  0
    4.3719    1.1004    1.5097 C   0  0  0  0  0  0  0  0  0  0  0  0
   -0.5330   -3.8521    2.2432 H   0  0  0  0  0  0  0  0  0  0  0  0
    0.8640   -2.8991    1.7186 H   0  0  0  0  0  0  0  0  0  0  0  0
   -0.2886   -2.2221    2.8786 H   0  0  0  0  0  0  0  0  0  0  0  0
   -1.0125   -3.0296    0.0247 H   0  0  0  0  0  0  0  0  0  0  0  0
   -2.0769   -2.2219    1.1566 H   0  0  0  0  0  0  0  0  0  0  0  0
   -3.1682   -0.0871    0.4721 H   0  0  0  0  0  0  0  0  0  0  0  0
   -5.0277    1.4622    0.8914 H   0  0  0  0  0  0  0  0  0  0  0  0
   -2.4616    3.9461    3.2957 H   0  0  0  0  0  0  0  0  0  0  0  0
   -0.5763    2.4080    2.8788 H   0  0  0  0  0  0  0  0  0  0  0  0
   -1.1006    0.5622   -1.2344 H   0  0  0  0  0  0  0  0  0  0  0  0
   -3.4210   -0.4330   -2.1386 H   0  0  0  0  0  0  0  0  0  0  0  0
   -4.3661   -1.9034   -3.8778 H   0  0  0  0  0  0  0  0  0  0  0  0
   -2.9847   -3.7045   -4.8848 H   0  0  0  0  0  0  0  0  0  0  0  0
   -0.6424   -4.0338   -4.1236 H   0  0  0  0  0  0  0  0  0  0  0  0
    2.4610   -0.4003    0.8782 H   0  0  0  0  0  0  0  0  0  0  0  0
    2.9659    2.7492   -1.1187 H   0  0  0  0  0  0  0  0  0  0  0  0
    4.7581    4.3277   -0.5870 H   0  0  0  0  0  0  0  0  0  0  0  0
    6.3325    3.8728    1.2743 H   0  0  0  0  0  0  0  0  0  0  0  0
    6.0843    1.8005    2.6204 H   0  0  0  0  0  0  0  0  0  0  0  0
    4.2786    0.2034    2.1166 H   0  0  0  0  0  0  0  0  0  0  0  0
  1  2  1  0
  2  3  1  0
  3  4  1  0
  4  5  2  0
  4  6  1  0
  6  7  2  0
  7  8  1  0
  8  9  2  0
  9 10  1  0
  9 11  1  0
 11 12  2  0
  3 13  1  0
 13 14  1  0
 14 15  2  0
 15 16  1  0
 16 17  2  0
 17 18  1  0
 18 19  2  0
 19 20  1  0
 20 21  1  0
 21 22  2  0
 21 23  1  0
 23 24  1  0
 24 25  2  0
 24 26  1  0
 26 27  1  0
 27 28  2  0
 28 29  1  0
 29 30  2  0
 30 31  1  0
 31 32  2  0
 23  3  1  0
 32 27  1  0
 12  6  1  0
 23 13  1  0
 19 14  1  0
  1 33  1  0
  1 34  1  0
  1 35  1  0
  2 36  1  0
  2 37  1  0
  7 38  1  0
  8 39  1  0
 11 40  1  0
 12 41  1  0
 13 42  1  0
 15 43  1  0
 16 44  1  0
 17 45  1  0
 18 46  1  0
 26 47  1  0
 28 48  1  0
 29 49  1  0
 30 50  1  0
 31 51  1  0
 32 52  1  0
M  END
$$$$
