
     RDKit          3D

 48 48  0  0  0  0  0  0  0  0999 V2000
   -7.4408   -0.4455   -0.0692 C   0  0  0  0  0  0  0  0  0  0  0  0
   -6.2663   -1.1040    0.6372 C   0  0  0  0  0  0  0  0  0  0  0  0
   -4.9494   -0.3961    0.3140 C   0  0  0  0  0  0  0  0  0  0  0  0
   -3.7723   -1.0632    1.0292 C   0  0  0  0  0  0  0  0  0  0  0  0
   -2.4105   -0.4736    0.6463 C   0  0  0  0  0  0  0  0  0  0  0  0
   -2.2183    0.9690    1.1223 C   0  0  0  0  0  0  0  0  0  0  0  0
   -0.8542    1.5559    0.7424 C   0  0  0  0  0  0  0  0  0  0  0  0
    0.3170    0.9039    1.4858 C   0  0  0  0  0  0  0  0  0  0  0  0
    1.6496    1.5915    1.1851 C   0  0  0  0  0  0  0  0  0  0  0  0
    2.2026    1.2723   -0.1950 C   0  0  0  0  0  0  0  0  0  0  0  0
    1.6884    0.4590   -0.9572 O   0  0  0  0  0  0  0  0  0  0  0  0
    3.3740    1.9964   -0.4541 N   0  0  0  0  0  0  0  0  0  0  0  0
    3.9156    2.0092   -1.7151 N   0  0  0  0  0  0  0  0  0  0  0  0
    4.3786    0.8961   -2.2115 C   0  0  0  0  0  0  0  0  0  0  0  0
    4.7960    0.9115   -3.6647 C   0  0  0  0  0  0  0  0  0  0  0  0
    4.5812   -0.3761   -1.4831 C   0  0  0  0  0  0  0  0  0  0  0  0
    4.0631   -1.5769   -1.9643 C   0  0  0  0  0  0  0  0  0  0  0  0
    4.2946   -2.7473   -1.2461 C   0  0  0  0  0  0  0  0  0  0  0  0
    5.0439   -2.6694   -0.0803 C   0  0  0  0  0  0  0  0  0  0  0  0
    5.5703   -1.5214    0.4035 N   0  0  0  0  0  0  0  0  0  0  0  0
    5.3243   -0.3967   -0.3111 C   0  0  0  0  0  0  0  0  0  0  0  0
   -7.3103   -0.4731   -1.1560 H   0  0  0  0  0  0  0  0  0  0  0  0
   -8.3709   -0.9683    0.1748 H   0  0  0  0  0  0  0  0  0  0  0  0
   -7.5476    0.5998    0.2381 H   0  0  0  0  0  0  0  0  0  0  0  0
   -6.4420   -1.0876    1.7192 H   0  0  0  0  0  0  0  0  0  0  0  0
   -6.2088   -2.1558    0.3335 H   0  0  0  0  0  0  0  0  0  0  0  0
   -4.7799   -0.4133   -0.7693 H   0  0  0  0  0  0  0  0  0  0  0  0
   -5.0264    0.6546    0.6146 H   0  0  0  0  0  0  0  0  0  0  0  0
   -3.9109   -0.9950    2.1152 H   0  0  0  0  0  0  0  0  0  0  0  0
   -3.7627   -2.1315    0.7789 H   0  0  0  0  0  0  0  0  0  0  0  0
   -1.6382   -1.1120    1.0892 H   0  0  0  0  0  0  0  0  0  0  0  0
   -2.2798   -0.5262   -0.4412 H   0  0  0  0  0  0  0  0  0  0  0  0
   -2.9879    1.6075    0.6743 H   0  0  0  0  0  0  0  0  0  0  0  0
   -2.3537    1.0239    2.2091 H   0  0  0  0  0  0  0  0  0  0  0  0
   -0.8693    2.6275    0.9775 H   0  0  0  0  0  0  0  0  0  0  0  0
   -0.7128    1.4748   -0.3411 H   0  0  0  0  0  0  0  0  0  0  0  0
    0.1302    0.9691    2.5647 H   0  0  0  0  0  0  0  0  0  0  0  0
    0.3863   -0.1604    1.2364 H   0  0  0  0  0  0  0  0  0  0  0  0
    1.5485    2.6775    1.2928 H   0  0  0  0  0  0  0  0  0  0  0  0
    2.3933    1.2490    1.9151 H   0  0  0  0  0  0  0  0  0  0  0  0
    3.4130    2.9091   -0.0071 H   0  0  0  0  0  0  0  0  0  0  0  0
    5.4124    0.0452   -3.9197 H   0  0  0  0  0  0  0  0  0  0  0  0
    5.3747    1.8182   -3.8677 H   0  0  0  0  0  0  0  0  0  0  0  0
    3.9008    0.9153   -4.2933 H   0  0  0  0  0  0  0  0  0  0  0  0
    3.4586   -1.6004   -2.8665 H   0  0  0  0  0  0  0  0  0  0  0  0
    3.8897   -3.6960   -1.5804 H   0  0  0  0  0  0  0  0  0  0  0  0
    5.2454   -3.5568    0.5137 H   0  0  0  0  0  0  0  0  0  0  0  0
    5.7611    0.5104    0.0960 H   0  0  0  0  0  0  0  0  0  0  0  0
  1  2  1  0
  2  3  1  0
  3  4  1  0
  4  5  1  0
  5  6  1  0
  6  7  1  0
  7  8  1  0
  8  9  1  0
  9 10  1  0
 10 11  2  0
 10 12  1  0
 12 13  1  0
 13 14  2  3
 14 15  1  0
 14 16  1  0
 16 17  2  0
 17 18  1  0
 18 19  2  0
 19 20  1  0
 20 21  2  0
 21 16  1  0
  1 22  1  0
  1 23  1  0
  1 24  1  0
  2 25  1  0
  2 26  1  0
  3 27  1  0
  3 28  1  0
  4 29  1  0
  4 30  1  0
  5 31  1  0
  5 32  1  0
  6 33  1  0
  6 34  1  0
  7 35  1  0
  7 36  1  0
  8 37  1  0
  8 38  1  0
  9 39  1  0
  9 40  1  0
 12 41  1  0
 15 42  1  0
 15 43  1  0
 15 44  1  0
 17 45  1  0
 18 46  1  0
 19 47  1  0
 21 48  1  0
M  END
$$$$
