
     RDKit          3D

 47 50  0  0  0  0  0  0  0  0999 V2000
    2.6047   -1.2484   -1.3513 C   0  0  0  0  0  0  0  0  0  0  0  0
    1.8846   -1.4714   -0.1190 N   0  0  0  0  0  0  0  0  0  0  0  0
    1.8487   -0.6336    0.9790 C   0  0  0  0  0  0  0  0  0  0  0  0
    2.5658    0.6243    1.1181 C   0  0  0  0  0  0  0  0  0  0  0  0
    1.8603    1.8325    1.1302 C   0  0  0  0  0  0  0  0  0  0  0  0
    2.5407    3.0444    1.2601 C   0  0  0  0  0  0  0  0  0  0  0  0
    3.9291    3.0544    1.3850 C   0  0  0  0  0  0  0  0  0  0  0  0
    4.6383    1.8538    1.3818 C   0  0  0  0  0  0  0  0  0  0  0  0
    3.9589    0.6410    1.2501 C   0  0  0  0  0  0  0  0  0  0  0  0
    0.9619   -1.2468    1.8452 C   0  0  0  0  0  0  0  0  0  0  0  0
    0.4716   -2.4144    1.3240 N   0  0  0  0  0  0  0  0  0  0  0  0
    1.0493   -2.5249    0.1516 C   0  0  0  0  0  0  0  0  0  0  0  0
    0.7166   -3.7957   -0.9783 S   0  0  0  0  0  0  0  0  0  0  0  0
   -1.0926   -3.5775   -1.1009 C   0  0  0  0  0  0  0  0  0  0  0  0
   -1.3984   -2.1917   -1.6806 C   0  0  0  0  0  0  0  0  0  0  0  0
   -1.0369   -1.9445   -2.8362 O   0  0  0  0  0  0  0  0  0  0  0  0
   -2.0438   -1.2666   -0.8427 N   0  0  0  0  0  0  0  0  0  0  0  0
   -2.8863   -1.7377    0.2605 C   0  0  0  0  0  0  0  0  0  0  0  0
   -4.0450   -0.8080    0.5681 C   0  0  0  0  0  0  0  0  0  0  0  0
   -3.5017    0.5531    0.9432 C   0  0  0  0  0  0  0  0  0  0  0  0
   -2.5393    1.0474   -0.1028 C   0  0  0  0  0  0  0  0  0  0  0  0
   -2.3115    2.4355   -0.1736 C   0  0  0  0  0  0  0  0  0  0  0  0
   -1.4147    2.9632   -1.0948 C   0  0  0  0  0  0  0  0  0  0  0  0
   -0.7286    2.1068   -1.9429 C   0  0  0  0  0  0  0  0  0  0  0  0
   -0.9393    0.7247   -1.8704 C   0  0  0  0  0  0  0  0  0  0  0  0
   -1.8466    0.1613   -0.9586 C   0  0  0  0  0  0  0  0  0  0  0  0
    1.9225   -1.3793   -2.1950 H   0  0  0  0  0  0  0  0  0  0  0  0
    3.4262   -1.9674   -1.4020 H   0  0  0  0  0  0  0  0  0  0  0  0
    3.0001   -0.2317   -1.3857 H   0  0  0  0  0  0  0  0  0  0  0  0
    0.7770    1.8358    1.0288 H   0  0  0  0  0  0  0  0  0  0  0  0
    1.9858    3.9787    1.2638 H   0  0  0  0  0  0  0  0  0  0  0  0
    4.4586    3.9982    1.4884 H   0  0  0  0  0  0  0  0  0  0  0  0
    5.7201    1.8613    1.4859 H   0  0  0  0  0  0  0  0  0  0  0  0
    4.5216   -0.2893    1.2595 H   0  0  0  0  0  0  0  0  0  0  0  0
    0.6532   -0.8958    2.8215 H   0  0  0  0  0  0  0  0  0  0  0  0
   -1.5194   -3.7623   -0.1162 H   0  0  0  0  0  0  0  0  0  0  0  0
   -1.5014   -4.3284   -1.7844 H   0  0  0  0  0  0  0  0  0  0  0  0
   -2.2490   -1.8736    1.1418 H   0  0  0  0  0  0  0  0  0  0  0  0
   -3.3121   -2.7119   -0.0038 H   0  0  0  0  0  0  0  0  0  0  0  0
   -4.6977   -0.7254   -0.3106 H   0  0  0  0  0  0  0  0  0  0  0  0
   -4.6498   -1.2114    1.3876 H   0  0  0  0  0  0  0  0  0  0  0  0
   -4.3402    1.2514    1.0520 H   0  0  0  0  0  0  0  0  0  0  0  0
   -2.9792    0.5034    1.9065 H   0  0  0  0  0  0  0  0  0  0  0  0
   -2.8402    3.1113    0.4956 H   0  0  0  0  0  0  0  0  0  0  0  0
   -1.2489    4.0354   -1.1479 H   0  0  0  0  0  0  0  0  0  0  0  0
   -0.0195    2.5050   -2.6643 H   0  0  0  0  0  0  0  0  0  0  0  0
   -0.3536    0.1150   -2.5491 H   0  0  0  0  0  0  0  0  0  0  0  0
  1  2  1  0
  2  3  1  0
  3  4  1  0
  4  5  2  0
  5  6  1  0
  6  7  2  0
  7  8  1  0
  8  9  2  0
  3 10  2  0
 10 11  1  0
 11 12  2  0
 12 13  1  0
 13 14  1  0
 14 15  1  0
 15 16  2  0
 15 17  1  0
 17 18  1  0
 18 19  1  0
 19 20  1  0
 20 21  1  0
 21 22  2  0
 22 23  1  0
 23 24  2  0
 24 25  1  0
 25 26  2  0
 12  2  1  0
 26 17  1  0
  9  4  1  0
 26 21  1  0
  1 27  1  0
  1 28  1  0
  1 29  1  0
  5 30  1  0
  6 31  1  0
  7 32  1  0
  8 33  1  0
  9 34  1  0
 10 35  1  0
 14 36  1  0
 14 37  1  0
 18 38  1  0
 18 39  1  0
 19 40  1  0
 19 41  1  0
 20 42  1  0
 20 43  1  0
 22 44  1  0
 23 45  1  0
 24 46  1  0
 25 47  1  0
M  END
$$$$
