
     RDKit          3D

 47 49  0  0  0  0  0  0  0  0999 V2000
    7.4058   -1.0334    0.0870 C   0  0  0  0  0  0  0  0  0  0  0  0
    6.1335   -0.7815   -0.7079 C   0  0  0  0  0  0  0  0  0  0  0  0
    5.7457    0.6976   -0.7662 C   0  0  0  0  0  0  0  0  0  0  0  0
    5.1828    1.2716    0.5428 C   0  0  0  0  0  0  0  0  0  0  0  0
    3.8558    0.7465    0.8802 N   0  0  0  0  0  0  0  0  0  0  0  0
    2.7681    1.1915    0.1444 C   0  0  0  0  0  0  0  0  0  0  0  0
    2.8018    2.0040   -0.7703 O   0  0  0  0  0  0  0  0  0  0  0  0
    1.5141    0.5529    0.6276 C   0  0  0  0  0  0  0  0  0  0  0  0
    0.3280    0.8102    0.0550 C   0  0  0  0  0  0  0  0  0  0  0  0
   -0.9584    0.2428    0.4390 C   0  0  0  0  0  0  0  0  0  0  0  0
   -2.1914    0.4746   -0.0781 C   0  0  0  0  0  0  0  0  0  0  0  0
   -2.3607    1.4287   -1.1764 C   0  0  0  0  0  0  0  0  0  0  0  0
   -3.5266    1.6249   -1.8022 C   0  0  0  0  0  0  0  0  0  0  0  0
   -4.7009    0.8564   -1.4020 C   0  0  0  0  0  0  0  0  0  0  0  0
   -5.8991    1.0241   -2.1148 C   0  0  0  0  0  0  0  0  0  0  0  0
   -7.0339    0.3027   -1.7612 C   0  0  0  0  0  0  0  0  0  0  0  0
   -6.9720   -0.5891   -0.6989 C   0  0  0  0  0  0  0  0  0  0  0  0
   -5.7780   -0.7555    0.0153 C   0  0  0  0  0  0  0  0  0  0  0  0
   -4.6125   -0.0333   -0.3060 C   0  0  0  0  0  0  0  0  0  0  0  0
   -3.3701   -0.1682    0.3955 N   0  0  0  0  0  0  0  0  0  0  0  0
   -3.3994   -0.9448    1.6511 C   0  0  0  0  0  0  0  0  0  0  0  0
   -3.0977   -2.4172    1.4014 C   0  0  0  0  0  0  0  0  0  0  0  0
    1.8564   -0.4829    1.9516 S   0  0  0  0  0  0  0  0  0  0  0  0
    3.5787   -0.1191    1.9183 C   0  0  0  0  0  0  0  0  0  0  0  0
    4.6272   -0.7760    3.0369 S   0  0  0  0  0  0  0  0  0  0  0  0
    7.6530   -2.0997    0.0722 H   0  0  0  0  0  0  0  0  0  0  0  0
    8.2500   -0.4867   -0.3455 H   0  0  0  0  0  0  0  0  0  0  0  0
    7.3027   -0.7280    1.1309 H   0  0  0  0  0  0  0  0  0  0  0  0
    6.3002   -1.1348   -1.7329 H   0  0  0  0  0  0  0  0  0  0  0  0
    5.3123   -1.3817   -0.3024 H   0  0  0  0  0  0  0  0  0  0  0  0
    5.0109    0.8258   -1.5697 H   0  0  0  0  0  0  0  0  0  0  0  0
    6.6246    1.2862   -1.0572 H   0  0  0  0  0  0  0  0  0  0  0  0
    5.8871    1.1216    1.3644 H   0  0  0  0  0  0  0  0  0  0  0  0
    5.0773    2.3570    0.4192 H   0  0  0  0  0  0  0  0  0  0  0  0
    0.3326    1.5038   -0.7817 H   0  0  0  0  0  0  0  0  0  0  0  0
   -0.8806   -0.4838    1.2414 H   0  0  0  0  0  0  0  0  0  0  0  0
   -1.5193    2.0215   -1.5121 H   0  0  0  0  0  0  0  0  0  0  0  0
   -3.6134    2.3421   -2.6097 H   0  0  0  0  0  0  0  0  0  0  0  0
   -5.9514    1.7161   -2.9515 H   0  0  0  0  0  0  0  0  0  0  0  0
   -7.9592    0.4320   -2.3156 H   0  0  0  0  0  0  0  0  0  0  0  0
   -7.8514   -1.1649   -0.4216 H   0  0  0  0  0  0  0  0  0  0  0  0
   -5.7963   -1.4830    0.8191 H   0  0  0  0  0  0  0  0  0  0  0  0
   -4.3503   -0.8305    2.1842 H   0  0  0  0  0  0  0  0  0  0  0  0
   -2.6706   -0.5443    2.3665 H   0  0  0  0  0  0  0  0  0  0  0  0
   -2.1097   -2.5527    0.9504 H   0  0  0  0  0  0  0  0  0  0  0  0
   -3.1157   -2.9699    2.3459 H   0  0  0  0  0  0  0  0  0  0  0  0
   -3.8300   -2.8735    0.7287 H   0  0  0  0  0  0  0  0  0  0  0  0
  1  2  1  0
  2  3  1  0
  3  4  1  0
  4  5  1  0
  5  6  1  0
  6  7  2  0
  6  8  1  0
  8  9  2  3
  9 10  1  0
 10 11  2  3
 11 12  1  0
 12 13  2  0
 13 14  1  0
 14 15  2  0
 15 16  1  0
 16 17  2  0
 17 18  1  0
 18 19  2  0
 19 20  1  0
 20 21  1  0
 21 22  1  0
  8 23  1  0
 23 24  1  0
 24 25  2  0
 24  5  1  0
 20 11  1  0
 19 14  1  0
  1 26  1  0
  1 27  1  0
  1 28  1  0
  2 29  1  0
  2 30  1  0
  3 31  1  0
  3 32  1  0
  4 33  1  0
  4 34  1  0
  9 35  1  0
 10 36  1  0
 12 37  1  0
 13 38  1  0
 15 39  1  0
 16 40  1  0
 17 41  1  0
 18 42  1  0
 21 43  1  0
 21 44  1  0
 22 45  1  0
 22 46  1  0
 22 47  1  0
M  END
$$$$
