
     RDKit          3D

 58 62  0  0  0  0  0  0  0  0999 V2000
   -6.1843   -0.4951   -2.9287 C   0  0  0  0  0  0  0  0  0  0  0  0
   -5.1038   -1.2512   -2.3961 O   0  0  0  0  0  0  0  0  0  0  0  0
   -4.1676   -0.5673   -1.6713 C   0  0  0  0  0  0  0  0  0  0  0  0
   -3.1042   -1.3483   -1.2101 C   0  0  0  0  0  0  0  0  0  0  0  0
   -2.0759   -0.7811   -0.4526 C   0  0  0  0  0  0  0  0  0  0  0  0
   -2.1142    0.5815   -0.1355 C   0  0  0  0  0  0  0  0  0  0  0  0
   -1.0334    1.2240    0.6706 C   0  0  0  0  0  0  0  0  0  0  0  0
   -0.7163    2.4468    0.4083 N   0  0  0  0  0  0  0  0  0  0  0  0
    0.3988    3.0445    1.1354 C   0  0  0  0  0  0  0  0  0  0  0  0
    1.7059    2.3999    0.6800 C   0  0  0  0  0  0  0  0  0  0  0  0
    2.4532    2.9789   -0.1160 O   0  0  0  0  0  0  0  0  0  0  0  0
    2.0341    1.1541    1.2214 N   0  0  0  0  0  0  0  0  0  0  0  0
    3.4044    0.6768    0.9819 C   0  0  0  0  0  0  0  0  0  0  0  0
    3.4858   -0.1816   -0.2824 C   0  0  0  0  0  0  0  0  0  0  0  0
    4.0298   -1.2842   -0.2863 O   0  0  0  0  0  0  0  0  0  0  0  0
    2.9891    0.4169   -1.4203 N   0  0  0  0  0  0  0  0  0  0  0  0
    3.1489   -0.1770   -2.7260 C   0  0  0  0  0  0  0  0  0  0  0  0
    4.4249    0.2968   -3.3150 C   0  0  0  0  0  0  0  0  0  0  0  0
    5.7345   -0.1212   -3.1937 C   0  0  0  0  0  0  0  0  0  0  0  0
    6.5076    0.7479   -3.9991 C   0  0  0  0  0  0  0  0  0  0  0  0
    5.6224    1.6385   -4.5599 C   0  0  0  0  0  0  0  0  0  0  0  0
    4.3550    1.3729   -4.1514 O   0  0  0  0  0  0  0  0  0  0  0  0
    1.0328    0.3911    1.8401 C   0  0  0  0  0  0  0  0  0  0  0  0
    1.5259   -0.8195    2.9433 S   0  0  0  0  0  0  0  0  0  0  0  0
   -0.0638   -1.1565    3.3865 C   0  0  0  0  0  0  0  0  0  0  0  0
   -0.9880   -0.4116    2.6877 C   0  0  0  0  0  0  0  0  0  0  0  0
   -0.3517    0.4327    1.6995 C   0  0  0  0  0  0  0  0  0  0  0  0
   -2.4426   -0.5472    3.0332 C   0  0  0  0  0  0  0  0  0  0  0  0
   -2.8398   -1.9750    3.4580 C   0  0  0  0  0  0  0  0  0  0  0  0
   -1.6960   -2.9060    3.9107 C   0  0  0  0  0  0  0  0  0  0  0  0
   -0.4425   -2.1768    4.4079 C   0  0  0  0  0  0  0  0  0  0  0  0
   -3.1682    1.3693   -0.6140 C   0  0  0  0  0  0  0  0  0  0  0  0
   -4.1941    0.7957   -1.3741 C   0  0  0  0  0  0  0  0  0  0  0  0
   -6.8264   -1.1795   -3.4915 H   0  0  0  0  0  0  0  0  0  0  0  0
   -5.8255    0.2715   -3.6232 H   0  0  0  0  0  0  0  0  0  0  0  0
   -6.7881   -0.0542   -2.1289 H   0  0  0  0  0  0  0  0  0  0  0  0
   -3.0732   -2.4089   -1.4504 H   0  0  0  0  0  0  0  0  0  0  0  0
   -1.2530   -1.4134   -0.1292 H   0  0  0  0  0  0  0  0  0  0  0  0
    0.4479    4.1107    0.8866 H   0  0  0  0  0  0  0  0  0  0  0  0
    0.2822    2.9946    2.2241 H   0  0  0  0  0  0  0  0  0  0  0  0
    3.7838    0.1098    1.8357 H   0  0  0  0  0  0  0  0  0  0  0  0
    4.0855    1.5266    0.8528 H   0  0  0  0  0  0  0  0  0  0  0  0
    2.8234    1.4221   -1.3877 H   0  0  0  0  0  0  0  0  0  0  0  0
    3.1378   -1.2691   -2.6493 H   0  0  0  0  0  0  0  0  0  0  0  0
    2.2961    0.1363   -3.3365 H   0  0  0  0  0  0  0  0  0  0  0  0
    6.0791   -0.9478   -2.5863 H   0  0  0  0  0  0  0  0  0  0  0  0
    7.5775    0.7309   -4.1496 H   0  0  0  0  0  0  0  0  0  0  0  0
    5.7286    2.4775   -5.2332 H   0  0  0  0  0  0  0  0  0  0  0  0
   -2.6376    0.1300    3.8766 H   0  0  0  0  0  0  0  0  0  0  0  0
   -3.1018   -0.2129    2.2288 H   0  0  0  0  0  0  0  0  0  0  0  0
   -3.5842   -1.9004    4.2618 H   0  0  0  0  0  0  0  0  0  0  0  0
   -3.3619   -2.4621    2.6227 H   0  0  0  0  0  0  0  0  0  0  0  0
   -1.4137   -3.5335    3.0537 H   0  0  0  0  0  0  0  0  0  0  0  0
   -2.0620   -3.5933    4.6821 H   0  0  0  0  0  0  0  0  0  0  0  0
    0.3615   -2.9015    4.5774 H   0  0  0  0  0  0  0  0  0  0  0  0
   -0.6513   -1.6796    5.3625 H   0  0  0  0  0  0  0  0  0  0  0  0
   -3.1976    2.4351   -0.3957 H   0  0  0  0  0  0  0  0  0  0  0  0
   -4.9940    1.4424   -1.7188 H   0  0  0  0  0  0  0  0  0  0  0  0
  1  2  1  0
  2  3  1  0
  3  4  2  0
  4  5  1  0
  5  6  2  0
  6  7  1  0
  7  8  2  0
  8  9  1  0
  9 10  1  0
 10 11  2  0
 10 12  1  0
 12 13  1  0
 13 14  1  0
 14 15  2  0
 14 16  1  0
 16 17  1  0
 17 18  1  0
 18 19  2  0
 19 20  1  0
 20 21  2  0
 21 22  1  0
 12 23  1  0
 23 24  1  0
 24 25  1  0
 25 26  2  0
 26 27  1  0
 26 28  1  0
 28 29  1  0
 29 30  1  0
 30 31  1  0
  6 32  1  0
 32 33  2  0
 33  3  1  0
 27  7  1  0
 22 18  1  0
 27 23  2  0
 31 25  1  0
  1 34  1  0
  1 35  1  0
  1 36  1  0
  4 37  1  0
  5 38  1  0
  9 39  1  0
  9 40  1  0
 13 41  1  0
 13 42  1  0
 16 43  1  0
 17 44  1  0
 17 45  1  0
 19 46  1  0
 20 47  1  0
 21 48  1  0
 28 49  1  0
 28 50  1  0
 29 51  1  0
 29 52  1  0
 30 53  1  0
 30 54  1  0
 31 55  1  0
 31 56  1  0
 32 57  1  0
 33 58  1  0
M  END
$$$$
