
     RDKit          3D

 47 50  0  0  0  0  0  0  0  0999 V2000
   -2.3176   -0.1271    1.0915 O   0  0  0  0  0  0  0  0  0  0  0  0
   -2.4882   -0.1229   -0.1117 C   0  0  0  0  0  0  0  0  0  0  0  0
   -3.7374   -0.4957   -0.7718 C   0  0  0  0  0  0  0  0  0  0  0  0
   -4.9181   -0.9830   -0.2478 C   0  0  0  0  0  0  0  0  0  0  0  0
   -5.9580   -1.2363   -1.1479 C   0  0  0  0  0  0  0  0  0  0  0  0
   -5.7958   -0.9947   -2.5287 C   0  0  0  0  0  0  0  0  0  0  0  0
   -4.5913   -0.4945   -3.0335 C   0  0  0  0  0  0  0  0  0  0  0  0
   -3.5790   -0.2572   -2.1252 C   0  0  0  0  0  0  0  0  0  0  0  0
   -2.2284    0.2648   -2.3235 C   0  0  0  0  0  0  0  0  0  0  0  0
   -1.7896    0.6499   -3.3904 O   0  0  0  0  0  0  0  0  0  0  0  0
   -1.6237    0.2543   -1.0993 N   0  0  0  0  0  0  0  0  0  0  0  0
   -0.2904    0.7491   -0.8487 C   0  0  0  0  0  0  0  0  0  0  0  0
    0.6325   -0.2677   -0.3156 N   0  0  0  0  0  0  0  0  0  0  0  0
    1.2898   -0.1114    0.9244 C   0  0  0  0  0  0  0  0  0  0  0  0
    2.1998   -0.8552    1.3036 O   0  0  0  0  0  0  0  0  0  0  0  0
    0.8792    1.0859    1.8060 C   0  0  0  0  0  0  0  0  0  0  0  0
    1.4889    1.1331    3.0926 O   0  0  0  0  0  0  0  0  0  0  0  0
    2.6034    1.9169    3.2083 C   0  0  0  0  0  0  0  0  0  0  0  0
    2.7808    2.5261    4.4519 C   0  0  0  0  0  0  0  0  0  0  0  0
    3.8877    3.3426    4.6880 C   0  0  0  0  0  0  0  0  0  0  0  0
    4.8307    3.5415    3.6818 C   0  0  0  0  0  0  0  0  0  0  0  0
    4.6709    2.9152    2.4462 C   0  0  0  0  0  0  0  0  0  0  0  0
    3.5617    2.0983    2.2103 C   0  0  0  0  0  0  0  0  0  0  0  0
    0.8736   -1.4406   -1.1278 C   0  0  0  0  0  0  0  0  0  0  0  0
    0.7651   -1.3987   -2.5298 C   0  0  0  0  0  0  0  0  0  0  0  0
    0.9653   -2.5441   -3.3095 C   0  0  0  0  0  0  0  0  0  0  0  0
    1.2753   -3.7477   -2.6964 C   0  0  0  0  0  0  0  0  0  0  0  0
    1.4640   -4.8430   -3.4433 F   0  0  0  0  0  0  0  0  0  0  0  0
    1.3881   -3.8263   -1.3185 C   0  0  0  0  0  0  0  0  0  0  0  0
    1.1866   -2.6799   -0.5415 C   0  0  0  0  0  0  0  0  0  0  0  0
   -5.0307   -1.1618    0.8168 H   0  0  0  0  0  0  0  0  0  0  0  0
   -6.9067   -1.6246   -0.7804 H   0  0  0  0  0  0  0  0  0  0  0  0
   -6.6218   -1.1994   -3.2081 H   0  0  0  0  0  0  0  0  0  0  0  0
   -4.4554   -0.3012   -4.0927 H   0  0  0  0  0  0  0  0  0  0  0  0
   -0.4079    1.5842   -0.1575 H   0  0  0  0  0  0  0  0  0  0  0  0
    0.1450    1.1806   -1.7568 H   0  0  0  0  0  0  0  0  0  0  0  0
    1.0483    2.0245    1.2650 H   0  0  0  0  0  0  0  0  0  0  0  0
   -0.1942    0.9989    1.9980 H   0  0  0  0  0  0  0  0  0  0  0  0
    2.0505    2.3646    5.2406 H   0  0  0  0  0  0  0  0  0  0  0  0
    4.0162    3.8155    5.6578 H   0  0  0  0  0  0  0  0  0  0  0  0
    5.6974    4.1708    3.8651 H   0  0  0  0  0  0  0  0  0  0  0  0
    5.4195    3.0488    1.6693 H   0  0  0  0  0  0  0  0  0  0  0  0
    3.4897    1.5893    1.2551 H   0  0  0  0  0  0  0  0  0  0  0  0
    0.5579   -0.4767   -3.0647 H   0  0  0  0  0  0  0  0  0  0  0  0
    0.8876   -2.4960   -4.3914 H   0  0  0  0  0  0  0  0  0  0  0  0
    1.6273   -4.7750   -0.8482 H   0  0  0  0  0  0  0  0  0  0  0  0
    1.2514   -2.7940    0.5382 H   0  0  0  0  0  0  0  0  0  0  0  0
  1  2  2  0
  2  3  1  0
  3  4  2  0
  4  5  1  0
  5  6  2  0
  6  7  1  0
  7  8  2  0
  8  9  1  0
  9 10  2  0
  9 11  1  0
 11 12  1  0
 12 13  1  0
 13 14  1  0
 14 15  2  0
 14 16  1  0
 16 17  1  0
 17 18  1  0
 18 19  2  0
 19 20  1  0
 20 21  2  0
 21 22  1  0
 22 23  2  0
 13 24  1  0
 24 25  2  0
 25 26  1  0
 26 27  2  0
 27 28  1  0
 27 29  1  0
 29 30  2  0
 11  2  1  0
 23 18  1  0
 30 24  1  0
  8  3  1  0
  4 31  1  0
  5 32  1  0
  6 33  1  0
  7 34  1  0
 12 35  1  0
 12 36  1  0
 16 37  1  0
 16 38  1  0
 19 39  1  0
 20 40  1  0
 21 41  1  0
 22 42  1  0
 23 43  1  0
 25 44  1  0
 26 45  1  0
 29 46  1  0
 30 47  1  0
M  END
$$$$
