
     RDKit          3D

 85 88  0  0  0  0  0  0  0  0999 V2000
    8.0138    1.1575    0.1154 C   0  0  0  0  0  0  0  0  0  0  0  0
    7.3273    0.1620   -0.8057 C   0  0  0  0  0  0  0  0  0  0  0  0
    6.3496   -0.7283   -0.0380 C   0  0  0  0  0  0  0  0  0  0  0  0
    5.6696   -1.7359   -0.9706 C   0  0  0  0  0  0  0  0  0  0  0  0
    4.7440   -2.7131   -0.2289 C   0  0  0  0  0  0  0  0  0  0  0  0
    3.4915   -2.0800    0.3423 C   0  0  0  0  0  0  0  0  0  0  0  0
    3.4622   -1.8307    1.6619 C   0  0  0  0  0  0  0  0  0  0  0  0
    2.3380   -1.2031    2.3497 C   0  0  0  0  0  0  0  0  0  0  0  0
    2.3674   -0.9858    3.5544 O   0  0  0  0  0  0  0  0  0  0  0  0
    1.2665   -0.8630    1.5574 O   0  0  0  0  0  0  0  0  0  0  0  0
    1.1936   -1.1421    0.1711 C   0  0  0  0  0  0  0  0  0  0  0  0
   -0.0065   -0.7702   -0.4764 C   0  0  0  0  0  0  0  0  0  0  0  0
   -1.2135   -0.1167    0.2193 C   0  0  0  0  0  0  0  0  0  0  0  0
   -1.5032   -0.5821    1.6700 C   0  0  0  0  0  0  0  0  0  0  0  0
   -2.9287   -0.2654    2.1640 C   0  0  0  0  0  0  0  0  0  0  0  0
   -4.0023   -0.8754    1.3662 N   0  0  0  0  0  0  0  0  0  0  0  0
   -5.3172   -0.3659    1.7540 C   0  0  0  0  0  0  0  0  0  0  0  0
   -6.3792   -0.7974    0.7353 C   0  0  0  0  0  0  0  0  0  0  0  0
   -6.1889   -2.2281    0.2252 C   0  0  0  0  0  0  0  0  0  0  0  0
   -5.3183   -3.0351    1.1869 C   0  0  0  0  0  0  0  0  0  0  0  0
   -5.1472   -4.4760    0.7117 C   0  0  0  0  0  0  0  0  0  0  0  0
   -3.9482   -2.3487    1.3764 C   0  0  0  0  0  0  0  0  0  0  0  0
   -1.1841    1.4067    0.1164 C   0  0  0  0  0  0  0  0  0  0  0  0
   -2.2329    2.0836   -0.5122 C   0  0  0  0  0  0  0  0  0  0  0  0
   -2.2297    3.4824   -0.6180 C   0  0  0  0  0  0  0  0  0  0  0  0
   -1.1953    4.2742   -0.0917 C   0  0  0  0  0  0  0  0  0  0  0  0
   -1.1887    5.6710   -0.2175 N   0  0  0  0  0  0  0  0  0  0  0  0
   -2.4546    6.3500   -0.4938 C   0  0  0  0  0  0  0  0  0  0  0  0
   -0.2232    6.4436    0.5620 C   0  0  0  0  0  0  0  0  0  0  0  0
   -0.1484    3.5708    0.5283 C   0  0  0  0  0  0  0  0  0  0  0  0
   -0.1419    2.1716    0.6411 C   0  0  0  0  0  0  0  0  0  0  0  0
   -0.0620   -1.0013   -1.8575 C   0  0  0  0  0  0  0  0  0  0  0  0
   -1.1953   -0.6738   -2.5609 O   0  0  0  0  0  0  0  0  0  0  0  0
   -0.9459    0.4140   -3.4546 C   0  0  0  0  0  0  0  0  0  0  0  0
    0.9809   -1.6373   -2.5329 C   0  0  0  0  0  0  0  0  0  0  0  0
    2.1568   -2.0012   -1.8658 C   0  0  0  0  0  0  0  0  0  0  0  0
    3.1701   -2.6514   -2.5217 O   0  0  0  0  0  0  0  0  0  0  0  0
    3.2918   -2.4277   -3.9236 C   0  0  0  0  0  0  0  0  0  0  0  0
    2.2929   -1.7529   -0.4818 C   0  0  0  0  0  0  0  0  0  0  0  0
    7.2831    1.8175    0.5931 H   0  0  0  0  0  0  0  0  0  0  0  0
    8.7131    1.7794   -0.4522 H   0  0  0  0  0  0  0  0  0  0  0  0
    8.5774    0.6421    0.8999 H   0  0  0  0  0  0  0  0  0  0  0  0
    6.7946    0.7080   -1.5930 H   0  0  0  0  0  0  0  0  0  0  0  0
    8.0879   -0.4562   -1.2975 H   0  0  0  0  0  0  0  0  0  0  0  0
    6.8869   -1.2655    0.7534 H   0  0  0  0  0  0  0  0  0  0  0  0
    5.5970   -0.0977    0.4482 H   0  0  0  0  0  0  0  0  0  0  0  0
    6.4419   -2.3231   -1.4828 H   0  0  0  0  0  0  0  0  0  0  0  0
    5.1229   -1.1896   -1.7470 H   0  0  0  0  0  0  0  0  0  0  0  0
    4.4875   -3.5638   -0.8689 H   0  0  0  0  0  0  0  0  0  0  0  0
    5.3279   -3.1754    0.5800 H   0  0  0  0  0  0  0  0  0  0  0  0
    4.3018   -2.0631    2.3079 H   0  0  0  0  0  0  0  0  0  0  0  0
   -2.0818   -0.4650   -0.3556 H   0  0  0  0  0  0  0  0  0  0  0  0
   -1.3273   -1.6618    1.7541 H   0  0  0  0  0  0  0  0  0  0  0  0
   -0.8177   -0.0986    2.3763 H   0  0  0  0  0  0  0  0  0  0  0  0
   -3.0151   -0.5814    3.2123 H   0  0  0  0  0  0  0  0  0  0  0  0
   -3.0511    0.8246    2.1662 H   0  0  0  0  0  0  0  0  0  0  0  0
   -5.3161    0.7312    1.7877 H   0  0  0  0  0  0  0  0  0  0  0  0
   -5.5890   -0.7125    2.7602 H   0  0  0  0  0  0  0  0  0  0  0  0
   -7.3670   -0.7020    1.2018 H   0  0  0  0  0  0  0  0  0  0  0  0
   -6.3744   -0.1146   -0.1230 H   0  0  0  0  0  0  0  0  0  0  0  0
   -7.1661   -2.7037    0.0847 H   0  0  0  0  0  0  0  0  0  0  0  0
   -5.7132   -2.1970   -0.7635 H   0  0  0  0  0  0  0  0  0  0  0  0
   -5.8276   -3.0689    2.1604 H   0  0  0  0  0  0  0  0  0  0  0  0
   -4.5291   -5.0447    1.4144 H   0  0  0  0  0  0  0  0  0  0  0  0
   -4.6698   -4.5174   -0.2733 H   0  0  0  0  0  0  0  0  0  0  0  0
   -6.1186   -4.9765    0.6365 H   0  0  0  0  0  0  0  0  0  0  0  0
   -3.5279   -2.7203    2.3205 H   0  0  0  0  0  0  0  0  0  0  0  0
   -3.2643   -2.6626    0.5780 H   0  0  0  0  0  0  0  0  0  0  0  0
   -3.0695    1.5260   -0.9300 H   0  0  0  0  0  0  0  0  0  0  0  0
   -3.0712    3.9318   -1.1357 H   0  0  0  0  0  0  0  0  0  0  0  0
   -2.3204    7.4370   -0.5333 H   0  0  0  0  0  0  0  0  0  0  0  0
   -2.8557    6.0643   -1.4710 H   0  0  0  0  0  0  0  0  0  0  0  0
   -3.1940    6.1371    0.2854 H   0  0  0  0  0  0  0  0  0  0  0  0
   -0.3129    7.5157    0.3519 H   0  0  0  0  0  0  0  0  0  0  0  0
   -0.3818    6.3033    1.6367 H   0  0  0  0  0  0  0  0  0  0  0  0
    0.8056    6.1732    0.3022 H   0  0  0  0  0  0  0  0  0  0  0  0
    0.7035    4.0936    0.9512 H   0  0  0  0  0  0  0  0  0  0  0  0
    0.6950    1.6971    1.1458 H   0  0  0  0  0  0  0  0  0  0  0  0
   -0.4116    0.0664   -4.3444 H   0  0  0  0  0  0  0  0  0  0  0  0
   -0.3911    1.2241   -2.9686 H   0  0  0  0  0  0  0  0  0  0  0  0
   -1.9134    0.8098   -3.7767 H   0  0  0  0  0  0  0  0  0  0  0  0
    0.8373   -1.8667   -3.5835 H   0  0  0  0  0  0  0  0  0  0  0  0
    2.5490   -3.0133   -4.4751 H   0  0  0  0  0  0  0  0  0  0  0  0
    3.2217   -1.3631   -4.1718 H   0  0  0  0  0  0  0  0  0  0  0  0
    4.2824   -2.7768   -4.2316 H   0  0  0  0  0  0  0  0  0  0  0  0
  1  2  1  0
  2  3  1  0
  3  4  1  0
  4  5  1  0
  5  6  1  0
  6  7  2  0
  7  8  1  0
  8  9  2  0
  8 10  1  0
 10 11  1  0
 11 12  2  0
 12 13  1  0
 13 14  1  0
 14 15  1  0
 15 16  1  0
 16 17  1  0
 17 18  1  0
 18 19  1  0
 19 20  1  0
 20 21  1  0
 20 22  1  0
 13 23  1  0
 23 24  2  0
 24 25  1  0
 25 26  2  0
 26 27  1  0
 27 28  1  0
 27 29  1  0
 26 30  1  0
 30 31  2  0
 12 32  1  0
 32 33  1  0
 33 34  1  0
 32 35  2  0
 35 36  1  0
 36 37  1  0
 37 38  1  0
 36 39  2  0
 39  6  1  0
 39 11  1  0
 22 16  1  0
 31 23  1  0
  1 40  1  0
  1 41  1  0
  1 42  1  0
  2 43  1  0
  2 44  1  0
  3 45  1  0
  3 46  1  0
  4 47  1  0
  4 48  1  0
  5 49  1  0
  5 50  1  0
  7 51  1  0
 13 52  1  0
 14 53  1  0
 14 54  1  0
 15 55  1  0
 15 56  1  0
 17 57  1  0
 17 58  1  0
 18 59  1  0
 18 60  1  0
 19 61  1  0
 19 62  1  0
 20 63  1  0
 21 64  1  0
 21 65  1  0
 21 66  1  0
 22 67  1  0
 22 68  1  0
 24 69  1  0
 25 70  1  0
 28 71  1  0
 28 72  1  0
 28 73  1  0
 29 74  1  0
 29 75  1  0
 29 76  1  0
 30 77  1  0
 31 78  1  0
 34 79  1  0
 34 80  1  0
 34 81  1  0
 35 82  1  0
 38 83  1  0
 38 84  1  0
 38 85  1  0
M  END
$$$$
