
     RDKit          3D

 45 46  0  0  0  0  0  0  0  0999 V2000
   -8.2314   -0.6721    0.7420 C   0  0  0  0  0  0  0  0  0  0  0  0
   -6.7541   -0.3617    0.9039 C   0  0  0  0  0  0  0  0  0  0  0  0
   -6.2765    0.1615   -0.3345 O   0  0  0  0  0  0  0  0  0  0  0  0
   -4.9547    0.5065   -0.3944 C   0  0  0  0  0  0  0  0  0  0  0  0
   -4.5391    1.0101   -1.6291 C   0  0  0  0  0  0  0  0  0  0  0  0
   -3.2129    1.3999   -1.8331 C   0  0  0  0  0  0  0  0  0  0  0  0
   -2.2798    1.2966   -0.7951 C   0  0  0  0  0  0  0  0  0  0  0  0
   -0.8402    1.6853   -1.0085 C   0  0  0  0  0  0  0  0  0  0  0  0
   -0.0299    0.5156   -1.2597 N   0  0  0  0  0  0  0  0  0  0  0  0
    0.7076   -0.0632   -0.2710 C   0  0  0  0  0  0  0  0  0  0  0  0
    0.8627    0.4174    0.8387 O   0  0  0  0  0  0  0  0  0  0  0  0
    1.2738   -1.2585   -0.6745 N   0  0  0  0  0  0  0  0  0  0  0  0
    2.1779   -2.2603    0.2933 S   0  0  0  0  0  6  0  0  0  0  0  0
    1.4582   -2.5388    1.5153 O   0  0  0  0  0  0  0  0  0  0  0  0
    2.6011   -3.3413   -0.5756 O   0  0  0  0  0  0  0  0  0  0  0  0
    3.6178   -1.2922    0.6660 C   0  0  0  0  0  0  0  0  0  0  0  0
    3.6765   -0.5622    1.8532 C   0  0  0  0  0  0  0  0  0  0  0  0
    4.8274    0.1698    2.1516 C   0  0  0  0  0  0  0  0  0  0  0  0
    5.9241    0.1647    1.2832 C   0  0  0  0  0  0  0  0  0  0  0  0
    6.9836    0.9225    1.6995 O   0  0  0  0  0  0  0  0  0  0  0  0
    8.1379    0.9290    0.8695 C   0  0  0  0  0  0  0  0  0  0  0  0
    5.8631   -0.5838    0.1053 C   0  0  0  0  0  0  0  0  0  0  0  0
    4.7123   -1.3175   -0.2036 C   0  0  0  0  0  0  0  0  0  0  0  0
   -2.6997    0.7866    0.4413 C   0  0  0  0  0  0  0  0  0  0  0  0
   -4.0282    0.3955    0.6413 C   0  0  0  0  0  0  0  0  0  0  0  0
   -8.6483   -1.0781    1.6680 H   0  0  0  0  0  0  0  0  0  0  0  0
   -8.3870   -1.3972   -0.0637 H   0  0  0  0  0  0  0  0  0  0  0  0
   -8.7875    0.2311    0.4698 H   0  0  0  0  0  0  0  0  0  0  0  0
   -6.2206   -1.2850    1.1580 H   0  0  0  0  0  0  0  0  0  0  0  0
   -6.6298    0.3782    1.7030 H   0  0  0  0  0  0  0  0  0  0  0  0
   -5.2577    1.0981   -2.4405 H   0  0  0  0  0  0  0  0  0  0  0  0
   -2.9211    1.7856   -2.8070 H   0  0  0  0  0  0  0  0  0  0  0  0
   -0.4667    2.2467   -0.1447 H   0  0  0  0  0  0  0  0  0  0  0  0
   -0.7460    2.3370   -1.8841 H   0  0  0  0  0  0  0  0  0  0  0  0
   -0.2577   -0.0365   -2.0698 H   0  0  0  0  0  0  0  0  0  0  0  0
    1.1843   -1.5989   -1.6211 H   0  0  0  0  0  0  0  0  0  0  0  0
    2.8333   -0.5474    2.5412 H   0  0  0  0  0  0  0  0  0  0  0  0
    4.8713    0.7485    3.0717 H   0  0  0  0  0  0  0  0  0  0  0  0
    7.9140    1.3550   -0.1141 H   0  0  0  0  0  0  0  0  0  0  0  0
    8.8885    1.5674    1.3455 H   0  0  0  0  0  0  0  0  0  0  0  0
    8.5646   -0.0753    0.7783 H   0  0  0  0  0  0  0  0  0  0  0  0
    6.6951   -0.6227   -0.5903 H   0  0  0  0  0  0  0  0  0  0  0  0
    4.6836   -1.9085   -1.1163 H   0  0  0  0  0  0  0  0  0  0  0  0
   -1.9888    0.6859    1.2612 H   0  0  0  0  0  0  0  0  0  0  0  0
   -4.3012    0.0069    1.6168 H   0  0  0  0  0  0  0  0  0  0  0  0
  1  2  1  0
  2  3  1  0
  3  4  1  0
  4  5  2  0
  5  6  1  0
  6  7  2  0
  7  8  1  0
  8  9  1  0
  9 10  1  0
 10 11  2  0
 10 12  1  0
 12 13  1  0
 13 14  2  0
 13 15  2  0
 13 16  1  0
 16 17  2  0
 17 18  1  0
 18 19  2  0
 19 20  1  0
 20 21  1  0
 19 22  1  0
 22 23  2  0
  7 24  1  0
 24 25  2  0
 25  4  1  0
 23 16  1  0
  1 26  1  0
  1 27  1  0
  1 28  1  0
  2 29  1  0
  2 30  1  0
  5 31  1  0
  6 32  1  0
  8 33  1  0
  8 34  1  0
  9 35  1  0
 12 36  1  0
 17 37  1  0
 18 38  1  0
 21 39  1  0
 21 40  1  0
 21 41  1  0
 22 42  1  0
 23 43  1  0
 24 44  1  0
 25 45  1  0
M  END
$$$$
