
     RDKit          3D

 46 48  0  0  0  0  0  0  0  0999 V2000
    3.6830   -4.2698   -0.9448 C   0  0  0  0  0  0  0  0  0  0  0  0
    3.8921   -2.8101   -1.2971 C   0  0  0  0  0  0  0  0  0  0  0  0
    2.9378   -2.0341   -0.5640 O   0  0  0  0  0  0  0  0  0  0  0  0
    2.9967   -0.6865   -0.7981 C   0  0  0  0  0  0  0  0  0  0  0  0
    3.8110   -0.1746   -1.5618 O   0  0  0  0  0  0  0  0  0  0  0  0
    1.9480    0.0810    0.0231 C   0  0  0  0  0  0  0  0  0  0  0  0
    2.6133    0.2321    1.4136 C   0  0  0  0  0  0  0  0  0  0  0  0
    3.7971    0.8883    1.3616 F   0  0  0  0  0  0  0  0  0  0  0  0
    1.8147    0.9480    2.2542 F   0  0  0  0  0  0  0  0  0  0  0  0
    2.8413   -0.9552    2.0252 F   0  0  0  0  0  0  0  0  0  0  0  0
    1.7236    1.3901   -0.6185 N   0  0  0  0  0  0  0  0  0  0  0  0
    0.5782    1.9082   -0.3751 C   0  0  0  0  0  0  0  0  0  0  0  0
    0.2017    3.2728   -0.7939 C   0  0  0  0  0  0  0  0  0  0  0  0
   -0.9655    3.9092   -0.3613 C   0  0  0  0  0  0  0  0  0  0  0  0
   -1.2464    5.2018   -0.8017 C   0  0  0  0  0  0  0  0  0  0  0  0
   -0.3488    5.8162   -1.6602 C   0  0  0  0  0  0  0  0  0  0  0  0
    0.7877    5.2330   -2.0960 N   0  0  0  0  0  0  0  0  0  0  0  0
    1.0407    3.9759   -1.6511 C   0  0  0  0  0  0  0  0  0  0  0  0
   -0.4369    1.2946    0.2553 O   0  0  0  0  0  0  0  0  0  0  0  0
   -0.3719   -0.0545    0.2827 C   0  0  0  0  0  0  0  0  0  0  0  0
   -1.5894   -0.6530    0.5256 N   0  0  0  0  0  0  0  0  0  0  0  0
   -1.6689   -2.1072    0.7064 C   0  0  0  0  0  0  0  0  0  0  0  0
   -2.7914   -2.4691    1.6740 C   0  0  0  0  0  0  0  0  0  0  0  0
   -4.1518   -1.9843    1.1794 C   0  0  0  0  0  0  0  0  0  0  0  0
   -4.0413   -0.7625    0.2714 C   0  0  0  0  0  0  0  0  0  0  0  0
   -2.8375    0.1061    0.6228 C   0  0  0  0  0  0  0  0  0  0  0  0
    0.7109   -0.7119    0.0881 N   0  0  0  0  0  0  0  0  0  0  0  0
    3.8040   -4.4270    0.1323 H   0  0  0  0  0  0  0  0  0  0  0  0
    2.6664   -4.5857   -1.2006 H   0  0  0  0  0  0  0  0  0  0  0  0
    4.3954   -4.9059   -1.4774 H   0  0  0  0  0  0  0  0  0  0  0  0
    4.9070   -2.5045   -1.0199 H   0  0  0  0  0  0  0  0  0  0  0  0
    3.7418   -2.6641   -2.3727 H   0  0  0  0  0  0  0  0  0  0  0  0
   -1.6554    3.4208    0.3202 H   0  0  0  0  0  0  0  0  0  0  0  0
   -2.1430    5.7206   -0.4797 H   0  0  0  0  0  0  0  0  0  0  0  0
   -0.5238    6.8231   -2.0293 H   0  0  0  0  0  0  0  0  0  0  0  0
    1.9677    3.5434   -2.0224 H   0  0  0  0  0  0  0  0  0  0  0  0
   -1.8287   -2.5867   -0.2665 H   0  0  0  0  0  0  0  0  0  0  0  0
   -0.7317   -2.5025    1.1160 H   0  0  0  0  0  0  0  0  0  0  0  0
   -2.5840   -2.0115    2.6504 H   0  0  0  0  0  0  0  0  0  0  0  0
   -2.8209   -3.5524    1.8362 H   0  0  0  0  0  0  0  0  0  0  0  0
   -4.6608   -2.7877    0.6336 H   0  0  0  0  0  0  0  0  0  0  0  0
   -4.7837   -1.7530    2.0451 H   0  0  0  0  0  0  0  0  0  0  0  0
   -4.9647   -0.1750    0.3266 H   0  0  0  0  0  0  0  0  0  0  0  0
   -3.9472   -1.0997   -0.7691 H   0  0  0  0  0  0  0  0  0  0  0  0
   -2.9399    0.5077    1.6376 H   0  0  0  0  0  0  0  0  0  0  0  0
   -2.8268    0.9559   -0.0697 H   0  0  0  0  0  0  0  0  0  0  0  0
  1  2  1  0
  2  3  1  0
  3  4  1  0
  4  5  2  0
  4  6  1  0
  6  7  1  0
  7  8  1  0
  7  9  1  0
  7 10  1  0
  6 11  1  0
 11 12  2  0
 12 13  1  0
 13 14  2  0
 14 15  1  0
 15 16  2  0
 16 17  1  0
 17 18  2  0
 12 19  1  0
 19 20  1  0
 20 21  1  0
 21 22  1  0
 22 23  1  0
 23 24  1  0
 24 25  1  0
 25 26  1  0
 20 27  2  0
 27  6  1  0
 18 13  1  0
 26 21  1  0
  1 28  1  0
  1 29  1  0
  1 30  1  0
  2 31  1  0
  2 32  1  0
 14 33  1  0
 15 34  1  0
 16 35  1  0
 18 36  1  0
 22 37  1  0
 22 38  1  0
 23 39  1  0
 23 40  1  0
 24 41  1  0
 24 42  1  0
 25 43  1  0
 25 44  1  0
 26 45  1  0
 26 46  1  0
M  END
$$$$
