
     RDKit          3D

 39 40  0  0  0  0  0  0  0  0999 V2000
    1.0303    2.6496    2.8770 C   0  0  0  0  0  0  0  0  0  0  0  0
    0.5550    3.2945    1.5834 C   0  0  0  0  0  0  0  0  0  0  0  0
    0.2994    2.3542    0.3922 C   0  0  0  0  0  0  0  0  0  0  0  0
    1.8011    1.5260   -0.2490 S   0  0  0  0  0  0  0  0  0  0  0  0
    2.0494    0.1944    0.8180 C   0  0  0  0  0  0  0  0  0  0  0  0
    1.2010   -0.3032    1.6847 N   0  0  0  0  0  0  0  0  0  0  0  0
    1.8148   -1.3611    2.3169 N   0  0  0  0  0  0  0  0  0  0  0  0
    3.0191   -1.4812    1.8089 C   0  0  0  0  0  0  0  0  0  0  0  0
    3.2102   -0.5241    0.8583 N   0  0  0  0  0  0  0  0  0  0  0  0
    4.4057   -0.3350    0.0825 C   0  0  0  0  0  0  0  0  0  0  0  0
   -0.9259    1.4378    0.5579 C   0  0  0  0  0  0  0  0  0  0  0  0
   -1.7372    1.6196    1.4638 O   0  0  0  0  0  0  0  0  0  0  0  0
   -1.0727    0.5286   -0.4742 N   0  0  0  0  0  0  0  0  0  0  0  0
   -2.0935   -0.4237   -0.6794 C   0  0  0  0  0  0  0  0  0  0  0  0
   -3.2020   -0.5619    0.1575 C   0  0  0  0  0  0  0  0  0  0  0  0
   -4.1724   -1.5286   -0.1139 C   0  0  0  0  0  0  0  0  0  0  0  0
   -4.0410   -2.3609   -1.2221 C   0  0  0  0  0  0  0  0  0  0  0  0
   -2.9365   -2.2338   -2.0667 C   0  0  0  0  0  0  0  0  0  0  0  0
   -1.9582   -1.2700   -1.8023 C   0  0  0  0  0  0  0  0  0  0  0  0
   -0.8333   -1.0592   -2.5694 O   0  0  0  0  0  0  0  0  0  0  0  0
   -0.6369   -1.9307   -3.6756 C   0  0  0  0  0  0  0  0  0  0  0  0
    1.0629    3.4012    3.6731 H   0  0  0  0  0  0  0  0  0  0  0  0
    2.0407    2.2439    2.7798 H   0  0  0  0  0  0  0  0  0  0  0  0
    0.3563    1.8531    3.2040 H   0  0  0  0  0  0  0  0  0  0  0  0
   -0.3733    3.8377    1.8042 H   0  0  0  0  0  0  0  0  0  0  0  0
    1.2840    4.0608    1.2894 H   0  0  0  0  0  0  0  0  0  0  0  0
    0.0073    3.0196   -0.4331 H   0  0  0  0  0  0  0  0  0  0  0  0
    3.7575   -2.2190    2.0896 H   0  0  0  0  0  0  0  0  0  0  0  0
    4.7998    0.6651    0.2797 H   0  0  0  0  0  0  0  0  0  0  0  0
    4.1615   -0.4547   -0.9761 H   0  0  0  0  0  0  0  0  0  0  0  0
    5.1503   -1.0821    0.3702 H   0  0  0  0  0  0  0  0  0  0  0  0
   -0.3121    0.4597   -1.1436 H   0  0  0  0  0  0  0  0  0  0  0  0
   -3.3353    0.0639    1.0339 H   0  0  0  0  0  0  0  0  0  0  0  0
   -5.0292   -1.6299    0.5476 H   0  0  0  0  0  0  0  0  0  0  0  0
   -4.7993   -3.1124   -1.4270 H   0  0  0  0  0  0  0  0  0  0  0  0
   -2.8718   -2.9013   -2.9186 H   0  0  0  0  0  0  0  0  0  0  0  0
    0.3046   -1.6500   -4.1576 H   0  0  0  0  0  0  0  0  0  0  0  0
   -1.4356   -1.8150   -4.4155 H   0  0  0  0  0  0  0  0  0  0  0  0
   -0.5446   -2.9716   -3.3485 H   0  0  0  0  0  0  0  0  0  0  0  0
  1  2  1  0
  2  3  1  0
  3  4  1  0
  4  5  1  0
  5  6  2  0
  6  7  1  0
  7  8  2  0
  8  9  1  0
  9 10  1  0
  3 11  1  0
 11 12  2  0
 11 13  1  0
 13 14  1  0
 14 15  2  0
 15 16  1  0
 16 17  2  0
 17 18  1  0
 18 19  2  0
 19 20  1  0
 20 21  1  0
  9  5  1  0
 19 14  1  0
  1 22  1  0
  1 23  1  0
  1 24  1  0
  2 25  1  0
  2 26  1  0
  3 27  1  0
  8 28  1  0
 10 29  1  0
 10 30  1  0
 10 31  1  0
 13 32  1  0
 15 33  1  0
 16 34  1  0
 17 35  1  0
 18 36  1  0
 21 37  1  0
 21 38  1  0
 21 39  1  0
M  END
$$$$
