
     RDKit          3D

 45 46  0  0  0  0  0  0  0  0999 V2000
    5.1865   -1.8179    1.2368 C   0  0  0  0  0  0  0  0  0  0  0  0
    4.1332   -2.0684    0.1980 C   0  0  0  0  0  0  0  0  0  0  0  0
    4.3872   -2.9242   -0.8784 C   0  0  0  0  0  0  0  0  0  0  0  0
    3.3992   -3.1643   -1.8313 C   0  0  0  0  0  0  0  0  0  0  0  0
    2.1442   -2.5670   -1.7025 C   0  0  0  0  0  0  0  0  0  0  0  0
    1.8575   -1.7429   -0.6085 C   0  0  0  0  0  0  0  0  0  0  0  0
    0.5783   -1.1485   -0.5624 N   0  0  0  0  0  0  0  0  0  0  0  0
   -0.1545   -0.6605    0.5107 C   0  0  0  0  0  0  0  0  0  0  0  0
    0.0007   -1.2384    2.0856 S   0  0  0  0  0  0  0  0  0  0  0  0
   -1.0996    0.3178    0.1160 N   0  0  0  0  0  0  0  0  0  0  0  0
   -2.1140    0.8545    1.0509 C   0  0  0  0  0  0  0  0  0  0  0  0
   -1.5933    2.0419    1.8937 C   0  0  0  0  0  0  0  0  0  0  0  0
   -2.6433    2.7160    2.6849 N   0  0  0  0  0  0  0  0  0  0  0  0
   -2.1091    3.9483    3.2725 C   0  0  0  0  0  0  0  0  0  0  0  0
   -3.1547    1.8484    3.7503 C   0  0  0  0  0  0  0  0  0  0  0  0
   -0.9526    1.0780   -1.1384 C   0  0  0  0  0  0  0  0  0  0  0  0
   -1.5371    0.3503   -2.3185 C   0  0  0  0  0  0  0  0  0  0  0  0
   -0.8941   -0.0030   -3.4921 C   0  0  0  0  0  0  0  0  0  0  0  0
   -1.7530   -0.6801   -4.4043 C   0  0  0  0  0  0  0  0  0  0  0  0
   -3.0300   -0.8079   -3.9080 C   0  0  0  0  0  0  0  0  0  0  0  0
   -3.1888   -0.1086   -2.3574 S   0  0  0  0  0  0  0  0  0  0  0  0
    2.8628   -1.4843    0.3266 C   0  0  0  0  0  0  0  0  0  0  0  0
    5.0773   -2.5314    2.0593 H   0  0  0  0  0  0  0  0  0  0  0  0
    5.1069   -0.8010    1.6352 H   0  0  0  0  0  0  0  0  0  0  0  0
    6.1900   -1.9214    0.8107 H   0  0  0  0  0  0  0  0  0  0  0  0
    5.3581   -3.4029   -0.9836 H   0  0  0  0  0  0  0  0  0  0  0  0
    3.6048   -3.8211   -2.6723 H   0  0  0  0  0  0  0  0  0  0  0  0
    1.3892   -2.7723   -2.4568 H   0  0  0  0  0  0  0  0  0  0  0  0
   -0.0026   -1.3348   -1.3699 H   0  0  0  0  0  0  0  0  0  0  0  0
   -2.4647    0.0433    1.6957 H   0  0  0  0  0  0  0  0  0  0  0  0
   -2.9829    1.1712    0.4619 H   0  0  0  0  0  0  0  0  0  0  0  0
   -1.1627    2.7742    1.1985 H   0  0  0  0  0  0  0  0  0  0  0  0
   -0.7687    1.7216    2.5417 H   0  0  0  0  0  0  0  0  0  0  0  0
   -1.2703    3.7540    3.9509 H   0  0  0  0  0  0  0  0  0  0  0  0
   -1.7680    4.6330    2.4880 H   0  0  0  0  0  0  0  0  0  0  0  0
   -2.8891    4.4789    3.8301 H   0  0  0  0  0  0  0  0  0  0  0  0
   -3.6659    0.9734    3.3372 H   0  0  0  0  0  0  0  0  0  0  0  0
   -3.9034    2.3785    4.3502 H   0  0  0  0  0  0  0  0  0  0  0  0
   -2.3595    1.5043    4.4216 H   0  0  0  0  0  0  0  0  0  0  0  0
    0.1151    1.2672   -1.3046 H   0  0  0  0  0  0  0  0  0  0  0  0
   -1.4314    2.0593   -1.0397 H   0  0  0  0  0  0  0  0  0  0  0  0
    0.1509    0.2117   -3.6866 H   0  0  0  0  0  0  0  0  0  0  0  0
   -1.4527   -1.0487   -5.3776 H   0  0  0  0  0  0  0  0  0  0  0  0
   -3.8832   -1.2719   -4.3839 H   0  0  0  0  0  0  0  0  0  0  0  0
    2.6873   -0.8041    1.1545 H   0  0  0  0  0  0  0  0  0  0  0  0
  1  2  1  0
  2  3  2  0
  3  4  1  0
  4  5  2  0
  5  6  1  0
  6  7  1  0
  7  8  1  0
  8  9  2  0
  8 10  1  0
 10 11  1  0
 11 12  1  0
 12 13  1  0
 13 14  1  0
 13 15  1  0
 10 16  1  0
 16 17  1  0
 17 18  2  0
 18 19  1  0
 19 20  2  0
 20 21  1  0
  6 22  2  0
 22  2  1  0
 21 17  1  0
  1 23  1  0
  1 24  1  0
  1 25  1  0
  3 26  1  0
  4 27  1  0
  5 28  1  0
  7 29  1  0
 11 30  1  0
 11 31  1  0
 12 32  1  0
 12 33  1  0
 14 34  1  0
 14 35  1  0
 14 36  1  0
 15 37  1  0
 15 38  1  0
 15 39  1  0
 16 40  1  0
 16 41  1  0
 18 42  1  0
 19 43  1  0
 20 44  1  0
 22 45  1  0
M  END
$$$$
