
     RDKit          3D

 42 45  0  0  0  0  0  0  0  0999 V2000
    1.7806    2.1025   -1.6479 O   0  0  0  0  0  0  0  0  0  0  0  0
    0.7045    1.5599   -1.4342 C   0  0  0  0  0  0  0  0  0  0  0  0
   -0.3673    1.8355   -2.2301 N   0  0  0  0  0  0  0  0  0  0  0  0
   -1.6724    1.7703   -1.8514 C   0  0  0  0  0  0  0  0  0  0  0  0
   -2.5175    2.3706   -2.5118 O   0  0  0  0  0  0  0  0  0  0  0  0
   -1.9595    1.0360   -0.7197 N   0  0  0  0  0  0  0  0  0  0  0  0
   -3.3648    0.9175   -0.3298 C   0  0  0  0  0  0  0  0  0  0  0  0
   -4.1792   -0.0608   -1.1986 C   0  0  0  0  0  0  0  0  0  0  0  0
   -3.7237   -1.5123   -1.1290 C   0  0  0  0  0  0  0  0  0  0  0  0
   -4.5114   -2.0508    0.0381 C   0  0  0  0  0  0  0  0  0  0  0  0
   -5.8306   -1.3294   -0.1207 C   0  0  0  0  0  0  0  0  0  0  0  0
   -5.5411   -0.0557   -0.7156 O   0  0  0  0  0  0  0  0  0  0  0  0
   -1.0087    0.3854    0.0524 C   0  0  0  0  0  0  0  0  0  0  0  0
   -1.3074   -0.3590    0.9857 O   0  0  0  0  0  0  0  0  0  0  0  0
    0.4141    0.6326   -0.3201 C   0  0  0  0  0  0  0  0  0  0  0  0
    1.3466   -0.0095    0.4135 C   0  0  0  0  0  0  0  0  0  0  0  0
    2.7677   -0.0282    0.2762 C   0  0  0  0  0  0  0  0  0  0  0  0
    3.4687   -0.1784   -0.8990 C   0  0  0  0  0  0  0  0  0  0  0  0
    4.8053   -0.1677   -0.5962 N   0  0  0  0  0  0  0  0  0  0  0  0
    4.9866   -0.0717    0.7645 C   0  0  0  0  0  0  0  0  0  0  0  0
    6.1668   -0.0525    1.5175 C   0  0  0  0  0  0  0  0  0  0  0  0
    6.0481    0.0535    2.9062 C   0  0  0  0  0  0  0  0  0  0  0  0
    4.7986    0.1387    3.5150 C   0  0  0  0  0  0  0  0  0  0  0  0
    3.6283    0.1206    2.7472 C   0  0  0  0  0  0  0  0  0  0  0  0
    3.7185    0.0129    1.3428 C   0  0  0  0  0  0  0  0  0  0  0  0
   -0.1837    2.4926   -2.9762 H   0  0  0  0  0  0  0  0  0  0  0  0
   -3.8263    1.9116   -0.4012 H   0  0  0  0  0  0  0  0  0  0  0  0
   -3.4482    0.6425    0.7285 H   0  0  0  0  0  0  0  0  0  0  0  0
   -4.1866    0.2838   -2.2382 H   0  0  0  0  0  0  0  0  0  0  0  0
   -2.6454   -1.6521   -1.0333 H   0  0  0  0  0  0  0  0  0  0  0  0
   -4.0404   -2.0336   -2.0414 H   0  0  0  0  0  0  0  0  0  0  0  0
   -4.0332   -1.7611    0.9807 H   0  0  0  0  0  0  0  0  0  0  0  0
   -4.6186   -3.1386    0.0306 H   0  0  0  0  0  0  0  0  0  0  0  0
   -6.4986   -1.8698   -0.8000 H   0  0  0  0  0  0  0  0  0  0  0  0
   -6.3468   -1.1821    0.8320 H   0  0  0  0  0  0  0  0  0  0  0  0
    0.9985   -0.6185    1.2492 H   0  0  0  0  0  0  0  0  0  0  0  0
    3.1463   -0.2712   -1.9271 H   0  0  0  0  0  0  0  0  0  0  0  0
    5.5546   -0.2336   -1.2706 H   0  0  0  0  0  0  0  0  0  0  0  0
    7.1422   -0.1171    1.0466 H   0  0  0  0  0  0  0  0  0  0  0  0
    6.9462    0.0713    3.5195 H   0  0  0  0  0  0  0  0  0  0  0  0
    4.7290    0.2228    4.5967 H   0  0  0  0  0  0  0  0  0  0  0  0
    2.6602    0.1932    3.2338 H   0  0  0  0  0  0  0  0  0  0  0  0
  1  2  2  0
  2  3  1  0
  3  4  1  0
  4  5  2  0
  4  6  1  0
  6  7  1  0
  7  8  1  0
  8  9  1  0
  9 10  1  0
 10 11  1  0
 11 12  1  0
  6 13  1  0
 13 14  2  0
 13 15  1  0
 15 16  2  3
 16 17  1  0
 17 18  2  0
 18 19  1  0
 19 20  1  0
 20 21  2  0
 21 22  1  0
 22 23  2  0
 23 24  1  0
 24 25  2  0
 15  2  1  0
 25 17  1  0
 12  8  1  0
 25 20  1  0
  3 26  1  0
  7 27  1  0
  7 28  1  0
  8 29  1  0
  9 30  1  0
  9 31  1  0
 10 32  1  0
 10 33  1  0
 11 34  1  0
 11 35  1  0
 16 36  1  0
 18 37  1  0
 19 38  1  0
 21 39  1  0
 22 40  1  0
 23 41  1  0
 24 42  1  0
M  END
$$$$
