
     RDKit          3D

 37 37  0  0  0  0  0  0  0  0999 V2000
    4.5695   -0.5553    1.4625 C   0  0  0  0  0  0  0  0  0  0  0  0
    4.7776   -0.2315   -0.0088 C   0  0  0  0  0  0  0  0  0  0  0  0
    3.5868   -0.6097   -0.8921 C   0  0  0  0  0  0  0  0  0  0  0  0
    2.3268    0.2042   -0.5918 C   0  0  0  0  0  0  0  0  0  0  0  0
    1.2011   -0.1380   -1.5669 C   0  0  0  0  0  0  0  0  0  0  0  0
   -0.0693    0.6429   -1.2770 C   0  0  0  0  0  0  0  0  0  0  0  0
   -0.1412    1.5113   -0.4127 O   0  0  0  0  0  0  0  0  0  0  0  0
   -1.1162    0.2380   -2.1141 N   0  0  0  0  0  0  0  0  0  0  0  0
   -2.2826    0.9584   -2.1640 N   0  0  0  0  0  0  0  0  0  0  0  0
   -3.0302    1.0181   -1.0976 C   0  0  0  0  0  0  0  0  0  0  0  0
   -4.2115    1.9610   -1.1349 C   0  0  0  0  0  0  0  0  0  0  0  0
   -2.8689    0.2137    0.1404 C   0  0  0  0  0  0  0  0  0  0  0  0
   -2.7653    0.8526    1.3799 C   0  0  0  0  0  0  0  0  0  0  0  0
   -2.6281    0.0892    2.5413 C   0  0  0  0  0  0  0  0  0  0  0  0
   -2.6037   -1.3034    2.4570 C   0  0  0  0  0  0  0  0  0  0  0  0
   -2.4346   -2.2421    3.8891 Cl  0  0  0  0  0  0  0  0  0  0  0  0
   -2.7148   -1.9427    1.2215 C   0  0  0  0  0  0  0  0  0  0  0  0
   -2.8491   -1.1829    0.0578 C   0  0  0  0  0  0  0  0  0  0  0  0
    4.3123   -1.6102    1.6005 H   0  0  0  0  0  0  0  0  0  0  0  0
    5.4873   -0.3542    2.0244 H   0  0  0  0  0  0  0  0  0  0  0  0
    3.7743    0.0556    1.8996 H   0  0  0  0  0  0  0  0  0  0  0  0
    5.0004    0.8361   -0.1195 H   0  0  0  0  0  0  0  0  0  0  0  0
    5.6598   -0.7776   -0.3637 H   0  0  0  0  0  0  0  0  0  0  0  0
    3.3718   -1.6795   -0.7807 H   0  0  0  0  0  0  0  0  0  0  0  0
    3.8738   -0.4527   -1.9393 H   0  0  0  0  0  0  0  0  0  0  0  0
    2.5553    1.2754   -0.6532 H   0  0  0  0  0  0  0  0  0  0  0  0
    1.9866    0.0099    0.4319 H   0  0  0  0  0  0  0  0  0  0  0  0
    1.5149    0.0887   -2.5926 H   0  0  0  0  0  0  0  0  0  0  0  0
    0.9691   -1.2079   -1.5057 H   0  0  0  0  0  0  0  0  0  0  0  0
   -0.8207   -0.0825   -3.0320 H   0  0  0  0  0  0  0  0  0  0  0  0
   -4.9037    1.7782   -0.3087 H   0  0  0  0  0  0  0  0  0  0  0  0
   -4.7538    1.8268   -2.0758 H   0  0  0  0  0  0  0  0  0  0  0  0
   -3.8482    2.9912   -1.0783 H   0  0  0  0  0  0  0  0  0  0  0  0
   -2.7565    1.9380    1.4424 H   0  0  0  0  0  0  0  0  0  0  0  0
   -2.5311    0.5855    3.5034 H   0  0  0  0  0  0  0  0  0  0  0  0
   -2.6974   -3.0275    1.1596 H   0  0  0  0  0  0  0  0  0  0  0  0
   -2.9405   -1.6769   -0.9060 H   0  0  0  0  0  0  0  0  0  0  0  0
  1  2  1  0
  2  3  1  0
  3  4  1  0
  4  5  1  0
  5  6  1  0
  6  7  2  0
  6  8  1  0
  8  9  1  0
  9 10  2  3
 10 11  1  0
 10 12  1  0
 12 13  2  0
 13 14  1  0
 14 15  2  0
 15 16  1  0
 15 17  1  0
 17 18  2  0
 18 12  1  0
  1 19  1  0
  1 20  1  0
  1 21  1  0
  2 22  1  0
  2 23  1  0
  3 24  1  0
  3 25  1  0
  4 26  1  0
  4 27  1  0
  5 28  1  0
  5 29  1  0
  8 30  1  0
 11 31  1  0
 11 32  1  0
 11 33  1  0
 13 34  1  0
 14 35  1  0
 17 36  1  0
 18 37  1  0
M  END
$$$$
