
     RDKit          3D

 58 60  0  0  0  0  0  0  0  0999 V2000
    8.9244    1.1768    0.0181 C   0  0  0  0  0  0  0  0  0  0  0  0
    7.8936    0.3786   -0.7634 C   0  0  0  0  0  0  0  0  0  0  0  0
    6.5284    1.0623   -0.7521 C   0  0  0  0  0  0  0  0  0  0  0  0
    5.4859    0.2370   -1.5082 C   0  0  0  0  0  0  0  0  0  0  0  0
    4.2306    0.9166   -1.5441 O   0  0  0  0  0  0  0  0  0  0  0  0
    3.3539    0.7420   -0.5107 C   0  0  0  0  0  0  0  0  0  0  0  0
    3.5843    0.0200    0.6605 C   0  0  0  0  0  0  0  0  0  0  0  0
    2.5927   -0.0609    1.6469 C   0  0  0  0  0  0  0  0  0  0  0  0
    1.3603    0.5797    1.4684 C   0  0  0  0  0  0  0  0  0  0  0  0
    0.3164    0.4652    2.5309 C   0  0  0  0  0  0  0  0  0  0  0  0
    0.5465   -0.1680    3.5534 O   0  0  0  0  0  0  0  0  0  0  0  0
   -0.8637    1.1115    2.2835 N   0  0  0  0  0  0  0  0  0  0  0  0
   -1.9751    0.4431    2.3841 C   0  0  0  0  0  0  0  0  0  0  0  0
   -2.1763   -1.0269    2.6931 C   0  0  0  0  0  0  0  0  0  0  0  0
   -2.8706   -1.7442    1.5546 C   0  0  0  0  0  0  0  0  0  0  0  0
   -2.1772   -2.0047    0.3614 C   0  0  0  0  0  0  0  0  0  0  0  0
   -2.8294   -2.5974   -0.7213 C   0  0  0  0  0  0  0  0  0  0  0  0
   -4.1839   -2.9303   -0.6071 C   0  0  0  0  0  0  0  0  0  0  0  0
   -4.8850   -3.5109   -1.7538 N   0  0  0  0  0  4  0  0  0  0  0  0
   -6.1201   -3.4067   -1.7805 O   0  0  0  0  0  0  0  0  0  0  0  0
   -4.2040   -4.0596   -2.6298 O   0  0  0  0  0  1  0  0  0  0  0  0
   -4.8851   -2.6921    0.5812 C   0  0  0  0  0  0  0  0  0  0  0  0
   -4.2247   -2.1000    1.6595 C   0  0  0  0  0  0  0  0  0  0  0  0
   -3.2579    1.2056    2.1142 C   0  0  0  0  0  0  0  0  0  0  0  0
   -4.0219    1.5435    2.9963 O   0  0  0  0  0  0  0  0  0  0  0  0
   -3.3867    1.3539    0.7854 O   0  0  0  0  0  0  0  0  0  0  0  0
   -4.6039    1.9749    0.3731 C   0  0  0  0  0  0  0  0  0  0  0  0
   -4.8201    1.5466   -1.0307 C   0  0  0  0  0  0  0  0  0  0  0  0
   -5.5488    0.5258   -1.6090 C   0  0  0  0  0  0  0  0  0  0  0  0
   -5.3410    0.6291   -3.0049 C   0  0  0  0  0  0  0  0  0  0  0  0
   -4.5040    1.7072   -3.1899 C   0  0  0  0  0  0  0  0  0  0  0  0
   -4.1843    2.2714   -1.9973 O   0  0  0  0  0  0  0  0  0  0  0  0
    1.1276    1.3013    0.2915 C   0  0  0  0  0  0  0  0  0  0  0  0
    2.1228    1.3803   -0.6865 C   0  0  0  0  0  0  0  0  0  0  0  0
    8.6259    1.2793    1.0655 H   0  0  0  0  0  0  0  0  0  0  0  0
    9.8953    0.6727   -0.0110 H   0  0  0  0  0  0  0  0  0  0  0  0
    9.0491    2.1782   -0.4043 H   0  0  0  0  0  0  0  0  0  0  0  0
    8.2391    0.2563   -1.7972 H   0  0  0  0  0  0  0  0  0  0  0  0
    7.8111   -0.6238   -0.3281 H   0  0  0  0  0  0  0  0  0  0  0  0
    6.2026    1.2294    0.2816 H   0  0  0  0  0  0  0  0  0  0  0  0
    6.5989    2.0606   -1.2069 H   0  0  0  0  0  0  0  0  0  0  0  0
    5.3906   -0.7871   -1.1240 H   0  0  0  0  0  0  0  0  0  0  0  0
    5.8067    0.1344   -2.5536 H   0  0  0  0  0  0  0  0  0  0  0  0
    4.5257   -0.4841    0.8490 H   0  0  0  0  0  0  0  0  0  0  0  0
    2.7937   -0.6225    2.5599 H   0  0  0  0  0  0  0  0  0  0  0  0
   -1.2407   -1.5498    2.8980 H   0  0  0  0  0  0  0  0  0  0  0  0
   -2.7745   -1.0978    3.6094 H   0  0  0  0  0  0  0  0  0  0  0  0
   -1.1265   -1.7331    0.2609 H   0  0  0  0  0  0  0  0  0  0  0  0
   -2.2797   -2.7769   -1.6436 H   0  0  0  0  0  0  0  0  0  0  0  0
   -5.9375   -2.9535    0.6774 H   0  0  0  0  0  0  0  0  0  0  0  0
   -4.7793   -1.9056    2.5777 H   0  0  0  0  0  0  0  0  0  0  0  0
   -5.4533    1.6553    0.9900 H   0  0  0  0  0  0  0  0  0  0  0  0
   -4.4933    3.0622    0.4345 H   0  0  0  0  0  0  0  0  0  0  0  0
   -6.1541   -0.2038   -1.0899 H   0  0  0  0  0  0  0  0  0  0  0  0
   -5.7528   -0.0024   -3.7800 H   0  0  0  0  0  0  0  0  0  0  0  0
   -4.0708    2.1799   -4.0595 H   0  0  0  0  0  0  0  0  0  0  0  0
    0.1828    1.8131    0.1238 H   0  0  0  0  0  0  0  0  0  0  0  0
    1.9376    1.9486   -1.5958 H   0  0  0  0  0  0  0  0  0  0  0  0
  1  2  1  0
  2  3  1  0
  3  4  1  0
  4  5  1  0
  5  6  1  0
  6  7  2  0
  7  8  1  0
  8  9  2  0
  9 10  1  0
 10 11  2  0
 10 12  1  0
 12 13  2  3
 13 14  1  0
 14 15  1  0
 15 16  2  0
 16 17  1  0
 17 18  2  0
 18 19  1  0
 19 20  2  0
 19 21  1  0
 18 22  1  0
 22 23  2  0
 13 24  1  0
 24 25  2  0
 24 26  1  0
 26 27  1  0
 27 28  1  0
 28 29  2  0
 29 30  1  0
 30 31  2  0
 31 32  1  0
  9 33  1  0
 33 34  2  0
 34  6  1  0
 23 15  1  0
 32 28  1  0
  1 35  1  0
  1 36  1  0
  1 37  1  0
  2 38  1  0
  2 39  1  0
  3 40  1  0
  3 41  1  0
  4 42  1  0
  4 43  1  0
  7 44  1  0
  8 45  1  0
 14 46  1  0
 14 47  1  0
 16 48  1  0
 17 49  1  0
 22 50  1  0
 23 51  1  0
 27 52  1  0
 27 53  1  0
 29 54  1  0
 30 55  1  0
 31 56  1  0
 33 57  1  0
 34 58  1  0
M  CHG  2  19   1  21  -1
M  END
$$$$
