
     RDKit          3D

 40 41  0  0  0  0  0  0  0  0999 V2000
    5.5048   -3.0313    0.5030 C   0  0  0  0  0  0  0  0  0  0  0  0
    5.1785   -2.0518   -0.4750 O   0  0  0  0  0  0  0  0  0  0  0  0
    4.5139   -0.9390   -0.0385 C   0  0  0  0  0  0  0  0  0  0  0  0
    4.2489    0.0088   -1.0294 C   0  0  0  0  0  0  0  0  0  0  0  0
    3.5737    1.1927   -0.7240 C   0  0  0  0  0  0  0  0  0  0  0  0
    3.1522    1.4448    0.5865 C   0  0  0  0  0  0  0  0  0  0  0  0
    2.3859    2.7040    0.9216 C   0  0  0  0  0  0  0  0  0  0  0  0
    0.9011    2.4910    1.1177 C   0  0  0  0  0  0  0  0  0  0  0  0
    0.2524    3.0774    1.9789 O   0  0  0  0  0  0  0  0  0  0  0  0
    0.4251    1.6110    0.1782 O   0  0  0  0  0  0  0  0  0  0  0  0
   -0.9645    1.4443    0.3127 N   0  0  0  0  0  0  0  0  0  0  0  0
   -1.3918    0.4776   -0.4464 C   0  0  0  0  0  0  0  0  0  0  0  0
   -0.5564   -0.2802   -1.2401 N   0  0  0  0  0  0  0  0  0  0  0  0
   -2.8589    0.1690   -0.4345 C   0  0  0  0  0  0  0  0  0  0  0  0
   -3.4434   -0.5614   -1.4757 C   0  0  0  0  0  0  0  0  0  0  0  0
   -4.8114   -0.8485   -1.4501 C   0  0  0  0  0  0  0  0  0  0  0  0
   -5.6109   -0.4096   -0.3870 C   0  0  0  0  0  0  0  0  0  0  0  0
   -7.0802   -0.7126   -0.3798 C   0  0  0  0  0  0  0  0  0  0  0  0
   -5.0254    0.3315    0.6457 C   0  0  0  0  0  0  0  0  0  0  0  0
   -3.6580    0.6199    0.6224 C   0  0  0  0  0  0  0  0  0  0  0  0
    3.4172    0.4916    1.5792 C   0  0  0  0  0  0  0  0  0  0  0  0
    4.0949   -0.6927    1.2684 C   0  0  0  0  0  0  0  0  0  0  0  0
    4.6007   -3.4603    0.9472 H   0  0  0  0  0  0  0  0  0  0  0  0
    6.0443   -3.8398   -0.0001 H   0  0  0  0  0  0  0  0  0  0  0  0
    6.1662   -2.6182    1.2720 H   0  0  0  0  0  0  0  0  0  0  0  0
    4.5740   -0.1774   -2.0504 H   0  0  0  0  0  0  0  0  0  0  0  0
    3.3790    1.9097   -1.5192 H   0  0  0  0  0  0  0  0  0  0  0  0
    2.5180    3.4598    0.1382 H   0  0  0  0  0  0  0  0  0  0  0  0
    2.8000    3.1281    1.8448 H   0  0  0  0  0  0  0  0  0  0  0  0
   -0.7948   -1.2643   -1.2965 H   0  0  0  0  0  0  0  0  0  0  0  0
    0.4206   -0.1507   -0.9916 H   0  0  0  0  0  0  0  0  0  0  0  0
   -2.8531   -0.8915   -2.3257 H   0  0  0  0  0  0  0  0  0  0  0  0
   -5.2533   -1.4107   -2.2703 H   0  0  0  0  0  0  0  0  0  0  0  0
   -7.5501   -0.3987    0.5582 H   0  0  0  0  0  0  0  0  0  0  0  0
   -7.2451   -1.7895   -0.4891 H   0  0  0  0  0  0  0  0  0  0  0  0
   -7.5766   -0.1867   -1.2015 H   0  0  0  0  0  0  0  0  0  0  0  0
   -5.6270    0.6941    1.4766 H   0  0  0  0  0  0  0  0  0  0  0  0
   -3.2222    1.1980    1.4349 H   0  0  0  0  0  0  0  0  0  0  0  0
    3.0946    0.6616    2.6055 H   0  0  0  0  0  0  0  0  0  0  0  0
    4.2770   -1.4000    2.0711 H   0  0  0  0  0  0  0  0  0  0  0  0
  1  2  1  0
  2  3  1  0
  3  4  2  0
  4  5  1  0
  5  6  2  0
  6  7  1  0
  7  8  1  0
  8  9  2  0
  8 10  1  0
 10 11  1  0
 11 12  2  3
 12 13  1  0
 12 14  1  0
 14 15  2  0
 15 16  1  0
 16 17  2  0
 17 18  1  0
 17 19  1  0
 19 20  2  0
  6 21  1  0
 21 22  2  0
 22  3  1  0
 20 14  1  0
  1 23  1  0
  1 24  1  0
  1 25  1  0
  4 26  1  0
  5 27  1  0
  7 28  1  0
  7 29  1  0
 13 30  1  0
 13 31  1  0
 15 32  1  0
 16 33  1  0
 18 34  1  0
 18 35  1  0
 18 36  1  0
 19 37  1  0
 20 38  1  0
 21 39  1  0
 22 40  1  0
M  END
$$$$
