
     RDKit          3D

 58 61  0  0  0  0  0  0  0  0999 V2000
    5.1969    1.5812   -6.5855 C   0  0  0  0  0  0  0  0  0  0  0  0
    5.4375    0.6922   -5.5019 O   0  0  0  0  0  0  0  0  0  0  0  0
    4.7394    0.9227   -4.3491 C   0  0  0  0  0  0  0  0  0  0  0  0
    4.9065   -0.0486   -3.3608 C   0  0  0  0  0  0  0  0  0  0  0  0
    4.2493    0.0620   -2.1337 C   0  0  0  0  0  0  0  0  0  0  0  0
    3.4207    1.1589   -1.8707 C   0  0  0  0  0  0  0  0  0  0  0  0
    2.6856    1.2616   -0.5606 C   0  0  0  0  0  0  0  0  0  0  0  0
    1.3572    0.7077   -0.6767 N   0  0  0  0  0  0  0  0  0  0  0  0
    1.0726   -0.6051   -0.3583 C   0  0  0  0  0  0  0  0  0  0  0  0
    1.8967   -1.3432    0.1837 O   0  0  0  0  0  0  0  0  0  0  0  0
   -0.3286   -1.0906   -0.6977 C   0  0  0  0  0  0  0  0  0  0  0  0
   -0.4987   -1.1564   -2.1575 C   0  0  0  0  0  0  0  0  0  0  0  0
   -0.6405   -1.2243   -3.3090 N   0  0  0  0  0  0  0  0  0  0  0  0
   -1.3721   -0.2216   -0.0297 C   0  0  0  0  0  0  0  0  0  0  0  0
   -1.6566    0.9818   -0.6168 N   0  0  0  0  0  0  0  0  0  0  0  0
   -2.5954    1.7437   -0.0292 C   0  0  0  0  0  0  0  0  0  0  0  0
   -2.9523    2.9611   -0.5973 C   0  0  0  0  0  0  0  0  0  0  0  0
   -3.9221    3.7773   -0.0131 C   0  0  0  0  0  0  0  0  0  0  0  0
   -4.5443    3.3687    1.1592 C   0  0  0  0  0  0  0  0  0  0  0  0
   -4.1928    2.1470    1.7348 C   0  0  0  0  0  0  0  0  0  0  0  0
   -3.2303    1.3264    1.1598 C   0  0  0  0  0  0  0  0  0  0  0  0
   -2.9215    0.1548    1.7464 N   0  0  0  0  0  0  0  0  0  0  0  0
   -1.9909   -0.6314    1.1616 C   0  0  0  0  0  0  0  0  0  0  0  0
   -1.6373   -1.8455    1.7759 N   0  0  0  0  0  0  0  0  0  0  0  0
   -0.4845   -1.6765    2.7028 C   0  0  0  0  0  0  0  0  0  0  0  0
   -0.9020   -1.8306    4.1831 C   0  0  0  0  0  0  0  0  0  0  0  0
   -1.4989   -3.1512    4.4902 N   0  0  0  0  0  0  0  0  0  0  0  0
   -2.2796   -3.0800    5.7250 C   0  0  0  0  0  0  0  0  0  0  0  0
   -2.3174   -3.6424    3.3578 C   0  0  0  0  0  0  0  0  0  0  0  0
   -2.7966   -2.5358    2.3931 C   0  0  0  0  0  0  0  0  0  0  0  0
    3.2504    2.1294   -2.8668 C   0  0  0  0  0  0  0  0  0  0  0  0
    3.9085    2.0142   -4.0970 C   0  0  0  0  0  0  0  0  0  0  0  0
    5.5402    2.5939   -6.3459 H   0  0  0  0  0  0  0  0  0  0  0  0
    5.7767    1.2272   -7.4433 H   0  0  0  0  0  0  0  0  0  0  0  0
    4.1397    1.5786   -6.8751 H   0  0  0  0  0  0  0  0  0  0  0  0
    5.5479   -0.9060   -3.5511 H   0  0  0  0  0  0  0  0  0  0  0  0
    4.3818   -0.7189   -1.3863 H   0  0  0  0  0  0  0  0  0  0  0  0
    3.2424    0.7562    0.2356 H   0  0  0  0  0  0  0  0  0  0  0  0
    2.5820    2.3117   -0.2678 H   0  0  0  0  0  0  0  0  0  0  0  0
    0.6598    1.2526   -1.1749 H   0  0  0  0  0  0  0  0  0  0  0  0
   -0.4074   -2.1232   -0.3367 H   0  0  0  0  0  0  0  0  0  0  0  0
   -2.4705    3.2770   -1.5197 H   0  0  0  0  0  0  0  0  0  0  0  0
   -4.1906    4.7238   -0.4765 H   0  0  0  0  0  0  0  0  0  0  0  0
   -5.3031    3.9925    1.6255 H   0  0  0  0  0  0  0  0  0  0  0  0
   -4.6809    1.8243    2.6513 H   0  0  0  0  0  0  0  0  0  0  0  0
    0.0134   -0.7072    2.5710 H   0  0  0  0  0  0  0  0  0  0  0  0
    0.2586   -2.4436    2.4565 H   0  0  0  0  0  0  0  0  0  0  0  0
   -0.0253   -1.6798    4.8209 H   0  0  0  0  0  0  0  0  0  0  0  0
   -1.6091   -1.0234    4.4196 H   0  0  0  0  0  0  0  0  0  0  0  0
   -1.6498   -2.7566    6.5617 H   0  0  0  0  0  0  0  0  0  0  0  0
   -3.1221   -2.3842    5.6379 H   0  0  0  0  0  0  0  0  0  0  0  0
   -2.6718   -4.0670    5.9922 H   0  0  0  0  0  0  0  0  0  0  0  0
   -3.1793   -4.2239    3.7096 H   0  0  0  0  0  0  0  0  0  0  0  0
   -1.6938   -4.3477    2.7936 H   0  0  0  0  0  0  0  0  0  0  0  0
   -3.4446   -1.8541    2.9573 H   0  0  0  0  0  0  0  0  0  0  0  0
   -3.4025   -2.9857    1.5991 H   0  0  0  0  0  0  0  0  0  0  0  0
    2.5993    2.9830   -2.6952 H   0  0  0  0  0  0  0  0  0  0  0  0
    3.7500    2.7927   -4.8345 H   0  0  0  0  0  0  0  0  0  0  0  0
  1  2  1  0
  2  3  1  0
  3  4  2  0
  4  5  1  0
  5  6  2  0
  6  7  1  0
  7  8  1  0
  8  9  1  0
  9 10  2  0
  9 11  1  0
 11 12  1  0
 12 13  3  0
 11 14  1  0
 14 15  2  0
 15 16  1  0
 16 17  2  0
 17 18  1  0
 18 19  2  0
 19 20  1  0
 20 21  2  0
 21 22  1  0
 22 23  2  0
 23 24  1  0
 24 25  1  0
 25 26  1  0
 26 27  1  0
 27 28  1  0
 27 29  1  0
 29 30  1  0
  6 31  1  0
 31 32  2  0
 32  3  1  0
 23 14  1  0
 30 24  1  0
 21 16  1  0
  1 33  1  0
  1 34  1  0
  1 35  1  0
  4 36  1  0
  5 37  1  0
  7 38  1  0
  7 39  1  0
  8 40  1  0
 11 41  1  0
 17 42  1  0
 18 43  1  0
 19 44  1  0
 20 45  1  0
 25 46  1  0
 25 47  1  0
 26 48  1  0
 26 49  1  0
 28 50  1  0
 28 51  1  0
 28 52  1  0
 29 53  1  0
 29 54  1  0
 30 55  1  0
 30 56  1  0
 31 57  1  0
 32 58  1  0
M  END
$$$$
