
     RDKit          3D

 48 51  0  0  0  0  0  0  0  0999 V2000
    4.5391    2.6091    1.3370 O   0  0  0  0  0  0  0  0  0  0  0  0
    4.3460    1.6242    0.6360 C   0  0  0  0  0  0  0  0  0  0  0  0
    3.1066    1.0839    0.2994 N   0  0  0  0  0  0  0  0  0  0  0  0
    1.8661    1.7223    0.1776 C   0  0  0  0  0  0  0  0  0  0  0  0
    1.6414    3.3829    0.2467 S   0  0  0  0  0  0  0  0  0  0  0  0
    0.8276    0.7832   -0.0630 N   0  0  0  0  0  0  0  0  0  0  0  0
    0.7917   -0.4638    0.7265 C   0  0  0  0  0  0  0  0  0  0  0  0
   -0.1140   -1.5451    0.1060 C   0  0  0  0  0  0  0  0  0  0  0  0
   -1.4755   -1.0951   -0.2389 N   0  0  0  0  0  0  0  0  0  0  0  0
   -2.2951   -0.8887    0.9672 C   0  0  0  0  0  0  0  0  0  0  0  0
   -3.7612   -0.6602    0.6601 C   0  0  0  0  0  0  0  0  0  0  0  0
   -4.4049    0.5246    1.0885 C   0  0  0  0  0  0  0  0  0  0  0  0
   -5.7594    0.7458    0.8183 C   0  0  0  0  0  0  0  0  0  0  0  0
   -6.4428   -0.2289    0.1251 C   0  0  0  0  0  0  0  0  0  0  0  0
   -5.8290   -1.3853   -0.2935 C   0  0  0  0  0  0  0  0  0  0  0  0
   -4.4962   -1.6316   -0.0424 C   0  0  0  0  0  0  0  0  0  0  0  0
   -6.6792   -2.2129   -0.9582 O   0  0  0  0  0  0  0  0  0  0  0  0
   -7.8976   -1.4422   -0.9127 C   0  0  0  0  0  0  0  0  0  0  0  0
   -7.7564   -0.1826   -0.2235 O   0  0  0  0  0  0  0  0  0  0  0  0
   -1.3731    0.1170   -1.0792 C   0  0  0  0  0  0  0  0  0  0  0  0
   -0.5100    1.2475   -0.4868 C   0  0  0  0  0  0  0  0  0  0  0  0
    5.5293    0.8587    0.1567 C   0  0  0  0  0  0  0  0  0  0  0  0
    5.5423   -0.5420    0.1049 C   0  0  0  0  0  0  0  0  0  0  0  0
    6.6823   -1.2107   -0.3527 C   0  0  0  0  0  0  0  0  0  0  0  0
    7.8058   -0.4835   -0.7476 C   0  0  0  0  0  0  0  0  0  0  0  0
    9.2036   -1.3133   -1.3094 Cl  0  0  0  0  0  0  0  0  0  0  0  0
    7.8056    0.9085   -0.6817 C   0  0  0  0  0  0  0  0  0  0  0  0
    6.6692    1.5799   -0.2241 C   0  0  0  0  0  0  0  0  0  0  0  0
    3.1367    0.2614   -0.2824 H   0  0  0  0  0  0  0  0  0  0  0  0
    1.7963   -0.8774    0.8533 H   0  0  0  0  0  0  0  0  0  0  0  0
    0.4393   -0.1951    1.7299 H   0  0  0  0  0  0  0  0  0  0  0  0
   -0.1584   -2.4159    0.7715 H   0  0  0  0  0  0  0  0  0  0  0  0
    0.3619   -1.9052   -0.8159 H   0  0  0  0  0  0  0  0  0  0  0  0
   -2.2512   -1.7873    1.5975 H   0  0  0  0  0  0  0  0  0  0  0  0
   -1.9098   -0.0697    1.5858 H   0  0  0  0  0  0  0  0  0  0  0  0
   -3.8482    1.2832    1.6353 H   0  0  0  0  0  0  0  0  0  0  0  0
   -6.2574    1.6526    1.1425 H   0  0  0  0  0  0  0  0  0  0  0  0
   -4.0287   -2.5479   -0.3879 H   0  0  0  0  0  0  0  0  0  0  0  0
   -8.2261   -1.2448   -1.9397 H   0  0  0  0  0  0  0  0  0  0  0  0
   -8.6680   -2.0344   -0.4055 H   0  0  0  0  0  0  0  0  0  0  0  0
   -0.9296   -0.1856   -2.0376 H   0  0  0  0  0  0  0  0  0  0  0  0
   -2.3649    0.5066   -1.3351 H   0  0  0  0  0  0  0  0  0  0  0  0
   -0.3958    2.0274   -1.2475 H   0  0  0  0  0  0  0  0  0  0  0  0
   -1.0046    1.6948    0.3835 H   0  0  0  0  0  0  0  0  0  0  0  0
    4.6951   -1.1295    0.4464 H   0  0  0  0  0  0  0  0  0  0  0  0
    6.6949   -2.2976   -0.3880 H   0  0  0  0  0  0  0  0  0  0  0  0
    8.6839    1.4764   -0.9783 H   0  0  0  0  0  0  0  0  0  0  0  0
    6.6727    2.6676   -0.1641 H   0  0  0  0  0  0  0  0  0  0  0  0
  1  2  2  0
  2  3  1  0
  3  4  1  0
  4  5  2  0
  4  6  1  0
  6  7  1  0
  7  8  1  0
  8  9  1  0
  9 10  1  0
 10 11  1  0
 11 12  2  0
 12 13  1  0
 13 14  2  0
 14 15  1  0
 15 16  2  0
 15 17  1  0
 17 18  1  0
 18 19  1  0
  9 20  1  0
 20 21  1  0
  2 22  1  0
 22 23  2  0
 23 24  1  0
 24 25  2  0
 25 26  1  0
 25 27  1  0
 27 28  2  0
 21  6  1  0
 28 22  1  0
 16 11  1  0
 19 14  1  0
  3 29  1  0
  7 30  1  0
  7 31  1  0
  8 32  1  0
  8 33  1  0
 10 34  1  0
 10 35  1  0
 12 36  1  0
 13 37  1  0
 16 38  1  0
 18 39  1  0
 18 40  1  0
 20 41  1  0
 20 42  1  0
 21 43  1  0
 21 44  1  0
 23 45  1  0
 24 46  1  0
 27 47  1  0
 28 48  1  0
M  END
$$$$
