
     RDKit          3D

 54 57  0  0  0  0  0  0  0  0999 V2000
   -5.2191    0.6911    1.3594 C   0  0  0  0  0  0  0  0  0  0  0  0
   -4.2328    0.8868    2.5174 C   0  0  0  0  0  0  0  0  0  0  0  0
   -4.7078    2.0435    3.4138 C   0  0  0  0  0  0  0  0  0  0  0  0
   -3.7641    2.2780    4.5900 C   0  0  0  0  0  0  0  0  0  0  0  0
   -2.3312    2.5144    4.1273 C   0  0  0  0  0  0  0  0  0  0  0  0
   -1.8331    1.3748    3.2412 C   0  0  0  0  0  0  0  0  0  0  0  0
   -2.7759    1.1027    2.0576 C   0  0  0  0  0  0  0  0  0  0  0  0
   -2.6408    2.1322    1.0455 N   0  0  0  0  0  0  0  0  0  0  0  0
   -1.9499    1.6852   -0.0576 C   0  0  0  0  0  0  0  0  0  0  0  0
   -1.5967    2.3993   -0.9808 O   0  0  0  0  0  0  0  0  0  0  0  0
   -1.7511    0.3476    0.0712 N   0  0  0  0  0  0  0  0  0  0  0  0
   -1.0052   -0.4521   -0.8675 C   0  0  0  0  0  0  0  0  0  0  0  0
    0.4835   -0.3817   -0.5217 C   0  0  0  0  0  0  0  0  0  0  0  0
    0.9204    0.1141    0.5140 O   0  0  0  0  0  0  0  0  0  0  0  0
    1.2953   -0.9621   -1.4754 N   0  0  0  0  0  0  0  0  0  0  0  0
    2.7483   -0.9180   -1.3722 C   0  0  0  0  0  0  0  0  0  0  0  0
    3.2464    0.4698   -1.8099 C   0  0  0  0  0  0  0  0  0  0  0  0
    4.7517    0.4694   -2.0301 C   0  0  0  0  0  0  0  0  0  0  0  0
    5.1109   -0.4826   -3.1660 C   0  0  0  0  0  0  0  0  0  0  0  0
    4.4935   -1.8486   -2.9956 C   0  0  0  0  0  0  0  0  0  0  0  0
    5.0372   -2.9279   -3.7106 C   0  0  0  0  0  0  0  0  0  0  0  0
    4.5046   -4.2094   -3.5805 C   0  0  0  0  0  0  0  0  0  0  0  0
    3.4239   -4.4280   -2.7334 C   0  0  0  0  0  0  0  0  0  0  0  0
    2.8658   -3.3615   -2.0288 C   0  0  0  0  0  0  0  0  0  0  0  0
    3.3719   -2.0552   -2.1683 C   0  0  0  0  0  0  0  0  0  0  0  0
   -2.2278   -0.1039    1.2691 C   0  0  0  0  0  0  0  0  0  0  0  0
   -2.2048   -1.2618    1.6649 O   0  0  0  0  0  0  0  0  0  0  0  0
   -6.2236    0.4835    1.7441 H   0  0  0  0  0  0  0  0  0  0  0  0
   -5.2850    1.5828    0.7274 H   0  0  0  0  0  0  0  0  0  0  0  0
   -4.9298   -0.1551    0.7284 H   0  0  0  0  0  0  0  0  0  0  0  0
   -4.2647   -0.0325    3.1196 H   0  0  0  0  0  0  0  0  0  0  0  0
   -4.7895    2.9663    2.8255 H   0  0  0  0  0  0  0  0  0  0  0  0
   -5.7114    1.8268    3.7996 H   0  0  0  0  0  0  0  0  0  0  0  0
   -3.7933    1.4095    5.2594 H   0  0  0  0  0  0  0  0  0  0  0  0
   -4.1093    3.1401    5.1719 H   0  0  0  0  0  0  0  0  0  0  0  0
   -2.2739    3.4627    3.5796 H   0  0  0  0  0  0  0  0  0  0  0  0
   -1.6754    2.6133    4.9998 H   0  0  0  0  0  0  0  0  0  0  0  0
   -0.8199    1.6085    2.8891 H   0  0  0  0  0  0  0  0  0  0  0  0
   -1.7418    0.4675    3.8533 H   0  0  0  0  0  0  0  0  0  0  0  0
   -2.7766    3.1243    1.1892 H   0  0  0  0  0  0  0  0  0  0  0  0
   -1.1581   -0.0639   -1.8796 H   0  0  0  0  0  0  0  0  0  0  0  0
   -1.3297   -1.4957   -0.8082 H   0  0  0  0  0  0  0  0  0  0  0  0
    0.9095   -1.1996   -2.3800 H   0  0  0  0  0  0  0  0  0  0  0  0
    3.0261   -1.0673   -0.3202 H   0  0  0  0  0  0  0  0  0  0  0  0
    2.7460    0.7795   -2.7377 H   0  0  0  0  0  0  0  0  0  0  0  0
    2.9812    1.2182   -1.0534 H   0  0  0  0  0  0  0  0  0  0  0  0
    5.2615    0.1677   -1.1065 H   0  0  0  0  0  0  0  0  0  0  0  0
    5.0972    1.4801   -2.2746 H   0  0  0  0  0  0  0  0  0  0  0  0
    6.2028   -0.5695   -3.2177 H   0  0  0  0  0  0  0  0  0  0  0  0
    4.7653   -0.0660   -4.1202 H   0  0  0  0  0  0  0  0  0  0  0  0
    5.8900   -2.7741   -4.3688 H   0  0  0  0  0  0  0  0  0  0  0  0
    4.9407   -5.0381   -4.1321 H   0  0  0  0  0  0  0  0  0  0  0  0
    3.0175   -5.4292   -2.6161 H   0  0  0  0  0  0  0  0  0  0  0  0
    2.0311   -3.5557   -1.3575 H   0  0  0  0  0  0  0  0  0  0  0  0
  1  2  1  0
  2  3  1  0
  3  4  1  0
  4  5  1  0
  5  6  1  0
  6  7  1  0
  7  8  1  0
  8  9  1  0
  9 10  2  0
  9 11  1  0
 11 12  1  0
 12 13  1  0
 13 14  2  0
 13 15  1  0
 15 16  1  0
 16 17  1  0
 17 18  1  0
 18 19  1  0
 19 20  1  0
 20 21  2  0
 21 22  1  0
 22 23  2  0
 23 24  1  0
 24 25  2  0
 11 26  1  0
 26 27  2  0
  7  2  1  0
 25 16  1  0
 26  7  1  0
 25 20  1  0
  1 28  1  0
  1 29  1  0
  1 30  1  0
  2 31  1  0
  3 32  1  0
  3 33  1  0
  4 34  1  0
  4 35  1  0
  5 36  1  0
  5 37  1  0
  6 38  1  0
  6 39  1  0
  8 40  1  0
 12 41  1  0
 12 42  1  0
 15 43  1  0
 16 44  1  0
 17 45  1  0
 17 46  1  0
 18 47  1  0
 18 48  1  0
 19 49  1  0
 19 50  1  0
 21 51  1  0
 22 52  1  0
 23 53  1  0
 24 54  1  0
M  END
$$$$
