
     RDKit          3D

 52 55  0  0  0  0  0  0  0  0999 V2000
    0.2271   -1.2926    2.2257 O   0  0  0  0  0  0  0  0  0  0  0  0
    0.1201   -0.7008    1.1511 C   0  0  0  0  0  0  0  0  0  0  0  0
   -0.5999   -1.2342    0.0971 N   0  0  0  0  0  0  0  0  0  0  0  0
   -1.1178   -2.5825    0.1350 C   0  0  0  0  0  0  0  0  0  0  0  0
   -0.0608   -3.6292   -0.2008 C   0  0  0  0  0  0  0  0  0  0  0  0
   -0.8827   -4.8658   -0.5355 C   0  0  0  0  0  0  0  0  0  0  0  0
   -2.1944   -4.3448   -1.1239 C   0  0  0  0  0  0  0  0  0  0  0  0
   -2.1835   -2.8305   -0.9269 C   0  0  0  0  0  0  0  0  0  0  0  0
    0.7683    0.6955    0.8936 C   0  0  0  0  0  0  0  0  0  0  0  0
    0.5049    1.7748    1.9564 C   0  0  0  0  0  0  0  0  0  0  0  0
   -0.3680    1.6011    3.0371 C   0  0  0  0  0  0  0  0  0  0  0  0
   -0.5253    2.6347    3.9500 C   0  0  0  0  0  0  0  0  0  0  0  0
    0.1167    3.8180    3.8679 N   0  0  0  0  0  0  0  0  0  0  0  0
    0.9592    3.9743    2.8278 C   0  0  0  0  0  0  0  0  0  0  0  0
    1.1884    2.9995    1.8689 C   0  0  0  0  0  0  0  0  0  0  0  0
    0.6008    1.1828   -0.5178 N   0  0  0  0  0  0  0  0  0  0  0  0
    1.6074    0.9404   -1.4987 C   0  0  0  0  0  0  0  0  0  0  0  0
    1.5916    1.4596   -2.6146 O   0  0  0  0  0  0  0  0  0  0  0  0
    2.6940    0.0129   -1.2039 C   0  0  0  0  0  0  0  0  0  0  0  0
    3.9965   -0.0091   -1.6733 C   0  0  0  0  0  0  0  0  0  0  0  0
    4.6116   -1.1641   -1.1339 C   0  0  0  0  0  0  0  0  0  0  0  0
    3.6438   -1.7990   -0.3944 C   0  0  0  0  0  0  0  0  0  0  0  0
    2.4782   -1.1063   -0.4467 O   0  0  0  0  0  0  0  0  0  0  0  0
   -0.5757    1.9822   -0.8338 C   0  0  0  0  0  0  0  0  0  0  0  0
   -1.7924    1.7918   -0.1543 C   0  0  0  0  0  0  0  0  0  0  0  0
   -2.9291    2.5568   -0.4452 C   0  0  0  0  0  0  0  0  0  0  0  0
   -2.8777    3.5393   -1.4243 C   0  0  0  0  0  0  0  0  0  0  0  0
   -1.6885    3.7566   -2.1066 C   0  0  0  0  0  0  0  0  0  0  0  0
   -0.5540    2.9887   -1.8122 C   0  0  0  0  0  0  0  0  0  0  0  0
   -0.4835   -0.7921   -0.8085 H   0  0  0  0  0  0  0  0  0  0  0  0
   -1.5298   -2.7796    1.1328 H   0  0  0  0  0  0  0  0  0  0  0  0
    0.5298   -3.3229   -1.0734 H   0  0  0  0  0  0  0  0  0  0  0  0
    0.6350   -3.8048    0.6257 H   0  0  0  0  0  0  0  0  0  0  0  0
   -1.0909   -5.4361    0.3776 H   0  0  0  0  0  0  0  0  0  0  0  0
   -0.3563   -5.5308   -1.2270 H   0  0  0  0  0  0  0  0  0  0  0  0
   -2.2847   -4.5962   -2.1859 H   0  0  0  0  0  0  0  0  0  0  0  0
   -3.0467   -4.7995   -0.6068 H   0  0  0  0  0  0  0  0  0  0  0  0
   -3.1631   -2.4459   -0.6258 H   0  0  0  0  0  0  0  0  0  0  0  0
   -1.9189   -2.3393   -1.8718 H   0  0  0  0  0  0  0  0  0  0  0  0
    1.8369    0.5067    1.0498 H   0  0  0  0  0  0  0  0  0  0  0  0
   -0.9268    0.6840    3.1927 H   0  0  0  0  0  0  0  0  0  0  0  0
   -1.1940    2.5297    4.7998 H   0  0  0  0  0  0  0  0  0  0  0  0
    1.4650    4.9345    2.7812 H   0  0  0  0  0  0  0  0  0  0  0  0
    1.8839    3.2020    1.0602 H   0  0  0  0  0  0  0  0  0  0  0  0
    4.4371    0.7277   -2.3323 H   0  0  0  0  0  0  0  0  0  0  0  0
    5.6286   -1.5012   -1.2797 H   0  0  0  0  0  0  0  0  0  0  0  0
    3.6221   -2.7086    0.1912 H   0  0  0  0  0  0  0  0  0  0  0  0
   -1.9129    1.0289    0.6072 H   0  0  0  0  0  0  0  0  0  0  0  0
   -3.8542    2.3793    0.0979 H   0  0  0  0  0  0  0  0  0  0  0  0
   -3.7568    4.1366   -1.6501 H   0  0  0  0  0  0  0  0  0  0  0  0
   -1.6308    4.5317   -2.8670 H   0  0  0  0  0  0  0  0  0  0  0  0
    0.3525    3.2461   -2.3516 H   0  0  0  0  0  0  0  0  0  0  0  0
  1  2  2  0
  2  3  1  0
  3  4  1  0
  4  5  1  0
  5  6  1  0
  6  7  1  0
  7  8  1  0
  2  9  1  0
  9 10  1  0
 10 11  2  0
 11 12  1  0
 12 13  2  0
 13 14  1  0
 14 15  2  0
  9 16  1  0
 16 17  1  0
 17 18  2  0
 17 19  1  0
 19 20  2  0
 20 21  1  0
 21 22  2  0
 22 23  1  0
 16 24  1  0
 24 25  2  0
 25 26  1  0
 26 27  2  0
 27 28  1  0
 28 29  2  0
  8  4  1  0
 15 10  1  0
 23 19  1  0
 29 24  1  0
  3 30  1  0
  4 31  1  0
  5 32  1  0
  5 33  1  0
  6 34  1  0
  6 35  1  0
  7 36  1  0
  7 37  1  0
  8 38  1  0
  8 39  1  0
  9 40  1  0
 11 41  1  0
 12 42  1  0
 14 43  1  0
 15 44  1  0
 20 45  1  0
 21 46  1  0
 22 47  1  0
 25 48  1  0
 26 49  1  0
 27 50  1  0
 28 51  1  0
 29 52  1  0
M  END
$$$$
