
     RDKit          3D

 62 64  0  0  0  0  0  0  0  0999 V2000
    8.4474    3.7794    2.2061 C   0  0  0  0  0  0  0  0  0  0  0  0
    7.2072    3.7506    2.9009 O   0  0  0  0  0  0  0  0  0  0  0  0
    6.1008    3.4066    2.1740 C   0  0  0  0  0  0  0  0  0  0  0  0
    4.9022    3.4278    2.8900 C   0  0  0  0  0  0  0  0  0  0  0  0
    3.6943    3.0990    2.2704 C   0  0  0  0  0  0  0  0  0  0  0  0
    3.6694    2.7446    0.9175 C   0  0  0  0  0  0  0  0  0  0  0  0
    2.3714    2.3671    0.2478 C   0  0  0  0  0  0  0  0  0  0  0  0
    2.0812    0.8762    0.3977 C   0  0  0  0  0  0  0  0  0  0  0  0
    0.7831    0.4827   -0.2822 C   0  0  0  0  0  0  0  0  0  0  0  0
    0.0592    1.2985   -0.8423 O   0  0  0  0  0  0  0  0  0  0  0  0
    0.5403   -0.8693   -0.1626 N   0  0  0  0  0  0  0  0  0  0  0  0
   -0.5429   -1.6104   -0.6759 C   0  0  0  0  0  0  0  0  0  0  0  0
   -1.4788   -1.0981   -1.5722 C   0  0  0  0  0  0  0  0  0  0  0  0
   -2.5453   -1.9007   -1.9847 C   0  0  0  0  0  0  0  0  0  0  0  0
   -3.7444   -1.2463   -3.1300 S   0  0  0  0  0  6  0  0  0  0  0  0
   -4.5287   -2.3666   -3.6101 O   0  0  0  0  0  0  0  0  0  0  0  0
   -3.0426   -0.3821   -4.0540 O   0  0  0  0  0  0  0  0  0  0  0  0
   -4.7498   -0.2987   -2.1438 N   0  0  0  0  0  0  0  0  0  0  0  0
   -4.2515    1.0237   -1.6906 C   0  0  0  0  0  0  0  0  0  0  0  0
   -4.2306    1.1136   -0.1702 C   0  0  0  0  0  0  0  0  0  0  0  0
   -5.6206    0.9027    0.4286 C   0  0  0  0  0  0  0  0  0  0  0  0
   -6.4902   -0.0238   -0.4204 C   0  0  0  0  0  0  0  0  0  0  0  0
   -5.6464   -1.0175   -1.2102 C   0  0  0  0  0  0  0  0  0  0  0  0
   -2.6544   -3.2258   -1.5510 C   0  0  0  0  0  0  0  0  0  0  0  0
   -1.7003   -3.7487   -0.6764 C   0  0  0  0  0  0  0  0  0  0  0  0
   -0.6372   -2.9517   -0.2263 C   0  0  0  0  0  0  0  0  0  0  0  0
    0.3655   -3.4349    0.6656 N   0  0  0  0  0  0  0  0  0  0  0  0
    1.2010   -4.4518    0.0127 C   0  0  0  0  0  0  0  0  0  0  0  0
   -0.2057   -3.8729    1.9449 C   0  0  0  0  0  0  0  0  0  0  0  0
    4.8731    2.7176    0.2027 C   0  0  0  0  0  0  0  0  0  0  0  0
    6.0817    3.0484    0.8263 C   0  0  0  0  0  0  0  0  0  0  0  0
    8.4288    4.5121    1.3922 H   0  0  0  0  0  0  0  0  0  0  0  0
    8.7155    2.7839    1.8370 H   0  0  0  0  0  0  0  0  0  0  0  0
    9.2206    4.0905    2.9152 H   0  0  0  0  0  0  0  0  0  0  0  0
    4.9091    3.7062    3.9410 H   0  0  0  0  0  0  0  0  0  0  0  0
    2.7755    3.1257    2.8514 H   0  0  0  0  0  0  0  0  0  0  0  0
    1.5540    2.9616    0.6761 H   0  0  0  0  0  0  0  0  0  0  0  0
    2.4130    2.6441   -0.8136 H   0  0  0  0  0  0  0  0  0  0  0  0
    2.8937    0.2860   -0.0440 H   0  0  0  0  0  0  0  0  0  0  0  0
    2.0086    0.6086    1.4591 H   0  0  0  0  0  0  0  0  0  0  0  0
    1.1373   -1.4306    0.4424 H   0  0  0  0  0  0  0  0  0  0  0  0
   -1.3860   -0.0910   -1.9642 H   0  0  0  0  0  0  0  0  0  0  0  0
   -3.2540    1.2384   -2.0817 H   0  0  0  0  0  0  0  0  0  0  0  0
   -4.9146    1.7922   -2.1056 H   0  0  0  0  0  0  0  0  0  0  0  0
   -3.8359    2.0849    0.1482 H   0  0  0  0  0  0  0  0  0  0  0  0
   -3.5497    0.3528    0.2314 H   0  0  0  0  0  0  0  0  0  0  0  0
   -5.5125    0.4931    1.4402 H   0  0  0  0  0  0  0  0  0  0  0  0
   -6.1320    1.8663    0.5399 H   0  0  0  0  0  0  0  0  0  0  0  0
   -7.0845    0.5809   -1.1176 H   0  0  0  0  0  0  0  0  0  0  0  0
   -7.2027   -0.5531    0.2220 H   0  0  0  0  0  0  0  0  0  0  0  0
   -5.0641   -1.6390   -0.5214 H   0  0  0  0  0  0  0  0  0  0  0  0
   -6.3164   -1.6687   -1.7819 H   0  0  0  0  0  0  0  0  0  0  0  0
   -3.4694   -3.8588   -1.8961 H   0  0  0  0  0  0  0  0  0  0  0  0
   -1.7916   -4.7829   -0.3569 H   0  0  0  0  0  0  0  0  0  0  0  0
    1.6273   -4.0679   -0.9215 H   0  0  0  0  0  0  0  0  0  0  0  0
    0.6432   -5.3708   -0.2008 H   0  0  0  0  0  0  0  0  0  0  0  0
    2.0402   -4.7109    0.6677 H   0  0  0  0  0  0  0  0  0  0  0  0
    0.6037   -4.0877    2.6512 H   0  0  0  0  0  0  0  0  0  0  0  0
   -0.8206   -3.0819    2.3896 H   0  0  0  0  0  0  0  0  0  0  0  0
   -0.8107   -4.7806    1.8417 H   0  0  0  0  0  0  0  0  0  0  0  0
    4.8791    2.4412   -0.8497 H   0  0  0  0  0  0  0  0  0  0  0  0
    6.9869    3.0161    0.2298 H   0  0  0  0  0  0  0  0  0  0  0  0
  1  2  1  0
  2  3  1  0
  3  4  2  0
  4  5  1  0
  5  6  2  0
  6  7  1  0
  7  8  1  0
  8  9  1  0
  9 10  2  0
  9 11  1  0
 11 12  1  0
 12 13  2  0
 13 14  1  0
 14 15  1  0
 15 16  2  0
 15 17  2  0
 15 18  1  0
 18 19  1  0
 19 20  1  0
 20 21  1  0
 21 22  1  0
 22 23  1  0
 14 24  2  0
 24 25  1  0
 25 26  2  0
 26 27  1  0
 27 28  1  0
 27 29  1  0
  6 30  1  0
 30 31  2  0
 31  3  1  0
 26 12  1  0
 23 18  1  0
  1 32  1  0
  1 33  1  0
  1 34  1  0
  4 35  1  0
  5 36  1  0
  7 37  1  0
  7 38  1  0
  8 39  1  0
  8 40  1  0
 11 41  1  0
 13 42  1  0
 19 43  1  0
 19 44  1  0
 20 45  1  0
 20 46  1  0
 21 47  1  0
 21 48  1  0
 22 49  1  0
 22 50  1  0
 23 51  1  0
 23 52  1  0
 24 53  1  0
 25 54  1  0
 28 55  1  0
 28 56  1  0
 28 57  1  0
 29 58  1  0
 29 59  1  0
 29 60  1  0
 30 61  1  0
 31 62  1  0
M  END
$$$$
