
     RDKit          3D

 37 39  0  0  0  0  0  0  0  0999 V2000
    4.7509    1.9095   -0.4269 N   0  0  0  0  0  0  0  0  0  0  0  0
    4.3135    1.0406    0.5299 C   0  0  0  0  0  0  0  0  0  0  0  0
    4.2518    1.3938    1.7012 O   0  0  0  0  0  0  0  0  0  0  0  0
    3.9502   -0.3517    0.0272 C   0  0  0  0  0  0  0  0  0  0  0  0
    3.5550   -1.2851    1.1752 C   0  0  0  0  0  0  0  0  0  0  0  0
    2.1754   -0.9625    1.7537 C   0  0  0  0  0  0  0  0  0  0  0  0
    1.1693   -0.9122    0.6834 N   0  0  0  0  0  0  0  0  0  0  0  0
   -0.1599   -0.9841    1.0291 C   0  0  0  0  0  0  0  0  0  0  0  0
   -1.1134   -0.3473    0.3790 N   0  0  0  0  0  0  0  0  0  0  0  0
   -2.3716   -0.6115    0.9037 C   0  0  0  0  0  0  0  0  0  0  0  0
   -3.5609    0.0161    0.3330 C   0  0  0  0  0  0  0  0  0  0  0  0
   -3.4074    1.1532   -0.4789 C   0  0  0  0  0  0  0  0  0  0  0  0
   -4.5157    1.7904   -1.0471 C   0  0  0  0  0  0  0  0  0  0  0  0
   -5.7979    1.2983   -0.8162 C   0  0  0  0  0  0  0  0  0  0  0  0
   -5.9689    0.1684   -0.0202 C   0  0  0  0  0  0  0  0  0  0  0  0
   -4.8593   -0.4634    0.5448 C   0  0  0  0  0  0  0  0  0  0  0  0
   -5.0855   -1.5575    1.2882 F   0  0  0  0  0  0  0  0  0  0  0  0
   -2.3622   -1.4662    1.9840 C   0  0  0  0  0  0  0  0  0  0  0  0
   -0.7641   -1.9658    2.3259 S   0  0  0  0  0  0  0  0  0  0  0  0
    1.4826    0.0310   -0.3986 C   0  0  0  0  0  0  0  0  0  0  0  0
    2.8352   -0.3112   -1.0203 C   0  0  0  0  0  0  0  0  0  0  0  0
    5.0922    2.8031   -0.0941 H   0  0  0  0  0  0  0  0  0  0  0  0
    5.0903    1.5857   -1.3222 H   0  0  0  0  0  0  0  0  0  0  0  0
    4.8599   -0.7532   -0.4390 H   0  0  0  0  0  0  0  0  0  0  0  0
    3.5445   -2.3163    0.7976 H   0  0  0  0  0  0  0  0  0  0  0  0
    4.3027   -1.2521    1.9767 H   0  0  0  0  0  0  0  0  0  0  0  0
    2.1873   -0.0096    2.2956 H   0  0  0  0  0  0  0  0  0  0  0  0
    1.9542   -1.7457    2.4868 H   0  0  0  0  0  0  0  0  0  0  0  0
   -2.4131    1.5534   -0.6726 H   0  0  0  0  0  0  0  0  0  0  0  0
   -4.3724    2.6699   -1.6703 H   0  0  0  0  0  0  0  0  0  0  0  0
   -6.6601    1.7911   -1.2581 H   0  0  0  0  0  0  0  0  0  0  0  0
   -6.9610   -0.2322    0.1642 H   0  0  0  0  0  0  0  0  0  0  0  0
   -3.1849   -1.8233    2.5852 H   0  0  0  0  0  0  0  0  0  0  0  0
    0.7365   -0.0240   -1.2016 H   0  0  0  0  0  0  0  0  0  0  0  0
    1.4803    1.0597   -0.0163 H   0  0  0  0  0  0  0  0  0  0  0  0
    2.7671   -1.2970   -1.4993 H   0  0  0  0  0  0  0  0  0  0  0  0
    3.0593    0.4075   -1.8164 H   0  0  0  0  0  0  0  0  0  0  0  0
  1  2  1  0
  2  3  2  0
  2  4  1  0
  4  5  1  0
  5  6  1  0
  6  7  1  0
  7  8  1  0
  8  9  2  0
  9 10  1  0
 10 11  1  0
 11 12  2  0
 12 13  1  0
 13 14  2  0
 14 15  1  0
 15 16  2  0
 16 17  1  0
 10 18  2  0
 18 19  1  0
  7 20  1  0
 20 21  1  0
 21  4  1  0
 19  8  1  0
 16 11  1  0
  1 22  1  0
  1 23  1  0
  4 24  1  0
  5 25  1  0
  5 26  1  0
  6 27  1  0
  6 28  1  0
 12 29  1  0
 13 30  1  0
 14 31  1  0
 15 32  1  0
 18 33  1  0
 20 34  1  0
 20 35  1  0
 21 36  1  0
 21 37  1  0
M  END
$$$$
