
     RDKit          3D

 43 44  0  0  0  0  0  0  0  0999 V2000
   -6.9466    0.6713   -0.3394 C   0  0  0  0  0  0  0  0  0  0  0  0
   -5.8551    0.8098   -1.3912 C   0  0  0  0  0  0  0  0  0  0  0  0
   -4.5712    1.4329   -0.8428 C   0  0  0  0  0  0  0  0  0  0  0  0
   -3.8662    0.5355    0.1016 C   0  0  0  0  0  0  0  0  0  0  0  0
   -3.2295   -0.5926   -0.1288 N   0  0  0  0  0  0  0  0  0  0  0  0
   -2.7691   -1.0272    1.0931 N   0  0  0  0  0  0  0  0  0  0  0  0
   -3.1321   -0.1234    1.9829 C   0  0  0  0  0  0  0  0  0  0  0  0
   -2.7350   -0.1935    3.6700 S   0  0  0  0  0  0  0  0  0  0  0  0
   -1.4954   -1.5189    3.6753 C   0  0  0  0  0  0  0  0  0  0  0  0
   -0.1601   -1.0161    3.1455 C   0  0  0  0  0  0  0  0  0  0  0  0
    0.6871   -0.5689    3.9149 O   0  0  0  0  0  0  0  0  0  0  0  0
   -0.0367   -1.1264    1.7705 N   0  0  0  0  0  0  0  0  0  0  0  0
    1.0654   -0.7630    0.9709 C   0  0  0  0  0  0  0  0  0  0  0  0
    0.8988   -0.8504   -0.4173 C   0  0  0  0  0  0  0  0  0  0  0  0
    1.9405   -0.5048   -1.2850 C   0  0  0  0  0  0  0  0  0  0  0  0
    3.1689   -0.0706   -0.7752 C   0  0  0  0  0  0  0  0  0  0  0  0
    4.2416    0.2990   -1.7377 C   0  0  0  0  0  0  0  0  0  0  0  0
    4.0687    0.3628   -2.9444 O   0  0  0  0  0  0  0  0  0  0  0  0
    5.4054    0.5371   -1.0841 O   0  0  0  0  0  0  0  0  0  0  0  0
    6.5172    0.9166   -1.9074 C   0  0  0  0  0  0  0  0  0  0  0  0
    7.2266   -0.3151   -2.4389 C   0  0  0  0  0  0  0  0  0  0  0  0
    3.3396    0.0117    0.6113 C   0  0  0  0  0  0  0  0  0  0  0  0
    2.2921   -0.3325    1.4771 C   0  0  0  0  0  0  0  0  0  0  0  0
   -3.8476    0.8989    1.4202 O   0  0  0  0  0  0  0  0  0  0  0  0
   -7.1896    1.6423    0.1035 H   0  0  0  0  0  0  0  0  0  0  0  0
   -7.8572    0.2686   -0.7948 H   0  0  0  0  0  0  0  0  0  0  0  0
   -6.6460   -0.0083    0.4636 H   0  0  0  0  0  0  0  0  0  0  0  0
   -6.2335    1.4450   -2.2005 H   0  0  0  0  0  0  0  0  0  0  0  0
   -5.6473   -0.1741   -1.8288 H   0  0  0  0  0  0  0  0  0  0  0  0
   -4.7957    2.3929   -0.3622 H   0  0  0  0  0  0  0  0  0  0  0  0
   -3.8967    1.6490   -1.6796 H   0  0  0  0  0  0  0  0  0  0  0  0
   -1.8349   -2.3955    3.1144 H   0  0  0  0  0  0  0  0  0  0  0  0
   -1.3442   -1.8473    4.7090 H   0  0  0  0  0  0  0  0  0  0  0  0
   -0.8689   -1.4190    1.2597 H   0  0  0  0  0  0  0  0  0  0  0  0
   -0.0461   -1.1803   -0.8444 H   0  0  0  0  0  0  0  0  0  0  0  0
    1.7858   -0.5738   -2.3603 H   0  0  0  0  0  0  0  0  0  0  0  0
    6.2006    1.5799   -2.7203 H   0  0  0  0  0  0  0  0  0  0  0  0
    7.2020    1.4893   -1.2734 H   0  0  0  0  0  0  0  0  0  0  0  0
    7.5377   -0.9658   -1.6148 H   0  0  0  0  0  0  0  0  0  0  0  0
    6.5644   -0.9060   -3.0798 H   0  0  0  0  0  0  0  0  0  0  0  0
    8.1102   -0.0320   -3.0181 H   0  0  0  0  0  0  0  0  0  0  0  0
    4.2799    0.3483    1.0408 H   0  0  0  0  0  0  0  0  0  0  0  0
    2.4722   -0.2531    2.5450 H   0  0  0  0  0  0  0  0  0  0  0  0
  1  2  1  0
  2  3  1  0
  3  4  1  0
  4  5  2  0
  5  6  1  0
  6  7  2  0
  7  8  1  0
  8  9  1  0
  9 10  1  0
 10 11  2  0
 10 12  1  0
 12 13  1  0
 13 14  2  0
 14 15  1  0
 15 16  2  0
 16 17  1  0
 17 18  2  0
 17 19  1  0
 19 20  1  0
 20 21  1  0
 16 22  1  0
 22 23  2  0
  7 24  1  0
 24  4  1  0
 23 13  1  0
  1 25  1  0
  1 26  1  0
  1 27  1  0
  2 28  1  0
  2 29  1  0
  3 30  1  0
  3 31  1  0
  9 32  1  0
  9 33  1  0
 12 34  1  0
 14 35  1  0
 15 36  1  0
 20 37  1  0
 20 38  1  0
 21 39  1  0
 21 40  1  0
 21 41  1  0
 22 42  1  0
 23 43  1  0
M  END
$$$$
