
     RDKit          3D

 55 58  0  0  0  0  0  0  0  0999 V2000
    0.9538   -3.8413   -4.0076 C   0  0  0  0  0  0  0  0  0  0  0  0
    1.5697   -3.2622   -2.8654 O   0  0  0  0  0  0  0  0  0  0  0  0
    0.9387   -2.1991   -2.2738 C   0  0  0  0  0  0  0  0  0  0  0  0
   -0.2967   -1.6891   -2.6788 C   0  0  0  0  0  0  0  0  0  0  0  0
   -0.8432   -0.5760   -2.0400 C   0  0  0  0  0  0  0  0  0  0  0  0
   -0.1616    0.0393   -0.9911 C   0  0  0  0  0  0  0  0  0  0  0  0
    1.0742   -0.4576   -0.5443 C   0  0  0  0  0  0  0  0  0  0  0  0
    1.8285    0.2092    0.5924 C   0  0  0  0  0  0  0  0  0  0  0  0
    2.2327    1.6493    0.2261 C   0  0  0  0  0  0  0  0  0  0  0  0
    1.2217    2.4759    0.9954 C   0  0  0  0  0  0  0  0  0  0  0  0
    1.0319    3.9212    0.7326 C   0  0  0  0  0  0  0  0  0  0  0  0
    1.8393    4.6118   -0.1780 C   0  0  0  0  0  0  0  0  0  0  0  0
    1.6297    5.9748   -0.4049 C   0  0  0  0  0  0  0  0  0  0  0  0
    0.6187    6.6516    0.2760 C   0  0  0  0  0  0  0  0  0  0  0  0
   -0.1845    5.9697    1.1879 C   0  0  0  0  0  0  0  0  0  0  0  0
    0.0210    4.6079    1.4173 C   0  0  0  0  0  0  0  0  0  0  0  0
    0.5564    1.8256    1.9036 N   0  0  0  0  0  0  0  0  0  0  0  0
    1.0654    0.4358    1.8304 N   0  0  0  0  0  0  0  0  0  0  0  0
    0.4566   -0.8294    2.7654 S   0  0  0  0  0  6  0  0  0  0  0  0
    0.1355   -0.3357    4.0907 O   0  0  0  0  0  0  0  0  0  0  0  0
    1.3343   -1.9743    2.6040 O   0  0  0  0  0  0  0  0  0  0  0  0
   -1.0947   -1.2195    1.9897 C   0  0  0  0  0  0  0  0  0  0  0  0
   -2.1487   -0.3066    2.0868 C   0  0  0  0  0  0  0  0  0  0  0  0
   -3.3767   -0.6063    1.4958 C   0  0  0  0  0  0  0  0  0  0  0  0
   -3.5573   -1.8148    0.8091 C   0  0  0  0  0  0  0  0  0  0  0  0
   -4.8885   -2.1496    0.2031 C   0  0  0  0  0  0  0  0  0  0  0  0
   -2.5019   -2.7359    0.7494 C   0  0  0  0  0  0  0  0  0  0  0  0
   -1.2711   -2.4426    1.3392 C   0  0  0  0  0  0  0  0  0  0  0  0
    1.6074   -1.5882   -1.1934 C   0  0  0  0  0  0  0  0  0  0  0  0
    2.8478   -2.0203   -0.7841 O   0  0  0  0  0  0  0  0  0  0  0  0
    2.7992   -3.3338   -0.2225 C   0  0  0  0  0  0  0  0  0  0  0  0
    1.6048   -4.6440   -4.3671 H   0  0  0  0  0  0  0  0  0  0  0  0
    0.8503   -3.1101   -4.8161 H   0  0  0  0  0  0  0  0  0  0  0  0
   -0.0120   -4.2880   -3.7498 H   0  0  0  0  0  0  0  0  0  0  0  0
   -0.8609   -2.1306   -3.4931 H   0  0  0  0  0  0  0  0  0  0  0  0
   -1.8080   -0.1874   -2.3572 H   0  0  0  0  0  0  0  0  0  0  0  0
   -0.6209    0.9012   -0.5113 H   0  0  0  0  0  0  0  0  0  0  0  0
    2.7403   -0.3411    0.8464 H   0  0  0  0  0  0  0  0  0  0  0  0
    3.2274    1.8833    0.6232 H   0  0  0  0  0  0  0  0  0  0  0  0
    2.2123    1.8497   -0.8483 H   0  0  0  0  0  0  0  0  0  0  0  0
    2.6414    4.1179   -0.7180 H   0  0  0  0  0  0  0  0  0  0  0  0
    2.2587    6.5112   -1.1117 H   0  0  0  0  0  0  0  0  0  0  0  0
    0.4596    7.7128    0.0995 H   0  0  0  0  0  0  0  0  0  0  0  0
   -0.9694    6.4976    1.7242 H   0  0  0  0  0  0  0  0  0  0  0  0
   -0.6112    4.0910    2.1366 H   0  0  0  0  0  0  0  0  0  0  0  0
   -2.0151    0.6318    2.6213 H   0  0  0  0  0  0  0  0  0  0  0  0
   -4.1940    0.1070    1.5788 H   0  0  0  0  0  0  0  0  0  0  0  0
   -5.5141   -2.6674    0.9366 H   0  0  0  0  0  0  0  0  0  0  0  0
   -4.7668   -2.7916   -0.6757 H   0  0  0  0  0  0  0  0  0  0  0  0
   -5.4060   -1.2429   -0.1272 H   0  0  0  0  0  0  0  0  0  0  0  0
   -2.6330   -3.6896    0.2426 H   0  0  0  0  0  0  0  0  0  0  0  0
   -0.4626   -3.1667    1.2832 H   0  0  0  0  0  0  0  0  0  0  0  0
    3.5286   -3.3741    0.5922 H   0  0  0  0  0  0  0  0  0  0  0  0
    1.8169   -3.5893    0.1906 H   0  0  0  0  0  0  0  0  0  0  0  0
    3.0962   -4.0706   -0.9743 H   0  0  0  0  0  0  0  0  0  0  0  0
  1  2  1  0
  2  3  1  0
  3  4  2  0
  4  5  1  0
  5  6  2  0
  6  7  1  0
  7  8  1  0
  8  9  1  0
  9 10  1  0
 10 11  1  0
 11 12  2  0
 12 13  1  0
 13 14  2  0
 14 15  1  0
 15 16  2  0
 10 17  2  0
 17 18  1  0
 18 19  1  0
 19 20  2  0
 19 21  2  0
 19 22  1  0
 22 23  2  0
 23 24  1  0
 24 25  2  0
 25 26  1  0
 25 27  1  0
 27 28  2  0
  7 29  2  0
 29 30  1  0
 30 31  1  0
 29  3  1  0
 18  8  1  0
 28 22  1  0
 16 11  1  0
  1 32  1  0
  1 33  1  0
  1 34  1  0
  4 35  1  0
  5 36  1  0
  6 37  1  0
  8 38  1  0
  9 39  1  0
  9 40  1  0
 12 41  1  0
 13 42  1  0
 14 43  1  0
 15 44  1  0
 16 45  1  0
 23 46  1  0
 24 47  1  0
 26 48  1  0
 26 49  1  0
 26 50  1  0
 27 51  1  0
 28 52  1  0
 31 53  1  0
 31 54  1  0
 31 55  1  0
M  END
$$$$
