
     RDKit          3D

 38 39  0  0  0  0  0  0  0  0999 V2000
   -1.2198    1.3319   -1.7435 O   0  0  0  0  0  0  0  0  0  0  0  0
   -0.2345    1.1124   -1.0571 C   0  0  0  0  0  0  0  0  0  0  0  0
    1.0727    1.3213   -1.4292 N   0  0  0  0  0  0  0  0  0  0  0  0
    1.4337    1.6018   -2.8037 C   0  0  0  0  0  0  0  0  0  0  0  0
    1.6253    0.3129   -3.6041 C   0  0  0  0  0  0  0  0  0  0  0  0
    2.7358   -0.4250   -3.0928 O   0  0  0  0  0  0  0  0  0  0  0  0
   -0.3935    0.5473    0.3524 C   0  0  0  0  0  0  0  0  0  0  0  0
   -1.5147   -0.4588    0.5218 C   0  0  0  0  0  0  0  0  0  0  0  0
   -1.2659   -1.7325   -0.2527 C   0  0  0  0  0  0  0  0  0  0  0  0
   -1.8433   -1.9191   -1.5178 C   0  0  0  0  0  0  0  0  0  0  0  0
   -1.5923   -3.0820   -2.2489 C   0  0  0  0  0  0  0  0  0  0  0  0
   -0.7610   -4.0652   -1.7185 C   0  0  0  0  0  0  0  0  0  0  0  0
   -0.4197   -5.6394   -2.7076 Br  0  0  0  0  0  0  0  0  0  0  0  0
   -0.1790   -3.8954   -0.4648 C   0  0  0  0  0  0  0  0  0  0  0  0
   -0.4301   -2.7314    0.2653 C   0  0  0  0  0  0  0  0  0  0  0  0
    0.4322    1.0015    1.2520 N   0  0  0  0  0  0  0  0  0  0  0  0
    0.3375    0.5143    2.5294 C   0  0  0  0  0  0  0  0  0  0  0  0
    0.4487   -0.6734    2.8058 O   0  0  0  0  0  0  0  0  0  0  0  0
    0.1215    1.5880    3.4893 C   0  0  0  0  0  0  0  0  0  0  0  0
    0.0376    2.9558    3.2850 C   0  0  0  0  0  0  0  0  0  0  0  0
   -0.1911    3.6794    4.4917 C   0  0  0  0  0  0  0  0  0  0  0  0
   -0.2749    2.8449    5.5824 C   0  0  0  0  0  0  0  0  0  0  0  0
   -0.0787    1.2030    5.1505 S   0  0  0  0  0  0  0  0  0  0  0  0
    1.7883    0.9648   -0.8034 H   0  0  0  0  0  0  0  0  0  0  0  0
    2.3673    2.1722   -2.7698 H   0  0  0  0  0  0  0  0  0  0  0  0
    0.6546    2.2174   -3.2644 H   0  0  0  0  0  0  0  0  0  0  0  0
    1.8180    0.5362   -4.6580 H   0  0  0  0  0  0  0  0  0  0  0  0
    0.7397   -0.3273   -3.5422 H   0  0  0  0  0  0  0  0  0  0  0  0
    3.5428    0.0752   -3.3025 H   0  0  0  0  0  0  0  0  0  0  0  0
   -1.6930   -0.7001    1.5734 H   0  0  0  0  0  0  0  0  0  0  0  0
   -2.4458    0.0104    0.1799 H   0  0  0  0  0  0  0  0  0  0  0  0
   -2.4878   -1.1543   -1.9490 H   0  0  0  0  0  0  0  0  0  0  0  0
   -2.0462   -3.2076   -3.2281 H   0  0  0  0  0  0  0  0  0  0  0  0
    0.4711   -4.6590   -0.0463 H   0  0  0  0  0  0  0  0  0  0  0  0
    0.0336   -2.6154    1.2435 H   0  0  0  0  0  0  0  0  0  0  0  0
    0.1391    3.4202    2.3106 H   0  0  0  0  0  0  0  0  0  0  0  0
   -0.2871    4.7567    4.5556 H   0  0  0  0  0  0  0  0  0  0  0  0
   -0.4410    3.1185    6.6157 H   0  0  0  0  0  0  0  0  0  0  0  0
  1  2  2  0
  2  3  1  0
  3  4  1  0
  4  5  1  0
  5  6  1  0
  2  7  1  0
  7  8  1  0
  8  9  1  0
  9 10  2  0
 10 11  1  0
 11 12  2  0
 12 13  1  0
 12 14  1  0
 14 15  2  0
  7 16  2  3
 16 17  1  0
 17 18  2  0
 17 19  1  0
 19 20  2  0
 20 21  1  0
 21 22  2  0
 22 23  1  0
 15  9  1  0
 23 19  1  0
  3 24  1  0
  4 25  1  0
  4 26  1  0
  5 27  1  0
  5 28  1  0
  6 29  1  0
  8 30  1  0
  8 31  1  0
 10 32  1  0
 11 33  1  0
 14 34  1  0
 15 35  1  0
 20 36  1  0
 21 37  1  0
 22 38  1  0
M  END
$$$$
