
     RDKit          3D

 48 50  0  0  0  0  0  0  0  0999 V2000
   -3.3994    3.5107    3.7224 C   0  0  0  0  0  0  0  0  0  0  0  0
   -4.3312    3.2775    2.5494 C   0  0  0  0  0  0  0  0  0  0  0  0
   -3.8441    2.1937    1.7442 O   0  0  0  0  0  0  0  0  0  0  0  0
   -4.2562    0.9570    2.1049 C   0  0  0  0  0  0  0  0  0  0  0  0
   -5.0277    0.6754    3.0061 O   0  0  0  0  0  0  0  0  0  0  0  0
   -3.7164   -0.0459    1.1876 C   0  0  0  0  0  0  0  0  0  0  0  0
   -4.5088   -1.1052    0.8108 C   0  0  0  0  0  0  0  0  0  0  0  0
   -4.1051   -2.0771   -0.0368 N   0  0  0  0  0  0  0  0  0  0  0  0
   -2.8476   -1.9833   -0.5020 C   0  0  0  0  0  0  0  0  0  0  0  0
   -2.2313   -3.2442   -1.5874 S   0  0  0  0  0  0  0  0  0  0  0  0
   -3.7919   -3.9083   -2.2154 C   0  0  0  0  0  0  0  0  0  0  0  0
   -1.9868   -1.0094   -0.1719 N   0  0  0  0  0  0  0  0  0  0  0  0
   -2.4426   -0.0468    0.6635 C   0  0  0  0  0  0  0  0  0  0  0  0
   -1.5532    0.9284    1.1020 O   0  0  0  0  0  0  0  0  0  0  0  0
   -0.5551    1.2782    0.2264 C   0  0  0  0  0  0  0  0  0  0  0  0
   -0.6911    2.4590   -0.4980 C   0  0  0  0  0  0  0  0  0  0  0  0
    0.3356    2.8576   -1.3502 C   0  0  0  0  0  0  0  0  0  0  0  0
    1.4968    2.0838   -1.4645 C   0  0  0  0  0  0  0  0  0  0  0  0
    1.6452    0.9096   -0.7219 C   0  0  0  0  0  0  0  0  0  0  0  0
    2.7765    0.0696   -0.7920 N   0  0  0  0  0  0  0  0  0  0  0  0
    3.9481    0.2956   -1.4906 C   0  0  0  0  0  0  0  0  0  0  0  0
    4.2587    1.3083   -2.1047 O   0  0  0  0  0  0  0  0  0  0  0  0
    4.9331   -0.8217   -1.4333 C   0  0  0  0  0  0  0  0  0  0  0  0
    4.5264   -2.1634   -1.4547 C   0  0  0  0  0  0  0  0  0  0  0  0
    5.4819   -3.1824   -1.4074 C   0  0  0  0  0  0  0  0  0  0  0  0
    6.8383   -2.8615   -1.3469 C   0  0  0  0  0  0  0  0  0  0  0  0
    8.0096   -4.1192   -1.2875 Cl  0  0  0  0  0  0  0  0  0  0  0  0
    7.2506   -1.5300   -1.3419 C   0  0  0  0  0  0  0  0  0  0  0  0
    6.2980   -0.5096   -1.3928 C   0  0  0  0  0  0  0  0  0  0  0  0
    0.6116    0.5159    0.1356 C   0  0  0  0  0  0  0  0  0  0  0  0
   -3.3512    2.6287    4.3675 H   0  0  0  0  0  0  0  0  0  0  0  0
   -2.3806    3.7037    3.3707 H   0  0  0  0  0  0  0  0  0  0  0  0
   -3.7358    4.3634    4.3192 H   0  0  0  0  0  0  0  0  0  0  0  0
   -5.3599    3.0979    2.8839 H   0  0  0  0  0  0  0  0  0  0  0  0
   -4.3515    4.1669    1.9112 H   0  0  0  0  0  0  0  0  0  0  0  0
   -5.5254   -1.2127    1.1825 H   0  0  0  0  0  0  0  0  0  0  0  0
   -3.5775   -4.6675   -2.9726 H   0  0  0  0  0  0  0  0  0  0  0  0
   -4.3665   -4.3808   -1.4142 H   0  0  0  0  0  0  0  0  0  0  0  0
   -4.3900   -3.1192   -2.6802 H   0  0  0  0  0  0  0  0  0  0  0  0
   -1.5872    3.0646   -0.4013 H   0  0  0  0  0  0  0  0  0  0  0  0
    0.2400    3.7718   -1.9304 H   0  0  0  0  0  0  0  0  0  0  0  0
    2.2681    2.4242   -2.1488 H   0  0  0  0  0  0  0  0  0  0  0  0
    2.7335   -0.7635   -0.2198 H   0  0  0  0  0  0  0  0  0  0  0  0
    3.4766   -2.4313   -1.5398 H   0  0  0  0  0  0  0  0  0  0  0  0
    5.1649   -4.2219   -1.4289 H   0  0  0  0  0  0  0  0  0  0  0  0
    8.3071   -1.2782   -1.3027 H   0  0  0  0  0  0  0  0  0  0  0  0
    6.6208    0.5300   -1.3987 H   0  0  0  0  0  0  0  0  0  0  0  0
    0.6927   -0.3887    0.7308 H   0  0  0  0  0  0  0  0  0  0  0  0
  1  2  1  0
  2  3  1  0
  3  4  1  0
  4  5  2  0
  4  6  1  0
  6  7  2  0
  7  8  1  0
  8  9  2  0
  9 10  1  0
 10 11  1  0
  9 12  1  0
 12 13  2  0
 13 14  1  0
 14 15  1  0
 15 16  2  0
 16 17  1  0
 17 18  2  0
 18 19  1  0
 19 20  1  0
 20 21  1  0
 21 22  2  0
 21 23  1  0
 23 24  2  0
 24 25  1  0
 25 26  2  0
 26 27  1  0
 26 28  1  0
 28 29  2  0
 19 30  2  0
 13  6  1  0
 30 15  1  0
 29 23  1  0
  1 31  1  0
  1 32  1  0
  1 33  1  0
  2 34  1  0
  2 35  1  0
  7 36  1  0
 11 37  1  0
 11 38  1  0
 11 39  1  0
 16 40  1  0
 17 41  1  0
 18 42  1  0
 20 43  1  0
 24 44  1  0
 25 45  1  0
 28 46  1  0
 29 47  1  0
 30 48  1  0
M  END
$$$$
