
     RDKit          3D

 48 50  0  0  0  0  0  0  0  0999 V2000
    4.5579   -3.0216   -2.4830 C   0  0  0  0  0  0  0  0  0  0  0  0
    3.8549   -2.1499   -1.4841 C   0  0  0  0  0  0  0  0  0  0  0  0
    4.4137   -1.9236   -0.2239 C   0  0  0  0  0  0  0  0  0  0  0  0
    3.8037   -1.0836    0.7307 C   0  0  0  0  0  0  0  0  0  0  0  0
    4.4518   -0.9195    2.0767 C   0  0  0  0  0  0  0  0  0  0  0  0
    2.5815   -0.4799    0.3592 C   0  0  0  0  0  0  0  0  0  0  0  0
    1.5399    0.5546    1.2657 S   0  0  0  0  0  0  0  0  0  0  0  0
    0.4925    0.7165   -0.0759 C   0  0  0  0  0  0  0  0  0  0  0  0
   -0.6954    1.4460    0.0071 N   0  0  0  0  0  0  0  0  0  0  0  0
   -1.8227    1.0509   -0.8410 C   0  0  0  0  0  0  0  0  0  0  0  0
   -2.5494   -0.1907   -0.3135 C   0  0  0  0  0  0  0  0  0  0  0  0
   -3.7606   -0.5214   -1.1932 C   0  0  0  0  0  0  0  0  0  0  0  0
   -4.4267   -1.7793   -0.8129 N   0  0  0  0  0  0  0  0  0  0  0  0
   -5.4139   -2.1502   -1.8308 C   0  0  0  0  0  0  0  0  0  0  0  0
   -5.0815   -1.6836    0.4941 C   0  0  0  0  0  0  0  0  0  0  0  0
   -0.9592    2.3816    1.0177 C   0  0  0  0  0  0  0  0  0  0  0  0
   -2.0879    2.4624    1.5108 O   0  0  0  0  0  0  0  0  0  0  0  0
    0.0722    3.3433    1.4026 C   0  0  0  0  0  0  0  0  0  0  0  0
    0.2697    3.8935    2.6585 C   0  0  0  0  0  0  0  0  0  0  0  0
    1.3365    4.8406    2.6788 C   0  0  0  0  0  0  0  0  0  0  0  0
    1.8749    5.0031    1.4284 C   0  0  0  0  0  0  0  0  0  0  0  0
    3.3210    6.1933    1.0499 Br  0  0  0  0  0  0  0  0  0  0  0  0
    1.1181    4.0613    0.2426 S   0  0  0  0  0  0  0  0  0  0  0  0
    0.8145   -0.0071   -1.1223 N   0  0  0  0  0  0  0  0  0  0  0  0
    2.0078   -0.6730   -0.8992 C   0  0  0  0  0  0  0  0  0  0  0  0
    2.6575   -1.5107   -1.8274 C   0  0  0  0  0  0  0  0  0  0  0  0
    5.1079   -3.8247   -1.9813 H   0  0  0  0  0  0  0  0  0  0  0  0
    3.8411   -3.4949   -3.1623 H   0  0  0  0  0  0  0  0  0  0  0  0
    5.2611   -2.4240   -3.0713 H   0  0  0  0  0  0  0  0  0  0  0  0
    5.3536   -2.4134    0.0328 H   0  0  0  0  0  0  0  0  0  0  0  0
    4.1056   -0.0177    2.5893 H   0  0  0  0  0  0  0  0  0  0  0  0
    4.2261   -1.7868    2.7050 H   0  0  0  0  0  0  0  0  0  0  0  0
    5.5384   -0.8329    1.9705 H   0  0  0  0  0  0  0  0  0  0  0  0
   -1.4571    0.8836   -1.8615 H   0  0  0  0  0  0  0  0  0  0  0  0
   -2.5264    1.8911   -0.8993 H   0  0  0  0  0  0  0  0  0  0  0  0
   -2.8615   -0.0117    0.7210 H   0  0  0  0  0  0  0  0  0  0  0  0
   -1.8604   -1.0442   -0.2942 H   0  0  0  0  0  0  0  0  0  0  0  0
   -3.4000   -0.6137   -2.2263 H   0  0  0  0  0  0  0  0  0  0  0  0
   -4.4728    0.3143   -1.1792 H   0  0  0  0  0  0  0  0  0  0  0  0
   -5.8829   -3.1089   -1.5823 H   0  0  0  0  0  0  0  0  0  0  0  0
   -4.9317   -2.2845   -2.8055 H   0  0  0  0  0  0  0  0  0  0  0  0
   -6.2025   -1.3962   -1.9358 H   0  0  0  0  0  0  0  0  0  0  0  0
   -5.8116   -0.8672    0.5318 H   0  0  0  0  0  0  0  0  0  0  0  0
   -4.3510   -1.5365    1.2954 H   0  0  0  0  0  0  0  0  0  0  0  0
   -5.6020   -2.6186    0.7321 H   0  0  0  0  0  0  0  0  0  0  0  0
   -0.3231    3.6155    3.5231 H   0  0  0  0  0  0  0  0  0  0  0  0
    1.6706    5.3725    3.5612 H   0  0  0  0  0  0  0  0  0  0  0  0
    2.2078   -1.6539   -2.8057 H   0  0  0  0  0  0  0  0  0  0  0  0
  1  2  1  0
  2  3  2  0
  3  4  1  0
  4  5  1  0
  4  6  2  0
  6  7  1  0
  7  8  1  0
  8  9  1  0
  9 10  1  0
 10 11  1  0
 11 12  1  0
 12 13  1  0
 13 14  1  0
 13 15  1  0
  9 16  1  0
 16 17  2  0
 16 18  1  0
 18 19  2  0
 19 20  1  0
 20 21  2  0
 21 22  1  0
 21 23  1  0
  8 24  2  0
 24 25  1  0
 25 26  2  0
 26  2  1  0
 25  6  1  0
 23 18  1  0
  1 27  1  0
  1 28  1  0
  1 29  1  0
  3 30  1  0
  5 31  1  0
  5 32  1  0
  5 33  1  0
 10 34  1  0
 10 35  1  0
 11 36  1  0
 11 37  1  0
 12 38  1  0
 12 39  1  0
 14 40  1  0
 14 41  1  0
 14 42  1  0
 15 43  1  0
 15 44  1  0
 15 45  1  0
 19 46  1  0
 20 47  1  0
 26 48  1  0
M  END
$$$$
