
     RDKit          3D

 50 50  0  0  0  0  0  0  0  0999 V2000
    7.3259    1.9700    0.3868 C   0  0  0  0  0  0  0  0  0  0  0  0
    7.6789    0.6947    0.6326 C   0  0  0  0  0  0  0  0  0  0  0  0
    8.9312    0.1067    0.0352 C   0  0  0  0  0  0  0  0  0  0  0  0
    6.8763   -0.1934    1.5550 C   0  0  0  0  0  0  0  0  0  0  0  0
    6.0777   -1.5536    0.6606 S   0  0  0  0  0  0  0  0  0  0  0  0
    4.8194   -0.7010   -0.1755 C   0  0  0  0  0  0  0  0  0  0  0  0
    4.4123   -0.9992   -1.3918 N   0  0  0  0  0  0  0  0  0  0  0  0
    3.3853   -0.1292   -1.6941 N   0  0  0  0  0  0  0  0  0  0  0  0
    3.2233    0.6262   -0.6311 C   0  0  0  0  0  0  0  0  0  0  0  0
    2.2411    1.7063   -0.3787 C   0  0  0  0  0  0  0  0  0  0  0  0
    0.9581    1.1847    0.2765 C   0  0  0  0  0  0  0  0  0  0  0  0
    0.0714    0.4003   -0.6981 C   0  0  0  0  0  0  0  0  0  0  0  0
   -1.1645   -0.2199   -0.0396 C   0  0  0  0  0  0  0  0  0  0  0  0
   -2.1186    0.8071    0.5669 C   0  0  0  0  0  0  0  0  0  0  0  0
   -3.3342    0.1818    1.0327 N   0  0  0  0  0  0  0  0  0  0  0  0
   -4.4052   -0.0357    0.2177 C   0  0  0  0  0  0  0  0  0  0  0  0
   -4.5024    0.3597   -0.9335 O   0  0  0  0  0  0  0  0  0  0  0  0
   -5.3190   -0.7677    0.8944 O   0  0  0  0  0  0  0  0  0  0  0  0
   -6.5736   -1.1451    0.2699 C   0  0  0  0  0  0  0  0  0  0  0  0
   -6.3440   -2.0366   -0.9561 C   0  0  0  0  0  0  0  0  0  0  0  0
   -7.4167    0.0897   -0.0665 C   0  0  0  0  0  0  0  0  0  0  0  0
   -7.3096   -1.9652    1.3407 C   0  0  0  0  0  0  0  0  0  0  0  0
    4.1004    0.3294    0.3750 O   0  0  0  0  0  0  0  0  0  0  0  0
    7.9177    2.6040   -0.2669 H   0  0  0  0  0  0  0  0  0  0  0  0
    6.4417    2.4208    0.8300 H   0  0  0  0  0  0  0  0  0  0  0  0
    9.5917   -0.2668    0.8258 H   0  0  0  0  0  0  0  0  0  0  0  0
    9.4962    0.8452   -0.5432 H   0  0  0  0  0  0  0  0  0  0  0  0
    8.6924   -0.7222   -0.6388 H   0  0  0  0  0  0  0  0  0  0  0  0
    7.5474   -0.6265    2.3060 H   0  0  0  0  0  0  0  0  0  0  0  0
    6.1214    0.3768    2.1131 H   0  0  0  0  0  0  0  0  0  0  0  0
    2.6977    2.4525    0.2825 H   0  0  0  0  0  0  0  0  0  0  0  0
    2.0067    2.2209   -1.3176 H   0  0  0  0  0  0  0  0  0  0  0  0
    0.3981    2.0501    0.6518 H   0  0  0  0  0  0  0  0  0  0  0  0
    1.2025    0.5584    1.1440 H   0  0  0  0  0  0  0  0  0  0  0  0
   -0.2443    1.0591   -1.5167 H   0  0  0  0  0  0  0  0  0  0  0  0
    0.6485   -0.4126   -1.1536 H   0  0  0  0  0  0  0  0  0  0  0  0
   -0.8530   -0.9324    0.7353 H   0  0  0  0  0  0  0  0  0  0  0  0
   -1.6961   -0.8088   -0.7986 H   0  0  0  0  0  0  0  0  0  0  0  0
   -2.3715    1.5771   -0.1704 H   0  0  0  0  0  0  0  0  0  0  0  0
   -1.6656    1.2956    1.4347 H   0  0  0  0  0  0  0  0  0  0  0  0
   -3.3493   -0.3154    1.9102 H   0  0  0  0  0  0  0  0  0  0  0  0
   -7.2846   -2.4687   -1.3182 H   0  0  0  0  0  0  0  0  0  0  0  0
   -5.8996   -1.4815   -1.7881 H   0  0  0  0  0  0  0  0  0  0  0  0
   -5.6529   -2.8546   -0.7190 H   0  0  0  0  0  0  0  0  0  0  0  0
   -6.9721    0.6767   -0.8767 H   0  0  0  0  0  0  0  0  0  0  0  0
   -7.4926    0.7572    0.7999 H   0  0  0  0  0  0  0  0  0  0  0  0
   -8.4284   -0.1910   -0.3798 H   0  0  0  0  0  0  0  0  0  0  0  0
   -8.2841   -2.3191    0.9854 H   0  0  0  0  0  0  0  0  0  0  0  0
   -7.4672   -1.3696    2.2478 H   0  0  0  0  0  0  0  0  0  0  0  0
   -6.7144   -2.8353    1.6421 H   0  0  0  0  0  0  0  0  0  0  0  0
  1  2  2  0
  2  3  1  0
  2  4  1  0
  4  5  1  0
  5  6  1  0
  6  7  2  0
  7  8  1  0
  8  9  2  0
  9 10  1  0
 10 11  1  0
 11 12  1  0
 12 13  1  0
 13 14  1  0
 14 15  1  0
 15 16  1  0
 16 17  2  0
 16 18  1  0
 18 19  1  0
 19 20  1  0
 19 21  1  0
 19 22  1  0
  9 23  1  0
 23  6  1  0
  1 24  1  0
  1 25  1  0
  3 26  1  0
  3 27  1  0
  3 28  1  0
  4 29  1  0
  4 30  1  0
 10 31  1  0
 10 32  1  0
 11 33  1  0
 11 34  1  0
 12 35  1  0
 12 36  1  0
 13 37  1  0
 13 38  1  0
 14 39  1  0
 14 40  1  0
 15 41  1  0
 20 42  1  0
 20 43  1  0
 20 44  1  0
 21 45  1  0
 21 46  1  0
 21 47  1  0
 22 48  1  0
 22 49  1  0
 22 50  1  0
M  END
$$$$
