
     RDKit          3D

 49 51  0  0  0  0  0  0  0  0999 V2000
   -7.9066    0.5875   -0.4139 C   0  0  0  0  0  0  0  0  0  0  0  0
   -6.8807    0.9076    0.6428 C   0  0  0  0  0  0  0  0  0  0  0  0
   -7.2365    1.1722    1.7911 O   0  0  0  0  0  0  0  0  0  0  0  0
   -5.5492    0.8976    0.2538 N   0  0  0  0  0  0  0  0  0  0  0  0
   -5.0441    0.1546   -0.9100 C   0  0  0  0  0  0  0  0  0  0  0  0
   -4.4443   -1.2006   -0.4686 C   0  0  0  0  0  0  0  0  0  0  0  0
   -3.4334   -1.0270    0.6019 N   0  0  0  0  0  0  0  0  0  0  0  0
   -2.0855   -0.8513    0.2844 C   0  0  0  0  0  0  0  0  0  0  0  0
   -1.1038   -0.9806    1.2760 C   0  0  0  0  0  0  0  0  0  0  0  0
    0.2613   -0.8214    0.9969 C   0  0  0  0  0  0  0  0  0  0  0  0
    0.7074   -0.5377   -0.2968 C   0  0  0  0  0  0  0  0  0  0  0  0
    2.1020   -0.3927   -0.4558 N   0  0  0  0  0  0  0  0  0  0  0  0
    2.9214   -0.1545   -1.5329 C   0  0  0  0  0  0  0  0  0  0  0  0
    2.5537    0.0366   -3.1503 S   0  0  0  0  0  0  0  0  0  0  0  0
    4.2716   -0.0559   -1.2181 N   0  0  0  0  0  0  0  0  0  0  0  0
    4.8968   -0.1769    0.0167 C   0  0  0  0  0  0  0  0  0  0  0  0
    4.3059   -0.4857    1.0481 O   0  0  0  0  0  0  0  0  0  0  0  0
    6.3675    0.0450    0.0325 C   0  0  0  0  0  0  0  0  0  0  0  0
    7.1333   -0.6556    0.9729 C   0  0  0  0  0  0  0  0  0  0  0  0
    8.5167   -0.4787    1.0221 C   0  0  0  0  0  0  0  0  0  0  0  0
    9.1378    0.4050    0.1405 C   0  0  0  0  0  0  0  0  0  0  0  0
    8.3779    1.1197   -0.7856 C   0  0  0  0  0  0  0  0  0  0  0  0
    6.9928    0.9459   -0.8399 C   0  0  0  0  0  0  0  0  0  0  0  0
   -0.2497   -0.4265   -1.2964 C   0  0  0  0  0  0  0  0  0  0  0  0
   -1.6181   -0.5902   -1.0090 C   0  0  0  0  0  0  0  0  0  0  0  0
   -3.9536   -0.2457    1.7613 C   0  0  0  0  0  0  0  0  0  0  0  0
   -4.5257    1.1071    1.2865 C   0  0  0  0  0  0  0  0  0  0  0  0
   -7.7273    1.1813   -1.3141 H   0  0  0  0  0  0  0  0  0  0  0  0
   -7.8852   -0.4806   -0.6446 H   0  0  0  0  0  0  0  0  0  0  0  0
   -8.9026    0.8422   -0.0386 H   0  0  0  0  0  0  0  0  0  0  0  0
   -4.2800    0.7823   -1.3812 H   0  0  0  0  0  0  0  0  0  0  0  0
   -5.8287   -0.0169   -1.6498 H   0  0  0  0  0  0  0  0  0  0  0  0
   -5.2517   -1.8222   -0.0596 H   0  0  0  0  0  0  0  0  0  0  0  0
   -4.0473   -1.7563   -1.3253 H   0  0  0  0  0  0  0  0  0  0  0  0
   -1.3847   -1.2463    2.2921 H   0  0  0  0  0  0  0  0  0  0  0  0
    0.9691   -0.9374    1.8151 H   0  0  0  0  0  0  0  0  0  0  0  0
    2.6268   -0.5063    0.4141 H   0  0  0  0  0  0  0  0  0  0  0  0
    4.8502    0.0915   -2.0335 H   0  0  0  0  0  0  0  0  0  0  0  0
    6.6551   -1.3431    1.6682 H   0  0  0  0  0  0  0  0  0  0  0  0
    9.1088   -1.0273    1.7508 H   0  0  0  0  0  0  0  0  0  0  0  0
   10.2157    0.5449    0.1827 H   0  0  0  0  0  0  0  0  0  0  0  0
    8.8660    1.8212   -1.4585 H   0  0  0  0  0  0  0  0  0  0  0  0
    6.4228    1.5435   -1.5457 H   0  0  0  0  0  0  0  0  0  0  0  0
    0.0057   -0.2106   -2.3244 H   0  0  0  0  0  0  0  0  0  0  0  0
   -2.3026   -0.4866   -1.8444 H   0  0  0  0  0  0  0  0  0  0  0  0
   -4.7529   -0.8339    2.2297 H   0  0  0  0  0  0  0  0  0  0  0  0
   -3.2019   -0.0714    2.5371 H   0  0  0  0  0  0  0  0  0  0  0  0
   -4.9362    1.6602    2.1373 H   0  0  0  0  0  0  0  0  0  0  0  0
   -3.7338    1.7217    0.8422 H   0  0  0  0  0  0  0  0  0  0  0  0
  1  2  1  0
  2  3  2  0
  2  4  1  0
  4  5  1  0
  5  6  1  0
  6  7  1  0
  7  8  1  0
  8  9  2  0
  9 10  1  0
 10 11  2  0
 11 12  1  0
 12 13  1  0
 13 14  2  0
 13 15  1  0
 15 16  1  0
 16 17  2  0
 16 18  1  0
 18 19  2  0
 19 20  1  0
 20 21  2  0
 21 22  1  0
 22 23  2  0
 11 24  1  0
 24 25  2  0
  7 26  1  0
 26 27  1  0
 27  4  1  0
 25  8  1  0
 23 18  1  0
  1 28  1  0
  1 29  1  0
  1 30  1  0
  5 31  1  0
  5 32  1  0
  6 33  1  0
  6 34  1  0
  9 35  1  0
 10 36  1  0
 12 37  1  0
 15 38  1  0
 19 39  1  0
 20 40  1  0
 21 41  1  0
 22 42  1  0
 23 43  1  0
 24 44  1  0
 25 45  1  0
 26 46  1  0
 26 47  1  0
 27 48  1  0
 27 49  1  0
M  END
$$$$
