
     RDKit          3D

 30 31  0  0  0  0  0  0  0  0999 V2000
    5.2550   -2.0235    3.0569 N   0  0  0  0  0  0  0  0  0  0  0  0
    4.2243   -1.6186    2.7121 C   0  0  0  0  0  0  0  0  0  0  0  0
    2.9346   -1.0909    2.2608 C   0  0  0  0  0  0  0  0  0  0  0  0
    3.0295   -0.6538    0.8073 C   0  0  0  0  0  0  0  0  0  0  0  0
    1.7916   -0.0553    0.3470 N   0  0  0  0  0  0  0  0  0  0  0  0
    1.5905    1.2435    0.0029 C   0  0  0  0  0  0  0  0  0  0  0  0
    0.2676    1.3500   -0.3809 C   0  0  0  0  0  0  0  0  0  0  0  0
   -0.4642    2.5333   -0.7895 C   0  0  0  0  0  0  0  0  0  0  0  0
    0.0078    3.6389   -1.2884 N   0  0  0  0  0  0  0  0  0  0  0  0
    1.3894    3.6269   -1.4910 O   0  0  0  0  0  0  0  0  0  0  0  0
   -0.2509    0.0236   -0.2183 C   0  0  0  0  0  0  0  0  0  0  0  0
   -1.5996   -0.4694   -0.4945 C   0  0  0  0  0  0  0  0  0  0  0  0
   -2.2592   -1.2726    0.4471 C   0  0  0  0  0  0  0  0  0  0  0  0
   -3.5493   -1.7476    0.1950 C   0  0  0  0  0  0  0  0  0  0  0  0
   -4.1813   -1.4272   -1.0045 C   0  0  0  0  0  0  0  0  0  0  0  0
   -5.7691   -2.0106   -1.3169 Cl  0  0  0  0  0  0  0  0  0  0  0  0
   -3.5331   -0.6413   -1.9557 C   0  0  0  0  0  0  0  0  0  0  0  0
   -2.2424   -0.1658   -1.7032 C   0  0  0  0  0  0  0  0  0  0  0  0
    0.6883   -0.8100    0.2590 N   0  0  0  0  0  0  0  0  0  0  0  0
    2.6410   -0.2437    2.8922 H   0  0  0  0  0  0  0  0  0  0  0  0
    2.1605   -1.8575    2.3832 H   0  0  0  0  0  0  0  0  0  0  0  0
    3.2428   -1.5017    0.1449 H   0  0  0  0  0  0  0  0  0  0  0  0
    3.8296    0.0832    0.6667 H   0  0  0  0  0  0  0  0  0  0  0  0
    2.3811    1.9783    0.0646 H   0  0  0  0  0  0  0  0  0  0  0  0
   -1.5591    2.4884   -0.6652 H   0  0  0  0  0  0  0  0  0  0  0  0
    1.5516    4.5058   -1.8819 H   0  0  0  0  0  0  0  0  0  0  0  0
   -1.7663   -1.5344    1.3816 H   0  0  0  0  0  0  0  0  0  0  0  0
   -4.0489   -2.3683    0.9339 H   0  0  0  0  0  0  0  0  0  0  0  0
   -4.0212   -0.4029   -2.8972 H   0  0  0  0  0  0  0  0  0  0  0  0
   -1.7406    0.4232   -2.4679 H   0  0  0  0  0  0  0  0  0  0  0  0
  1  2  3  0
  2  3  1  0
  3  4  1  0
  4  5  1  0
  5  6  1  0
  6  7  2  0
  7  8  1  0
  8  9  2  3
  9 10  1  0
  7 11  1  0
 11 12  1  0
 12 13  2  0
 13 14  1  0
 14 15  2  0
 15 16  1  0
 15 17  1  0
 17 18  2  0
 11 19  2  0
 19  5  1  0
 18 12  1  0
  3 20  1  0
  3 21  1  0
  4 22  1  0
  4 23  1  0
  6 24  1  0
  8 25  1  0
 10 26  1  0
 13 27  1  0
 14 28  1  0
 17 29  1  0
 18 30  1  0
M  END
$$$$
