
     RDKit          3D

 40 44  0  0  0  0  0  0  0  0999 V2000
    6.2037    0.8950    0.5913 C   0  0  0  0  0  0  0  0  0  0  0  0
    5.7561   -0.3177    1.1093 C   0  0  0  0  0  0  0  0  0  0  0  0
    4.4274   -0.7095    0.9246 C   0  0  0  0  0  0  0  0  0  0  0  0
    3.5237    0.1036    0.2205 C   0  0  0  0  0  0  0  0  0  0  0  0
    2.1235   -0.3096    0.0268 C   0  0  0  0  0  0  0  0  0  0  0  0
    1.8144   -1.5416   -0.5693 C   0  0  0  0  0  0  0  0  0  0  0  0
    0.4938   -1.9633   -0.7710 C   0  0  0  0  0  0  0  0  0  0  0  0
   -0.5342   -1.1127   -0.3497 C   0  0  0  0  0  0  0  0  0  0  0  0
   -0.2746    0.1323    0.2517 C   0  0  0  0  0  0  0  0  0  0  0  0
    1.0667    0.5275    0.4344 C   0  0  0  0  0  0  0  0  0  0  0  0
   -1.5329    0.7399    0.5386 C   0  0  0  0  0  0  0  0  0  0  0  0
   -2.4927   -0.1480    0.1272 C   0  0  0  0  0  0  0  0  0  0  0  0
   -1.8967   -1.2362   -0.4154 N   0  0  0  0  0  0  0  0  0  0  0  0
   -2.7302   -2.2524   -1.0200 C   0  0  0  0  0  0  0  0  0  0  0  0
   -4.1174   -2.2663   -0.3545 C   0  0  0  0  0  0  0  0  0  0  0  0
   -4.7245   -0.9292   -0.1006 N   0  0  0  0  0  0  0  0  0  0  0  0
   -3.9064    0.0246    0.1977 C   0  0  0  0  0  0  0  0  0  0  0  0
   -4.3590    1.4149    0.6041 C   0  0  0  0  0  0  0  0  0  0  0  0
   -3.3738    2.0440    1.6164 C   0  0  0  0  0  0  0  0  0  0  0  0
   -1.9037    2.0589    1.1259 C   0  0  0  0  0  0  0  0  0  0  0  0
    3.9957    1.3230   -0.2931 C   0  0  0  0  0  0  0  0  0  0  0  0
    5.3243    1.7158   -0.1103 C   0  0  0  0  0  0  0  0  0  0  0  0
    7.2369    1.2001    0.7343 H   0  0  0  0  0  0  0  0  0  0  0  0
    6.4385   -0.9594    1.6603 H   0  0  0  0  0  0  0  0  0  0  0  0
    4.0941   -1.6554    1.3470 H   0  0  0  0  0  0  0  0  0  0  0  0
    2.6200   -2.1944   -0.9030 H   0  0  0  0  0  0  0  0  0  0  0  0
    0.2863   -2.9184   -1.2417 H   0  0  0  0  0  0  0  0  0  0  0  0
    1.2788    1.4840    0.9051 H   0  0  0  0  0  0  0  0  0  0  0  0
   -2.8134   -1.9971   -2.0823 H   0  0  0  0  0  0  0  0  0  0  0  0
   -2.2398   -3.2248   -0.9184 H   0  0  0  0  0  0  0  0  0  0  0  0
   -4.8060   -2.8403   -0.9844 H   0  0  0  0  0  0  0  0  0  0  0  0
   -4.0591   -2.7905    0.6079 H   0  0  0  0  0  0  0  0  0  0  0  0
   -4.4169    2.0326   -0.2995 H   0  0  0  0  0  0  0  0  0  0  0  0
   -5.3617    1.3566    1.0404 H   0  0  0  0  0  0  0  0  0  0  0  0
   -3.4234    1.4682    2.5505 H   0  0  0  0  0  0  0  0  0  0  0  0
   -3.6894    3.0660    1.8543 H   0  0  0  0  0  0  0  0  0  0  0  0
   -1.7849    2.8347    0.3602 H   0  0  0  0  0  0  0  0  0  0  0  0
   -1.2408    2.3100    1.9610 H   0  0  0  0  0  0  0  0  0  0  0  0
    3.3269    1.9734   -0.8534 H   0  0  0  0  0  0  0  0  0  0  0  0
    5.6707    2.6616   -0.5186 H   0  0  0  0  0  0  0  0  0  0  0  0
  1  2  2  0
  2  3  1  0
  3  4  2  0
  4  5  1  0
  5  6  2  0
  6  7  1  0
  7  8  2  0
  8  9  1  0
  9 10  2  0
  9 11  1  0
 11 12  2  0
 12 13  1  0
 13 14  1  0
 14 15  1  0
 15 16  1  0
 16 17  2  0
 17 18  1  0
 18 19  1  0
 19 20  1  0
  4 21  1  0
 21 22  2  0
 22  1  1  0
 10  5  1  0
 20 11  1  0
 13  8  1  0
 17 12  1  0
  1 23  1  0
  2 24  1  0
  3 25  1  0
  6 26  1  0
  7 27  1  0
 10 28  1  0
 14 29  1  0
 14 30  1  0
 15 31  1  0
 15 32  1  0
 18 33  1  0
 18 34  1  0
 19 35  1  0
 19 36  1  0
 20 37  1  0
 20 38  1  0
 21 39  1  0
 22 40  1  0
M  END
$$$$
