
     RDKit          3D

 48 50  0  0  0  0  0  0  0  0999 V2000
    3.0597    1.4993    0.6851 C   0  0  0  0  0  0  0  0  0  0  0  0
    1.7429    1.2425    0.6726 C   0  0  0  0  0  0  0  0  0  0  0  0
    0.7271    1.9483    1.4662 C   0  0  0  0  0  0  0  0  0  0  0  0
    0.9617    3.1034    2.3617 C   0  0  0  0  0  0  0  0  0  0  0  0
    2.0379    3.6531    2.5387 O   0  0  0  0  0  0  0  0  0  0  0  0
   -0.2022    3.4786    2.9692 O   0  0  0  0  0  0  0  0  0  0  0  0
   -0.0597    4.5946    3.8524 C   0  0  0  0  0  0  0  0  0  0  0  0
   -0.4623    1.3545    1.2345 C   0  0  0  0  0  0  0  0  0  0  0  0
   -1.6863    1.6667    1.7532 O   0  0  0  0  0  0  0  0  0  0  0  0
   -0.3097    0.2605    0.2727 C   0  0  0  0  0  0  0  0  0  0  0  0
   -1.2831   -0.5150   -0.2443 C   0  0  0  0  0  0  0  0  0  0  0  0
   -2.7134   -0.4794    0.0689 C   0  0  0  0  0  0  0  0  0  0  0  0
   -3.2050   -1.1053    1.2211 C   0  0  0  0  0  0  0  0  0  0  0  0
   -4.5729   -1.0861    1.5046 C   0  0  0  0  0  0  0  0  0  0  0  0
   -5.4429   -0.4423    0.6297 C   0  0  0  0  0  0  0  0  0  0  0  0
   -6.7852   -0.3995    0.8676 O   0  0  0  0  0  0  0  0  0  0  0  0
   -4.9688    0.1799   -0.5194 C   0  0  0  0  0  0  0  0  0  0  0  0
   -3.6019    0.1610   -0.8021 C   0  0  0  0  0  0  0  0  0  0  0  0
    1.0631    0.2371   -0.0367 N   0  0  0  0  0  0  0  0  0  0  0  0
    1.6799   -0.6880   -0.9206 C   0  0  0  0  0  0  0  0  0  0  0  0
    2.3671   -0.2422   -2.0602 C   0  0  0  0  0  0  0  0  0  0  0  0
    2.9900   -1.1449   -2.9322 C   0  0  0  0  0  0  0  0  0  0  0  0
    3.6933   -0.6486   -4.1606 C   0  0  0  0  0  0  0  0  0  0  0  0
    2.8972   -2.5175   -2.6729 C   0  0  0  0  0  0  0  0  0  0  0  0
    2.2056   -2.9898   -1.5511 C   0  0  0  0  0  0  0  0  0  0  0  0
    2.1484   -4.4592   -1.2555 C   0  0  0  0  0  0  0  0  0  0  0  0
    1.6153   -2.0685   -0.6758 C   0  0  0  0  0  0  0  0  0  0  0  0
    3.5012    2.2881    1.2832 H   0  0  0  0  0  0  0  0  0  0  0  0
    3.7571    0.9088    0.1012 H   0  0  0  0  0  0  0  0  0  0  0  0
   -1.0413    4.8113    4.2827 H   0  0  0  0  0  0  0  0  0  0  0  0
    0.6300    4.3527    4.6671 H   0  0  0  0  0  0  0  0  0  0  0  0
    0.2801    5.4776    3.3023 H   0  0  0  0  0  0  0  0  0  0  0  0
   -1.5731    2.4301    2.3500 H   0  0  0  0  0  0  0  0  0  0  0  0
   -1.0360   -1.2567   -0.9990 H   0  0  0  0  0  0  0  0  0  0  0  0
   -2.5223   -1.6023    1.9057 H   0  0  0  0  0  0  0  0  0  0  0  0
   -4.9340   -1.5720    2.4048 H   0  0  0  0  0  0  0  0  0  0  0  0
   -6.9636   -0.8625    1.7022 H   0  0  0  0  0  0  0  0  0  0  0  0
   -5.6592    0.6797   -1.1922 H   0  0  0  0  0  0  0  0  0  0  0  0
   -3.2348    0.6520   -1.6997 H   0  0  0  0  0  0  0  0  0  0  0  0
    2.4055    0.8244   -2.2722 H   0  0  0  0  0  0  0  0  0  0  0  0
    4.5108   -1.3208   -4.4415 H   0  0  0  0  0  0  0  0  0  0  0  0
    4.1316    0.3398   -3.9870 H   0  0  0  0  0  0  0  0  0  0  0  0
    2.9876   -0.5818   -4.9943 H   0  0  0  0  0  0  0  0  0  0  0  0
    3.3682   -3.2261   -3.3520 H   0  0  0  0  0  0  0  0  0  0  0  0
    2.1683   -5.0451   -2.1805 H   0  0  0  0  0  0  0  0  0  0  0  0
    1.2228   -4.7158   -0.7294 H   0  0  0  0  0  0  0  0  0  0  0  0
    3.0012   -4.7493   -0.6342 H   0  0  0  0  0  0  0  0  0  0  0  0
    1.1040   -2.4255    0.2159 H   0  0  0  0  0  0  0  0  0  0  0  0
  1  2  2  0
  2  3  1  0
  3  4  1  0
  4  5  2  0
  4  6  1  0
  6  7  1  0
  3  8  2  0
  8  9  1  0
  8 10  1  0
 10 11  2  3
 11 12  1  0
 12 13  2  0
 13 14  1  0
 14 15  2  0
 15 16  1  0
 15 17  1  0
 17 18  2  0
 10 19  1  0
 19 20  1  0
 20 21  2  0
 21 22  1  0
 22 23  1  0
 22 24  2  0
 24 25  1  0
 25 26  1  0
 25 27  2  0
 19  2  1  0
 27 20  1  0
 18 12  1  0
  1 28  1  0
  1 29  1  0
  7 30  1  0
  7 31  1  0
  7 32  1  0
  9 33  1  0
 11 34  1  0
 13 35  1  0
 14 36  1  0
 16 37  1  0
 17 38  1  0
 18 39  1  0
 21 40  1  0
 23 41  1  0
 23 42  1  0
 23 43  1  0
 24 44  1  0
 26 45  1  0
 26 46  1  0
 26 47  1  0
 27 48  1  0
M  END
$$$$
