
     RDKit          3D

 41 42  0  0  0  0  0  0  0  0999 V2000
   -4.3213    0.3246   -1.3141 C   0  0  0  0  0  0  0  0  0  0  0  0
   -3.6724    1.1681   -0.2264 C   0  0  0  0  0  0  0  0  0  0  0  0
   -2.6145    0.4044    0.4647 N   0  0  0  0  0  0  0  0  0  0  0  0
   -3.1120   -0.3676    1.6221 C   0  0  0  0  0  0  0  0  0  0  0  0
   -2.8139    0.3656    2.9212 C   0  0  0  0  0  0  0  0  0  0  0  0
   -1.2737    0.3504    0.0155 C   0  0  0  0  0  0  0  0  0  0  0  0
   -0.3315   -0.4581    0.5523 C   0  0  0  0  0  0  0  0  0  0  0  0
    1.0380   -0.5333    0.0706 C   0  0  0  0  0  0  0  0  0  0  0  0
    2.0348   -0.9738    0.8584 C   0  0  0  0  0  0  0  0  0  0  0  0
    3.4436   -0.9013    0.4656 C   0  0  0  0  0  0  0  0  0  0  0  0
    4.4232   -1.6145    1.0745 C   0  0  0  0  0  0  0  0  0  0  0  0
    5.7892   -1.4862    0.6873 C   0  0  0  0  0  0  0  0  0  0  0  0
    6.8979   -1.3722    0.3635 N   0  0  0  0  0  0  0  0  0  0  0  0
    4.1459   -2.5350    2.1284 C   0  0  0  0  0  0  0  0  0  0  0  0
    3.9103   -3.2777    2.9888 N   0  0  0  0  0  0  0  0  0  0  0  0
    3.6950    0.0989   -0.6555 C   0  0  0  0  0  0  0  0  0  0  0  0
    2.7102   -0.1012   -1.8039 C   0  0  0  0  0  0  0  0  0  0  0  0
    1.2455   -0.0469   -1.3461 C   0  0  0  0  0  0  0  0  0  0  0  0
    0.6360    1.3495   -1.4410 C   0  0  0  0  0  0  0  0  0  0  0  0
   -0.8685    1.2890   -1.1277 C   0  0  0  0  0  0  0  0  0  0  0  0
   -3.5929    0.0146   -2.0695 H   0  0  0  0  0  0  0  0  0  0  0  0
   -4.7723   -0.5815   -0.8964 H   0  0  0  0  0  0  0  0  0  0  0  0
   -5.1092    0.8952   -1.8156 H   0  0  0  0  0  0  0  0  0  0  0  0
   -3.2891    2.0988   -0.6544 H   0  0  0  0  0  0  0  0  0  0  0  0
   -4.4403    1.4808    0.4926 H   0  0  0  0  0  0  0  0  0  0  0  0
   -2.6849   -1.3761    1.6387 H   0  0  0  0  0  0  0  0  0  0  0  0
   -4.1961   -0.5189    1.5459 H   0  0  0  0  0  0  0  0  0  0  0  0
   -1.7381    0.5004    3.0701 H   0  0  0  0  0  0  0  0  0  0  0  0
   -3.2059   -0.1988    3.7729 H   0  0  0  0  0  0  0  0  0  0  0  0
   -3.2781    1.3575    2.9268 H   0  0  0  0  0  0  0  0  0  0  0  0
   -0.5636   -1.0845    1.4068 H   0  0  0  0  0  0  0  0  0  0  0  0
    1.7960   -1.3462    1.8540 H   0  0  0  0  0  0  0  0  0  0  0  0
    3.5949    1.1160   -0.2541 H   0  0  0  0  0  0  0  0  0  0  0  0
    4.7089    0.0246   -1.0613 H   0  0  0  0  0  0  0  0  0  0  0  0
    2.9001   -1.0859   -2.2536 H   0  0  0  0  0  0  0  0  0  0  0  0
    2.8986    0.6354   -2.5938 H   0  0  0  0  0  0  0  0  0  0  0  0
    0.6839   -0.7039   -2.0269 H   0  0  0  0  0  0  0  0  0  0  0  0
    1.1313    2.0337   -0.7389 H   0  0  0  0  0  0  0  0  0  0  0  0
    0.7762    1.7703   -2.4439 H   0  0  0  0  0  0  0  0  0  0  0  0
   -1.1858    2.3131   -0.9002 H   0  0  0  0  0  0  0  0  0  0  0  0
   -1.3955    0.9728   -2.0362 H   0  0  0  0  0  0  0  0  0  0  0  0
  1  2  1  0
  2  3  1  0
  3  4  1  0
  4  5  1  0
  3  6  1  0
  6  7  2  0
  7  8  1  0
  8  9  2  0
  9 10  1  0
 10 11  2  3
 11 12  1  0
 12 13  3  0
 11 14  1  0
 14 15  3  0
 10 16  1  0
 16 17  1  0
 17 18  1  0
 18 19  1  0
 19 20  1  0
 20  6  1  0
 18  8  1  0
  1 21  1  0
  1 22  1  0
  1 23  1  0
  2 24  1  0
  2 25  1  0
  4 26  1  0
  4 27  1  0
  5 28  1  0
  5 29  1  0
  5 30  1  0
  7 31  1  0
  9 32  1  0
 16 33  1  0
 16 34  1  0
 17 35  1  0
 17 36  1  0
 18 37  1  0
 19 38  1  0
 19 39  1  0
 20 40  1  0
 20 41  1  0
M  END
$$$$
