
     RDKit          3D

 35 37  0  0  0  0  0  0  0  0999 V2000
   -4.8920    1.8731   -0.0995 C   0  0  0  0  0  0  0  0  0  0  0  0
   -3.8414    0.9644   -0.6683 C   0  0  0  0  0  0  0  0  0  0  0  0
   -2.6701    1.4986   -1.2232 C   0  0  0  0  0  0  0  0  0  0  0  0
   -1.6780    0.6566   -1.7277 C   0  0  0  0  0  0  0  0  0  0  0  0
   -1.8508   -0.7277   -1.6574 C   0  0  0  0  0  0  0  0  0  0  0  0
   -0.5994   -1.8078   -2.2985 S   0  0  0  0  0  6  0  0  0  0  0  0
   -1.2690   -2.9480   -2.8891 O   0  0  0  0  0  0  0  0  0  0  0  0
    0.3556   -1.0302   -3.0588 O   0  0  0  0  0  0  0  0  0  0  0  0
    0.1463   -2.3866   -0.8927 N   0  0  0  0  0  0  0  0  0  0  0  0
    1.1168   -1.5583   -0.2701 C   0  0  0  0  0  0  0  0  0  0  0  0
    2.4518   -1.6310   -0.6651 C   0  0  0  0  0  0  0  0  0  0  0  0
    3.4024   -0.7805   -0.0900 C   0  0  0  0  0  0  0  0  0  0  0  0
    3.0105    0.1499    0.8833 C   0  0  0  0  0  0  0  0  0  0  0  0
    3.9522    1.0244    1.4778 N   0  0  0  0  0  0  0  0  0  0  0  0
    5.3009    1.1420    1.2539 C   0  0  0  0  0  0  0  0  0  0  0  0
    5.7916    2.0813    2.0295 N   0  0  0  0  0  0  0  0  0  0  0  0
    4.7298    2.5600    2.7494 N   0  0  0  0  0  0  0  0  0  0  0  0
    3.6104    1.9289    2.4246 N   0  0  0  0  0  0  0  0  0  0  0  0
    1.6629    0.2194    1.2714 C   0  0  0  0  0  0  0  0  0  0  0  0
    0.7191   -0.6313    0.6899 C   0  0  0  0  0  0  0  0  0  0  0  0
   -3.0120   -1.2753   -1.1066 C   0  0  0  0  0  0  0  0  0  0  0  0
   -4.0002   -0.4271   -0.6049 C   0  0  0  0  0  0  0  0  0  0  0  0
   -4.6836    2.0701    0.9566 H   0  0  0  0  0  0  0  0  0  0  0  0
   -5.8865    1.4230   -0.1865 H   0  0  0  0  0  0  0  0  0  0  0  0
   -4.9186    2.8255   -0.6393 H   0  0  0  0  0  0  0  0  0  0  0  0
   -2.5271    2.5766   -1.2698 H   0  0  0  0  0  0  0  0  0  0  0  0
   -0.7786    1.0854   -2.1642 H   0  0  0  0  0  0  0  0  0  0  0  0
    0.3574   -3.3797   -0.9851 H   0  0  0  0  0  0  0  0  0  0  0  0
    2.7590   -2.3323   -1.4375 H   0  0  0  0  0  0  0  0  0  0  0  0
    4.4290   -0.8681   -0.4342 H   0  0  0  0  0  0  0  0  0  0  0  0
    5.8593    0.5496    0.5476 H   0  0  0  0  0  0  0  0  0  0  0  0
    1.3247    0.9323    2.0225 H   0  0  0  0  0  0  0  0  0  0  0  0
   -0.3211   -0.5668    1.0000 H   0  0  0  0  0  0  0  0  0  0  0  0
   -3.1515   -2.3531   -1.0639 H   0  0  0  0  0  0  0  0  0  0  0  0
   -4.8997   -0.8571   -0.1687 H   0  0  0  0  0  0  0  0  0  0  0  0
  1  2  1  0
  2  3  2  0
  3  4  1  0
  4  5  2  0
  5  6  1  0
  6  7  2  0
  6  8  2  0
  6  9  1  0
  9 10  1  0
 10 11  2  0
 11 12  1  0
 12 13  2  0
 13 14  1  0
 14 15  1  0
 15 16  2  0
 16 17  1  0
 17 18  2  0
 13 19  1  0
 19 20  2  0
  5 21  1  0
 21 22  2  0
 22  2  1  0
 20 10  1  0
 18 14  1  0
  1 23  1  0
  1 24  1  0
  1 25  1  0
  3 26  1  0
  4 27  1  0
  9 28  1  0
 11 29  1  0
 12 30  1  0
 15 31  1  0
 19 32  1  0
 20 33  1  0
 21 34  1  0
 22 35  1  0
M  END
$$$$
