
     RDKit          3D

 55 57  0  0  0  0  0  0  0  0999 V2000
    3.2175   -0.4463    0.6442 O   0  0  0  0  0  0  0  0  0  0  0  0
    2.1688    0.1845    0.6116 C   0  0  0  0  0  0  0  0  0  0  0  0
    1.9291    1.4454    1.1189 N   0  0  0  0  0  0  0  0  0  0  0  0
    2.8282    2.3026    1.7780 C   0  0  0  0  0  0  0  0  0  0  0  0
    2.3285    3.5340    2.2219 C   0  0  0  0  0  0  0  0  0  0  0  0
    3.1576    4.4433    2.8840 C   0  0  0  0  0  0  0  0  0  0  0  0
    4.4952    4.1294    3.1075 C   0  0  0  0  0  0  0  0  0  0  0  0
    5.0005    2.9074    2.6693 C   0  0  0  0  0  0  0  0  0  0  0  0
    4.1706    1.9971    2.0066 C   0  0  0  0  0  0  0  0  0  0  0  0
    0.9268   -0.3816   -0.0344 C   0  0  0  0  0  0  0  0  0  0  0  0
    0.9344   -1.6528   -0.4694 C   0  0  0  0  0  0  0  0  0  0  0  0
   -0.2847   -2.3101   -1.0546 C   0  0  0  0  0  0  0  0  0  0  0  0
   -0.5127   -3.7148   -0.5206 C   0  0  0  0  0  0  0  0  0  0  0  0
   -0.6094   -3.9685    0.8567 C   0  0  0  0  0  0  0  0  0  0  0  0
   -0.8274   -5.2645    1.3311 C   0  0  0  0  0  0  0  0  0  0  0  0
   -0.9498   -6.3389    0.4398 C   0  0  0  0  0  0  0  0  0  0  0  0
   -1.2074   -7.7363    0.9456 C   0  0  0  0  0  0  0  0  0  0  0  0
   -2.5325   -8.0505    0.9464 F   0  0  0  0  0  0  0  0  0  0  0  0
   -0.7752   -7.9371    2.2220 F   0  0  0  0  0  0  0  0  0  0  0  0
   -0.5977   -8.6954    0.1935 F   0  0  0  0  0  0  0  0  0  0  0  0
   -0.8645   -6.0862   -0.9367 C   0  0  0  0  0  0  0  0  0  0  0  0
   -0.6464   -4.7899   -1.4110 C   0  0  0  0  0  0  0  0  0  0  0  0
   -1.5260   -1.4343   -0.8535 C   0  0  0  0  0  0  0  0  0  0  0  0
   -1.1523    0.0254   -1.0916 C   0  0  0  0  0  0  0  0  0  0  0  0
   -2.3485    0.7954   -0.9500 O   0  0  0  0  0  0  0  0  0  0  0  0
   -2.3406    2.0372   -1.6580 C   0  0  0  0  0  0  0  0  0  0  0  0
   -1.5746    3.1239   -0.9059 C   0  0  0  0  0  0  0  0  0  0  0  0
   -1.4961    4.4713   -1.6328 C   0  0  0  0  0  0  0  0  0  0  0  0
   -2.8500    5.1090   -1.9182 C   0  0  0  0  0  0  0  0  0  0  0  0
   -3.4644    4.4847   -3.0366 O   0  0  0  0  0  0  0  0  0  0  0  0
   -0.1740    0.4527   -0.1375 O   0  0  0  0  0  0  0  0  0  0  0  0
    0.9766    1.7763    1.0076 H   0  0  0  0  0  0  0  0  0  0  0  0
    1.2874    3.8012    2.0615 H   0  0  0  0  0  0  0  0  0  0  0  0
    2.7579    5.3939    3.2268 H   0  0  0  0  0  0  0  0  0  0  0  0
    5.1434    4.8332    3.6228 H   0  0  0  0  0  0  0  0  0  0  0  0
    6.0441    2.6561    2.8415 H   0  0  0  0  0  0  0  0  0  0  0  0
    4.6051    1.0578    1.6794 H   0  0  0  0  0  0  0  0  0  0  0  0
    1.8375   -2.2550   -0.3813 H   0  0  0  0  0  0  0  0  0  0  0  0
   -0.0943   -2.3816   -2.1350 H   0  0  0  0  0  0  0  0  0  0  0  0
   -0.5147   -3.1555    1.5749 H   0  0  0  0  0  0  0  0  0  0  0  0
   -0.8991   -5.4315    2.4051 H   0  0  0  0  0  0  0  0  0  0  0  0
   -0.9664   -6.9038   -1.6493 H   0  0  0  0  0  0  0  0  0  0  0  0
   -0.5825   -4.6285   -2.4854 H   0  0  0  0  0  0  0  0  0  0  0  0
   -1.9264   -1.5385    0.1645 H   0  0  0  0  0  0  0  0  0  0  0  0
   -2.3337   -1.7443   -1.5284 H   0  0  0  0  0  0  0  0  0  0  0  0
   -0.7501    0.1476   -2.1068 H   0  0  0  0  0  0  0  0  0  0  0  0
   -1.9539    1.8974   -2.6740 H   0  0  0  0  0  0  0  0  0  0  0  0
   -3.3916    2.3266   -1.7478 H   0  0  0  0  0  0  0  0  0  0  0  0
   -0.5483    2.7942   -0.7171 H   0  0  0  0  0  0  0  0  0  0  0  0
   -2.0258    3.2590    0.0850 H   0  0  0  0  0  0  0  0  0  0  0  0
   -0.9153    5.1548   -1.0019 H   0  0  0  0  0  0  0  0  0  0  0  0
   -0.9413    4.3382   -2.5694 H   0  0  0  0  0  0  0  0  0  0  0  0
   -2.7306    6.1725   -2.1499 H   0  0  0  0  0  0  0  0  0  0  0  0
   -3.5198    5.0240   -1.0569 H   0  0  0  0  0  0  0  0  0  0  0  0
   -2.9814    4.7697   -3.8321 H   0  0  0  0  0  0  0  0  0  0  0  0
  1  2  2  0
  2  3  1  0
  3  4  1  0
  4  5  2  0
  5  6  1  0
  6  7  2  0
  7  8  1  0
  8  9  2  0
  2 10  1  0
 10 11  2  0
 11 12  1  0
 12 13  1  0
 13 14  2  0
 14 15  1  0
 15 16  2  0
 16 17  1  0
 17 18  1  0
 17 19  1  0
 17 20  1  0
 16 21  1  0
 21 22  2  0
 12 23  1  0
 23 24  1  0
 24 25  1  0
 25 26  1  0
 26 27  1  0
 27 28  1  0
 28 29  1  0
 29 30  1  0
 24 31  1  0
  9  4  1  0
 31 10  1  0
 22 13  1  0
  3 32  1  0
  5 33  1  0
  6 34  1  0
  7 35  1  0
  8 36  1  0
  9 37  1  0
 11 38  1  0
 12 39  1  0
 14 40  1  0
 15 41  1  0
 21 42  1  0
 22 43  1  0
 23 44  1  0
 23 45  1  0
 24 46  1  0
 26 47  1  0
 26 48  1  0
 27 49  1  0
 27 50  1  0
 28 51  1  0
 28 52  1  0
 29 53  1  0
 29 54  1  0
 30 55  1  0
M  END
$$$$
