
     RDKit          3D

 67 70  0  0  0  0  0  0  0  0999 V2000
   -2.9819   -0.2962    0.9186 C   0  0  0  0  0  0  0  0  0  0  0  0
   -1.6672    0.2573    0.9334 O   0  0  0  0  0  0  0  0  0  0  0  0
   -1.5232    1.3329    0.0952 C   0  0  0  0  0  0  0  0  0  0  0  0
   -2.3455    2.4589    0.2584 C   0  0  0  0  0  0  0  0  0  0  0  0
   -2.1731    3.5944   -0.5380 C   0  0  0  0  0  0  0  0  0  0  0  0
   -2.9406    4.7287   -0.4486 O   0  0  0  0  0  0  0  0  0  0  0  0
   -4.0155    4.7276    0.4830 C   0  0  0  0  0  0  0  0  0  0  0  0
   -1.1422    3.6099   -1.4911 C   0  0  0  0  0  0  0  0  0  0  0  0
   -0.8875    4.7632   -2.3527 C   0  0  0  0  0  0  0  0  0  0  0  0
    0.1144    4.7465   -3.2355 C   0  0  0  0  0  0  0  0  0  0  0  0
    1.0043    3.5882   -3.3851 C   0  0  0  0  0  0  0  0  0  0  0  0
    1.9211    3.5962   -4.1971 O   0  0  0  0  0  0  0  0  0  0  0  0
    0.7451    2.5024   -2.5634 O   0  0  0  0  0  0  0  0  0  0  0  0
   -0.3160    2.4851   -1.6216 C   0  0  0  0  0  0  0  0  0  0  0  0
   -0.4819    1.3206   -0.8473 C   0  0  0  0  0  0  0  0  0  0  0  0
    0.4581    0.1240   -1.0393 C   0  0  0  0  0  0  0  0  0  0  0  0
    1.7184    0.2197   -0.1361 C   0  0  0  0  0  0  0  0  0  0  0  0
    1.4640    0.3453    1.3767 C   0  0  0  0  0  0  0  0  0  0  0  0
    2.6554    0.2980    2.2442 N   0  0  0  0  0  0  0  0  0  0  0  0
    3.3054   -1.0159    2.2589 C   0  0  0  0  0  0  0  0  0  0  0  0
    4.3986   -1.0659    3.3285 C   0  0  0  0  0  0  0  0  0  0  0  0
    5.4159    0.0543    3.1361 C   0  0  0  0  0  0  0  0  0  0  0  0
    4.7136    1.4039    3.0300 C   0  0  0  0  0  0  0  0  0  0  0  0
    3.6116    1.3750    1.9691 C   0  0  0  0  0  0  0  0  0  0  0  0
   -0.2425   -1.2335   -1.1459 C   0  0  0  0  0  0  0  0  0  0  0  0
    0.0534   -2.3296   -0.3356 C   0  0  0  0  0  0  0  0  0  0  0  0
   -0.6287   -3.5498   -0.4866 C   0  0  0  0  0  0  0  0  0  0  0  0
   -1.6354   -3.7407   -1.4465 C   0  0  0  0  0  0  0  0  0  0  0  0
   -2.3115   -4.9590   -1.5996 N   0  0  0  0  0  0  0  0  0  0  0  0
   -2.0919   -6.0203   -0.6194 C   0  0  0  0  0  0  0  0  0  0  0  0
   -3.6383   -4.9355   -2.2124 C   0  0  0  0  0  0  0  0  0  0  0  0
   -1.8890   -2.6425   -2.2818 C   0  0  0  0  0  0  0  0  0  0  0  0
   -1.2145   -1.4203   -2.1392 C   0  0  0  0  0  0  0  0  0  0  0  0
   -2.9132   -1.3348    1.2573 H   0  0  0  0  0  0  0  0  0  0  0  0
   -3.6271    0.2421    1.6179 H   0  0  0  0  0  0  0  0  0  0  0  0
   -3.4220   -0.2945   -0.0853 H   0  0  0  0  0  0  0  0  0  0  0  0
   -3.0985    2.4338    1.0376 H   0  0  0  0  0  0  0  0  0  0  0  0
   -3.6465    4.6344    1.5095 H   0  0  0  0  0  0  0  0  0  0  0  0
   -4.5296    5.6906    0.4015 H   0  0  0  0  0  0  0  0  0  0  0  0
   -4.7414    3.9423    0.2473 H   0  0  0  0  0  0  0  0  0  0  0  0
   -1.5273    5.6351   -2.2620 H   0  0  0  0  0  0  0  0  0  0  0  0
    0.3196    5.5904   -3.8823 H   0  0  0  0  0  0  0  0  0  0  0  0
    0.8774    0.2139   -2.0538 H   0  0  0  0  0  0  0  0  0  0  0  0
    2.3644   -0.6405   -0.3471 H   0  0  0  0  0  0  0  0  0  0  0  0
    2.2841    1.1047   -0.4566 H   0  0  0  0  0  0  0  0  0  0  0  0
    0.7677   -0.4275    1.7176 H   0  0  0  0  0  0  0  0  0  0  0  0
    0.9583    1.2974    1.5789 H   0  0  0  0  0  0  0  0  0  0  0  0
    3.7465   -1.2559    1.2839 H   0  0  0  0  0  0  0  0  0  0  0  0
    2.5703   -1.7968    2.4875 H   0  0  0  0  0  0  0  0  0  0  0  0
    4.9067   -2.0366    3.2942 H   0  0  0  0  0  0  0  0  0  0  0  0
    3.9429   -0.9789    4.3233 H   0  0  0  0  0  0  0  0  0  0  0  0
    5.9939   -0.1293    2.2222 H   0  0  0  0  0  0  0  0  0  0  0  0
    6.1255    0.0650    3.9707 H   0  0  0  0  0  0  0  0  0  0  0  0
    5.4441    2.1831    2.7837 H   0  0  0  0  0  0  0  0  0  0  0  0
    4.2803    1.6673    4.0033 H   0  0  0  0  0  0  0  0  0  0  0  0
    4.0700    1.2565    0.9794 H   0  0  0  0  0  0  0  0  0  0  0  0
    3.0993    2.3442    1.9818 H   0  0  0  0  0  0  0  0  0  0  0  0
    0.8153   -2.2748    0.4354 H   0  0  0  0  0  0  0  0  0  0  0  0
   -0.3402   -4.3502    0.1877 H   0  0  0  0  0  0  0  0  0  0  0  0
   -1.0350   -6.3070   -0.5735 H   0  0  0  0  0  0  0  0  0  0  0  0
   -2.6375   -6.9291   -0.8958 H   0  0  0  0  0  0  0  0  0  0  0  0
   -2.4347   -5.7168    0.3762 H   0  0  0  0  0  0  0  0  0  0  0  0
   -4.0955   -5.9321   -2.2078 H   0  0  0  0  0  0  0  0  0  0  0  0
   -4.3105   -4.2635   -1.6682 H   0  0  0  0  0  0  0  0  0  0  0  0
   -3.5871   -4.6355   -3.2634 H   0  0  0  0  0  0  0  0  0  0  0  0
   -2.6141   -2.7099   -3.0868 H   0  0  0  0  0  0  0  0  0  0  0  0
   -1.4588   -0.6097   -2.8232 H   0  0  0  0  0  0  0  0  0  0  0  0
  1  2  1  0
  2  3  1  0
  3  4  2  0
  4  5  1  0
  5  6  1  0
  6  7  1  0
  5  8  2  0
  8  9  1  0
  9 10  2  0
 10 11  1  0
 11 12  2  0
 11 13  1  0
 13 14  1  0
 14 15  2  0
 15 16  1  0
 16 17  1  0
 17 18  1  0
 18 19  1  0
 19 20  1  0
 20 21  1  0
 21 22  1  0
 22 23  1  0
 23 24  1  0
 16 25  1  0
 25 26  2  0
 26 27  1  0
 27 28  2  0
 28 29  1  0
 29 30  1  0
 29 31  1  0
 28 32  1  0
 32 33  2  0
 15  3  1  0
 24 19  1  0
 33 25  1  0
 14  8  1  0
  1 34  1  0
  1 35  1  0
  1 36  1  0
  4 37  1  0
  7 38  1  0
  7 39  1  0
  7 40  1  0
  9 41  1  0
 10 42  1  0
 16 43  1  0
 17 44  1  0
 17 45  1  0
 18 46  1  0
 18 47  1  0
 20 48  1  0
 20 49  1  0
 21 50  1  0
 21 51  1  0
 22 52  1  0
 22 53  1  0
 23 54  1  0
 23 55  1  0
 24 56  1  0
 24 57  1  0
 26 58  1  0
 27 59  1  0
 30 60  1  0
 30 61  1  0
 30 62  1  0
 31 63  1  0
 31 64  1  0
 31 65  1  0
 32 66  1  0
 33 67  1  0
M  END
$$$$
