
     RDKit          3D

 33 34  0  0  0  0  0  0  0  0999 V2000
    0.4695   -3.5143    1.6453 O   0  0  0  0  0  0  0  0  0  0  0  0
    0.2737   -2.7889    0.6759 C   0  0  0  0  0  0  0  0  0  0  0  0
   -0.9943   -2.9419   -0.1718 C   0  0  0  0  0  0  0  0  0  0  0  0
   -1.9591   -1.9027    0.0137 O   0  0  0  0  0  0  0  0  0  0  0  0
   -1.6950   -0.7386   -0.6227 C   0  0  0  0  0  0  0  0  0  0  0  0
   -0.6896   -0.5134   -1.2802 O   0  0  0  0  0  0  0  0  0  0  0  0
   -2.7795    0.2420   -0.4054 C   0  0  0  0  0  0  0  0  0  0  0  0
   -3.8894    0.0018    0.4104 C   0  0  0  0  0  0  0  0  0  0  0  0
   -4.8606    0.9936    0.5536 C   0  0  0  0  0  0  0  0  0  0  0  0
   -4.6812    2.1867   -0.1271 C   0  0  0  0  0  0  0  0  0  0  0  0
   -5.8291    3.4527   -0.0054 Cl  0  0  0  0  0  0  0  0  0  0  0  0
   -3.6249    2.4546   -0.9222 N   0  0  0  0  0  0  0  0  0  0  0  0
   -2.6953    1.4754   -1.0419 C   0  0  0  0  0  0  0  0  0  0  0  0
    1.1390   -1.8221    0.1875 N   0  0  0  0  0  0  0  0  0  0  0  0
    2.2444   -1.3331    0.8587 C   0  0  0  0  0  0  0  0  0  0  0  0
    2.7128   -1.7912    1.8931 O   0  0  0  0  0  0  0  0  0  0  0  0
    2.8909   -0.1344    0.2474 C   0  0  0  0  0  0  0  0  0  0  0  0
    2.8606    0.1169   -1.1315 C   0  0  0  0  0  0  0  0  0  0  0  0
    3.4784    1.2593   -1.6475 C   0  0  0  0  0  0  0  0  0  0  0  0
    4.1337    2.1476   -0.7951 C   0  0  0  0  0  0  0  0  0  0  0  0
    4.1819    1.8941    0.5746 C   0  0  0  0  0  0  0  0  0  0  0  0
    3.5664    0.7544    1.0948 C   0  0  0  0  0  0  0  0  0  0  0  0
   -0.7266   -3.0449   -1.2309 H   0  0  0  0  0  0  0  0  0  0  0  0
   -1.4768   -3.8829    0.1153 H   0  0  0  0  0  0  0  0  0  0  0  0
   -4.0098   -0.9407    0.9389 H   0  0  0  0  0  0  0  0  0  0  0  0
   -5.7306    0.8345    1.1814 H   0  0  0  0  0  0  0  0  0  0  0  0
   -1.8566    1.7265   -1.6881 H   0  0  0  0  0  0  0  0  0  0  0  0
    0.7713   -1.2486   -0.5670 H   0  0  0  0  0  0  0  0  0  0  0  0
    2.3861   -0.5704   -1.8257 H   0  0  0  0  0  0  0  0  0  0  0  0
    3.4571    1.4532   -2.7175 H   0  0  0  0  0  0  0  0  0  0  0  0
    4.6163    3.0341   -1.1998 H   0  0  0  0  0  0  0  0  0  0  0  0
    4.7020    2.5803    1.2387 H   0  0  0  0  0  0  0  0  0  0  0  0
    3.6142    0.5603    2.1652 H   0  0  0  0  0  0  0  0  0  0  0  0
  1  2  2  0
  2  3  1  0
  3  4  1  0
  4  5  1  0
  5  6  2  0
  5  7  1  0
  7  8  2  0
  8  9  1  0
  9 10  2  0
 10 11  1  0
 10 12  1  0
 12 13  2  0
  2 14  1  0
 14 15  1  0
 15 16  2  0
 15 17  1  0
 17 18  2  0
 18 19  1  0
 19 20  2  0
 20 21  1  0
 21 22  2  0
 13  7  1  0
 22 17  1  0
  3 23  1  0
  3 24  1  0
  8 25  1  0
  9 26  1  0
 13 27  1  0
 14 28  1  0
 18 29  1  0
 19 30  1  0
 20 31  1  0
 21 32  1  0
 22 33  1  0
M  END
$$$$
