
     RDKit          3D

 55 59  0  0  0  0  0  0  0  0999 V2000
    3.0363    0.4915   -2.2309 C   0  0  0  0  0  0  0  0  0  0  0  0
    3.5553    0.3890   -0.8892 N   0  0  0  0  0  0  0  0  0  0  0  0
    2.8364    0.5363    0.2804 C   0  0  0  0  0  0  0  0  0  0  0  0
    1.4840    0.6958    0.2961 N   0  0  0  0  0  0  0  0  0  0  0  0
    0.9309    1.2871    1.5321 C   0  0  0  0  0  0  0  0  0  0  0  0
   -0.5952    1.4707    1.3904 C   0  0  0  0  0  0  0  0  0  0  0  0
   -1.3265    0.2017    1.2138 N   0  0  0  0  0  0  0  0  0  0  0  0
   -2.6689    0.3687    0.6100 C   0  0  0  0  0  0  0  0  0  0  0  0
   -2.6632    0.4794   -0.9239 C   0  0  0  0  0  0  0  0  0  0  0  0
   -2.5720    1.7406   -1.5385 C   0  0  0  0  0  0  0  0  0  0  0  0
   -2.5529    1.8625   -2.9298 C   0  0  0  0  0  0  0  0  0  0  0  0
   -2.6307    0.7268   -3.7317 C   0  0  0  0  0  0  0  0  0  0  0  0
   -2.7318   -0.5312   -3.1442 C   0  0  0  0  0  0  0  0  0  0  0  0
   -2.7488   -0.6544   -1.7532 C   0  0  0  0  0  0  0  0  0  0  0  0
   -3.7214   -0.6176    1.1579 C   0  0  0  0  0  0  0  0  0  0  0  0
   -3.4286   -1.5791    2.1401 C   0  0  0  0  0  0  0  0  0  0  0  0
   -4.4184   -2.4372    2.6283 C   0  0  0  0  0  0  0  0  0  0  0  0
   -5.7241   -2.3419    2.1550 C   0  0  0  0  0  0  0  0  0  0  0  0
   -6.0445   -1.3828    1.1993 C   0  0  0  0  0  0  0  0  0  0  0  0
   -5.0559   -0.5247    0.7119 C   0  0  0  0  0  0  0  0  0  0  0  0
   -0.4680   -0.8560    0.6556 C   0  0  0  0  0  0  0  0  0  0  0  0
    0.6496   -0.3732   -0.2994 C   0  0  0  0  0  0  0  0  0  0  0  0
    3.6439    0.5608    1.3178 N   0  0  0  0  0  0  0  0  0  0  0  0
    4.9021    0.3377    0.8231 C   0  0  0  0  0  0  0  0  0  0  0  0
    6.1222    0.2313    1.5078 C   0  0  0  0  0  0  0  0  0  0  0  0
    7.2906   -0.0019    0.7731 C   0  0  0  0  0  0  0  0  0  0  0  0
    7.2457   -0.1246   -0.6166 C   0  0  0  0  0  0  0  0  0  0  0  0
    6.0382   -0.0170   -1.3172 C   0  0  0  0  0  0  0  0  0  0  0  0
    4.8813    0.2142   -0.5620 C   0  0  0  0  0  0  0  0  0  0  0  0
    2.2164    1.2136   -2.2536 H   0  0  0  0  0  0  0  0  0  0  0  0
    3.8227    0.8420   -2.9039 H   0  0  0  0  0  0  0  0  0  0  0  0
    2.6910   -0.4972   -2.5424 H   0  0  0  0  0  0  0  0  0  0  0  0
    1.1535    0.6564    2.4032 H   0  0  0  0  0  0  0  0  0  0  0  0
    1.3866    2.2701    1.7053 H   0  0  0  0  0  0  0  0  0  0  0  0
   -0.7616    2.1431    0.5420 H   0  0  0  0  0  0  0  0  0  0  0  0
   -0.9796    1.9747    2.2845 H   0  0  0  0  0  0  0  0  0  0  0  0
   -3.0556    1.3287    0.9883 H   0  0  0  0  0  0  0  0  0  0  0  0
   -2.5172    2.6435   -0.9342 H   0  0  0  0  0  0  0  0  0  0  0  0
   -2.4802    2.8462   -3.3866 H   0  0  0  0  0  0  0  0  0  0  0  0
   -2.6203    0.8230   -4.8141 H   0  0  0  0  0  0  0  0  0  0  0  0
   -2.8041   -1.4187   -3.7675 H   0  0  0  0  0  0  0  0  0  0  0  0
   -2.8425   -1.6477   -1.3180 H   0  0  0  0  0  0  0  0  0  0  0  0
   -2.4249   -1.6666    2.5493 H   0  0  0  0  0  0  0  0  0  0  0  0
   -4.1671   -3.1749    3.3861 H   0  0  0  0  0  0  0  0  0  0  0  0
   -6.4922   -3.0082    2.5378 H   0  0  0  0  0  0  0  0  0  0  0  0
   -7.0647   -1.2974    0.8343 H   0  0  0  0  0  0  0  0  0  0  0  0
   -5.3348    0.2237   -0.0281 H   0  0  0  0  0  0  0  0  0  0  0  0
   -1.0461   -1.6567    0.1836 H   0  0  0  0  0  0  0  0  0  0  0  0
    0.0213   -1.3442    1.5099 H   0  0  0  0  0  0  0  0  0  0  0  0
    1.2575   -1.2455   -0.5714 H   0  0  0  0  0  0  0  0  0  0  0  0
    0.2096    0.0143   -1.2241 H   0  0  0  0  0  0  0  0  0  0  0  0
    6.1469    0.3286    2.5873 H   0  0  0  0  0  0  0  0  0  0  0  0
    8.2413   -0.0870    1.2936 H   0  0  0  0  0  0  0  0  0  0  0  0
    8.1668   -0.3049   -1.1669 H   0  0  0  0  0  0  0  0  0  0  0  0
    6.0117   -0.1112   -2.3971 H   0  0  0  0  0  0  0  0  0  0  0  0
  1  2  1  0
  2  3  1  0
  3  4  1  0
  4  5  1  0
  5  6  1  0
  6  7  1  0
  7  8  1  0
  8  9  1  0
  9 10  2  0
 10 11  1  0
 11 12  2  0
 12 13  1  0
 13 14  2  0
  8 15  1  0
 15 16  2  0
 16 17  1  0
 17 18  2  0
 18 19  1  0
 19 20  2  0
  7 21  1  0
 21 22  1  0
  3 23  2  0
 23 24  1  0
 24 25  2  0
 25 26  1  0
 26 27  2  0
 27 28  1  0
 28 29  2  0
 29  2  1  0
 22  4  1  0
 29 24  1  0
 14  9  1  0
 20 15  1  0
  1 30  1  0
  1 31  1  0
  1 32  1  0
  5 33  1  0
  5 34  1  0
  6 35  1  0
  6 36  1  0
  8 37  1  0
 10 38  1  0
 11 39  1  0
 12 40  1  0
 13 41  1  0
 14 42  1  0
 16 43  1  0
 17 44  1  0
 18 45  1  0
 19 46  1  0
 20 47  1  0
 21 48  1  0
 21 49  1  0
 22 50  1  0
 22 51  1  0
 25 52  1  0
 26 53  1  0
 27 54  1  0
 28 55  1  0
M  END
$$$$
