
     RDKit          3D

 68 70  0  0  0  0  0  0  0  0999 V2000
    4.2950    4.0415   -1.2310 C   0  0  0  0  0  0  0  0  0  0  0  0
    3.7247    2.8443   -0.4857 C   0  0  0  0  0  0  0  0  0  0  0  0
    4.8154    2.0542    0.1413 N   0  0  0  0  0  0  0  0  0  0  0  0
    5.6602    1.2891   -0.8086 C   0  0  0  0  0  0  0  0  0  0  0  0
    7.0634    1.8709   -0.8194 C   0  0  0  0  0  0  0  0  0  0  0  0
    4.4581    1.2920    1.6266 S   0  0  0  0  0  6  0  0  0  0  0  0
    3.7056    2.2060    2.4584 O   0  0  0  0  0  0  0  0  0  0  0  0
    5.6801    0.6830    2.1147 O   0  0  0  0  0  0  0  0  0  0  0  0
    3.3588   -0.0314    1.1563 C   0  0  0  0  0  0  0  0  0  0  0  0
    3.8309   -1.3469    1.1273 C   0  0  0  0  0  0  0  0  0  0  0  0
    2.9651   -2.3849    0.7794 C   0  0  0  0  0  0  0  0  0  0  0  0
    1.6269   -2.1174    0.4562 C   0  0  0  0  0  0  0  0  0  0  0  0
    0.7050   -3.1393    0.1114 N   0  0  0  0  0  0  0  0  0  0  0  0
    0.2824   -3.9160    1.3054 C   0  0  0  0  0  0  0  0  0  0  0  0
   -0.4869   -5.1689    0.8574 C   0  0  0  0  0  0  0  0  0  0  0  0
    0.2881   -6.0651    0.0447 O   0  0  0  0  0  0  0  0  0  0  0  0
    1.4093   -5.4380   -0.5925 C   0  0  0  0  0  0  0  0  0  0  0  0
    1.1249   -3.9926   -1.0304 C   0  0  0  0  0  0  0  0  0  0  0  0
    1.1641   -0.7770    0.4954 C   0  0  0  0  0  0  0  0  0  0  0  0
   -0.1858   -0.5870    0.1349 N   0  0  0  0  0  0  0  0  0  0  0  0
   -0.8718    0.5976   -0.0219 C   0  0  0  0  0  0  0  0  0  0  0  0
   -0.3950    1.7238    0.0704 O   0  0  0  0  0  0  0  0  0  0  0  0
   -2.3277    0.3801   -0.4032 C   0  0  0  0  0  0  0  0  0  0  0  0
   -3.2402    1.3706    0.3217 C   0  0  0  0  0  0  0  0  0  0  0  0
   -4.7384    1.1077    0.0772 C   0  0  0  0  0  0  0  0  0  0  0  0
   -5.5817    1.9694    1.0336 C   0  0  0  0  0  0  0  0  0  0  0  0
   -7.0789    1.7797    0.8045 C   0  0  0  0  0  0  0  0  0  0  0  0
   -7.4630    2.0471   -0.6463 C   0  0  0  0  0  0  0  0  0  0  0  0
   -6.6408    1.1928   -1.6056 C   0  0  0  0  0  0  0  0  0  0  0  0
   -5.1402    1.3747   -1.3837 C   0  0  0  0  0  0  0  0  0  0  0  0
    2.0219    0.2560    0.8684 C   0  0  0  0  0  0  0  0  0  0  0  0
    3.4850    4.6867   -1.5858 H   0  0  0  0  0  0  0  0  0  0  0  0
    4.8753    3.7292   -2.1045 H   0  0  0  0  0  0  0  0  0  0  0  0
    4.9502    4.6339   -0.5836 H   0  0  0  0  0  0  0  0  0  0  0  0
    3.0416    3.2292    0.2772 H   0  0  0  0  0  0  0  0  0  0  0  0
    3.1444    2.2153   -1.1688 H   0  0  0  0  0  0  0  0  0  0  0  0
    5.7131    0.2304   -0.5328 H   0  0  0  0  0  0  0  0  0  0  0  0
    5.2365    1.3170   -1.8186 H   0  0  0  0  0  0  0  0  0  0  0  0
    7.5136    1.8348    0.1783 H   0  0  0  0  0  0  0  0  0  0  0  0
    7.0581    2.9162   -1.1443 H   0  0  0  0  0  0  0  0  0  0  0  0
    7.7015    1.3065   -1.5057 H   0  0  0  0  0  0  0  0  0  0  0  0
    4.8644   -1.5726    1.3834 H   0  0  0  0  0  0  0  0  0  0  0  0
    3.3438   -3.4024    0.7750 H   0  0  0  0  0  0  0  0  0  0  0  0
   -0.3626   -3.2956    1.9379 H   0  0  0  0  0  0  0  0  0  0  0  0
    1.1514   -4.2263    1.8996 H   0  0  0  0  0  0  0  0  0  0  0  0
   -1.3728   -4.8855    0.2769 H   0  0  0  0  0  0  0  0  0  0  0  0
   -0.8325   -5.7344    1.7281 H   0  0  0  0  0  0  0  0  0  0  0  0
    1.6728   -6.0447   -1.4643 H   0  0  0  0  0  0  0  0  0  0  0  0
    2.2569   -5.4809    0.0995 H   0  0  0  0  0  0  0  0  0  0  0  0
    1.9882   -3.5791   -1.5655 H   0  0  0  0  0  0  0  0  0  0  0  0
    0.2873   -4.0011   -1.7389 H   0  0  0  0  0  0  0  0  0  0  0  0
   -0.6477   -1.4642   -0.0914 H   0  0  0  0  0  0  0  0  0  0  0  0
   -2.3945    0.5068   -1.4898 H   0  0  0  0  0  0  0  0  0  0  0  0
   -2.6342   -0.6462   -0.1681 H   0  0  0  0  0  0  0  0  0  0  0  0
   -3.0343    1.3082    1.3981 H   0  0  0  0  0  0  0  0  0  0  0  0
   -2.9886    2.3951    0.0210 H   0  0  0  0  0  0  0  0  0  0  0  0
   -4.9475    0.0525    0.3033 H   0  0  0  0  0  0  0  0  0  0  0  0
   -5.3273    3.0299    0.9047 H   0  0  0  0  0  0  0  0  0  0  0  0
   -5.3446    1.7099    2.0727 H   0  0  0  0  0  0  0  0  0  0  0  0
   -7.6404    2.4500    1.4654 H   0  0  0  0  0  0  0  0  0  0  0  0
   -7.3622    0.7546    1.0737 H   0  0  0  0  0  0  0  0  0  0  0  0
   -8.5296    1.8409   -0.7897 H   0  0  0  0  0  0  0  0  0  0  0  0
   -7.3073    3.1090   -0.8764 H   0  0  0  0  0  0  0  0  0  0  0  0
   -6.8944    1.4529   -2.6396 H   0  0  0  0  0  0  0  0  0  0  0  0
   -6.9037    0.1363   -1.4689 H   0  0  0  0  0  0  0  0  0  0  0  0
   -4.6046    0.6961   -2.0578 H   0  0  0  0  0  0  0  0  0  0  0  0
   -4.8545    2.3964   -1.6661 H   0  0  0  0  0  0  0  0  0  0  0  0
    1.6696    1.2794    0.9466 H   0  0  0  0  0  0  0  0  0  0  0  0
  1  2  1  0
  2  3  1  0
  3  4  1  0
  4  5  1  0
  3  6  1  0
  6  7  2  0
  6  8  2  0
  6  9  1  0
  9 10  2  0
 10 11  1  0
 11 12  2  0
 12 13  1  0
 13 14  1  0
 14 15  1  0
 15 16  1  0
 16 17  1  0
 17 18  1  0
 12 19  1  0
 19 20  1  0
 20 21  1  0
 21 22  2  0
 21 23  1  0
 23 24  1  0
 24 25  1  0
 25 26  1  0
 26 27  1  0
 27 28  1  0
 28 29  1  0
 29 30  1  0
 19 31  2  0
 31  9  1  0
 18 13  1  0
 30 25  1  0
  1 32  1  0
  1 33  1  0
  1 34  1  0
  2 35  1  0
  2 36  1  0
  4 37  1  0
  4 38  1  0
  5 39  1  0
  5 40  1  0
  5 41  1  0
 10 42  1  0
 11 43  1  0
 14 44  1  0
 14 45  1  0
 15 46  1  0
 15 47  1  0
 17 48  1  0
 17 49  1  0
 18 50  1  0
 18 51  1  0
 20 52  1  0
 23 53  1  0
 23 54  1  0
 24 55  1  0
 24 56  1  0
 25 57  1  0
 26 58  1  0
 26 59  1  0
 27 60  1  0
 27 61  1  0
 28 62  1  0
 28 63  1  0
 29 64  1  0
 29 65  1  0
 30 66  1  0
 30 67  1  0
 31 68  1  0
M  END
$$$$
