
     RDKit          3D

 55 58  0  0  0  0  0  0  0  0999 V2000
    7.5183    1.6386   -0.2772 C   0  0  0  0  0  0  0  0  0  0  0  0
    6.1768    1.3027   -0.6092 O   0  0  0  0  0  0  0  0  0  0  0  0
    5.3452    0.9344    0.4154 C   0  0  0  0  0  0  0  0  0  0  0  0
    5.7208    0.8748    1.7620 C   0  0  0  0  0  0  0  0  0  0  0  0
    4.7951    0.5074    2.7423 C   0  0  0  0  0  0  0  0  0  0  0  0
    3.4855    0.2012    2.3884 C   0  0  0  0  0  0  0  0  0  0  0  0
    3.1011    0.2544    1.0509 C   0  0  0  0  0  0  0  0  0  0  0  0
    4.0261    0.6079    0.0512 C   0  0  0  0  0  0  0  0  0  0  0  0
    3.5556    0.6734   -1.3830 C   0  0  0  0  0  0  0  0  0  0  0  0
    2.8943    1.9458   -1.6474 N   0  0  0  0  0  0  0  0  0  0  0  0
    1.7258    2.0190   -2.8321 S   0  0  0  0  0  6  0  0  0  0  0  0
    2.0946    1.0967   -3.8835 O   0  0  0  0  0  0  0  0  0  0  0  0
    1.4768    3.4184   -3.0943 O   0  0  0  0  0  0  0  0  0  0  0  0
    0.3060    1.3775   -1.9803 C   0  0  0  0  0  0  0  0  0  0  0  0
   -0.1784    2.0639   -0.8538 C   0  0  0  0  0  0  0  0  0  0  0  0
   -1.2757    1.5648   -0.1429 C   0  0  0  0  0  0  0  0  0  0  0  0
   -1.8832    0.3997   -0.5852 C   0  0  0  0  0  0  0  0  0  0  0  0
   -1.3887   -0.2741   -1.7090 C   0  0  0  0  0  0  0  0  0  0  0  0
   -0.2935    0.1947   -2.4195 C   0  0  0  0  0  0  0  0  0  0  0  0
   -2.1355   -1.5506   -1.9364 C   0  0  0  0  0  0  0  0  0  0  0  0
   -3.3759   -1.3333   -1.0450 C   0  0  0  0  0  0  0  0  0  0  0  0
   -4.5480   -0.8234   -1.8991 C   0  0  0  0  0  0  0  0  0  0  0  0
   -2.9855   -0.3088   -0.0431 N   0  0  0  0  0  0  0  0  0  0  0  0
   -3.6304    0.0191    1.1489 C   0  0  0  0  0  0  0  0  0  0  0  0
   -3.4576    1.1231    1.6942 O   0  0  0  0  0  0  0  0  0  0  0  0
   -4.5031   -1.0127    1.8848 C   0  0  0  0  0  0  0  0  0  0  0  0
   -5.7099   -1.7672    1.2864 C   0  0  0  0  0  0  0  0  0  0  0  0
   -5.3566   -2.9420    2.2231 C   0  0  0  0  0  0  0  0  0  0  0  0
   -3.9152   -2.3959    2.2621 C   0  0  0  0  0  0  0  0  0  0  0  0
    8.0417    0.7838    0.1632 H   0  0  0  0  0  0  0  0  0  0  0  0
    7.5548    2.5110    0.3834 H   0  0  0  0  0  0  0  0  0  0  0  0
    8.0352    1.9027   -1.2046 H   0  0  0  0  0  0  0  0  0  0  0  0
    6.7279    1.1138    2.0869 H   0  0  0  0  0  0  0  0  0  0  0  0
    5.0975    0.4684    3.7858 H   0  0  0  0  0  0  0  0  0  0  0  0
    2.7626   -0.0730    3.1523 H   0  0  0  0  0  0  0  0  0  0  0  0
    2.0704    0.0255    0.7861 H   0  0  0  0  0  0  0  0  0  0  0  0
    2.8762   -0.1691   -1.5593 H   0  0  0  0  0  0  0  0  0  0  0  0
    4.3912    0.5456   -2.0788 H   0  0  0  0  0  0  0  0  0  0  0  0
    3.4355    2.7979   -1.5183 H   0  0  0  0  0  0  0  0  0  0  0  0
    0.3009    2.9837   -0.5239 H   0  0  0  0  0  0  0  0  0  0  0  0
   -1.6311    2.1070    0.7267 H   0  0  0  0  0  0  0  0  0  0  0  0
    0.0878   -0.3476   -3.2798 H   0  0  0  0  0  0  0  0  0  0  0  0
   -1.5357   -2.3880   -1.5628 H   0  0  0  0  0  0  0  0  0  0  0  0
   -2.3843   -1.7171   -2.9884 H   0  0  0  0  0  0  0  0  0  0  0  0
   -3.6563   -2.2691   -0.5596 H   0  0  0  0  0  0  0  0  0  0  0  0
   -5.3953   -0.5077   -1.2843 H   0  0  0  0  0  0  0  0  0  0  0  0
   -4.8911   -1.6065   -2.5830 H   0  0  0  0  0  0  0  0  0  0  0  0
   -4.2589    0.0455   -2.5018 H   0  0  0  0  0  0  0  0  0  0  0  0
   -4.8483   -0.5220    2.8156 H   0  0  0  0  0  0  0  0  0  0  0  0
   -6.6854   -1.3073    1.4705 H   0  0  0  0  0  0  0  0  0  0  0  0
   -5.6620   -2.0521    0.2362 H   0  0  0  0  0  0  0  0  0  0  0  0
   -5.4742   -3.9416    1.7978 H   0  0  0  0  0  0  0  0  0  0  0  0
   -5.8689   -2.9024    3.1913 H   0  0  0  0  0  0  0  0  0  0  0  0
   -3.2476   -2.8446    1.5207 H   0  0  0  0  0  0  0  0  0  0  0  0
   -3.4272   -2.4468    3.2398 H   0  0  0  0  0  0  0  0  0  0  0  0
  1  2  1  0
  2  3  1  0
  3  4  2  0
  4  5  1  0
  5  6  2  0
  6  7  1  0
  7  8  2  0
  8  9  1  0
  9 10  1  0
 10 11  1  0
 11 12  2  0
 11 13  2  0
 11 14  1  0
 14 15  2  0
 15 16  1  0
 16 17  2  0
 17 18  1  0
 18 19  2  0
 18 20  1  0
 20 21  1  0
 21 22  1  0
 21 23  1  0
 23 24  1  0
 24 25  2  0
 24 26  1  0
 26 27  1  0
 27 28  1  0
 28 29  1  0
  8  3  1  0
 19 14  1  0
 29 26  1  0
 23 17  1  0
  1 30  1  0
  1 31  1  0
  1 32  1  0
  4 33  1  0
  5 34  1  0
  6 35  1  0
  7 36  1  0
  9 37  1  0
  9 38  1  0
 10 39  1  0
 15 40  1  0
 16 41  1  0
 19 42  1  0
 20 43  1  0
 20 44  1  0
 21 45  1  0
 22 46  1  0
 22 47  1  0
 22 48  1  0
 26 49  1  0
 27 50  1  0
 27 51  1  0
 28 52  1  0
 28 53  1  0
 29 54  1  0
 29 55  1  0
M  END
$$$$
