
     RDKit          3D

 55 58  0  0  0  0  0  0  0  0999 V2000
    4.2642   -1.0827    3.2093 C   0  0  0  0  0  0  0  0  0  0  0  0
    4.3910   -0.9544    1.7019 C   0  0  0  0  0  0  0  0  0  0  0  0
    3.8806   -2.1137    1.0456 O   0  0  0  0  0  0  0  0  0  0  0  0
    2.5578   -2.1690    0.6991 C   0  0  0  0  0  0  0  0  0  0  0  0
    1.5901   -1.2311    1.0736 C   0  0  0  0  0  0  0  0  0  0  0  0
    0.2518   -1.3783    0.6762 C   0  0  0  0  0  0  0  0  0  0  0  0
   -0.7244   -0.3629    1.0963 C   0  0  0  0  0  0  0  0  0  0  0  0
   -1.5801    0.3189    0.3075 C   0  0  0  0  0  0  0  0  0  0  0  0
   -1.6432    0.1137   -1.1749 C   0  0  0  0  0  0  0  0  0  0  0  0
   -2.7110   -0.2443   -1.6759 O   0  0  0  0  0  0  0  0  0  0  0  0
   -0.5040    0.3738   -1.9246 N   0  0  0  0  0  0  0  0  0  0  0  0
    0.5125    1.3569   -1.5259 C   0  0  0  0  0  0  0  0  0  0  0  0
    1.8571    1.0714   -2.2008 C   0  0  0  0  0  0  0  0  0  0  0  0
    1.7097    0.9831   -3.6253 O   0  0  0  0  0  0  0  0  0  0  0  0
    0.8103   -0.0804   -3.9706 C   0  0  0  0  0  0  0  0  0  0  0  0
   -0.5777    0.1567   -3.3711 C   0  0  0  0  0  0  0  0  0  0  0  0
   -2.4926    1.2238    0.9226 C   0  0  0  0  0  0  0  0  0  0  0  0
   -2.4308    1.8388    2.0910 N   0  0  0  0  0  0  0  0  0  0  0  0
   -3.5743    2.5957    2.1789 C   0  0  0  0  0  0  0  0  0  0  0  0
   -4.0084    3.4494    3.2025 C   0  0  0  0  0  0  0  0  0  0  0  0
   -5.2309    4.1156    3.0476 C   0  0  0  0  0  0  0  0  0  0  0  0
   -6.0051    3.9319    1.8991 C   0  0  0  0  0  0  0  0  0  0  0  0
   -5.5877    3.0833    0.8667 C   0  0  0  0  0  0  0  0  0  0  0  0
   -4.3639    2.4368    1.0470 C   0  0  0  0  0  0  0  0  0  0  0  0
   -3.6611    1.5557    0.2681 N   0  0  0  0  0  0  0  0  0  0  0  0
   -0.1279   -2.5008   -0.0659 C   0  0  0  0  0  0  0  0  0  0  0  0
    0.8271   -3.4467   -0.4397 C   0  0  0  0  0  0  0  0  0  0  0  0
    0.3077   -4.8153   -1.3572 Cl  0  0  0  0  0  0  0  0  0  0  0  0
    2.1680   -3.2734   -0.0793 C   0  0  0  0  0  0  0  0  0  0  0  0
    3.0949   -4.2298   -0.4242 O   0  0  0  0  0  0  0  0  0  0  0  0
    3.7745   -3.8491   -1.6222 C   0  0  0  0  0  0  0  0  0  0  0  0
    4.7898   -1.9757    3.5634 H   0  0  0  0  0  0  0  0  0  0  0  0
    4.6886   -0.2056    3.7061 H   0  0  0  0  0  0  0  0  0  0  0  0
    3.2216   -1.1877    3.5177 H   0  0  0  0  0  0  0  0  0  0  0  0
    3.9480   -0.0275    1.3212 H   0  0  0  0  0  0  0  0  0  0  0  0
    5.4565   -0.8992    1.4499 H   0  0  0  0  0  0  0  0  0  0  0  0
    1.8486   -0.3704    1.6834 H   0  0  0  0  0  0  0  0  0  0  0  0
   -0.7291   -0.1685    2.1685 H   0  0  0  0  0  0  0  0  0  0  0  0
    0.1351    2.3354   -1.8538 H   0  0  0  0  0  0  0  0  0  0  0  0
    0.6363    1.4055   -0.4425 H   0  0  0  0  0  0  0  0  0  0  0  0
    2.5619    1.8799   -1.9863 H   0  0  0  0  0  0  0  0  0  0  0  0
    2.2965    0.1377   -1.8308 H   0  0  0  0  0  0  0  0  0  0  0  0
    0.7449   -0.1230   -5.0623 H   0  0  0  0  0  0  0  0  0  0  0  0
    1.2337   -1.0304   -3.6210 H   0  0  0  0  0  0  0  0  0  0  0  0
   -1.2371   -0.6895   -3.5960 H   0  0  0  0  0  0  0  0  0  0  0  0
   -1.0231    1.0613   -3.8022 H   0  0  0  0  0  0  0  0  0  0  0  0
   -3.4035    3.5837    4.0925 H   0  0  0  0  0  0  0  0  0  0  0  0
   -5.5804    4.7810    3.8335 H   0  0  0  0  0  0  0  0  0  0  0  0
   -6.9518    4.4592    1.8037 H   0  0  0  0  0  0  0  0  0  0  0  0
   -6.1890    2.9401   -0.0244 H   0  0  0  0  0  0  0  0  0  0  0  0
   -3.9533    1.1820   -0.6277 H   0  0  0  0  0  0  0  0  0  0  0  0
   -1.1676   -2.6502   -0.3506 H   0  0  0  0  0  0  0  0  0  0  0  0
    4.3710   -2.9408   -1.4736 H   0  0  0  0  0  0  0  0  0  0  0  0
    3.0722   -3.7098   -2.4522 H   0  0  0  0  0  0  0  0  0  0  0  0
    4.4560   -4.6614   -1.8919 H   0  0  0  0  0  0  0  0  0  0  0  0
  1  2  1  0
  2  3  1  0
  3  4  1  0
  4  5  2  0
  5  6  1  0
  6  7  1  0
  7  8  2  3
  8  9  1  0
  9 10  2  0
  9 11  1  0
 11 12  1  0
 12 13  1  0
 13 14  1  0
 14 15  1  0
 15 16  1  0
  8 17  1  0
 17 18  2  0
 18 19  1  0
 19 20  2  0
 20 21  1  0
 21 22  2  0
 22 23  1  0
 23 24  2  0
 24 25  1  0
  6 26  2  0
 26 27  1  0
 27 28  1  0
 27 29  2  0
 29 30  1  0
 30 31  1  0
 29  4  1  0
 16 11  1  0
 25 17  1  0
 24 19  1  0
  1 32  1  0
  1 33  1  0
  1 34  1  0
  2 35  1  0
  2 36  1  0
  5 37  1  0
  7 38  1  0
 12 39  1  0
 12 40  1  0
 13 41  1  0
 13 42  1  0
 15 43  1  0
 15 44  1  0
 16 45  1  0
 16 46  1  0
 20 47  1  0
 21 48  1  0
 22 49  1  0
 23 50  1  0
 25 51  1  0
 26 52  1  0
 31 53  1  0
 31 54  1  0
 31 55  1  0
M  END
$$$$
