
     RDKit          3D

 33 35  0  0  0  0  0  0  0  0999 V2000
    4.8031    0.2749    0.8601 C   0  0  0  0  0  0  0  0  0  0  0  0
    3.5959    0.2763    0.0114 C   0  0  0  0  0  0  0  0  0  0  0  0
    3.3110    0.7825   -1.2338 C   0  0  0  0  0  0  0  0  0  0  0  0
    1.9652    0.4350   -1.4975 C   0  0  0  0  0  0  0  0  0  0  0  0
    1.4852   -0.2722   -0.4006 C   0  0  0  0  0  0  0  0  0  0  0  0
    0.1872   -0.8485   -0.1804 C   0  0  0  0  0  0  0  0  0  0  0  0
   -1.0201   -0.0214    0.0033 C   0  0  0  0  0  0  0  0  0  0  0  0
   -2.2194   -0.6087    0.1683 C   0  0  0  0  0  0  0  0  0  0  0  0
   -2.3091   -1.9765    0.1909 N   0  0  0  0  0  0  0  0  0  0  0  0
   -1.2430   -2.8366    0.0682 C   0  0  0  0  0  0  0  0  0  0  0  0
   -1.5902   -4.4786    0.1586 S   0  0  0  0  0  0  0  0  0  0  0  0
    0.1034   -2.2031   -0.1403 C   0  0  0  0  0  0  0  0  0  0  0  0
    1.2397   -3.0526   -0.3249 C   0  0  0  0  0  0  0  0  0  0  0  0
    2.1610   -3.7396   -0.4934 N   0  0  0  0  0  0  0  0  0  0  0  0
   -3.5099    0.1507    0.3400 C   0  0  0  0  0  0  0  0  0  0  0  0
   -3.3856    1.6332   -0.0084 C   0  0  0  0  0  0  0  0  0  0  0  0
   -2.1058    2.2173    0.5730 C   0  0  0  0  0  0  0  0  0  0  0  0
   -0.8728    1.4863    0.0335 C   0  0  0  0  0  0  0  0  0  0  0  0
    2.5037   -0.3503    0.5215 O   0  0  0  0  0  0  0  0  0  0  0  0
    4.6009    0.7710    1.8142 H   0  0  0  0  0  0  0  0  0  0  0  0
    5.6283    0.8009    0.3703 H   0  0  0  0  0  0  0  0  0  0  0  0
    5.1259   -0.7506    1.0646 H   0  0  0  0  0  0  0  0  0  0  0  0
    3.9909    1.3259   -1.8751 H   0  0  0  0  0  0  0  0  0  0  0  0
    1.4016    0.6616   -2.3925 H   0  0  0  0  0  0  0  0  0  0  0  0
   -3.2176   -2.4111    0.3296 H   0  0  0  0  0  0  0  0  0  0  0  0
   -4.2943   -0.2904   -0.2872 H   0  0  0  0  0  0  0  0  0  0  0  0
   -3.8369    0.0488    1.3826 H   0  0  0  0  0  0  0  0  0  0  0  0
   -3.3832    1.7583   -1.0987 H   0  0  0  0  0  0  0  0  0  0  0  0
   -4.2570    2.1769    0.3733 H   0  0  0  0  0  0  0  0  0  0  0  0
   -2.1314    2.1382    1.6674 H   0  0  0  0  0  0  0  0  0  0  0  0
   -2.0352    3.2842    0.3328 H   0  0  0  0  0  0  0  0  0  0  0  0
   -0.6734    1.8390   -0.9863 H   0  0  0  0  0  0  0  0  0  0  0  0
   -0.0183    1.7789    0.6555 H   0  0  0  0  0  0  0  0  0  0  0  0
  1  2  1  0
  2  3  2  0
  3  4  1  0
  4  5  2  0
  5  6  1  0
  6  7  1  0
  7  8  2  0
  8  9  1  0
  9 10  1  0
 10 11  2  0
 10 12  1  0
 12 13  1  0
 13 14  3  0
  8 15  1  0
 15 16  1  0
 16 17  1  0
 17 18  1  0
  5 19  1  0
 19  2  1  0
 12  6  2  0
 18  7  1  0
  1 20  1  0
  1 21  1  0
  1 22  1  0
  3 23  1  0
  4 24  1  0
  9 25  1  0
 15 26  1  0
 15 27  1  0
 16 28  1  0
 16 29  1  0
 17 30  1  0
 17 31  1  0
 18 32  1  0
 18 33  1  0
M  END
$$$$
