
     RDKit          3D

 52 56  0  0  0  0  0  0  0  0999 V2000
    0.1935    2.4527   -2.2363 O   0  0  0  0  0  0  0  0  0  0  0  0
    0.1835    1.7021   -1.2669 C   0  0  0  0  0  0  0  0  0  0  0  0
    1.4673    1.4114   -0.6020 C   0  0  0  0  0  0  0  0  0  0  0  0
    2.0623    0.1816   -0.8740 C   0  0  0  0  0  0  0  0  0  0  0  0
    3.2493   -0.1200   -0.2333 C   0  0  0  0  0  0  0  0  0  0  0  0
    3.9463   -1.4006   -0.4203 C   0  0  0  0  0  0  0  0  0  0  0  0
    4.1640   -2.2260    0.7011 C   0  0  0  0  0  0  0  0  0  0  0  0
    4.8026   -3.4632    0.5849 C   0  0  0  0  0  0  0  0  0  0  0  0
    5.2438   -3.9026   -0.6582 C   0  0  0  0  0  0  0  0  0  0  0  0
    5.0543   -3.1011   -1.7816 C   0  0  0  0  0  0  0  0  0  0  0  0
    4.4148   -1.8596   -1.6660 C   0  0  0  0  0  0  0  0  0  0  0  0
    4.2621   -0.9228   -3.1132 Cl  0  0  0  0  0  0  0  0  0  0  0  0
    3.8169    0.7275    0.6601 N   0  0  0  0  0  0  0  0  0  0  0  0
    3.2519    1.9246    0.8935 C   0  0  0  0  0  0  0  0  0  0  0  0
    3.8683    2.7847    1.7916 C   0  0  0  0  0  0  0  0  0  0  0  0
    3.3413    4.0442    2.0921 C   0  0  0  0  0  0  0  0  0  0  0  0
    2.1696    4.4575    1.4771 C   0  0  0  0  0  0  0  0  0  0  0  0
    1.4475    6.1582    1.8671 Br  0  0  0  0  0  0  0  0  0  0  0  0
    1.5256    3.6180    0.5741 C   0  0  0  0  0  0  0  0  0  0  0  0
    2.0587    2.3392    0.2760 C   0  0  0  0  0  0  0  0  0  0  0  0
   -0.9564    1.0999   -0.7564 N   0  0  0  0  0  0  0  0  0  0  0  0
   -2.2412    1.3260   -1.4195 C   0  0  0  0  0  0  0  0  0  0  0  0
   -3.1639    0.0900   -1.3856 C   0  0  0  0  0  0  0  0  0  0  0  0
   -3.2487   -0.5253   -0.0465 N   0  0  0  0  0  0  0  0  0  0  0  0
   -4.4824   -1.0306    0.3625 C   0  0  0  0  0  0  0  0  0  0  0  0
   -5.2936   -1.7442   -0.5225 C   0  0  0  0  0  0  0  0  0  0  0  0
   -6.5154   -2.2639   -0.0931 C   0  0  0  0  0  0  0  0  0  0  0  0
   -6.9088   -2.0680    1.2199 C   0  0  0  0  0  0  0  0  0  0  0  0
   -6.0550   -1.3642    2.0454 C   0  0  0  0  0  0  0  0  0  0  0  0
   -4.8658   -0.8569    1.6477 N   0  0  0  0  0  0  0  0  0  0  0  0
   -2.4275    0.0795    1.0114 C   0  0  0  0  0  0  0  0  0  0  0  0
   -0.9993    0.3256    0.4946 C   0  0  0  0  0  0  0  0  0  0  0  0
    1.5986   -0.5167   -1.5619 H   0  0  0  0  0  0  0  0  0  0  0  0
    3.8295   -1.8960    1.6840 H   0  0  0  0  0  0  0  0  0  0  0  0
    4.9550   -4.0806    1.4689 H   0  0  0  0  0  0  0  0  0  0  0  0
    5.7428   -4.8638   -0.7523 H   0  0  0  0  0  0  0  0  0  0  0  0
    5.4135   -3.4459   -2.7492 H   0  0  0  0  0  0  0  0  0  0  0  0
    4.7898    2.4656    2.2724 H   0  0  0  0  0  0  0  0  0  0  0  0
    3.8567    4.6853    2.8010 H   0  0  0  0  0  0  0  0  0  0  0  0
    0.6120    3.9570    0.0906 H   0  0  0  0  0  0  0  0  0  0  0  0
   -2.0881    1.6408   -2.4578 H   0  0  0  0  0  0  0  0  0  0  0  0
   -2.7194    2.1631   -0.8956 H   0  0  0  0  0  0  0  0  0  0  0  0
   -4.1493    0.4028   -1.7540 H   0  0  0  0  0  0  0  0  0  0  0  0
   -2.7725   -0.6656   -2.0784 H   0  0  0  0  0  0  0  0  0  0  0  0
   -4.9755   -1.9223   -1.5441 H   0  0  0  0  0  0  0  0  0  0  0  0
   -7.1443   -2.8206   -0.7808 H   0  0  0  0  0  0  0  0  0  0  0  0
   -7.8502   -2.4544    1.5900 H   0  0  0  0  0  0  0  0  0  0  0  0
   -6.3099   -1.1793    3.0835 H   0  0  0  0  0  0  0  0  0  0  0  0
   -2.3554   -0.5818    1.8842 H   0  0  0  0  0  0  0  0  0  0  0  0
   -2.8721    1.0293    1.3366 H   0  0  0  0  0  0  0  0  0  0  0  0
   -0.5132   -0.6359    0.2908 H   0  0  0  0  0  0  0  0  0  0  0  0
   -0.4136    0.8455    1.2606 H   0  0  0  0  0  0  0  0  0  0  0  0
  1  2  2  0
  2  3  1  0
  3  4  2  0
  4  5  1  0
  5  6  1  0
  6  7  2  0
  7  8  1  0
  8  9  2  0
  9 10  1  0
 10 11  2  0
 11 12  1  0
  5 13  2  0
 13 14  1  0
 14 15  2  0
 15 16  1  0
 16 17  2  0
 17 18  1  0
 17 19  1  0
 19 20  2  0
  2 21  1  0
 21 22  1  0
 22 23  1  0
 23 24  1  0
 24 25  1  0
 25 26  2  0
 26 27  1  0
 27 28  2  0
 28 29  1  0
 29 30  2  0
 24 31  1  0
 31 32  1  0
 20  3  1  0
 32 21  1  0
 11  6  1  0
 20 14  1  0
 30 25  1  0
  4 33  1  0
  7 34  1  0
  8 35  1  0
  9 36  1  0
 10 37  1  0
 15 38  1  0
 16 39  1  0
 19 40  1  0
 22 41  1  0
 22 42  1  0
 23 43  1  0
 23 44  1  0
 26 45  1  0
 27 46  1  0
 28 47  1  0
 29 48  1  0
 31 49  1  0
 31 50  1  0
 32 51  1  0
 32 52  1  0
M  END
$$$$
