
     RDKit          3D

 50 53  0  0  0  0  0  0  0  0999 V2000
    7.4695   -0.1209   -2.4973 C   0  0  0  0  0  0  0  0  0  0  0  0
    6.3122    0.0353   -1.5615 C   0  0  0  0  0  0  0  0  0  0  0  0
    5.0035    0.0032   -2.0400 C   0  0  0  0  0  0  0  0  0  0  0  0
    3.9180    0.1388   -1.2407 N   0  0  0  0  0  0  0  0  0  0  0  0
    4.2032    0.3152    0.0820 C   0  0  0  0  0  0  0  0  0  0  0  0
    3.0493    0.4698    1.0106 C   0  0  0  0  0  0  0  0  0  0  0  0
    3.2112    0.5853    2.2192 O   0  0  0  0  0  0  0  0  0  0  0  0
    1.8177    0.4592    0.3942 N   0  0  0  0  0  0  0  0  0  0  0  0
    0.5795    0.4532    1.1390 C   0  0  0  0  0  0  0  0  0  0  0  0
    0.2703   -0.9644    1.6760 C   0  0  0  0  0  0  0  0  0  0  0  0
   -1.2183   -1.1715    2.0835 C   0  0  0  0  0  0  0  0  0  0  0  0
   -1.4067   -2.6280    2.5489 C   0  0  0  0  0  0  0  0  0  0  0  0
   -1.5928   -0.2453    3.2586 C   0  0  0  0  0  0  0  0  0  0  0  0
   -2.1578   -0.9108    0.8633 C   0  0  0  0  0  0  0  0  0  0  0  0
   -1.7419    0.3068    0.1050 C   0  0  0  0  0  0  0  0  0  0  0  0
   -0.5115    0.9259    0.2420 C   0  0  0  0  0  0  0  0  0  0  0  0
   -0.6048    2.0777   -0.5454 C   0  0  0  0  0  0  0  0  0  0  0  0
   -1.7791    2.1763   -1.1621 N   0  0  0  0  0  0  0  0  0  0  0  0
   -2.4745    1.0531   -0.8111 N   0  0  0  0  0  0  0  0  0  0  0  0
   -3.7600    0.8278   -1.3967 C   0  0  0  0  0  0  0  0  0  0  0  0
   -4.3621    1.8710   -2.1247 C   0  0  0  0  0  0  0  0  0  0  0  0
   -5.6175    1.7028   -2.7147 C   0  0  0  0  0  0  0  0  0  0  0  0
   -6.2847    0.4883   -2.5951 C   0  0  0  0  0  0  0  0  0  0  0  0
   -5.6930   -0.5585   -1.8928 C   0  0  0  0  0  0  0  0  0  0  0  0
   -4.4354   -0.3938   -1.2990 C   0  0  0  0  0  0  0  0  0  0  0  0
    5.4993    0.3470    0.5692 C   0  0  0  0  0  0  0  0  0  0  0  0
    6.5795    0.2074   -0.2422 N   0  0  0  0  0  0  0  0  0  0  0  0
    8.4188   -0.0694   -1.9545 H   0  0  0  0  0  0  0  0  0  0  0  0
    7.4186   -1.0897   -3.0037 H   0  0  0  0  0  0  0  0  0  0  0  0
    7.4613    0.6772   -3.2460 H   0  0  0  0  0  0  0  0  0  0  0  0
    4.7915   -0.1344   -3.0959 H   0  0  0  0  0  0  0  0  0  0  0  0
    1.8117    0.2451   -0.6003 H   0  0  0  0  0  0  0  0  0  0  0  0
    0.6787    1.1461    1.9837 H   0  0  0  0  0  0  0  0  0  0  0  0
    0.9325   -1.1825    2.5243 H   0  0  0  0  0  0  0  0  0  0  0  0
    0.5239   -1.7051    0.9029 H   0  0  0  0  0  0  0  0  0  0  0  0
   -1.1384   -3.3360    1.7568 H   0  0  0  0  0  0  0  0  0  0  0  0
   -2.4481   -2.8215    2.8296 H   0  0  0  0  0  0  0  0  0  0  0  0
   -0.7783   -2.8498    3.4189 H   0  0  0  0  0  0  0  0  0  0  0  0
   -1.5384    0.8140    2.9894 H   0  0  0  0  0  0  0  0  0  0  0  0
   -2.6159   -0.4403    3.6003 H   0  0  0  0  0  0  0  0  0  0  0  0
   -0.9233   -0.4050    4.1114 H   0  0  0  0  0  0  0  0  0  0  0  0
   -2.1038   -1.7695    0.1824 H   0  0  0  0  0  0  0  0  0  0  0  0
   -3.1894   -0.8165    1.2203 H   0  0  0  0  0  0  0  0  0  0  0  0
    0.1306    2.8598   -0.6872 H   0  0  0  0  0  0  0  0  0  0  0  0
   -3.8661    2.8345   -2.2341 H   0  0  0  0  0  0  0  0  0  0  0  0
   -6.0693    2.5227   -3.2670 H   0  0  0  0  0  0  0  0  0  0  0  0
   -7.2601    0.3550   -3.0553 H   0  0  0  0  0  0  0  0  0  0  0  0
   -6.2076   -1.5133   -1.8136 H   0  0  0  0  0  0  0  0  0  0  0  0
   -4.0136   -1.2579   -0.8049 H   0  0  0  0  0  0  0  0  0  0  0  0
    5.7120    0.4857    1.6239 H   0  0  0  0  0  0  0  0  0  0  0  0
  1  2  1  0
  2  3  2  0
  3  4  1  0
  4  5  2  0
  5  6  1  0
  6  7  2  0
  6  8  1  0
  8  9  1  0
  9 10  1  0
 10 11  1  0
 11 12  1  0
 11 13  1  0
 11 14  1  0
 14 15  1  0
 15 16  2  0
 16 17  1  0
 17 18  2  0
 18 19  1  0
 19 20  1  0
 20 21  2  0
 21 22  1  0
 22 23  2  0
 23 24  1  0
 24 25  2  0
  5 26  1  0
 26 27  2  0
 27  2  1  0
 16  9  1  0
 25 20  1  0
 19 15  1  0
  1 28  1  0
  1 29  1  0
  1 30  1  0
  3 31  1  0
  8 32  1  0
  9 33  1  0
 10 34  1  0
 10 35  1  0
 12 36  1  0
 12 37  1  0
 12 38  1  0
 13 39  1  0
 13 40  1  0
 13 41  1  0
 14 42  1  0
 14 43  1  0
 17 44  1  0
 21 45  1  0
 22 46  1  0
 23 47  1  0
 24 48  1  0
 25 49  1  0
 26 50  1  0
M  END
$$$$
