
     RDKit          3D

 45 47  0  0  0  0  0  0  0  0999 V2000
    7.0315   -0.1168    0.8111 C   0  0  0  0  0  0  0  0  0  0  0  0
    6.2673    0.9717    0.2920 O   0  0  0  0  0  0  0  0  0  0  0  0
    4.9129    0.7489    0.3406 C   0  0  0  0  0  0  0  0  0  0  0  0
    4.1716    1.7648    0.9453 C   0  0  0  0  0  0  0  0  0  0  0  0
    2.7848    1.6618    1.0408 C   0  0  0  0  0  0  0  0  0  0  0  0
    2.1240    0.5443    0.5238 C   0  0  0  0  0  0  0  0  0  0  0  0
    0.7179    0.5173    0.6344 N   0  0  0  0  0  0  0  0  0  0  0  0
   -0.1224   -0.5503    0.3990 C   0  0  0  0  0  0  0  0  0  0  0  0
    0.2458   -1.7110    0.2393 O   0  0  0  0  0  0  0  0  0  0  0  0
   -1.4837   -0.1962    0.3986 N   0  0  0  0  0  0  0  0  0  0  0  0
   -1.9312    1.0686   -0.1957 C   0  0  0  0  0  0  0  0  0  0  0  0
   -3.3175    1.4647    0.2920 C   0  0  0  0  0  0  0  0  0  0  0  0
   -4.3188    0.3331    0.0747 C   0  0  0  0  0  0  0  0  0  0  0  0
   -3.8197   -0.9512    0.7298 C   0  0  0  0  0  0  0  0  0  0  0  0
   -2.4232   -1.3072    0.2403 C   0  0  0  0  0  0  0  0  0  0  0  0
   -4.5002    0.1285   -1.3376 O   0  0  0  0  0  0  0  0  0  0  0  0
   -5.9132    0.0757   -1.5245 C   0  0  0  0  0  0  0  0  0  0  0  0
   -6.4350    0.9798   -0.4428 C   0  0  0  0  0  0  0  0  0  0  0  0
   -5.5798    0.6955    0.6644 O   0  0  0  0  0  0  0  0  0  0  0  0
    2.8684   -0.4551   -0.1155 C   0  0  0  0  0  0  0  0  0  0  0  0
    4.2636   -0.3601   -0.2254 C   0  0  0  0  0  0  0  0  0  0  0  0
    5.0480   -1.2724   -0.8815 O   0  0  0  0  0  0  0  0  0  0  0  0
    4.3983   -2.3675   -1.5166 C   0  0  0  0  0  0  0  0  0  0  0  0
    7.9835    0.2890    1.1725 H   0  0  0  0  0  0  0  0  0  0  0  0
    7.2707   -0.8366    0.0214 H   0  0  0  0  0  0  0  0  0  0  0  0
    6.5341   -0.6096    1.6562 H   0  0  0  0  0  0  0  0  0  0  0  0
    4.6817    2.6340    1.3542 H   0  0  0  0  0  0  0  0  0  0  0  0
    2.2337    2.4624    1.5295 H   0  0  0  0  0  0  0  0  0  0  0  0
    0.2949    1.2789    1.1427 H   0  0  0  0  0  0  0  0  0  0  0  0
   -1.9226    0.9369   -1.2857 H   0  0  0  0  0  0  0  0  0  0  0  0
   -1.2331    1.8823    0.0207 H   0  0  0  0  0  0  0  0  0  0  0  0
   -3.6433    2.3676   -0.2385 H   0  0  0  0  0  0  0  0  0  0  0  0
   -3.2799    1.7249    1.3576 H   0  0  0  0  0  0  0  0  0  0  0  0
   -3.8129   -0.8298    1.8207 H   0  0  0  0  0  0  0  0  0  0  0  0
   -4.5026   -1.7818    0.5133 H   0  0  0  0  0  0  0  0  0  0  0  0
   -2.4371   -1.5860   -0.8207 H   0  0  0  0  0  0  0  0  0  0  0  0
   -2.0611   -2.1778    0.7992 H   0  0  0  0  0  0  0  0  0  0  0  0
   -6.1822    0.4000   -2.5326 H   0  0  0  0  0  0  0  0  0  0  0  0
   -6.2376   -0.9602   -1.3782 H   0  0  0  0  0  0  0  0  0  0  0  0
   -6.3119    2.0358   -0.7056 H   0  0  0  0  0  0  0  0  0  0  0  0
   -7.4792    0.7899   -0.1841 H   0  0  0  0  0  0  0  0  0  0  0  0
    2.3501   -1.3033   -0.5437 H   0  0  0  0  0  0  0  0  0  0  0  0
    5.1659   -2.9606   -2.0256 H   0  0  0  0  0  0  0  0  0  0  0  0
    3.9088   -3.0166   -0.7815 H   0  0  0  0  0  0  0  0  0  0  0  0
    3.6909   -2.0215   -2.2786 H   0  0  0  0  0  0  0  0  0  0  0  0
  1  2  1  0
  2  3  1  0
  3  4  2  0
  4  5  1  0
  5  6  2  0
  6  7  1  0
  7  8  1  0
  8  9  2  0
  8 10  1  0
 10 11  1  0
 11 12  1  0
 12 13  1  0
 13 14  1  0
 14 15  1  0
 13 16  1  0
 16 17  1  0
 17 18  1  0
 18 19  1  0
  6 20  1  0
 20 21  2  0
 21 22  1  0
 22 23  1  0
 21  3  1  0
 15 10  1  0
 19 13  1  0
  1 24  1  0
  1 25  1  0
  1 26  1  0
  4 27  1  0
  5 28  1  0
  7 29  1  0
 11 30  1  0
 11 31  1  0
 12 32  1  0
 12 33  1  0
 14 34  1  0
 14 35  1  0
 15 36  1  0
 15 37  1  0
 17 38  1  0
 17 39  1  0
 18 40  1  0
 18 41  1  0
 20 42  1  0
 23 43  1  0
 23 44  1  0
 23 45  1  0
M  END
$$$$
