
     RDKit          3D

 45 46  0  0  0  0  0  0  0  0999 V2000
    6.7315    1.7531   -1.3983 C   0  0  0  0  0  0  0  0  0  0  0  0
    5.6639    0.9856   -0.8594 O   0  0  0  0  0  0  0  0  0  0  0  0
    4.4269    1.1407   -1.4300 C   0  0  0  0  0  0  0  0  0  0  0  0
    4.0991    2.1332   -2.3567 C   0  0  0  0  0  0  0  0  0  0  0  0
    2.8133    2.1949   -2.8988 C   0  0  0  0  0  0  0  0  0  0  0  0
    1.8418    1.2673   -2.5197 C   0  0  0  0  0  0  0  0  0  0  0  0
    2.1343    0.2741   -1.5756 C   0  0  0  0  0  0  0  0  0  0  0  0
    1.1239   -0.7305   -1.2038 C   0  0  0  0  0  0  0  0  0  0  0  0
   -0.1589   -0.4352   -0.9425 C   0  0  0  0  0  0  0  0  0  0  0  0
   -1.1063   -1.5219   -0.5792 C   0  0  0  0  0  0  0  0  0  0  0  0
   -0.8744   -2.6861   -0.8952 O   0  0  0  0  0  0  0  0  0  0  0  0
   -2.2488   -1.1440    0.1012 N   0  0  0  0  0  0  0  0  0  0  0  0
   -3.2733   -2.1552    0.3705 C   0  0  0  0  0  0  0  0  0  0  0  0
   -4.6657   -1.5088    0.4626 C   0  0  0  0  0  0  0  0  0  0  0  0
   -5.7390   -2.5467    0.7577 C   0  0  0  0  0  0  0  0  0  0  0  0
   -4.7607   -0.4864    1.4713 O   0  0  0  0  0  0  0  0  0  0  0  0
   -3.5026    0.0919    1.8519 C   0  0  0  0  0  0  0  0  0  0  0  0
   -3.7876    1.4686    2.4354 C   0  0  0  0  0  0  0  0  0  0  0  0
   -2.5079    0.1790    0.6807 C   0  0  0  0  0  0  0  0  0  0  0  0
    3.4323    0.2270   -1.0306 C   0  0  0  0  0  0  0  0  0  0  0  0
    3.7429   -0.7807   -0.1421 O   0  0  0  0  0  0  0  0  0  0  0  0
    3.6872   -0.2924    1.1979 C   0  0  0  0  0  0  0  0  0  0  0  0
    7.6538    1.4378   -0.9013 H   0  0  0  0  0  0  0  0  0  0  0  0
    6.8524    1.5704   -2.4713 H   0  0  0  0  0  0  0  0  0  0  0  0
    6.5909    2.8189   -1.1916 H   0  0  0  0  0  0  0  0  0  0  0  0
    4.8238    2.8706   -2.6852 H   0  0  0  0  0  0  0  0  0  0  0  0
    2.5720    2.9604   -3.6327 H   0  0  0  0  0  0  0  0  0  0  0  0
    0.8607    1.3175   -2.9862 H   0  0  0  0  0  0  0  0  0  0  0  0
    1.4864   -1.7542   -1.1174 H   0  0  0  0  0  0  0  0  0  0  0  0
   -0.5356    0.5749   -1.0109 H   0  0  0  0  0  0  0  0  0  0  0  0
   -3.0023   -2.6311    1.3209 H   0  0  0  0  0  0  0  0  0  0  0  0
   -3.2567   -2.9246   -0.4091 H   0  0  0  0  0  0  0  0  0  0  0  0
   -4.8996   -1.0252   -0.4940 H   0  0  0  0  0  0  0  0  0  0  0  0
   -5.5715   -3.0130    1.7348 H   0  0  0  0  0  0  0  0  0  0  0  0
   -6.7269   -2.0753    0.7990 H   0  0  0  0  0  0  0  0  0  0  0  0
   -5.7576   -3.3300   -0.0063 H   0  0  0  0  0  0  0  0  0  0  0  0
   -3.0819   -0.5414    2.6432 H   0  0  0  0  0  0  0  0  0  0  0  0
   -2.8706    1.9500    2.7881 H   0  0  0  0  0  0  0  0  0  0  0  0
   -4.4864    1.3909    3.2753 H   0  0  0  0  0  0  0  0  0  0  0  0
   -4.2616    2.1176    1.6909 H   0  0  0  0  0  0  0  0  0  0  0  0
   -2.9211    0.7947   -0.1271 H   0  0  0  0  0  0  0  0  0  0  0  0
   -1.5676    0.6268    1.0177 H   0  0  0  0  0  0  0  0  0  0  0  0
    3.8179   -1.1466    1.8692 H   0  0  0  0  0  0  0  0  0  0  0  0
    2.7157    0.1638    1.4190 H   0  0  0  0  0  0  0  0  0  0  0  0
    4.4937    0.4195    1.3999 H   0  0  0  0  0  0  0  0  0  0  0  0
  1  2  1  0
  2  3  1  0
  3  4  2  0
  4  5  1  0
  5  6  2  0
  6  7  1  0
  7  8  1  0
  8  9  2  3
  9 10  1  0
 10 11  2  0
 10 12  1  0
 12 13  1  0
 13 14  1  0
 14 15  1  0
 14 16  1  0
 16 17  1  0
 17 18  1  0
 17 19  1  0
  7 20  2  0
 20 21  1  0
 21 22  1  0
 20  3  1  0
 19 12  1  0
  1 23  1  0
  1 24  1  0
  1 25  1  0
  4 26  1  0
  5 27  1  0
  6 28  1  0
  8 29  1  0
  9 30  1  0
 13 31  1  0
 13 32  1  0
 14 33  1  0
 15 34  1  0
 15 35  1  0
 15 36  1  0
 17 37  1  0
 18 38  1  0
 18 39  1  0
 18 40  1  0
 19 41  1  0
 19 42  1  0
 22 43  1  0
 22 44  1  0
 22 45  1  0
M  END
$$$$
