
     RDKit          3D

 45 47  0  0  0  0  0  0  0  0999 V2000
   -5.5183    1.7690    0.9242 C   0  0  0  0  0  0  0  0  0  0  0  0
   -4.9813    1.7154   -0.4761 C   0  0  0  0  0  0  0  0  0  0  0  0
   -4.8986    2.8790   -1.2475 C   0  0  0  0  0  0  0  0  0  0  0  0
   -4.3788    2.8326   -2.5401 C   0  0  0  0  0  0  0  0  0  0  0  0
   -3.9222    1.6262   -3.0689 C   0  0  0  0  0  0  0  0  0  0  0  0
   -3.9691    0.4531   -2.3045 C   0  0  0  0  0  0  0  0  0  0  0  0
   -3.4565   -0.8493   -2.8572 C   0  0  0  0  0  0  0  0  0  0  0  0
   -1.6672   -0.8732   -2.9217 S   0  0  0  0  0  6  0  0  0  0  0  0
   -1.2323    0.1034   -3.9083 O   0  0  0  0  0  0  0  0  0  0  0  0
   -1.2885   -2.2682   -3.0814 O   0  0  0  0  0  0  0  0  0  0  0  0
   -1.1539   -0.3186   -1.2965 C   0  0  0  0  0  0  0  0  0  0  0  0
    0.3076   -0.5090   -1.1422 C   0  0  0  0  0  0  0  0  0  0  0  0
    1.4128   -0.1718   -1.8930 C   0  0  0  0  0  0  0  0  0  0  0  0
    2.5426   -0.6293   -1.1705 C   0  0  0  0  0  0  0  0  0  0  0  0
    2.0718   -1.2054   -0.0028 C   0  0  0  0  0  0  0  0  0  0  0  0
    2.7194   -1.8402    1.1322 C   0  0  0  0  0  0  0  0  0  0  0  0
    2.1082   -2.2920    2.0987 O   0  0  0  0  0  0  0  0  0  0  0  0
    4.0976   -1.8982    1.0616 N   0  0  0  0  0  0  0  0  0  0  0  0
    4.8912   -2.3439    2.1821 C   0  0  0  0  0  0  0  0  0  0  0  0
    5.3162   -1.1511    2.9532 C   0  0  0  0  0  0  0  0  0  0  0  0
    4.7979   -0.5033    4.0555 C   0  0  0  0  0  0  0  0  0  0  0  0
    5.6553    0.5926    4.3136 C   0  0  0  0  0  0  0  0  0  0  0  0
    6.6372    0.5464    3.3520 C   0  0  0  0  0  0  0  0  0  0  0  0
    6.4380   -0.5064    2.5174 O   0  0  0  0  0  0  0  0  0  0  0  0
    0.7036   -1.1188    0.0102 O   0  0  0  0  0  0  0  0  0  0  0  0
   -4.5070    0.5089   -1.0079 C   0  0  0  0  0  0  0  0  0  0  0  0
   -6.0254    0.8335    1.1826 H   0  0  0  0  0  0  0  0  0  0  0  0
   -4.7006    1.9369    1.6317 H   0  0  0  0  0  0  0  0  0  0  0  0
   -6.2509    2.5757    1.0327 H   0  0  0  0  0  0  0  0  0  0  0  0
   -5.2451    3.8300   -0.8483 H   0  0  0  0  0  0  0  0  0  0  0  0
   -4.3275    3.7400   -3.1373 H   0  0  0  0  0  0  0  0  0  0  0  0
   -3.5188    1.6146   -4.0811 H   0  0  0  0  0  0  0  0  0  0  0  0
   -3.8302   -1.0161   -3.8726 H   0  0  0  0  0  0  0  0  0  0  0  0
   -3.7710   -1.6962   -2.2383 H   0  0  0  0  0  0  0  0  0  0  0  0
   -1.7065   -0.9096   -0.5602 H   0  0  0  0  0  0  0  0  0  0  0  0
   -1.4068    0.7391   -1.1924 H   0  0  0  0  0  0  0  0  0  0  0  0
    1.4059    0.3304   -2.8524 H   0  0  0  0  0  0  0  0  0  0  0  0
    3.5749   -0.5429   -1.4770 H   0  0  0  0  0  0  0  0  0  0  0  0
    4.5791   -1.3745    0.3471 H   0  0  0  0  0  0  0  0  0  0  0  0
    5.7611   -2.8727    1.7798 H   0  0  0  0  0  0  0  0  0  0  0  0
    4.3258   -3.0385    2.8110 H   0  0  0  0  0  0  0  0  0  0  0  0
    3.9055   -0.7895    4.5961 H   0  0  0  0  0  0  0  0  0  0  0  0
    5.5671    1.3277    5.1010 H   0  0  0  0  0  0  0  0  0  0  0  0
    7.5017    1.1581    3.1346 H   0  0  0  0  0  0  0  0  0  0  0  0
   -4.5638   -0.3939   -0.4007 H   0  0  0  0  0  0  0  0  0  0  0  0
  1  2  1  0
  2  3  2  0
  3  4  1  0
  4  5  2  0
  5  6  1  0
  6  7  1  0
  7  8  1  0
  8  9  2  0
  8 10  2  0
  8 11  1  0
 11 12  1  0
 12 13  2  0
 13 14  1  0
 14 15  2  0
 15 16  1  0
 16 17  2  0
 16 18  1  0
 18 19  1  0
 19 20  1  0
 20 21  2  0
 21 22  1  0
 22 23  2  0
 23 24  1  0
 15 25  1  0
  6 26  2  0
 26  2  1  0
 25 12  1  0
 24 20  1  0
  1 27  1  0
  1 28  1  0
  1 29  1  0
  3 30  1  0
  4 31  1  0
  5 32  1  0
  7 33  1  0
  7 34  1  0
 11 35  1  0
 11 36  1  0
 13 37  1  0
 14 38  1  0
 18 39  1  0
 19 40  1  0
 19 41  1  0
 21 42  1  0
 22 43  1  0
 23 44  1  0
 26 45  1  0
M  END
$$$$
