
     RDKit          3D

 49 51  0  0  0  0  0  0  0  0999 V2000
   -6.1396   -0.1038    4.1410 C   0  0  0  0  0  0  0  0  0  0  0  0
   -6.3397    0.0949    2.7479 O   0  0  0  0  0  0  0  0  0  0  0  0
   -5.2286    0.1597    1.9444 C   0  0  0  0  0  0  0  0  0  0  0  0
   -3.9108    0.1338    2.4140 C   0  0  0  0  0  0  0  0  0  0  0  0
   -2.8399    0.2073    1.5199 C   0  0  0  0  0  0  0  0  0  0  0  0
   -3.0733    0.2995    0.1460 C   0  0  0  0  0  0  0  0  0  0  0  0
   -1.9618    0.3896   -0.8068 C   0  0  0  0  0  0  0  0  0  0  0  0
   -1.0561   -0.5662   -1.0520 C   0  0  0  0  0  0  0  0  0  0  0  0
   -0.9479   -2.1339   -0.3588 S   0  0  0  0  0  0  0  0  0  0  0  0
    0.4546   -2.5548   -1.3275 C   0  0  0  0  0  0  0  0  0  0  0  0
    0.9198   -3.6835   -1.3491 O   0  0  0  0  0  0  0  0  0  0  0  0
    0.8590   -1.4706   -2.0652 N   0  0  0  0  0  0  0  0  0  0  0  0
    2.0069   -1.5594   -2.9547 C   0  0  0  0  0  0  0  0  0  0  0  0
    3.0621   -0.4687   -2.7534 C   0  0  0  0  0  0  0  0  0  0  0  0
    3.6966   -0.4973   -1.3732 C   0  0  0  0  0  0  0  0  0  0  0  0
    3.2722   -1.2202   -0.4800 O   0  0  0  0  0  0  0  0  0  0  0  0
    4.7566    0.3916   -1.2832 N   0  0  0  0  0  0  0  0  0  0  0  0
    5.5742    0.6412   -0.1614 C   0  0  0  0  0  0  0  0  0  0  0  0
    6.6161    1.5674   -0.3252 C   0  0  0  0  0  0  0  0  0  0  0  0
    7.4727    1.8700    0.7346 C   0  0  0  0  0  0  0  0  0  0  0  0
    7.2941    1.2522    1.9712 C   0  0  0  0  0  0  0  0  0  0  0  0
    6.2585    0.3375    2.1457 C   0  0  0  0  0  0  0  0  0  0  0  0
    5.4013    0.0335    1.0850 C   0  0  0  0  0  0  0  0  0  0  0  0
    0.0328   -0.3738   -2.0469 C   0  0  0  0  0  0  0  0  0  0  0  0
    0.1413    0.6209   -2.7520 O   0  0  0  0  0  0  0  0  0  0  0  0
   -4.3912    0.3398   -0.3289 C   0  0  0  0  0  0  0  0  0  0  0  0
   -5.4715    0.2703    0.5599 C   0  0  0  0  0  0  0  0  0  0  0  0
   -6.7932    0.2955    0.1799 O   0  0  0  0  0  0  0  0  0  0  0  0
   -7.0799    0.4792   -1.1992 C   0  0  0  0  0  0  0  0  0  0  0  0
   -5.6212    0.7524    4.5880 H   0  0  0  0  0  0  0  0  0  0  0  0
   -5.6054   -1.0429    4.3358 H   0  0  0  0  0  0  0  0  0  0  0  0
   -7.1268   -0.1781    4.6155 H   0  0  0  0  0  0  0  0  0  0  0  0
   -3.6808    0.0607    3.4719 H   0  0  0  0  0  0  0  0  0  0  0  0
   -1.8237    0.1933    1.9101 H   0  0  0  0  0  0  0  0  0  0  0  0
   -1.9135    1.3300   -1.3537 H   0  0  0  0  0  0  0  0  0  0  0  0
    1.6223   -1.4853   -3.9794 H   0  0  0  0  0  0  0  0  0  0  0  0
    2.4775   -2.5444   -2.8549 H   0  0  0  0  0  0  0  0  0  0  0  0
    3.8548   -0.6144   -3.5003 H   0  0  0  0  0  0  0  0  0  0  0  0
    2.6384    0.5298   -2.9094 H   0  0  0  0  0  0  0  0  0  0  0  0
    4.9848    0.9226   -2.1164 H   0  0  0  0  0  0  0  0  0  0  0  0
    6.7775    2.0667   -1.2787 H   0  0  0  0  0  0  0  0  0  0  0  0
    8.2726    2.5919    0.5957 H   0  0  0  0  0  0  0  0  0  0  0  0
    7.9566    1.4868    2.7990 H   0  0  0  0  0  0  0  0  0  0  0  0
    6.1085   -0.1417    3.1123 H   0  0  0  0  0  0  0  0  0  0  0  0
    4.6009   -0.6791    1.2717 H   0  0  0  0  0  0  0  0  0  0  0  0
   -4.5531    0.4176   -1.3991 H   0  0  0  0  0  0  0  0  0  0  0  0
   -6.7001   -0.3568   -1.7961 H   0  0  0  0  0  0  0  0  0  0  0  0
   -6.6870    1.4360   -1.5617 H   0  0  0  0  0  0  0  0  0  0  0  0
   -8.1678    0.5031   -1.3141 H   0  0  0  0  0  0  0  0  0  0  0  0
  1  2  1  0
  2  3  1  0
  3  4  2  0
  4  5  1  0
  5  6  2  0
  6  7  1  0
  7  8  2  3
  8  9  1  0
  9 10  1  0
 10 11  2  0
 10 12  1  0
 12 13  1  0
 13 14  1  0
 14 15  1  0
 15 16  2  0
 15 17  1  0
 17 18  1  0
 18 19  2  0
 19 20  1  0
 20 21  2  0
 21 22  1  0
 22 23  2  0
 12 24  1  0
 24 25  2  0
  6 26  1  0
 26 27  2  0
 27 28  1  0
 28 29  1  0
 27  3  1  0
 24  8  1  0
 23 18  1  0
  1 30  1  0
  1 31  1  0
  1 32  1  0
  4 33  1  0
  5 34  1  0
  7 35  1  0
 13 36  1  0
 13 37  1  0
 14 38  1  0
 14 39  1  0
 17 40  1  0
 19 41  1  0
 20 42  1  0
 21 43  1  0
 22 44  1  0
 23 45  1  0
 26 46  1  0
 29 47  1  0
 29 48  1  0
 29 49  1  0
M  END
$$$$
