
     RDKit          3D

 42 42  0  0  0  0  0  0  0  0999 V2000
   -2.7005   -2.4761    3.2003 C   0  0  0  0  0  0  0  0  0  0  0  0
   -2.7275   -2.8132    1.7176 C   0  0  0  0  0  0  0  0  0  0  0  0
   -2.1488   -1.7088    0.8277 C   0  0  0  0  0  0  0  0  0  0  0  0
   -0.6497   -1.4678    1.0641 C   0  0  0  0  0  0  0  0  0  0  0  0
    0.0222   -0.5004    0.0660 C   0  0  0  0  0  0  0  0  0  0  0  0
   -0.7686    0.7862   -0.0362 C   0  0  0  0  0  0  0  0  0  0  0  0
   -0.7489    1.6556    0.8278 O   0  0  0  0  0  0  0  0  0  0  0  0
   -1.4989    0.8546   -1.1769 O   0  0  0  0  0  0  0  0  0  0  0  0
   -2.3052    2.0291   -1.3566 C   0  0  0  0  0  0  0  0  0  0  0  0
   -3.6500    1.8488   -0.6786 C   0  0  0  0  0  0  0  0  0  0  0  0
    1.4541   -0.1938    0.5215 C   0  0  0  0  0  0  0  0  0  0  0  0
    2.2281    0.0120   -0.7675 C   0  0  0  0  0  0  0  0  0  0  0  0
    2.2549    1.4711   -1.2461 C   0  0  0  0  0  0  0  0  0  0  0  0
    3.2849    1.7088   -2.7353 S   0  0  0  0  0  0  0  0  0  0  0  0
    4.8369    1.3866   -2.0447 C   0  0  0  0  0  0  0  0  0  0  0  0
    5.4215    0.2764   -2.3045 N   0  0  0  0  0  0  0  0  0  0  0  0
    5.3813    2.3387   -1.2617 N   0  0  0  0  0  0  0  0  0  0  0  0
    1.5523   -0.8251   -1.7122 O   0  0  0  0  0  0  0  0  0  0  0  0
    0.3001   -1.1472   -1.2680 C   0  0  0  0  0  0  0  0  0  0  0  0
   -0.4567   -1.8694   -1.8968 O   0  0  0  0  0  0  0  0  0  0  0  0
   -3.2037   -1.5240    3.3964 H   0  0  0  0  0  0  0  0  0  0  0  0
   -1.6762   -2.4115    3.5786 H   0  0  0  0  0  0  0  0  0  0  0  0
   -3.2154   -3.2552    3.7717 H   0  0  0  0  0  0  0  0  0  0  0  0
   -3.7682   -2.9883    1.4196 H   0  0  0  0  0  0  0  0  0  0  0  0
   -2.1875   -3.7517    1.5465 H   0  0  0  0  0  0  0  0  0  0  0  0
   -2.7096   -0.7833    1.0018 H   0  0  0  0  0  0  0  0  0  0  0  0
   -2.3238   -1.9931   -0.2150 H   0  0  0  0  0  0  0  0  0  0  0  0
   -0.5187   -1.0694    2.0784 H   0  0  0  0  0  0  0  0  0  0  0  0
   -0.1315   -2.4357    1.0354 H   0  0  0  0  0  0  0  0  0  0  0  0
   -1.7880    2.9243   -0.9929 H   0  0  0  0  0  0  0  0  0  0  0  0
   -2.4493    2.1555   -2.4345 H   0  0  0  0  0  0  0  0  0  0  0  0
   -3.5317    1.7295    0.4030 H   0  0  0  0  0  0  0  0  0  0  0  0
   -4.1479    0.9454   -1.0460 H   0  0  0  0  0  0  0  0  0  0  0  0
   -4.2973    2.7103   -0.8654 H   0  0  0  0  0  0  0  0  0  0  0  0
    1.5476    0.6525    1.2097 H   0  0  0  0  0  0  0  0  0  0  0  0
    1.8737   -1.0686    1.0374 H   0  0  0  0  0  0  0  0  0  0  0  0
    3.2454   -0.3690   -0.6298 H   0  0  0  0  0  0  0  0  0  0  0  0
    2.6181    2.1328   -0.4532 H   0  0  0  0  0  0  0  0  0  0  0  0
    1.2526    1.8044   -1.5283 H   0  0  0  0  0  0  0  0  0  0  0  0
    4.8039   -0.2518   -2.9343 H   0  0  0  0  0  0  0  0  0  0  0  0
    6.3806    2.1976   -1.1551 H   0  0  0  0  0  0  0  0  0  0  0  0
    5.1452    3.2831   -1.5409 H   0  0  0  0  0  0  0  0  0  0  0  0
  1  2  1  0
  2  3  1  0
  3  4  1  0
  4  5  1  0
  5  6  1  0
  6  7  2  0
  6  8  1  0
  8  9  1  0
  9 10  1  0
  5 11  1  0
 11 12  1  0
 12 13  1  0
 13 14  1  0
 14 15  1  0
 15 16  2  3
 15 17  1  0
 12 18  1  0
 18 19  1  0
 19 20  2  0
 19  5  1  0
  1 21  1  0
  1 22  1  0
  1 23  1  0
  2 24  1  0
  2 25  1  0
  3 26  1  0
  3 27  1  0
  4 28  1  0
  4 29  1  0
  9 30  1  0
  9 31  1  0
 10 32  1  0
 10 33  1  0
 10 34  1  0
 11 35  1  0
 11 36  1  0
 12 37  1  0
 13 38  1  0
 13 39  1  0
 16 40  1  0
 17 41  1  0
 17 42  1  0
M  END
$$$$
