
     RDKit          3D

 53 56  0  0  0  0  0  0  0  0999 V2000
   -2.6291    5.3975    2.4337 C   0  0  0  0  0  0  0  0  0  0  0  0
   -2.1765    4.0801    2.7178 O   0  0  0  0  0  0  0  0  0  0  0  0
   -1.8272    3.3013    1.6496 C   0  0  0  0  0  0  0  0  0  0  0  0
   -1.3605    2.0290    1.9817 C   0  0  0  0  0  0  0  0  0  0  0  0
   -0.9684    1.1292    0.9875 C   0  0  0  0  0  0  0  0  0  0  0  0
   -1.0313    1.4879   -0.3664 C   0  0  0  0  0  0  0  0  0  0  0  0
   -0.6399    0.5293   -1.4821 C   0  0  0  0  0  0  0  0  0  0  0  0
   -1.7825   -0.4371   -1.8031 C   0  0  0  0  0  0  0  0  0  0  0  0
   -1.2347   -1.7003   -1.1948 C   0  0  0  0  0  0  0  0  0  0  0  0
   -2.0714   -2.9085   -1.0197 C   0  0  0  0  0  0  0  0  0  0  0  0
   -3.1091   -3.1337   -1.9399 C   0  0  0  0  0  0  0  0  0  0  0  0
   -3.9089   -4.2728   -1.8448 C   0  0  0  0  0  0  0  0  0  0  0  0
   -3.6800   -5.1977   -0.8336 C   0  0  0  0  0  0  0  0  0  0  0  0
   -2.6559   -4.9798    0.0880 C   0  0  0  0  0  0  0  0  0  0  0  0
   -1.8403   -3.8305    0.0192 C   0  0  0  0  0  0  0  0  0  0  0  0
   -0.7772   -3.6320    1.0765 C   0  0  0  0  0  0  0  0  0  0  0  0
    0.4870   -3.8737    0.6387 F   0  0  0  0  0  0  0  0  0  0  0  0
   -0.9447   -4.4845    2.1364 F   0  0  0  0  0  0  0  0  0  0  0  0
   -0.7905   -2.3919    1.6384 F   0  0  0  0  0  0  0  0  0  0  0  0
    0.0197   -1.6537   -0.8764 N   0  0  0  0  0  0  0  0  0  0  0  0
    0.4504   -0.3819   -1.1253 N   0  0  0  0  0  0  0  0  0  0  0  0
    1.7890   -0.0374   -0.9524 C   0  0  0  0  0  0  0  0  0  0  0  0
    2.2647    1.2679   -1.1629 C   0  0  0  0  0  0  0  0  0  0  0  0
    3.6120    1.5994   -0.9752 C   0  0  0  0  0  0  0  0  0  0  0  0
    4.5120    0.6165   -0.5673 C   0  0  0  0  0  0  0  0  0  0  0  0
    6.2129    1.0390   -0.3164 S   0  0  0  0  0  6  0  0  0  0  0  0
    6.2014    1.5169    1.2998 N   0  0  0  0  0  0  0  0  0  0  0  0
    7.0030   -0.1699   -0.3597 O   0  0  0  0  0  0  0  0  0  0  0  0
    6.5229    2.1980   -1.1193 O   0  0  0  0  0  0  0  0  0  0  0  0
    4.0836   -0.6928   -0.3697 C   0  0  0  0  0  0  0  0  0  0  0  0
    2.7334   -1.0053   -0.5586 C   0  0  0  0  0  0  0  0  0  0  0  0
   -1.5104    2.7673   -0.6923 C   0  0  0  0  0  0  0  0  0  0  0  0
   -1.9020    3.6672    0.3067 C   0  0  0  0  0  0  0  0  0  0  0  0
   -1.8518    5.9829    1.9313 H   0  0  0  0  0  0  0  0  0  0  0  0
   -2.8511    5.8876    3.3866 H   0  0  0  0  0  0  0  0  0  0  0  0
   -3.5527    5.3789    1.8458 H   0  0  0  0  0  0  0  0  0  0  0  0
   -1.2976    1.7326    3.0262 H   0  0  0  0  0  0  0  0  0  0  0  0
   -0.6027    0.1470    1.2839 H   0  0  0  0  0  0  0  0  0  0  0  0
   -0.3804    1.0969   -2.3848 H   0  0  0  0  0  0  0  0  0  0  0  0
   -2.7517   -0.1608   -1.3795 H   0  0  0  0  0  0  0  0  0  0  0  0
   -1.8709   -0.5773   -2.8858 H   0  0  0  0  0  0  0  0  0  0  0  0
   -3.2987   -2.4432   -2.7576 H   0  0  0  0  0  0  0  0  0  0  0  0
   -4.7046   -4.4426   -2.5667 H   0  0  0  0  0  0  0  0  0  0  0  0
   -4.2980   -6.0899   -0.7597 H   0  0  0  0  0  0  0  0  0  0  0  0
   -2.4985   -5.7162    0.8767 H   0  0  0  0  0  0  0  0  0  0  0  0
    1.5918    2.0613   -1.4746 H   0  0  0  0  0  0  0  0  0  0  0  0
    3.9438    2.6212   -1.1481 H   0  0  0  0  0  0  0  0  0  0  0  0
    5.2594    1.6033    1.6814 H   0  0  0  0  0  0  0  0  0  0  0  0
    6.7680    0.8594    1.8384 H   0  0  0  0  0  0  0  0  0  0  0  0
    4.7770   -1.4754   -0.0713 H   0  0  0  0  0  0  0  0  0  0  0  0
    2.4105   -2.0326   -0.3939 H   0  0  0  0  0  0  0  0  0  0  0  0
   -1.5821    3.0795   -1.7324 H   0  0  0  0  0  0  0  0  0  0  0  0
   -2.2612    4.6442    0.0009 H   0  0  0  0  0  0  0  0  0  0  0  0
  1  2  1  0
  2  3  1  0
  3  4  2  0
  4  5  1  0
  5  6  2  0
  6  7  1  0
  7  8  1  0
  8  9  1  0
  9 10  1  0
 10 11  2  0
 11 12  1  0
 12 13  2  0
 13 14  1  0
 14 15  2  0
 15 16  1  0
 16 17  1  0
 16 18  1  0
 16 19  1  0
  9 20  2  0
 20 21  1  0
 21 22  1  0
 22 23  2  0
 23 24  1  0
 24 25  2  0
 25 26  1  0
 26 27  1  0
 26 28  2  0
 26 29  2  0
 25 30  1  0
 30 31  2  0
  6 32  1  0
 32 33  2  0
 33  3  1  0
 21  7  1  0
 31 22  1  0
 15 10  1  0
  1 34  1  0
  1 35  1  0
  1 36  1  0
  4 37  1  0
  5 38  1  0
  7 39  1  0
  8 40  1  0
  8 41  1  0
 11 42  1  0
 12 43  1  0
 13 44  1  0
 14 45  1  0
 23 46  1  0
 24 47  1  0
 27 48  1  0
 27 49  1  0
 30 50  1  0
 31 51  1  0
 32 52  1  0
 33 53  1  0
M  END
$$$$
