
     RDKit          3D

 53 56  0  0  0  0  0  0  0  0999 V2000
   -5.7964    0.3979    3.4161 C   0  0  0  0  0  0  0  0  0  0  0  0
   -6.0949    0.3677    2.0250 O   0  0  0  0  0  0  0  0  0  0  0  0
   -5.4293   -0.7100    1.3698 C   0  0  0  0  0  0  0  0  0  0  0  0
   -5.7828   -0.6699   -0.1182 C   0  0  0  0  0  0  0  0  0  0  0  0
   -5.1880   -1.8525   -0.8816 C   0  0  0  0  0  0  0  0  0  0  0  0
   -3.7751   -1.3976   -1.2337 C   0  0  0  0  0  0  0  0  0  0  0  0
   -3.8509    0.0546   -1.2810 N   0  0  0  0  0  0  0  0  0  0  0  0
   -2.8623    0.9588   -1.6503 C   0  0  0  0  0  0  0  0  0  0  0  0
   -3.0927    2.1709   -1.6303 O   0  0  0  0  0  0  0  0  0  0  0  0
   -1.5262    0.4842   -2.0522 C   0  0  0  0  0  0  0  0  0  0  0  0
   -0.4112    1.3229   -2.3348 C   0  0  0  0  0  0  0  0  0  0  0  0
    0.6080    0.4651   -2.6622 C   0  0  0  0  0  0  0  0  0  0  0  0
    2.0235    0.6422   -3.0509 C   0  0  0  0  0  0  0  0  0  0  0  0
    2.7120    1.2901   -1.9826 O   0  0  0  0  0  0  0  0  0  0  0  0
    3.3776    0.5318   -1.0501 C   0  0  0  0  0  0  0  0  0  0  0  0
    3.1712   -0.8360   -0.8655 C   0  0  0  0  0  0  0  0  0  0  0  0
    3.8780   -1.5353    0.1143 C   0  0  0  0  0  0  0  0  0  0  0  0
    4.8014   -0.8781    0.9293 C   0  0  0  0  0  0  0  0  0  0  0  0
    5.5308   -1.5017    1.9149 O   0  0  0  0  0  0  0  0  0  0  0  0
    5.4441   -2.9162    2.0096 C   0  0  0  0  0  0  0  0  0  0  0  0
    5.0151    0.5142    0.7748 C   0  0  0  0  0  0  0  0  0  0  0  0
    5.9296    1.2278    1.5863 C   0  0  0  0  0  0  0  0  0  0  0  0
    6.1333    2.5979    1.4357 C   0  0  0  0  0  0  0  0  0  0  0  0
    5.4265    3.2923    0.4657 C   0  0  0  0  0  0  0  0  0  0  0  0
    4.5214    2.6137   -0.3514 C   0  0  0  0  0  0  0  0  0  0  0  0
    4.2946    1.2253   -0.2210 C   0  0  0  0  0  0  0  0  0  0  0  0
    0.1448   -0.8097   -2.6020 O   0  0  0  0  0  0  0  0  0  0  0  0
   -1.1775   -0.8040   -2.2125 N   0  0  0  0  0  0  0  0  0  0  0  0
   -5.1485    0.5303   -0.8227 C   0  0  0  0  0  0  0  0  0  0  0  0
   -4.7259    0.5574    3.5733 H   0  0  0  0  0  0  0  0  0  0  0  0
   -6.3437    1.2311    3.8684 H   0  0  0  0  0  0  0  0  0  0  0  0
   -6.1128   -0.5316    3.8978 H   0  0  0  0  0  0  0  0  0  0  0  0
   -5.7763   -1.6551    1.8054 H   0  0  0  0  0  0  0  0  0  0  0  0
   -4.3479   -0.6268    1.5287 H   0  0  0  0  0  0  0  0  0  0  0  0
   -6.8740   -0.6319   -0.2208 H   0  0  0  0  0  0  0  0  0  0  0  0
   -5.1933   -2.7899   -0.3172 H   0  0  0  0  0  0  0  0  0  0  0  0
   -5.7596   -2.0161   -1.8025 H   0  0  0  0  0  0  0  0  0  0  0  0
   -3.4613   -1.8094   -2.1955 H   0  0  0  0  0  0  0  0  0  0  0  0
   -3.0596   -1.6823   -0.4536 H   0  0  0  0  0  0  0  0  0  0  0  0
   -0.3729    2.4016   -2.2899 H   0  0  0  0  0  0  0  0  0  0  0  0
    2.0664    1.3220   -3.9045 H   0  0  0  0  0  0  0  0  0  0  0  0
    2.5130   -0.2801   -3.3730 H   0  0  0  0  0  0  0  0  0  0  0  0
    2.4507   -1.3958   -1.4532 H   0  0  0  0  0  0  0  0  0  0  0  0
    3.6712   -2.5959    0.2228 H   0  0  0  0  0  0  0  0  0  0  0  0
    5.7382   -3.3960    1.0742 H   0  0  0  0  0  0  0  0  0  0  0  0
    6.1469   -3.2439    2.7842 H   0  0  0  0  0  0  0  0  0  0  0  0
    4.4447   -3.2240    2.3176 H   0  0  0  0  0  0  0  0  0  0  0  0
    6.4960    0.7065    2.3573 H   0  0  0  0  0  0  0  0  0  0  0  0
    6.8419    3.1155    2.0781 H   0  0  0  0  0  0  0  0  0  0  0  0
    5.5752    4.3607    0.3404 H   0  0  0  0  0  0  0  0  0  0  0  0
    3.9805    3.1853   -1.1036 H   0  0  0  0  0  0  0  0  0  0  0  0
   -5.7239    0.7993   -1.7185 H   0  0  0  0  0  0  0  0  0  0  0  0
   -5.0496    1.4227   -0.1939 H   0  0  0  0  0  0  0  0  0  0  0  0
  1  2  1  0
  2  3  1  0
  3  4  1  0
  4  5  1  0
  5  6  1  0
  6  7  1  0
  7  8  1  0
  8  9  2  0
  8 10  1  0
 10 11  1  0
 11 12  2  0
 12 13  1  0
 13 14  1  0
 14 15  1  0
 15 16  2  0
 16 17  1  0
 17 18  2  0
 18 19  1  0
 19 20  1  0
 18 21  1  0
 21 22  2  0
 22 23  1  0
 23 24  2  0
 24 25  1  0
 25 26  2  0
 12 27  1  0
 27 28  1  0
  7 29  1  0
 29  4  1  0
 28 10  2  0
 26 15  1  0
 26 21  1  0
  1 30  1  0
  1 31  1  0
  1 32  1  0
  3 33  1  0
  3 34  1  0
  4 35  1  0
  5 36  1  0
  5 37  1  0
  6 38  1  0
  6 39  1  0
 11 40  1  0
 13 41  1  0
 13 42  1  0
 16 43  1  0
 17 44  1  0
 20 45  1  0
 20 46  1  0
 20 47  1  0
 22 48  1  0
 23 49  1  0
 24 50  1  0
 25 51  1  0
 29 52  1  0
 29 53  1  0
M  END
$$$$
