
     RDKit          3D

 67 72  0  0  0  0  0  0  0  0999 V2000
    6.6214    1.2230   -0.0594 C   0  0  0  0  0  0  0  0  0  0  0  0
    5.4920    1.5227    0.9320 C   0  0  0  0  0  0  0  0  0  0  0  0
    5.2451    3.0394    0.9443 C   0  0  0  0  0  0  0  0  0  0  0  0
    5.8430    1.0726    2.3545 C   0  0  0  0  0  0  0  0  0  0  0  0
    4.2330    0.9502    0.4964 O   0  0  0  0  0  0  0  0  0  0  0  0
    4.0866   -0.3915    0.3535 C   0  0  0  0  0  0  0  0  0  0  0  0
    4.9704   -1.2133    0.5594 O   0  0  0  0  0  0  0  0  0  0  0  0
    2.8125   -0.7366   -0.0489 N   0  0  0  0  0  0  0  0  0  0  0  0
    2.4837   -2.1511   -0.2033 C   0  0  0  0  0  0  0  0  0  0  0  0
    0.9750   -2.4023   -0.3765 C   0  0  0  0  0  0  0  0  0  0  0  0
    0.4331   -1.6306   -1.4945 N   0  0  0  0  0  0  0  0  0  0  0  0
    0.7928   -0.1626   -1.4151 C   0  0  2  0  0  0  0  0  0  0  0  0
    1.7257    0.2240   -0.2461 C   0  0  0  0  0  0  0  0  0  0  0  0
   -0.5303    0.5014   -1.3480 C   0  0  0  0  0  0  0  0  0  0  0  0
   -1.5728   -0.4141   -1.5436 C   0  0  0  0  0  0  0  0  0  0  0  0
   -2.7642    0.2608   -1.4657 C   0  0  0  0  0  0  0  0  0  0  0  0
   -4.0256   -0.1352   -1.5862 O   0  0  0  0  0  0  0  0  0  0  0  0
   -2.4471    1.5799   -1.1808 N   0  0  0  0  0  0  0  0  0  0  0  0
   -3.4227    2.6396   -0.9588 C   0  0  0  0  0  0  0  0  0  0  0  0
   -3.8826    2.6719    0.4799 C   0  0  0  0  0  0  0  0  0  0  0  0
   -5.0350    1.9757    0.8753 C   0  0  0  0  0  0  0  0  0  0  0  0
   -5.4481    1.9848    2.2084 C   0  0  0  0  0  0  0  0  0  0  0  0
   -4.7127    2.6873    3.1615 C   0  0  0  0  0  0  0  0  0  0  0  0
   -3.5626    3.3787    2.7828 C   0  0  0  0  0  0  0  0  0  0  0  0
   -3.1481    3.3700    1.4496 C   0  0  0  0  0  0  0  0  0  0  0  0
   -1.0708    1.7458   -1.1575 C   0  0  0  0  0  0  0  0  0  0  0  0
   -0.5228    2.9381   -0.9655 O   0  0  0  0  0  0  0  0  0  0  0  0
   -1.0358   -1.7706   -1.7671 C   0  0  1  0  0  0  0  0  0  0  0  0
   -1.2288   -2.2723   -3.2376 C   0  0  0  0  0  0  0  0  0  0  0  0
   -0.8086   -1.7865   -4.2777 O   0  0  0  0  0  0  0  0  0  0  0  0
   -1.9962   -3.4372   -3.1698 N   0  0  0  0  0  0  0  0  0  0  0  0
   -2.3773   -3.7170   -1.8666 C   0  0  0  0  0  0  0  0  0  0  0  0
   -3.1813   -4.7595   -1.4535 C   0  0  0  0  0  0  0  0  0  0  0  0
   -3.4998   -4.8260   -0.0961 C   0  0  0  0  0  0  0  0  0  0  0  0
   -3.0239   -3.8547    0.8023 C   0  0  0  0  0  0  0  0  0  0  0  0
   -2.2078   -2.8086    0.3601 C   0  0  0  0  0  0  0  0  0  0  0  0
   -1.8692   -2.7555   -0.9857 C   0  0  0  0  0  0  0  0  0  0  0  0
    6.8994    0.1645   -0.0582 H   0  0  0  0  0  0  0  0  0  0  0  0
    6.3166    1.4681   -1.0823 H   0  0  0  0  0  0  0  0  0  0  0  0
    7.5228    1.7954    0.1825 H   0  0  0  0  0  0  0  0  0  0  0  0
    4.4055    3.2927    1.6025 H   0  0  0  0  0  0  0  0  0  0  0  0
    6.1271    3.5928    1.2827 H   0  0  0  0  0  0  0  0  0  0  0  0
    4.9745    3.3990   -0.0550 H   0  0  0  0  0  0  0  0  0  0  0  0
    4.9997    1.2386    3.0346 H   0  0  0  0  0  0  0  0  0  0  0  0
    6.0757    0.0046    2.4000 H   0  0  0  0  0  0  0  0  0  0  0  0
    6.7141    1.6149    2.7391 H   0  0  0  0  0  0  0  0  0  0  0  0
    3.0361   -2.5215   -1.0764 H   0  0  0  0  0  0  0  0  0  0  0  0
    2.8525   -2.6964    0.6741 H   0  0  0  0  0  0  0  0  0  0  0  0
    0.4770   -2.1347    0.5624 H   0  0  0  0  0  0  0  0  0  0  0  0
    0.8254   -3.4744   -0.5473 H   0  0  0  0  0  0  0  0  0  0  0  0
    1.2843    0.0923   -2.3621 H   0  0  0  0  0  0  0  0  0  0  0  0
    2.1225    1.2304   -0.4167 H   0  0  0  0  0  0  0  0  0  0  0  0
    1.1722    0.2608    0.7015 H   0  0  0  0  0  0  0  0  0  0  0  0
   -4.0238   -1.1040   -1.6873 H   0  0  0  0  0  0  0  0  0  0  0  0
   -2.9727    3.5972   -1.2443 H   0  0  0  0  0  0  0  0  0  0  0  0
   -4.2651    2.4762   -1.6414 H   0  0  0  0  0  0  0  0  0  0  0  0
   -5.6099    1.4109    0.1431 H   0  0  0  0  0  0  0  0  0  0  0  0
   -6.3404    1.4378    2.5027 H   0  0  0  0  0  0  0  0  0  0  0  0
   -5.0328    2.6914    4.1999 H   0  0  0  0  0  0  0  0  0  0  0  0
   -2.9840    3.9204    3.5266 H   0  0  0  0  0  0  0  0  0  0  0  0
   -2.2420    3.9036    1.1687 H   0  0  0  0  0  0  0  0  0  0  0  0
    0.4357    2.8530   -1.1077 H   0  0  0  0  0  0  0  0  0  0  0  0
   -2.2522   -3.9617   -3.9931 H   0  0  0  0  0  0  0  0  0  0  0  0
   -3.5620   -5.4978   -2.1513 H   0  0  0  0  0  0  0  0  0  0  0  0
   -4.1330   -5.6310    0.2717 H   0  0  0  0  0  0  0  0  0  0  0  0
   -3.2992   -3.9145    1.8536 H   0  0  0  0  0  0  0  0  0  0  0  0
   -1.8642   -2.0492    1.0570 H   0  0  0  0  0  0  0  0  0  0  0  0
  1  2  1  0
  2  3  1  0
  2  4  1  0
  2  5  1  0
  5  6  1  0
  6  7  2  0
  6  8  1  0
  8  9  1  0
  9 10  1  0
 10 11  1  0
 11 12  1  0
 12 13  1  0
 12 14  1  0
 14 15  1  0
 15 16  2  0
 16 17  1  0
 16 18  1  0
 18 19  1  0
 19 20  1  0
 20 21  2  0
 21 22  1  0
 22 23  2  0
 23 24  1  0
 24 25  2  0
 18 26  1  0
 26 27  1  0
 15 28  1  0
 28 29  1  0
 29 30  2  0
 29 31  1  0
 31 32  1  0
 32 33  2  0
 33 34  1  0
 34 35  2  0
 35 36  1  0
 36 37  2  0
 13  8  1  0
 26 14  2  0
 37 28  1  0
 28 11  1  1
 37 32  1  0
 25 20  1  0
  1 38  1  0
  1 39  1  0
  1 40  1  0
  3 41  1  0
  3 42  1  0
  3 43  1  0
  4 44  1  0
  4 45  1  0
  4 46  1  0
  9 47  1  0
  9 48  1  0
 10 49  1  0
 10 50  1  0
 12 51  1  6
 13 52  1  0
 13 53  1  0
 17 54  1  0
 19 55  1  0
 19 56  1  0
 21 57  1  0
 22 58  1  0
 23 59  1  0
 24 60  1  0
 25 61  1  0
 27 62  1  0
 31 63  1  0
 33 64  1  0
 34 65  1  0
 35 66  1  0
 36 67  1  0
M  END
$$$$
