
     RDKit          3D

 22 23  0  0  0  0  0  0  0  0999 V2000
   -4.1756    0.3716    0.1446 C   0  0  0  0  0  0  0  0  0  0  0  0
   -2.6856    0.2049    0.1044 C   0  0  0  0  0  0  0  0  0  0  0  0
   -1.8931    1.0752   -0.6488 C   0  0  0  0  0  0  0  0  0  0  0  0
   -0.4988    0.9408   -0.6620 C   0  0  0  0  0  0  0  0  0  0  0  0
    0.1399   -0.0618    0.0851 C   0  0  0  0  0  0  0  0  0  0  0  0
    1.6026   -0.2528    0.1113 C   0  0  0  0  0  0  0  0  0  0  0  0
    2.2258   -1.1363    0.8708 N   0  0  0  0  0  0  0  0  0  0  0  0
    3.5957   -1.1127    0.7070 N   0  0  0  0  0  0  0  0  0  0  0  0
    3.9781   -0.2197   -0.1742 C   0  0  0  0  0  0  0  0  0  0  0  0
    5.2584    0.0012   -0.5313 N   0  0  0  0  0  0  0  0  0  0  0  0
    2.6839    0.6570   -0.8766 S   0  0  0  0  0  0  0  0  0  0  0  0
   -0.6693   -0.9183    0.8513 C   0  0  0  0  0  0  0  0  0  0  0  0
   -2.0619   -0.7858    0.8658 C   0  0  0  0  0  0  0  0  0  0  0  0
   -4.4540    1.0553    0.9525 H   0  0  0  0  0  0  0  0  0  0  0  0
   -4.6721   -0.5907    0.3080 H   0  0  0  0  0  0  0  0  0  0  0  0
   -4.5494    0.7726   -0.8034 H   0  0  0  0  0  0  0  0  0  0  0  0
   -2.3546    1.8685   -1.2335 H   0  0  0  0  0  0  0  0  0  0  0  0
    0.0677    1.6447   -1.2662 H   0  0  0  0  0  0  0  0  0  0  0  0
    5.4240    0.3972   -1.4486 H   0  0  0  0  0  0  0  0  0  0  0  0
    5.9056   -0.7416   -0.2874 H   0  0  0  0  0  0  0  0  0  0  0  0
   -0.2153   -1.7050    1.4534 H   0  0  0  0  0  0  0  0  0  0  0  0
   -2.6521   -1.4647    1.4778 H   0  0  0  0  0  0  0  0  0  0  0  0
  1  2  1  0
  2  3  2  0
  3  4  1  0
  4  5  2  0
  5  6  1  0
  6  7  2  0
  7  8  1  0
  8  9  2  0
  9 10  1  0
  9 11  1  0
  5 12  1  0
 12 13  2  0
 13  2  1  0
 11  6  1  0
  1 14  1  0
  1 15  1  0
  1 16  1  0
  3 17  1  0
  4 18  1  0
 10 19  1  0
 10 20  1  0
 12 21  1  0
 13 22  1  0
M  END
$$$$
