
     RDKit          3D

 50 53  0  0  0  0  0  0  0  0999 V2000
   -6.5578    3.3351   -3.8263 C   0  0  0  0  0  0  0  0  0  0  0  0
   -6.4025    2.5284   -2.6039 C   0  0  0  0  0  0  0  0  0  0  0  0
   -6.8907    1.3168   -2.1822 C   0  0  0  0  0  0  0  0  0  0  0  0
   -6.3347    1.1401   -0.8962 C   0  0  0  0  0  0  0  0  0  0  0  0
   -6.5596    0.0306   -0.1016 N   0  0  0  0  0  0  0  0  0  0  0  0
   -5.9717   -0.1696    1.4450 S   0  0  0  0  0  6  0  0  0  0  0  0
   -6.2582    1.0002    2.2441 O   0  0  0  0  0  0  0  0  0  0  0  0
   -6.4427   -1.4758    1.8653 O   0  0  0  0  0  0  0  0  0  0  0  0
   -4.2163   -0.3092    1.2110 C   0  0  0  0  0  0  0  0  0  0  0  0
   -3.6689   -1.5354    0.8293 C   0  0  0  0  0  0  0  0  0  0  0  0
   -2.2840   -1.6549    0.6795 C   0  0  0  0  0  0  0  0  0  0  0  0
   -1.4380   -0.5614    0.9182 C   0  0  0  0  0  0  0  0  0  0  0  0
   -0.0545   -0.7714    0.7413 N   0  0  0  0  0  0  0  0  0  0  0  0
    0.9701    0.1439    0.9254 C   0  0  0  0  0  0  0  0  0  0  0  0
    0.8539    1.3097    1.2831 O   0  0  0  0  0  0  0  0  0  0  0  0
    2.3231   -0.4714    0.6257 C   0  0  0  0  0  0  0  0  0  0  0  0
    3.4483    0.5347    0.8367 C   0  0  0  0  0  0  0  0  0  0  0  0
    4.7459   -0.0498    0.5445 N   0  0  0  0  0  0  0  0  0  0  0  0
    5.3609    0.0186   -0.6766 C   0  0  0  0  0  0  0  0  0  0  0  0
    4.9794    0.5496   -1.7018 O   0  0  0  0  0  0  0  0  0  0  0  0
    6.6106   -0.7298   -0.5539 C   0  0  0  0  0  0  0  0  0  0  0  0
    7.6174   -0.9499   -1.4737 C   0  0  0  0  0  0  0  0  0  0  0  0
    8.7003   -1.7320   -1.0588 C   0  0  0  0  0  0  0  0  0  0  0  0
    8.7466   -2.2719    0.2439 C   0  0  0  0  0  0  0  0  0  0  0  0
    7.7127   -2.0360    1.1561 C   0  0  0  0  0  0  0  0  0  0  0  0
    6.6583   -1.2561    0.7254 C   0  0  0  0  0  0  0  0  0  0  0  0
    5.4411   -0.8401    1.4196 C   0  0  0  0  0  0  0  0  0  0  0  0
    5.1381   -1.1913    2.5442 O   0  0  0  0  0  0  0  0  0  0  0  0
   -2.0008    0.6546    1.3139 C   0  0  0  0  0  0  0  0  0  0  0  0
   -3.3861    0.7819    1.4691 C   0  0  0  0  0  0  0  0  0  0  0  0
   -5.5571    2.1706   -0.5655 N   0  0  0  0  0  0  0  0  0  0  0  0
   -5.5996    3.0425   -1.6361 O   0  0  0  0  0  0  0  0  0  0  0  0
   -7.4332    3.0131   -4.3989 H   0  0  0  0  0  0  0  0  0  0  0  0
   -6.6847    4.3937   -3.5817 H   0  0  0  0  0  0  0  0  0  0  0  0
   -5.6753    3.2317   -4.4639 H   0  0  0  0  0  0  0  0  0  0  0  0
   -7.5529    0.6611   -2.7252 H   0  0  0  0  0  0  0  0  0  0  0  0
   -7.1459   -0.7304   -0.4273 H   0  0  0  0  0  0  0  0  0  0  0  0
   -4.3063   -2.3994    0.6564 H   0  0  0  0  0  0  0  0  0  0  0  0
   -1.8771   -2.6183    0.3819 H   0  0  0  0  0  0  0  0  0  0  0  0
    0.2172   -1.7035    0.4541 H   0  0  0  0  0  0  0  0  0  0  0  0
    2.3250   -0.8294   -0.4103 H   0  0  0  0  0  0  0  0  0  0  0  0
    2.4645   -1.3376    1.2819 H   0  0  0  0  0  0  0  0  0  0  0  0
    3.4557    0.8793    1.8769 H   0  0  0  0  0  0  0  0  0  0  0  0
    3.3046    1.4073    0.1899 H   0  0  0  0  0  0  0  0  0  0  0  0
    7.5671   -0.5313   -2.4737 H   0  0  0  0  0  0  0  0  0  0  0  0
    9.5183   -1.9297   -1.7505 H   0  0  0  0  0  0  0  0  0  0  0  0
    9.5992   -2.8797    0.5408 H   0  0  0  0  0  0  0  0  0  0  0  0
    7.7344   -2.4465    2.1610 H   0  0  0  0  0  0  0  0  0  0  0  0
   -1.3903    1.5306    1.5126 H   0  0  0  0  0  0  0  0  0  0  0  0
   -3.8036    1.7376    1.7812 H   0  0  0  0  0  0  0  0  0  0  0  0
  1  2  1  0
  2  3  2  0
  3  4  1  0
  4  5  1  0
  5  6  1  0
  6  7  2  0
  6  8  2  0
  6  9  1  0
  9 10  2  0
 10 11  1  0
 11 12  2  0
 12 13  1  0
 13 14  1  0
 14 15  2  0
 14 16  1  0
 16 17  1  0
 17 18  1  0
 18 19  1  0
 19 20  2  0
 19 21  1  0
 21 22  2  0
 22 23  1  0
 23 24  2  0
 24 25  1  0
 25 26  2  0
 26 27  1  0
 27 28  2  0
 12 29  1  0
 29 30  2  0
  4 31  2  0
 31 32  1  0
 32  2  1  0
 30  9  1  0
 27 18  1  0
 26 21  1  0
  1 33  1  0
  1 34  1  0
  1 35  1  0
  3 36  1  0
  5 37  1  0
 10 38  1  0
 11 39  1  0
 13 40  1  0
 16 41  1  0
 16 42  1  0
 17 43  1  0
 17 44  1  0
 22 45  1  0
 23 46  1  0
 24 47  1  0
 25 48  1  0
 29 49  1  0
 30 50  1  0
M  END
$$$$
