
     RDKit          3D

 46 48  0  0  0  0  0  0  0  0999 V2000
    6.2386    2.2385    1.9530 C   0  0  0  0  0  0  0  0  0  0  0  0
    4.8959    1.7357    1.4593 C   0  0  0  0  0  0  0  0  0  0  0  0
    5.1255    0.5819    0.6408 O   0  0  0  0  0  0  0  0  0  0  0  0
    4.0039    0.0416    0.1027 C   0  0  0  0  0  0  0  0  0  0  0  0
    2.8667    0.4598    0.2736 O   0  0  0  0  0  0  0  0  0  0  0  0
    4.3250   -1.1474   -0.7456 C   0  0  0  0  0  0  0  0  0  0  0  0
    5.6623   -1.5649   -0.8895 C   0  0  0  0  0  0  0  0  0  0  0  0
    5.9811   -2.6683   -1.6789 C   0  0  0  0  0  0  0  0  0  0  0  0
    4.9702   -3.3624   -2.3316 C   0  0  0  0  0  0  0  0  0  0  0  0
    3.6381   -2.9591   -2.1980 C   0  0  0  0  0  0  0  0  0  0  0  0
    3.2913   -1.8553   -1.4079 C   0  0  0  0  0  0  0  0  0  0  0  0
    1.9456   -1.4323   -1.2600 N   0  0  0  0  0  0  0  0  0  0  0  0
    0.7949   -1.9962   -1.7843 C   0  0  0  0  0  0  0  0  0  0  0  0
    0.7326   -3.0006   -2.4882 O   0  0  0  0  0  0  0  0  0  0  0  0
   -0.4625   -1.2315   -1.4015 C   0  0  0  0  0  0  0  0  0  0  0  0
   -0.9660   -1.7134    0.2821 S   0  0  0  0  0  0  0  0  0  0  0  0
   -2.4659   -0.7736    0.4383 C   0  0  0  0  0  0  0  0  0  0  0  0
   -3.2936   -0.9752    1.5278 C   0  0  0  0  0  0  0  0  0  0  0  0
   -4.4679   -0.2285    1.6357 C   0  0  0  0  0  0  0  0  0  0  0  0
   -4.7813    0.7014    0.6514 C   0  0  0  0  0  0  0  0  0  0  0  0
   -5.9906    1.5366    0.6644 C   0  0  0  0  0  0  0  0  0  0  0  0
   -7.1916    1.1387    1.2733 C   0  0  0  0  0  0  0  0  0  0  0  0
   -8.3086    1.9754    1.2589 C   0  0  0  0  0  0  0  0  0  0  0  0
   -8.2028    3.2029    0.6321 C   0  0  0  0  0  0  0  0  0  0  0  0
   -7.0783    3.6330    0.0278 N   0  0  0  0  0  0  0  0  0  0  0  0
   -6.0115    2.7929    0.0525 C   0  0  0  0  0  0  0  0  0  0  0  0
   -3.9378    0.8807   -0.3904 N   0  0  0  0  0  0  0  0  0  0  0  0
   -2.7783    0.1411   -0.4980 N   0  0  0  0  0  0  0  0  0  0  0  0
    6.1178    3.1317    2.5724 H   0  0  0  0  0  0  0  0  0  0  0  0
    6.7482    1.4670    2.5403 H   0  0  0  0  0  0  0  0  0  0  0  0
    6.8929    2.4791    1.1081 H   0  0  0  0  0  0  0  0  0  0  0  0
    4.2639    1.4634    2.3120 H   0  0  0  0  0  0  0  0  0  0  0  0
    4.4044    2.5167    0.8688 H   0  0  0  0  0  0  0  0  0  0  0  0
    6.4726   -1.0381   -0.3905 H   0  0  0  0  0  0  0  0  0  0  0  0
    7.0161   -2.9844   -1.7853 H   0  0  0  0  0  0  0  0  0  0  0  0
    5.2109   -4.2246   -2.9500 H   0  0  0  0  0  0  0  0  0  0  0  0
    2.8898   -3.5374   -2.7313 H   0  0  0  0  0  0  0  0  0  0  0  0
    1.8121   -0.6247   -0.6457 H   0  0  0  0  0  0  0  0  0  0  0  0
   -0.2665   -0.1552   -1.4560 H   0  0  0  0  0  0  0  0  0  0  0  0
   -1.2487   -1.4779   -2.1233 H   0  0  0  0  0  0  0  0  0  0  0  0
   -3.0407   -1.7028    2.2923 H   0  0  0  0  0  0  0  0  0  0  0  0
   -5.1103   -0.3770    2.4972 H   0  0  0  0  0  0  0  0  0  0  0  0
   -7.2831    0.1657    1.7498 H   0  0  0  0  0  0  0  0  0  0  0  0
   -9.2404    1.6721    1.7227 H   0  0  0  0  0  0  0  0  0  0  0  0
   -9.0432    3.8899    0.5939 H   0  0  0  0  0  0  0  0  0  0  0  0
   -5.1308    3.1851   -0.4530 H   0  0  0  0  0  0  0  0  0  0  0  0
  1  2  1  0
  2  3  1  0
  3  4  1  0
  4  5  2  0
  4  6  1  0
  6  7  2  0
  7  8  1  0
  8  9  2  0
  9 10  1  0
 10 11  2  0
 11 12  1  0
 12 13  1  0
 13 14  2  0
 13 15  1  0
 15 16  1  0
 16 17  1  0
 17 18  2  0
 18 19  1  0
 19 20  2  0
 20 21  1  0
 21 22  2  0
 22 23  1  0
 23 24  2  0
 24 25  1  0
 25 26  2  0
 20 27  1  0
 27 28  2  0
 11  6  1  0
 28 17  1  0
 26 21  1  0
  1 29  1  0
  1 30  1  0
  1 31  1  0
  2 32  1  0
  2 33  1  0
  7 34  1  0
  8 35  1  0
  9 36  1  0
 10 37  1  0
 12 38  1  0
 15 39  1  0
 15 40  1  0
 18 41  1  0
 19 42  1  0
 22 43  1  0
 23 44  1  0
 24 45  1  0
 26 46  1  0
M  END
$$$$
