
     RDKit          3D

 37 38  0  0  0  0  0  0  0  0999 V2000
    6.1897   -0.5247    2.8924 C   0  0  0  0  0  0  0  0  0  0  0  0
    6.1600   -1.0621    1.5762 O   0  0  0  0  0  0  0  0  0  0  0  0
    5.0222   -0.8573    0.8473 C   0  0  0  0  0  0  0  0  0  0  0  0
    3.8928   -0.1540    1.2663 C   0  0  0  0  0  0  0  0  0  0  0  0
    2.7869   -0.0155    0.4152 C   0  0  0  0  0  0  0  0  0  0  0  0
    2.8038   -0.5795   -0.8653 C   0  0  0  0  0  0  0  0  0  0  0  0
    1.6587   -0.4602   -1.8179 C   0  0  0  0  0  0  0  0  0  0  0  0
    1.6259   -1.1730   -2.8210 O   0  0  0  0  0  0  0  0  0  0  0  0
    0.5608    0.5350   -1.5554 C   0  0  0  0  0  0  0  0  0  0  0  0
   -0.5552   -0.0274   -0.7288 C   0  0  0  0  0  0  0  0  0  0  0  0
   -0.4623   -0.9912    0.0257 O   0  0  0  0  0  0  0  0  0  0  0  0
   -1.8881    0.7146   -0.7972 C   0  0  0  0  0  0  0  0  0  0  0  0
   -1.9326    1.7967   -1.3588 O   0  0  0  0  0  0  0  0  0  0  0  0
   -2.8966    0.0172   -0.1667 N   0  0  0  0  0  0  0  0  0  0  0  0
   -4.2457    0.3846   -0.0314 C   0  0  0  0  0  0  0  0  0  0  0  0
   -4.7867    1.5594   -0.5594 C   0  0  0  0  0  0  0  0  0  0  0  0
   -6.1432    1.8561   -0.3824 C   0  0  0  0  0  0  0  0  0  0  0  0
   -6.9615    0.9781    0.3228 C   0  0  0  0  0  0  0  0  0  0  0  0
   -8.6275    1.3448    0.5398 Cl  0  0  0  0  0  0  0  0  0  0  0  0
   -6.4353   -0.1963    0.8529 C   0  0  0  0  0  0  0  0  0  0  0  0
   -5.0802   -0.4914    0.6752 C   0  0  0  0  0  0  0  0  0  0  0  0
    3.9356   -1.2918   -1.2790 C   0  0  0  0  0  0  0  0  0  0  0  0
    5.0358   -1.4250   -0.4278 C   0  0  0  0  0  0  0  0  0  0  0  0
    6.1107    0.5673    2.8743 H   0  0  0  0  0  0  0  0  0  0  0  0
    5.4075   -0.9679    3.5175 H   0  0  0  0  0  0  0  0  0  0  0  0
    7.1563   -0.7812    3.3366 H   0  0  0  0  0  0  0  0  0  0  0  0
    3.8359    0.2953    2.2527 H   0  0  0  0  0  0  0  0  0  0  0  0
    1.9225    0.5221    0.7923 H   0  0  0  0  0  0  0  0  0  0  0  0
    0.9551    1.4399   -1.0843 H   0  0  0  0  0  0  0  0  0  0  0  0
    0.1681    0.8334   -2.5349 H   0  0  0  0  0  0  0  0  0  0  0  0
   -2.6017   -0.8608    0.2575 H   0  0  0  0  0  0  0  0  0  0  0  0
   -4.1823    2.2684   -1.1171 H   0  0  0  0  0  0  0  0  0  0  0  0
   -6.5496    2.7739   -0.7995 H   0  0  0  0  0  0  0  0  0  0  0  0
   -7.0706   -0.8852    1.4032 H   0  0  0  0  0  0  0  0  0  0  0  0
   -4.6898   -1.4147    1.0970 H   0  0  0  0  0  0  0  0  0  0  0  0
    3.9709   -1.7480   -2.2668 H   0  0  0  0  0  0  0  0  0  0  0  0
    5.9096   -1.9798   -0.7624 H   0  0  0  0  0  0  0  0  0  0  0  0
  1  2  1  0
  2  3  1  0
  3  4  2  0
  4  5  1  0
  5  6  2  0
  6  7  1  0
  7  8  2  0
  7  9  1  0
  9 10  1  0
 10 11  2  0
 10 12  1  0
 12 13  2  0
 12 14  1  0
 14 15  1  0
 15 16  2  0
 16 17  1  0
 17 18  2  0
 18 19  1  0
 18 20  1  0
 20 21  2  0
  6 22  1  0
 22 23  2  0
 23  3  1  0
 21 15  1  0
  1 24  1  0
  1 25  1  0
  1 26  1  0
  4 27  1  0
  5 28  1  0
  9 29  1  0
  9 30  1  0
 14 31  1  0
 16 32  1  0
 17 33  1  0
 20 34  1  0
 21 35  1  0
 22 36  1  0
 23 37  1  0
M  END
$$$$
