
     RDKit          3D

 53 56  0  0  0  0  0  0  0  0999 V2000
   -0.1739   -2.8625    0.1064 C   0  0  0  0  0  0  0  0  0  0  0  0
   -0.9930   -1.7018    0.5975 C   0  0  0  0  0  0  0  0  0  0  0  0
   -0.5413   -0.8862    1.6386 C   0  0  0  0  0  0  0  0  0  0  0  0
    0.6559   -1.1549    2.2481 O   0  0  0  0  0  0  0  0  0  0  0  0
    1.6633   -0.1986    1.8901 C   0  0  0  0  0  0  0  0  0  0  0  0
    2.1780    0.4471    3.1703 C   0  0  0  0  0  0  0  0  0  0  0  0
    2.8382   -0.8768    1.1571 C   0  0  0  0  0  0  0  0  0  0  0  0
    2.9851   -2.0923    1.0649 O   0  0  0  0  0  0  0  0  0  0  0  0
    3.7379    0.0132    0.6041 N   0  0  0  0  0  0  0  0  0  0  0  0
    4.8552   -0.4627   -0.1876 C   0  0  0  0  0  0  0  0  0  0  0  0
    5.6888    0.6938   -0.6877 C   0  0  0  0  0  0  0  0  0  0  0  0
    7.0795    0.6578   -0.6048 C   0  0  0  0  0  0  0  0  0  0  0  0
    7.8115    1.7321   -1.1054 C   0  0  0  0  0  0  0  0  0  0  0  0
    7.1410    2.8053   -1.6790 C   0  0  0  0  0  0  0  0  0  0  0  0
    5.7563    2.7680   -1.7196 C   0  0  0  0  0  0  0  0  0  0  0  0
    5.0170    1.7445   -1.2368 N   0  0  0  0  0  0  0  0  0  0  0  0
   -1.3213    0.1736    2.1040 C   0  0  0  0  0  0  0  0  0  0  0  0
   -2.5422    0.4710    1.4922 C   0  0  0  0  0  0  0  0  0  0  0  0
   -3.0072   -0.2904    0.4128 C   0  0  0  0  0  0  0  0  0  0  0  0
   -4.2772   -0.0144   -0.2830 C   0  0  0  0  0  0  0  0  0  0  0  0
   -4.6076   -0.7451   -1.3658 C   0  0  0  0  0  0  0  0  0  0  0  0
   -3.7610   -1.8646   -1.8502 C   0  0  0  0  0  0  0  0  0  0  0  0
   -4.0682   -2.5295   -2.8345 O   0  0  0  0  0  0  0  0  0  0  0  0
   -2.6140   -2.1364   -1.1262 O   0  0  0  0  0  0  0  0  0  0  0  0
   -2.2126   -1.3591   -0.0180 C   0  0  0  0  0  0  0  0  0  0  0  0
   -5.8586   -0.5036   -2.1744 C   0  0  0  0  0  0  0  0  0  0  0  0
   -6.5379    0.8306   -1.8597 C   0  0  0  0  0  0  0  0  0  0  0  0
   -6.5940    1.0515   -0.3558 C   0  0  0  0  0  0  0  0  0  0  0  0
   -5.1845    1.0776    0.2422 C   0  0  0  0  0  0  0  0  0  0  0  0
   -0.8072   -3.6535   -0.3060 H   0  0  0  0  0  0  0  0  0  0  0  0
    0.3935   -3.3223    0.9211 H   0  0  0  0  0  0  0  0  0  0  0  0
    0.5228   -2.5303   -0.6666 H   0  0  0  0  0  0  0  0  0  0  0  0
    1.2724    0.5801    1.2211 H   0  0  0  0  0  0  0  0  0  0  0  0
    1.3597    0.9181    3.7196 H   0  0  0  0  0  0  0  0  0  0  0  0
    2.6156   -0.2991    3.8356 H   0  0  0  0  0  0  0  0  0  0  0  0
    2.9391    1.2059    2.9636 H   0  0  0  0  0  0  0  0  0  0  0  0
    3.4507    0.9692    0.4159 H   0  0  0  0  0  0  0  0  0  0  0  0
    5.4439   -1.1495    0.4351 H   0  0  0  0  0  0  0  0  0  0  0  0
    4.4687   -1.0334   -1.0435 H   0  0  0  0  0  0  0  0  0  0  0  0
    7.5908   -0.1851   -0.1527 H   0  0  0  0  0  0  0  0  0  0  0  0
    8.8939    1.7217   -1.0550 H   0  0  0  0  0  0  0  0  0  0  0  0
    7.6858    3.6520   -2.0885 H   0  0  0  0  0  0  0  0  0  0  0  0
    5.1915    3.5778   -2.1701 H   0  0  0  0  0  0  0  0  0  0  0  0
   -0.9822    0.7736    2.9449 H   0  0  0  0  0  0  0  0  0  0  0  0
   -3.1069    1.3149    1.8782 H   0  0  0  0  0  0  0  0  0  0  0  0
   -6.5632   -1.3231   -1.9725 H   0  0  0  0  0  0  0  0  0  0  0  0
   -5.6369   -0.5283   -3.2484 H   0  0  0  0  0  0  0  0  0  0  0  0
   -7.5497    0.8336   -2.2818 H   0  0  0  0  0  0  0  0  0  0  0  0
   -5.9861    1.6529   -2.3345 H   0  0  0  0  0  0  0  0  0  0  0  0
   -7.1720    0.2413    0.1064 H   0  0  0  0  0  0  0  0  0  0  0  0
   -7.1181    1.9854   -0.1230 H   0  0  0  0  0  0  0  0  0  0  0  0
   -5.2956    0.9932    1.3314 H   0  0  0  0  0  0  0  0  0  0  0  0
   -4.7235    2.0506    0.0298 H   0  0  0  0  0  0  0  0  0  0  0  0
  1  2  1  0
  2  3  2  0
  3  4  1  0
  4  5  1  0
  5  6  1  0
  5  7  1  0
  7  8  2  0
  7  9  1  0
  9 10  1  0
 10 11  1  0
 11 12  2  0
 12 13  1  0
 13 14  2  0
 14 15  1  0
 15 16  2  0
  3 17  1  0
 17 18  2  0
 18 19  1  0
 19 20  1  0
 20 21  2  0
 21 22  1  0
 22 23  2  0
 22 24  1  0
 24 25  1  0
 21 26  1  0
 26 27  1  0
 27 28  1  0
 28 29  1  0
 25  2  1  0
 16 11  1  0
 25 19  2  0
 29 20  1  0
  1 30  1  0
  1 31  1  0
  1 32  1  0
  5 33  1  0
  6 34  1  0
  6 35  1  0
  6 36  1  0
  9 37  1  0
 10 38  1  0
 10 39  1  0
 12 40  1  0
 13 41  1  0
 14 42  1  0
 15 43  1  0
 17 44  1  0
 18 45  1  0
 26 46  1  0
 26 47  1  0
 27 48  1  0
 27 49  1  0
 28 50  1  0
 28 51  1  0
 29 52  1  0
 29 53  1  0
M  END
$$$$
