
     RDKit          3D

 47 51  0  0  0  0  0  0  0  0999 V2000
   -5.6473   -2.5159    1.4038 C   0  0  0  0  0  0  0  0  0  0  0  0
   -5.3437   -1.2501    0.6881 C   0  0  0  0  0  0  0  0  0  0  0  0
   -4.0827   -0.7699    0.3557 C   0  0  0  0  0  0  0  0  0  0  0  0
   -2.7507   -1.3183    0.5673 C   0  0  0  0  0  0  0  0  0  0  0  0
   -2.5659   -2.4357    1.0370 O   0  0  0  0  0  0  0  0  0  0  0  0
   -1.7536   -0.4364    0.1845 N   0  0  0  0  0  0  0  0  0  0  0  0
   -0.3588   -0.6188    0.2165 C   0  0  0  0  0  0  0  0  0  0  0  0
    0.2591   -1.8105    0.5889 C   0  0  0  0  0  0  0  0  0  0  0  0
    1.6569   -1.9298    0.5886 C   0  0  0  0  0  0  0  0  0  0  0  0
    2.4570   -0.8317    0.2177 C   0  0  0  0  0  0  0  0  0  0  0  0
    3.8364   -0.8085    0.1619 N   0  0  0  0  0  0  0  0  0  0  0  0
    4.2802    0.3843   -0.1656 C   0  0  0  0  0  0  0  0  0  0  0  0
    5.6108    0.6877   -0.2892 N   0  0  0  0  0  0  0  0  0  0  0  0
    6.5392   -0.4304   -0.0089 C   0  0  0  0  0  0  0  0  0  0  0  0
    7.9671   -0.0592   -0.4266 C   0  0  0  0  0  0  0  0  0  0  0  0
    8.4058    1.1492    0.2129 O   0  0  0  0  0  0  0  0  0  0  0  0
    7.5383    2.2339   -0.1446 C   0  0  0  0  0  0  0  0  0  0  0  0
    6.0869    1.9646    0.2802 C   0  0  0  0  0  0  0  0  0  0  0  0
    3.0246    1.5263   -0.5117 S   0  0  0  0  0  0  0  0  0  0  0  0
    1.8267    0.3556   -0.1405 C   0  0  0  0  0  0  0  0  0  0  0  0
    0.4266    0.4818   -0.1606 C   0  0  0  0  0  0  0  0  0  0  0  0
   -4.1959    0.4403   -0.2795 O   0  0  0  0  0  0  0  0  0  0  0  0
   -5.5199    0.7231   -0.3821 C   0  0  0  0  0  0  0  0  0  0  0  0
   -6.0548    1.8586   -0.9875 C   0  0  0  0  0  0  0  0  0  0  0  0
   -7.4492    1.9675   -0.9882 C   0  0  0  0  0  0  0  0  0  0  0  0
   -8.2498    0.9827   -0.4046 C   0  0  0  0  0  0  0  0  0  0  0  0
   -7.6797   -0.1499    0.1953 C   0  0  0  0  0  0  0  0  0  0  0  0
   -6.2775   -0.2830    0.2021 C   0  0  0  0  0  0  0  0  0  0  0  0
   -5.4580   -3.3754    0.7532 H   0  0  0  0  0  0  0  0  0  0  0  0
   -6.6939   -2.5533    1.7241 H   0  0  0  0  0  0  0  0  0  0  0  0
   -5.0266   -2.6135    2.3006 H   0  0  0  0  0  0  0  0  0  0  0  0
   -2.0974    0.4521   -0.1690 H   0  0  0  0  0  0  0  0  0  0  0  0
   -0.3147   -2.6854    0.8811 H   0  0  0  0  0  0  0  0  0  0  0  0
    2.1293   -2.8658    0.8694 H   0  0  0  0  0  0  0  0  0  0  0  0
    6.5193   -0.6587    1.0648 H   0  0  0  0  0  0  0  0  0  0  0  0
    6.2418   -1.3321   -0.5576 H   0  0  0  0  0  0  0  0  0  0  0  0
    8.0420    0.0668   -1.5139 H   0  0  0  0  0  0  0  0  0  0  0  0
    8.6578   -0.8571   -0.1361 H   0  0  0  0  0  0  0  0  0  0  0  0
    7.9087    3.1339    0.3564 H   0  0  0  0  0  0  0  0  0  0  0  0
    7.6046    2.4038   -1.2259 H   0  0  0  0  0  0  0  0  0  0  0  0
    6.0321    1.9074    1.3749 H   0  0  0  0  0  0  0  0  0  0  0  0
    5.4779    2.8118   -0.0512 H   0  0  0  0  0  0  0  0  0  0  0  0
   -0.0242    1.4254   -0.4526 H   0  0  0  0  0  0  0  0  0  0  0  0
   -5.4193    2.6142   -1.4333 H   0  0  0  0  0  0  0  0  0  0  0  0
   -7.9173    2.8343   -1.4505 H   0  0  0  0  0  0  0  0  0  0  0  0
   -9.3327    1.0923   -0.4173 H   0  0  0  0  0  0  0  0  0  0  0  0
   -8.3157   -0.9081    0.6420 H   0  0  0  0  0  0  0  0  0  0  0  0
  1  2  1  0
  2  3  2  0
  3  4  1  0
  4  5  2  0
  4  6  1  0
  6  7  1  0
  7  8  2  0
  8  9  1  0
  9 10  2  0
 10 11  1  0
 11 12  2  0
 12 13  1  0
 13 14  1  0
 14 15  1  0
 15 16  1  0
 16 17  1  0
 17 18  1  0
 12 19  1  0
 19 20  1  0
 20 21  2  0
  3 22  1  0
 22 23  1  0
 23 24  2  0
 24 25  1  0
 25 26  2  0
 26 27  1  0
 27 28  2  0
 28  2  1  0
 21  7  1  0
 28 23  1  0
 20 10  1  0
 18 13  1  0
  1 29  1  0
  1 30  1  0
  1 31  1  0
  6 32  1  0
  8 33  1  0
  9 34  1  0
 14 35  1  0
 14 36  1  0
 15 37  1  0
 15 38  1  0
 17 39  1  0
 17 40  1  0
 18 41  1  0
 18 42  1  0
 21 43  1  0
 24 44  1  0
 25 45  1  0
 26 46  1  0
 27 47  1  0
M  END
$$$$
