
     RDKit          3D

 36 38  0  0  0  0  0  0  0  0999 V2000
   -2.4082    0.1265   -2.8950 C   0  0  0  0  0  0  0  0  0  0  0  0
   -2.4260    0.1324   -1.3939 C   0  0  0  0  0  0  0  0  0  0  0  0
   -2.5164   -1.0694   -0.6788 C   0  0  0  0  0  0  0  0  0  0  0  0
   -2.5043   -1.0640    0.7163 C   0  0  0  0  0  0  0  0  0  0  0  0
   -2.3723    0.1484    1.3993 C   0  0  0  0  0  0  0  0  0  0  0  0
   -2.3002    0.1525    3.1755 S   0  0  0  0  0  6  0  0  0  0  0  0
   -2.8145    1.4259    3.6328 O   0  0  0  0  0  0  0  0  0  0  0  0
   -2.8569   -1.0971    3.6414 O   0  0  0  0  0  0  0  0  0  0  0  0
   -0.6294    0.1633    3.5373 N   0  0  0  0  0  0  0  0  0  0  0  0
    0.3209   -0.2653    2.4443 N   0  0  0  0  0  0  0  0  0  0  0  0
    0.8704    0.7174    1.6403 C   0  0  0  0  0  0  0  0  0  0  0  0
    0.6968    1.9215    1.7745 O   0  0  0  0  0  0  0  0  0  0  0  0
    1.7141    0.0814    0.5935 C   0  0  0  0  0  0  0  0  0  0  0  0
    2.3105    0.8333   -0.3411 C   0  0  0  0  0  0  0  0  0  0  0  0
    3.1322    0.3417   -1.3960 C   0  0  0  0  0  0  0  0  0  0  0  0
    2.9996   -0.7621   -2.2219 C   0  0  0  0  0  0  0  0  0  0  0  0
    4.0541   -0.8812   -3.1744 C   0  0  0  0  0  0  0  0  0  0  0  0
    4.9609    0.1457   -3.0661 C   0  0  0  0  0  0  0  0  0  0  0  0
    4.5374    1.2459   -1.8313 S   0  0  0  0  0  0  0  0  0  0  0  0
    1.7744   -1.6244    0.8411 S   0  0  0  0  0  0  0  0  0  0  0  0
    0.7104   -1.5721    2.2452 C   0  0  0  0  0  0  0  0  0  0  0  0
    0.3004   -2.9203    3.1277 S   0  0  0  0  0  0  0  0  0  0  0  0
   -2.3022    1.3555    0.7007 C   0  0  0  0  0  0  0  0  0  0  0  0
   -2.3148    1.3421   -0.6948 C   0  0  0  0  0  0  0  0  0  0  0  0
   -2.9773    0.9745   -3.2911 H   0  0  0  0  0  0  0  0  0  0  0  0
   -1.3767    0.1877   -3.2560 H   0  0  0  0  0  0  0  0  0  0  0  0
   -2.8649   -0.7861   -3.2918 H   0  0  0  0  0  0  0  0  0  0  0  0
   -2.6093   -2.0170   -1.2063 H   0  0  0  0  0  0  0  0  0  0  0  0
   -2.5961   -2.0046    1.2567 H   0  0  0  0  0  0  0  0  0  0  0  0
   -0.4041    1.0965    3.9044 H   0  0  0  0  0  0  0  0  0  0  0  0
    2.1862    1.9157   -0.2920 H   0  0  0  0  0  0  0  0  0  0  0  0
    2.1772   -1.4647   -2.1594 H   0  0  0  0  0  0  0  0  0  0  0  0
    4.1369   -1.6767   -3.9049 H   0  0  0  0  0  0  0  0  0  0  0  0
    5.8498    0.3096   -3.6592 H   0  0  0  0  0  0  0  0  0  0  0  0
   -2.2175    2.3040    1.2285 H   0  0  0  0  0  0  0  0  0  0  0  0
   -2.2412    2.2836   -1.2363 H   0  0  0  0  0  0  0  0  0  0  0  0
  1  2  1  0
  2  3  2  0
  3  4  1  0
  4  5  2  0
  5  6  1  0
  6  7  2  0
  6  8  2  0
  6  9  1  0
  9 10  1  0
 10 11  1  0
 11 12  2  0
 11 13  1  0
 13 14  2  3
 14 15  1  0
 15 16  2  0
 16 17  1  0
 17 18  2  0
 18 19  1  0
 13 20  1  0
 20 21  1  0
 21 22  2  0
  5 23  1  0
 23 24  2  0
 24  2  1  0
 21 10  1  0
 19 15  1  0
  1 25  1  0
  1 26  1  0
  1 27  1  0
  3 28  1  0
  4 29  1  0
  9 30  1  0
 14 31  1  0
 16 32  1  0
 17 33  1  0
 18 34  1  0
 23 35  1  0
 24 36  1  0
M  END
$$$$
