
     RDKit          3D

 83 84  0  0  0  0  0  0  0  0999 V2000
    0.1052    3.0986    0.5197 C   0  0  0  0  0  0  0  0  0  0  0  0
    0.3191    1.9639   -0.1767 C   0  0  0  0  0  0  0  0  0  0  0  0
    1.7098    1.3186   -0.2613 C   0  0  1  0  0  0  0  0  0  0  0  0
    2.6304    2.3521   -0.6591 O   0  0  0  0  0  0  0  0  0  0  0  0
    3.6078    2.0017   -1.5382 C   0  0  0  0  0  0  0  0  0  0  0  0
    4.4328    3.2029   -1.8950 C   0  0  0  0  0  0  0  0  0  0  0  0
    3.8046    0.8734   -1.9661 O   0  0  0  0  0  0  0  0  0  0  0  0
    2.1278    0.7599    1.1111 C   0  0  0  0  0  0  0  0  0  0  0  0
    3.2469   -0.3063    1.0886 C   0  0  1  0  0  0  0  0  0  0  0  0
    3.8602   -0.2923    2.4096 O   0  0  0  0  0  0  0  0  0  0  0  0
    4.9165    0.5548    2.5708 C   0  0  0  0  0  0  0  0  0  0  0  0
    5.4830    0.4145    3.9514 C   0  0  0  0  0  0  0  0  0  0  0  0
    5.3371    1.3405    1.7324 O   0  0  0  0  0  0  0  0  0  0  0  0
    2.8072   -1.7947    0.7802 C   0  0  0  0  0  0  0  0  0  0  0  0
    1.7630   -2.3006    1.7903 C   0  0  0  0  0  0  0  0  0  0  0  0
    4.0476   -2.7146    0.9765 C   0  0  0  0  0  0  0  0  0  0  0  0
    2.4308   -1.9562   -0.6888 C   0  0  0  0  0  0  0  0  0  0  0  0
    1.3558   -2.3857   -1.3721 C   0  0  0  0  0  0  0  0  0  0  0  0
   -0.0247   -2.8424   -0.9608 C   0  0  0  0  0  0  0  0  0  0  0  0
   -0.2407   -4.3125   -1.3032 C   0  0  0  0  0  0  0  0  0  0  0  0
   -1.0355   -1.9758   -1.7387 C   0  0  0  0  0  0  0  0  0  0  0  0
   -0.9937   -1.9226   -2.9732 O   0  0  0  0  0  0  0  0  0  0  0  0
   -2.0365   -1.0917   -0.9425 C   0  0  1  0  0  0  0  0  0  0  0  0
   -2.9351   -0.4203   -1.8501 O   0  0  0  0  0  0  0  0  0  0  0  0
   -3.7772   -1.2011   -2.5865 C   0  0  0  0  0  0  0  0  0  0  0  0
   -4.5558   -0.3508   -3.5418 C   0  0  0  0  0  0  0  0  0  0  0  0
   -3.9149   -2.4108   -2.4617 O   0  0  0  0  0  0  0  0  0  0  0  0
   -2.8452   -1.8426    0.1500 C   0  0  0  0  0  0  0  0  0  0  0  0
   -2.4075   -1.2422    1.4943 C   0  0  2  0  0  0  0  0  0  0  0  0
   -3.4688   -1.3847    2.5782 C   0  0  0  0  0  0  0  0  0  0  0  0
   -2.0387    0.2025    1.1278 C   0  0  2  0  0  0  0  0  0  0  0  0
   -3.2352    0.9466    0.8549 O   0  0  0  0  0  0  0  0  0  0  0  0
   -3.5514    1.9437    1.7283 C   0  0  0  0  0  0  0  0  0  0  0  0
   -4.8340    2.5949    1.3097 C   0  0  0  0  0  0  0  0  0  0  0  0
   -2.9105    2.2588    2.7196 O   0  0  0  0  0  0  0  0  0  0  0  0
   -1.2175   -0.0237   -0.1544 C   0  0  2  0  0  0  0  0  0  0  0  0
   -0.7802    1.2239   -0.9504 C   0  0  1  0  0  0  0  0  0  0  0  0
   -1.9028    2.0812   -1.2113 O   0  0  0  0  0  0  0  0  0  0  0  0
   -1.7826    2.9049   -2.2872 C   0  0  0  0  0  0  0  0  0  0  0  0
   -3.0493    3.6833   -2.4739 C   0  0  0  0  0  0  0  0  0  0  0  0
   -0.8040    3.0009   -3.0107 O   0  0  0  0  0  0  0  0  0  0  0  0
    0.9123    3.5989    1.0471 H   0  0  0  0  0  0  0  0  0  0  0  0
   -0.8747    3.5603    0.5850 H   0  0  0  0  0  0  0  0  0  0  0  0
    1.6761    0.5347   -1.0212 H   0  0  0  0  0  0  0  0  0  0  0  0
    3.7758    4.0207   -2.2125 H   0  0  0  0  0  0  0  0  0  0  0  0
    5.0904    2.9508   -2.7278 H   0  0  0  0  0  0  0  0  0  0  0  0
    5.0429    3.5032   -1.0386 H   0  0  0  0  0  0  0  0  0  0  0  0
    2.4681    1.6004    1.7319 H   0  0  0  0  0  0  0  0  0  0  0  0
    1.2646    0.3576    1.6436 H   0  0  0  0  0  0  0  0  0  0  0  0
    4.0092   -0.0269    0.3534 H   0  0  0  0  0  0  0  0  0  0  0  0
    6.4819    0.8607    3.9815 H   0  0  0  0  0  0  0  0  0  0  0  0
    5.5813   -0.6446    4.2028 H   0  0  0  0  0  0  0  0  0  0  0  0
    4.8376    0.9252    4.6681 H   0  0  0  0  0  0  0  0  0  0  0  0
    1.5128   -3.3543    1.6111 H   0  0  0  0  0  0  0  0  0  0  0  0
    0.8366   -1.7265    1.7584 H   0  0  0  0  0  0  0  0  0  0  0  0
    2.1348   -2.2344    2.8189 H   0  0  0  0  0  0  0  0  0  0  0  0
    4.9016   -2.3749    0.3760 H   0  0  0  0  0  0  0  0  0  0  0  0
    3.8215   -3.7474    0.6814 H   0  0  0  0  0  0  0  0  0  0  0  0
    4.3733   -2.7458    2.0248 H   0  0  0  0  0  0  0  0  0  0  0  0
    3.2685   -1.6724   -1.3403 H   0  0  0  0  0  0  0  0  0  0  0  0
    1.4933   -2.3929   -2.4605 H   0  0  0  0  0  0  0  0  0  0  0  0
   -0.1861   -2.7207    0.1076 H   0  0  0  0  0  0  0  0  0  0  0  0
    0.4856   -4.9469   -0.7844 H   0  0  0  0  0  0  0  0  0  0  0  0
   -1.2500   -4.6358   -1.0089 H   0  0  0  0  0  0  0  0  0  0  0  0
   -0.1423   -4.5007   -2.3816 H   0  0  0  0  0  0  0  0  0  0  0  0
   -5.2708    0.2639   -2.9899 H   0  0  0  0  0  0  0  0  0  0  0  0
   -5.1019   -0.9928   -4.2391 H   0  0  0  0  0  0  0  0  0  0  0  0
   -3.8735    0.2771   -4.1209 H   0  0  0  0  0  0  0  0  0  0  0  0
   -2.6822   -2.9229    0.1385 H   0  0  0  0  0  0  0  0  0  0  0  0
   -3.9241   -1.6784    0.0276 H   0  0  0  0  0  0  0  0  0  0  0  0
   -1.5046   -1.7681    1.8341 H   0  0  0  0  0  0  0  0  0  0  0  0
   -3.7040   -2.4411    2.7415 H   0  0  0  0  0  0  0  0  0  0  0  0
   -3.0988   -0.9754    3.5222 H   0  0  0  0  0  0  0  0  0  0  0  0
   -4.4014   -0.8706    2.3240 H   0  0  0  0  0  0  0  0  0  0  0  0
   -1.4262    0.6639    1.9091 H   0  0  0  0  0  0  0  0  0  0  0  0
   -5.6629    1.8975    1.4449 H   0  0  0  0  0  0  0  0  0  0  0  0
   -4.7662    2.9086    0.2644 H   0  0  0  0  0  0  0  0  0  0  0  0
   -5.0097    3.4808    1.9238 H   0  0  0  0  0  0  0  0  0  0  0  0
   -0.2946   -0.5072    0.1825 H   0  0  0  0  0  0  0  0  0  0  0  0
   -0.3668    0.8821   -1.9104 H   0  0  0  0  0  0  0  0  0  0  0  0
   -3.8196    3.0332   -2.9035 H   0  0  0  0  0  0  0  0  0  0  0  0
   -3.3857    4.0848   -1.5121 H   0  0  0  0  0  0  0  0  0  0  0  0
   -2.8661    4.5260   -3.1429 H   0  0  0  0  0  0  0  0  0  0  0  0
  1  2  2  0
  2  3  1  0
  3  4  1  0
  4  5  1  0
  5  6  1  0
  5  7  2  0
  3  8  1  0
  8  9  1  0
  9 10  1  0
 10 11  1  0
 11 12  1  0
 11 13  2  0
  9 14  1  0
 14 15  1  0
 14 16  1  0
 14 17  1  0
 17 18  2  3
 18 19  1  0
 19 20  1  0
 19 21  1  0
 21 22  2  0
 21 23  1  0
 23 24  1  6
 24 25  1  0
 25 26  1  0
 25 27  2  0
 23 28  1  0
 28 29  1  0
 29 30  1  0
 29 31  1  0
 31 32  1  0
 32 33  1  0
 33 34  1  0
 33 35  2  0
 31 36  1  0
 36 37  1  0
 37 38  1  0
 38 39  1  0
 39 40  1  0
 39 41  2  0
 37  2  1  0
 36 23  1  0
  1 42  1  0
  1 43  1  0
  3 44  1  6
  6 45  1  0
  6 46  1  0
  6 47  1  0
  8 48  1  0
  8 49  1  0
  9 50  1  6
 12 51  1  0
 12 52  1  0
 12 53  1  0
 15 54  1  0
 15 55  1  0
 15 56  1  0
 16 57  1  0
 16 58  1  0
 16 59  1  0
 17 60  1  0
 18 61  1  0
 19 62  1  0
 20 63  1  0
 20 64  1  0
 20 65  1  0
 26 66  1  0
 26 67  1  0
 26 68  1  0
 28 69  1  0
 28 70  1  0
 29 71  1  1
 30 72  1  0
 30 73  1  0
 30 74  1  0
 31 75  1  1
 34 76  1  0
 34 77  1  0
 34 78  1  0
 36 79  1  1
 37 80  1  6
 40 81  1  0
 40 82  1  0
 40 83  1  0
M  END
$$$$
