
     RDKit          3D

 37 39  0  0  0  0  0  0  0  0999 V2000
    4.2843   -2.2192    0.7416 C   0  0  0  0  0  0  0  0  0  0  0  0
    3.0703   -1.3472    0.6209 C   0  0  0  0  0  0  0  0  0  0  0  0
    1.8001   -1.8567    0.8887 C   0  0  0  0  0  0  0  0  0  0  0  0
    0.6722   -1.0329    0.8079 C   0  0  0  0  0  0  0  0  0  0  0  0
    0.7806    0.3144    0.4415 C   0  0  0  0  0  0  0  0  0  0  0  0
    2.0687    0.8461    0.2307 C   0  0  0  0  0  0  0  0  0  0  0  0
    3.1981    0.0109    0.3186 C   0  0  0  0  0  0  0  0  0  0  0  0
    2.2961    2.3157   -0.0267 C   0  0  0  0  0  0  0  0  0  0  0  0
    1.0166    3.0561   -0.3794 C   0  0  0  0  0  0  0  0  0  0  0  0
   -0.1059    2.6015    0.5370 C   0  0  0  0  0  0  0  0  0  0  0  0
   -0.3593    1.1729    0.3582 N   0  0  0  0  0  0  0  0  0  0  0  0
   -1.6930    0.7772    0.2499 C   0  0  0  0  0  0  0  0  0  0  0  0
   -2.6098    1.4571    0.7282 O   0  0  0  0  0  0  0  0  0  0  0  0
   -2.0180   -0.4437   -0.6390 C   0  0  0  0  0  0  0  0  0  0  0  0
   -2.9276   -1.4407    0.0763 C   0  0  0  0  0  0  0  0  0  0  0  0
   -4.0246   -1.7156   -0.9232 C   0  0  0  0  0  0  0  0  0  0  0  0
   -4.1056   -0.4101   -1.6721 C   0  0  0  0  0  0  0  0  0  0  0  0
   -2.7496    0.0259   -1.7987 O   0  0  0  0  0  0  0  0  0  0  0  0
    5.0705   -1.8906    0.0537 H   0  0  0  0  0  0  0  0  0  0  0  0
    4.0458   -3.2577    0.4892 H   0  0  0  0  0  0  0  0  0  0  0  0
    4.6710   -2.1835    1.7647 H   0  0  0  0  0  0  0  0  0  0  0  0
    1.6773   -2.8979    1.1797 H   0  0  0  0  0  0  0  0  0  0  0  0
   -0.2792   -1.4677    1.0921 H   0  0  0  0  0  0  0  0  0  0  0  0
    4.1892    0.4327    0.1576 H   0  0  0  0  0  0  0  0  0  0  0  0
    2.7284    2.7550    0.8813 H   0  0  0  0  0  0  0  0  0  0  0  0
    3.0216    2.4487   -0.8380 H   0  0  0  0  0  0  0  0  0  0  0  0
    0.7453    2.8473   -1.4224 H   0  0  0  0  0  0  0  0  0  0  0  0
    1.1730    4.1369   -0.2942 H   0  0  0  0  0  0  0  0  0  0  0  0
    0.1345    2.7785    1.5927 H   0  0  0  0  0  0  0  0  0  0  0  0
   -1.0062    3.1814    0.3045 H   0  0  0  0  0  0  0  0  0  0  0  0
   -1.1239   -0.9226   -1.0397 H   0  0  0  0  0  0  0  0  0  0  0  0
   -3.3484   -1.0220    0.9979 H   0  0  0  0  0  0  0  0  0  0  0  0
   -2.3947   -2.3539    0.3590 H   0  0  0  0  0  0  0  0  0  0  0  0
   -4.9718   -2.0080   -0.4632 H   0  0  0  0  0  0  0  0  0  0  0  0
   -3.7072   -2.5164   -1.6015 H   0  0  0  0  0  0  0  0  0  0  0  0
   -4.5536   -0.5179   -2.6634 H   0  0  0  0  0  0  0  0  0  0  0  0
   -4.6650    0.3461   -1.1105 H   0  0  0  0  0  0  0  0  0  0  0  0
  1  2  1  0
  2  3  2  0
  3  4  1  0
  4  5  2  0
  5  6  1  0
  6  7  2  0
  6  8  1  0
  8  9  1  0
  9 10  1  0
 10 11  1  0
 11 12  1  0
 12 13  2  0
 12 14  1  0
 14 15  1  0
 15 16  1  0
 16 17  1  0
 17 18  1  0
  7  2  1  0
 18 14  1  0
 11  5  1  0
  1 19  1  0
  1 20  1  0
  1 21  1  0
  3 22  1  0
  4 23  1  0
  7 24  1  0
  8 25  1  0
  8 26  1  0
  9 27  1  0
  9 28  1  0
 10 29  1  0
 10 30  1  0
 14 31  1  0
 15 32  1  0
 15 33  1  0
 16 34  1  0
 16 35  1  0
 17 36  1  0
 17 37  1  0
M  END
$$$$
