
     RDKit          3D

 66 70  0  0  0  0  0  0  0  0999 V2000
    3.7602    0.8077    0.8839 C   0  0  0  0  0  0  0  0  0  0  0  0
    3.8844   -0.6454    0.6012 C   0  0  0  0  0  0  0  0  0  0  0  0
    3.1079   -1.4145   -0.2488 C   0  0  0  0  0  0  0  0  0  0  0  0
    1.9487   -1.0166   -1.1165 C   0  0  0  0  0  0  0  0  0  0  0  0
    0.6230   -1.0769   -0.3609 C   0  0  0  0  0  0  0  0  0  0  0  0
   -0.4205   -0.6168   -1.2276 O   0  0  0  0  0  0  0  0  0  0  0  0
   -1.6464   -0.5535   -0.6215 C   0  0  0  0  0  0  0  0  0  0  0  0
   -1.8365   -0.8297    0.5526 O   0  0  0  0  0  0  0  0  0  0  0  0
   -2.6751   -0.0736   -1.6260 C   0  0  0  0  0  0  0  0  0  0  0  0
   -4.1562   -0.1130   -1.1872 C   0  0  0  0  0  0  0  0  0  0  0  0
   -4.6127   -1.5459   -0.8160 C   0  0  0  0  0  0  0  0  0  0  0  0
   -6.1062   -1.5620   -0.4475 C   0  0  0  0  0  0  0  0  0  0  0  0
   -6.9331   -1.0789   -1.6475 C   0  0  0  0  0  0  0  0  0  0  0  0
   -6.5193    0.3500   -2.0261 C   0  0  0  0  0  0  0  0  0  0  0  0
   -6.7638    1.2851   -0.8325 C   0  0  0  0  0  0  0  0  0  0  0  0
   -5.9369    0.8241    0.3878 C   0  0  0  0  0  0  0  0  0  0  0  0
   -6.1879    1.7559    1.5774 C   0  0  0  0  0  0  0  0  0  0  0  0
   -6.3456   -0.6233    0.7468 C   0  0  0  0  0  0  0  0  0  0  0  0
   -4.4367    0.8362    0.0061 C   0  0  0  0  0  0  0  0  0  0  0  0
   -5.0255    0.3665   -2.3850 C   0  0  0  0  0  0  0  0  0  0  0  0
    3.6407   -3.0474   -0.2192 S   0  0  0  0  0  0  0  0  0  0  0  0
    4.8732   -2.6868    0.9050 C   0  0  0  0  0  0  0  0  0  0  0  0
    4.8838   -1.4007    1.2151 N   0  0  0  0  0  4  0  0  0  0  0  0
    5.8716   -0.8800    2.1726 C   0  0  0  0  0  0  0  0  0  0  0  0
    6.8979   -0.0085    1.4793 C   0  0  0  0  0  0  0  0  0  0  0  0
    7.6002   -0.4604    0.3479 C   0  0  0  0  0  0  0  0  0  0  0  0
    8.5557    0.3524   -0.2717 C   0  0  0  0  0  0  0  0  0  0  0  0
    8.8259    1.6251    0.2448 C   0  0  0  0  0  0  0  0  0  0  0  0
    9.8258    2.4819   -0.4070 N   0  0  0  0  0  4  0  0  0  0  0  0
   10.4510    2.0035   -1.3622 O   0  0  0  0  0  0  0  0  0  0  0  0
    9.9727    3.6282    0.0371 O   0  0  0  0  0  1  0  0  0  0  0  0
    8.1499    2.0831    1.3806 C   0  0  0  0  0  0  0  0  0  0  0  0
    7.1960    1.2656    1.9958 C   0  0  0  0  0  0  0  0  0  0  0  0
    3.8086    1.0147    1.9566 H   0  0  0  0  0  0  0  0  0  0  0  0
    2.8007    1.1986    0.5303 H   0  0  0  0  0  0  0  0  0  0  0  0
    4.5490    1.3676    0.3731 H   0  0  0  0  0  0  0  0  0  0  0  0
    2.1048   -0.0009   -1.5018 H   0  0  0  0  0  0  0  0  0  0  0  0
    1.8913   -1.6514   -2.0099 H   0  0  0  0  0  0  0  0  0  0  0  0
    0.4095   -2.1072   -0.0502 H   0  0  0  0  0  0  0  0  0  0  0  0
    0.6708   -0.4372    0.5297 H   0  0  0  0  0  0  0  0  0  0  0  0
   -2.5578   -0.6967   -2.5224 H   0  0  0  0  0  0  0  0  0  0  0  0
   -2.4026    0.9549   -1.8951 H   0  0  0  0  0  0  0  0  0  0  0  0
   -4.0366   -1.9345    0.0311 H   0  0  0  0  0  0  0  0  0  0  0  0
   -4.4331   -2.2288   -1.6563 H   0  0  0  0  0  0  0  0  0  0  0  0
   -6.4078   -2.5812   -0.1815 H   0  0  0  0  0  0  0  0  0  0  0  0
   -6.7842   -1.7519   -2.5008 H   0  0  0  0  0  0  0  0  0  0  0  0
   -8.0019   -1.1077   -1.4026 H   0  0  0  0  0  0  0  0  0  0  0  0
   -7.1087    0.6889   -2.8854 H   0  0  0  0  0  0  0  0  0  0  0  0
   -6.4951    2.3131   -1.1078 H   0  0  0  0  0  0  0  0  0  0  0  0
   -7.8331    1.2953   -0.5847 H   0  0  0  0  0  0  0  0  0  0  0  0
   -5.9025    2.7864    1.3386 H   0  0  0  0  0  0  0  0  0  0  0  0
   -7.2464    1.7595    1.8604 H   0  0  0  0  0  0  0  0  0  0  0  0
   -5.6095    1.4435    2.4539 H   0  0  0  0  0  0  0  0  0  0  0  0
   -7.4043   -0.6576    1.0345 H   0  0  0  0  0  0  0  0  0  0  0  0
   -5.7728   -0.9756    1.6143 H   0  0  0  0  0  0  0  0  0  0  0  0
   -4.1253    1.8577   -0.2509 H   0  0  0  0  0  0  0  0  0  0  0  0
   -3.8454    0.5440    0.8811 H   0  0  0  0  0  0  0  0  0  0  0  0
   -4.7318    1.3817   -2.6823 H   0  0  0  0  0  0  0  0  0  0  0  0
   -4.8535   -0.2771   -3.2578 H   0  0  0  0  0  0  0  0  0  0  0  0
    5.5569   -3.4314    1.2954 H   0  0  0  0  0  0  0  0  0  0  0  0
    5.3371   -0.3322    2.9571 H   0  0  0  0  0  0  0  0  0  0  0  0
    6.3926   -1.7084    2.6692 H   0  0  0  0  0  0  0  0  0  0  0  0
    7.4270   -1.4501   -0.0722 H   0  0  0  0  0  0  0  0  0  0  0  0
    9.0837   -0.0191   -1.1498 H   0  0  0  0  0  0  0  0  0  0  0  0
    8.3594    3.0674    1.7993 H   0  0  0  0  0  0  0  0  0  0  0  0
    6.6950    1.6445    2.8869 H   0  0  0  0  0  0  0  0  0  0  0  0
  1  2  1  0
  2  3  2  0
  3  4  1  0
  4  5  1  0
  5  6  1  0
  6  7  1  0
  7  8  2  0
  7  9  1  0
  9 10  1  0
 10 11  1  0
 11 12  1  0
 12 13  1  0
 13 14  1  0
 14 15  1  0
 15 16  1  0
 16 17  1  0
 16 18  1  0
 16 19  1  0
 14 20  1  0
  3 21  1  0
 21 22  1  0
 22 23  2  0
 23 24  1  0
 24 25  1  0
 25 26  2  0
 26 27  1  0
 27 28  2  0
 28 29  1  0
 29 30  2  0
 29 31  1  0
 28 32  1  0
 32 33  2  0
 23  2  1  0
 33 25  1  0
 19 10  1  0
 20 10  1  0
 18 12  1  0
  1 34  1  0
  1 35  1  0
  1 36  1  0
  4 37  1  0
  4 38  1  0
  5 39  1  0
  5 40  1  0
  9 41  1  0
  9 42  1  0
 11 43  1  0
 11 44  1  0
 12 45  1  0
 13 46  1  0
 13 47  1  0
 14 48  1  0
 15 49  1  0
 15 50  1  0
 17 51  1  0
 17 52  1  0
 17 53  1  0
 18 54  1  0
 18 55  1  0
 19 56  1  0
 19 57  1  0
 20 58  1  0
 20 59  1  0
 22 60  1  0
 24 61  1  0
 24 62  1  0
 26 63  1  0
 27 64  1  0
 32 65  1  0
 33 66  1  0
M  CHG  3  23   1  29   1  31  -1
M  END
$$$$
