
     RDKit          3D

 44 46  0  0  0  0  0  0  0  0999 V2000
    7.9353    0.5539   -1.5348 C   0  0  0  0  0  0  0  0  0  0  0  0
    7.3741    1.1964   -0.2803 C   0  0  0  0  0  0  0  0  0  0  0  0
    5.9425    1.2652   -0.3580 O   0  0  0  0  0  0  0  0  0  0  0  0
    5.2753    0.1665    0.0745 C   0  0  0  0  0  0  0  0  0  0  0  0
    5.7805   -0.8557    0.5102 O   0  0  0  0  0  0  0  0  0  0  0  0
    3.8055    0.3631   -0.0536 C   0  0  0  0  0  0  0  0  0  0  0  0
    2.9593   -0.6679    0.3697 C   0  0  0  0  0  0  0  0  0  0  0  0
    1.5690   -0.5338    0.2676 C   0  0  0  0  0  0  0  0  0  0  0  0
    0.9956    0.6298   -0.2550 C   0  0  0  0  0  0  0  0  0  0  0  0
   -0.3900    0.8182   -0.4042 N   0  0  0  0  0  0  0  0  0  0  0  0
   -1.4587   -0.0832   -0.3392 C   0  0  0  0  0  0  0  0  0  0  0  0
   -1.3789   -1.3598   -0.8560 C   0  0  0  0  0  0  0  0  0  0  0  0
   -2.5050   -2.1493   -0.7566 C   0  0  0  0  0  0  0  0  0  0  0  0
   -2.4995   -3.5470   -1.2966 C   0  0  0  0  0  0  0  0  0  0  0  0
   -3.6425   -1.7073   -0.1911 N   0  0  0  0  0  0  0  0  0  0  0  0
   -3.6466   -0.4415    0.2684 C   0  0  0  0  0  0  0  0  0  0  0  0
   -4.8920    0.0665    0.8820 C   0  0  0  0  0  0  0  0  0  0  0  0
   -4.9809    1.3757    1.3949 C   0  0  0  0  0  0  0  0  0  0  0  0
   -6.1588    1.8574    1.9761 C   0  0  0  0  0  0  0  0  0  0  0  0
   -7.2804    1.0383    2.0585 C   0  0  0  0  0  0  0  0  0  0  0  0
   -7.2248   -0.2598    1.5610 C   0  0  0  0  0  0  0  0  0  0  0  0
   -6.0449   -0.7374    0.9808 C   0  0  0  0  0  0  0  0  0  0  0  0
   -2.5901    0.3922    0.2045 N   0  0  0  0  0  0  0  0  0  0  0  0
    1.8523    1.6585   -0.6740 C   0  0  0  0  0  0  0  0  0  0  0  0
    3.2431    1.5317   -0.5770 C   0  0  0  0  0  0  0  0  0  0  0  0
    7.5840   -0.4775   -1.6389 H   0  0  0  0  0  0  0  0  0  0  0  0
    9.0287    0.5498   -1.5126 H   0  0  0  0  0  0  0  0  0  0  0  0
    7.6019    1.0954   -2.4261 H   0  0  0  0  0  0  0  0  0  0  0  0
    7.6997    0.6666    0.6223 H   0  0  0  0  0  0  0  0  0  0  0  0
    7.7395    2.2253   -0.1986 H   0  0  0  0  0  0  0  0  0  0  0  0
    3.3765   -1.5821    0.7889 H   0  0  0  0  0  0  0  0  0  0  0  0
    0.9486   -1.3454    0.6375 H   0  0  0  0  0  0  0  0  0  0  0  0
   -0.7049    1.7062   -0.0225 H   0  0  0  0  0  0  0  0  0  0  0  0
   -0.4830   -1.7203   -1.3436 H   0  0  0  0  0  0  0  0  0  0  0  0
   -2.3132   -3.5351   -2.3750 H   0  0  0  0  0  0  0  0  0  0  0  0
   -1.7230   -4.1403   -0.8037 H   0  0  0  0  0  0  0  0  0  0  0  0
   -3.4634   -4.0362   -1.1225 H   0  0  0  0  0  0  0  0  0  0  0  0
   -4.1187    2.0387    1.3442 H   0  0  0  0  0  0  0  0  0  0  0  0
   -6.1957    2.8724    2.3629 H   0  0  0  0  0  0  0  0  0  0  0  0
   -8.1962    1.4108    2.5095 H   0  0  0  0  0  0  0  0  0  0  0  0
   -8.0971   -0.9052    1.6221 H   0  0  0  0  0  0  0  0  0  0  0  0
   -6.0294   -1.7576    0.5995 H   0  0  0  0  0  0  0  0  0  0  0  0
    1.4368    2.5710   -1.0973 H   0  0  0  0  0  0  0  0  0  0  0  0
    3.8697    2.3518   -0.9184 H   0  0  0  0  0  0  0  0  0  0  0  0
  1  2  1  0
  2  3  1  0
  3  4  1  0
  4  5  2  0
  4  6  1  0
  6  7  2  0
  7  8  1  0
  8  9  2  0
  9 10  1  0
 10 11  1  0
 11 12  2  0
 12 13  1  0
 13 14  1  0
 13 15  2  0
 15 16  1  0
 16 17  1  0
 17 18  2  0
 18 19  1  0
 19 20  2  0
 20 21  1  0
 21 22  2  0
 16 23  2  0
  9 24  1  0
 24 25  2  0
 25  6  1  0
 23 11  1  0
 22 17  1  0
  1 26  1  0
  1 27  1  0
  1 28  1  0
  2 29  1  0
  2 30  1  0
  7 31  1  0
  8 32  1  0
 10 33  1  0
 12 34  1  0
 14 35  1  0
 14 36  1  0
 14 37  1  0
 18 38  1  0
 19 39  1  0
 20 40  1  0
 21 41  1  0
 22 42  1  0
 24 43  1  0
 25 44  1  0
M  END
$$$$
