
     RDKit          3D

 41 44  0  0  0  0  0  0  0  0999 V2000
    6.1514    1.5332   -1.7658 C   0  0  0  0  0  0  0  0  0  0  0  0
    5.5971    0.1239   -1.6241 C   0  0  0  0  0  0  0  0  0  0  0  0
    4.2239    0.1212   -1.0014 C   0  0  0  0  0  0  0  0  0  0  0  0
    4.0759    0.0521    0.3889 C   0  0  0  0  0  0  0  0  0  0  0  0
    2.8044    0.0698    0.9674 C   0  0  0  0  0  0  0  0  0  0  0  0
    1.6615    0.1546    0.1633 C   0  0  0  0  0  0  0  0  0  0  0  0
    0.3158    0.1659    0.8167 C   0  0  0  0  0  0  0  0  0  0  0  0
    0.2252    0.5423    2.0594 N   0  0  0  0  0  0  0  0  0  0  0  0
   -0.9972    0.5534    2.6460 C   0  0  0  0  0  0  0  0  0  0  0  0
   -1.3751    1.0653    3.7977 N   0  0  0  0  0  0  0  0  0  0  0  0
   -2.6813    0.6791    3.9152 C   0  0  0  0  0  0  0  0  0  0  0  0
   -3.1550   -0.0628    2.9107 N   0  0  0  0  0  0  0  0  0  0  0  0
   -2.0845   -0.0785    2.0961 N   0  0  0  0  0  0  0  0  0  0  0  0
   -1.9861   -0.8428    0.8624 C   0  0  0  0  0  0  0  0  0  0  0  0
   -3.3099   -0.9846    0.1379 C   0  0  0  0  0  0  0  0  0  0  0  0
   -3.8808   -2.2546   -0.0544 C   0  0  0  0  0  0  0  0  0  0  0  0
   -5.1044   -2.3844   -0.7174 C   0  0  0  0  0  0  0  0  0  0  0  0
   -5.8541   -4.1020   -0.9675 Br  0  0  0  0  0  0  0  0  0  0  0  0
   -5.7774   -1.2619   -1.1968 C   0  0  0  0  0  0  0  0  0  0  0  0
   -5.2218    0.0025   -1.0099 C   0  0  0  0  0  0  0  0  0  0  0  0
   -4.0027    0.1312   -0.3488 C   0  0  0  0  0  0  0  0  0  0  0  0
   -3.4873    1.3584   -0.1929 F   0  0  0  0  0  0  0  0  0  0  0  0
   -0.8963   -0.2276   -0.0204 C   0  0  0  0  0  0  0  0  0  0  0  0
    1.8055    0.2428   -1.2254 C   0  0  0  0  0  0  0  0  0  0  0  0
    3.0796    0.2253   -1.8021 C   0  0  0  0  0  0  0  0  0  0  0  0
    7.1470    1.5043   -2.2198 H   0  0  0  0  0  0  0  0  0  0  0  0
    6.2369    2.0264   -0.7916 H   0  0  0  0  0  0  0  0  0  0  0  0
    5.5072    2.1517   -2.3999 H   0  0  0  0  0  0  0  0  0  0  0  0
    6.2789   -0.4834   -1.0162 H   0  0  0  0  0  0  0  0  0  0  0  0
    5.5565   -0.3593   -2.6079 H   0  0  0  0  0  0  0  0  0  0  0  0
    4.9504   -0.0102    1.0335 H   0  0  0  0  0  0  0  0  0  0  0  0
    2.7159    0.0193    2.0512 H   0  0  0  0  0  0  0  0  0  0  0  0
   -3.2992    0.9372    4.7656 H   0  0  0  0  0  0  0  0  0  0  0  0
   -1.6453   -1.8353    1.1905 H   0  0  0  0  0  0  0  0  0  0  0  0
   -3.3792   -3.1437    0.3226 H   0  0  0  0  0  0  0  0  0  0  0  0
   -6.7311   -1.3604   -1.7087 H   0  0  0  0  0  0  0  0  0  0  0  0
   -5.7322    0.8907   -1.3701 H   0  0  0  0  0  0  0  0  0  0  0  0
   -0.6180   -0.9483   -0.7972 H   0  0  0  0  0  0  0  0  0  0  0  0
   -1.2371    0.6861   -0.5215 H   0  0  0  0  0  0  0  0  0  0  0  0
    0.9472    0.3489   -1.8820 H   0  0  0  0  0  0  0  0  0  0  0  0
    3.1755    0.3031   -2.8834 H   0  0  0  0  0  0  0  0  0  0  0  0
  1  2  1  0
  2  3  1  0
  3  4  2  0
  4  5  1  0
  5  6  2  0
  6  7  1  0
  7  8  2  0
  8  9  1  0
  9 10  2  0
 10 11  1  0
 11 12  2  0
 12 13  1  0
 13 14  1  0
 14 15  1  0
 15 16  2  0
 16 17  1  0
 17 18  1  0
 17 19  2  0
 19 20  1  0
 20 21  2  0
 21 22  1  0
 14 23  1  0
  6 24  1  0
 24 25  2  0
 25  3  1  0
 23  7  1  0
 13  9  1  0
 21 15  1  0
  1 26  1  0
  1 27  1  0
  1 28  1  0
  2 29  1  0
  2 30  1  0
  4 31  1  0
  5 32  1  0
 11 33  1  0
 14 34  1  0
 16 35  1  0
 19 36  1  0
 20 37  1  0
 23 38  1  0
 23 39  1  0
 24 40  1  0
 25 41  1  0
M  END
$$$$
