
     RDKit          3D

 42 44  0  0  0  0  0  0  0  0999 V2000
    8.2490   -1.4537   -1.1391 C   0  0  0  0  0  0  0  0  0  0  0  0
    7.0329   -1.8330   -1.7721 O   0  0  0  0  0  0  0  0  0  0  0  0
    5.8924   -1.2137   -1.3423 C   0  0  0  0  0  0  0  0  0  0  0  0
    5.8090   -0.2555   -0.3319 C   0  0  0  0  0  0  0  0  0  0  0  0
    4.5700    0.2990    0.0088 C   0  0  0  0  0  0  0  0  0  0  0  0
    3.4040   -0.1080   -0.6510 C   0  0  0  0  0  0  0  0  0  0  0  0
    2.1069    0.5112   -0.2502 C   0  0  0  0  0  0  0  0  0  0  0  0
    2.1245    1.6767    0.1235 O   0  0  0  0  0  0  0  0  0  0  0  0
    1.0189   -0.3432   -0.3135 N   0  0  0  0  0  0  0  0  0  0  0  0
   -0.3058   -0.0268   -0.0319 C   0  0  0  0  0  0  0  0  0  0  0  0
   -0.7854    1.5641    0.3422 S   0  0  0  0  0  0  0  0  0  0  0  0
   -2.4134    1.1159    0.5335 C   0  0  0  0  0  0  0  0  0  0  0  0
   -2.6144   -0.2289    0.2937 C   0  0  0  0  0  0  0  0  0  0  0  0
   -1.3873   -0.8919   -0.0288 C   0  0  0  0  0  0  0  0  0  0  0  0
   -1.2715   -2.2895   -0.3196 C   0  0  0  0  0  0  0  0  0  0  0  0
   -1.1495   -3.4162   -0.5679 N   0  0  0  0  0  0  0  0  0  0  0  0
   -3.9845   -0.8216    0.4083 C   0  0  0  0  0  0  0  0  0  0  0  0
   -5.0600    0.2712    0.2875 C   0  0  0  0  0  0  0  0  0  0  0  0
   -4.7573    1.4470    1.1230 N   0  0  0  0  0  0  0  0  0  0  0  0
   -5.7296    2.2026    1.7671 C   0  0  0  0  0  0  0  0  0  0  0  0
   -7.0946    1.5847    1.9300 C   0  0  0  0  0  0  0  0  0  0  0  0
   -5.5065    3.3309    2.2062 O   0  0  0  0  0  0  0  0  0  0  0  0
   -3.4666    2.1182    0.8974 C   0  0  0  0  0  0  0  0  0  0  0  0
    3.4887   -1.0552   -1.6773 C   0  0  0  0  0  0  0  0  0  0  0  0
    4.7294   -1.6056   -2.0124 C   0  0  0  0  0  0  0  0  0  0  0  0
    9.0582   -2.0304   -1.5973 H   0  0  0  0  0  0  0  0  0  0  0  0
    8.2302   -1.6964   -0.0715 H   0  0  0  0  0  0  0  0  0  0  0  0
    8.4636   -0.3921   -1.3004 H   0  0  0  0  0  0  0  0  0  0  0  0
    6.6854    0.0868    0.2087 H   0  0  0  0  0  0  0  0  0  0  0  0
    4.5168    1.0518    0.7938 H   0  0  0  0  0  0  0  0  0  0  0  0
    1.2104   -1.3170   -0.5168 H   0  0  0  0  0  0  0  0  0  0  0  0
   -4.1494   -1.5823   -0.3624 H   0  0  0  0  0  0  0  0  0  0  0  0
   -4.0697   -1.3103    1.3867 H   0  0  0  0  0  0  0  0  0  0  0  0
   -5.1267    0.6307   -0.7475 H   0  0  0  0  0  0  0  0  0  0  0  0
   -6.0314   -0.1610    0.5375 H   0  0  0  0  0  0  0  0  0  0  0  0
   -7.7089    2.2290    2.5666 H   0  0  0  0  0  0  0  0  0  0  0  0
   -7.5854    1.4946    0.9576 H   0  0  0  0  0  0  0  0  0  0  0  0
   -7.0153    0.6094    2.4174 H   0  0  0  0  0  0  0  0  0  0  0  0
   -3.6072    2.8358    0.0802 H   0  0  0  0  0  0  0  0  0  0  0  0
   -3.1798    2.6692    1.8005 H   0  0  0  0  0  0  0  0  0  0  0  0
    2.6146   -1.3563   -2.2473 H   0  0  0  0  0  0  0  0  0  0  0  0
    4.7953   -2.3403   -2.8123 H   0  0  0  0  0  0  0  0  0  0  0  0
  1  2  1  0
  2  3  1  0
  3  4  2  0
  4  5  1  0
  5  6  2  0
  6  7  1  0
  7  8  2  0
  7  9  1  0
  9 10  1  0
 10 11  1  0
 11 12  1  0
 12 13  2  0
 13 14  1  0
 14 15  1  0
 15 16  3  0
 13 17  1  0
 17 18  1  0
 18 19  1  0
 19 20  1  0
 20 21  1  0
 20 22  2  0
 19 23  1  0
  6 24  1  0
 24 25  2  0
 25  3  1  0
 14 10  2  0
 23 12  1  0
  1 26  1  0
  1 27  1  0
  1 28  1  0
  4 29  1  0
  5 30  1  0
  9 31  1  0
 17 32  1  0
 17 33  1  0
 18 34  1  0
 18 35  1  0
 21 36  1  0
 21 37  1  0
 21 38  1  0
 23 39  1  0
 23 40  1  0
 24 41  1  0
 25 42  1  0
M  END
$$$$
