
     RDKit          3D

 51 52  0  0  0  0  0  0  0  0999 V2000
    5.0772   -0.1597    1.9059 C   0  0  0  0  0  0  0  0  0  0  0  0
    4.3140   -0.3016    0.6486 N   0  0  0  0  0  0  0  0  0  0  0  0
    4.8591    0.5612   -0.4208 C   0  0  0  0  0  0  0  0  0  0  0  0
    4.0345   -1.9065    0.1968 S   0  0  0  0  0  6  0  0  0  0  0  0
    3.6010   -2.6607    1.3493 O   0  0  0  0  0  0  0  0  0  0  0  0
    5.1457   -2.3539   -0.6094 O   0  0  0  0  0  0  0  0  0  0  0  0
    2.7111   -1.7310   -0.8464 N   0  0  0  0  0  0  0  0  0  0  0  0
    1.4745   -1.3575   -0.2297 C   0  0  0  0  0  0  0  0  0  0  0  0
    0.6171   -2.3308    0.2761 C   0  0  0  0  0  0  0  0  0  0  0  0
   -0.5591   -1.9521    0.9302 C   0  0  0  0  0  0  0  0  0  0  0  0
   -0.8934   -0.6018    1.0917 C   0  0  0  0  0  0  0  0  0  0  0  0
   -2.1426   -0.2896    1.7401 N   0  0  0  0  0  0  0  0  0  0  0  0
   -3.5385   -0.5071    0.8123 S   0  0  0  0  0  6  0  0  0  0  0  0
   -4.6298    0.1289    1.5102 O   0  0  0  0  0  0  0  0  0  0  0  0
   -3.2270   -0.1686   -0.5578 O   0  0  0  0  0  0  0  0  0  0  0  0
   -3.7566   -2.1842    0.9235 N   0  0  0  0  0  0  0  0  0  0  0  0
   -4.0899   -2.6698    2.2824 C   0  0  0  0  0  0  0  0  0  0  0  0
   -4.6955   -2.7196   -0.0860 C   0  0  0  0  0  0  0  0  0  0  0  0
   -0.0192    0.3671    0.5801 C   0  0  0  0  0  0  0  0  0  0  0  0
   -0.2934    2.1059    0.7875 S   0  0  0  0  0  6  0  0  0  0  0  0
   -1.4993    2.2684    1.5844 O   0  0  0  0  0  0  0  0  0  0  0  0
    0.9585    2.6712    1.2600 O   0  0  0  0  0  0  0  0  0  0  0  0
   -0.6180    2.7949   -0.8183 C   0  0  0  0  0  0  0  0  0  0  0  0
   -1.9256    2.8293   -1.3073 C   0  0  0  0  0  0  0  0  0  0  0  0
   -2.1756    3.3881   -2.5607 C   0  0  0  0  0  0  0  0  0  0  0  0
   -1.1271    3.9228   -3.3106 C   0  0  0  0  0  0  0  0  0  0  0  0
    0.1751    3.9071   -2.8087 C   0  0  0  0  0  0  0  0  0  0  0  0
    0.4334    3.3483   -1.5570 C   0  0  0  0  0  0  0  0  0  0  0  0
    1.1689   -0.0109   -0.0649 C   0  0  0  0  0  0  0  0  0  0  0  0
    5.1921    0.8994    2.1580 H   0  0  0  0  0  0  0  0  0  0  0  0
    4.5398   -0.6293    2.7350 H   0  0  0  0  0  0  0  0  0  0  0  0
    6.0727   -0.6041    1.8128 H   0  0  0  0  0  0  0  0  0  0  0  0
    5.9161    0.3434   -0.6023 H   0  0  0  0  0  0  0  0  0  0  0  0
    4.2998    0.4403   -1.3529 H   0  0  0  0  0  0  0  0  0  0  0  0
    4.7639    1.6111   -0.1254 H   0  0  0  0  0  0  0  0  0  0  0  0
    2.6381   -2.6084   -1.3631 H   0  0  0  0  0  0  0  0  0  0  0  0
    0.8603   -3.3867    0.1924 H   0  0  0  0  0  0  0  0  0  0  0  0
   -1.2054   -2.7295    1.3294 H   0  0  0  0  0  0  0  0  0  0  0  0
   -2.1804    0.6846    2.0818 H   0  0  0  0  0  0  0  0  0  0  0  0
   -3.3803   -2.2909    3.0229 H   0  0  0  0  0  0  0  0  0  0  0  0
   -4.0209   -3.7624    2.3056 H   0  0  0  0  0  0  0  0  0  0  0  0
   -5.1054   -2.3795    2.5687 H   0  0  0  0  0  0  0  0  0  0  0  0
   -5.6966   -2.2970    0.0440 H   0  0  0  0  0  0  0  0  0  0  0  0
   -4.3341   -2.5071   -1.0965 H   0  0  0  0  0  0  0  0  0  0  0  0
   -4.7631   -3.8085    0.0071 H   0  0  0  0  0  0  0  0  0  0  0  0
   -2.7549    2.4296   -0.7286 H   0  0  0  0  0  0  0  0  0  0  0  0
   -3.1909    3.4095   -2.9510 H   0  0  0  0  0  0  0  0  0  0  0  0
   -1.3281    4.3604   -4.2856 H   0  0  0  0  0  0  0  0  0  0  0  0
    0.9860    4.3386   -3.3909 H   0  0  0  0  0  0  0  0  0  0  0  0
    1.4491    3.3567   -1.1674 H   0  0  0  0  0  0  0  0  0  0  0  0
    1.8625    0.7423   -0.4281 H   0  0  0  0  0  0  0  0  0  0  0  0
  1  2  1  0
  2  3  1  0
  2  4  1  0
  4  5  2  0
  4  6  2  0
  4  7  1  0
  7  8  1  0
  8  9  2  0
  9 10  1  0
 10 11  2  0
 11 12  1  0
 12 13  1  0
 13 14  2  0
 13 15  2  0
 13 16  1  0
 16 17  1  0
 16 18  1  0
 11 19  1  0
 19 20  1  0
 20 21  2  0
 20 22  2  0
 20 23  1  0
 23 24  2  0
 24 25  1  0
 25 26  2  0
 26 27  1  0
 27 28  2  0
 19 29  2  0
 29  8  1  0
 28 23  1  0
  1 30  1  0
  1 31  1  0
  1 32  1  0
  3 33  1  0
  3 34  1  0
  3 35  1  0
  7 36  1  0
  9 37  1  0
 10 38  1  0
 12 39  1  0
 17 40  1  0
 17 41  1  0
 17 42  1  0
 18 43  1  0
 18 44  1  0
 18 45  1  0
 24 46  1  0
 25 47  1  0
 26 48  1  0
 27 49  1  0
 28 50  1  0
 29 51  1  0
M  END
$$$$
