
     RDKit          3D

 40 41  0  0  0  0  0  0  0  0999 V2000
    1.0980    3.1398    2.6621 C   0  0  0  0  0  0  0  0  0  0  0  0
    0.1710    2.4578    1.6692 C   0  0  0  0  0  0  0  0  0  0  0  0
    0.7752    1.2029    1.0198 C   0  0  0  0  0  0  0  0  0  0  0  0
    1.9732    1.5347    0.1113 C   0  0  0  0  0  0  0  0  0  0  0  0
    2.5923    0.2994   -0.5083 C   0  0  0  0  0  0  0  0  0  0  0  0
    3.3740   -0.5700    0.2644 C   0  0  0  0  0  0  0  0  0  0  0  0
    3.9286   -1.7171   -0.3054 C   0  0  0  0  0  0  0  0  0  0  0  0
    3.7089   -2.0054   -1.6511 C   0  0  0  0  0  0  0  0  0  0  0  0
    2.9338   -1.1475   -2.4287 C   0  0  0  0  0  0  0  0  0  0  0  0
    2.3770   -0.0008   -1.8605 C   0  0  0  0  0  0  0  0  0  0  0  0
   -0.2410    0.6007    0.1866 O   0  0  0  0  0  0  0  0  0  0  0  0
   -1.0477   -0.2958    0.7994 C   0  0  0  0  0  0  0  0  0  0  0  0
   -1.0541   -0.6256    1.9719 O   0  0  0  0  0  0  0  0  0  0  0  0
   -1.9411   -0.8721   -0.2146 C   0  0  0  0  0  0  0  0  0  0  0  0
   -1.3740   -1.6217   -1.2561 C   0  0  0  0  0  0  0  0  0  0  0  0
   -2.1992   -2.2553   -2.1855 C   0  0  0  0  0  0  0  0  0  0  0  0
   -3.5858   -2.1504   -2.0728 C   0  0  0  0  0  0  0  0  0  0  0  0
   -4.1518   -1.4048   -1.0350 C   0  0  0  0  0  0  0  0  0  0  0  0
   -3.3290   -0.7592   -0.0997 C   0  0  0  0  0  0  0  0  0  0  0  0
   -3.9305    0.0900    0.9472 C   0  0  0  0  0  0  0  0  0  0  0  0
   -3.4867    1.1393    1.3697 O   0  0  0  0  0  0  0  0  0  0  0  0
   -5.0853   -0.4273    1.4027 O   0  0  0  0  0  0  0  0  0  0  0  0
    0.5720    3.9580    3.1646 H   0  0  0  0  0  0  0  0  0  0  0  0
    1.4390    2.4363    3.4281 H   0  0  0  0  0  0  0  0  0  0  0  0
    1.9746    3.5676    2.1677 H   0  0  0  0  0  0  0  0  0  0  0  0
   -0.1301    3.1715    0.8921 H   0  0  0  0  0  0  0  0  0  0  0  0
   -0.7559    2.1846    2.1884 H   0  0  0  0  0  0  0  0  0  0  0  0
    1.0946    0.4966    1.7972 H   0  0  0  0  0  0  0  0  0  0  0  0
    2.7572    2.0582    0.6702 H   0  0  0  0  0  0  0  0  0  0  0  0
    1.6534    2.2142   -0.6893 H   0  0  0  0  0  0  0  0  0  0  0  0
    3.5541   -0.3606    1.3165 H   0  0  0  0  0  0  0  0  0  0  0  0
    4.5329   -2.3859    0.3020 H   0  0  0  0  0  0  0  0  0  0  0  0
    4.1434   -2.8980   -2.0933 H   0  0  0  0  0  0  0  0  0  0  0  0
    2.7634   -1.3704   -3.4786 H   0  0  0  0  0  0  0  0  0  0  0  0
    1.7686    0.6562   -2.4783 H   0  0  0  0  0  0  0  0  0  0  0  0
   -0.2930   -1.7242   -1.3325 H   0  0  0  0  0  0  0  0  0  0  0  0
   -1.7608   -2.8392   -2.9918 H   0  0  0  0  0  0  0  0  0  0  0  0
   -4.2286   -2.6484   -2.7956 H   0  0  0  0  0  0  0  0  0  0  0  0
   -5.2344   -1.3215   -0.9659 H   0  0  0  0  0  0  0  0  0  0  0  0
   -5.3561    0.1936    2.1119 H   0  0  0  0  0  0  0  0  0  0  0  0
  1  2  1  0
  2  3  1  0
  3  4  1  0
  4  5  1  0
  5  6  2  0
  6  7  1  0
  7  8  2  0
  8  9  1  0
  9 10  2  0
  3 11  1  0
 11 12  1  0
 12 13  2  0
 12 14  1  0
 14 15  2  0
 15 16  1  0
 16 17  2  0
 17 18  1  0
 18 19  2  0
 19 20  1  0
 20 21  2  0
 20 22  1  0
 10  5  1  0
 19 14  1  0
  1 23  1  0
  1 24  1  0
  1 25  1  0
  2 26  1  0
  2 27  1  0
  3 28  1  0
  4 29  1  0
  4 30  1  0
  6 31  1  0
  7 32  1  0
  8 33  1  0
  9 34  1  0
 10 35  1  0
 15 36  1  0
 16 37  1  0
 17 38  1  0
 18 39  1  0
 22 40  1  0
M  END
$$$$
