
     RDKit          3D

 54 57  0  0  0  0  0  0  0  0999 V2000
   -8.1001    0.8928    2.1370 C   0  0  0  0  0  0  0  0  0  0  0  0
   -7.3557    0.7985    0.9288 O   0  0  0  0  0  0  0  0  0  0  0  0
   -6.0275    0.4976    1.0457 C   0  0  0  0  0  0  0  0  0  0  0  0
   -5.3408    0.2548    2.2313 C   0  0  0  0  0  0  0  0  0  0  0  0
   -3.9721   -0.0438    2.2025 C   0  0  0  0  0  0  0  0  0  0  0  0
   -3.2670   -0.1142    0.9873 C   0  0  0  0  0  0  0  0  0  0  0  0
   -1.8707   -0.4234    1.0195 N   0  0  0  0  0  0  0  0  0  0  0  0
   -1.2271   -0.4282    2.2251 N   0  0  0  0  0  0  0  0  0  0  0  0
    0.0535   -0.6556    1.9463 C   0  0  0  0  0  0  0  0  0  0  0  0
    0.2765   -0.8370    0.5778 C   0  0  0  0  0  0  0  0  0  0  0  0
   -0.9785   -0.7406    0.0019 C   0  0  0  0  0  0  0  0  0  0  0  0
   -1.2592   -0.9840   -1.4447 C   0  0  0  0  0  0  0  0  0  0  0  0
   -0.0702   -1.7192   -2.1414 C   0  0  0  0  0  0  0  0  0  0  0  0
   -0.2095   -1.5479   -3.6661 C   0  0  0  0  0  0  0  0  0  0  0  0
   -0.1133   -3.2287   -1.8272 C   0  0  0  0  0  0  0  0  0  0  0  0
    1.2877   -1.1049   -1.6903 C   0  0  0  0  0  0  0  0  0  0  0  0
    1.5251   -1.1695   -0.1631 C   0  0  0  0  0  0  0  0  0  0  0  0
    2.5550   -0.2372    0.2345 N   0  0  0  0  0  0  0  0  0  0  0  0
    3.8955   -0.5028    0.0628 C   0  0  0  0  0  0  0  0  0  0  0  0
    4.3378   -1.5754   -0.3300 O   0  0  0  0  0  0  0  0  0  0  0  0
    4.7956    0.6387    0.3859 C   0  0  0  0  0  0  0  0  0  0  0  0
    6.1699    0.4886    0.2989 C   0  0  0  0  0  0  0  0  0  0  0  0
    7.0268    1.5031    0.5835 N   0  0  0  0  0  0  0  0  0  0  0  0
    6.4545    2.6749    0.9593 C   0  0  0  0  0  0  0  0  0  0  0  0
    7.3570    3.8234    1.2849 C   0  0  0  0  0  0  0  0  0  0  0  0
    5.0700    2.8149    1.0410 C   0  0  0  0  0  0  0  0  0  0  0  0
    4.2050    1.8112    0.7581 N   0  0  0  0  0  0  0  0  0  0  0  0
   -3.9612    0.1459   -0.1964 C   0  0  0  0  0  0  0  0  0  0  0  0
   -5.3304    0.4437   -0.1618 C   0  0  0  0  0  0  0  0  0  0  0  0
   -7.7129    1.6920    2.7771 H   0  0  0  0  0  0  0  0  0  0  0  0
   -9.1315    1.1470    1.8749 H   0  0  0  0  0  0  0  0  0  0  0  0
   -8.1173   -0.0658    2.6660 H   0  0  0  0  0  0  0  0  0  0  0  0
   -5.8322    0.2876    3.1979 H   0  0  0  0  0  0  0  0  0  0  0  0
   -3.4679   -0.2304    3.1501 H   0  0  0  0  0  0  0  0  0  0  0  0
    0.7696   -0.6921    2.7576 H   0  0  0  0  0  0  0  0  0  0  0  0
   -1.4105   -0.0113   -1.9294 H   0  0  0  0  0  0  0  0  0  0  0  0
   -2.1702   -1.5794   -1.5718 H   0  0  0  0  0  0  0  0  0  0  0  0
   -1.1634   -1.9520   -4.0234 H   0  0  0  0  0  0  0  0  0  0  0  0
    0.5952   -2.0681   -4.1978 H   0  0  0  0  0  0  0  0  0  0  0  0
   -0.1675   -0.4912   -3.9527 H   0  0  0  0  0  0  0  0  0  0  0  0
   -1.0336   -3.6829   -2.2123 H   0  0  0  0  0  0  0  0  0  0  0  0
    0.7317   -3.7492   -2.2918 H   0  0  0  0  0  0  0  0  0  0  0  0
   -0.0774   -3.4328   -0.7527 H   0  0  0  0  0  0  0  0  0  0  0  0
    2.1210   -1.5987   -2.2075 H   0  0  0  0  0  0  0  0  0  0  0  0
    1.3173   -0.0540   -2.0148 H   0  0  0  0  0  0  0  0  0  0  0  0
    1.8482   -2.1817    0.1100 H   0  0  0  0  0  0  0  0  0  0  0  0
    2.3094    0.7249    0.4557 H   0  0  0  0  0  0  0  0  0  0  0  0
    6.6264   -0.4491   -0.0003 H   0  0  0  0  0  0  0  0  0  0  0  0
    7.2000    4.1476    2.3183 H   0  0  0  0  0  0  0  0  0  0  0  0
    8.4077    3.5370    1.1728 H   0  0  0  0  0  0  0  0  0  0  0  0
    7.1594    4.6625    0.6107 H   0  0  0  0  0  0  0  0  0  0  0  0
    4.6143    3.7536    1.3410 H   0  0  0  0  0  0  0  0  0  0  0  0
   -3.4846    0.1643   -1.1664 H   0  0  0  0  0  0  0  0  0  0  0  0
   -5.8580    0.6464   -1.0914 H   0  0  0  0  0  0  0  0  0  0  0  0
  1  2  1  0
  2  3  1  0
  3  4  2  0
  4  5  1  0
  5  6  2  0
  6  7  1  0
  7  8  1  0
  8  9  2  0
  9 10  1  0
 10 11  2  0
 11 12  1  0
 12 13  1  0
 13 14  1  0
 13 15  1  0
 13 16  1  0
 16 17  1  0
 17 18  1  0
 18 19  1  0
 19 20  2  0
 19 21  1  0
 21 22  2  0
 22 23  1  0
 23 24  2  0
 24 25  1  0
 24 26  1  0
 26 27  2  0
  6 28  1  0
 28 29  2  0
 29  3  1  0
 11  7  1  0
 27 21  1  0
 17 10  1  0
  1 30  1  0
  1 31  1  0
  1 32  1  0
  4 33  1  0
  5 34  1  0
  9 35  1  0
 12 36  1  0
 12 37  1  0
 14 38  1  0
 14 39  1  0
 14 40  1  0
 15 41  1  0
 15 42  1  0
 15 43  1  0
 16 44  1  0
 16 45  1  0
 17 46  1  0
 18 47  1  0
 22 48  1  0
 25 49  1  0
 25 50  1  0
 25 51  1  0
 26 52  1  0
 28 53  1  0
 29 54  1  0
M  END
$$$$
