
     RDKit          3D

 56 59  0  0  0  0  0  0  0  0999 V2000
    6.4258    0.8809    2.9538 C   0  0  0  0  0  0  0  0  0  0  0  0
    5.9670    1.3767    1.7027 O   0  0  0  0  0  0  0  0  0  0  0  0
    5.0040    0.6481    1.0619 C   0  0  0  0  0  0  0  0  0  0  0  0
    4.5786    1.1902   -0.1514 C   0  0  0  0  0  0  0  0  0  0  0  0
    3.5979    0.5513   -0.9097 C   0  0  0  0  0  0  0  0  0  0  0  0
    3.0266   -0.6404   -0.4492 C   0  0  0  0  0  0  0  0  0  0  0  0
    1.9800   -1.2923   -1.2772 C   0  0  0  0  0  0  0  0  0  0  0  0
    2.1057   -2.4734   -1.5901 O   0  0  0  0  0  0  0  0  0  0  0  0
    0.7642   -0.4584   -1.6529 C   0  0  0  0  0  0  0  0  0  0  0  0
    0.4769   -0.5524   -3.1530 C   0  0  0  0  0  0  0  0  0  0  0  0
   -0.8431    0.1368   -3.4931 C   0  0  0  0  0  0  0  0  0  0  0  0
   -1.9847   -0.3632   -2.6008 C   0  0  0  0  0  0  0  0  0  0  0  0
   -1.6989   -0.2698   -1.1622 N   0  0  0  0  0  0  0  0  0  0  0  0
   -1.7752    1.1196   -0.6832 C   0  0  0  0  0  0  0  0  0  0  0  0
   -1.7619    1.2003    0.8139 C   0  0  0  0  0  0  0  0  0  0  0  0
   -0.6949    1.5806    1.6151 C   0  0  0  0  0  0  0  0  0  0  0  0
   -1.0771    1.4237    2.9563 C   0  0  0  0  0  0  0  0  0  0  0  0
   -2.3740    0.9691    2.9518 C   0  0  0  0  0  0  0  0  0  0  0  0
   -2.8323    0.8580    1.6441 N   0  0  0  0  0  0  0  0  0  0  0  0
   -4.1694    0.4850    1.2606 C   0  0  0  0  0  0  0  0  0  0  0  0
   -5.0283   -0.0920    2.1979 C   0  0  0  0  0  0  0  0  0  0  0  0
   -6.3275   -0.4277    1.8159 C   0  0  0  0  0  0  0  0  0  0  0  0
   -6.7428   -0.1830    0.5155 C   0  0  0  0  0  0  0  0  0  0  0  0
   -5.8362    0.3897   -0.3543 C   0  0  0  0  0  0  0  0  0  0  0  0
   -4.5758    0.7299   -0.0099 N   0  0  0  0  0  0  0  0  0  0  0  0
   -0.4389   -0.9598   -0.8429 C   0  0  0  0  0  0  0  0  0  0  0  0
    3.4435   -1.2058    0.7686 C   0  0  0  0  0  0  0  0  0  0  0  0
    2.8664   -2.4941    1.2869 C   0  0  0  0  0  0  0  0  0  0  0  0
    4.4418   -0.5494    1.5129 C   0  0  0  0  0  0  0  0  0  0  0  0
    5.6115    0.8371    3.6840 H   0  0  0  0  0  0  0  0  0  0  0  0
    6.9072   -0.0953    2.8380 H   0  0  0  0  0  0  0  0  0  0  0  0
    7.1770    1.5792    3.3335 H   0  0  0  0  0  0  0  0  0  0  0  0
    5.0215    2.1163   -0.5107 H   0  0  0  0  0  0  0  0  0  0  0  0
    3.2993    0.9841   -1.8608 H   0  0  0  0  0  0  0  0  0  0  0  0
    0.9545    0.5903   -1.4000 H   0  0  0  0  0  0  0  0  0  0  0  0
    1.2954   -0.0992   -3.7248 H   0  0  0  0  0  0  0  0  0  0  0  0
    0.4242   -1.6029   -3.4663 H   0  0  0  0  0  0  0  0  0  0  0  0
   -0.7290    1.2217   -3.3844 H   0  0  0  0  0  0  0  0  0  0  0  0
   -1.0924   -0.0486   -4.5439 H   0  0  0  0  0  0  0  0  0  0  0  0
   -2.9095    0.1744   -2.8451 H   0  0  0  0  0  0  0  0  0  0  0  0
   -2.1886   -1.4143   -2.8438 H   0  0  0  0  0  0  0  0  0  0  0  0
   -2.6654    1.6263   -1.0688 H   0  0  0  0  0  0  0  0  0  0  0  0
   -0.9389    1.7132   -1.0732 H   0  0  0  0  0  0  0  0  0  0  0  0
    0.2718    1.9077    1.2536 H   0  0  0  0  0  0  0  0  0  0  0  0
   -0.4780    1.6209    3.8354 H   0  0  0  0  0  0  0  0  0  0  0  0
   -3.0155    0.7597    3.7936 H   0  0  0  0  0  0  0  0  0  0  0  0
   -4.7209   -0.3172    3.2110 H   0  0  0  0  0  0  0  0  0  0  0  0
   -7.0059   -0.8829    2.5317 H   0  0  0  0  0  0  0  0  0  0  0  0
   -7.7445   -0.4357    0.1881 H   0  0  0  0  0  0  0  0  0  0  0  0
   -6.1049    0.6017   -1.3849 H   0  0  0  0  0  0  0  0  0  0  0  0
   -0.5859   -2.0325   -1.0344 H   0  0  0  0  0  0  0  0  0  0  0  0
   -0.2222   -0.9099    0.2305 H   0  0  0  0  0  0  0  0  0  0  0  0
    1.7720   -2.4642    1.2664 H   0  0  0  0  0  0  0  0  0  0  0  0
    3.2236   -3.3382    0.6879 H   0  0  0  0  0  0  0  0  0  0  0  0
    3.1613   -2.6733    2.3266 H   0  0  0  0  0  0  0  0  0  0  0  0
    4.7648   -0.9963    2.4482 H   0  0  0  0  0  0  0  0  0  0  0  0
  1  2  1  0
  2  3  1  0
  3  4  2  0
  4  5  1  0
  5  6  2  0
  6  7  1  0
  7  8  2  0
  7  9  1  0
  9 10  1  0
 10 11  1  0
 11 12  1  0
 12 13  1  0
 13 14  1  0
 14 15  1  0
 15 16  2  0
 16 17  1  0
 17 18  2  0
 18 19  1  0
 19 20  1  0
 20 21  2  0
 21 22  1  0
 22 23  2  0
 23 24  1  0
 24 25  2  0
 13 26  1  0
  6 27  1  0
 27 28  1  0
 27 29  2  0
 29  3  1  0
 26  9  1  0
 19 15  1  0
 25 20  1  0
  1 30  1  0
  1 31  1  0
  1 32  1  0
  4 33  1  0
  5 34  1  0
  9 35  1  0
 10 36  1  0
 10 37  1  0
 11 38  1  0
 11 39  1  0
 12 40  1  0
 12 41  1  0
 14 42  1  0
 14 43  1  0
 16 44  1  0
 17 45  1  0
 18 46  1  0
 21 47  1  0
 22 48  1  0
 23 49  1  0
 24 50  1  0
 26 51  1  0
 26 52  1  0
 28 53  1  0
 28 54  1  0
 28 55  1  0
 29 56  1  0
M  END
$$$$
