
     RDKit          3D

 37 39  0  0  0  0  0  0  0  0999 V2000
   -4.6463   -1.1663    2.6227 C   0  0  0  0  0  0  0  0  0  0  0  0
   -4.3750   -0.5204    1.2963 C   0  0  0  0  0  0  0  0  0  0  0  0
   -5.3724   -0.0820    0.5141 C   0  0  0  0  0  0  0  0  0  0  0  0
   -5.1587    0.5571   -0.7938 C   0  0  0  0  0  0  0  0  0  0  0  0
   -6.1101    0.9427   -1.4636 O   0  0  0  0  0  0  0  0  0  0  0  0
   -3.8484    0.6956   -1.2152 O   0  0  0  0  0  0  0  0  0  0  0  0
   -2.7783    0.2477   -0.4170 C   0  0  0  0  0  0  0  0  0  0  0  0
   -1.4966    0.4407   -0.9342 C   0  0  0  0  0  0  0  0  0  0  0  0
   -0.3819    0.0296   -0.2046 C   0  0  0  0  0  0  0  0  0  0  0  0
    0.8140    0.2767   -0.8163 O   0  0  0  0  0  0  0  0  0  0  0  0
    2.0241   -0.0374   -0.1256 C   0  0  0  0  0  0  0  0  0  0  0  0
    2.3261    0.8891    1.0614 C   0  0  0  0  0  0  0  0  0  0  0  0
    2.7712    0.5339    2.1450 O   0  0  0  0  0  0  0  0  0  0  0  0
    2.0686    2.1953    0.8332 O   0  0  0  0  0  0  0  0  0  0  0  0
    3.1808   -0.0010   -1.1181 C   0  0  0  0  0  0  0  0  0  0  0  0
    4.2224   -0.9383   -1.0203 C   0  0  0  0  0  0  0  0  0  0  0  0
    5.2995   -0.8985   -1.9077 C   0  0  0  0  0  0  0  0  0  0  0  0
    5.3536    0.0805   -2.8975 C   0  0  0  0  0  0  0  0  0  0  0  0
    4.3327    1.0228   -3.0006 C   0  0  0  0  0  0  0  0  0  0  0  0
    3.2546    0.9854   -2.1151 C   0  0  0  0  0  0  0  0  0  0  0  0
   -0.5736   -0.5768    1.0371 C   0  0  0  0  0  0  0  0  0  0  0  0
   -1.8696   -0.7651    1.5450 C   0  0  0  0  0  0  0  0  0  0  0  0
   -2.9948   -0.3533    0.8223 C   0  0  0  0  0  0  0  0  0  0  0  0
   -4.2597   -2.1909    2.6430 H   0  0  0  0  0  0  0  0  0  0  0  0
   -4.1833   -0.5961    3.4349 H   0  0  0  0  0  0  0  0  0  0  0  0
   -5.7196   -1.2212    2.8369 H   0  0  0  0  0  0  0  0  0  0  0  0
   -6.4132   -0.1744    0.8039 H   0  0  0  0  0  0  0  0  0  0  0  0
   -1.3690    0.9133   -1.9046 H   0  0  0  0  0  0  0  0  0  0  0  0
    1.9531   -1.0663    0.2508 H   0  0  0  0  0  0  0  0  0  0  0  0
    2.3277    2.6470    1.6624 H   0  0  0  0  0  0  0  0  0  0  0  0
    4.2051   -1.7069   -0.2500 H   0  0  0  0  0  0  0  0  0  0  0  0
    6.0990   -1.6306   -1.8253 H   0  0  0  0  0  0  0  0  0  0  0  0
    6.1924    0.1106   -3.5881 H   0  0  0  0  0  0  0  0  0  0  0  0
    4.3749    1.7889   -3.7706 H   0  0  0  0  0  0  0  0  0  0  0  0
    2.4679    1.7331   -2.2060 H   0  0  0  0  0  0  0  0  0  0  0  0
    0.2535   -0.9235    1.6491 H   0  0  0  0  0  0  0  0  0  0  0  0
   -1.9708   -1.2412    2.5174 H   0  0  0  0  0  0  0  0  0  0  0  0
  1  2  1  0
  2  3  2  0
  3  4  1  0
  4  5  2  0
  4  6  1  0
  6  7  1  0
  7  8  2  0
  8  9  1  0
  9 10  1  0
 10 11  1  0
 11 12  1  0
 12 13  2  0
 12 14  1  0
 11 15  1  0
 15 16  2  0
 16 17  1  0
 17 18  2  0
 18 19  1  0
 19 20  2  0
  9 21  2  0
 21 22  1  0
 22 23  2  0
 23  2  1  0
 23  7  1  0
 20 15  1  0
  1 24  1  0
  1 25  1  0
  1 26  1  0
  3 27  1  0
  8 28  1  0
 11 29  1  0
 14 30  1  0
 16 31  1  0
 17 32  1  0
 18 33  1  0
 19 34  1  0
 20 35  1  0
 21 36  1  0
 22 37  1  0
M  END
$$$$
