
     RDKit          3D

 57 60  0  0  0  0  0  0  0  0999 V2000
   -2.1244    6.3374   -0.7012 C   0  0  0  0  0  0  0  0  0  0  0  0
   -1.9418    4.8232   -0.7803 C   0  0  0  0  0  0  0  0  0  0  0  0
   -0.4595    4.4389   -0.5931 C   0  0  0  0  0  0  0  0  0  0  0  0
   -0.2302    2.9286   -0.7712 C   0  0  0  0  0  0  0  0  0  0  0  0
   -1.2703    2.1101   -0.0628 C   0  0  0  0  0  0  0  0  0  0  0  0
   -2.4534    2.6712    0.3830 C   0  0  0  0  0  0  0  0  0  0  0  0
   -3.4778    1.5371    1.1252 S   0  0  0  0  0  0  0  0  0  0  0  0
   -2.3766    0.2686    0.8364 C   0  0  0  0  0  0  0  0  0  0  0  0
   -2.6754   -0.9817    1.2188 N   0  0  0  0  0  0  0  0  0  0  0  0
   -1.7262   -1.8744    0.9213 C   0  0  0  0  0  0  0  0  0  0  0  0
   -1.9744   -3.3401    1.2805 C   0  0  0  0  0  0  0  0  0  0  0  0
   -2.2050   -4.1338   -0.0169 C   0  0  0  0  0  0  0  0  0  0  0  0
   -3.2074   -3.5111    2.1904 C   0  0  0  0  0  0  0  0  0  0  0  0
   -0.7497   -3.9084    2.0221 C   0  0  0  0  0  0  0  0  0  0  0  0
   -0.5672   -1.5928    0.2910 N   0  0  0  0  0  0  0  0  0  0  0  0
   -0.2803   -0.3214   -0.0772 C   0  0  0  0  0  0  0  0  0  0  0  0
    0.9492   -0.0510   -0.7135 N   0  0  0  0  0  0  0  0  0  0  0  0
    2.0222   -0.0528    0.3094 C   0  0  0  0  0  0  0  0  0  0  0  0
    3.4054   -0.2798   -0.3275 C   0  0  0  0  0  0  0  0  0  0  0  0
    3.4791   -1.5511   -1.0637 N   0  0  0  0  0  0  0  0  0  0  0  0
    4.6482   -2.2139   -1.4091 C   0  0  0  0  0  0  0  0  0  0  0  0
    4.6272   -3.2779   -2.0349 O   0  0  0  0  0  0  0  0  0  0  0  0
    5.9783   -1.6222   -0.9803 C   0  0  0  0  0  0  0  0  0  0  0  0
    6.3710   -0.2146   -1.9847 Cl  0  0  0  0  0  0  0  0  0  0  0  0
    2.1913   -2.0936   -1.5230 C   0  0  0  0  0  0  0  0  0  0  0  0
    1.1783   -0.9831   -1.8470 C   0  0  0  0  0  0  0  0  0  0  0  0
   -1.2221    0.6891    0.1965 C   0  0  0  0  0  0  0  0  0  0  0  0
   -2.8274    4.1171    0.2695 C   0  0  0  0  0  0  0  0  0  0  0  0
   -3.1735    6.6101   -0.8572 H   0  0  0  0  0  0  0  0  0  0  0  0
   -1.8141    6.7262    0.2747 H   0  0  0  0  0  0  0  0  0  0  0  0
   -1.5286    6.8411   -1.4699 H   0  0  0  0  0  0  0  0  0  0  0  0
   -2.2550    4.4957   -1.7816 H   0  0  0  0  0  0  0  0  0  0  0  0
   -0.1314    4.7384    0.4115 H   0  0  0  0  0  0  0  0  0  0  0  0
    0.1708    4.9828   -1.3070 H   0  0  0  0  0  0  0  0  0  0  0  0
   -0.2608    2.6814   -1.8395 H   0  0  0  0  0  0  0  0  0  0  0  0
    0.7711    2.6839   -0.4035 H   0  0  0  0  0  0  0  0  0  0  0  0
   -3.0644   -3.7425   -0.5741 H   0  0  0  0  0  0  0  0  0  0  0  0
   -1.3343   -4.0841   -0.6818 H   0  0  0  0  0  0  0  0  0  0  0  0
   -2.3975   -5.1917    0.1954 H   0  0  0  0  0  0  0  0  0  0  0  0
   -3.0955   -2.9478    3.1247 H   0  0  0  0  0  0  0  0  0  0  0  0
   -4.1234   -3.1622    1.6989 H   0  0  0  0  0  0  0  0  0  0  0  0
   -3.3605   -4.5641    2.4552 H   0  0  0  0  0  0  0  0  0  0  0  0
    0.1525   -3.8836    1.3997 H   0  0  0  0  0  0  0  0  0  0  0  0
   -0.5369   -3.3353    2.9319 H   0  0  0  0  0  0  0  0  0  0  0  0
   -0.9137   -4.9519    2.3142 H   0  0  0  0  0  0  0  0  0  0  0  0
    1.8625   -0.8376    1.0623 H   0  0  0  0  0  0  0  0  0  0  0  0
    2.0214    0.9104    0.8330 H   0  0  0  0  0  0  0  0  0  0  0  0
    3.6183    0.5208   -1.0451 H   0  0  0  0  0  0  0  0  0  0  0  0
    4.1735   -0.2542    0.4492 H   0  0  0  0  0  0  0  0  0  0  0  0
    5.9744   -1.3411    0.0747 H   0  0  0  0  0  0  0  0  0  0  0  0
    6.7653   -2.3689   -1.1245 H   0  0  0  0  0  0  0  0  0  0  0  0
    2.3379   -2.7219   -2.4077 H   0  0  0  0  0  0  0  0  0  0  0  0
    1.8154   -2.7383   -0.7200 H   0  0  0  0  0  0  0  0  0  0  0  0
    0.2438   -1.4188   -2.2244 H   0  0  0  0  0  0  0  0  0  0  0  0
    1.5804   -0.3804   -2.6715 H   0  0  0  0  0  0  0  0  0  0  0  0
   -3.8823    4.2256   -0.0096 H   0  0  0  0  0  0  0  0  0  0  0  0
   -2.6961    4.5899    1.2515 H   0  0  0  0  0  0  0  0  0  0  0  0
  1  2  1  0
  2  3  1  0
  3  4  1  0
  4  5  1  0
  5  6  2  0
  6  7  1  0
  7  8  1  0
  8  9  2  0
  9 10  1  0
 10 11  1  0
 11 12  1  0
 11 13  1  0
 11 14  1  0
 10 15  2  0
 15 16  1  0
 16 17  1  0
 17 18  1  0
 18 19  1  0
 19 20  1  0
 20 21  1  0
 21 22  2  0
 21 23  1  0
 23 24  1  0
 20 25  1  0
 25 26  1  0
 16 27  2  0
  6 28  1  0
 28  2  1  0
 27  5  1  0
 27  8  1  0
 26 17  1  0
  1 29  1  0
  1 30  1  0
  1 31  1  0
  2 32  1  0
  3 33  1  0
  3 34  1  0
  4 35  1  0
  4 36  1  0
 12 37  1  0
 12 38  1  0
 12 39  1  0
 13 40  1  0
 13 41  1  0
 13 42  1  0
 14 43  1  0
 14 44  1  0
 14 45  1  0
 18 46  1  0
 18 47  1  0
 19 48  1  0
 19 49  1  0
 23 50  1  0
 23 51  1  0
 25 52  1  0
 25 53  1  0
 26 54  1  0
 26 55  1  0
 28 56  1  0
 28 57  1  0
M  END
$$$$
