
     RDKit          3D

 63 66  0  0  0  0  0  0  0  0999 V2000
    6.3584    4.2794   -1.5172 C   0  0  0  0  0  0  0  0  0  0  0  0
    4.9976    3.8705   -1.5348 O   0  0  0  0  0  0  0  0  0  0  0  0
    4.7072    2.6152   -1.0679 C   0  0  0  0  0  0  0  0  0  0  0  0
    5.6637    1.6632   -0.7067 C   0  0  0  0  0  0  0  0  0  0  0  0
    5.2749    0.3973   -0.2436 C   0  0  0  0  0  0  0  0  0  0  0  0
    3.9256    0.0633   -0.1294 C   0  0  0  0  0  0  0  0  0  0  0  0
    3.4562   -1.1827    0.3326 N   0  0  0  0  0  0  0  0  0  0  0  0
    4.2023   -2.2762    0.7243 C   0  0  0  0  0  0  0  0  0  0  0  0
    5.4234   -2.3717    0.7355 O   0  0  0  0  0  0  0  0  0  0  0  0
    3.3760   -3.4158    1.1500 C   0  0  0  0  0  0  0  0  0  0  0  0
    3.8031   -4.6117    1.5883 C   0  0  0  0  0  0  0  0  0  0  0  0
    2.7871   -5.4962    1.8913 N   0  0  0  0  0  0  0  0  0  0  0  0
    1.6151   -4.7617    1.7441 N   0  0  0  0  0  0  0  0  0  0  0  0
    0.3535   -5.2128    2.0210 C   0  0  0  0  0  0  0  0  0  0  0  0
    0.0522   -6.2980    2.5014 O   0  0  0  0  0  0  0  0  0  0  0  0
   -0.6733   -4.1961    1.6903 C   0  0  0  0  0  0  0  0  0  0  0  0
   -0.3010   -2.9915    1.2103 C   0  0  0  0  0  0  0  0  0  0  0  0
   -1.3548   -1.9458    0.8697 C   0  0  0  0  0  0  0  0  0  0  0  0
   -1.2458   -1.4795   -0.5902 C   0  0  0  0  0  0  0  0  0  0  0  0
   -2.3516   -0.4762   -0.9042 C   0  0  0  0  0  0  0  0  0  0  0  0
   -2.4927    0.5487    0.1224 N   0  0  0  0  0  0  0  0  0  0  0  0
   -3.4375    1.5570    0.0188 C   0  0  0  0  0  0  0  0  0  0  0  0
   -3.5482    2.4732    0.8231 O   0  0  0  0  0  0  0  0  0  0  0  0
   -4.2215    1.3967   -1.0785 O   0  0  0  0  0  0  0  0  0  0  0  0
   -5.2744    2.3436   -1.3927 C   0  0  0  0  0  0  0  0  0  0  0  0
   -5.8785    1.8248   -2.7068 C   0  0  0  0  0  0  0  0  0  0  0  0
   -4.7136    3.7508   -1.6344 C   0  0  0  0  0  0  0  0  0  0  0  0
   -6.3657    2.3373   -0.3166 C   0  0  0  0  0  0  0  0  0  0  0  0
   -1.4930    0.5986    1.1755 C   0  0  0  0  0  0  0  0  0  0  0  0
   -1.3193   -0.7583    1.8555 C   0  0  0  0  0  0  0  0  0  0  0  0
    1.0149   -2.6099    0.9910 N   0  0  0  0  0  0  0  0  0  0  0  0
    1.9061   -3.5041    1.2594 C   0  0  0  0  0  0  0  0  0  0  0  0
    2.9647    1.0112   -0.4912 C   0  0  0  0  0  0  0  0  0  0  0  0
    3.3517    2.2723   -0.9593 C   0  0  0  0  0  0  0  0  0  0  0  0
    2.0999    3.3868   -1.3922 Cl  0  0  0  0  0  0  0  0  0  0  0  0
    6.9573    3.6801   -2.2108 H   0  0  0  0  0  0  0  0  0  0  0  0
    6.4017    5.3192   -1.8559 H   0  0  0  0  0  0  0  0  0  0  0  0
    6.7697    4.2423   -0.5032 H   0  0  0  0  0  0  0  0  0  0  0  0
    6.7289    1.8635   -0.7773 H   0  0  0  0  0  0  0  0  0  0  0  0
    6.0591   -0.3099    0.0166 H   0  0  0  0  0  0  0  0  0  0  0  0
    2.4425   -1.2850    0.3784 H   0  0  0  0  0  0  0  0  0  0  0  0
    4.8319   -4.9256    1.7132 H   0  0  0  0  0  0  0  0  0  0  0  0
    2.8736   -5.9755    2.7898 H   0  0  0  0  0  0  0  0  0  0  0  0
   -1.7034   -4.4810    1.8604 H   0  0  0  0  0  0  0  0  0  0  0  0
   -2.3469   -2.4101    0.9740 H   0  0  0  0  0  0  0  0  0  0  0  0
   -0.2694   -1.0092   -0.7679 H   0  0  0  0  0  0  0  0  0  0  0  0
   -1.3153   -2.3297   -1.2793 H   0  0  0  0  0  0  0  0  0  0  0  0
   -3.3146   -0.9934   -0.9913 H   0  0  0  0  0  0  0  0  0  0  0  0
   -2.1553    0.0142   -1.8646 H   0  0  0  0  0  0  0  0  0  0  0  0
   -5.1126    1.7678   -3.4900 H   0  0  0  0  0  0  0  0  0  0  0  0
   -6.6916    2.4656   -3.0638 H   0  0  0  0  0  0  0  0  0  0  0  0
   -6.2666    0.8067   -2.5820 H   0  0  0  0  0  0  0  0  0  0  0  0
   -3.8625    3.7169   -2.3258 H   0  0  0  0  0  0  0  0  0  0  0  0
   -5.4774    4.4168   -2.0520 H   0  0  0  0  0  0  0  0  0  0  0  0
   -4.3501    4.2129   -0.7116 H   0  0  0  0  0  0  0  0  0  0  0  0
   -6.0091    2.7496    0.6312 H   0  0  0  0  0  0  0  0  0  0  0  0
   -6.6997    1.3154   -0.1081 H   0  0  0  0  0  0  0  0  0  0  0  0
   -7.2308    2.9316   -0.6255 H   0  0  0  0  0  0  0  0  0  0  0  0
   -0.5516    0.9167    0.7112 H   0  0  0  0  0  0  0  0  0  0  0  0
   -1.7464    1.3547    1.9261 H   0  0  0  0  0  0  0  0  0  0  0  0
   -2.1334   -0.8969    2.5800 H   0  0  0  0  0  0  0  0  0  0  0  0
   -0.3959   -0.7387    2.4477 H   0  0  0  0  0  0  0  0  0  0  0  0
    1.9052    0.7794   -0.4156 H   0  0  0  0  0  0  0  0  0  0  0  0
  1  2  1  0
  2  3  1  0
  3  4  2  0
  4  5  1  0
  5  6  2  0
  6  7  1  0
  7  8  1  0
  8  9  2  0
  8 10  1  0
 10 11  2  0
 11 12  1  0
 12 13  1  0
 13 14  1  0
 14 15  2  0
 14 16  1  0
 16 17  2  0
 17 18  1  0
 18 19  1  0
 19 20  1  0
 20 21  1  0
 21 22  1  0
 22 23  2  0
 22 24  1  0
 24 25  1  0
 25 26  1  0
 25 27  1  0
 25 28  1  0
 21 29  1  0
 29 30  1  0
 17 31  1  0
 31 32  2  0
  6 33  1  0
 33 34  2  0
 34 35  1  0
 34  3  1  0
 32 10  1  0
 32 13  1  0
 30 18  1  0
  1 36  1  0
  1 37  1  0
  1 38  1  0
  4 39  1  0
  5 40  1  0
  7 41  1  0
 11 42  1  0
 12 43  1  0
 16 44  1  0
 18 45  1  0
 19 46  1  0
 19 47  1  0
 20 48  1  0
 20 49  1  0
 26 50  1  0
 26 51  1  0
 26 52  1  0
 27 53  1  0
 27 54  1  0
 27 55  1  0
 28 56  1  0
 28 57  1  0
 28 58  1  0
 29 59  1  0
 29 60  1  0
 30 61  1  0
 30 62  1  0
 33 63  1  0
M  END
$$$$
