
     RDKit          3D

 33 34  0  0  0  0  0  0  0  0999 V2000
   -5.4661    0.1449    1.0367 C   0  0  0  0  0  0  0  0  0  0  0  0
   -4.6000    1.1996    1.4391 O   0  0  0  0  0  0  0  0  0  0  0  0
   -3.2774    1.0778    1.1153 C   0  0  0  0  0  0  0  0  0  0  0  0
   -2.4688    2.1227    1.5744 C   0  0  0  0  0  0  0  0  0  0  0  0
   -1.0994    2.1371    1.3028 C   0  0  0  0  0  0  0  0  0  0  0  0
   -0.5304    1.1013    0.5571 C   0  0  0  0  0  0  0  0  0  0  0  0
    0.9198    1.1650    0.2752 C   0  0  0  0  0  0  0  0  0  0  0  0
    1.6793    1.3411    1.2253 O   0  0  0  0  0  0  0  0  0  0  0  0
    1.3561    1.1159   -1.1742 C   0  0  0  0  0  0  0  0  0  0  0  0
    2.7154    0.5206   -1.3007 C   0  0  0  0  0  0  0  0  0  0  0  0
    3.7757    1.1680   -1.7402 N   0  0  0  0  0  0  0  0  0  0  0  0
    4.8994    0.3686   -1.7795 N   0  0  0  0  0  0  0  0  0  0  0  0
    4.6494   -0.8598   -1.3803 C   0  0  0  0  0  0  0  0  0  0  0  0
    5.6548   -1.9480   -1.3094 C   0  0  0  0  0  0  0  0  0  0  0  0
    3.0075   -1.1427   -0.9634 S   0  0  0  0  0  0  0  0  0  0  0  0
   -1.3252    0.0326    0.1361 C   0  0  0  0  0  0  0  0  0  0  0  0
   -0.7760   -1.0101   -0.5634 O   0  0  0  0  0  0  0  0  0  0  0  0
   -0.6275   -2.1565    0.2790 C   0  0  0  0  0  0  0  0  0  0  0  0
   -2.7021    0.0322    0.3913 C   0  0  0  0  0  0  0  0  0  0  0  0
   -5.1741   -0.8037    1.4994 H   0  0  0  0  0  0  0  0  0  0  0  0
   -6.4739    0.3898    1.3848 H   0  0  0  0  0  0  0  0  0  0  0  0
   -5.5024    0.0606   -0.0549 H   0  0  0  0  0  0  0  0  0  0  0  0
   -2.9120    2.9343    2.1478 H   0  0  0  0  0  0  0  0  0  0  0  0
   -0.4838    2.9544    1.6727 H   0  0  0  0  0  0  0  0  0  0  0  0
    1.3706    2.1483   -1.5431 H   0  0  0  0  0  0  0  0  0  0  0  0
    0.6508    0.5640   -1.7999 H   0  0  0  0  0  0  0  0  0  0  0  0
    6.6629   -1.5303   -1.2199 H   0  0  0  0  0  0  0  0  0  0  0  0
    5.6187   -2.5553   -2.2192 H   0  0  0  0  0  0  0  0  0  0  0  0
    5.4862   -2.6007   -0.4470 H   0  0  0  0  0  0  0  0  0  0  0  0
   -0.0908   -2.9212   -0.2900 H   0  0  0  0  0  0  0  0  0  0  0  0
   -0.0377   -1.9196    1.1714 H   0  0  0  0  0  0  0  0  0  0  0  0
   -1.6016   -2.5681    0.5626 H   0  0  0  0  0  0  0  0  0  0  0  0
   -3.2976   -0.7922    0.0142 H   0  0  0  0  0  0  0  0  0  0  0  0
  1  2  1  0
  2  3  1  0
  3  4  2  0
  4  5  1  0
  5  6  2  0
  6  7  1  0
  7  8  2  0
  7  9  1  0
  9 10  1  0
 10 11  2  0
 11 12  1  0
 12 13  2  0
 13 14  1  0
 13 15  1  0
  6 16  1  0
 16 17  1  0
 17 18  1  0
 16 19  2  0
 19  3  1  0
 15 10  1  0
  1 20  1  0
  1 21  1  0
  1 22  1  0
  4 23  1  0
  5 24  1  0
  9 25  1  0
  9 26  1  0
 14 27  1  0
 14 28  1  0
 14 29  1  0
 18 30  1  0
 18 31  1  0
 18 32  1  0
 19 33  1  0
M  END
$$$$
