
     RDKit          3D

 55 58  0  0  0  0  0  0  0  0999 V2000
   -4.5682   -1.5024   -2.0973 C   0  0  0  0  0  0  0  0  0  0  0  0
   -5.9387   -1.0916   -2.6111 C   0  0  0  0  0  0  0  0  0  0  0  0
   -6.2363    0.4065   -2.4939 C   0  0  0  0  0  0  0  0  0  0  0  0
   -6.5087    0.9007   -1.0716 C   0  0  0  0  0  0  0  0  0  0  0  0
   -5.3205    1.0099   -0.2529 N   0  0  0  0  0  0  0  0  0  0  0  0
   -4.4303    2.0532   -0.4064 C   0  0  0  0  0  0  0  0  0  0  0  0
   -4.5905    2.9699   -1.2039 O   0  0  0  0  0  0  0  0  0  0  0  0
   -3.2032    1.9996    0.4345 C   0  0  0  0  0  0  0  0  0  0  0  0
   -2.0350    2.5924   -0.0543 C   0  0  0  0  0  0  0  0  0  0  0  0
   -0.8581    2.5578    0.6987 C   0  0  0  0  0  0  0  0  0  0  0  0
   -0.8300    1.9345    1.9553 C   0  0  0  0  0  0  0  0  0  0  0  0
    0.4475    1.8931    2.7747 C   0  0  0  0  0  0  0  0  0  0  0  0
    1.4785    1.0277    2.1877 N   0  0  0  0  0  0  0  0  0  0  0  0
    1.5098   -0.3595    2.4401 C   0  0  0  0  0  0  0  0  0  0  0  0
    0.4685   -1.2327    3.4297 S   0  0  0  0  0  0  0  0  0  0  0  0
    2.5003   -1.0961    1.8247 N   0  0  0  0  0  0  0  0  0  0  0  0
    3.4373   -0.5217    1.0095 C   0  0  0  0  0  0  0  0  0  0  0  0
    3.3985    0.8233    0.8000 C   0  0  0  0  0  0  0  0  0  0  0  0
    4.4300    1.1484   -0.0355 N   0  0  0  0  0  0  0  0  0  0  0  0
    5.1355    0.0082   -0.3660 C   0  0  0  0  0  0  0  0  0  0  0  0
    6.2569   -0.1502   -1.1839 C   0  0  0  0  0  0  0  0  0  0  0  0
    6.7628   -1.4457   -1.3354 C   0  0  0  0  0  0  0  0  0  0  0  0
    6.1787   -2.5438   -0.6999 C   0  0  0  0  0  0  0  0  0  0  0  0
    6.7980   -3.7388   -0.9546 O   0  0  0  0  0  0  0  0  0  0  0  0
    6.2460   -4.8958   -0.3399 C   0  0  0  0  0  0  0  0  0  0  0  0
    5.0552   -2.3647    0.1161 C   0  0  0  0  0  0  0  0  0  0  0  0
    4.5233   -1.0682    0.2868 C   0  0  0  0  0  0  0  0  0  0  0  0
    2.4263    1.6926    1.3809 C   0  0  0  0  0  0  0  0  0  0  0  0
    2.4467    2.9039    1.1811 O   0  0  0  0  0  0  0  0  0  0  0  0
   -2.0155    1.3700    2.4509 C   0  0  0  0  0  0  0  0  0  0  0  0
   -3.1941    1.4005    1.6984 C   0  0  0  0  0  0  0  0  0  0  0  0
   -4.5146   -1.4543   -1.0072 H   0  0  0  0  0  0  0  0  0  0  0  0
   -4.3574   -2.5377   -2.3849 H   0  0  0  0  0  0  0  0  0  0  0  0
   -3.7805   -0.8688   -2.5164 H   0  0  0  0  0  0  0  0  0  0  0  0
   -6.7138   -1.6724   -2.0980 H   0  0  0  0  0  0  0  0  0  0  0  0
   -5.9954   -1.3637   -3.6725 H   0  0  0  0  0  0  0  0  0  0  0  0
   -7.1391    0.6037   -3.0861 H   0  0  0  0  0  0  0  0  0  0  0  0
   -5.4277    0.9830   -2.9583 H   0  0  0  0  0  0  0  0  0  0  0  0
   -7.2061    0.2341   -0.5538 H   0  0  0  0  0  0  0  0  0  0  0  0
   -6.9711    1.8934   -1.1217 H   0  0  0  0  0  0  0  0  0  0  0  0
   -5.0513    0.2082    0.2992 H   0  0  0  0  0  0  0  0  0  0  0  0
   -2.0378    3.0834   -1.0259 H   0  0  0  0  0  0  0  0  0  0  0  0
    0.0328    3.0346    0.2945 H   0  0  0  0  0  0  0  0  0  0  0  0
    0.2317    1.5656    3.7977 H   0  0  0  0  0  0  0  0  0  0  0  0
    0.8197    2.9198    2.8797 H   0  0  0  0  0  0  0  0  0  0  0  0
    2.5328   -2.0949    1.9903 H   0  0  0  0  0  0  0  0  0  0  0  0
    4.6390    2.0846   -0.3586 H   0  0  0  0  0  0  0  0  0  0  0  0
    6.7240    0.6910   -1.6857 H   0  0  0  0  0  0  0  0  0  0  0  0
    7.6359   -1.6009   -1.9666 H   0  0  0  0  0  0  0  0  0  0  0  0
    6.8494   -5.7564   -0.6445 H   0  0  0  0  0  0  0  0  0  0  0  0
    5.2199   -5.0719   -0.6794 H   0  0  0  0  0  0  0  0  0  0  0  0
    6.2953   -4.8244    0.7517 H   0  0  0  0  0  0  0  0  0  0  0  0
    4.5774   -3.1930    0.6235 H   0  0  0  0  0  0  0  0  0  0  0  0
   -2.0352    0.9032    3.4343 H   0  0  0  0  0  0  0  0  0  0  0  0
   -4.0985    0.9777    2.1261 H   0  0  0  0  0  0  0  0  0  0  0  0
  1  2  1  0
  2  3  1  0
  3  4  1  0
  4  5  1  0
  5  6  1  0
  6  7  2  0
  6  8  1  0
  8  9  2  0
  9 10  1  0
 10 11  2  0
 11 12  1  0
 12 13  1  0
 13 14  1  0
 14 15  2  0
 14 16  1  0
 16 17  1  0
 17 18  2  0
 18 19  1  0
 19 20  1  0
 20 21  2  0
 21 22  1  0
 22 23  2  0
 23 24  1  0
 24 25  1  0
 23 26  1  0
 26 27  2  0
 18 28  1  0
 28 29  2  0
 11 30  1  0
 30 31  2  0
 31  8  1  0
 28 13  1  0
 27 17  1  0
 27 20  1  0
  1 32  1  0
  1 33  1  0
  1 34  1  0
  2 35  1  0
  2 36  1  0
  3 37  1  0
  3 38  1  0
  4 39  1  0
  4 40  1  0
  5 41  1  0
  9 42  1  0
 10 43  1  0
 12 44  1  0
 12 45  1  0
 16 46  1  0
 19 47  1  0
 21 48  1  0
 22 49  1  0
 25 50  1  0
 25 51  1  0
 25 52  1  0
 26 53  1  0
 30 54  1  0
 31 55  1  0
M  END
$$$$
