
     RDKit          3D

 66 68  0  0  0  0  0  0  0  0999 V2000
   -2.9526   -3.8518   -1.2580 C   0  0  0  0  0  0  0  0  0  0  0  0
   -2.5742   -3.2402    0.0876 C   0  0  0  0  0  0  0  0  0  0  0  0
   -2.7685   -1.7845    0.1473 N   0  0  0  0  0  0  0  0  0  0  0  0
   -4.1466   -1.3426   -0.1180 C   0  0  0  0  0  0  0  0  0  0  0  0
   -5.2133   -1.8425    0.8521 C   0  0  0  0  0  0  0  0  0  0  0  0
   -2.2397   -1.1989    1.3897 C   0  0  0  0  0  0  0  0  0  0  0  0
   -0.7026   -1.1928    1.4960 C   0  0  0  0  0  0  0  0  0  0  0  0
    0.0327   -0.5658    0.2800 C   0  0  0  0  0  0  0  0  0  0  0  0
    1.5610   -0.6689    0.3261 C   0  0  0  0  0  0  0  0  0  0  0  0
    2.2855   -0.9015    1.4962 C   0  0  0  0  0  0  0  0  0  0  0  0
    3.6888   -0.9719    1.4788 C   0  0  0  0  0  0  0  0  0  0  0  0
    4.4383   -0.8296    0.2995 C   0  0  0  0  0  0  0  0  0  0  0  0
    5.8392   -0.8799    0.2921 N   0  0  0  0  0  0  0  0  0  0  0  0
    6.5302   -1.4292    1.4577 C   0  0  0  0  0  0  0  0  0  0  0  0
    6.5248   -1.0605   -0.9865 C   0  0  0  0  0  0  0  0  0  0  0  0
    3.6919   -0.5852   -0.8646 C   0  0  0  0  0  0  0  0  0  0  0  0
    2.2904   -0.5124   -0.8580 C   0  0  0  0  0  0  0  0  0  0  0  0
   -0.4378    0.8589   -0.0232 C   0  0  0  0  0  0  0  0  0  0  0  0
   -0.2595    1.9226    0.8733 C   0  0  0  0  0  0  0  0  0  0  0  0
    0.3608    1.6963    2.0765 O   0  0  0  0  0  0  0  0  0  0  0  0
    1.5794    2.4384    2.1846 C   0  0  0  0  0  0  0  0  0  0  0  0
   -0.7713    3.2008    0.6012 C   0  0  0  0  0  0  0  0  0  0  0  0
   -1.4383    3.4643   -0.5984 C   0  0  0  0  0  0  0  0  0  0  0  0
   -1.9671    4.6841   -0.9402 O   0  0  0  0  0  0  0  0  0  0  0  0
   -1.8539    5.7401    0.0052 C   0  0  0  0  0  0  0  0  0  0  0  0
   -1.5951    2.4287   -1.5339 C   0  0  0  0  0  0  0  0  0  0  0  0
   -2.2818    2.6221   -2.8101 C   0  0  0  0  0  0  0  0  0  0  0  0
   -2.4273    1.6075   -3.6661 C   0  0  0  0  0  0  0  0  0  0  0  0
   -1.9039    0.2646   -3.3839 C   0  0  0  0  0  0  0  0  0  0  0  0
   -2.0407   -0.6457   -4.1929 O   0  0  0  0  0  0  0  0  0  0  0  0
   -1.2443    0.1050   -2.1773 O   0  0  0  0  0  0  0  0  0  0  0  0
   -1.0933    1.1546   -1.2339 C   0  0  0  0  0  0  0  0  0  0  0  0
   -4.0325   -3.8246   -1.4300 H   0  0  0  0  0  0  0  0  0  0  0  0
   -2.4524   -3.3324   -2.0821 H   0  0  0  0  0  0  0  0  0  0  0  0
   -2.6442   -4.9020   -1.2881 H   0  0  0  0  0  0  0  0  0  0  0  0
   -3.1219   -3.7491    0.8896 H   0  0  0  0  0  0  0  0  0  0  0  0
   -1.5143   -3.4733    0.2386 H   0  0  0  0  0  0  0  0  0  0  0  0
   -4.1684   -0.2449   -0.1252 H   0  0  0  0  0  0  0  0  0  0  0  0
   -4.4343   -1.6211   -1.1385 H   0  0  0  0  0  0  0  0  0  0  0  0
   -6.1879   -1.4258    0.5767 H   0  0  0  0  0  0  0  0  0  0  0  0
   -5.0023   -1.5323    1.8797 H   0  0  0  0  0  0  0  0  0  0  0  0
   -5.3047   -2.9322    0.8286 H   0  0  0  0  0  0  0  0  0  0  0  0
   -2.5748   -0.1575    1.4787 H   0  0  0  0  0  0  0  0  0  0  0  0
   -2.6493   -1.7207    2.2642 H   0  0  0  0  0  0  0  0  0  0  0  0
   -0.3467   -2.2208    1.6412 H   0  0  0  0  0  0  0  0  0  0  0  0
   -0.4469   -0.6647    2.4222 H   0  0  0  0  0  0  0  0  0  0  0  0
   -0.2356   -1.2160   -0.5630 H   0  0  0  0  0  0  0  0  0  0  0  0
    1.7824   -1.0144    2.4519 H   0  0  0  0  0  0  0  0  0  0  0  0
    4.1771   -1.1394    2.4334 H   0  0  0  0  0  0  0  0  0  0  0  0
    6.2335   -2.4683    1.6397 H   0  0  0  0  0  0  0  0  0  0  0  0
    6.3368   -0.8258    2.3508 H   0  0  0  0  0  0  0  0  0  0  0  0
    7.6179   -1.4170    1.3203 H   0  0  0  0  0  0  0  0  0  0  0  0
    7.6109   -1.1043   -0.8480 H   0  0  0  0  0  0  0  0  0  0  0  0
    6.2148   -1.9924   -1.4723 H   0  0  0  0  0  0  0  0  0  0  0  0
    6.3432   -0.2158   -1.6597 H   0  0  0  0  0  0  0  0  0  0  0  0
    4.1796   -0.4385   -1.8227 H   0  0  0  0  0  0  0  0  0  0  0  0
    1.7726   -0.3270   -1.7976 H   0  0  0  0  0  0  0  0  0  0  0  0
    1.3729    3.4752    2.4700 H   0  0  0  0  0  0  0  0  0  0  0  0
    2.1761    1.9850    2.9817 H   0  0  0  0  0  0  0  0  0  0  0  0
    2.1662    2.4054    1.2594 H   0  0  0  0  0  0  0  0  0  0  0  0
   -0.6485    3.9682    1.3574 H   0  0  0  0  0  0  0  0  0  0  0  0
   -2.3749    5.4941    0.9363 H   0  0  0  0  0  0  0  0  0  0  0  0
   -0.8047    5.9922    0.1908 H   0  0  0  0  0  0  0  0  0  0  0  0
   -2.3376    6.6237   -0.4219 H   0  0  0  0  0  0  0  0  0  0  0  0
   -2.6769    3.6045   -3.0468 H   0  0  0  0  0  0  0  0  0  0  0  0
   -2.9363    1.7279   -4.6143 H   0  0  0  0  0  0  0  0  0  0  0  0
  1  2  1  0
  2  3  1  0
  3  4  1  0
  4  5  1  0
  3  6  1  0
  6  7  1  0
  7  8  1  0
  8  9  1  0
  9 10  2  0
 10 11  1  0
 11 12  2  0
 12 13  1  0
 13 14  1  0
 13 15  1  0
 12 16  1  0
 16 17  2  0
  8 18  1  0
 18 19  2  0
 19 20  1  0
 20 21  1  0
 19 22  1  0
 22 23  2  0
 23 24  1  0
 24 25  1  0
 23 26  1  0
 26 27  1  0
 27 28  2  0
 28 29  1  0
 29 30  2  0
 29 31  1  0
 31 32  1  0
 17  9  1  0
 32 18  1  0
 32 26  2  0
  1 33  1  0
  1 34  1  0
  1 35  1  0
  2 36  1  0
  2 37  1  0
  4 38  1  0
  4 39  1  0
  5 40  1  0
  5 41  1  0
  5 42  1  0
  6 43  1  0
  6 44  1  0
  7 45  1  0
  7 46  1  0
  8 47  1  0
 10 48  1  0
 11 49  1  0
 14 50  1  0
 14 51  1  0
 14 52  1  0
 15 53  1  0
 15 54  1  0
 15 55  1  0
 16 56  1  0
 17 57  1  0
 21 58  1  0
 21 59  1  0
 21 60  1  0
 22 61  1  0
 25 62  1  0
 25 63  1  0
 25 64  1  0
 27 65  1  0
 28 66  1  0
M  END
$$$$
