
     RDKit          3D

 55 58  0  0  0  0  0  0  0  0999 V2000
   -9.5998    1.2967   -0.3588 C   0  0  0  0  0  0  0  0  0  0  0  0
   -8.4215    1.7358    0.4958 C   0  0  0  0  0  0  0  0  0  0  0  0
   -7.0920    1.2992   -0.1171 C   0  0  0  0  0  0  0  0  0  0  0  0
   -5.9116    1.7441    0.7437 C   0  0  0  0  0  0  0  0  0  0  0  0
   -4.6454    1.3613    0.1522 N   0  0  0  0  0  0  0  0  0  0  0  0
   -4.1305    0.0911    0.3193 C   0  0  0  0  0  0  0  0  0  0  0  0
   -4.6679   -0.7725    1.0032 O   0  0  0  0  0  0  0  0  0  0  0  0
   -2.8748   -0.2146   -0.4208 C   0  0  0  0  0  0  0  0  0  0  0  0
   -2.6238   -1.5406   -0.7870 C   0  0  0  0  0  0  0  0  0  0  0  0
   -1.4585   -1.8723   -1.4843 C   0  0  0  0  0  0  0  0  0  0  0  0
   -0.5155   -0.8877   -1.8135 C   0  0  0  0  0  0  0  0  0  0  0  0
    0.7528   -1.2511   -2.5659 C   0  0  0  0  0  0  0  0  0  0  0  0
    1.9579   -1.1843   -1.7294 N   0  0  0  0  0  0  0  0  0  0  0  0
    2.3877   -2.2877   -0.9632 C   0  0  0  0  0  0  0  0  0  0  0  0
    1.6876   -3.8142   -0.9031 S   0  0  0  0  0  0  0  0  0  0  0  0
    3.5110   -2.1201   -0.1807 N   0  0  0  0  0  0  0  0  0  0  0  0
    4.2127   -0.9460   -0.1523 C   0  0  0  0  0  0  0  0  0  0  0  0
    3.7944    0.0948   -0.9245 C   0  0  0  0  0  0  0  0  0  0  0  0
    4.6573    1.1363   -0.7285 N   0  0  0  0  0  0  0  0  0  0  0  0
    5.6332    0.7660    0.1756 C   0  0  0  0  0  0  0  0  0  0  0  0
    6.7160    1.4918    0.6782 C   0  0  0  0  0  0  0  0  0  0  0  0
    7.5510    0.8455    1.5959 C   0  0  0  0  0  0  0  0  0  0  0  0
    7.3213   -0.4713    2.0009 C   0  0  0  0  0  0  0  0  0  0  0  0
    8.2327   -0.9515    2.9038 O   0  0  0  0  0  0  0  0  0  0  0  0
    8.0439   -2.2832    3.3651 C   0  0  0  0  0  0  0  0  0  0  0  0
    6.2312   -1.1825    1.4852 C   0  0  0  0  0  0  0  0  0  0  0  0
    5.3718   -0.5550    0.5575 C   0  0  0  0  0  0  0  0  0  0  0  0
    2.6473    0.0462   -1.7732 C   0  0  0  0  0  0  0  0  0  0  0  0
    2.3236    1.0042   -2.4703 O   0  0  0  0  0  0  0  0  0  0  0  0
   -0.7724    0.4392   -1.4346 C   0  0  0  0  0  0  0  0  0  0  0  0
   -1.9386    0.7747   -0.7384 C   0  0  0  0  0  0  0  0  0  0  0  0
   -9.6271    0.2070   -0.4592 H   0  0  0  0  0  0  0  0  0  0  0  0
  -10.5405    1.6195    0.0982 H   0  0  0  0  0  0  0  0  0  0  0  0
   -9.5416    1.7331   -1.3611 H   0  0  0  0  0  0  0  0  0  0  0  0
   -8.5266    1.3086    1.4999 H   0  0  0  0  0  0  0  0  0  0  0  0
   -8.4419    2.8265    0.6032 H   0  0  0  0  0  0  0  0  0  0  0  0
   -7.0790    0.2085   -0.2334 H   0  0  0  0  0  0  0  0  0  0  0  0
   -6.9906    1.7222   -1.1245 H   0  0  0  0  0  0  0  0  0  0  0  0
   -5.8995    2.8344    0.8447 H   0  0  0  0  0  0  0  0  0  0  0  0
   -5.9831    1.3084    1.7466 H   0  0  0  0  0  0  0  0  0  0  0  0
   -4.2768    1.9467   -0.5842 H   0  0  0  0  0  0  0  0  0  0  0  0
   -3.3379   -2.3216   -0.5314 H   0  0  0  0  0  0  0  0  0  0  0  0
   -1.2974   -2.9123   -1.7623 H   0  0  0  0  0  0  0  0  0  0  0  0
    0.6577   -2.2498   -3.0060 H   0  0  0  0  0  0  0  0  0  0  0  0
    0.8470   -0.5744   -3.4246 H   0  0  0  0  0  0  0  0  0  0  0  0
    3.8261   -2.9007    0.3829 H   0  0  0  0  0  0  0  0  0  0  0  0
    4.5863    2.0388   -1.1808 H   0  0  0  0  0  0  0  0  0  0  0  0
    6.9102    2.5156    0.3756 H   0  0  0  0  0  0  0  0  0  0  0  0
    8.4030    1.3851    2.0056 H   0  0  0  0  0  0  0  0  0  0  0  0
    8.8442   -2.5069    4.0771 H   0  0  0  0  0  0  0  0  0  0  0  0
    7.0901   -2.3870    3.8928 H   0  0  0  0  0  0  0  0  0  0  0  0
    8.1211   -3.0006    2.5414 H   0  0  0  0  0  0  0  0  0  0  0  0
    6.0236   -2.2043    1.7765 H   0  0  0  0  0  0  0  0  0  0  0  0
   -0.0646    1.2297   -1.6771 H   0  0  0  0  0  0  0  0  0  0  0  0
   -2.0841    1.8061   -0.4307 H   0  0  0  0  0  0  0  0  0  0  0  0
  1  2  1  0
  2  3  1  0
  3  4  1  0
  4  5  1  0
  5  6  1  0
  6  7  2  0
  6  8  1  0
  8  9  2  0
  9 10  1  0
 10 11  2  0
 11 12  1  0
 12 13  1  0
 13 14  1  0
 14 15  2  0
 14 16  1  0
 16 17  1  0
 17 18  2  0
 18 19  1  0
 19 20  1  0
 20 21  2  0
 21 22  1  0
 22 23  2  0
 23 24  1  0
 24 25  1  0
 23 26  1  0
 26 27  2  0
 18 28  1  0
 28 29  2  0
 11 30  1  0
 30 31  2  0
 31  8  1  0
 28 13  1  0
 27 17  1  0
 27 20  1  0
  1 32  1  0
  1 33  1  0
  1 34  1  0
  2 35  1  0
  2 36  1  0
  3 37  1  0
  3 38  1  0
  4 39  1  0
  4 40  1  0
  5 41  1  0
  9 42  1  0
 10 43  1  0
 12 44  1  0
 12 45  1  0
 16 46  1  0
 19 47  1  0
 21 48  1  0
 22 49  1  0
 25 50  1  0
 25 51  1  0
 25 52  1  0
 26 53  1  0
 30 54  1  0
 31 55  1  0
M  END
$$$$
