
     RDKit          3D

 32 33  0  0  0  0  0  0  0  0999 V2000
   -0.0993   -0.0356   -3.2915 N   0  0  0  0  0  0  0  0  0  0  0  0
   -0.8535   -0.1208   -2.4125 C   0  0  0  0  0  0  0  0  0  0  0  0
   -1.8202   -0.1875   -1.3504 C   0  0  0  0  0  0  0  0  0  0  0  0
   -3.1432    0.1779   -1.6563 C   0  0  0  0  0  0  0  0  0  0  0  0
   -4.1252    0.1270   -0.6632 C   0  0  0  0  0  0  0  0  0  0  0  0
   -5.5071    0.5071   -0.9809 N   0  0  0  0  0  4  0  0  0  0  0  0
   -6.3452    0.4459   -0.0706 O   0  0  0  0  0  0  0  0  0  0  0  0
   -5.7512    0.8692   -2.1401 O   0  0  0  0  0  1  0  0  0  0  0  0
   -3.8006   -0.2946    0.6269 C   0  0  0  0  0  0  0  0  0  0  0  0
   -2.4815   -0.6561    0.9231 C   0  0  0  0  0  0  0  0  0  0  0  0
   -1.4580   -0.5806   -0.0396 C   0  0  0  0  0  0  0  0  0  0  0  0
   -0.1570   -1.0266    0.2533 N   0  0  0  0  0  0  0  0  0  0  0  0
    0.3771   -0.8101    1.6059 C   0  0  0  0  0  0  0  0  0  0  0  0
    1.8812   -1.1245    1.6599 C   0  0  0  0  0  0  0  0  0  0  0  0
    2.7307   -0.1584    0.8654 C   0  0  0  0  0  0  0  0  0  0  0  0
    3.9695    0.2551    1.3476 C   0  0  0  0  0  0  0  0  0  0  0  0
    4.7497    1.0995    0.5610 C   0  0  0  0  0  0  0  0  0  0  0  0
    4.2844    1.4959   -0.6870 C   0  0  0  0  0  0  0  0  0  0  0  0
    3.0503    1.0290   -1.1012 C   0  0  0  0  0  0  0  0  0  0  0  0
    2.2699    0.2157   -0.3553 N   0  0  0  0  0  0  0  0  0  0  0  0
   -3.3920    0.4930   -2.6694 H   0  0  0  0  0  0  0  0  0  0  0  0
   -4.5545   -0.3619    1.4091 H   0  0  0  0  0  0  0  0  0  0  0  0
   -2.2710   -1.0156    1.9272 H   0  0  0  0  0  0  0  0  0  0  0  0
    0.5383   -0.6625   -0.4187 H   0  0  0  0  0  0  0  0  0  0  0  0
    0.2057    0.2270    1.9211 H   0  0  0  0  0  0  0  0  0  0  0  0
   -0.1302   -1.4775    2.3114 H   0  0  0  0  0  0  0  0  0  0  0  0
    2.1928   -1.0999    2.7112 H   0  0  0  0  0  0  0  0  0  0  0  0
    2.0715   -2.1373    1.2846 H   0  0  0  0  0  0  0  0  0  0  0  0
    4.3331   -0.0743    2.3155 H   0  0  0  0  0  0  0  0  0  0  0  0
    5.7192    1.4378    0.9160 H   0  0  0  0  0  0  0  0  0  0  0  0
    4.8722    2.1458   -1.3252 H   0  0  0  0  0  0  0  0  0  0  0  0
    2.6440    1.2979   -2.0730 H   0  0  0  0  0  0  0  0  0  0  0  0
  1  2  3  0
  2  3  1  0
  3  4  2  0
  4  5  1  0
  5  6  1  0
  6  7  2  0
  6  8  1  0
  5  9  2  0
  9 10  1  0
 10 11  2  0
 11 12  1  0
 12 13  1  0
 13 14  1  0
 14 15  1  0
 15 16  2  0
 16 17  1  0
 17 18  2  0
 18 19  1  0
 19 20  2  0
 11  3  1  0
 20 15  1  0
  4 21  1  0
  9 22  1  0
 10 23  1  0
 12 24  1  0
 13 25  1  0
 13 26  1  0
 14 27  1  0
 14 28  1  0
 16 29  1  0
 17 30  1  0
 18 31  1  0
 19 32  1  0
M  CHG  2   6   1   8  -1
M  END
$$$$
