
     RDKit          3D

 50 53  0  0  0  0  0  0  0  0999 V2000
   -4.1392   -1.3867   -2.6581 C   0  0  0  0  0  0  0  0  0  0  0  0
   -3.9903   -0.2951   -1.5985 C   0  0  0  0  0  0  0  0  0  0  0  0
   -5.2128   -0.2723   -0.6733 C   0  0  0  0  0  0  0  0  0  0  0  0
   -5.0612    0.7577    0.4529 C   0  0  0  0  0  0  0  0  0  0  0  0
   -5.1781    2.1953   -0.0644 C   0  0  0  0  0  0  0  0  0  0  0  0
   -3.7429    0.5429    1.2134 C   0  0  0  0  0  0  0  0  0  0  0  0
   -2.6053    0.4877    0.2897 N   0  0  0  0  0  0  0  0  0  0  0  0
   -1.3611    0.4997    0.9322 C   0  0  0  0  0  0  0  0  0  0  0  0
   -1.2705    0.9944    2.1803 N   0  0  0  0  0  0  0  0  0  0  0  0
   -0.0553    1.0285    2.7685 C   0  0  0  0  0  0  0  0  0  0  0  0
    1.0875    0.5869    2.1533 C   0  0  0  0  0  0  0  0  0  0  0  0
    0.9296    0.0983    0.8772 C   0  0  0  0  0  0  0  0  0  0  0  0
   -0.2783    0.0436    0.2708 N   0  0  0  0  0  0  0  0  0  0  0  0
    2.1026   -0.4366    0.1018 C   0  0  0  0  0  0  0  0  0  0  0  0
    3.4030    0.2565    0.5354 C   0  0  0  0  0  0  0  0  0  0  0  0
    4.6033   -0.2579   -0.2406 C   0  0  0  0  0  0  0  0  0  0  0  0
    5.3207    0.6188   -1.0703 C   0  0  0  0  0  0  0  0  0  0  0  0
    6.4271    0.1698   -1.7961 C   0  0  0  0  0  0  0  0  0  0  0  0
    6.8257   -1.1601   -1.6989 C   0  0  0  0  0  0  0  0  0  0  0  0
    8.1875   -1.7136   -2.5924 Cl  0  0  0  0  0  0  0  0  0  0  0  0
    6.1271   -2.0447   -0.8822 C   0  0  0  0  0  0  0  0  0  0  0  0
    5.0203   -1.5961   -0.1562 C   0  0  0  0  0  0  0  0  0  0  0  0
    3.5990    0.1180    2.0505 C   0  0  0  0  0  0  0  0  0  0  0  0
    2.3998    0.6348    2.8149 C   0  0  0  0  0  0  0  0  0  0  0  0
    2.4872    1.0370    3.9707 O   0  0  0  0  0  0  0  0  0  0  0  0
   -2.6975   -0.4963   -0.7926 C   0  0  0  0  0  0  0  0  0  0  0  0
   -5.0432   -1.2269   -3.2551 H   0  0  0  0  0  0  0  0  0  0  0  0
   -4.2061   -2.3799   -2.2011 H   0  0  0  0  0  0  0  0  0  0  0  0
   -3.2825   -1.3849   -3.3402 H   0  0  0  0  0  0  0  0  0  0  0  0
   -3.9273    0.6674   -2.1220 H   0  0  0  0  0  0  0  0  0  0  0  0
   -5.3493   -1.2656   -0.2254 H   0  0  0  0  0  0  0  0  0  0  0  0
   -6.1205   -0.0645   -1.2531 H   0  0  0  0  0  0  0  0  0  0  0  0
   -5.8874    0.6070    1.1600 H   0  0  0  0  0  0  0  0  0  0  0  0
   -5.1693    2.9039    0.7709 H   0  0  0  0  0  0  0  0  0  0  0  0
   -6.1184    2.3356   -0.6078 H   0  0  0  0  0  0  0  0  0  0  0  0
   -4.3559    2.4648   -0.7343 H   0  0  0  0  0  0  0  0  0  0  0  0
   -3.8027   -0.3961    1.7804 H   0  0  0  0  0  0  0  0  0  0  0  0
   -3.6395    1.3602    1.9386 H   0  0  0  0  0  0  0  0  0  0  0  0
   -0.0410    1.4362    3.7757 H   0  0  0  0  0  0  0  0  0  0  0  0
    2.1531   -1.5199    0.2669 H   0  0  0  0  0  0  0  0  0  0  0  0
    1.9354   -0.2790   -0.9711 H   0  0  0  0  0  0  0  0  0  0  0  0
    3.2903    1.3299    0.3198 H   0  0  0  0  0  0  0  0  0  0  0  0
    5.0258    1.6627   -1.1615 H   0  0  0  0  0  0  0  0  0  0  0  0
    6.9710    0.8621   -2.4334 H   0  0  0  0  0  0  0  0  0  0  0  0
    6.4376   -3.0835   -0.8056 H   0  0  0  0  0  0  0  0  0  0  0  0
    4.4915   -2.3077    0.4743 H   0  0  0  0  0  0  0  0  0  0  0  0
    4.4763    0.6984    2.3607 H   0  0  0  0  0  0  0  0  0  0  0  0
    3.7587   -0.9238    2.3514 H   0  0  0  0  0  0  0  0  0  0  0  0
   -2.6646   -1.5128   -0.3772 H   0  0  0  0  0  0  0  0  0  0  0  0
   -1.8601   -0.3946   -1.4951 H   0  0  0  0  0  0  0  0  0  0  0  0
  1  2  1  0
  2  3  1  0
  3  4  1  0
  4  5  1  0
  4  6  1  0
  6  7  1  0
  7  8  1  0
  8  9  2  0
  9 10  1  0
 10 11  2  0
 11 12  1  0
 12 13  2  0
 12 14  1  0
 14 15  1  0
 15 16  1  0
 16 17  2  0
 17 18  1  0
 18 19  2  0
 19 20  1  0
 19 21  1  0
 21 22  2  0
 15 23  1  0
 23 24  1  0
 24 25  2  0
  7 26  1  0
 26  2  1  0
 13  8  1  0
 22 16  1  0
 24 11  1  0
  1 27  1  0
  1 28  1  0
  1 29  1  0
  2 30  1  0
  3 31  1  0
  3 32  1  0
  4 33  1  0
  5 34  1  0
  5 35  1  0
  5 36  1  0
  6 37  1  0
  6 38  1  0
 10 39  1  0
 14 40  1  0
 14 41  1  0
 15 42  1  0
 17 43  1  0
 18 44  1  0
 21 45  1  0
 22 46  1  0
 23 47  1  0
 23 48  1  0
 26 49  1  0
 26 50  1  0
M  END
$$$$
