
     RDKit          3D

 58 62  0  0  0  0  0  0  0  0999 V2000
   -4.0710   -3.1550    0.8787 C   0  0  0  0  0  0  0  0  0  0  0  0
   -5.0289   -2.5554   -0.1434 C   0  0  0  0  0  0  0  0  0  0  0  0
   -6.0428   -1.6212    0.5653 C   0  0  0  0  0  0  0  0  0  0  0  0
   -5.5828   -0.2574    0.1573 C   0  0  0  0  0  0  0  0  0  0  0  0
   -6.0627    0.9581    0.6239 C   0  0  0  0  0  0  0  0  0  0  0  0
   -5.5880    2.1273    0.0313 C   0  0  0  0  0  0  0  0  0  0  0  0
   -4.6759    2.0624   -1.0304 C   0  0  0  0  0  0  0  0  0  0  0  0
   -4.2105    0.8285   -1.4977 C   0  0  0  0  0  0  0  0  0  0  0  0
   -4.6344   -0.3256   -0.8632 C   0  0  0  0  0  0  0  0  0  0  0  0
   -4.3580   -1.6903   -1.1674 N   0  0  0  0  0  0  0  0  0  0  0  0
   -3.0580   -2.2240   -2.0823 S   0  0  0  0  0  6  0  0  0  0  0  0
   -2.8156   -1.3243   -3.1914 O   0  0  0  0  0  0  0  0  0  0  0  0
   -3.2639   -3.6389   -2.3315 O   0  0  0  0  0  0  0  0  0  0  0  0
   -1.6254   -2.0915   -1.0235 C   0  0  0  0  0  0  0  0  0  0  0  0
   -0.9419   -3.2526   -0.6336 C   0  0  0  0  0  0  0  0  0  0  0  0
    0.1911   -3.1603    0.1773 C   0  0  0  0  0  0  0  0  0  0  0  0
    0.6591   -1.9092    0.5766 C   0  0  0  0  0  0  0  0  0  0  0  0
    0.0043   -0.7509    0.1403 C   0  0  0  0  0  0  0  0  0  0  0  0
    0.4811    0.5824    0.5666 C   0  0  0  0  0  0  0  0  0  0  0  0
   -0.3234    1.3142    1.1378 O   0  0  0  0  0  0  0  0  0  0  0  0
    1.8119    0.9258    0.3311 N   0  0  0  0  0  0  0  0  0  0  0  0
    2.2350    2.2604    0.7668 C   0  0  0  0  0  0  0  0  0  0  0  0
    3.7547    2.3654    0.9768 C   0  0  0  0  0  0  0  0  0  0  0  0
    4.4875    1.8480   -0.1906 N   0  0  0  0  0  0  0  0  0  0  0  0
    5.8726    2.0194   -0.1030 C   0  0  0  0  0  0  0  0  0  0  0  0
    6.6736    1.2292   -0.8406 N   0  0  0  0  0  0  0  0  0  0  0  0
    8.0026    1.4345   -0.7688 C   0  0  0  0  0  0  0  0  0  0  0  0
    8.5788    2.3991    0.0142 C   0  0  0  0  0  0  0  0  0  0  0  0
    7.6958    3.1578    0.7350 C   0  0  0  0  0  0  0  0  0  0  0  0
    6.3608    2.9878    0.6924 N   0  0  0  0  0  0  0  0  0  0  0  0
    4.0882    0.5010   -0.6234 C   0  0  0  0  0  0  0  0  0  0  0  0
    2.5652    0.4169   -0.8257 C   0  0  0  0  0  0  0  0  0  0  0  0
   -1.1443   -0.8351   -0.6511 C   0  0  0  0  0  0  0  0  0  0  0  0
   -3.4247   -2.3947    1.3291 H   0  0  0  0  0  0  0  0  0  0  0  0
   -3.4420   -3.9243    0.4254 H   0  0  0  0  0  0  0  0  0  0  0  0
   -4.6267   -3.6446    1.6863 H   0  0  0  0  0  0  0  0  0  0  0  0
   -5.5744   -3.3627   -0.6456 H   0  0  0  0  0  0  0  0  0  0  0  0
   -6.0519   -1.7420    1.6528 H   0  0  0  0  0  0  0  0  0  0  0  0
   -7.0524   -1.7941    0.1756 H   0  0  0  0  0  0  0  0  0  0  0  0
   -6.8021    1.0034    1.4171 H   0  0  0  0  0  0  0  0  0  0  0  0
   -5.9446    3.0948    0.3768 H   0  0  0  0  0  0  0  0  0  0  0  0
   -4.3357    2.9800   -1.5051 H   0  0  0  0  0  0  0  0  0  0  0  0
   -3.5385    0.8097   -2.3477 H   0  0  0  0  0  0  0  0  0  0  0  0
   -1.2899   -4.2346   -0.9499 H   0  0  0  0  0  0  0  0  0  0  0  0
    0.7057   -4.0634    0.4976 H   0  0  0  0  0  0  0  0  0  0  0  0
    1.5304   -1.8360    1.2232 H   0  0  0  0  0  0  0  0  0  0  0  0
    1.7217    2.5308    1.6964 H   0  0  0  0  0  0  0  0  0  0  0  0
    1.9104    2.9691   -0.0057 H   0  0  0  0  0  0  0  0  0  0  0  0
    3.9869    3.4219    1.1599 H   0  0  0  0  0  0  0  0  0  0  0  0
    4.0325    1.7918    1.8715 H   0  0  0  0  0  0  0  0  0  0  0  0
    8.6055    0.7755   -1.3859 H   0  0  0  0  0  0  0  0  0  0  0  0
    9.6470    2.5511    0.0580 H   0  0  0  0  0  0  0  0  0  0  0  0
    8.0391    3.9534    1.3890 H   0  0  0  0  0  0  0  0  0  0  0  0
    4.5583    0.2294   -1.5765 H   0  0  0  0  0  0  0  0  0  0  0  0
    4.3899   -0.2365    0.1325 H   0  0  0  0  0  0  0  0  0  0  0  0
    2.2683    1.0306   -1.6860 H   0  0  0  0  0  0  0  0  0  0  0  0
    2.2885   -0.6119   -1.0641 H   0  0  0  0  0  0  0  0  0  0  0  0
   -1.6364    0.0769   -0.9708 H   0  0  0  0  0  0  0  0  0  0  0  0
  1  2  1  0
  2  3  1  0
  3  4  1  0
  4  5  2  0
  5  6  1  0
  6  7  2  0
  7  8  1  0
  8  9  2  0
  9 10  1  0
 10 11  1  0
 11 12  2  0
 11 13  2  0
 11 14  1  0
 14 15  2  0
 15 16  1  0
 16 17  2  0
 17 18  1  0
 18 19  1  0
 19 20  2  0
 19 21  1  0
 21 22  1  0
 22 23  1  0
 23 24  1  0
 24 25  1  0
 25 26  2  0
 26 27  1  0
 27 28  2  0
 28 29  1  0
 29 30  2  0
 24 31  1  0
 31 32  1  0
 18 33  2  0
 10  2  1  0
 33 14  1  0
  9  4  1  0
 32 21  1  0
 30 25  1  0
  1 34  1  0
  1 35  1  0
  1 36  1  0
  2 37  1  0
  3 38  1  0
  3 39  1  0
  5 40  1  0
  6 41  1  0
  7 42  1  0
  8 43  1  0
 15 44  1  0
 16 45  1  0
 17 46  1  0
 22 47  1  0
 22 48  1  0
 23 49  1  0
 23 50  1  0
 27 51  1  0
 28 52  1  0
 29 53  1  0
 31 54  1  0
 31 55  1  0
 32 56  1  0
 32 57  1  0
 33 58  1  0
M  END
$$$$
