
     RDKit          3D

 61 66  0  0  0  0  0  0  0  0999 V2000
   -2.2975    0.5269   -2.2715 O   0  0  0  0  0  0  0  0  0  0  0  0
   -2.7470    0.4599   -1.1214 C   0  0  0  0  0  0  0  0  0  0  0  0
   -1.8595    0.9190    0.0196 C   0  0  0  0  0  0  0  0  0  0  0  0
   -0.6086    0.1980    0.0172 N   0  0  0  0  0  0  0  0  0  0  0  0
   -0.5592   -1.1282    0.2332 N   0  0  0  0  0  0  0  0  0  0  0  0
    0.7320   -1.4066    0.3274 N   0  0  0  0  0  0  0  0  0  0  0  0
    1.4106   -0.2136    0.2100 C   0  0  0  0  0  0  0  0  0  0  0  0
    2.8623   -0.1191    0.2773 C   0  0  0  0  0  0  0  0  0  0  0  0
    3.6428   -1.2558    0.4991 C   0  0  0  0  0  0  0  0  0  0  0  0
    5.0418   -1.1623    0.5653 C   0  0  0  0  0  0  0  0  0  0  0  0
    5.7173    0.0587    0.4154 C   0  0  0  0  0  0  0  0  0  0  0  0
    7.0952    0.1446    0.4839 N   0  0  0  0  0  0  0  0  0  0  0  0
    7.9634   -1.0297    0.3011 C   0  0  0  0  0  0  0  0  0  0  0  0
    9.3458   -0.5906   -0.2107 C   0  0  0  0  0  0  0  0  0  0  0  0
   10.0301    0.3208    0.6597 O   0  0  0  0  0  0  0  0  0  0  0  0
    9.1424    1.1433    1.4294 C   0  0  0  0  0  0  0  0  0  0  0  0
    7.7884    1.4145    0.7517 C   0  0  0  0  0  0  0  0  0  0  0  0
    4.9140    1.1874    0.1916 C   0  0  0  0  0  0  0  0  0  0  0  0
    3.5146    1.1063    0.1224 C   0  0  0  0  0  0  0  0  0  0  0  0
    0.5803    0.8339    0.0553 N   0  0  0  0  0  0  0  0  0  0  0  0
   -4.0836    0.1302   -0.8153 N   0  0  0  0  0  0  0  0  0  0  0  0
   -4.4947   -0.2034    0.5066 C   0  0  0  0  0  0  0  0  0  0  0  0
   -3.8773   -1.2611    1.1895 C   0  0  0  0  0  0  0  0  0  0  0  0
   -4.2380   -1.5577    2.5037 C   0  0  0  0  0  0  0  0  0  0  0  0
   -5.2209   -0.8052    3.1419 C   0  0  0  0  0  0  0  0  0  0  0  0
   -5.8543    0.2357    2.4629 C   0  0  0  0  0  0  0  0  0  0  0  0
   -5.4979    0.5383    1.1416 C   0  0  0  0  0  0  0  0  0  0  0  0
   -6.2014    1.6199    0.3770 C   0  0  0  0  0  0  0  0  0  0  0  0
   -7.0818    0.9891   -0.6931 C   0  0  0  0  0  0  0  0  0  0  0  0
   -6.4153    0.1552   -1.7718 C   0  0  0  0  0  0  0  0  0  0  0  0
   -7.2832   -0.2566   -2.8120 C   0  0  0  0  0  0  0  0  0  0  0  0
   -6.8222   -0.9759   -3.9104 C   0  0  0  0  0  0  0  0  0  0  0  0
   -5.4798   -1.3033   -3.9927 C   0  0  0  0  0  0  0  0  0  0  0  0
   -4.6076   -0.9176   -2.9723 C   0  0  0  0  0  0  0  0  0  0  0  0
   -5.0445   -0.1916   -1.8435 C   0  0  0  0  0  0  0  0  0  0  0  0
   -2.2851    0.8337    1.0184 H   0  0  0  0  0  0  0  0  0  0  0  0
   -1.6421    1.9816   -0.1427 H   0  0  0  0  0  0  0  0  0  0  0  0
    3.1769   -2.2307    0.6289 H   0  0  0  0  0  0  0  0  0  0  0  0
    5.5928   -2.0777    0.7629 H   0  0  0  0  0  0  0  0  0  0  0  0
    8.0686   -1.5473    1.2615 H   0  0  0  0  0  0  0  0  0  0  0  0
    7.5406   -1.7259   -0.4319 H   0  0  0  0  0  0  0  0  0  0  0  0
    9.2503   -0.1038   -1.1884 H   0  0  0  0  0  0  0  0  0  0  0  0
    9.9918   -1.4642   -0.3442 H   0  0  0  0  0  0  0  0  0  0  0  0
    9.6592    2.0879    1.6275 H   0  0  0  0  0  0  0  0  0  0  0  0
    8.9889    0.6474    2.3953 H   0  0  0  0  0  0  0  0  0  0  0  0
    7.9439    1.9415   -0.1966 H   0  0  0  0  0  0  0  0  0  0  0  0
    7.2023    2.0551    1.4202 H   0  0  0  0  0  0  0  0  0  0  0  0
    5.3638    2.1647    0.0388 H   0  0  0  0  0  0  0  0  0  0  0  0
    2.9438    2.0145   -0.0612 H   0  0  0  0  0  0  0  0  0  0  0  0
   -3.1284   -1.8792    0.6991 H   0  0  0  0  0  0  0  0  0  0  0  0
   -3.7559   -2.3813    3.0252 H   0  0  0  0  0  0  0  0  0  0  0  0
   -5.5049   -1.0395    4.1651 H   0  0  0  0  0  0  0  0  0  0  0  0
   -6.6348    0.8008    2.9679 H   0  0  0  0  0  0  0  0  0  0  0  0
   -6.8237    2.2193    1.0524 H   0  0  0  0  0  0  0  0  0  0  0  0
   -5.4720    2.3129   -0.0596 H   0  0  0  0  0  0  0  0  0  0  0  0
   -7.6210    1.8075   -1.1891 H   0  0  0  0  0  0  0  0  0  0  0  0
   -7.8379    0.3574   -0.2063 H   0  0  0  0  0  0  0  0  0  0  0  0
   -8.3409    0.0006   -2.7694 H   0  0  0  0  0  0  0  0  0  0  0  0
   -7.5089   -1.2748   -4.6976 H   0  0  0  0  0  0  0  0  0  0  0  0
   -5.1026   -1.8667   -4.8421 H   0  0  0  0  0  0  0  0  0  0  0  0
   -3.5717   -1.2371   -3.0649 H   0  0  0  0  0  0  0  0  0  0  0  0
  1  2  2  0
  2  3  1  0
  3  4  1  0
  4  5  1  0
  5  6  2  0
  6  7  1  0
  7  8  1  0
  8  9  2  0
  9 10  1  0
 10 11  2  0
 11 12  1  0
 12 13  1  0
 13 14  1  0
 14 15  1  0
 15 16  1  0
 16 17  1  0
 11 18  1  0
 18 19  2  0
  7 20  2  0
  2 21  1  0
 21 22  1  0
 22 23  2  0
 23 24  1  0
 24 25  2  0
 25 26  1  0
 26 27  2  0
 27 28  1  0
 28 29  1  0
 29 30  1  0
 30 31  2  0
 31 32  1  0
 32 33  2  0
 33 34  1  0
 34 35  2  0
 20  4  1  0
 35 21  1  0
 19  8  1  0
 27 22  1  0
 35 30  1  0
 17 12  1  0
  3 36  1  0
  3 37  1  0
  9 38  1  0
 10 39  1  0
 13 40  1  0
 13 41  1  0
 14 42  1  0
 14 43  1  0
 16 44  1  0
 16 45  1  0
 17 46  1  0
 17 47  1  0
 18 48  1  0
 19 49  1  0
 23 50  1  0
 24 51  1  0
 25 52  1  0
 26 53  1  0
 28 54  1  0
 28 55  1  0
 29 56  1  0
 29 57  1  0
 31 58  1  0
 32 59  1  0
 33 60  1  0
 34 61  1  0
M  END
$$$$
