
     RDKit          3D

 44 46  0  0  0  0  0  0  0  0999 V2000
    7.9789   -2.2433   -1.5824 C   0  0  0  0  0  0  0  0  0  0  0  0
    6.7717   -1.3885   -1.3300 C   0  0  0  0  0  0  0  0  0  0  0  0
    6.9055   -0.0050   -1.1642 C   0  0  0  0  0  0  0  0  0  0  0  0
    5.7783    0.7955   -0.9605 C   0  0  0  0  0  0  0  0  0  0  0  0
    4.5005    0.2232   -0.9303 C   0  0  0  0  0  0  0  0  0  0  0  0
    3.3332    1.1192   -0.7108 C   0  0  0  0  0  0  0  0  0  0  0  0
    3.4202    2.3281   -0.5620 O   0  0  0  0  0  0  0  0  0  0  0  0
    2.1817    0.4090   -0.6989 O   0  0  0  0  0  0  0  0  0  0  0  0
    1.0161    1.2025   -0.4954 C   0  0  0  0  0  0  0  0  0  0  0  0
   -0.2400    0.3332   -0.4952 C   0  0  0  0  0  0  0  0  0  0  0  0
   -0.2325   -0.8816   -0.6695 O   0  0  0  0  0  0  0  0  0  0  0  0
   -1.4020    1.0436   -0.2627 N   0  0  0  0  0  0  0  0  0  0  0  0
   -2.7112    0.4141   -0.3106 C   0  0  0  0  0  0  0  0  0  0  0  0
   -3.0026   -0.5717    0.8383 C   0  0  0  0  0  0  0  0  0  0  0  0
   -2.8545    0.0405    2.2299 C   0  0  0  0  0  0  0  0  0  0  0  0
   -3.7764    1.1176    2.4306 O   0  0  0  0  0  0  0  0  0  0  0  0
   -5.0446    0.7414    2.0688 C   0  0  0  0  0  0  0  0  0  0  0  0
   -6.0945    1.5152    2.5593 C   0  0  0  0  0  0  0  0  0  0  0  0
   -7.4113    1.1822    2.2381 C   0  0  0  0  0  0  0  0  0  0  0  0
   -7.6748    0.0799    1.4231 C   0  0  0  0  0  0  0  0  0  0  0  0
   -6.6214   -0.6850    0.9190 C   0  0  0  0  0  0  0  0  0  0  0  0
   -5.3059   -0.3472    1.2312 C   0  0  0  0  0  0  0  0  0  0  0  0
   -4.3241   -1.1233    0.6711 O   0  0  0  0  0  0  0  0  0  0  0  0
    4.3625   -1.1590   -1.1109 C   0  0  0  0  0  0  0  0  0  0  0  0
    5.4923   -1.9571   -1.3145 C   0  0  0  0  0  0  0  0  0  0  0  0
    8.8617   -1.8294   -1.0839 H   0  0  0  0  0  0  0  0  0  0  0  0
    8.1753   -2.3049   -2.6572 H   0  0  0  0  0  0  0  0  0  0  0  0
    7.8297   -3.2550   -1.1907 H   0  0  0  0  0  0  0  0  0  0  0  0
    7.8890    0.4596   -1.1917 H   0  0  0  0  0  0  0  0  0  0  0  0
    5.9027    1.8686   -0.8283 H   0  0  0  0  0  0  0  0  0  0  0  0
    1.0776    1.7096    0.4746 H   0  0  0  0  0  0  0  0  0  0  0  0
    0.9197    1.9350   -1.3053 H   0  0  0  0  0  0  0  0  0  0  0  0
   -1.3644    2.0544   -0.2026 H   0  0  0  0  0  0  0  0  0  0  0  0
   -2.7988   -0.1147   -1.2678 H   0  0  0  0  0  0  0  0  0  0  0  0
   -3.4521    1.2205   -0.3408 H   0  0  0  0  0  0  0  0  0  0  0  0
   -2.3105   -1.4181    0.7683 H   0  0  0  0  0  0  0  0  0  0  0  0
   -3.0315   -0.7130    3.0089 H   0  0  0  0  0  0  0  0  0  0  0  0
   -1.8442    0.4339    2.3825 H   0  0  0  0  0  0  0  0  0  0  0  0
   -5.8884    2.3683    3.1995 H   0  0  0  0  0  0  0  0  0  0  0  0
   -8.2322    1.7796    2.6268 H   0  0  0  0  0  0  0  0  0  0  0  0
   -8.7008   -0.1813    1.1764 H   0  0  0  0  0  0  0  0  0  0  0  0
   -6.8254   -1.5371    0.2764 H   0  0  0  0  0  0  0  0  0  0  0  0
    3.3823   -1.6310   -1.0994 H   0  0  0  0  0  0  0  0  0  0  0  0
    5.3651   -3.0281   -1.4605 H   0  0  0  0  0  0  0  0  0  0  0  0
  1  2  1  0
  2  3  2  0
  3  4  1  0
  4  5  2  0
  5  6  1  0
  6  7  2  0
  6  8  1  0
  8  9  1  0
  9 10  1  0
 10 11  2  0
 10 12  1  0
 12 13  1  0
 13 14  1  0
 14 15  1  0
 15 16  1  0
 16 17  1  0
 17 18  2  0
 18 19  1  0
 19 20  2  0
 20 21  1  0
 21 22  2  0
 22 23  1  0
  5 24  1  0
 24 25  2  0
 25  2  1  0
 23 14  1  0
 22 17  1  0
  1 26  1  0
  1 27  1  0
  1 28  1  0
  3 29  1  0
  4 30  1  0
  9 31  1  0
  9 32  1  0
 12 33  1  0
 13 34  1  0
 13 35  1  0
 14 36  1  0
 15 37  1  0
 15 38  1  0
 18 39  1  0
 19 40  1  0
 20 41  1  0
 21 42  1  0
 24 43  1  0
 25 44  1  0
M  END
$$$$
