
     RDKit          3D

 40 41  0  0  0  0  0  0  0  0999 V2000
    6.2749    0.6086    0.5698 C   0  0  0  0  0  0  0  0  0  0  0  0
    5.2356    0.9838    1.6119 C   0  0  0  0  0  0  0  0  0  0  0  0
    4.3611   -0.1121    1.8756 O   0  0  0  0  0  0  0  0  0  0  0  0
    3.2412   -0.2676    1.1086 C   0  0  0  0  0  0  0  0  0  0  0  0
    2.8812    0.5033    0.0014 C   0  0  0  0  0  0  0  0  0  0  0  0
    1.6999    0.2266   -0.6946 C   0  0  0  0  0  0  0  0  0  0  0  0
    0.8781   -0.8231   -0.2762 C   0  0  0  0  0  0  0  0  0  0  0  0
   -0.6153   -1.1612   -1.1769 S   0  0  0  0  0  6  0  0  0  0  0  0
   -1.2213   -2.3548   -0.6252 O   0  0  0  0  0  0  0  0  0  0  0  0
   -0.2925   -1.0687   -2.5850 O   0  0  0  0  0  0  0  0  0  0  0  0
   -1.6044    0.1698   -0.7565 N   0  0  0  0  0  0  0  0  0  0  0  0
   -1.8990    0.3243    0.6967 C   0  0  0  0  0  0  0  0  0  0  0  0
   -3.1483    1.1461    1.0054 C   0  0  0  0  0  0  0  0  0  0  0  0
   -4.4856    0.4603    0.6921 C   0  0  0  0  0  0  0  0  0  0  0  0
   -4.4249   -0.7607   -0.2218 C   0  0  0  0  0  0  0  0  0  0  0  0
   -3.8738   -0.4992   -1.6213 C   0  0  0  0  0  0  0  0  0  0  0  0
   -2.6986    0.4643   -1.7110 C   0  0  0  0  0  0  0  0  0  0  0  0
    1.2333   -1.6106    0.8185 C   0  0  0  0  0  0  0  0  0  0  0  0
    2.4140   -1.3250    1.5068 C   0  0  0  0  0  0  0  0  0  0  0  0
    5.8114    0.3767   -0.3936 H   0  0  0  0  0  0  0  0  0  0  0  0
    6.9885    1.4247    0.4249 H   0  0  0  0  0  0  0  0  0  0  0  0
    6.8232   -0.2868    0.8812 H   0  0  0  0  0  0  0  0  0  0  0  0
    4.6945    1.9006    1.3537 H   0  0  0  0  0  0  0  0  0  0  0  0
    5.7539    1.1980    2.5535 H   0  0  0  0  0  0  0  0  0  0  0  0
    3.4994    1.3195   -0.3565 H   0  0  0  0  0  0  0  0  0  0  0  0
    1.4267    0.8267   -1.5603 H   0  0  0  0  0  0  0  0  0  0  0  0
   -1.0420    0.8459    1.1401 H   0  0  0  0  0  0  0  0  0  0  0  0
   -1.9695   -0.6490    1.1935 H   0  0  0  0  0  0  0  0  0  0  0  0
   -3.1004    2.1150    0.4937 H   0  0  0  0  0  0  0  0  0  0  0  0
   -3.1431    1.3931    2.0752 H   0  0  0  0  0  0  0  0  0  0  0  0
   -5.1763    1.2018    0.2718 H   0  0  0  0  0  0  0  0  0  0  0  0
   -4.9355    0.1413    1.6414 H   0  0  0  0  0  0  0  0  0  0  0  0
   -3.8379   -1.5508    0.2611 H   0  0  0  0  0  0  0  0  0  0  0  0
   -5.4355   -1.1768   -0.3217 H   0  0  0  0  0  0  0  0  0  0  0  0
   -4.6820   -0.1004   -2.2476 H   0  0  0  0  0  0  0  0  0  0  0  0
   -3.5982   -1.4622   -2.0686 H   0  0  0  0  0  0  0  0  0  0  0  0
   -3.0360    1.4974   -1.5742 H   0  0  0  0  0  0  0  0  0  0  0  0
   -2.3041    0.4570   -2.7342 H   0  0  0  0  0  0  0  0  0  0  0  0
    0.6088   -2.4407    1.1397 H   0  0  0  0  0  0  0  0  0  0  0  0
    2.6982   -1.9349    2.3618 H   0  0  0  0  0  0  0  0  0  0  0  0
  1  2  1  0
  2  3  1  0
  3  4  1  0
  4  5  2  0
  5  6  1  0
  6  7  2  0
  7  8  1  0
  8  9  2  0
  8 10  2  0
  8 11  1  0
 11 12  1  0
 12 13  1  0
 13 14  1  0
 14 15  1  0
 15 16  1  0
 16 17  1  0
  7 18  1  0
 18 19  2  0
 19  4  1  0
 17 11  1  0
  1 20  1  0
  1 21  1  0
  1 22  1  0
  2 23  1  0
  2 24  1  0
  5 25  1  0
  6 26  1  0
 12 27  1  0
 12 28  1  0
 13 29  1  0
 13 30  1  0
 14 31  1  0
 14 32  1  0
 15 33  1  0
 15 34  1  0
 16 35  1  0
 16 36  1  0
 17 37  1  0
 17 38  1  0
 18 39  1  0
 19 40  1  0
M  END
$$$$
