
     RDKit          3D

 46 48  0  0  0  0  0  0  0  0999 V2000
   -0.4688   -1.4225   -1.4729 O   0  0  0  0  0  0  0  0  0  0  0  0
   -0.4759   -0.5575   -0.6051 C   0  0  0  0  0  0  0  0  0  0  0  0
    0.7823   -0.1495    0.1433 C   0  0  0  0  0  0  0  0  0  0  0  0
    2.0280   -0.8127   -0.4494 C   0  0  0  0  0  0  0  0  0  0  0  0
    3.2829   -0.3540    0.1858 N   0  0  0  0  0  0  0  0  0  0  0  0
    3.3488   -0.7506    1.6043 C   0  0  0  0  0  0  0  0  0  0  0  0
    4.7298   -0.7086    2.2696 C   0  0  0  0  0  0  0  0  0  0  0  0
    5.4761    0.6135    2.1222 C   0  0  0  0  0  0  0  0  0  0  0  0
    5.6099    1.1396    0.6936 C   0  0  0  0  0  0  0  0  0  0  0  0
    5.7107    0.0527   -0.3782 C   0  0  0  0  0  0  0  0  0  0  0  0
    4.4483   -0.8095   -0.5844 C   0  0  0  0  0  0  0  0  0  0  0  0
   -1.5809    0.1499   -0.1557 N   0  0  0  0  0  0  0  0  0  0  0  0
   -2.9149    0.0395   -0.6005 C   0  0  0  0  0  0  0  0  0  0  0  0
   -3.3357   -0.8410   -1.6006 C   0  0  0  0  0  0  0  0  0  0  0  0
   -4.6794   -0.8854   -1.9908 C   0  0  0  0  0  0  0  0  0  0  0  0
   -5.6098   -0.0477   -1.3851 C   0  0  0  0  0  0  0  0  0  0  0  0
   -5.2041    0.8156   -0.3661 C   0  0  0  0  0  0  0  0  0  0  0  0
   -3.8621    0.8702    0.0135 C   0  0  0  0  0  0  0  0  0  0  0  0
   -6.0670    1.6469    0.3028 O   0  0  0  0  0  0  0  0  0  0  0  0
   -7.4309    1.2689    0.0803 C   0  0  0  0  0  0  0  0  0  0  0  0
   -7.6782    0.9906   -1.3932 C   0  0  0  0  0  0  0  0  0  0  0  0
   -6.9026   -0.1299   -1.8327 O   0  0  0  0  0  0  0  0  0  0  0  0
    0.6466   -0.4373    1.1917 H   0  0  0  0  0  0  0  0  0  0  0  0
    0.8817    0.9414    0.0902 H   0  0  0  0  0  0  0  0  0  0  0  0
    1.9447   -1.9062   -0.3934 H   0  0  0  0  0  0  0  0  0  0  0  0
    2.0553   -0.5562   -1.5170 H   0  0  0  0  0  0  0  0  0  0  0  0
    2.9669   -1.7728    1.7281 H   0  0  0  0  0  0  0  0  0  0  0  0
    2.6867   -0.0910    2.1778 H   0  0  0  0  0  0  0  0  0  0  0  0
    5.3534   -1.5254    1.8853 H   0  0  0  0  0  0  0  0  0  0  0  0
    4.6057   -0.9192    3.3396 H   0  0  0  0  0  0  0  0  0  0  0  0
    4.9921    1.3820    2.7375 H   0  0  0  0  0  0  0  0  0  0  0  0
    6.4811    0.4795    2.5421 H   0  0  0  0  0  0  0  0  0  0  0  0
    6.5026    1.7757    0.6424 H   0  0  0  0  0  0  0  0  0  0  0  0
    4.7669    1.8040    0.4657 H   0  0  0  0  0  0  0  0  0  0  0  0
    5.9449    0.5485   -1.3293 H   0  0  0  0  0  0  0  0  0  0  0  0
    6.5634   -0.6014   -0.1575 H   0  0  0  0  0  0  0  0  0  0  0  0
    4.2278   -0.7674   -1.6596 H   0  0  0  0  0  0  0  0  0  0  0  0
    4.6674   -1.8657   -0.3799 H   0  0  0  0  0  0  0  0  0  0  0  0
   -1.4142    0.8329    0.5735 H   0  0  0  0  0  0  0  0  0  0  0  0
   -2.6428   -1.5072   -2.1050 H   0  0  0  0  0  0  0  0  0  0  0  0
   -4.9914   -1.5687   -2.7760 H   0  0  0  0  0  0  0  0  0  0  0  0
   -3.5738    1.5620    0.7997 H   0  0  0  0  0  0  0  0  0  0  0  0
   -8.0633    2.0946    0.4210 H   0  0  0  0  0  0  0  0  0  0  0  0
   -7.6541    0.3902    0.6982 H   0  0  0  0  0  0  0  0  0  0  0  0
   -8.7327    0.7506   -1.5614 H   0  0  0  0  0  0  0  0  0  0  0  0
   -7.4215    1.8577   -2.0143 H   0  0  0  0  0  0  0  0  0  0  0  0
  1  2  2  0
  2  3  1  0
  3  4  1  0
  4  5  1  0
  5  6  1  0
  6  7  1  0
  7  8  1  0
  8  9  1  0
  9 10  1  0
 10 11  1  0
  2 12  1  0
 12 13  1  0
 13 14  2  0
 14 15  1  0
 15 16  2  0
 16 17  1  0
 17 18  2  0
 17 19  1  0
 19 20  1  0
 20 21  1  0
 21 22  1  0
 11  5  1  0
 18 13  1  0
 22 16  1  0
  3 23  1  0
  3 24  1  0
  4 25  1  0
  4 26  1  0
  6 27  1  0
  6 28  1  0
  7 29  1  0
  7 30  1  0
  8 31  1  0
  8 32  1  0
  9 33  1  0
  9 34  1  0
 10 35  1  0
 10 36  1  0
 11 37  1  0
 11 38  1  0
 12 39  1  0
 14 40  1  0
 15 41  1  0
 18 42  1  0
 20 43  1  0
 20 44  1  0
 21 45  1  0
 21 46  1  0
M  END
$$$$
