
     RDKit          3D

 42 44  0  0  0  0  0  0  0  0999 V2000
    5.9151   -3.8369    1.7119 N   0  0  0  0  0  0  0  0  0  0  0  0
    4.8519   -3.4004    1.8741 C   0  0  0  0  0  0  0  0  0  0  0  0
    3.5460   -2.8592    2.0579 C   0  0  0  0  0  0  0  0  0  0  0  0
    2.9524   -3.0542    3.3403 C   0  0  0  0  0  0  0  0  0  0  0  0
    2.4583   -3.2119    4.3788 N   0  0  0  0  0  0  0  0  0  0  0  0
    2.9099   -2.1892    1.0652 C   0  0  0  0  0  0  0  0  0  0  0  0
    1.5544   -1.6522    1.1986 C   0  0  0  0  0  0  0  0  0  0  0  0
    1.0580   -0.7199    0.3659 C   0  0  0  0  0  0  0  0  0  0  0  0
   -0.3460   -0.3417    0.4080 C   0  0  0  0  0  0  0  0  0  0  0  0
   -0.9985    0.2385   -0.6243 C   0  0  0  0  0  0  0  0  0  0  0  0
   -2.3642    0.5967   -0.6039 N   0  0  0  0  0  0  0  0  0  0  0  0
   -3.2611    0.3309    0.5381 C   0  0  0  0  0  0  0  0  0  0  0  0
   -3.3372    1.5768    1.4202 C   0  0  0  0  0  0  0  0  0  0  0  0
   -3.8063    2.7888    0.6117 C   0  0  0  0  0  0  0  0  0  0  0  0
   -2.9847    2.9648   -0.6676 C   0  0  0  0  0  0  0  0  0  0  0  0
   -2.9182    1.6612   -1.4664 C   0  0  0  0  0  0  0  0  0  0  0  0
   -0.2374    0.4842   -1.9309 C   0  0  0  0  0  0  0  0  0  0  0  0
    1.1403   -0.1894   -2.0271 C   0  0  0  0  0  0  0  0  0  0  0  0
    1.8814   -0.0317   -0.7004 C   0  0  0  0  0  0  0  0  0  0  0  0
    3.3385   -0.5133   -0.7597 C   0  0  0  0  0  0  0  0  0  0  0  0
    3.4990   -1.9659   -0.3215 C   0  0  0  0  0  0  0  0  0  0  0  0
    0.9073   -2.0742    1.9668 H   0  0  0  0  0  0  0  0  0  0  0  0
   -0.8673   -0.5762    1.3293 H   0  0  0  0  0  0  0  0  0  0  0  0
   -2.9522   -0.5423    1.1204 H   0  0  0  0  0  0  0  0  0  0  0  0
   -4.2617    0.0863    0.1579 H   0  0  0  0  0  0  0  0  0  0  0  0
   -4.0251    1.4015    2.2546 H   0  0  0  0  0  0  0  0  0  0  0  0
   -2.3511    1.7889    1.8510 H   0  0  0  0  0  0  0  0  0  0  0  0
   -4.8624    2.6572    0.3456 H   0  0  0  0  0  0  0  0  0  0  0  0
   -3.7414    3.6945    1.2248 H   0  0  0  0  0  0  0  0  0  0  0  0
   -3.4259    3.7565   -1.2831 H   0  0  0  0  0  0  0  0  0  0  0  0
   -1.9697    3.2866   -0.4032 H   0  0  0  0  0  0  0  0  0  0  0  0
   -3.9245    1.3725   -1.7958 H   0  0  0  0  0  0  0  0  0  0  0  0
   -2.3381    1.8163   -2.3802 H   0  0  0  0  0  0  0  0  0  0  0  0
   -0.8375    0.1360   -2.7806 H   0  0  0  0  0  0  0  0  0  0  0  0
   -0.0963    1.5668   -2.0460 H   0  0  0  0  0  0  0  0  0  0  0  0
    1.0179   -1.2516   -2.2776 H   0  0  0  0  0  0  0  0  0  0  0  0
    1.7059    0.2679   -2.8475 H   0  0  0  0  0  0  0  0  0  0  0  0
    1.9214    1.0429   -0.4673 H   0  0  0  0  0  0  0  0  0  0  0  0
    3.7541   -0.3756   -1.7648 H   0  0  0  0  0  0  0  0  0  0  0  0
    3.9423    0.1168   -0.0917 H   0  0  0  0  0  0  0  0  0  0  0  0
    4.5627   -2.2198   -0.3692 H   0  0  0  0  0  0  0  0  0  0  0  0
    2.9900   -2.6269   -1.0354 H   0  0  0  0  0  0  0  0  0  0  0  0
  1  2  3  0
  2  3  1  0
  3  4  1  0
  4  5  3  0
  3  6  2  3
  6  7  1  0
  7  8  2  0
  8  9  1  0
  9 10  2  0
 10 11  1  0
 11 12  1  0
 12 13  1  0
 13 14  1  0
 14 15  1  0
 15 16  1  0
 10 17  1  0
 17 18  1  0
 18 19  1  0
 19 20  1  0
 20 21  1  0
 21  6  1  0
 19  8  1  0
 16 11  1  0
  7 22  1  0
  9 23  1  0
 12 24  1  0
 12 25  1  0
 13 26  1  0
 13 27  1  0
 14 28  1  0
 14 29  1  0
 15 30  1  0
 15 31  1  0
 16 32  1  0
 16 33  1  0
 17 34  1  0
 17 35  1  0
 18 36  1  0
 18 37  1  0
 19 38  1  0
 20 39  1  0
 20 40  1  0
 21 41  1  0
 21 42  1  0
M  END
$$$$
