
     RDKit          3D

 50 52  0  0  0  0  0  0  0  0999 V2000
   -4.5825   -1.8852   -2.7985 C   0  0  0  0  0  0  0  0  0  0  0  0
   -4.8114   -0.8688   -1.8301 O   0  0  0  0  0  0  0  0  0  0  0  0
   -3.8827   -0.7350   -0.8292 C   0  0  0  0  0  0  0  0  0  0  0  0
   -2.6620   -1.4131   -0.7794 C   0  0  0  0  0  0  0  0  0  0  0  0
   -1.7709   -1.1761    0.2755 C   0  0  0  0  0  0  0  0  0  0  0  0
   -0.4878   -1.9077    0.2861 C   0  0  0  0  0  0  0  0  0  0  0  0
   -0.5347   -3.1319    0.3154 O   0  0  0  0  0  0  0  0  0  0  0  0
    0.6957   -1.1793    0.2523 N   0  0  0  0  0  0  0  0  0  0  0  0
    1.9645   -1.9155    0.2521 C   0  0  0  0  0  0  0  0  0  0  0  0
    3.1492   -1.0993    0.8005 C   0  0  0  0  0  0  0  0  0  0  0  0
    3.2459    0.2558    0.2130 N   0  0  0  0  0  0  0  0  0  0  0  0
    4.5101    0.6477   -0.2499 C   0  0  0  0  0  0  0  0  0  0  0  0
    5.1288    1.7017    0.4455 C   0  0  0  0  0  0  0  0  0  0  0  0
    6.3812    2.1839    0.0622 C   0  0  0  0  0  0  0  0  0  0  0  0
    7.1120    3.4643    0.9494 Cl  0  0  0  0  0  0  0  0  0  0  0  0
    7.0471    1.6315   -1.0266 C   0  0  0  0  0  0  0  0  0  0  0  0
    6.4595    0.5765   -1.7273 C   0  0  0  0  0  0  0  0  0  0  0  0
    5.2027    0.0869   -1.3464 C   0  0  0  0  0  0  0  0  0  0  0  0
    4.5616   -1.2168   -2.2868 Cl  0  0  0  0  0  0  0  0  0  0  0  0
    2.1187    0.6894   -0.6316 C   0  0  0  0  0  0  0  0  0  0  0  0
    0.7812    0.2695    0.0055 C   0  0  0  0  0  0  0  0  0  0  0  0
   -2.0986   -0.3054    1.3158 C   0  0  0  0  0  0  0  0  0  0  0  0
   -3.3241    0.3508    1.2812 C   0  0  0  0  0  0  0  0  0  0  0  0
   -3.6229    1.2183    2.2987 O   0  0  0  0  0  0  0  0  0  0  0  0
   -4.4157    0.5550    3.2878 C   0  0  0  0  0  0  0  0  0  0  0  0
   -4.1972    0.1718    0.1970 C   0  0  0  0  0  0  0  0  0  0  0  0
   -5.4112    0.8166    0.1728 O   0  0  0  0  0  0  0  0  0  0  0  0
   -5.2438    2.1672   -0.2646 C   0  0  0  0  0  0  0  0  0  0  0  0
   -4.5151   -2.8684   -2.3227 H   0  0  0  0  0  0  0  0  0  0  0  0
   -5.4397   -1.9054   -3.4773 H   0  0  0  0  0  0  0  0  0  0  0  0
   -3.6871   -1.6649   -3.3908 H   0  0  0  0  0  0  0  0  0  0  0  0
   -2.3707   -2.1275   -1.5417 H   0  0  0  0  0  0  0  0  0  0  0  0
    2.1522   -2.2044   -0.7880 H   0  0  0  0  0  0  0  0  0  0  0  0
    1.8571   -2.8407    0.8273 H   0  0  0  0  0  0  0  0  0  0  0  0
    4.0769   -1.6733    0.6821 H   0  0  0  0  0  0  0  0  0  0  0  0
    3.0041   -0.9645    1.8804 H   0  0  0  0  0  0  0  0  0  0  0  0
    4.6276    2.1338    1.3060 H   0  0  0  0  0  0  0  0  0  0  0  0
    8.0224    2.0050   -1.3278 H   0  0  0  0  0  0  0  0  0  0  0  0
    6.9827    0.1425   -2.5761 H   0  0  0  0  0  0  0  0  0  0  0  0
    2.1307    1.7804   -0.7362 H   0  0  0  0  0  0  0  0  0  0  0  0
    2.1878    0.2574   -1.6364 H   0  0  0  0  0  0  0  0  0  0  0  0
   -0.0470    0.5916   -0.6356 H   0  0  0  0  0  0  0  0  0  0  0  0
    0.6717    0.7582    0.9815 H   0  0  0  0  0  0  0  0  0  0  0  0
   -1.4216   -0.1557    2.1496 H   0  0  0  0  0  0  0  0  0  0  0  0
   -3.7853   -0.1099    3.8891 H   0  0  0  0  0  0  0  0  0  0  0  0
   -5.2480   -0.0086    2.8529 H   0  0  0  0  0  0  0  0  0  0  0  0
   -4.8333    1.3192    3.9491 H   0  0  0  0  0  0  0  0  0  0  0  0
   -4.7309    2.2119   -1.2339 H   0  0  0  0  0  0  0  0  0  0  0  0
   -4.7076    2.7661    0.4803 H   0  0  0  0  0  0  0  0  0  0  0  0
   -6.2397    2.6043   -0.3890 H   0  0  0  0  0  0  0  0  0  0  0  0
  1  2  1  0
  2  3  1  0
  3  4  2  0
  4  5  1  0
  5  6  1  0
  6  7  2  0
  6  8  1  0
  8  9  1  0
  9 10  1  0
 10 11  1  0
 11 12  1  0
 12 13  2  0
 13 14  1  0
 14 15  1  0
 14 16  2  0
 16 17  1  0
 17 18  2  0
 18 19  1  0
 11 20  1  0
 20 21  1  0
  5 22  2  0
 22 23  1  0
 23 24  1  0
 24 25  1  0
 23 26  2  0
 26 27  1  0
 27 28  1  0
 26  3  1  0
 21  8  1  0
 18 12  1  0
  1 29  1  0
  1 30  1  0
  1 31  1  0
  4 32  1  0
  9 33  1  0
  9 34  1  0
 10 35  1  0
 10 36  1  0
 13 37  1  0
 16 38  1  0
 17 39  1  0
 20 40  1  0
 20 41  1  0
 21 42  1  0
 21 43  1  0
 22 44  1  0
 25 45  1  0
 25 46  1  0
 25 47  1  0
 28 48  1  0
 28 49  1  0
 28 50  1  0
M  END
$$$$
