
     RDKit          3D

 58 62  0  0  0  0  0  0  0  0999 V2000
   -7.2056    2.7336   -0.0145 C   0  0  0  0  0  0  0  0  0  0  0  0
   -6.3641    2.6521   -1.1570 O   0  0  0  0  0  0  0  0  0  0  0  0
   -5.0800    2.2292   -0.9527 C   0  0  0  0  0  0  0  0  0  0  0  0
   -4.2951    2.1701   -2.1089 C   0  0  0  0  0  0  0  0  0  0  0  0
   -2.9650    1.7482   -2.0477 C   0  0  0  0  0  0  0  0  0  0  0  0
   -2.4137    1.3650   -0.8217 C   0  0  0  0  0  0  0  0  0  0  0  0
   -0.9945    0.9173   -0.7708 C   0  0  0  0  0  0  0  0  0  0  0  0
   -0.1261    1.5359   -1.4982 N   0  0  0  0  0  0  0  0  0  0  0  0
    1.2692    1.1106   -1.4321 C   0  0  0  0  0  0  0  0  0  0  0  0
    1.8942    1.5011   -0.0932 C   0  0  0  0  0  0  0  0  0  0  0  0
    2.7988    2.3471   -0.0524 O   0  0  0  0  0  0  0  0  0  0  0  0
    1.5099    0.7889    1.0500 N   0  0  0  0  0  0  0  0  0  0  0  0
    2.3119    1.0164    2.2620 C   0  0  0  0  0  0  0  0  0  0  0  0
    3.5792    0.1573    2.2935 C   0  0  0  0  0  0  0  0  0  0  0  0
    3.8220   -0.6214    3.2121 O   0  0  0  0  0  0  0  0  0  0  0  0
    4.4451    0.3669    1.2433 N   0  0  0  0  0  0  0  0  0  0  0  0
    5.7337   -0.2783    1.2064 C   0  0  0  0  0  0  0  0  0  0  0  0
    6.2817   -0.1629   -0.1652 C   0  0  0  0  0  0  0  0  0  0  0  0
    6.0233   -0.8269   -1.3504 C   0  0  0  0  0  0  0  0  0  0  0  0
    6.8765   -0.2483   -2.3218 C   0  0  0  0  0  0  0  0  0  0  0  0
    7.5989    0.7231   -1.6710 C   0  0  0  0  0  0  0  0  0  0  0  0
    7.2438    0.7860   -0.3619 O   0  0  0  0  0  0  0  0  0  0  0  0
    0.4690   -0.1462    0.9647 C   0  0  0  0  0  0  0  0  0  0  0  0
    0.4887   -1.4604    2.0554 S   0  0  0  0  0  0  0  0  0  0  0  0
   -0.8426   -2.1929    1.3107 C   0  0  0  0  0  0  0  0  0  0  0  0
   -1.3649   -1.4280    0.2861 C   0  0  0  0  0  0  0  0  0  0  0  0
   -0.6362   -0.1855    0.1241 C   0  0  0  0  0  0  0  0  0  0  0  0
   -2.5556   -1.9008   -0.5054 C   0  0  0  0  0  0  0  0  0  0  0  0
   -2.7964   -3.4091   -0.3363 C   0  0  0  0  0  0  0  0  0  0  0  0
   -2.7238   -3.8222    1.1396 C   0  0  0  0  0  0  0  0  0  0  0  0
   -1.3366   -3.5429    1.7345 C   0  0  0  0  0  0  0  0  0  0  0  0
   -3.1878    1.4440    0.3429 C   0  0  0  0  0  0  0  0  0  0  0  0
   -4.5190    1.8715    0.2747 C   0  0  0  0  0  0  0  0  0  0  0  0
   -6.8219    3.4624    0.7062 H   0  0  0  0  0  0  0  0  0  0  0  0
   -7.3386    1.7507    0.4494 H   0  0  0  0  0  0  0  0  0  0  0  0
   -8.1882    3.0800   -0.3490 H   0  0  0  0  0  0  0  0  0  0  0  0
   -4.7225    2.4614   -3.0660 H   0  0  0  0  0  0  0  0  0  0  0  0
   -2.3655    1.7187   -2.9562 H   0  0  0  0  0  0  0  0  0  0  0  0
    1.8227    1.6335   -2.2220 H   0  0  0  0  0  0  0  0  0  0  0  0
    1.4014    0.0399   -1.6314 H   0  0  0  0  0  0  0  0  0  0  0  0
    2.6173    2.0692    2.3179 H   0  0  0  0  0  0  0  0  0  0  0  0
    1.7108    0.8236    3.1577 H   0  0  0  0  0  0  0  0  0  0  0  0
    4.3181    1.2126    0.6875 H   0  0  0  0  0  0  0  0  0  0  0  0
    6.3808    0.2104    1.9444 H   0  0  0  0  0  0  0  0  0  0  0  0
    5.6233   -1.3322    1.4941 H   0  0  0  0  0  0  0  0  0  0  0  0
    5.3077   -1.6256   -1.4838 H   0  0  0  0  0  0  0  0  0  0  0  0
    6.9574   -0.5023   -3.3684 H   0  0  0  0  0  0  0  0  0  0  0  0
    8.3608    1.4240   -1.9832 H   0  0  0  0  0  0  0  0  0  0  0  0
   -2.4189   -1.6759   -1.5677 H   0  0  0  0  0  0  0  0  0  0  0  0
   -3.4472   -1.3660   -0.1619 H   0  0  0  0  0  0  0  0  0  0  0  0
   -2.0455   -3.9713   -0.9057 H   0  0  0  0  0  0  0  0  0  0  0  0
   -3.7764   -3.6708   -0.7500 H   0  0  0  0  0  0  0  0  0  0  0  0
   -2.9584   -4.8876    1.2441 H   0  0  0  0  0  0  0  0  0  0  0  0
   -3.4841   -3.2686    1.7047 H   0  0  0  0  0  0  0  0  0  0  0  0
   -0.6322   -4.3057    1.3800 H   0  0  0  0  0  0  0  0  0  0  0  0
   -1.3859   -3.6208    2.8271 H   0  0  0  0  0  0  0  0  0  0  0  0
   -2.7663    1.1832    1.3113 H   0  0  0  0  0  0  0  0  0  0  0  0
   -5.0875    1.9185    1.1987 H   0  0  0  0  0  0  0  0  0  0  0  0
  1  2  1  0
  2  3  1  0
  3  4  2  0
  4  5  1  0
  5  6  2  0
  6  7  1  0
  7  8  2  0
  8  9  1  0
  9 10  1  0
 10 11  2  0
 10 12  1  0
 12 13  1  0
 13 14  1  0
 14 15  2  0
 14 16  1  0
 16 17  1  0
 17 18  1  0
 18 19  2  0
 19 20  1  0
 20 21  2  0
 21 22  1  0
 12 23  1  0
 23 24  1  0
 24 25  1  0
 25 26  2  0
 26 27  1  0
 26 28  1  0
 28 29  1  0
 29 30  1  0
 30 31  1  0
  6 32  1  0
 32 33  2  0
 33  3  1  0
 27  7  1  0
 22 18  1  0
 27 23  2  0
 31 25  1  0
  1 34  1  0
  1 35  1  0
  1 36  1  0
  4 37  1  0
  5 38  1  0
  9 39  1  0
  9 40  1  0
 13 41  1  0
 13 42  1  0
 16 43  1  0
 17 44  1  0
 17 45  1  0
 19 46  1  0
 20 47  1  0
 21 48  1  0
 28 49  1  0
 28 50  1  0
 29 51  1  0
 29 52  1  0
 30 53  1  0
 30 54  1  0
 31 55  1  0
 31 56  1  0
 32 57  1  0
 33 58  1  0
M  END
$$$$
