
     RDKit          3D

 50 54  0  0  0  0  0  0  0  0999 V2000
    7.0133    2.7878    0.6648 F   0  0  0  0  0  0  0  0  0  0  0  0
    5.9015    2.1900    0.2165 C   0  0  0  0  0  0  0  0  0  0  0  0
    5.9570    0.8662   -0.2012 C   0  0  0  0  0  0  0  0  0  0  0  0
    4.7986    0.2444   -0.6679 C   0  0  0  0  0  0  0  0  0  0  0  0
    3.5820    0.9462   -0.7143 C   0  0  0  0  0  0  0  0  0  0  0  0
    2.3267    0.2708   -1.2309 C   0  0  0  0  0  0  0  0  0  0  0  0
    1.9596   -0.9323   -0.4674 N   0  0  0  0  0  0  0  0  0  0  0  0
    0.8599   -1.6723   -1.1272 C   0  0  0  0  0  0  0  0  0  0  0  0
   -0.5680   -1.2365   -0.7220 C   0  0  0  0  0  0  0  0  0  0  0  0
   -0.7638   -1.2542    0.7453 N   0  0  0  0  0  0  0  0  0  0  0  0
   -1.8481   -2.0433    1.1478 C   0  0  0  0  0  0  0  0  0  0  0  0
   -1.6019   -3.2051    1.8044 N   0  0  0  0  0  0  0  0  0  0  0  0
   -2.6236   -3.9964    2.1546 C   0  0  0  0  0  0  0  0  0  0  0  0
   -3.9196   -3.7858    1.9399 N   0  0  0  0  0  0  0  0  0  0  0  0
   -4.1493   -2.6140    1.3263 C   0  0  0  0  0  0  0  0  0  0  0  0
   -5.7512   -2.1496    0.9837 S   0  0  0  0  0  0  0  0  0  0  0  0
   -5.2387   -0.6669    0.3196 C   0  0  0  0  0  0  0  0  0  0  0  0
   -3.8626   -0.5249    0.3376 C   0  0  0  0  0  0  0  0  0  0  0  0
   -3.2696    0.7197   -0.1398 C   0  0  0  0  0  0  0  0  0  0  0  0
   -3.4757    1.1457   -1.4591 C   0  0  0  0  0  0  0  0  0  0  0  0
   -2.9093    2.3403   -1.9094 C   0  0  0  0  0  0  0  0  0  0  0  0
   -2.1373    3.1163   -1.0457 C   0  0  0  0  0  0  0  0  0  0  0  0
   -1.9309    2.7009    0.2689 C   0  0  0  0  0  0  0  0  0  0  0  0
   -2.4972    1.5076    0.7222 C   0  0  0  0  0  0  0  0  0  0  0  0
   -3.2028   -1.6851    0.9124 C   0  0  0  0  0  0  0  0  0  0  0  0
    0.4715   -1.4661    1.5242 C   0  0  0  0  0  0  0  0  0  0  0  0
    1.5997   -0.5909    0.9346 C   0  0  0  0  0  0  0  0  0  0  0  0
    3.5494    2.2842   -0.2896 C   0  0  0  0  0  0  0  0  0  0  0  0
    4.7098    2.9043    0.1766 C   0  0  0  0  0  0  0  0  0  0  0  0
    6.8973    0.3265   -0.1591 H   0  0  0  0  0  0  0  0  0  0  0  0
    4.8374   -0.7950   -0.9885 H   0  0  0  0  0  0  0  0  0  0  0  0
    1.4924    0.9843   -1.2596 H   0  0  0  0  0  0  0  0  0  0  0  0
    2.5325   -0.0003   -2.2752 H   0  0  0  0  0  0  0  0  0  0  0  0
    0.9608   -1.6323   -2.2189 H   0  0  0  0  0  0  0  0  0  0  0  0
    0.9813   -2.7329   -0.8695 H   0  0  0  0  0  0  0  0  0  0  0  0
   -1.2874   -1.8794   -1.2457 H   0  0  0  0  0  0  0  0  0  0  0  0
   -0.7277   -0.2144   -1.0800 H   0  0  0  0  0  0  0  0  0  0  0  0
   -2.3625   -4.9163    2.6679 H   0  0  0  0  0  0  0  0  0  0  0  0
   -5.9760    0.0407   -0.0366 H   0  0  0  0  0  0  0  0  0  0  0  0
   -4.0711    0.5492   -2.1464 H   0  0  0  0  0  0  0  0  0  0  0  0
   -3.0722    2.6663   -2.9336 H   0  0  0  0  0  0  0  0  0  0  0  0
   -1.6990    4.0474   -1.3962 H   0  0  0  0  0  0  0  0  0  0  0  0
   -1.3301    3.3046    0.9442 H   0  0  0  0  0  0  0  0  0  0  0  0
   -2.3234    1.1922    1.7488 H   0  0  0  0  0  0  0  0  0  0  0  0
    0.7897   -2.5170    1.5175 H   0  0  0  0  0  0  0  0  0  0  0  0
    0.3024   -1.1703    2.5669 H   0  0  0  0  0  0  0  0  0  0  0  0
    2.4949   -0.6938    1.5583 H   0  0  0  0  0  0  0  0  0  0  0  0
    1.2690    0.4543    1.0084 H   0  0  0  0  0  0  0  0  0  0  0  0
    2.6199    2.8482   -0.3165 H   0  0  0  0  0  0  0  0  0  0  0  0
    4.6926    3.9371    0.5088 H   0  0  0  0  0  0  0  0  0  0  0  0
  1  2  1  0
  2  3  2  0
  3  4  1  0
  4  5  2  0
  5  6  1  0
  6  7  1  0
  7  8  1  0
  8  9  1  0
  9 10  1  0
 10 11  1  0
 11 12  2  0
 12 13  1  0
 13 14  2  0
 14 15  1  0
 15 16  1  0
 16 17  1  0
 17 18  2  0
 18 19  1  0
 19 20  2  0
 20 21  1  0
 21 22  2  0
 22 23  1  0
 23 24  2  0
 18 25  1  0
 10 26  1  0
 26 27  1  0
  5 28  1  0
 28 29  2  0
 29  2  1  0
 27  7  1  0
 25 11  1  0
 25 15  2  0
 24 19  1  0
  3 30  1  0
  4 31  1  0
  6 32  1  0
  6 33  1  0
  8 34  1  0
  8 35  1  0
  9 36  1  0
  9 37  1  0
 13 38  1  0
 17 39  1  0
 20 40  1  0
 21 41  1  0
 22 42  1  0
 23 43  1  0
 24 44  1  0
 26 45  1  0
 26 46  1  0
 27 47  1  0
 27 48  1  0
 28 49  1  0
 29 50  1  0
M  END
$$$$
