
     RDKit          3D

 39 41  0  0  0  0  0  0  0  0999 V2000
   -0.3028   -2.9674   -0.0669 O   0  0  0  0  0  0  0  0  0  0  0  0
   -0.9785   -1.9756    0.1998 C   0  0  0  0  0  0  0  0  0  0  0  0
   -2.2950   -1.6662   -0.5029 C   0  0  0  0  0  0  0  0  0  0  0  0
   -2.5626   -0.2637   -0.4175 O   0  0  0  0  0  0  0  0  0  0  0  0
   -3.8976    0.0137   -0.5502 C   0  0  0  0  0  0  0  0  0  0  0  0
   -4.5656   -0.2584   -1.7461 C   0  0  0  0  0  0  0  0  0  0  0  0
   -5.9169    0.0701   -1.8728 C   0  0  0  0  0  0  0  0  0  0  0  0
   -6.5882    0.6778   -0.8107 C   0  0  0  0  0  0  0  0  0  0  0  0
   -8.2535    1.0775   -0.9747 Cl  0  0  0  0  0  0  0  0  0  0  0  0
   -5.9222    0.9701    0.3781 C   0  0  0  0  0  0  0  0  0  0  0  0
   -4.5721    0.6442    0.5035 C   0  0  0  0  0  0  0  0  0  0  0  0
   -3.7585    1.0144    1.9809 Cl  0  0  0  0  0  0  0  0  0  0  0  0
   -0.6544   -1.0694    1.1970 N   0  0  0  0  0  0  0  0  0  0  0  0
    0.6614   -1.1272    1.6904 N   0  0  0  0  0  0  0  0  0  0  0  0
    1.6597   -0.4607    0.9977 C   0  0  0  0  0  0  0  0  0  0  0  0
    1.4824    0.2636    0.0281 O   0  0  0  0  0  0  0  0  0  0  0  0
    2.9729   -0.7414    1.6513 C   0  0  0  0  0  0  0  0  0  0  0  0
    4.1872   -0.3064    1.2854 C   0  0  0  0  0  0  0  0  0  0  0  0
    4.4933    0.5390    0.1293 C   0  0  0  0  0  0  0  0  0  0  0  0
    4.3370    0.0635   -1.1786 C   0  0  0  0  0  0  0  0  0  0  0  0
    4.6556    0.8792   -2.2676 C   0  0  0  0  0  0  0  0  0  0  0  0
    5.1403    2.1667   -2.0494 C   0  0  0  0  0  0  0  0  0  0  0  0
    5.5334    3.1714   -3.3890 Cl  0  0  0  0  0  0  0  0  0  0  0  0
    5.3129    2.6449   -0.7521 C   0  0  0  0  0  0  0  0  0  0  0  0
    4.9923    1.8301    0.3370 C   0  0  0  0  0  0  0  0  0  0  0  0
    2.7375   -1.7475    3.0460 S   0  0  0  0  0  0  0  0  0  0  0  0
    0.9961   -1.8576    2.8097 C   0  0  0  0  0  0  0  0  0  0  0  0
   -0.0170   -2.6969    3.8348 S   0  0  0  0  0  0  0  0  0  0  0  0
   -2.1933   -1.9532   -1.5548 H   0  0  0  0  0  0  0  0  0  0  0  0
   -3.0760   -2.2617   -0.0143 H   0  0  0  0  0  0  0  0  0  0  0  0
   -4.0424   -0.7049   -2.5875 H   0  0  0  0  0  0  0  0  0  0  0  0
   -6.4382   -0.1403   -2.8040 H   0  0  0  0  0  0  0  0  0  0  0  0
   -6.4505    1.4487    1.1980 H   0  0  0  0  0  0  0  0  0  0  0  0
   -1.0401   -0.1312    1.0920 H   0  0  0  0  0  0  0  0  0  0  0  0
    5.0607   -0.5725    1.8782 H   0  0  0  0  0  0  0  0  0  0  0  0
    3.9587   -0.9400   -1.3625 H   0  0  0  0  0  0  0  0  0  0  0  0
    4.5208    0.5040   -3.2785 H   0  0  0  0  0  0  0  0  0  0  0  0
    5.6928    3.6480   -0.5809 H   0  0  0  0  0  0  0  0  0  0  0  0
    5.1304    2.2152    1.3448 H   0  0  0  0  0  0  0  0  0  0  0  0
  1  2  2  0
  2  3  1  0
  3  4  1  0
  4  5  1  0
  5  6  2  0
  6  7  1  0
  7  8  2  0
  8  9  1  0
  8 10  1  0
 10 11  2  0
 11 12  1  0
  2 13  1  0
 13 14  1  0
 14 15  1  0
 15 16  2  0
 15 17  1  0
 17 18  2  3
 18 19  1  0
 19 20  2  0
 20 21  1  0
 21 22  2  0
 22 23  1  0
 22 24  1  0
 24 25  2  0
 17 26  1  0
 26 27  1  0
 27 28  2  0
 11  5  1  0
 27 14  1  0
 25 19  1  0
  3 29  1  0
  3 30  1  0
  6 31  1  0
  7 32  1  0
 10 33  1  0
 13 34  1  0
 18 35  1  0
 20 36  1  0
 21 37  1  0
 24 38  1  0
 25 39  1  0
M  END
$$$$
