
     RDKit          3D

 68 73  0  0  0  0  0  0  0  0999 V2000
   -2.9192    5.3823   -2.3165 C   0  0  0  0  0  0  0  0  0  0  0  0
   -2.2725    4.1803   -1.9189 O   0  0  0  0  0  0  0  0  0  0  0  0
   -2.5679    3.6947   -0.6741 C   0  0  0  0  0  0  0  0  0  0  0  0
   -3.5016    4.2491    0.2228 C   0  0  0  0  0  0  0  0  0  0  0  0
   -3.7260    3.6709    1.4788 C   0  0  0  0  0  0  0  0  0  0  0  0
   -3.0053    2.5412    1.7985 C   0  0  0  0  0  0  0  0  0  0  0  0
   -2.0821    1.9701    0.9206 C   0  0  0  0  0  0  0  0  0  0  0  0
   -1.8511    2.5451   -0.3195 C   0  0  0  0  0  0  0  0  0  0  0  0
   -1.4813    0.7636    1.5731 C   0  0  1  0  0  0  0  0  0  0  0  0
   -2.1726    0.7394    2.9653 C   0  0  0  0  0  0  0  0  0  0  0  0
   -1.9957   -0.0323    3.8959 O   0  0  0  0  0  0  0  0  0  0  0  0
   -3.0636    1.8181    2.9828 N   0  0  0  0  0  0  0  0  0  0  0  0
   -1.7815   -0.4436    0.7563 C   0  0  0  0  0  0  0  0  0  0  0  0
   -0.6533   -1.2782    0.7202 C   0  0  0  0  0  0  0  0  0  0  0  0
   -0.9207   -2.3603   -0.0667 C   0  0  0  0  0  0  0  0  0  0  0  0
   -0.0751   -3.3097   -0.4650 O   0  0  0  0  0  0  0  0  0  0  0  0
   -2.2760   -2.2657   -0.4502 N   0  0  0  0  0  0  0  0  0  0  0  0
   -3.0146   -3.2662   -1.1597 C   0  0  0  0  0  0  0  0  0  0  0  0
   -4.0420   -2.9089   -2.0413 C   0  0  0  0  0  0  0  0  0  0  0  0
   -4.7503   -3.8947   -2.7342 C   0  0  0  0  0  0  0  0  0  0  0  0
   -4.4468   -5.2414   -2.5443 C   0  0  0  0  0  0  0  0  0  0  0  0
   -3.4385   -5.6071   -1.6555 C   0  0  0  0  0  0  0  0  0  0  0  0
   -2.7254   -4.6259   -0.9624 C   0  0  0  0  0  0  0  0  0  0  0  0
   -2.7726   -1.0254    0.0055 C   0  0  0  0  0  0  0  0  0  0  0  0
   -4.0126   -0.6111   -0.2447 O   0  0  0  0  0  0  0  0  0  0  0  0
    0.4567   -0.6981    1.5016 C   0  0  1  0  0  0  0  0  0  0  0  0
    1.8510   -0.6910    0.8729 C   0  0  0  0  0  0  0  0  0  0  0  0
    2.7371    0.3119    1.5014 N   0  0  0  0  0  0  0  0  0  0  0  0
    4.0583    0.4518    1.1292 C   0  0  0  0  0  0  0  0  0  0  0  0
    4.8485    1.1946    1.6968 O   0  0  0  0  0  0  0  0  0  0  0  0
    4.3677   -0.3339    0.0656 O   0  0  0  0  0  0  0  0  0  0  0  0
    5.7037   -0.3420   -0.4974 C   0  0  0  0  0  0  0  0  0  0  0  0
    5.6260   -1.3380   -1.6649 C   0  0  0  0  0  0  0  0  0  0  0  0
    6.0841    1.0342   -1.0542 C   0  0  0  0  0  0  0  0  0  0  0  0
    6.7324   -0.8563    0.5156 C   0  0  0  0  0  0  0  0  0  0  0  0
    2.2307    1.0235    2.6812 C   0  0  0  0  0  0  0  0  0  0  0  0
    0.7599    1.5099    2.5459 C   0  0  0  0  0  0  0  0  0  0  0  0
   -0.0093    0.7110    1.6111 N   0  0  0  0  0  0  0  0  0  0  0  0
   -2.5519    5.6454   -3.3129 H   0  0  0  0  0  0  0  0  0  0  0  0
   -4.0026    5.2416   -2.3871 H   0  0  0  0  0  0  0  0  0  0  0  0
   -2.6702    6.2079   -1.6416 H   0  0  0  0  0  0  0  0  0  0  0  0
   -4.0682    5.1395   -0.0326 H   0  0  0  0  0  0  0  0  0  0  0  0
   -4.4402    4.1072    2.1684 H   0  0  0  0  0  0  0  0  0  0  0  0
   -1.1248    2.1132   -1.0031 H   0  0  0  0  0  0  0  0  0  0  0  0
   -3.6357    2.0363    3.7852 H   0  0  0  0  0  0  0  0  0  0  0  0
   -0.4280   -3.7169   -1.2771 H   0  0  0  0  0  0  0  0  0  0  0  0
   -4.2910   -1.8686   -2.2320 H   0  0  0  0  0  0  0  0  0  0  0  0
   -5.5401   -3.6075   -3.4239 H   0  0  0  0  0  0  0  0  0  0  0  0
   -5.0039   -6.0054   -3.0805 H   0  0  0  0  0  0  0  0  0  0  0  0
   -3.2180   -6.6587   -1.4881 H   0  0  0  0  0  0  0  0  0  0  0  0
   -1.9866   -4.9492   -0.2317 H   0  0  0  0  0  0  0  0  0  0  0  0
   -4.1112    0.2844    0.1238 H   0  0  0  0  0  0  0  0  0  0  0  0
    0.4811   -1.1650    2.4958 H   0  0  0  0  0  0  0  0  0  0  0  0
    2.3195   -1.6774    0.9733 H   0  0  0  0  0  0  0  0  0  0  0  0
    1.8059   -0.4607   -0.1993 H   0  0  0  0  0  0  0  0  0  0  0  0
    6.5872   -1.4376   -2.1803 H   0  0  0  0  0  0  0  0  0  0  0  0
    5.3189   -2.3294   -1.3116 H   0  0  0  0  0  0  0  0  0  0  0  0
    4.8720   -1.0235   -2.3961 H   0  0  0  0  0  0  0  0  0  0  0  0
    6.2287    1.7722   -0.2595 H   0  0  0  0  0  0  0  0  0  0  0  0
    7.0150    0.9876   -1.6293 H   0  0  0  0  0  0  0  0  0  0  0  0
    5.2920    1.4231   -1.7035 H   0  0  0  0  0  0  0  0  0  0  0  0
    6.8827   -0.1535    1.3403 H   0  0  0  0  0  0  0  0  0  0  0  0
    6.3984   -1.7987    0.9640 H   0  0  0  0  0  0  0  0  0  0  0  0
    7.7077   -1.0213    0.0446 H   0  0  0  0  0  0  0  0  0  0  0  0
    2.8771    1.8724    2.9286 H   0  0  0  0  0  0  0  0  0  0  0  0
    2.3003    0.3116    3.5137 H   0  0  0  0  0  0  0  0  0  0  0  0
    0.7681    2.5453    2.1860 H   0  0  0  0  0  0  0  0  0  0  0  0
    0.3192    1.5238    3.5487 H   0  0  0  0  0  0  0  0  0  0  0  0
  1  2  1  0
  2  3  1  0
  3  4  2  0
  4  5  1  0
  5  6  2  0
  6  7  1  0
  7  8  2  0
  7  9  1  0
  9 10  1  0
 10 11  2  0
 10 12  1  0
  9 13  1  0
 13 14  1  0
 14 15  2  0
 15 16  1  0
 15 17  1  0
 17 18  1  0
 18 19  2  0
 19 20  1  0
 20 21  2  0
 21 22  1  0
 22 23  2  0
 17 24  1  0
 24 25  1  0
 14 26  1  0
 26 27  1  0
 27 28  1  0
 28 29  1  0
 29 30  2  0
 29 31  1  0
 31 32  1  0
 32 33  1  0
 32 34  1  0
 32 35  1  0
 28 36  1  0
 36 37  1  0
 37 38  1  0
  8  3  1  0
  9 38  1  1
 12  6  1  0
 24 13  2  0
 38 26  1  0
 23 18  1  0
  1 39  1  0
  1 40  1  0
  1 41  1  0
  4 42  1  0
  5 43  1  0
  8 44  1  0
 12 45  1  0
 16 46  1  0
 19 47  1  0
 20 48  1  0
 21 49  1  0
 22 50  1  0
 23 51  1  0
 25 52  1  0
 26 53  1  1
 27 54  1  0
 27 55  1  0
 33 56  1  0
 33 57  1  0
 33 58  1  0
 34 59  1  0
 34 60  1  0
 34 61  1  0
 35 62  1  0
 35 63  1  0
 35 64  1  0
 36 65  1  0
 36 66  1  0
 37 67  1  0
 37 68  1  0
M  END
$$$$
