
     RDKit          3D

 54 57  0  0  0  0  0  0  0  0999 V2000
   -3.7399   -4.3389   -3.0665 C   0  0  0  0  0  0  0  0  0  0  0  0
   -4.1766   -4.0150   -1.7524 O   0  0  0  0  0  0  0  0  0  0  0  0
   -3.9185   -2.7464   -1.3118 C   0  0  0  0  0  0  0  0  0  0  0  0
   -4.3757   -2.4721   -0.0211 C   0  0  0  0  0  0  0  0  0  0  0  0
   -4.1758   -1.2143    0.5552 C   0  0  0  0  0  0  0  0  0  0  0  0
   -3.5137   -0.2070   -0.1564 C   0  0  0  0  0  0  0  0  0  0  0  0
   -3.2784    1.1122    0.4453 C   0  0  0  0  0  0  0  0  0  0  0  0
   -4.6345    2.0685    0.8649 S   0  0  0  0  0  0  0  0  0  0  0  0
   -3.6630    3.3654    1.4318 C   0  0  0  0  0  0  0  0  0  0  0  0
   -4.1169    4.5866    1.9698 C   0  0  0  0  0  0  0  0  0  0  0  0
   -3.1810    5.5336    2.3894 C   0  0  0  0  0  0  0  0  0  0  0  0
   -1.8231    5.2755    2.2805 C   0  0  0  0  0  0  0  0  0  0  0  0
   -1.3783    4.0628    1.7459 C   0  0  0  0  0  0  0  0  0  0  0  0
   -2.3026    3.0796    1.3037 C   0  0  0  0  0  0  0  0  0  0  0  0
   -2.0889    1.7699    0.7244 C   0  0  0  0  0  0  0  0  0  0  0  0
   -0.7893    1.1629    0.4499 C   0  0  0  0  0  0  0  0  0  0  0  0
    0.0482    1.7145   -0.5238 C   0  0  0  0  0  0  0  0  0  0  0  0
    1.2899    1.1318   -0.7880 C   0  0  0  0  0  0  0  0  0  0  0  0
    1.7113    0.0000   -0.0854 C   0  0  0  0  0  0  0  0  0  0  0  0
    2.9424   -0.4691   -0.4494 O   0  0  0  0  0  0  0  0  0  0  0  0
    3.4651   -1.5748    0.2890 C   0  0  0  0  0  0  0  0  0  0  0  0
    4.8634   -1.9414   -0.2477 C   0  0  0  0  0  0  0  0  0  0  0  0
    5.9020   -0.9000   -0.0976 N   0  0  0  0  0  0  0  0  0  0  0  0
    6.1943   -0.6009    1.3034 C   0  0  0  0  0  0  0  0  0  0  0  0
    7.1261   -1.3074   -0.7902 C   0  0  0  0  0  0  0  0  0  0  0  0
    0.8774   -0.5486    0.8890 C   0  0  0  0  0  0  0  0  0  0  0  0
   -0.3673    0.0324    1.1580 C   0  0  0  0  0  0  0  0  0  0  0  0
   -3.0576   -0.4866   -1.4511 C   0  0  0  0  0  0  0  0  0  0  0  0
   -3.2577   -1.7477   -2.0260 C   0  0  0  0  0  0  0  0  0  0  0  0
   -4.2323   -3.7074   -3.8135 H   0  0  0  0  0  0  0  0  0  0  0  0
   -4.0254   -5.3760   -3.2676 H   0  0  0  0  0  0  0  0  0  0  0  0
   -2.6498   -4.2722   -3.1478 H   0  0  0  0  0  0  0  0  0  0  0  0
   -4.8914   -3.2456    0.5427 H   0  0  0  0  0  0  0  0  0  0  0  0
   -4.5357   -1.0321    1.5650 H   0  0  0  0  0  0  0  0  0  0  0  0
   -5.1805    4.7893    2.0589 H   0  0  0  0  0  0  0  0  0  0  0  0
   -3.5221    6.4783    2.8064 H   0  0  0  0  0  0  0  0  0  0  0  0
   -1.0994    6.0157    2.6126 H   0  0  0  0  0  0  0  0  0  0  0  0
   -0.3096    3.8734    1.6726 H   0  0  0  0  0  0  0  0  0  0  0  0
   -0.2593    2.5930   -1.0859 H   0  0  0  0  0  0  0  0  0  0  0  0
    1.9374    1.5629   -1.5478 H   0  0  0  0  0  0  0  0  0  0  0  0
    3.5112   -1.3422    1.3586 H   0  0  0  0  0  0  0  0  0  0  0  0
    2.8134   -2.4457    0.1437 H   0  0  0  0  0  0  0  0  0  0  0  0
    4.7462   -2.1501   -1.3192 H   0  0  0  0  0  0  0  0  0  0  0  0
    5.1916   -2.8723    0.2323 H   0  0  0  0  0  0  0  0  0  0  0  0
    6.9931    0.1461    1.3792 H   0  0  0  0  0  0  0  0  0  0  0  0
    5.3266   -0.1614    1.8047 H   0  0  0  0  0  0  0  0  0  0  0  0
    6.5065   -1.4922    1.8596 H   0  0  0  0  0  0  0  0  0  0  0  0
    7.5540   -2.2235   -0.3670 H   0  0  0  0  0  0  0  0  0  0  0  0
    6.9301   -1.4773   -1.8549 H   0  0  0  0  0  0  0  0  0  0  0  0
    7.8819   -0.5157   -0.7362 H   0  0  0  0  0  0  0  0  0  0  0  0
    1.1594   -1.4289    1.4560 H   0  0  0  0  0  0  0  0  0  0  0  0
   -1.0053   -0.4075    1.9211 H   0  0  0  0  0  0  0  0  0  0  0  0
   -2.5393    0.2786   -2.0252 H   0  0  0  0  0  0  0  0  0  0  0  0
   -2.8824   -1.9127   -3.0302 H   0  0  0  0  0  0  0  0  0  0  0  0
  1  2  1  0
  2  3  1  0
  3  4  2  0
  4  5  1  0
  5  6  2  0
  6  7  1  0
  7  8  1  0
  8  9  1  0
  9 10  2  0
 10 11  1  0
 11 12  2  0
 12 13  1  0
 13 14  2  0
 14 15  1  0
 15 16  1  0
 16 17  2  0
 17 18  1  0
 18 19  2  0
 19 20  1  0
 20 21  1  0
 21 22  1  0
 22 23  1  0
 23 24  1  0
 23 25  1  0
 19 26  1  0
 26 27  2  0
  6 28  1  0
 28 29  2  0
 29  3  1  0
 15  7  2  0
 27 16  1  0
 14  9  1  0
  1 30  1  0
  1 31  1  0
  1 32  1  0
  4 33  1  0
  5 34  1  0
 10 35  1  0
 11 36  1  0
 12 37  1  0
 13 38  1  0
 17 39  1  0
 18 40  1  0
 21 41  1  0
 21 42  1  0
 22 43  1  0
 22 44  1  0
 24 45  1  0
 24 46  1  0
 24 47  1  0
 25 48  1  0
 25 49  1  0
 25 50  1  0
 26 51  1  0
 27 52  1  0
 28 53  1  0
 29 54  1  0
M  END
$$$$
