
     RDKit          3D

 28 29  0  0  0  0  0  0  0  0999 V2000
   -0.7724    0.5686   -1.1299 O   0  0  0  0  0  0  0  0  0  0  0  0
   -1.5381    0.4450   -0.1856 C   0  0  0  0  0  0  0  0  0  0  0  0
   -1.1994    0.6494    1.1170 O   0  0  0  0  0  0  0  0  0  0  0  0
    0.1930    0.9185    1.3199 C   0  0  0  0  0  0  0  0  0  0  0  0
    1.0313   -0.3337    1.0908 C   0  0  0  0  0  0  0  0  0  0  0  0
    0.6184   -1.4648    1.3448 O   0  0  0  0  0  0  0  0  0  0  0  0
    2.3597   -0.1811    0.4569 C   0  0  0  0  0  0  0  0  0  0  0  0
    2.6068   -0.9689   -0.6775 C   0  0  0  0  0  0  0  0  0  0  0  0
    3.8272   -0.8756   -1.3466 C   0  0  0  0  0  0  0  0  0  0  0  0
    4.8089   -0.0032   -0.8820 C   0  0  0  0  0  0  0  0  0  0  0  0
    4.5735    0.7708    0.2563 C   0  0  0  0  0  0  0  0  0  0  0  0
    3.3512    0.6827    0.9322 C   0  0  0  0  0  0  0  0  0  0  0  0
    3.1700    1.6259    2.3659 Cl  0  0  0  0  0  0  0  0  0  0  0  0
   -2.9753    0.0668   -0.2946 C   0  0  0  0  0  0  0  0  0  0  0  0
   -3.7264   -0.2933    0.8178 C   0  0  0  0  0  0  0  0  0  0  0  0
   -5.0384   -0.6410    0.7366 N   0  0  0  0  0  0  0  0  0  0  0  0
   -5.5651   -0.6236   -0.5086 C   0  0  0  0  0  0  0  0  0  0  0  0
   -4.8210   -0.2723   -1.6225 C   0  0  0  0  0  0  0  0  0  0  0  0
   -3.5176    0.0806   -1.5449 N   0  0  0  0  0  0  0  0  0  0  0  0
    0.5134    1.7493    0.6817 H   0  0  0  0  0  0  0  0  0  0  0  0
    0.3054    1.2204    2.3651 H   0  0  0  0  0  0  0  0  0  0  0  0
    1.8409   -1.6495   -1.0476 H   0  0  0  0  0  0  0  0  0  0  0  0
    4.0094   -1.4836   -2.2301 H   0  0  0  0  0  0  0  0  0  0  0  0
    5.7616    0.0691   -1.4019 H   0  0  0  0  0  0  0  0  0  0  0  0
    5.3555    1.4358    0.6167 H   0  0  0  0  0  0  0  0  0  0  0  0
   -3.3064   -0.3244    1.8174 H   0  0  0  0  0  0  0  0  0  0  0  0
   -6.6097   -0.9033   -0.5886 H   0  0  0  0  0  0  0  0  0  0  0  0
   -5.2567   -0.2650   -2.6155 H   0  0  0  0  0  0  0  0  0  0  0  0
  1  2  2  0
  2  3  1  0
  3  4  1  0
  4  5  1  0
  5  6  2  0
  5  7  1  0
  7  8  2  0
  8  9  1  0
  9 10  2  0
 10 11  1  0
 11 12  2  0
 12 13  1  0
  2 14  1  0
 14 15  2  0
 15 16  1  0
 16 17  2  0
 17 18  1  0
 18 19  2  0
 12  7  1  0
 19 14  1  0
  4 20  1  0
  4 21  1  0
  8 22  1  0
  9 23  1  0
 10 24  1  0
 11 25  1  0
 15 26  1  0
 17 27  1  0
 18 28  1  0
M  END
$$$$
