
     RDKit          3D

 38 40  0  0  0  0  0  0  0  0999 V2000
   -5.0420   -1.3648    1.3504 C   0  0  0  0  0  0  0  0  0  0  0  0
   -4.0079   -0.8732    0.3820 C   0  0  0  0  0  0  0  0  0  0  0  0
   -3.7580   -1.5689   -0.8059 C   0  0  0  0  0  0  0  0  0  0  0  0
   -2.7710   -1.1290   -1.6919 C   0  0  0  0  0  0  0  0  0  0  0  0
   -2.0072    0.0103   -1.4016 C   0  0  0  0  0  0  0  0  0  0  0  0
   -0.9436    0.4907   -2.3602 C   0  0  0  0  0  0  0  0  0  0  0  0
    0.3690    0.0551   -1.7938 C   0  0  0  0  0  0  0  0  0  0  0  0
    0.9097   -1.2640   -1.8058 C   0  0  0  0  0  0  0  0  0  0  0  0
    2.1397   -1.2265   -1.1900 C   0  0  0  0  0  0  0  0  0  0  0  0
    3.0214   -2.1898   -0.9496 O   0  0  0  0  0  0  0  0  0  0  0  0
    2.3821    0.0754   -0.8160 N   0  0  0  0  0  0  0  0  0  0  0  0
    3.6326    0.5447   -0.2337 C   0  0  0  0  0  0  0  0  0  0  0  0
    3.4356    0.9413    1.1820 C   0  0  0  0  0  0  0  0  0  0  0  0
    3.4847    0.2563    2.3780 C   0  0  0  0  0  0  0  0  0  0  0  0
    3.1904    1.2007    3.3902 C   0  0  0  0  0  0  0  0  0  0  0  0
    2.9788    2.3988    2.7495 C   0  0  0  0  0  0  0  0  0  0  0  0
    3.1246    2.2531    1.4069 O   0  0  0  0  0  0  0  0  0  0  0  0
    1.2999    0.8620   -1.1610 C   0  0  0  0  0  0  0  0  0  0  0  0
    1.2265    2.1662   -0.9040 O   0  0  0  0  0  0  0  0  0  0  0  0
   -2.2518    0.6965   -0.2031 C   0  0  0  0  0  0  0  0  0  0  0  0
   -3.2380    0.2558    0.6823 C   0  0  0  0  0  0  0  0  0  0  0  0
   -5.8381   -1.9091    0.8316 H   0  0  0  0  0  0  0  0  0  0  0  0
   -5.5113   -0.5272    1.8771 H   0  0  0  0  0  0  0  0  0  0  0  0
   -4.5797   -2.0317    2.0848 H   0  0  0  0  0  0  0  0  0  0  0  0
   -4.3306   -2.4605   -1.0502 H   0  0  0  0  0  0  0  0  0  0  0  0
   -2.5988   -1.6843   -2.6107 H   0  0  0  0  0  0  0  0  0  0  0  0
   -1.0004    1.5796   -2.4711 H   0  0  0  0  0  0  0  0  0  0  0  0
   -1.0902    0.0603   -3.3579 H   0  0  0  0  0  0  0  0  0  0  0  0
    0.4323   -2.1426   -2.2184 H   0  0  0  0  0  0  0  0  0  0  0  0
    2.6290   -3.0190   -1.2786 H   0  0  0  0  0  0  0  0  0  0  0  0
    4.3880   -0.2428   -0.3144 H   0  0  0  0  0  0  0  0  0  0  0  0
    3.9747    1.3899   -0.8417 H   0  0  0  0  0  0  0  0  0  0  0  0
    3.6962   -0.7978    2.4985 H   0  0  0  0  0  0  0  0  0  0  0  0
    3.1332    1.0291    4.4559 H   0  0  0  0  0  0  0  0  0  0  0  0
    2.7275    3.3944    3.0887 H   0  0  0  0  0  0  0  0  0  0  0  0
    1.8518    2.3954   -0.1902 H   0  0  0  0  0  0  0  0  0  0  0  0
   -1.6609    1.5755    0.0485 H   0  0  0  0  0  0  0  0  0  0  0  0
   -3.3981    0.8004    1.6097 H   0  0  0  0  0  0  0  0  0  0  0  0
  1  2  1  0
  2  3  2  0
  3  4  1  0
  4  5  2  0
  5  6  1  0
  6  7  1  0
  7  8  1  0
  8  9  2  0
  9 10  1  0
  9 11  1  0
 11 12  1  0
 12 13  1  0
 13 14  2  0
 14 15  1  0
 15 16  2  0
 16 17  1  0
 11 18  1  0
 18 19  1  0
  5 20  1  0
 20 21  2  0
 21  2  1  0
 18  7  2  0
 17 13  1  0
  1 22  1  0
  1 23  1  0
  1 24  1  0
  3 25  1  0
  4 26  1  0
  6 27  1  0
  6 28  1  0
  8 29  1  0
 10 30  1  0
 12 31  1  0
 12 32  1  0
 14 33  1  0
 15 34  1  0
 16 35  1  0
 19 36  1  0
 20 37  1  0
 21 38  1  0
M  END
$$$$
