
     RDKit          3D

 49 51  0  0  0  0  0  0  0  0999 V2000
    6.2259    0.4953   -1.7459 C   0  0  0  0  0  0  0  0  0  0  0  0
    5.8856    1.9016   -2.2100 C   0  0  0  0  0  0  0  0  0  0  0  0
    4.9609    2.8195   -0.9444 S   0  0  0  0  0  0  0  0  0  0  0  0
    3.3722    2.1023   -1.0747 C   0  0  0  0  0  0  0  0  0  0  0  0
    3.0319    1.4257   -2.1171 N   0  0  0  0  0  0  0  0  0  0  0  0
    1.7605    0.9001   -2.1584 C   0  0  0  0  0  0  0  0  0  0  0  0
    1.3255    0.3190   -3.1475 O   0  0  0  0  0  0  0  0  0  0  0  0
    0.8808    1.0550   -0.9589 C   0  0  0  0  0  0  0  0  0  0  0  0
    1.3098    1.8006    0.0742 C   0  0  0  0  0  0  0  0  0  0  0  0
    2.5627    2.3307   -0.0145 N   0  0  0  0  0  0  0  0  0  0  0  0
    0.5424    2.0055    1.1951 N   0  0  0  0  0  0  0  0  0  0  0  0
   -0.7357    1.7604    1.1479 C   0  0  0  0  0  0  0  0  0  0  0  0
   -1.5421    2.1049    2.3777 C   0  0  0  0  0  0  0  0  0  0  0  0
   -1.4354    1.2488   -0.0967 C   0  0  0  0  0  0  0  0  0  0  0  0
   -2.7576    0.5433    0.0577 C   0  0  0  0  0  0  0  0  0  0  0  0
   -3.6363    0.5976   -0.7945 O   0  0  0  0  0  0  0  0  0  0  0  0
   -2.8366   -0.1734    1.2067 O   0  0  0  0  0  0  0  0  0  0  0  0
   -4.0574   -0.9083    1.4251 C   0  0  0  0  0  0  0  0  0  0  0  0
   -3.9827   -2.2563    0.7182 C   0  0  0  0  0  0  0  0  0  0  0  0
   -4.2016   -1.0948    2.9306 C   0  0  0  0  0  0  0  0  0  0  0  0
   -0.4783    0.4180   -0.9717 C   0  0  0  0  0  0  0  0  0  0  0  0
   -0.3856   -1.0639   -0.6168 C   0  0  0  0  0  0  0  0  0  0  0  0
   -0.7210   -2.0247   -1.5792 C   0  0  0  0  0  0  0  0  0  0  0  0
   -0.6319   -3.3682   -1.2488 C   0  0  0  0  0  0  0  0  0  0  0  0
   -0.2373   -3.8187   -0.0402 N   0  0  0  0  0  0  0  0  0  0  0  0
    0.1007   -2.8842    0.8712 C   0  0  0  0  0  0  0  0  0  0  0  0
    0.0465   -1.5181    0.6356 C   0  0  0  0  0  0  0  0  0  0  0  0
    6.8244    0.5105   -0.8286 H   0  0  0  0  0  0  0  0  0  0  0  0
    6.8160   -0.0150   -2.5146 H   0  0  0  0  0  0  0  0  0  0  0  0
    5.3303   -0.1078   -1.5655 H   0  0  0  0  0  0  0  0  0  0  0  0
    6.8163    2.4488   -2.3939 H   0  0  0  0  0  0  0  0  0  0  0  0
    5.3394    1.8819   -3.1578 H   0  0  0  0  0  0  0  0  0  0  0  0
    2.8971    2.8465    0.7875 H   0  0  0  0  0  0  0  0  0  0  0  0
   -1.6722    1.2115    2.9934 H   0  0  0  0  0  0  0  0  0  0  0  0
   -1.0174    2.8596    2.9716 H   0  0  0  0  0  0  0  0  0  0  0  0
   -2.5171    2.5070    2.0920 H   0  0  0  0  0  0  0  0  0  0  0  0
   -1.6756    2.1793   -0.6368 H   0  0  0  0  0  0  0  0  0  0  0  0
   -4.9187   -0.3339    1.0625 H   0  0  0  0  0  0  0  0  0  0  0  0
   -4.8896   -2.8435    0.8918 H   0  0  0  0  0  0  0  0  0  0  0  0
   -3.8588   -2.1255   -0.3614 H   0  0  0  0  0  0  0  0  0  0  0  0
   -3.1209   -2.8345    1.0682 H   0  0  0  0  0  0  0  0  0  0  0  0
   -3.3395   -1.6294    3.3453 H   0  0  0  0  0  0  0  0  0  0  0  0
   -5.1119   -1.6490    3.1781 H   0  0  0  0  0  0  0  0  0  0  0  0
   -4.2380   -0.1214    3.4322 H   0  0  0  0  0  0  0  0  0  0  0  0
   -0.8854    0.4895   -1.9910 H   0  0  0  0  0  0  0  0  0  0  0  0
   -1.0380   -1.7412   -2.5791 H   0  0  0  0  0  0  0  0  0  0  0  0
   -0.8818   -4.1386   -1.9727 H   0  0  0  0  0  0  0  0  0  0  0  0
    0.4297   -3.2729    1.8308 H   0  0  0  0  0  0  0  0  0  0  0  0
    0.3454   -0.8398    1.4273 H   0  0  0  0  0  0  0  0  0  0  0  0
  1  2  1  0
  2  3  1  0
  3  4  1  0
  4  5  2  0
  5  6  1  0
  6  7  2  0
  6  8  1  0
  8  9  2  0
  9 10  1  0
  9 11  1  0
 11 12  2  0
 12 13  1  0
 12 14  1  0
 14 15  1  0
 15 16  2  0
 15 17  1  0
 17 18  1  0
 18 19  1  0
 18 20  1  0
 14 21  1  0
 21 22  1  0
 22 23  2  0
 23 24  1  0
 24 25  2  0
 25 26  1  0
 26 27  2  0
 10  4  1  0
 27 22  1  0
 21  8  1  0
  1 28  1  0
  1 29  1  0
  1 30  1  0
  2 31  1  0
  2 32  1  0
 10 33  1  0
 13 34  1  0
 13 35  1  0
 13 36  1  0
 14 37  1  0
 18 38  1  0
 19 39  1  0
 19 40  1  0
 19 41  1  0
 20 42  1  0
 20 43  1  0
 20 44  1  0
 21 45  1  0
 23 46  1  0
 24 47  1  0
 26 48  1  0
 27 49  1  0
M  END
$$$$
