
     RDKit          3D

 58 62  0  0  0  0  0  0  0  0999 V2000
   -7.6383    1.0841    1.3537 C   0  0  0  0  0  0  0  0  0  0  0  0
   -6.8546    0.6574    0.2478 O   0  0  0  0  0  0  0  0  0  0  0  0
   -5.5081    0.8859    0.3184 C   0  0  0  0  0  0  0  0  0  0  0  0
   -4.8425    1.5721    1.3355 C   0  0  0  0  0  0  0  0  0  0  0  0
   -3.4540    1.7375    1.2815 C   0  0  0  0  0  0  0  0  0  0  0  0
   -2.7254    1.1954    0.2184 C   0  0  0  0  0  0  0  0  0  0  0  0
   -1.2504    1.3781    0.1753 C   0  0  0  0  0  0  0  0  0  0  0  0
   -0.7676    2.5443    0.4406 N   0  0  0  0  0  0  0  0  0  0  0  0
    0.6760    2.7362    0.3580 C   0  0  0  0  0  0  0  0  0  0  0  0
    1.1467    2.6831   -1.0948 C   0  0  0  0  0  0  0  0  0  0  0  0
    1.5356    3.7100   -1.6594 O   0  0  0  0  0  0  0  0  0  0  0  0
    1.2280    1.4231   -1.7059 N   0  0  0  0  0  0  0  0  0  0  0  0
    1.9516    1.3813   -2.9881 C   0  0  0  0  0  0  0  0  0  0  0  0
    3.4794    1.3318   -2.8537 C   0  0  0  0  0  0  0  0  0  0  0  0
    4.2145    1.4858   -3.8296 O   0  0  0  0  0  0  0  0  0  0  0  0
    3.9634    1.0277   -1.6016 N   0  0  0  0  0  0  0  0  0  0  0  0
    5.3750    0.8985   -1.3398 C   0  0  0  0  0  0  0  0  0  0  0  0
    5.5636    0.0351   -0.1462 C   0  0  0  0  0  0  0  0  0  0  0  0
    5.9965    0.2779    1.1422 C   0  0  0  0  0  0  0  0  0  0  0  0
    5.9720   -0.9690    1.8149 C   0  0  0  0  0  0  0  0  0  0  0  0
    5.5122   -1.8882    0.9035 C   0  0  0  0  0  0  0  0  0  0  0  0
    5.2537   -1.2876   -0.2877 O   0  0  0  0  0  0  0  0  0  0  0  0
    0.6364    0.3091   -1.0941 C   0  0  0  0  0  0  0  0  0  0  0  0
    1.2556   -1.2349   -1.4917 S   0  0  0  0  0  0  0  0  0  0  0  0
    0.2483   -2.0074   -0.3767 C   0  0  0  0  0  0  0  0  0  0  0  0
   -0.5856   -1.1263    0.2834 C   0  0  0  0  0  0  0  0  0  0  0  0
   -0.4185    0.2302   -0.1948 C   0  0  0  0  0  0  0  0  0  0  0  0
   -1.5318   -1.6098    1.3496 C   0  0  0  0  0  0  0  0  0  0  0  0
   -1.1005   -2.9811    1.8985 C   0  0  0  0  0  0  0  0  0  0  0  0
   -0.8369   -3.9612    0.7491 C   0  0  0  0  0  0  0  0  0  0  0  0
    0.3294   -3.4840   -0.1337 C   0  0  0  0  0  0  0  0  0  0  0  0
   -3.3895    0.5242   -0.8120 C   0  0  0  0  0  0  0  0  0  0  0  0
   -4.7765    0.3725   -0.7557 C   0  0  0  0  0  0  0  0  0  0  0  0
   -7.5801    2.1673    1.4896 H   0  0  0  0  0  0  0  0  0  0  0  0
   -7.3485    0.5567    2.2661 H   0  0  0  0  0  0  0  0  0  0  0  0
   -8.6805    0.8342    1.1407 H   0  0  0  0  0  0  0  0  0  0  0  0
   -5.3743    2.0021    2.1760 H   0  0  0  0  0  0  0  0  0  0  0  0
   -2.9440    2.2876    2.0693 H   0  0  0  0  0  0  0  0  0  0  0  0
    1.2386    2.0291    0.9793 H   0  0  0  0  0  0  0  0  0  0  0  0
    0.9118    3.7336    0.7479 H   0  0  0  0  0  0  0  0  0  0  0  0
    1.6247    0.5191   -3.5815 H   0  0  0  0  0  0  0  0  0  0  0  0
    1.7008    2.2775   -3.5713 H   0  0  0  0  0  0  0  0  0  0  0  0
    3.3106    0.7733   -0.8719 H   0  0  0  0  0  0  0  0  0  0  0  0
    5.8916    0.4855   -2.2137 H   0  0  0  0  0  0  0  0  0  0  0  0
    5.7674    1.9055   -1.1527 H   0  0  0  0  0  0  0  0  0  0  0  0
    6.2998    1.2356    1.5442 H   0  0  0  0  0  0  0  0  0  0  0  0
    6.2566   -1.1698    2.8394 H   0  0  0  0  0  0  0  0  0  0  0  0
    5.3265   -2.9525    0.9394 H   0  0  0  0  0  0  0  0  0  0  0  0
   -2.5366   -1.7019    0.9221 H   0  0  0  0  0  0  0  0  0  0  0  0
   -1.5757   -0.8894    2.1729 H   0  0  0  0  0  0  0  0  0  0  0  0
   -1.8654   -3.3769    2.5710 H   0  0  0  0  0  0  0  0  0  0  0  0
   -0.1820   -2.8651    2.4833 H   0  0  0  0  0  0  0  0  0  0  0  0
   -0.6117   -4.9583    1.1507 H   0  0  0  0  0  0  0  0  0  0  0  0
   -1.7463   -4.0555    0.1392 H   0  0  0  0  0  0  0  0  0  0  0  0
    0.3225   -4.0370   -1.0788 H   0  0  0  0  0  0  0  0  0  0  0  0
    1.2756   -3.7074    0.3725 H   0  0  0  0  0  0  0  0  0  0  0  0
   -2.8440    0.1246   -1.6643 H   0  0  0  0  0  0  0  0  0  0  0  0
   -5.2950   -0.1499   -1.5579 H   0  0  0  0  0  0  0  0  0  0  0  0
  1  2  1  0
  2  3  1  0
  3  4  2  0
  4  5  1  0
  5  6  2  0
  6  7  1  0
  7  8  2  0
  8  9  1  0
  9 10  1  0
 10 11  2  0
 10 12  1  0
 12 13  1  0
 13 14  1  0
 14 15  2  0
 14 16  1  0
 16 17  1  0
 17 18  1  0
 18 19  2  0
 19 20  1  0
 20 21  2  0
 21 22  1  0
 12 23  1  0
 23 24  1  0
 24 25  1  0
 25 26  2  0
 26 27  1  0
 26 28  1  0
 28 29  1  0
 29 30  1  0
 30 31  1  0
  6 32  1  0
 32 33  2  0
 33  3  1  0
 27  7  1  0
 22 18  1  0
 27 23  2  0
 31 25  1  0
  1 34  1  0
  1 35  1  0
  1 36  1  0
  4 37  1  0
  5 38  1  0
  9 39  1  0
  9 40  1  0
 13 41  1  0
 13 42  1  0
 16 43  1  0
 17 44  1  0
 17 45  1  0
 19 46  1  0
 20 47  1  0
 21 48  1  0
 28 49  1  0
 28 50  1  0
 29 51  1  0
 29 52  1  0
 30 53  1  0
 30 54  1  0
 31 55  1  0
 31 56  1  0
 32 57  1  0
 33 58  1  0
M  END
$$$$
