
     RDKit          3D

 62 65  0  0  0  0  0  0  0  0999 V2000
   -7.6600   -1.2742    0.0277 C   0  0  0  0  0  0  0  0  0  0  0  0
   -7.1772   -0.9836   -1.2779 O   0  0  0  0  0  0  0  0  0  0  0  0
   -6.2899   -1.9859   -1.7671 C   0  0  0  0  0  0  0  0  0  0  0  0
   -4.8507   -1.6584   -1.4896 C   0  0  0  0  0  0  0  0  0  0  0  0
   -4.3866   -0.5133   -0.9613 C   0  0  0  0  0  0  0  0  0  0  0  0
   -2.9834   -0.2390   -0.6974 C   0  0  0  0  0  0  0  0  0  0  0  0
   -2.1193   -0.2370   -1.7408 C   0  0  0  0  0  0  0  0  0  0  0  0
   -0.7023    0.0447   -1.5105 C   0  0  0  0  0  0  0  0  0  0  0  0
    0.1673   -0.0013   -2.5293 C   0  0  0  0  0  0  0  0  0  0  0  0
    1.6132    0.2411   -2.3072 C   0  0  0  0  0  0  0  0  0  0  0  0
    2.3956   -0.1843   -3.1568 O   0  0  0  0  0  0  0  0  0  0  0  0
    2.0451    1.0161   -1.0530 C   0  0  0  0  0  0  0  0  0  0  0  0
    1.8830    2.5296   -1.2701 C   0  0  0  0  0  0  0  0  0  0  0  0
    3.3860    0.6477   -0.6690 O   0  0  0  0  0  0  0  0  0  0  0  0
    4.4417    1.0463   -1.4162 C   0  0  0  0  0  0  0  0  0  0  0  0
    4.4172    1.8348   -2.3480 O   0  0  0  0  0  0  0  0  0  0  0  0
    5.6851    0.3877   -0.9441 C   0  0  0  0  0  0  0  0  0  0  0  0
    6.8654    0.6245   -1.6246 C   0  0  0  0  0  0  0  0  0  0  0  0
    8.0430    0.0636   -1.2532 N   0  0  0  0  0  0  0  0  0  0  0  0
    8.0059   -0.7475   -0.1768 C   0  0  0  0  0  0  0  0  0  0  0  0
    9.1732   -1.3590    0.2629 C   0  0  0  0  0  0  0  0  0  0  0  0
    9.1766   -2.2044    1.3735 C   0  0  0  0  0  0  0  0  0  0  0  0
    7.9916   -2.4431    2.0577 C   0  0  0  0  0  0  0  0  0  0  0  0
    6.8119   -1.8351    1.6260 C   0  0  0  0  0  0  0  0  0  0  0  0
    6.7947   -0.9925    0.5219 C   0  0  0  0  0  0  0  0  0  0  0  0
    5.6335   -0.4281    0.1414 N   0  0  0  0  0  0  0  0  0  0  0  0
    1.1622    0.6634    0.1484 C   0  0  0  0  0  0  0  0  0  0  0  0
    1.5553    0.7195    1.3148 O   0  0  0  0  0  0  0  0  0  0  0  0
   -0.2587    0.3277   -0.1518 C   0  0  0  0  0  0  0  0  0  0  0  0
   -1.1787    0.3090    0.8283 C   0  0  0  0  0  0  0  0  0  0  0  0
   -2.5449    0.0464    0.6220 N   0  0  0  0  0  0  0  0  0  0  0  0
   -3.4437   -0.0060    1.7974 C   0  0  0  0  0  0  0  0  0  0  0  0
   -3.7273    1.3945    2.3777 C   0  0  0  0  0  0  0  0  0  0  0  0
   -4.4707    1.2614    3.7092 C   0  0  0  0  0  0  0  0  0  0  0  0
   -4.5378    2.2697    1.4212 C   0  0  0  0  0  0  0  0  0  0  0  0
   -8.2723   -2.1811    0.0124 H   0  0  0  0  0  0  0  0  0  0  0  0
   -6.8335   -1.3903    0.7354 H   0  0  0  0  0  0  0  0  0  0  0  0
   -8.2849   -0.4393    0.3560 H   0  0  0  0  0  0  0  0  0  0  0  0
   -6.5441   -2.9705   -1.3577 H   0  0  0  0  0  0  0  0  0  0  0  0
   -6.4257   -2.0386   -2.8526 H   0  0  0  0  0  0  0  0  0  0  0  0
   -4.1464   -2.4453   -1.7506 H   0  0  0  0  0  0  0  0  0  0  0  0
   -5.0792    0.2798   -0.6921 H   0  0  0  0  0  0  0  0  0  0  0  0
   -2.4583   -0.4402   -2.7523 H   0  0  0  0  0  0  0  0  0  0  0  0
   -0.1159   -0.2622   -3.5430 H   0  0  0  0  0  0  0  0  0  0  0  0
    0.8355    2.8453   -1.2015 H   0  0  0  0  0  0  0  0  0  0  0  0
    2.2292    2.8396   -2.2615 H   0  0  0  0  0  0  0  0  0  0  0  0
    2.4543    3.0961   -0.5260 H   0  0  0  0  0  0  0  0  0  0  0  0
    6.9073    1.2726   -2.4942 H   0  0  0  0  0  0  0  0  0  0  0  0
   10.1004   -1.1712   -0.2735 H   0  0  0  0  0  0  0  0  0  0  0  0
   10.1026   -2.6717    1.6991 H   0  0  0  0  0  0  0  0  0  0  0  0
    7.9802   -3.0986    2.9250 H   0  0  0  0  0  0  0  0  0  0  0  0
    5.8835   -2.0206    2.1618 H   0  0  0  0  0  0  0  0  0  0  0  0
   -0.9102    0.5078    1.8636 H   0  0  0  0  0  0  0  0  0  0  0  0
   -2.9621   -0.6264    2.5658 H   0  0  0  0  0  0  0  0  0  0  0  0
   -4.3874   -0.5159    1.5721 H   0  0  0  0  0  0  0  0  0  0  0  0
   -2.7780    1.9063    2.5780 H   0  0  0  0  0  0  0  0  0  0  0  0
   -4.6574    2.2458    4.1514 H   0  0  0  0  0  0  0  0  0  0  0  0
   -3.8818    0.6807    4.4270 H   0  0  0  0  0  0  0  0  0  0  0  0
   -5.4358    0.7602    3.5775 H   0  0  0  0  0  0  0  0  0  0  0  0
   -4.7327    3.2511    1.8670 H   0  0  0  0  0  0  0  0  0  0  0  0
   -5.5044    1.8122    1.1861 H   0  0  0  0  0  0  0  0  0  0  0  0
   -3.9992    2.4394    0.4840 H   0  0  0  0  0  0  0  0  0  0  0  0
  1  2  1  0
  2  3  1  0
  3  4  1  0
  4  5  2  3
  5  6  1  0
  6  7  2  0
  7  8  1  0
  8  9  2  0
  9 10  1  0
 10 11  2  0
 10 12  1  0
 12 13  1  0
 12 14  1  0
 14 15  1  0
 15 16  2  0
 15 17  1  0
 17 18  2  0
 18 19  1  0
 19 20  2  0
 20 21  1  0
 21 22  2  0
 22 23  1  0
 23 24  2  0
 24 25  1  0
 25 26  2  0
 12 27  1  0
 27 28  2  0
 27 29  1  0
 29 30  2  0
 30 31  1  0
 31 32  1  0
 32 33  1  0
 33 34  1  0
 33 35  1  0
 31  6  1  0
 29  8  1  0
 26 17  1  0
 25 20  1  0
  1 36  1  0
  1 37  1  0
  1 38  1  0
  3 39  1  0
  3 40  1  0
  4 41  1  0
  5 42  1  0
  7 43  1  0
  9 44  1  0
 13 45  1  0
 13 46  1  0
 13 47  1  0
 18 48  1  0
 21 49  1  0
 22 50  1  0
 23 51  1  0
 24 52  1  0
 30 53  1  0
 32 54  1  0
 32 55  1  0
 33 56  1  0
 34 57  1  0
 34 58  1  0
 34 59  1  0
 35 60  1  0
 35 61  1  0
 35 62  1  0
M  END
$$$$
