
     RDKit          3D

 48 50  0  0  0  0  0  0  0  0999 V2000
    6.9780   -1.9189   -0.6829 C   0  0  0  0  0  0  0  0  0  0  0  0
    5.7216   -2.6587   -1.1204 C   0  0  0  0  0  0  0  0  0  0  0  0
    4.4396   -2.1055   -0.5069 C   0  0  0  0  0  0  0  0  0  0  0  0
    3.9958   -0.4933   -1.1184 S   0  0  0  0  0  6  0  0  0  0  0  0
    3.7273   -0.5759   -2.5407 O   0  0  0  0  0  0  0  0  0  0  0  0
    4.8940    0.4917   -0.5547 O   0  0  0  0  0  0  0  0  0  0  0  0
    2.4214   -0.2060   -0.3526 C   0  0  0  0  0  0  0  0  0  0  0  0
    1.6430   -1.1312    0.1561 N   0  0  0  0  0  0  0  0  0  0  0  0
    0.5158   -0.5177    0.7091 C   0  0  0  0  0  0  0  0  0  0  0  0
   -0.7506   -1.4797    1.4352 S   0  0  0  0  0  6  0  0  0  0  0  0
   -0.2127   -2.8211    1.5515 O   0  0  0  0  0  0  0  0  0  0  0  0
   -1.1810   -0.7181    2.5947 O   0  0  0  0  0  0  0  0  0  0  0  0
   -2.0436   -1.4958    0.2280 C   0  0  0  0  0  0  0  0  0  0  0  0
   -3.2236   -0.7810    0.4578 C   0  0  0  0  0  0  0  0  0  0  0  0
   -4.2400   -0.8052   -0.5011 C   0  0  0  0  0  0  0  0  0  0  0  0
   -4.0831   -1.5384   -1.6862 C   0  0  0  0  0  0  0  0  0  0  0  0
   -5.1936   -1.5861   -2.6986 C   0  0  0  0  0  0  0  0  0  0  0  0
   -2.9064   -2.2743   -1.8872 C   0  0  0  0  0  0  0  0  0  0  0  0
   -1.8835   -2.2542   -0.9342 C   0  0  0  0  0  0  0  0  0  0  0  0
    0.4607    0.8699    0.6106 C   0  0  0  0  0  0  0  0  0  0  0  0
   -0.5118    1.7077    1.0792 N   0  0  0  0  0  0  0  0  0  0  0  0
   -0.3065    3.1478    1.2165 C   0  0  0  0  0  0  0  0  0  0  0  0
   -1.5326    3.8638    1.6737 C   0  0  0  0  0  0  0  0  0  0  0  0
   -2.3560    4.8038    1.0938 C   0  0  0  0  0  0  0  0  0  0  0  0
   -3.3605    5.0941    2.0491 C   0  0  0  0  0  0  0  0  0  0  0  0
   -3.0971    4.2996    3.1425 C   0  0  0  0  0  0  0  0  0  0  0  0
   -1.9919    3.5523    2.9206 O   0  0  0  0  0  0  0  0  0  0  0  0
    1.8530    1.3977   -0.2717 S   0  0  0  0  0  0  0  0  0  0  0  0
    7.0279   -1.8290    0.4103 H   0  0  0  0  0  0  0  0  0  0  0  0
    7.0233   -0.9160   -1.1158 H   0  0  0  0  0  0  0  0  0  0  0  0
    7.8692   -2.4601   -1.0197 H   0  0  0  0  0  0  0  0  0  0  0  0
    5.8219   -3.7110   -0.8106 H   0  0  0  0  0  0  0  0  0  0  0  0
    5.6578   -2.6551   -2.2134 H   0  0  0  0  0  0  0  0  0  0  0  0
    3.6151   -2.7734   -0.7551 H   0  0  0  0  0  0  0  0  0  0  0  0
    4.5221   -2.0359    0.5798 H   0  0  0  0  0  0  0  0  0  0  0  0
   -3.3645   -0.2070    1.3730 H   0  0  0  0  0  0  0  0  0  0  0  0
   -5.1621   -0.2501   -0.3156 H   0  0  0  0  0  0  0  0  0  0  0  0
   -4.7967   -1.7456   -3.7083 H   0  0  0  0  0  0  0  0  0  0  0  0
   -5.7506   -0.6407   -2.7130 H   0  0  0  0  0  0  0  0  0  0  0  0
   -5.8858   -2.4001   -2.4545 H   0  0  0  0  0  0  0  0  0  0  0  0
   -2.7839   -2.8738   -2.7838 H   0  0  0  0  0  0  0  0  0  0  0  0
   -0.9757   -2.8331   -1.1025 H   0  0  0  0  0  0  0  0  0  0  0  0
   -1.0935    1.3610    1.8526 H   0  0  0  0  0  0  0  0  0  0  0  0
    0.4980    3.3385    1.9396 H   0  0  0  0  0  0  0  0  0  0  0  0
   -0.0007    3.5825    0.2531 H   0  0  0  0  0  0  0  0  0  0  0  0
   -2.2424    5.2278    0.0999 H   0  0  0  0  0  0  0  0  0  0  0  0
   -4.1796    5.7894    1.9537 H   0  0  0  0  0  0  0  0  0  0  0  0
   -3.5756    4.1642    4.1051 H   0  0  0  0  0  0  0  0  0  0  0  0
  1  2  1  0
  2  3  1  0
  3  4  1  0
  4  5  2  0
  4  6  2  0
  4  7  1  0
  7  8  2  0
  8  9  1  0
  9 10  1  0
 10 11  2  0
 10 12  2  0
 10 13  1  0
 13 14  2  0
 14 15  1  0
 15 16  2  0
 16 17  1  0
 16 18  1  0
 18 19  2  0
  9 20  2  0
 20 21  1  0
 21 22  1  0
 22 23  1  0
 23 24  2  0
 24 25  1  0
 25 26  2  0
 26 27  1  0
 20 28  1  0
 28  7  1  0
 19 13  1  0
 27 23  1  0
  1 29  1  0
  1 30  1  0
  1 31  1  0
  2 32  1  0
  2 33  1  0
  3 34  1  0
  3 35  1  0
 14 36  1  0
 15 37  1  0
 17 38  1  0
 17 39  1  0
 17 40  1  0
 18 41  1  0
 19 42  1  0
 21 43  1  0
 22 44  1  0
 22 45  1  0
 24 46  1  0
 25 47  1  0
 26 48  1  0
M  END
$$$$
