
     RDKit          3D

 41 44  0  0  0  0  0  0  0  0999 V2000
   -0.3330   -1.2979   -0.4097 O   0  0  0  0  0  0  0  0  0  0  0  0
   -0.4441   -0.2863    0.2653 C   0  0  0  0  0  0  0  0  0  0  0  0
   -0.9344   -0.3612    1.5220 O   0  0  0  0  0  0  0  0  0  0  0  0
   -0.1983    1.1362   -0.2071 C   0  0  0  0  0  0  0  0  0  0  0  0
    0.7842    1.8712    0.7144 C   0  0  0  0  0  0  0  0  0  0  0  0
    2.1566    1.2694    0.7077 C   0  0  0  0  0  0  0  0  0  0  0  0
    3.1084    1.4215   -0.2819 C   0  0  0  0  0  0  0  0  0  0  0  0
    4.2193    0.7062    0.0749 N   0  0  0  0  0  0  0  0  0  0  0  0
    4.0170    0.0865    1.2854 C   0  0  0  0  0  0  0  0  0  0  0  0
    4.8694   -0.7399    2.0275 C   0  0  0  0  0  0  0  0  0  0  0  0
    4.3955   -1.2325    3.2466 C   0  0  0  0  0  0  0  0  0  0  0  0
    3.1208   -0.9085    3.7036 C   0  0  0  0  0  0  0  0  0  0  0  0
    2.2815   -0.0813    2.9484 C   0  0  0  0  0  0  0  0  0  0  0  0
    2.7335    0.4272    1.7128 C   0  0  0  0  0  0  0  0  0  0  0  0
   -1.4865    1.8808   -0.2288 N   0  0  0  0  0  0  0  0  0  0  0  0
   -2.3608    1.9305   -1.6608 S   0  0  0  0  0  6  0  0  0  0  0  0
   -3.5404    2.7297   -1.4230 O   0  0  0  0  0  0  0  0  0  0  0  0
   -1.4277    2.2694   -2.7143 O   0  0  0  0  0  0  0  0  0  0  0  0
   -2.8918    0.2828   -1.9267 C   0  0  0  0  0  0  0  0  0  0  0  0
   -2.6122   -0.3836   -3.1388 C   0  0  0  0  0  0  0  0  0  0  0  0
   -3.0294   -1.7102   -3.3962 C   0  0  0  0  0  0  0  0  0  0  0  0
   -3.7587   -2.4770   -2.4708 C   0  0  0  0  0  0  0  0  0  0  0  0
   -4.0633   -1.8507   -1.2381 C   0  0  0  0  0  0  0  0  0  0  0  0
   -4.7431   -2.4074   -0.2246 N   0  0  0  0  0  0  0  0  0  0  0  0
   -4.8413   -1.2591    0.9677 S   0  0  0  0  0  0  0  0  0  0  0  0
   -3.9769   -0.0223    0.2760 N   0  0  0  0  0  0  0  0  0  0  0  0
   -3.6202   -0.4357   -0.9529 C   0  0  0  0  0  0  0  0  0  0  0  0
   -1.0638   -1.3232    1.6671 H   0  0  0  0  0  0  0  0  0  0  0  0
    0.2329    1.0857   -1.2133 H   0  0  0  0  0  0  0  0  0  0  0  0
    0.8643    2.9190    0.3938 H   0  0  0  0  0  0  0  0  0  0  0  0
    0.3981    1.9079    1.7410 H   0  0  0  0  0  0  0  0  0  0  0  0
    3.0892    1.9775   -1.2107 H   0  0  0  0  0  0  0  0  0  0  0  0
    5.0696    0.6398   -0.4673 H   0  0  0  0  0  0  0  0  0  0  0  0
    5.8645   -0.9918    1.6758 H   0  0  0  0  0  0  0  0  0  0  0  0
    5.0344   -1.8757    3.8476 H   0  0  0  0  0  0  0  0  0  0  0  0
    2.7740   -1.2982    4.6574 H   0  0  0  0  0  0  0  0  0  0  0  0
    1.2920    0.1676    3.3203 H   0  0  0  0  0  0  0  0  0  0  0  0
   -2.0857    1.7498    0.5925 H   0  0  0  0  0  0  0  0  0  0  0  0
   -2.0514    0.1367   -3.9179 H   0  0  0  0  0  0  0  0  0  0  0  0
   -2.7721   -2.1596   -4.3566 H   0  0  0  0  0  0  0  0  0  0  0  0
   -4.0700   -3.4934   -2.6819 H   0  0  0  0  0  0  0  0  0  0  0  0
  1  2  2  0
  2  3  1  0
  2  4  1  0
  4  5  1  0
  5  6  1  0
  6  7  2  0
  7  8  1  0
  8  9  1  0
  9 10  2  0
 10 11  1  0
 11 12  2  0
 12 13  1  0
 13 14  2  0
  4 15  1  0
 15 16  1  0
 16 17  2  0
 16 18  2  0
 16 19  1  0
 19 20  2  0
 20 21  1  0
 21 22  2  0
 22 23  1  0
 23 24  2  0
 24 25  1  0
 25 26  1  0
 26 27  2  0
 14  6  1  0
 27 19  1  0
 14  9  1  0
 27 23  1  0
  3 28  1  0
  4 29  1  0
  5 30  1  0
  5 31  1  0
  7 32  1  0
  8 33  1  0
 10 34  1  0
 11 35  1  0
 12 36  1  0
 13 37  1  0
 15 38  1  0
 20 39  1  0
 21 40  1  0
 22 41  1  0
M  END
$$$$
