
     RDKit          3D

 49 52  0  0  0  0  0  0  0  0999 V2000
   -3.7290   -5.2389   -0.9322 C   0  0  0  0  0  0  0  0  0  0  0  0
   -2.9373   -4.2972   -1.6451 O   0  0  0  0  0  0  0  0  0  0  0  0
   -2.5050   -3.2030   -0.9476 C   0  0  0  0  0  0  0  0  0  0  0  0
   -1.7290   -2.3083   -1.6859 C   0  0  0  0  0  0  0  0  0  0  0  0
   -1.2234   -1.1455   -1.0976 C   0  0  0  0  0  0  0  0  0  0  0  0
   -1.4812   -0.8563    0.2506 C   0  0  0  0  0  0  0  0  0  0  0  0
   -0.9540    0.4204    0.9125 C   0  0  0  0  0  0  0  0  0  0  0  0
    0.5032    0.5393    0.6872 N   0  0  0  0  0  0  0  0  0  0  0  0
    0.9050    1.4342   -0.1477 C   0  0  0  0  0  0  0  0  0  0  0  0
    2.2041    1.6559   -0.5302 N   0  0  0  0  0  0  0  0  0  0  0  0
    3.3438    0.8734   -0.2523 C   0  0  0  0  0  0  0  0  0  0  0  0
    3.2871   -0.4640    0.1512 C   0  0  0  0  0  0  0  0  0  0  0  0
    4.4538   -1.2005    0.3911 C   0  0  0  0  0  0  0  0  0  0  0  0
    5.7117   -0.6199    0.2136 C   0  0  0  0  0  0  0  0  0  0  0  0
    6.9587   -1.3995    0.5050 C   0  0  0  0  0  0  0  0  0  0  0  0
    5.7833    0.7154   -0.1879 C   0  0  0  0  0  0  0  0  0  0  0  0
    4.6141    1.4468   -0.4267 C   0  0  0  0  0  0  0  0  0  0  0  0
    0.0347    2.2937   -0.7406 N   0  0  0  0  0  0  0  0  0  0  0  0
   -1.2672    2.4553   -0.4004 C   0  0  0  0  0  0  0  0  0  0  0  0
   -1.9622    3.4246   -0.9158 N   0  0  0  0  0  0  0  0  0  0  0  0
   -3.2571    3.5744   -0.4885 C   0  0  0  0  0  0  0  0  0  0  0  0
   -4.0265    4.6853   -1.1438 C   0  0  0  0  0  0  0  0  0  0  0  0
   -3.8152    2.8101    0.4572 C   0  0  0  0  0  0  0  0  0  0  0  0
   -3.0166    1.7273    1.0536 C   0  0  0  0  0  0  0  0  0  0  0  0
   -3.5056    1.0511    1.9544 O   0  0  0  0  0  0  0  0  0  0  0  0
   -1.7543    1.5761    0.5306 N   0  0  0  0  0  0  0  0  0  0  0  0
   -2.2656   -1.7609    0.9837 C   0  0  0  0  0  0  0  0  0  0  0  0
   -2.7729   -2.9238    0.3913 C   0  0  0  0  0  0  0  0  0  0  0  0
   -3.1677   -5.6782   -0.1008 H   0  0  0  0  0  0  0  0  0  0  0  0
   -3.9882   -6.0477   -1.6222 H   0  0  0  0  0  0  0  0  0  0  0  0
   -4.6634   -4.7863   -0.5843 H   0  0  0  0  0  0  0  0  0  0  0  0
   -1.5145   -2.5184   -2.7308 H   0  0  0  0  0  0  0  0  0  0  0  0
   -0.6206   -0.4734   -1.7021 H   0  0  0  0  0  0  0  0  0  0  0  0
   -1.0716    0.3072    1.9983 H   0  0  0  0  0  0  0  0  0  0  0  0
    2.4332    2.5968   -0.8148 H   0  0  0  0  0  0  0  0  0  0  0  0
    2.3339   -0.9697    0.2804 H   0  0  0  0  0  0  0  0  0  0  0  0
    4.3646   -2.2354    0.7145 H   0  0  0  0  0  0  0  0  0  0  0  0
    7.7891   -1.0566   -0.1212 H   0  0  0  0  0  0  0  0  0  0  0  0
    6.8120   -2.4641    0.2946 H   0  0  0  0  0  0  0  0  0  0  0  0
    7.2367   -1.2815    1.5568 H   0  0  0  0  0  0  0  0  0  0  0  0
    6.7491    1.1976   -0.3198 H   0  0  0  0  0  0  0  0  0  0  0  0
    4.7139    2.4813   -0.7450 H   0  0  0  0  0  0  0  0  0  0  0  0
    0.3681    2.9488   -1.4292 H   0  0  0  0  0  0  0  0  0  0  0  0
   -3.5274    5.6448   -0.9727 H   0  0  0  0  0  0  0  0  0  0  0  0
   -5.0479    4.7655   -0.7569 H   0  0  0  0  0  0  0  0  0  0  0  0
   -4.0901    4.5159   -2.2239 H   0  0  0  0  0  0  0  0  0  0  0  0
   -4.8303    2.9294    0.8095 H   0  0  0  0  0  0  0  0  0  0  0  0
   -2.5003   -1.5580    2.0279 H   0  0  0  0  0  0  0  0  0  0  0  0
   -3.3759   -3.5836    1.0056 H   0  0  0  0  0  0  0  0  0  0  0  0
  1  2  1  0
  2  3  1  0
  3  4  2  0
  4  5  1  0
  5  6  2  0
  6  7  1  0
  7  8  1  0
  8  9  2  0
  9 10  1  0
 10 11  1  0
 11 12  2  0
 12 13  1  0
 13 14  2  0
 14 15  1  0
 14 16  1  0
 16 17  2  0
  9 18  1  0
 18 19  1  0
 19 20  2  0
 20 21  1  0
 21 22  1  0
 21 23  2  0
 23 24  1  0
 24 25  2  0
 24 26  1  0
  6 27  1  0
 27 28  2  0
 28  3  1  0
 26  7  1  0
 17 11  1  0
 26 19  1  0
  1 29  1  0
  1 30  1  0
  1 31  1  0
  4 32  1  0
  5 33  1  0
  7 34  1  0
 10 35  1  0
 12 36  1  0
 13 37  1  0
 15 38  1  0
 15 39  1  0
 15 40  1  0
 16 41  1  0
 17 42  1  0
 18 43  1  0
 22 44  1  0
 22 45  1  0
 22 46  1  0
 23 47  1  0
 27 48  1  0
 28 49  1  0
M  END
$$$$
