
     RDKit          3D

 68 70  0  0  0  0  0  0  0  0999 V2000
    4.9714    1.6914    1.8278 C   0  0  0  0  0  0  0  0  0  0  0  0
    5.8463    1.6931    0.5856 C   0  0  0  0  0  0  0  0  0  0  0  0
    5.0880    1.7908   -0.6855 N   0  0  0  0  0  0  0  0  0  0  0  0
    4.1022    2.8912   -0.8106 C   0  0  0  0  0  0  0  0  0  0  0  0
    4.7926    4.2453   -0.7835 C   0  0  0  0  0  0  0  0  0  0  0  0
    4.7926    0.3558   -1.5522 S   0  0  0  0  0  6  0  0  0  0  0  0
    5.9841   -0.4647   -1.4737 O   0  0  0  0  0  0  0  0  0  0  0  0
    4.2108    0.6848   -2.8353 O   0  0  0  0  0  0  0  0  0  0  0  0
    3.5304   -0.4596   -0.5986 C   0  0  0  0  0  0  0  0  0  0  0  0
    3.8364   -1.6211    0.1156 C   0  0  0  0  0  0  0  0  0  0  0  0
    2.8357   -2.2717    0.8401 C   0  0  0  0  0  0  0  0  0  0  0  0
    1.5299   -1.7613    0.8678 C   0  0  0  0  0  0  0  0  0  0  0  0
    0.4763   -2.3940    1.5681 N   0  0  0  0  0  0  0  0  0  0  0  0
    0.7484   -2.6661    2.9975 C   0  0  0  0  0  0  0  0  0  0  0  0
   -0.3932   -3.5169    3.5756 C   0  0  0  0  0  0  0  0  0  0  0  0
   -0.5464   -4.7929    2.9348 O   0  0  0  0  0  0  0  0  0  0  0  0
    0.0510   -4.8571    1.6320 C   0  0  0  0  0  0  0  0  0  0  0  0
   -0.0926   -3.5530    0.8327 C   0  0  0  0  0  0  0  0  0  0  0  0
    1.2392   -0.5811    0.1356 C   0  0  0  0  0  0  0  0  0  0  0  0
   -0.0911   -0.1201    0.2174 N   0  0  0  0  0  0  0  0  0  0  0  0
   -0.6052    1.0741   -0.2353 C   0  0  0  0  0  0  0  0  0  0  0  0
    0.0343    1.9913   -0.7439 O   0  0  0  0  0  0  0  0  0  0  0  0
   -2.1107    1.1692   -0.0697 C   0  0  0  0  0  0  0  0  0  0  0  0
   -2.7855    1.0785   -1.4380 C   0  0  0  0  0  0  0  0  0  0  0  0
   -4.3195    1.1732   -1.3675 C   0  0  0  0  0  0  0  0  0  0  0  0
   -4.9146    1.2926   -2.7756 C   0  0  0  0  0  0  0  0  0  0  0  0
   -6.4281    1.5151   -2.7446 C   0  0  0  0  0  0  0  0  0  0  0  0
   -7.1147    0.8859   -1.5326 C   0  0  0  0  0  0  0  0  0  0  0  0
   -6.3714   -0.3473   -1.0406 C   0  0  0  0  0  0  0  0  0  0  0  0
   -4.9377   -0.0203   -0.6130 C   0  0  0  0  0  0  0  0  0  0  0  0
    2.2302    0.0500   -0.6133 C   0  0  0  0  0  0  0  0  0  0  0  0
    4.4872    2.6613    1.9784 H   0  0  0  0  0  0  0  0  0  0  0  0
    4.1898    0.9286    1.7810 H   0  0  0  0  0  0  0  0  0  0  0  0
    5.5837    1.4946    2.7142 H   0  0  0  0  0  0  0  0  0  0  0  0
    6.4664    0.7909    0.5888 H   0  0  0  0  0  0  0  0  0  0  0  0
    6.5542    2.5275    0.6335 H   0  0  0  0  0  0  0  0  0  0  0  0
    3.3469    2.8317   -0.0221 H   0  0  0  0  0  0  0  0  0  0  0  0
    3.5689    2.8192   -1.7640 H   0  0  0  0  0  0  0  0  0  0  0  0
    5.5611    4.3090   -1.5616 H   0  0  0  0  0  0  0  0  0  0  0  0
    4.0624    5.0428   -0.9584 H   0  0  0  0  0  0  0  0  0  0  0  0
    5.2700    4.4394    0.1820 H   0  0  0  0  0  0  0  0  0  0  0  0
    4.8443   -2.0324    0.1035 H   0  0  0  0  0  0  0  0  0  0  0  0
    3.0873   -3.1865    1.3670 H   0  0  0  0  0  0  0  0  0  0  0  0
    0.8141   -1.7182    3.5430 H   0  0  0  0  0  0  0  0  0  0  0  0
    1.6929   -3.2060    3.1338 H   0  0  0  0  0  0  0  0  0  0  0  0
   -0.2232   -3.7016    4.6404 H   0  0  0  0  0  0  0  0  0  0  0  0
   -1.3461   -2.9847    3.4812 H   0  0  0  0  0  0  0  0  0  0  0  0
   -0.4290   -5.6786    1.0920 H   0  0  0  0  0  0  0  0  0  0  0  0
    1.1065   -5.1231    1.7544 H   0  0  0  0  0  0  0  0  0  0  0  0
   -1.1590   -3.3421    0.6861 H   0  0  0  0  0  0  0  0  0  0  0  0
    0.3526   -3.6765   -0.1625 H   0  0  0  0  0  0  0  0  0  0  0  0
   -0.6798   -0.7389    0.7688 H   0  0  0  0  0  0  0  0  0  0  0  0
   -2.4705    0.3790    0.5975 H   0  0  0  0  0  0  0  0  0  0  0  0
   -2.3364    2.1249    0.4160 H   0  0  0  0  0  0  0  0  0  0  0  0
   -2.4052    1.8920   -2.0692 H   0  0  0  0  0  0  0  0  0  0  0  0
   -2.4894    0.1459   -1.9357 H   0  0  0  0  0  0  0  0  0  0  0  0
   -4.5749    2.0925   -0.8225 H   0  0  0  0  0  0  0  0  0  0  0  0
   -4.6939    0.3797   -3.3427 H   0  0  0  0  0  0  0  0  0  0  0  0
   -4.4462    2.1174   -3.3254 H   0  0  0  0  0  0  0  0  0  0  0  0
   -6.8590    1.1144   -3.6691 H   0  0  0  0  0  0  0  0  0  0  0  0
   -6.6447    2.5898   -2.7526 H   0  0  0  0  0  0  0  0  0  0  0  0
   -7.1669    1.6219   -0.7206 H   0  0  0  0  0  0  0  0  0  0  0  0
   -8.1491    0.6312   -1.7881 H   0  0  0  0  0  0  0  0  0  0  0  0
   -6.3473   -1.0952   -1.8433 H   0  0  0  0  0  0  0  0  0  0  0  0
   -6.9099   -0.8078   -0.2044 H   0  0  0  0  0  0  0  0  0  0  0  0
   -4.3272   -0.9231   -0.7398 H   0  0  0  0  0  0  0  0  0  0  0  0
   -4.9284    0.2036    0.4606 H   0  0  0  0  0  0  0  0  0  0  0  0
    2.0085    0.9221   -1.2194 H   0  0  0  0  0  0  0  0  0  0  0  0
  1  2  1  0
  2  3  1  0
  3  4  1  0
  4  5  1  0
  3  6  1  0
  6  7  2  0
  6  8  2  0
  6  9  1  0
  9 10  2  0
 10 11  1  0
 11 12  2  0
 12 13  1  0
 13 14  1  0
 14 15  1  0
 15 16  1  0
 16 17  1  0
 17 18  1  0
 12 19  1  0
 19 20  1  0
 20 21  1  0
 21 22  2  0
 21 23  1  0
 23 24  1  0
 24 25  1  0
 25 26  1  0
 26 27  1  0
 27 28  1  0
 28 29  1  0
 29 30  1  0
 19 31  2  0
 31  9  1  0
 18 13  1  0
 30 25  1  0
  1 32  1  0
  1 33  1  0
  1 34  1  0
  2 35  1  0
  2 36  1  0
  4 37  1  0
  4 38  1  0
  5 39  1  0
  5 40  1  0
  5 41  1  0
 10 42  1  0
 11 43  1  0
 14 44  1  0
 14 45  1  0
 15 46  1  0
 15 47  1  0
 17 48  1  0
 17 49  1  0
 18 50  1  0
 18 51  1  0
 20 52  1  0
 23 53  1  0
 23 54  1  0
 24 55  1  0
 24 56  1  0
 25 57  1  0
 26 58  1  0
 26 59  1  0
 27 60  1  0
 27 61  1  0
 28 62  1  0
 28 63  1  0
 29 64  1  0
 29 65  1  0
 30 66  1  0
 30 67  1  0
 31 68  1  0
M  END
$$$$
