
     RDKit          3D

 51 53  0  0  0  0  0  0  0  0999 V2000
   -7.1415   -1.9180    1.4195 C   0  0  0  0  0  0  0  0  0  0  0  0
   -6.0396   -1.0227    0.9234 C   0  0  0  0  0  0  0  0  0  0  0  0
   -5.7384    0.1501    1.6272 C   0  0  0  0  0  0  0  0  0  0  0  0
   -4.7186    0.9978    1.1926 C   0  0  0  0  0  0  0  0  0  0  0  0
   -3.9803    0.6983    0.0482 C   0  0  0  0  0  0  0  0  0  0  0  0
   -3.0130    1.6156   -0.2499 O   0  0  0  0  0  0  0  0  0  0  0  0
   -2.2397    1.4664   -1.4396 C   0  0  0  0  0  0  0  0  0  0  0  0
   -1.0085    0.7135   -1.1126 C   0  0  0  0  0  0  0  0  0  0  0  0
   -0.6232   -0.5993   -1.2133 C   0  0  0  0  0  0  0  0  0  0  0  0
    0.7155   -0.6346   -0.7266 C   0  0  0  0  0  0  0  0  0  0  0  0
    1.5408   -1.8511   -0.6071 C   0  0  0  0  0  0  0  0  0  0  0  0
    0.9915   -2.9501   -0.7273 O   0  0  0  0  0  0  0  0  0  0  0  0
    2.9233   -1.7747   -0.3688 N   0  0  0  0  0  0  0  0  0  0  0  0
    3.6460   -3.0176   -0.1469 C   0  0  0  0  0  0  0  0  0  0  0  0
    3.7491   -0.5683   -0.5014 C   0  0  0  0  0  0  0  0  0  0  0  0
    4.0459    0.0900    0.8507 C   0  0  0  0  0  0  0  0  0  0  0  0
    4.8734    1.3409    0.6899 C   0  0  0  0  0  0  0  0  0  0  0  0
    4.2512    2.5696    0.4309 C   0  0  0  0  0  0  0  0  0  0  0  0
    5.0135    3.7258    0.2609 C   0  0  0  0  0  0  0  0  0  0  0  0
    6.4034    3.6641    0.3446 C   0  0  0  0  0  0  0  0  0  0  0  0
    7.0321    2.4460    0.5973 C   0  0  0  0  0  0  0  0  0  0  0  0
    6.2716    1.2880    0.7674 C   0  0  0  0  0  0  0  0  0  0  0  0
    1.0901    0.5963   -0.3424 N   0  0  0  0  0  0  0  0  0  0  0  0
    0.0217    1.4315   -0.5936 O   0  0  0  0  0  0  0  0  0  0  0  0
   -4.2725   -0.4685   -0.6576 C   0  0  0  0  0  0  0  0  0  0  0  0
   -5.2986   -1.3357   -0.2330 C   0  0  0  0  0  0  0  0  0  0  0  0
   -5.5748   -2.5889   -1.0200 C   0  0  0  0  0  0  0  0  0  0  0  0
   -6.7489   -2.9137    1.6492 H   0  0  0  0  0  0  0  0  0  0  0  0
   -7.9320   -2.0009    0.6667 H   0  0  0  0  0  0  0  0  0  0  0  0
   -7.5976   -1.5252    2.3346 H   0  0  0  0  0  0  0  0  0  0  0  0
   -6.2934    0.4142    2.5247 H   0  0  0  0  0  0  0  0  0  0  0  0
   -4.4968    1.9011    1.7560 H   0  0  0  0  0  0  0  0  0  0  0  0
   -2.8022    1.0282   -2.2700 H   0  0  0  0  0  0  0  0  0  0  0  0
   -1.9666    2.4766   -1.7666 H   0  0  0  0  0  0  0  0  0  0  0  0
   -1.2052   -1.4349   -1.5733 H   0  0  0  0  0  0  0  0  0  0  0  0
    4.3819   -2.8736    0.6492 H   0  0  0  0  0  0  0  0  0  0  0  0
    4.1595   -3.2913   -1.0735 H   0  0  0  0  0  0  0  0  0  0  0  0
    2.9799   -3.8343    0.1440 H   0  0  0  0  0  0  0  0  0  0  0  0
    3.2835    0.1320   -1.2006 H   0  0  0  0  0  0  0  0  0  0  0  0
    4.6901   -0.8639   -0.9848 H   0  0  0  0  0  0  0  0  0  0  0  0
    3.1194    0.3298    1.3855 H   0  0  0  0  0  0  0  0  0  0  0  0
    4.5763   -0.6147    1.5039 H   0  0  0  0  0  0  0  0  0  0  0  0
    3.1662    2.6310    0.3607 H   0  0  0  0  0  0  0  0  0  0  0  0
    4.5212    4.6744    0.0634 H   0  0  0  0  0  0  0  0  0  0  0  0
    6.9960    4.5654    0.2132 H   0  0  0  0  0  0  0  0  0  0  0  0
    8.1160    2.3983    0.6626 H   0  0  0  0  0  0  0  0  0  0  0  0
    6.7775    0.3455    0.9634 H   0  0  0  0  0  0  0  0  0  0  0  0
   -3.7140   -0.7427   -1.5452 H   0  0  0  0  0  0  0  0  0  0  0  0
   -5.3880   -3.4731   -0.4026 H   0  0  0  0  0  0  0  0  0  0  0  0
   -4.9313   -2.6606   -1.9033 H   0  0  0  0  0  0  0  0  0  0  0  0
   -6.6120   -2.5986   -1.3696 H   0  0  0  0  0  0  0  0  0  0  0  0
  1  2  1  0
  2  3  2  0
  3  4  1  0
  4  5  2  0
  5  6  1  0
  6  7  1  0
  7  8  1  0
  8  9  2  0
  9 10  1  0
 10 11  1  0
 11 12  2  0
 11 13  1  0
 13 14  1  0
 13 15  1  0
 15 16  1  0
 16 17  1  0
 17 18  2  0
 18 19  1  0
 19 20  2  0
 20 21  1  0
 21 22  2  0
 10 23  2  0
 23 24  1  0
  5 25  1  0
 25 26  2  0
 26 27  1  0
 26  2  1  0
 24  8  1  0
 22 17  1  0
  1 28  1  0
  1 29  1  0
  1 30  1  0
  3 31  1  0
  4 32  1  0
  7 33  1  0
  7 34  1  0
  9 35  1  0
 14 36  1  0
 14 37  1  0
 14 38  1  0
 15 39  1  0
 15 40  1  0
 16 41  1  0
 16 42  1  0
 18 43  1  0
 19 44  1  0
 20 45  1  0
 21 46  1  0
 22 47  1  0
 25 48  1  0
 27 49  1  0
 27 50  1  0
 27 51  1  0
M  END
$$$$
