
     RDKit          3D

 48 50  0  0  0  0  0  0  0  0999 V2000
    4.8800    2.2852   -2.5824 C   0  0  0  0  0  0  0  0  0  0  0  0
    4.6903    2.2872   -1.1711 O   0  0  0  0  0  0  0  0  0  0  0  0
    4.0326    1.2163   -0.6323 C   0  0  0  0  0  0  0  0  0  0  0  0
    3.8896    1.2558    0.7568 C   0  0  0  0  0  0  0  0  0  0  0  0
    3.2344    0.2277    1.4385 C   0  0  0  0  0  0  0  0  0  0  0  0
    2.7027   -0.8570    0.7332 C   0  0  0  0  0  0  0  0  0  0  0  0
    1.9817   -1.9684    1.4633 C   0  0  0  0  0  0  0  0  0  0  0  0
    0.5560   -2.2047    0.9789 C   0  0  0  0  0  0  0  0  0  0  0  0
    0.1735   -3.3377    0.6992 O   0  0  0  0  0  0  0  0  0  0  0  0
   -0.2078   -1.0476    0.9660 N   0  0  0  0  0  0  0  0  0  0  0  0
   -1.5340   -0.9701    0.5705 C   0  0  0  0  0  0  0  0  0  0  0  0
   -2.3983   -1.9101    0.0518 C   0  0  0  0  0  0  0  0  0  0  0  0
   -3.6132   -1.2555   -0.1258 C   0  0  0  0  0  0  0  0  0  0  0  0
   -3.5822    0.0163    0.2427 N   0  0  0  0  0  0  0  0  0  0  0  0
   -2.2881    0.2115    0.6214 N   0  0  0  0  0  0  0  0  0  0  0  0
   -1.8732    1.5781    1.0120 C   0  0  0  0  0  0  0  0  0  0  0  0
   -1.4035    1.6087    2.4799 C   0  0  0  0  0  0  0  0  0  0  0  0
   -3.0513    2.5862    0.9040 C   0  0  0  0  0  0  0  0  0  0  0  0
   -0.7649    2.0925    0.0691 C   0  0  0  0  0  0  0  0  0  0  0  0
   -4.7500   -2.0077   -0.6694 C   0  0  0  0  0  0  0  0  0  0  0  0
   -4.0342   -3.6603   -1.1423 S   0  0  0  0  0  3  0  0  0  0  0  0
   -3.8075   -3.6441   -2.7907 O   0  0  0  0  0  1  0  0  0  0  0  0
   -2.3688   -3.3255   -0.3444 C   0  0  0  0  0  0  0  0  0  0  0  0
    2.8594   -0.9008   -0.6593 C   0  0  0  0  0  0  0  0  0  0  0  0
    3.5170    0.1304   -1.3393 C   0  0  0  0  0  0  0  0  0  0  0  0
    5.5037    1.4401   -2.8937 H   0  0  0  0  0  0  0  0  0  0  0  0
    5.4070    3.2062   -2.8505 H   0  0  0  0  0  0  0  0  0  0  0  0
    3.9205    2.2858   -3.1105 H   0  0  0  0  0  0  0  0  0  0  0  0
    4.3022    2.0915    1.3128 H   0  0  0  0  0  0  0  0  0  0  0  0
    3.1543    0.2816    2.5222 H   0  0  0  0  0  0  0  0  0  0  0  0
    2.5559   -2.8967    1.3493 H   0  0  0  0  0  0  0  0  0  0  0  0
    1.9273   -1.7547    2.5374 H   0  0  0  0  0  0  0  0  0  0  0  0
    0.2675   -0.1958    1.2301 H   0  0  0  0  0  0  0  0  0  0  0  0
   -1.1836    2.6313    2.7991 H   0  0  0  0  0  0  0  0  0  0  0  0
   -2.1754    1.2118    3.1463 H   0  0  0  0  0  0  0  0  0  0  0  0
   -0.4973    1.0266    2.6532 H   0  0  0  0  0  0  0  0  0  0  0  0
   -3.4429    2.6438   -0.1178 H   0  0  0  0  0  0  0  0  0  0  0  0
   -2.7344    3.5950    1.1855 H   0  0  0  0  0  0  0  0  0  0  0  0
   -3.8789    2.3099    1.5670 H   0  0  0  0  0  0  0  0  0  0  0  0
   -0.5230    3.1413    0.2806 H   0  0  0  0  0  0  0  0  0  0  0  0
   -1.0822    2.0290   -0.9781 H   0  0  0  0  0  0  0  0  0  0  0  0
    0.1685    1.5298    0.1593 H   0  0  0  0  0  0  0  0  0  0  0  0
   -5.1848   -1.5509   -1.5605 H   0  0  0  0  0  0  0  0  0  0  0  0
   -5.5186   -2.1887    0.0859 H   0  0  0  0  0  0  0  0  0  0  0  0
   -2.3051   -3.9943    0.5165 H   0  0  0  0  0  0  0  0  0  0  0  0
   -1.6029   -3.5575   -1.0879 H   0  0  0  0  0  0  0  0  0  0  0  0
    2.4695   -1.7395   -1.2315 H   0  0  0  0  0  0  0  0  0  0  0  0
    3.6125    0.0481   -2.4165 H   0  0  0  0  0  0  0  0  0  0  0  0
  1  2  1  0
  2  3  1  0
  3  4  2  0
  4  5  1  0
  5  6  2  0
  6  7  1  0
  7  8  1  0
  8  9  2  0
  8 10  1  0
 10 11  1  0
 11 12  2  0
 12 13  1  0
 13 14  2  0
 14 15  1  0
 15 16  1  0
 16 17  1  0
 16 18  1  0
 16 19  1  0
 13 20  1  0
 20 21  1  0
 21 22  1  0
 21 23  1  0
  6 24  1  0
 24 25  2  0
 25  3  1  0
 15 11  1  0
 23 12  1  0
  1 26  1  0
  1 27  1  0
  1 28  1  0
  4 29  1  0
  5 30  1  0
  7 31  1  0
  7 32  1  0
 10 33  1  0
 17 34  1  0
 17 35  1  0
 17 36  1  0
 18 37  1  0
 18 38  1  0
 18 39  1  0
 19 40  1  0
 19 41  1  0
 19 42  1  0
 20 43  1  0
 20 44  1  0
 23 45  1  0
 23 46  1  0
 24 47  1  0
 25 48  1  0
M  CHG  2  21   1  22  -1
M  END
$$$$
