
     RDKit          3D

 69 72  0  0  0  0  0  0  0  0999 V2000
  -11.1815    2.7447   -1.6926 C   0  0  0  0  0  0  0  0  0  0  0  0
   -9.7987    2.2222   -1.4391 C   0  0  0  0  0  0  0  0  0  0  0  0
   -9.5756    1.2506   -0.4586 C   0  0  0  0  0  0  0  0  0  0  0  0
   -8.2825    0.7826   -0.1928 C   0  0  0  0  0  0  0  0  0  0  0  0
   -7.1886    1.2780   -0.9093 C   0  0  0  0  0  0  0  0  0  0  0  0
   -5.8489    0.8345   -0.6747 N   0  0  0  0  0  0  0  0  0  0  0  0
   -4.8221    1.6024   -1.1313 N   0  0  0  0  0  0  0  0  0  0  0  0
   -3.7211    1.0621   -0.6056 C   0  0  0  0  0  0  0  0  0  0  0  0
   -2.3595    1.5606   -0.7520 C   0  0  0  0  0  0  0  0  0  0  0  0
   -2.0649    2.5685   -1.3924 O   0  0  0  0  0  0  0  0  0  0  0  0
   -1.4120    0.7534   -0.0890 N   0  0  0  0  0  0  0  0  0  0  0  0
    0.0043    1.0902   -0.1936 C   0  0  0  0  0  0  0  0  0  0  0  0
    0.6260    0.4853   -1.4548 C   0  0  0  0  0  0  0  0  0  0  0  0
    2.0535    0.9688   -1.6967 C   0  0  0  0  0  0  0  0  0  0  0  0
    3.0620    0.3919   -0.7229 C   0  0  0  0  0  0  0  0  0  0  0  0
    2.7771   -0.3982    0.1682 O   0  0  0  0  0  0  0  0  0  0  0  0
    4.3444    0.8473   -0.9466 N   0  0  0  0  0  0  0  0  0  0  0  0
    5.4666    0.3556   -0.1642 C   0  0  0  0  0  0  0  0  0  0  0  0
    5.9437   -1.0271   -0.6439 C   0  0  0  0  0  0  0  0  0  0  0  0
    7.0506   -1.6777    0.0645 N   0  0  0  0  0  0  0  0  0  0  0  0
    8.3312   -0.9624    0.0251 C   0  0  0  0  0  0  0  0  0  0  0  0
    8.6314   -0.0278    1.2215 C   0  0  0  0  0  0  0  0  0  0  0  0
    8.3889   -0.6107    2.5527 N   0  0  0  0  0  0  0  0  0  0  0  0
    9.4132   -1.5951    2.9021 C   0  0  0  0  0  0  0  0  0  0  0  0
    7.0392   -1.2049    2.5857 C   0  0  0  0  0  0  0  0  0  0  0  0
    6.7096   -2.1579    1.4122 C   0  0  0  0  0  0  0  0  0  0  0  0
   -1.7040   -0.4255    0.6035 N   0  0  0  0  0  0  0  0  0  0  0  0
   -2.9289   -0.8545    0.7191 C   0  0  0  0  0  0  0  0  0  0  0  0
   -3.1688   -2.1209    1.4907 C   0  0  0  0  0  0  0  0  0  0  0  0
   -4.0008   -0.1114    0.1019 C   0  0  0  0  0  0  0  0  0  0  0  0
   -5.3657   -0.3109   -0.0286 C   0  0  0  0  0  0  0  0  0  0  0  0
   -6.1958   -1.4867    0.3408 C   0  0  0  0  0  0  0  0  0  0  0  0
   -7.4112    2.2843   -1.8645 C   0  0  0  0  0  0  0  0  0  0  0  0
   -8.7034    2.7491   -2.1273 C   0  0  0  0  0  0  0  0  0  0  0  0
  -11.9263    1.9535   -1.5582 H   0  0  0  0  0  0  0  0  0  0  0  0
  -11.2798    3.1123   -2.7193 H   0  0  0  0  0  0  0  0  0  0  0  0
  -11.4044    3.5631   -1.0019 H   0  0  0  0  0  0  0  0  0  0  0  0
  -10.4095    0.8595    0.1215 H   0  0  0  0  0  0  0  0  0  0  0  0
   -8.1745    0.0722    0.6178 H   0  0  0  0  0  0  0  0  0  0  0  0
    0.5079    0.7370    0.7124 H   0  0  0  0  0  0  0  0  0  0  0  0
    0.1028    2.1818   -0.2149 H   0  0  0  0  0  0  0  0  0  0  0  0
    0.0189    0.7613   -2.3257 H   0  0  0  0  0  0  0  0  0  0  0  0
    0.5965   -0.6092   -1.3931 H   0  0  0  0  0  0  0  0  0  0  0  0
    2.0989    2.0629   -1.6489 H   0  0  0  0  0  0  0  0  0  0  0  0
    2.3613    0.6627   -2.7041 H   0  0  0  0  0  0  0  0  0  0  0  0
    4.5351    1.4027   -1.7708 H   0  0  0  0  0  0  0  0  0  0  0  0
    5.1518    0.3186    0.8820 H   0  0  0  0  0  0  0  0  0  0  0  0
    6.2615    1.0995   -0.2671 H   0  0  0  0  0  0  0  0  0  0  0  0
    5.0905   -1.7185   -0.6558 H   0  0  0  0  0  0  0  0  0  0  0  0
    6.2262   -0.9391   -1.7022 H   0  0  0  0  0  0  0  0  0  0  0  0
    9.1210   -1.7235   -0.0151 H   0  0  0  0  0  0  0  0  0  0  0  0
    8.4332   -0.3992   -0.9110 H   0  0  0  0  0  0  0  0  0  0  0  0
    9.6670    0.3285    1.1518 H   0  0  0  0  0  0  0  0  0  0  0  0
    8.0138    0.8736    1.1364 H   0  0  0  0  0  0  0  0  0  0  0  0
    9.4561   -2.4436    2.2122 H   0  0  0  0  0  0  0  0  0  0  0  0
   10.4016   -1.1233    2.9221 H   0  0  0  0  0  0  0  0  0  0  0  0
    9.2368   -1.9854    3.9105 H   0  0  0  0  0  0  0  0  0  0  0  0
    6.8850   -1.7330    3.5353 H   0  0  0  0  0  0  0  0  0  0  0  0
    6.3146   -0.3833    2.5971 H   0  0  0  0  0  0  0  0  0  0  0  0
    5.6530   -2.4482    1.4683 H   0  0  0  0  0  0  0  0  0  0  0  0
    7.2670   -3.0907    1.5682 H   0  0  0  0  0  0  0  0  0  0  0  0
   -2.2652   -2.4119    2.0352 H   0  0  0  0  0  0  0  0  0  0  0  0
   -3.9778   -1.9769    2.2121 H   0  0  0  0  0  0  0  0  0  0  0  0
   -3.4294   -2.9256    0.7977 H   0  0  0  0  0  0  0  0  0  0  0  0
   -6.5940   -1.3800    1.3539 H   0  0  0  0  0  0  0  0  0  0  0  0
   -7.0145   -1.6454   -0.3657 H   0  0  0  0  0  0  0  0  0  0  0  0
   -5.6077   -2.4076    0.3095 H   0  0  0  0  0  0  0  0  0  0  0  0
   -6.5833    2.7176   -2.4244 H   0  0  0  0  0  0  0  0  0  0  0  0
   -8.8424    3.5288   -2.8731 H   0  0  0  0  0  0  0  0  0  0  0  0
  1  2  1  0
  2  3  2  0
  3  4  1  0
  4  5  2  0
  5  6  1  0
  6  7  1  0
  7  8  2  0
  8  9  1  0
  9 10  2  0
  9 11  1  0
 11 12  1  0
 12 13  1  0
 13 14  1  0
 14 15  1  0
 15 16  2  0
 15 17  1  0
 17 18  1  0
 18 19  1  0
 19 20  1  0
 20 21  1  0
 21 22  1  0
 22 23  1  0
 23 24  1  0
 23 25  1  0
 25 26  1  0
 11 27  1  0
 27 28  2  0
 28 29  1  0
 28 30  1  0
 30 31  2  0
 31 32  1  0
  5 33  1  0
 33 34  2  0
 34  2  1  0
 31  6  1  0
 30  8  1  0
 26 20  1  0
  1 35  1  0
  1 36  1  0
  1 37  1  0
  3 38  1  0
  4 39  1  0
 12 40  1  0
 12 41  1  0
 13 42  1  0
 13 43  1  0
 14 44  1  0
 14 45  1  0
 17 46  1  0
 18 47  1  0
 18 48  1  0
 19 49  1  0
 19 50  1  0
 21 51  1  0
 21 52  1  0
 22 53  1  0
 22 54  1  0
 24 55  1  0
 24 56  1  0
 24 57  1  0
 25 58  1  0
 25 59  1  0
 26 60  1  0
 26 61  1  0
 29 62  1  0
 29 63  1  0
 29 64  1  0
 32 65  1  0
 32 66  1  0
 32 67  1  0
 33 68  1  0
 34 69  1  0
M  END
$$$$
