
     RDKit          3D

 45 47  0  0  0  0  0  0  0  0999 V2000
    7.2007   -0.2106   -0.1326 C   0  0  0  0  0  0  0  0  0  0  0  0
    5.7674   -0.3572    0.2312 C   0  0  0  0  0  0  0  0  0  0  0  0
    5.3331   -0.1747    1.5205 N   0  0  0  0  0  0  0  0  0  0  0  0
    3.9752   -0.3697    1.6069 C   0  0  0  0  0  0  0  0  0  0  0  0
    3.1260   -0.3012    2.7168 C   0  0  0  0  0  0  0  0  0  0  0  0
    1.7672   -0.5554    2.5067 C   0  0  0  0  0  0  0  0  0  0  0  0
    1.2764   -0.8566    1.2324 C   0  0  0  0  0  0  0  0  0  0  0  0
   -0.1837   -1.1088    1.0829 C   0  0  0  0  0  0  0  0  0  0  0  0
   -0.8367   -1.5374    2.0269 O   0  0  0  0  0  0  0  0  0  0  0  0
   -0.7357   -0.7903   -0.1409 N   0  0  0  0  0  0  0  0  0  0  0  0
   -2.1623   -0.9216   -0.3876 C   0  0  0  0  0  0  0  0  0  0  0  0
   -2.9783    0.2229    0.2465 C   0  0  0  0  0  0  0  0  0  0  0  0
   -4.4169    0.1795   -0.0748 N   0  0  0  0  0  0  0  0  0  0  0  0
   -5.1819    1.1646    0.7220 C   0  0  0  0  0  0  0  0  0  0  0  0
   -5.4825    2.4649   -0.0398 C   0  0  0  0  0  0  0  0  0  0  0  0
   -6.2380    2.2582   -1.2418 O   0  0  0  0  0  0  0  0  0  0  0  0
   -6.0720    0.9435   -1.7901 C   0  0  0  0  0  0  0  0  0  0  0  0
   -4.6732    0.3682   -1.5197 C   0  0  0  0  0  0  0  0  0  0  0  0
    2.1507   -0.9379    0.1357 C   0  0  0  0  0  0  0  0  0  0  0  0
    3.5258   -0.6833    0.3260 C   0  0  0  0  0  0  0  0  0  0  0  0
    4.6641   -0.6771   -0.5440 C   0  0  0  0  0  0  0  0  0  0  0  0
    4.6479   -0.9687   -2.0032 C   0  0  0  0  0  0  0  0  0  0  0  0
    7.3292    0.6105   -0.8449 H   0  0  0  0  0  0  0  0  0  0  0  0
    7.8213    0.0012    0.7441 H   0  0  0  0  0  0  0  0  0  0  0  0
    7.5724   -1.1308   -0.5945 H   0  0  0  0  0  0  0  0  0  0  0  0
    5.9242    0.0619    2.3053 H   0  0  0  0  0  0  0  0  0  0  0  0
    3.5004   -0.0658    3.7079 H   0  0  0  0  0  0  0  0  0  0  0  0
    1.0836   -0.5152    3.3536 H   0  0  0  0  0  0  0  0  0  0  0  0
   -0.1907   -0.2521   -0.8002 H   0  0  0  0  0  0  0  0  0  0  0  0
   -2.2790   -0.9370   -1.4756 H   0  0  0  0  0  0  0  0  0  0  0  0
   -2.4998   -1.8869    0.0069 H   0  0  0  0  0  0  0  0  0  0  0  0
   -2.5486    1.1898   -0.0480 H   0  0  0  0  0  0  0  0  0  0  0  0
   -2.8543    0.1508    1.3346 H   0  0  0  0  0  0  0  0  0  0  0  0
   -6.1364    0.6900    0.9830 H   0  0  0  0  0  0  0  0  0  0  0  0
   -4.6867    1.3913    1.6735 H   0  0  0  0  0  0  0  0  0  0  0  0
   -4.5526    2.9791   -0.3086 H   0  0  0  0  0  0  0  0  0  0  0  0
   -6.0588    3.1468    0.5938 H   0  0  0  0  0  0  0  0  0  0  0  0
   -6.8526    0.2936   -1.3773 H   0  0  0  0  0  0  0  0  0  0  0  0
   -6.2467    1.0152   -2.8685 H   0  0  0  0  0  0  0  0  0  0  0  0
   -3.9369    1.0594   -1.9505 H   0  0  0  0  0  0  0  0  0  0  0  0
   -4.5751   -0.5954   -2.0310 H   0  0  0  0  0  0  0  0  0  0  0  0
    1.7953   -1.2199   -0.8492 H   0  0  0  0  0  0  0  0  0  0  0  0
    3.9111   -0.3380   -2.5113 H   0  0  0  0  0  0  0  0  0  0  0  0
    4.3850   -2.0171   -2.1768 H   0  0  0  0  0  0  0  0  0  0  0  0
    5.6225   -0.7824   -2.4648 H   0  0  0  0  0  0  0  0  0  0  0  0
  1  2  1  0
  2  3  1  0
  3  4  1  0
  4  5  2  0
  5  6  1  0
  6  7  2  0
  7  8  1  0
  8  9  2  0
  8 10  1  0
 10 11  1  0
 11 12  1  0
 12 13  1  0
 13 14  1  0
 14 15  1  0
 15 16  1  0
 16 17  1  0
 17 18  1  0
  7 19  1  0
 19 20  2  0
 20 21  1  0
 21 22  1  0
 21  2  2  0
 20  4  1  0
 18 13  1  0
  1 23  1  0
  1 24  1  0
  1 25  1  0
  3 26  1  0
  5 27  1  0
  6 28  1  0
 10 29  1  0
 11 30  1  0
 11 31  1  0
 12 32  1  0
 12 33  1  0
 14 34  1  0
 14 35  1  0
 15 36  1  0
 15 37  1  0
 17 38  1  0
 17 39  1  0
 18 40  1  0
 18 41  1  0
 19 42  1  0
 22 43  1  0
 22 44  1  0
 22 45  1  0
M  END
$$$$
