
     RDKit          3D

 40 41  0  0  0  0  0  0  0  0999 V2000
   -4.1201   -0.0118   -1.9984 C   0  0  0  0  0  0  0  0  0  0  0  0
   -3.9650   -0.5797   -0.5851 C   0  0  0  0  0  0  0  0  0  0  0  0
   -2.6994   -1.4354   -0.4531 C   0  0  0  0  0  0  0  0  0  0  0  0
   -1.4113   -0.6105   -0.4332 C   0  0  0  0  0  0  0  0  0  0  0  0
   -1.4441    0.4777    0.6504 C   0  0  0  0  0  0  0  0  0  0  0  0
   -0.2643    1.3610    0.6135 N   0  0  0  0  0  0  0  0  0  0  0  0
    1.0007    0.6666    0.9467 C   0  0  0  0  0  0  0  0  0  0  0  0
    1.8594    0.4284   -0.3191 C   0  0  0  0  0  0  0  0  0  0  0  0
    1.9501    1.6611   -1.0448 O   0  0  0  0  0  0  0  0  0  0  0  0
    3.2343   -0.0960    0.0336 C   0  0  0  0  0  0  0  0  0  0  0  0
    3.4286   -1.4747    0.2159 C   0  0  0  0  0  0  0  0  0  0  0  0
    4.6824   -1.9766    0.5708 C   0  0  0  0  0  0  0  0  0  0  0  0
    5.7563   -1.1076    0.7512 C   0  0  0  0  0  0  0  0  0  0  0  0
    5.5780    0.2630    0.5766 C   0  0  0  0  0  0  0  0  0  0  0  0
    4.3248    0.7659    0.2221 C   0  0  0  0  0  0  0  0  0  0  0  0
   -2.6974    1.3567    0.4941 C   0  0  0  0  0  0  0  0  0  0  0  0
   -3.9802    0.5260    0.4774 C   0  0  0  0  0  0  0  0  0  0  0  0
   -3.2964    0.6524   -2.2752 H   0  0  0  0  0  0  0  0  0  0  0  0
   -4.1584   -0.8212   -2.7353 H   0  0  0  0  0  0  0  0  0  0  0  0
   -5.0518    0.5577   -2.0835 H   0  0  0  0  0  0  0  0  0  0  0  0
   -4.8316   -1.2299   -0.4071 H   0  0  0  0  0  0  0  0  0  0  0  0
   -2.6516   -2.1694   -1.2664 H   0  0  0  0  0  0  0  0  0  0  0  0
   -2.7594   -2.0108    0.4800 H   0  0  0  0  0  0  0  0  0  0  0  0
   -0.5762   -1.2980   -0.2574 H   0  0  0  0  0  0  0  0  0  0  0  0
   -1.2469   -0.1587   -1.4192 H   0  0  0  0  0  0  0  0  0  0  0  0
   -1.4966   -0.0034    1.6366 H   0  0  0  0  0  0  0  0  0  0  0  0
   -0.4049    2.0959    1.3112 H   0  0  0  0  0  0  0  0  0  0  0  0
    0.8384   -0.2604    1.5097 H   0  0  0  0  0  0  0  0  0  0  0  0
    1.5554    1.3370    1.6169 H   0  0  0  0  0  0  0  0  0  0  0  0
    1.3708   -0.2834   -0.9929 H   0  0  0  0  0  0  0  0  0  0  0  0
    1.0475    2.0332   -0.9726 H   0  0  0  0  0  0  0  0  0  0  0  0
    2.6022   -2.1685    0.0778 H   0  0  0  0  0  0  0  0  0  0  0  0
    4.8217   -3.0461    0.7040 H   0  0  0  0  0  0  0  0  0  0  0  0
    6.7329   -1.4979    1.0242 H   0  0  0  0  0  0  0  0  0  0  0  0
    6.4147    0.9431    0.7120 H   0  0  0  0  0  0  0  0  0  0  0  0
    4.2010    1.8384    0.0842 H   0  0  0  0  0  0  0  0  0  0  0  0
   -2.6326    1.9501   -0.4269 H   0  0  0  0  0  0  0  0  0  0  0  0
   -2.7563    2.0749    1.3221 H   0  0  0  0  0  0  0  0  0  0  0  0
   -4.1119    0.0651    1.4650 H   0  0  0  0  0  0  0  0  0  0  0  0
   -4.8428    1.1857    0.3259 H   0  0  0  0  0  0  0  0  0  0  0  0
  1  2  1  0
  2  3  1  0
  3  4  1  0
  4  5  1  0
  5  6  1  0
  6  7  1  0
  7  8  1  0
  8  9  1  0
  8 10  1  0
 10 11  2  0
 11 12  1  0
 12 13  2  0
 13 14  1  0
 14 15  2  0
  5 16  1  0
 16 17  1  0
 17  2  1  0
 15 10  1  0
  1 18  1  0
  1 19  1  0
  1 20  1  0
  2 21  1  0
  3 22  1  0
  3 23  1  0
  4 24  1  0
  4 25  1  0
  5 26  1  0
  6 27  1  0
  7 28  1  0
  7 29  1  0
  8 30  1  0
  9 31  1  0
 11 32  1  0
 12 33  1  0
 13 34  1  0
 14 35  1  0
 15 36  1  0
 16 37  1  0
 16 38  1  0
 17 39  1  0
 17 40  1  0
M  END
$$$$
