
     RDKit          3D

 51 54  0  0  0  0  0  0  0  0999 V2000
    2.3114   -2.0365   -2.0473 C   0  0  0  0  0  0  0  0  0  0  0  0
    2.5399   -0.5683   -1.6638 C   0  0  0  0  0  0  0  0  0  0  0  0
    1.3875    0.3049   -2.2048 C   0  0  0  0  0  0  0  0  0  0  0  0
    0.5566    0.4982   -0.9752 C   0  0  0  0  0  0  0  0  0  0  0  0
   -0.7128    1.0504   -0.8977 C   0  0  0  0  0  0  0  0  0  0  0  0
   -1.2721    1.2217    0.3726 C   0  0  0  0  0  0  0  0  0  0  0  0
   -2.8974    1.9320    0.5012 S   0  0  0  0  0  6  0  0  0  0  0  0
   -2.9332    3.0596   -0.4066 O   0  0  0  0  0  0  0  0  0  0  0  0
   -3.2175    2.0926    1.9031 O   0  0  0  0  0  0  0  0  0  0  0  0
   -3.8882    0.7002   -0.1355 N   0  0  0  0  0  0  0  0  0  0  0  0
   -3.9320   -0.6008    0.5798 C   0  0  0  0  0  0  0  0  0  0  0  0
   -4.9501   -0.6012    1.7157 C   0  0  0  0  0  0  0  0  0  0  0  0
   -6.3254   -0.1405    1.2441 C   0  0  0  0  0  0  0  0  0  0  0  0
   -6.2332    1.1974    0.5179 C   0  0  0  0  0  0  0  0  0  0  0  0
   -5.2236    1.1309   -0.6208 C   0  0  0  0  0  0  0  0  0  0  0  0
   -0.5612    0.8757    1.5338 C   0  0  0  0  0  0  0  0  0  0  0  0
    0.7221    0.3260    1.4330 C   0  0  0  0  0  0  0  0  0  0  0  0
    1.2667    0.1310    0.1730 C   0  0  0  0  0  0  0  0  0  0  0  0
    2.5265   -0.3951   -0.1882 N   0  0  0  0  0  0  0  0  0  0  0  0
    3.5573   -0.7029    0.6980 C   0  0  0  0  0  0  0  0  0  0  0  0
    3.4167   -0.6680    1.9268 O   0  0  0  0  0  0  0  0  0  0  0  0
    4.9344   -1.0607    0.0524 C   0  0  0  0  0  0  0  0  0  0  0  0
    6.1131   -1.4045    1.0089 C   0  0  0  0  0  0  0  0  0  0  0  0
    6.5614    0.0628    0.9001 C   0  0  0  0  0  0  0  0  0  0  0  0
    5.8081    0.1285   -0.4394 C   0  0  0  0  0  0  0  0  0  0  0  0
    2.3267   -2.1547   -3.1359 H   0  0  0  0  0  0  0  0  0  0  0  0
    3.0779   -2.6933   -1.6286 H   0  0  0  0  0  0  0  0  0  0  0  0
    1.3445   -2.3998   -1.6809 H   0  0  0  0  0  0  0  0  0  0  0  0
    3.4990   -0.2356   -2.0736 H   0  0  0  0  0  0  0  0  0  0  0  0
    1.7679    1.2771   -2.5377 H   0  0  0  0  0  0  0  0  0  0  0  0
    0.8319   -0.1688   -3.0193 H   0  0  0  0  0  0  0  0  0  0  0  0
   -1.2515    1.3543   -1.7907 H   0  0  0  0  0  0  0  0  0  0  0  0
   -2.9437   -0.8736    0.9607 H   0  0  0  0  0  0  0  0  0  0  0  0
   -4.1931   -1.3754   -0.1523 H   0  0  0  0  0  0  0  0  0  0  0  0
   -5.0267   -1.6100    2.1371 H   0  0  0  0  0  0  0  0  0  0  0  0
   -4.6109    0.0497    2.5287 H   0  0  0  0  0  0  0  0  0  0  0  0
   -6.7522   -0.8940    0.5708 H   0  0  0  0  0  0  0  0  0  0  0  0
   -7.0036   -0.0548    2.1004 H   0  0  0  0  0  0  0  0  0  0  0  0
   -5.9484    1.9815    1.2292 H   0  0  0  0  0  0  0  0  0  0  0  0
   -7.2182    1.4682    0.1215 H   0  0  0  0  0  0  0  0  0  0  0  0
   -5.5576    0.4122   -1.3798 H   0  0  0  0  0  0  0  0  0  0  0  0
   -5.1606    2.0965   -1.1326 H   0  0  0  0  0  0  0  0  0  0  0  0
   -0.9961    1.0339    2.5188 H   0  0  0  0  0  0  0  0  0  0  0  0
    1.2588    0.0618    2.3381 H   0  0  0  0  0  0  0  0  0  0  0  0
    4.8307   -1.8443   -0.7055 H   0  0  0  0  0  0  0  0  0  0  0  0
    5.8497   -1.7417    2.0148 H   0  0  0  0  0  0  0  0  0  0  0  0
    6.8286   -2.1168    0.5806 H   0  0  0  0  0  0  0  0  0  0  0  0
    6.1392    0.7119    1.6756 H   0  0  0  0  0  0  0  0  0  0  0  0
    7.6404    0.2276    0.8473 H   0  0  0  0  0  0  0  0  0  0  0  0
    6.4271   -0.1149   -1.3108 H   0  0  0  0  0  0  0  0  0  0  0  0
    5.2854    1.0696   -0.6316 H   0  0  0  0  0  0  0  0  0  0  0  0
  1  2  1  0
  2  3  1  0
  3  4  1  0
  4  5  2  0
  5  6  1  0
  6  7  1  0
  7  8  2  0
  7  9  2  0
  7 10  1  0
 10 11  1  0
 11 12  1  0
 12 13  1  0
 13 14  1  0
 14 15  1  0
  6 16  2  0
 16 17  1  0
 17 18  2  0
 18 19  1  0
 19 20  1  0
 20 21  2  0
 20 22  1  0
 22 23  1  0
 23 24  1  0
 24 25  1  0
 19  2  1  0
 25 22  1  0
 18  4  1  0
 15 10  1  0
  1 26  1  0
  1 27  1  0
  1 28  1  0
  2 29  1  0
  3 30  1  0
  3 31  1  0
  5 32  1  0
 11 33  1  0
 11 34  1  0
 12 35  1  0
 12 36  1  0
 13 37  1  0
 13 38  1  0
 14 39  1  0
 14 40  1  0
 15 41  1  0
 15 42  1  0
 16 43  1  0
 17 44  1  0
 22 45  1  0
 23 46  1  0
 23 47  1  0
 24 48  1  0
 24 49  1  0
 25 50  1  0
 25 51  1  0
M  END
$$$$
