
     RDKit          3D

 44 47  0  0  0  0  0  0  0  0999 V2000
    0.9336    0.3348   -3.3046 O   0  0  0  0  0  0  0  0  0  0  0  0
    0.7084   -0.5667   -2.4916 C   0  0  0  0  0  0  0  0  0  0  0  0
    1.3644   -1.9365   -2.6552 C   0  0  0  0  0  0  0  0  0  0  0  0
    3.1549   -1.7806   -2.9213 S   0  0  0  0  0  0  0  0  0  0  0  0
    3.6352   -1.0800   -1.4262 C   0  0  0  0  0  0  0  0  0  0  0  0
    3.0234   -1.1600   -0.2706 N   0  0  0  0  0  0  0  0  0  0  0  0
    3.8069   -0.4260    0.5902 C   0  0  0  0  0  0  0  0  0  0  0  0
    3.6282   -0.1643    1.9557 C   0  0  0  0  0  0  0  0  0  0  0  0
    4.5858    0.6214    2.6057 C   0  0  0  0  0  0  0  0  0  0  0  0
    4.3956    0.9624    4.2854 Cl  0  0  0  0  0  0  0  0  0  0  0  0
    5.6929    1.1370    1.9252 C   0  0  0  0  0  0  0  0  0  0  0  0
    5.8844    0.8857    0.5606 C   0  0  0  0  0  0  0  0  0  0  0  0
    4.9174    0.0994   -0.0690 C   0  0  0  0  0  0  0  0  0  0  0  0
    4.7778   -0.3401   -1.3619 N   0  0  0  0  0  0  0  0  0  0  0  0
   -0.1860   -0.3820   -1.4453 N   0  0  0  0  0  0  0  0  0  0  0  0
   -0.4510   -1.3678   -0.3918 C   0  0  0  0  0  0  0  0  0  0  0  0
   -1.2644   -0.8105    0.7856 C   0  0  0  0  0  0  0  0  0  0  0  0
   -2.4643   -0.0945    0.3487 N   0  0  0  0  0  0  0  0  0  0  0  0
   -3.6041   -0.1420    1.1605 C   0  0  0  0  0  0  0  0  0  0  0  0
   -3.5565   -0.7259    2.2474 O   0  0  0  0  0  0  0  0  0  0  0  0
   -4.8438    0.4855    0.7218 C   0  0  0  0  0  0  0  0  0  0  0  0
   -6.0188    0.6925    1.4296 C   0  0  0  0  0  0  0  0  0  0  0  0
   -6.9353    1.3073    0.5446 C   0  0  0  0  0  0  0  0  0  0  0  0
   -6.2827    1.4230   -0.6573 C   0  0  0  0  0  0  0  0  0  0  0  0
   -5.0238    0.9260   -0.5624 O   0  0  0  0  0  0  0  0  0  0  0  0
   -2.3151    0.7521   -0.8427 C   0  0  0  0  0  0  0  0  0  0  0  0
   -0.8584    0.9109   -1.3035 C   0  0  0  0  0  0  0  0  0  0  0  0
    1.1868   -2.6156   -1.8241 H   0  0  0  0  0  0  0  0  0  0  0  0
    0.9239   -2.3981   -3.5437 H   0  0  0  0  0  0  0  0  0  0  0  0
    2.7697   -0.5654    2.4814 H   0  0  0  0  0  0  0  0  0  0  0  0
    6.4202    1.7447    2.4604 H   0  0  0  0  0  0  0  0  0  0  0  0
    6.7398    1.2845    0.0273 H   0  0  0  0  0  0  0  0  0  0  0  0
    5.3898   -0.1483   -2.1408 H   0  0  0  0  0  0  0  0  0  0  0  0
    0.4934   -1.7635   -0.0141 H   0  0  0  0  0  0  0  0  0  0  0  0
   -1.0006   -2.1911   -0.8622 H   0  0  0  0  0  0  0  0  0  0  0  0
   -0.6594   -0.0947    1.3557 H   0  0  0  0  0  0  0  0  0  0  0  0
   -1.5253   -1.6296    1.4642 H   0  0  0  0  0  0  0  0  0  0  0  0
   -6.1789    0.4177    2.4646 H   0  0  0  0  0  0  0  0  0  0  0  0
   -7.9516    1.6124    0.7516 H   0  0  0  0  0  0  0  0  0  0  0  0
   -6.5633    1.8092   -1.6269 H   0  0  0  0  0  0  0  0  0  0  0  0
   -2.7352    1.7420   -0.6376 H   0  0  0  0  0  0  0  0  0  0  0  0
   -2.8922    0.2772   -1.6444 H   0  0  0  0  0  0  0  0  0  0  0  0
   -0.8342    1.4732   -2.2420 H   0  0  0  0  0  0  0  0  0  0  0  0
   -0.2877    1.4843   -0.5622 H   0  0  0  0  0  0  0  0  0  0  0  0
  1  2  2  0
  2  3  1  0
  3  4  1  0
  4  5  1  0
  5  6  2  0
  6  7  1  0
  7  8  2  0
  8  9  1  0
  9 10  1  0
  9 11  2  0
 11 12  1  0
 12 13  2  0
 13 14  1  0
  2 15  1  0
 15 16  1  0
 16 17  1  0
 17 18  1  0
 18 19  1  0
 19 20  2  0
 19 21  1  0
 21 22  2  0
 22 23  1  0
 23 24  2  0
 24 25  1  0
 18 26  1  0
 26 27  1  0
 14  5  1  0
 27 15  1  0
 13  7  1  0
 25 21  1  0
  3 28  1  0
  3 29  1  0
  8 30  1  0
 11 31  1  0
 12 32  1  0
 14 33  1  0
 16 34  1  0
 16 35  1  0
 17 36  1  0
 17 37  1  0
 22 38  1  0
 23 39  1  0
 24 40  1  0
 26 41  1  0
 26 42  1  0
 27 43  1  0
 27 44  1  0
M  END
$$$$
