
     RDKit          3D

 40 40  0  0  0  0  0  0  0  0999 V2000
   -2.8933    3.9527    1.3927 C   0  0  0  0  0  0  0  0  0  0  0  0
   -2.5173    2.5706    0.8818 C   0  0  0  0  0  0  0  0  0  0  0  0
   -2.3052    1.5873    2.0353 C   0  0  0  0  0  0  0  0  0  0  0  0
   -1.9669    0.1775    1.5467 C   0  0  0  0  0  0  0  0  0  0  0  0
   -0.6491    0.2001    0.9150 N   0  0  0  0  0  0  0  0  0  0  0  0
   -0.2564   -0.8550    0.2620 C   0  0  0  0  0  0  0  0  0  0  0  0
    0.9820   -0.8834   -0.3743 N   0  0  0  0  0  0  0  0  0  0  0  0
    1.6866    0.2862   -0.5526 N   0  0  0  0  0  0  0  0  0  0  0  0
    3.0992    0.3296   -0.5468 C   0  0  0  0  0  0  0  0  0  0  0  0
    3.7389    1.5777   -0.5254 C   0  0  0  0  0  0  0  0  0  0  0  0
    5.1324    1.6740   -0.5881 C   0  0  0  0  0  0  0  0  0  0  0  0
    5.8980    0.5168   -0.6949 C   0  0  0  0  0  0  0  0  0  0  0  0
    7.7818    0.6400   -0.7819 Br  0  0  0  0  0  0  0  0  0  0  0  0
    5.2824   -0.7308   -0.7473 C   0  0  0  0  0  0  0  0  0  0  0  0
    3.8876   -0.8201   -0.6853 C   0  0  0  0  0  0  0  0  0  0  0  0
   -1.1203   -2.1311    0.1285 C   0  0  0  0  0  0  0  0  0  0  0  0
   -1.6272   -2.7175    1.0644 O   0  0  0  0  0  0  0  0  0  0  0  0
   -1.1677   -2.4649   -1.1828 O   0  0  0  0  0  0  0  0  0  0  0  0
   -1.9497   -3.6274   -1.4912 C   0  0  0  0  0  0  0  0  0  0  0  0
   -3.4069   -3.2449   -1.6715 C   0  0  0  0  0  0  0  0  0  0  0  0
   -3.8222    3.9181    1.9709 H   0  0  0  0  0  0  0  0  0  0  0  0
   -3.0411    4.6396    0.5536 H   0  0  0  0  0  0  0  0  0  0  0  0
   -2.1049    4.3622    2.0323 H   0  0  0  0  0  0  0  0  0  0  0  0
   -3.3116    2.2034    0.2216 H   0  0  0  0  0  0  0  0  0  0  0  0
   -1.6056    2.6509    0.2789 H   0  0  0  0  0  0  0  0  0  0  0  0
   -1.5048    1.9544    2.6897 H   0  0  0  0  0  0  0  0  0  0  0  0
   -3.2193    1.5380    2.6394 H   0  0  0  0  0  0  0  0  0  0  0  0
   -1.9504   -0.4912    2.4147 H   0  0  0  0  0  0  0  0  0  0  0  0
   -2.7445   -0.1603    0.8517 H   0  0  0  0  0  0  0  0  0  0  0  0
    1.0537   -1.5582   -1.1355 H   0  0  0  0  0  0  0  0  0  0  0  0
    1.2873    1.0605   -0.0050 H   0  0  0  0  0  0  0  0  0  0  0  0
    3.1513    2.4906   -0.4607 H   0  0  0  0  0  0  0  0  0  0  0  0
    5.6038    2.6525   -0.5594 H   0  0  0  0  0  0  0  0  0  0  0  0
    5.8733   -1.6380   -0.8394 H   0  0  0  0  0  0  0  0  0  0  0  0
    3.4280   -1.8024   -0.7333 H   0  0  0  0  0  0  0  0  0  0  0  0
   -1.5580   -4.0374   -2.4279 H   0  0  0  0  0  0  0  0  0  0  0  0
   -1.8303   -4.4027   -0.7255 H   0  0  0  0  0  0  0  0  0  0  0  0
   -4.0026   -4.1140   -1.9647 H   0  0  0  0  0  0  0  0  0  0  0  0
   -3.5090   -2.4709   -2.4392 H   0  0  0  0  0  0  0  0  0  0  0  0
   -3.8222   -2.8325   -0.7465 H   0  0  0  0  0  0  0  0  0  0  0  0
  1  2  1  0
  2  3  1  0
  3  4  1  0
  4  5  1  0
  5  6  2  3
  6  7  1  0
  7  8  1  0
  8  9  1  0
  9 10  2  0
 10 11  1  0
 11 12  2  0
 12 13  1  0
 12 14  1  0
 14 15  2  0
  6 16  1  0
 16 17  2  0
 16 18  1  0
 18 19  1  0
 19 20  1  0
 15  9  1  0
  1 21  1  0
  1 22  1  0
  1 23  1  0
  2 24  1  0
  2 25  1  0
  3 26  1  0
  3 27  1  0
  4 28  1  0
  4 29  1  0
  7 30  1  0
  8 31  1  0
 10 32  1  0
 11 33  1  0
 14 34  1  0
 15 35  1  0
 19 36  1  0
 19 37  1  0
 20 38  1  0
 20 39  1  0
 20 40  1  0
M  END
$$$$
