
     RDKit          3D

 67 71  0  0  0  0  0  0  0  0999 V2000
   -5.0646    0.6341    5.3084 C   0  0  0  0  0  0  0  0  0  0  0  0
   -4.0103    0.1947    4.4610 O   0  0  0  0  0  0  0  0  0  0  0  0
   -4.2074    0.5507    3.0940 C   0  0  0  0  0  0  0  0  0  0  0  0
   -4.9751   -0.5396    2.4078 C   0  0  0  0  0  0  0  0  0  0  0  0
   -4.5110   -1.4304    1.5147 C   0  0  0  0  0  0  0  0  0  0  0  0
   -3.1403   -1.5697    1.0476 C   0  0  0  0  0  0  0  0  0  0  0  0
   -2.1751   -1.8473    1.9569 C   0  0  0  0  0  0  0  0  0  0  0  0
   -0.7921   -2.0401    1.5187 C   0  0  0  0  0  0  0  0  0  0  0  0
    0.1728   -2.2381    2.4276 C   0  0  0  0  0  0  0  0  0  0  0  0
    1.5828   -2.4537    2.0328 C   0  0  0  0  0  0  0  0  0  0  0  0
    2.4404   -2.4805    2.9194 O   0  0  0  0  0  0  0  0  0  0  0  0
    1.9206   -2.7181    0.5632 C   0  0  0  0  0  0  0  0  0  0  0  0
    2.0184   -4.2454    0.4103 C   0  0  0  0  0  0  0  0  0  0  0  0
    3.2288   -2.2212    0.2313 O   0  0  0  0  0  0  0  0  0  0  0  0
    3.3597   -0.8675    0.2918 C   0  0  0  0  0  0  0  0  0  0  0  0
    2.4582   -0.1011    0.5949 O   0  0  0  0  0  0  0  0  0  0  0  0
    4.7472   -0.4613   -0.0715 C   0  0  0  0  0  0  0  0  0  0  0  0
    5.7574   -1.3886   -0.2636 C   0  0  0  0  0  0  0  0  0  0  0  0
    7.0246   -1.0323   -0.5935 N   0  0  0  0  0  0  0  0  0  0  0  0
    7.2597    0.2880   -0.7265 C   0  0  0  0  0  0  0  0  0  0  0  0
    8.5335    0.7286   -1.0645 C   0  0  0  0  0  0  0  0  0  0  0  0
    8.8165    2.0873   -1.2136 C   0  0  0  0  0  0  0  0  0  0  0  0
    7.8080    3.0227   -1.0202 C   0  0  0  0  0  0  0  0  0  0  0  0
    6.5246    2.5925   -0.6792 C   0  0  0  0  0  0  0  0  0  0  0  0
    6.2296    1.2431   -0.5283 C   0  0  0  0  0  0  0  0  0  0  0  0
    4.9774    0.8719   -0.2001 N   0  0  0  0  0  0  0  0  0  0  0  0
    0.8630   -2.2495   -0.4374 C   0  0  0  0  0  0  0  0  0  0  0  0
    1.1105   -2.1480   -1.6422 O   0  0  0  0  0  0  0  0  0  0  0  0
   -0.5023   -1.9953    0.0923 C   0  0  0  0  0  0  0  0  0  0  0  0
   -1.5153   -1.7172   -0.7472 C   0  0  0  0  0  0  0  0  0  0  0  0
   -2.8412   -1.4807   -0.3368 N   0  0  0  0  0  0  0  0  0  0  0  0
   -3.8372   -1.0757   -1.3533 C   0  0  0  0  0  0  0  0  0  0  0  0
   -3.6102    0.3438   -1.8334 C   0  0  0  0  0  0  0  0  0  0  0  0
   -3.8534    1.4335   -0.9887 C   0  0  0  0  0  0  0  0  0  0  0  0
   -3.6392    2.7397   -1.4349 C   0  0  0  0  0  0  0  0  0  0  0  0
   -3.1774    2.9838   -2.7291 C   0  0  0  0  0  0  0  0  0  0  0  0
   -3.0072    4.3057   -3.0357 O   0  0  0  0  0  0  0  0  0  0  0  0
   -2.4527    4.6023   -4.3108 C   0  0  0  0  0  0  0  0  0  0  0  0
   -2.9358    1.9055   -3.5791 C   0  0  0  0  0  0  0  0  0  0  0  0
   -3.1492    0.5952   -3.1338 C   0  0  0  0  0  0  0  0  0  0  0  0
   -6.0198    0.1953    5.0054 H   0  0  0  0  0  0  0  0  0  0  0  0
   -4.8422    0.3095    6.3287 H   0  0  0  0  0  0  0  0  0  0  0  0
   -5.1313    1.7267    5.2996 H   0  0  0  0  0  0  0  0  0  0  0  0
   -4.7335    1.5084    3.0021 H   0  0  0  0  0  0  0  0  0  0  0  0
   -3.2191    0.6941    2.6473 H   0  0  0  0  0  0  0  0  0  0  0  0
   -6.0315   -0.5893    2.6618 H   0  0  0  0  0  0  0  0  0  0  0  0
   -5.2098   -2.1489    1.0902 H   0  0  0  0  0  0  0  0  0  0  0  0
   -2.4068   -1.9320    3.0159 H   0  0  0  0  0  0  0  0  0  0  0  0
   -0.0158   -2.2367    3.4959 H   0  0  0  0  0  0  0  0  0  0  0  0
    2.7805   -4.6601    1.0812 H   0  0  0  0  0  0  0  0  0  0  0  0
    1.0667   -4.7411    0.6304 H   0  0  0  0  0  0  0  0  0  0  0  0
    2.3160   -4.5199   -0.6088 H   0  0  0  0  0  0  0  0  0  0  0  0
    5.5978   -2.4563   -0.1591 H   0  0  0  0  0  0  0  0  0  0  0  0
    9.3223   -0.0048   -1.2147 H   0  0  0  0  0  0  0  0  0  0  0  0
    9.8208    2.4088   -1.4791 H   0  0  0  0  0  0  0  0  0  0  0  0
    8.0135    4.0845   -1.1330 H   0  0  0  0  0  0  0  0  0  0  0  0
    5.7348    3.3249   -0.5283 H   0  0  0  0  0  0  0  0  0  0  0  0
   -1.3603   -1.6495   -1.8215 H   0  0  0  0  0  0  0  0  0  0  0  0
   -4.8694   -1.1605   -0.9954 H   0  0  0  0  0  0  0  0  0  0  0  0
   -3.7791   -1.7712   -2.2015 H   0  0  0  0  0  0  0  0  0  0  0  0
   -4.2014    1.2726    0.0270 H   0  0  0  0  0  0  0  0  0  0  0  0
   -3.8249    3.5754   -0.7647 H   0  0  0  0  0  0  0  0  0  0  0  0
   -3.1331    4.3003   -5.1130 H   0  0  0  0  0  0  0  0  0  0  0  0
   -1.4670    4.1429   -4.4338 H   0  0  0  0  0  0  0  0  0  0  0  0
   -2.3242    5.6871   -4.3750 H   0  0  0  0  0  0  0  0  0  0  0  0
   -2.5771    2.0465   -4.5931 H   0  0  0  0  0  0  0  0  0  0  0  0
   -2.9426   -0.2291   -3.8134 H   0  0  0  0  0  0  0  0  0  0  0  0
  1  2  1  0
  2  3  1  0
  3  4  1  0
  4  5  2  3
  5  6  1  0
  6  7  2  0
  7  8  1  0
  8  9  2  0
  9 10  1  0
 10 11  2  0
 10 12  1  0
 12 13  1  0
 12 14  1  0
 14 15  1  0
 15 16  2  0
 15 17  1  0
 17 18  2  0
 18 19  1  0
 19 20  2  0
 20 21  1  0
 21 22  2  0
 22 23  1  0
 23 24  2  0
 24 25  1  0
 25 26  2  0
 12 27  1  0
 27 28  2  0
 27 29  1  0
 29 30  2  0
 30 31  1  0
 31 32  1  0
 32 33  1  0
 33 34  2  0
 34 35  1  0
 35 36  2  0
 36 37  1  0
 37 38  1  0
 36 39  1  0
 39 40  2  0
 31  6  1  0
 40 33  1  0
 29  8  1  0
 26 17  1  0
 25 20  1  0
  1 41  1  0
  1 42  1  0
  1 43  1  0
  3 44  1  0
  3 45  1  0
  4 46  1  0
  5 47  1  0
  7 48  1  0
  9 49  1  0
 13 50  1  0
 13 51  1  0
 13 52  1  0
 18 53  1  0
 21 54  1  0
 22 55  1  0
 23 56  1  0
 24 57  1  0
 30 58  1  0
 32 59  1  0
 32 60  1  0
 34 61  1  0
 35 62  1  0
 38 63  1  0
 38 64  1  0
 38 65  1  0
 39 66  1  0
 40 67  1  0
M  END
$$$$
