
     RDKit          3D

 38 40  0  0  0  0  0  0  0  0999 V2000
    2.1202    2.0275    0.3920 O   0  0  0  0  0  0  0  0  0  0  0  0
    2.4437    0.8440    0.4567 C   0  0  0  0  0  0  0  0  0  0  0  0
    1.5635   -0.1387    0.8717 N   0  0  0  0  0  0  0  0  0  0  0  0
    0.2124    0.2501    1.0081 N   0  0  0  0  0  0  0  0  0  0  0  0
   -0.7309   -0.6140    0.4687 C   0  0  0  0  0  0  0  0  0  0  0  0
   -0.4218   -1.7446    0.0917 O   0  0  0  0  0  0  0  0  0  0  0  0
   -2.1443   -0.0354    0.4122 C   0  0  0  0  0  0  0  0  0  0  0  0
   -2.7270    0.0030    1.8196 C   0  0  0  0  0  0  0  0  0  0  0  0
   -3.9946    0.6730    1.8199 O   0  0  0  0  0  0  0  0  0  0  0  0
   -4.7908    0.2266    0.7958 C   0  0  0  0  0  0  0  0  0  0  0  0
   -6.1454    0.5443    0.8687 C   0  0  0  0  0  0  0  0  0  0  0  0
   -7.0167    0.1027   -0.1285 C   0  0  0  0  0  0  0  0  0  0  0  0
   -6.5316   -0.6534   -1.1973 C   0  0  0  0  0  0  0  0  0  0  0  0
   -5.1721   -0.9598   -1.2775 C   0  0  0  0  0  0  0  0  0  0  0  0
   -4.3001   -0.5067   -0.2899 C   0  0  0  0  0  0  0  0  0  0  0  0
   -2.9749   -0.8235   -0.4440 O   0  0  0  0  0  0  0  0  0  0  0  0
    3.8053    0.4009    0.0494 C   0  0  0  0  0  0  0  0  0  0  0  0
    4.3599   -0.8080    0.4961 C   0  0  0  0  0  0  0  0  0  0  0  0
    5.6453   -1.1843    0.0958 C   0  0  0  0  0  0  0  0  0  0  0  0
    6.3882   -0.3558   -0.7461 C   0  0  0  0  0  0  0  0  0  0  0  0
    5.8393    0.8576   -1.1822 C   0  0  0  0  0  0  0  0  0  0  0  0
    6.6226    1.7326   -2.0638 N   0  0  0  0  0  4  0  0  0  0  0  0
    6.0726    2.7530   -2.5000 O   0  0  0  0  0  0  0  0  0  0  0  0
    7.7869    1.3956   -2.3212 O   0  0  0  0  0  1  0  0  0  0  0  0
    4.5522    1.2429   -0.7860 C   0  0  0  0  0  0  0  0  0  0  0  0
    1.6949   -1.1118    0.5910 H   0  0  0  0  0  0  0  0  0  0  0  0
    0.0673    1.2618    0.9697 H   0  0  0  0  0  0  0  0  0  0  0  0
   -2.0833    0.9733   -0.0193 H   0  0  0  0  0  0  0  0  0  0  0  0
   -2.8651   -1.0062    2.2301 H   0  0  0  0  0  0  0  0  0  0  0  0
   -2.0740    0.5498    2.5079 H   0  0  0  0  0  0  0  0  0  0  0  0
   -6.5241    1.1243    1.7056 H   0  0  0  0  0  0  0  0  0  0  0  0
   -8.0752    0.3436   -0.0695 H   0  0  0  0  0  0  0  0  0  0  0  0
   -7.2121   -1.0016   -1.9703 H   0  0  0  0  0  0  0  0  0  0  0  0
   -4.7924   -1.5423   -2.1124 H   0  0  0  0  0  0  0  0  0  0  0  0
    3.8188   -1.4619    1.1761 H   0  0  0  0  0  0  0  0  0  0  0  0
    6.0715   -2.1224    0.4472 H   0  0  0  0  0  0  0  0  0  0  0  0
    7.3880   -0.6648   -1.0469 H   0  0  0  0  0  0  0  0  0  0  0  0
    4.1236    2.1875   -1.1194 H   0  0  0  0  0  0  0  0  0  0  0  0
  1  2  2  0
  2  3  1  0
  3  4  1  0
  4  5  1  0
  5  6  2  0
  5  7  1  0
  7  8  1  0
  8  9  1  0
  9 10  1  0
 10 11  2  0
 11 12  1  0
 12 13  2  0
 13 14  1  0
 14 15  2  0
 15 16  1  0
  2 17  1  0
 17 18  2  0
 18 19  1  0
 19 20  2  0
 20 21  1  0
 21 22  1  0
 22 23  2  0
 22 24  1  0
 21 25  2  0
 16  7  1  0
 25 17  1  0
 15 10  1  0
  3 26  1  0
  4 27  1  0
  7 28  1  0
  8 29  1  0
  8 30  1  0
 11 31  1  0
 12 32  1  0
 13 33  1  0
 14 34  1  0
 18 35  1  0
 19 36  1  0
 20 37  1  0
 25 38  1  0
M  CHG  2  22   1  24  -1
M  END
$$$$
