
     RDKit          3D

 60 61  0  0  0  0  0  0  0  0999 V2000
   -6.5225    0.4575    0.1466 C   0  0  0  0  0  0  0  0  0  0  0  0
   -5.5743    1.2718    0.8248 O   0  0  0  0  0  0  0  0  0  0  0  0
   -4.3306    0.7405    1.0382 C   0  0  0  0  0  0  0  0  0  0  0  0
   -3.8906   -0.5108    0.6055 C   0  0  0  0  0  0  0  0  0  0  0  0
   -2.5853   -0.9335    0.8850 C   0  0  0  0  0  0  0  0  0  0  0  0
   -2.0701   -2.1340    0.4571 O   0  0  0  0  0  0  0  0  0  0  0  0
   -3.0021   -3.1790    0.2054 C   0  0  0  0  0  0  0  0  0  0  0  0
   -1.7100   -0.0851    1.5946 C   0  0  0  0  0  0  0  0  0  0  0  0
   -0.3430   -0.5205    1.8712 C   0  0  0  0  0  0  0  0  0  0  0  0
    0.0162   -0.9165    3.1021 N   0  0  0  0  0  0  0  0  0  0  0  0
    1.3345   -1.3091    3.0061 O   0  0  0  0  0  0  0  0  0  0  0  0
    1.7828   -1.1264    1.7333 C   0  0  0  0  0  0  0  0  0  0  0  0
    3.1677   -1.4166    1.4852 C   0  0  0  0  0  0  0  0  0  0  0  0
    3.8498   -2.2107    2.1179 O   0  0  0  0  0  0  0  0  0  0  0  0
    3.6217   -0.6287    0.4744 O   0  0  0  0  0  0  0  0  0  0  0  0
    4.9795   -0.7442   -0.0187 C   0  0  0  0  0  0  0  0  0  0  0  0
    5.2501   -2.1432   -0.5824 C   0  0  0  0  0  0  0  0  0  0  0  0
    5.0628    0.2719   -1.1681 C   0  0  0  0  0  0  0  0  0  0  0  0
    5.9971   -0.3520    1.0574 C   0  0  0  0  0  0  0  0  0  0  0  0
    0.7403   -0.6587    0.9566 C   0  0  0  0  0  0  0  0  0  0  0  0
    0.7700   -0.4213   -0.4658 C   0  0  0  0  0  0  0  0  0  0  0  0
    1.5167   -1.0197   -1.2285 O   0  0  0  0  0  0  0  0  0  0  0  0
   -0.1270    0.5280   -0.8447 O   0  0  0  0  0  0  0  0  0  0  0  0
   -0.2983    0.8914   -2.2360 C   0  0  0  0  0  0  0  0  0  0  0  0
    0.9793    1.5118   -2.8092 C   0  0  0  0  0  0  0  0  0  0  0  0
   -0.7832   -0.3019   -3.0658 C   0  0  0  0  0  0  0  0  0  0  0  0
   -1.4028    1.9590   -2.2228 C   0  0  0  0  0  0  0  0  0  0  0  0
   -2.1513    1.1797    2.0273 C   0  0  0  0  0  0  0  0  0  0  0  0
   -1.2322    1.9721    2.6689 O   0  0  0  0  0  0  0  0  0  0  0  0
   -1.7301    3.0905    3.3914 C   0  0  0  0  0  0  0  0  0  0  0  0
   -3.4606    1.5783    1.7431 C   0  0  0  0  0  0  0  0  0  0  0  0
   -7.4611    1.0163    0.0869 H   0  0  0  0  0  0  0  0  0  0  0  0
   -6.1964    0.2438   -0.8765 H   0  0  0  0  0  0  0  0  0  0  0  0
   -6.7191   -0.4660    0.7010 H   0  0  0  0  0  0  0  0  0  0  0  0
   -4.5511   -1.1493    0.0336 H   0  0  0  0  0  0  0  0  0  0  0  0
   -2.4400   -4.1141    0.1207 H   0  0  0  0  0  0  0  0  0  0  0  0
   -3.7148   -3.2916    1.0292 H   0  0  0  0  0  0  0  0  0  0  0  0
   -3.5193   -3.0147   -0.7450 H   0  0  0  0  0  0  0  0  0  0  0  0
    5.2722   -2.9032    0.2045 H   0  0  0  0  0  0  0  0  0  0  0  0
    6.2126   -2.1834   -1.1038 H   0  0  0  0  0  0  0  0  0  0  0  0
    4.4614   -2.4395   -1.2832 H   0  0  0  0  0  0  0  0  0  0  0  0
    4.8339    1.2829   -0.8117 H   0  0  0  0  0  0  0  0  0  0  0  0
    6.0556    0.2844   -1.6298 H   0  0  0  0  0  0  0  0  0  0  0  0
    4.3234    0.0437   -1.9446 H   0  0  0  0  0  0  0  0  0  0  0  0
    5.7363    0.6132    1.5063 H   0  0  0  0  0  0  0  0  0  0  0  0
    7.0083   -0.2812    0.6422 H   0  0  0  0  0  0  0  0  0  0  0  0
    6.0295   -1.0792    1.8740 H   0  0  0  0  0  0  0  0  0  0  0  0
    0.8068    1.9282   -3.8075 H   0  0  0  0  0  0  0  0  0  0  0  0
    1.7885    0.7808   -2.8944 H   0  0  0  0  0  0  0  0  0  0  0  0
    1.3479    2.3118   -2.1573 H   0  0  0  0  0  0  0  0  0  0  0  0
   -0.0129   -1.0725   -3.1649 H   0  0  0  0  0  0  0  0  0  0  0  0
   -1.0701    0.0059   -4.0767 H   0  0  0  0  0  0  0  0  0  0  0  0
   -1.6467   -0.7804   -2.5889 H   0  0  0  0  0  0  0  0  0  0  0  0
   -2.3274    1.5576   -1.7921 H   0  0  0  0  0  0  0  0  0  0  0  0
   -1.6234    2.3287   -3.2293 H   0  0  0  0  0  0  0  0  0  0  0  0
   -1.1159    2.8112   -1.5960 H   0  0  0  0  0  0  0  0  0  0  0  0
   -2.5165    2.7964    4.0944 H   0  0  0  0  0  0  0  0  0  0  0  0
   -0.9022    3.5069    3.9733 H   0  0  0  0  0  0  0  0  0  0  0  0
   -2.0811    3.8703    2.7081 H   0  0  0  0  0  0  0  0  0  0  0  0
   -3.8330    2.5526    2.0435 H   0  0  0  0  0  0  0  0  0  0  0  0
  1  2  1  0
  2  3  1  0
  3  4  2  0
  4  5  1  0
  5  6  1  0
  6  7  1  0
  5  8  2  0
  8  9  1  0
  9 10  2  0
 10 11  1  0
 11 12  1  0
 12 13  1  0
 13 14  2  0
 13 15  1  0
 15 16  1  0
 16 17  1  0
 16 18  1  0
 16 19  1  0
 12 20  2  0
 20 21  1  0
 21 22  2  0
 21 23  1  0
 23 24  1  0
 24 25  1  0
 24 26  1  0
 24 27  1  0
  8 28  1  0
 28 29  1  0
 29 30  1  0
 28 31  2  0
 31  3  1  0
 20  9  1  0
  1 32  1  0
  1 33  1  0
  1 34  1  0
  4 35  1  0
  7 36  1  0
  7 37  1  0
  7 38  1  0
 17 39  1  0
 17 40  1  0
 17 41  1  0
 18 42  1  0
 18 43  1  0
 18 44  1  0
 19 45  1  0
 19 46  1  0
 19 47  1  0
 25 48  1  0
 25 49  1  0
 25 50  1  0
 26 51  1  0
 26 52  1  0
 26 53  1  0
 27 54  1  0
 27 55  1  0
 27 56  1  0
 30 57  1  0
 30 58  1  0
 30 59  1  0
 31 60  1  0
M  END
$$$$
