
     RDKit          3D

 36 37  0  0  0  0  0  0  0  0999 V2000
    1.0701   -1.4509    1.6991 O   0  0  0  0  0  0  0  0  0  0  0  0
    0.6609   -1.1949    0.5697 C   0  0  0  0  0  0  0  0  0  0  0  0
   -0.1748   -2.1897   -0.2398 C   0  0  0  0  0  0  0  0  0  0  0  0
   -1.5587   -1.8405   -0.3064 O   0  0  0  0  0  0  0  0  0  0  0  0
   -1.8630   -0.8984   -1.2287 C   0  0  0  0  0  0  0  0  0  0  0  0
   -1.0933   -0.3230   -1.9790 O   0  0  0  0  0  0  0  0  0  0  0  0
   -3.3006   -0.6381   -1.1600 C   0  0  0  0  0  0  0  0  0  0  0  0
   -4.1970   -1.4672   -1.8402 C   0  0  0  0  0  0  0  0  0  0  0  0
   -3.6728   -2.8155   -2.7841 Cl  0  0  0  0  0  0  0  0  0  0  0  0
   -5.5687   -1.2059   -1.7797 C   0  0  0  0  0  0  0  0  0  0  0  0
   -6.0433   -0.1177   -1.0461 C   0  0  0  0  0  0  0  0  0  0  0  0
   -5.1466    0.7115   -0.3711 C   0  0  0  0  0  0  0  0  0  0  0  0
   -3.7736    0.4564   -0.4294 C   0  0  0  0  0  0  0  0  0  0  0  0
   -2.7164    1.5145    0.4344 Cl  0  0  0  0  0  0  0  0  0  0  0  0
    0.9238   -0.0106   -0.0829 N   0  0  0  0  0  0  0  0  0  0  0  0
    1.6458    1.0850    0.5338 C   0  0  0  0  0  0  0  0  0  0  0  0
    3.1223    1.1564    0.1081 C   0  0  0  0  0  0  0  0  0  0  0  0
    4.0110    0.0841    0.7241 C   0  0  0  0  0  0  0  0  0  0  0  0
    4.4333    0.7212    2.0238 C   0  0  0  0  0  0  0  0  0  0  0  0
    4.5894    2.1722    1.6242 C   0  0  0  0  0  0  0  0  0  0  0  0
    3.6651    2.4193    0.5538 O   0  0  0  0  0  0  0  0  0  0  0  0
    0.2548   -2.3121   -1.2426 H   0  0  0  0  0  0  0  0  0  0  0  0
   -0.1045   -3.1677    0.2497 H   0  0  0  0  0  0  0  0  0  0  0  0
   -6.2747   -1.8449   -2.3064 H   0  0  0  0  0  0  0  0  0  0  0  0
   -7.1104    0.0881   -1.0062 H   0  0  0  0  0  0  0  0  0  0  0  0
   -5.5251    1.5576    0.2002 H   0  0  0  0  0  0  0  0  0  0  0  0
    0.4768    0.1540   -0.9861 H   0  0  0  0  0  0  0  0  0  0  0  0
    1.1364    2.0066    0.2282 H   0  0  0  0  0  0  0  0  0  0  0  0
    1.5530    1.0290    1.6237 H   0  0  0  0  0  0  0  0  0  0  0  0
    3.1877    1.1245   -0.9858 H   0  0  0  0  0  0  0  0  0  0  0  0
    4.8947   -0.0573    0.0887 H   0  0  0  0  0  0  0  0  0  0  0  0
    3.5337   -0.8902    0.8488 H   0  0  0  0  0  0  0  0  0  0  0  0
    3.6356    0.6214    2.7703 H   0  0  0  0  0  0  0  0  0  0  0  0
    5.3453    0.2941    2.4499 H   0  0  0  0  0  0  0  0  0  0  0  0
    5.5995    2.3723    1.2483 H   0  0  0  0  0  0  0  0  0  0  0  0
    4.3845    2.8566    2.4519 H   0  0  0  0  0  0  0  0  0  0  0  0
  1  2  2  0
  2  3  1  0
  3  4  1  0
  4  5  1  0
  5  6  2  0
  5  7  1  0
  7  8  2  0
  8  9  1  0
  8 10  1  0
 10 11  2  0
 11 12  1  0
 12 13  2  0
 13 14  1  0
  2 15  1  0
 15 16  1  0
 16 17  1  0
 17 18  1  0
 18 19  1  0
 19 20  1  0
 20 21  1  0
 13  7  1  0
 21 17  1  0
  3 22  1  0
  3 23  1  0
 10 24  1  0
 11 25  1  0
 12 26  1  0
 15 27  1  0
 16 28  1  0
 16 29  1  0
 17 30  1  0
 18 31  1  0
 18 32  1  0
 19 33  1  0
 19 34  1  0
 20 35  1  0
 20 36  1  0
M  END
$$$$
