
     RDKit          3D

 54 57  0  0  0  0  0  0  0  0999 V2000
   -3.0390    5.6694    1.0378 C   0  0  0  0  0  0  0  0  0  0  0  0
   -2.9247    5.2303   -0.3098 O   0  0  0  0  0  0  0  0  0  0  0  0
   -2.2109    4.0845   -0.5273 C   0  0  0  0  0  0  0  0  0  0  0  0
   -2.0811    3.7215   -1.8689 C   0  0  0  0  0  0  0  0  0  0  0  0
   -1.3705    2.5750   -2.2349 C   0  0  0  0  0  0  0  0  0  0  0  0
   -0.7806    1.7603   -1.2584 C   0  0  0  0  0  0  0  0  0  0  0  0
    0.0254    0.5420   -1.6812 C   0  0  0  0  0  0  0  0  0  0  0  0
    1.5190    0.8690   -1.7317 C   0  0  0  0  0  0  0  0  0  0  0  0
    2.0247    0.0173   -0.6016 C   0  0  0  0  0  0  0  0  0  0  0  0
    3.4349    0.0782   -0.1507 C   0  0  0  0  0  0  0  0  0  0  0  0
    4.3845    0.8405   -0.8401 C   0  0  0  0  0  0  0  0  0  0  0  0
    5.7067    0.8667   -0.3980 C   0  0  0  0  0  0  0  0  0  0  0  0
    6.0773    0.1380    0.7327 C   0  0  0  0  0  0  0  0  0  0  0  0
    5.1353   -0.6182    1.4344 C   0  0  0  0  0  0  0  0  0  0  0  0
    5.6327   -1.2793    2.5236 O   0  0  0  0  0  0  0  0  0  0  0  0
    4.6955   -1.9735    3.3370 C   0  0  0  0  0  0  0  0  0  0  0  0
    3.8142   -0.6510    0.9867 C   0  0  0  0  0  0  0  0  0  0  0  0
    1.1473   -0.7839   -0.0787 N   0  0  0  0  0  0  0  0  0  0  0  0
   -0.0416   -0.5569   -0.7135 N   0  0  0  0  0  0  0  0  0  0  0  0
   -1.0822   -1.4825   -0.6203 C   0  0  0  0  0  0  0  0  0  0  0  0
   -0.9643   -2.6143    0.2101 C   0  0  0  0  0  0  0  0  0  0  0  0
   -1.9834   -3.5663    0.3169 C   0  0  0  0  0  0  0  0  0  0  0  0
   -3.1601   -3.3912   -0.4067 C   0  0  0  0  0  0  0  0  0  0  0  0
   -4.4369   -4.6056   -0.2925 S   0  0  0  0  0  6  0  0  0  0  0  0
   -4.9734   -4.4143    1.2868 N   0  0  0  0  0  0  0  0  0  0  0  0
   -5.5494   -4.2158   -1.1282 O   0  0  0  0  0  0  0  0  0  0  0  0
   -3.8415   -5.9189   -0.3616 O   0  0  0  0  0  0  0  0  0  0  0  0
   -3.3175   -2.2818   -1.2352 C   0  0  0  0  0  0  0  0  0  0  0  0
   -2.2863   -1.3383   -1.3320 C   0  0  0  0  0  0  0  0  0  0  0  0
   -0.9157    2.1337    0.0881 C   0  0  0  0  0  0  0  0  0  0  0  0
   -1.6266    3.2832    0.4515 C   0  0  0  0  0  0  0  0  0  0  0  0
   -3.6185    6.5974    1.0373 H   0  0  0  0  0  0  0  0  0  0  0  0
   -2.0552    5.8911    1.4660 H   0  0  0  0  0  0  0  0  0  0  0  0
   -3.5810    4.9393    1.6490 H   0  0  0  0  0  0  0  0  0  0  0  0
   -2.5372    4.3403   -2.6377 H   0  0  0  0  0  0  0  0  0  0  0  0
   -1.2841    2.3267   -3.2894 H   0  0  0  0  0  0  0  0  0  0  0  0
   -0.2998    0.2026   -2.6728 H   0  0  0  0  0  0  0  0  0  0  0  0
    1.9657    0.5211   -2.6695 H   0  0  0  0  0  0  0  0  0  0  0  0
    1.7525    1.9264   -1.5764 H   0  0  0  0  0  0  0  0  0  0  0  0
    4.1233    1.4122   -1.7255 H   0  0  0  0  0  0  0  0  0  0  0  0
    6.4511    1.4452   -0.9369 H   0  0  0  0  0  0  0  0  0  0  0  0
    7.1098    0.1592    1.0741 H   0  0  0  0  0  0  0  0  0  0  0  0
    5.2388   -2.3869    4.1911 H   0  0  0  0  0  0  0  0  0  0  0  0
    4.2469   -2.8099    2.7943 H   0  0  0  0  0  0  0  0  0  0  0  0
    3.9274   -1.2967    3.7273 H   0  0  0  0  0  0  0  0  0  0  0  0
    3.0614   -1.2380    1.5044 H   0  0  0  0  0  0  0  0  0  0  0  0
   -0.0512   -2.7659    0.7812 H   0  0  0  0  0  0  0  0  0  0  0  0
   -1.8463   -4.4306    0.9581 H   0  0  0  0  0  0  0  0  0  0  0  0
   -4.8185   -5.2758    1.8119 H   0  0  0  0  0  0  0  0  0  0  0  0
   -5.9424   -4.0980    1.2867 H   0  0  0  0  0  0  0  0  0  0  0  0
   -4.2298   -2.1377   -1.8090 H   0  0  0  0  0  0  0  0  0  0  0  0
   -2.4518   -0.4828   -1.9774 H   0  0  0  0  0  0  0  0  0  0  0  0
   -0.4694    1.5234    0.8716 H   0  0  0  0  0  0  0  0  0  0  0  0
   -1.7036    3.5192    1.5077 H   0  0  0  0  0  0  0  0  0  0  0  0
  1  2  1  0
  2  3  1  0
  3  4  2  0
  4  5  1  0
  5  6  2  0
  6  7  1  0
  7  8  1  0
  8  9  1  0
  9 10  1  0
 10 11  2  0
 11 12  1  0
 12 13  2  0
 13 14  1  0
 14 15  1  0
 15 16  1  0
 14 17  2  0
  9 18  2  0
 18 19  1  0
 19 20  1  0
 20 21  2  0
 21 22  1  0
 22 23  2  0
 23 24  1  0
 24 25  1  0
 24 26  2  0
 24 27  2  0
 23 28  1  0
 28 29  2  0
  6 30  1  0
 30 31  2  0
 31  3  1  0
 19  7  1  0
 29 20  1  0
 17 10  1  0
  1 32  1  0
  1 33  1  0
  1 34  1  0
  4 35  1  0
  5 36  1  0
  7 37  1  0
  8 38  1  0
  8 39  1  0
 11 40  1  0
 12 41  1  0
 13 42  1  0
 16 43  1  0
 16 44  1  0
 16 45  1  0
 17 46  1  0
 21 47  1  0
 22 48  1  0
 25 49  1  0
 25 50  1  0
 28 51  1  0
 29 52  1  0
 30 53  1  0
 31 54  1  0
M  END
$$$$
