
     RDKit          3D

 48 51  0  0  0  0  0  0  0  0999 V2000
   -7.3793   -2.8123   -0.8119 C   0  0  0  0  0  0  0  0  0  0  0  0
   -6.3518   -1.7426   -0.5770 C   0  0  0  0  0  0  0  0  0  0  0  0
   -6.7571   -0.4930   -0.1240 C   0  0  0  0  0  0  0  0  0  0  0  0
   -5.8119    0.5229    0.1009 C   0  0  0  0  0  0  0  0  0  0  0  0
   -6.2940    1.8640    0.5788 C   0  0  0  0  0  0  0  0  0  0  0  0
   -4.4450    0.2015   -0.1336 C   0  0  0  0  0  0  0  0  0  0  0  0
   -3.2064    0.9333   -0.0084 C   0  0  0  0  0  0  0  0  0  0  0  0
   -3.1194    2.2156    0.4250 N   0  0  0  0  0  0  0  0  0  0  0  0
   -2.0900    0.2020   -0.3816 C   0  0  0  0  0  0  0  0  0  0  0  0
   -0.6944    0.6294   -0.3682 C   0  0  0  0  0  0  0  0  0  0  0  0
   -0.3315    1.7270    0.0641 O   0  0  0  0  0  0  0  0  0  0  0  0
    0.2272   -0.2835   -0.8865 N   0  0  0  0  0  0  0  0  0  0  0  0
    1.6037   -0.1344   -0.5653 N   0  0  0  0  0  0  0  0  0  0  0  0
    2.2688    0.9589   -1.2554 C   0  0  0  0  0  0  0  0  0  0  0  0
    3.7794    0.7326   -1.2374 C   0  0  0  0  0  0  0  0  0  0  0  0
    4.4760    1.1639   -2.1559 O   0  0  0  0  0  0  0  0  0  0  0  0
    4.2663    0.1400   -0.0559 N   0  0  0  0  0  0  0  0  0  0  0  0
    5.6744   -0.0896    0.1349 C   0  0  0  0  0  0  0  0  0  0  0  0
    6.4896   -0.4492   -0.9503 C   0  0  0  0  0  0  0  0  0  0  0  0
    7.8567   -0.7045   -0.7821 C   0  0  0  0  0  0  0  0  0  0  0  0
    8.4401   -0.6062    0.4773 C   0  0  0  0  0  0  0  0  0  0  0  0
    7.6553   -0.2494    1.5682 C   0  0  0  0  0  0  0  0  0  0  0  0
    6.2935    0.0037    1.3945 C   0  0  0  0  0  0  0  0  0  0  0  0
    5.6039    0.3967    2.4770 F   0  0  0  0  0  0  0  0  0  0  0  0
    3.3664    0.0657    1.1063 C   0  0  0  0  0  0  0  0  0  0  0  0
    1.9853   -0.4652    0.7302 C   0  0  0  0  0  0  0  0  0  0  0  0
    1.2544   -1.0556    1.5233 O   0  0  0  0  0  0  0  0  0  0  0  0
   -2.5308   -1.3768   -0.8733 S   0  0  0  0  0  0  0  0  0  0  0  0
   -4.1808   -1.0859   -0.5922 C   0  0  0  0  0  0  0  0  0  0  0  0
   -5.0715   -2.0698   -0.8249 N   0  0  0  0  0  0  0  0  0  0  0  0
   -6.9121   -3.7245   -1.1969 H   0  0  0  0  0  0  0  0  0  0  0  0
   -7.8877   -3.0591    0.1251 H   0  0  0  0  0  0  0  0  0  0  0  0
   -8.1180   -2.4737   -1.5450 H   0  0  0  0  0  0  0  0  0  0  0  0
   -7.8138   -0.3046    0.0502 H   0  0  0  0  0  0  0  0  0  0  0  0
   -7.3866    1.9345    0.5503 H   0  0  0  0  0  0  0  0  0  0  0  0
   -5.9016    2.6598   -0.0617 H   0  0  0  0  0  0  0  0  0  0  0  0
   -5.9730    2.0309    1.6113 H   0  0  0  0  0  0  0  0  0  0  0  0
   -3.8418    2.6304    1.0027 H   0  0  0  0  0  0  0  0  0  0  0  0
   -2.1950    2.6076    0.6295 H   0  0  0  0  0  0  0  0  0  0  0  0
   -0.0873   -1.2489   -0.9575 H   0  0  0  0  0  0  0  0  0  0  0  0
    1.9278    0.9849   -2.2955 H   0  0  0  0  0  0  0  0  0  0  0  0
    2.0600    1.9095   -0.7547 H   0  0  0  0  0  0  0  0  0  0  0  0
    6.0760   -0.5627   -1.9497 H   0  0  0  0  0  0  0  0  0  0  0  0
    8.4617   -0.9823   -1.6425 H   0  0  0  0  0  0  0  0  0  0  0  0
    9.5016   -0.8015    0.6056 H   0  0  0  0  0  0  0  0  0  0  0  0
    8.0940   -0.1541    2.5568 H   0  0  0  0  0  0  0  0  0  0  0  0
    3.7589   -0.6482    1.8371 H   0  0  0  0  0  0  0  0  0  0  0  0
    3.2597    1.0629    1.5451 H   0  0  0  0  0  0  0  0  0  0  0  0
  1  2  1  0
  2  3  2  0
  3  4  1  0
  4  5  1  0
  4  6  2  0
  6  7  1  0
  7  8  1  0
  7  9  2  0
  9 10  1  0
 10 11  2  0
 10 12  1  0
 12 13  1  0
 13 14  1  0
 14 15  1  0
 15 16  2  0
 15 17  1  0
 17 18  1  0
 18 19  2  0
 19 20  1  0
 20 21  2  0
 21 22  1  0
 22 23  2  0
 23 24  1  0
 17 25  1  0
 25 26  1  0
 26 27  2  0
  9 28  1  0
 28 29  1  0
 29 30  2  0
 30  2  1  0
 29  6  1  0
 26 13  1  0
 23 18  1  0
  1 31  1  0
  1 32  1  0
  1 33  1  0
  3 34  1  0
  5 35  1  0
  5 36  1  0
  5 37  1  0
  8 38  1  0
  8 39  1  0
 12 40  1  0
 14 41  1  0
 14 42  1  0
 19 43  1  0
 20 44  1  0
 21 45  1  0
 22 46  1  0
 25 47  1  0
 25 48  1  0
M  END
$$$$
