
     RDKit          3D

 50 52  0  0  0  0  0  0  0  0999 V2000
   -7.2311    1.0807    0.5866 C   0  0  0  0  0  0  0  0  0  0  0  0
   -5.9694    0.2274    0.7209 C   0  0  0  0  0  0  0  0  0  0  0  0
   -5.8165   -0.7413   -0.4653 C   0  0  0  0  0  0  0  0  0  0  0  0
   -4.8157   -0.2391   -1.5000 C   0  0  0  0  0  0  0  0  0  0  0  0
   -3.4947   -0.0181   -0.9134 N   0  0  0  0  0  0  0  0  0  0  0  0
   -2.4008   -0.0119   -1.7746 C   0  0  0  0  0  0  0  0  0  0  0  0
   -2.4913   -0.0961   -2.9967 O   0  0  0  0  0  0  0  0  0  0  0  0
   -1.0381    0.0835   -1.2062 C   0  0  0  0  0  0  0  0  0  0  0  0
   -0.1603    1.0461   -1.7169 C   0  0  0  0  0  0  0  0  0  0  0  0
    1.1430    1.1423   -1.2196 C   0  0  0  0  0  0  0  0  0  0  0  0
    1.5872    0.2527   -0.2288 C   0  0  0  0  0  0  0  0  0  0  0  0
    3.2054    0.5195    0.4724 S   0  0  0  0  0  6  0  0  0  0  0  0
    3.5383    1.8993    0.1582 O   0  0  0  0  0  0  0  0  0  0  0  0
    3.1256    0.0998    1.8557 O   0  0  0  0  0  0  0  0  0  0  0  0
    4.2804   -0.5509   -0.4819 C   0  0  0  0  0  0  0  0  0  0  0  0
    5.6872   -0.4025    0.0256 C   0  0  0  0  0  0  0  0  0  0  0  0
    6.5326    0.6098   -0.4506 C   0  0  0  0  0  0  0  0  0  0  0  0
    7.8308    0.7388    0.0505 C   0  0  0  0  0  0  0  0  0  0  0  0
    8.2968   -0.1380    1.0304 C   0  0  0  0  0  0  0  0  0  0  0  0
    7.4637   -1.1453    1.5117 C   0  0  0  0  0  0  0  0  0  0  0  0
    6.1723   -1.2680    1.0095 C   0  0  0  0  0  0  0  0  0  0  0  0
    5.3874   -2.2481    1.4764 F   0  0  0  0  0  0  0  0  0  0  0  0
    0.7051   -0.7173    0.2578 C   0  0  0  0  0  0  0  0  0  0  0  0
    1.1110   -1.7168    1.2253 N   0  0  0  0  0  4  0  0  0  0  0  0
    0.4380   -1.8047    2.2591 O   0  0  0  0  0  0  0  0  0  0  0  0
    2.0391   -2.4606    0.8868 O   0  0  0  0  0  1  0  0  0  0  0  0
   -0.6057   -0.8183   -0.2319 C   0  0  0  0  0  0  0  0  0  0  0  0
   -3.4507    0.4138    0.4884 C   0  0  0  0  0  0  0  0  0  0  0  0
   -4.7352    1.1270    0.8987 C   0  0  0  0  0  0  0  0  0  0  0  0
   -7.2052    1.6891   -0.3237 H   0  0  0  0  0  0  0  0  0  0  0  0
   -7.3374    1.7541    1.4437 H   0  0  0  0  0  0  0  0  0  0  0  0
   -8.1246    0.4488    0.5457 H   0  0  0  0  0  0  0  0  0  0  0  0
   -6.0861   -0.3809    1.6279 H   0  0  0  0  0  0  0  0  0  0  0  0
   -6.7834   -0.9407   -0.9412 H   0  0  0  0  0  0  0  0  0  0  0  0
   -5.4582   -1.7054   -0.0797 H   0  0  0  0  0  0  0  0  0  0  0  0
   -4.7325   -0.9625   -2.3192 H   0  0  0  0  0  0  0  0  0  0  0  0
   -5.1497    0.7106   -1.9348 H   0  0  0  0  0  0  0  0  0  0  0  0
   -0.4977    1.7294   -2.4957 H   0  0  0  0  0  0  0  0  0  0  0  0
    1.7935    1.9274   -1.6044 H   0  0  0  0  0  0  0  0  0  0  0  0
    4.2140   -0.2457   -1.5313 H   0  0  0  0  0  0  0  0  0  0  0  0
    3.9392   -1.5836   -0.4048 H   0  0  0  0  0  0  0  0  0  0  0  0
    6.1855    1.3156   -1.2032 H   0  0  0  0  0  0  0  0  0  0  0  0
    8.4780    1.5313   -0.3189 H   0  0  0  0  0  0  0  0  0  0  0  0
    9.3055   -0.0323    1.4216 H   0  0  0  0  0  0  0  0  0  0  0  0
    7.8089   -1.8336    2.2767 H   0  0  0  0  0  0  0  0  0  0  0  0
   -1.2753   -1.5993    0.1244 H   0  0  0  0  0  0  0  0  0  0  0  0
   -3.3045   -0.4818    1.1028 H   0  0  0  0  0  0  0  0  0  0  0  0
   -2.5987    1.0814    0.6493 H   0  0  0  0  0  0  0  0  0  0  0  0
   -4.8410    2.0370    0.2933 H   0  0  0  0  0  0  0  0  0  0  0  0
   -4.6651    1.4526    1.9433 H   0  0  0  0  0  0  0  0  0  0  0  0
  1  2  1  0
  2  3  1  0
  3  4  1  0
  4  5  1  0
  5  6  1  0
  6  7  2  0
  6  8  1  0
  8  9  2  0
  9 10  1  0
 10 11  2  0
 11 12  1  0
 12 13  2  0
 12 14  2  0
 12 15  1  0
 15 16  1  0
 16 17  2  0
 17 18  1  0
 18 19  2  0
 19 20  1  0
 20 21  2  0
 21 22  1  0
 11 23  1  0
 23 24  1  0
 24 25  2  0
 24 26  1  0
 23 27  2  0
  5 28  1  0
 28 29  1  0
 29  2  1  0
 27  8  1  0
 21 16  1  0
  1 30  1  0
  1 31  1  0
  1 32  1  0
  2 33  1  0
  3 34  1  0
  3 35  1  0
  4 36  1  0
  4 37  1  0
  9 38  1  0
 10 39  1  0
 15 40  1  0
 15 41  1  0
 17 42  1  0
 18 43  1  0
 19 44  1  0
 20 45  1  0
 27 46  1  0
 28 47  1  0
 28 48  1  0
 29 49  1  0
 29 50  1  0
M  CHG  2  24   1  26  -1
M  END
$$$$
