
     RDKit          3D

 63 66  0  0  0  0  0  0  0  0999 V2000
    5.6429   -1.7185   -1.3117 C   0  0  0  0  0  0  0  0  0  0  0  0
    6.2676   -0.6072   -0.4601 C   0  0  0  0  0  0  0  0  0  0  0  0
    5.5521    0.7483   -0.6309 C   0  0  0  0  0  0  0  0  0  0  0  0
    4.1907    0.7434   -0.1201 N   0  0  0  0  0  0  0  0  0  0  0  0
    3.1050    0.5415   -0.9467 C   0  0  0  0  0  0  0  0  0  0  0  0
    3.2034    0.3547   -2.1544 O   0  0  0  0  0  0  0  0  0  0  0  0
    1.7640    0.5208   -0.2981 C   0  0  0  0  0  0  0  0  0  0  0  0
    0.7334   -0.1838   -0.9318 C   0  0  0  0  0  0  0  0  0  0  0  0
   -0.5513   -0.2221   -0.3771 C   0  0  0  0  0  0  0  0  0  0  0  0
   -0.8218    0.4566    0.8095 C   0  0  0  0  0  0  0  0  0  0  0  0
   -2.0238    0.5098    1.4558 O   0  0  0  0  0  0  0  0  0  0  0  0
   -3.2087    0.1126    0.7481 C   0  0  0  0  0  0  0  0  0  0  0  0
   -4.3584    1.0153    1.2248 C   0  0  0  0  0  0  0  0  0  0  0  0
   -5.1612    0.3606    2.3469 C   0  0  0  0  0  0  0  0  0  0  0  0
   -5.7278   -0.9366    1.9760 N   0  0  0  0  0  0  0  0  0  0  0  0
   -7.1849   -0.9420    1.7507 C   0  0  0  0  0  0  0  0  0  0  0  0
   -7.7143   -0.0756    0.6165 C   0  0  0  0  0  0  0  0  0  0  0  0
   -8.2271    1.1936    0.8824 C   0  0  0  0  0  0  0  0  0  0  0  0
   -8.6985    1.9685   -0.1738 C   0  0  0  0  0  0  0  0  0  0  0  0
   -8.6487    1.4618   -1.4654 C   0  0  0  0  0  0  0  0  0  0  0  0
   -8.1297    0.1930   -1.6478 C   0  0  0  0  0  0  0  0  0  0  0  0
   -7.6665   -0.5823   -0.6431 N   0  0  0  0  0  0  0  0  0  0  0  0
   -4.9872   -1.6571    0.9367 C   0  0  0  0  0  0  0  0  0  0  0  0
   -3.4922   -1.3695    1.0236 C   0  0  0  0  0  0  0  0  0  0  0  0
    0.2091    1.1561    1.4445 C   0  0  0  0  0  0  0  0  0  0  0  0
    1.4945    1.1995    0.8943 C   0  0  0  0  0  0  0  0  0  0  0  0
    7.7541   -0.4614   -0.7531 C   0  0  0  0  0  0  0  0  0  0  0  0
    8.6878   -0.5958    0.2856 C   0  0  0  0  0  0  0  0  0  0  0  0
   10.0548   -0.4572    0.0373 C   0  0  0  0  0  0  0  0  0  0  0  0
   10.5055   -0.1823   -1.2507 C   0  0  0  0  0  0  0  0  0  0  0  0
    9.5905   -0.0436   -2.2915 C   0  0  0  0  0  0  0  0  0  0  0  0
    8.2235   -0.1806   -2.0452 C   0  0  0  0  0  0  0  0  0  0  0  0
    4.6235   -1.9407   -0.9785 H   0  0  0  0  0  0  0  0  0  0  0  0
    6.2220   -2.6467   -1.2322 H   0  0  0  0  0  0  0  0  0  0  0  0
    5.5967   -1.4444   -2.3714 H   0  0  0  0  0  0  0  0  0  0  0  0
    6.1525   -0.9165    0.5882 H   0  0  0  0  0  0  0  0  0  0  0  0
    5.5458    1.0610   -1.6814 H   0  0  0  0  0  0  0  0  0  0  0  0
    6.0811    1.5240   -0.0647 H   0  0  0  0  0  0  0  0  0  0  0  0
    4.0668    0.7379    0.8817 H   0  0  0  0  0  0  0  0  0  0  0  0
    0.9286   -0.7094   -1.8653 H   0  0  0  0  0  0  0  0  0  0  0  0
   -1.3095   -0.7945   -0.8999 H   0  0  0  0  0  0  0  0  0  0  0  0
   -3.1029    0.3010   -0.3274 H   0  0  0  0  0  0  0  0  0  0  0  0
   -5.0284    1.2196    0.3805 H   0  0  0  0  0  0  0  0  0  0  0  0
   -3.9735    1.9835    1.5663 H   0  0  0  0  0  0  0  0  0  0  0  0
   -4.4935    0.1996    3.2035 H   0  0  0  0  0  0  0  0  0  0  0  0
   -5.9283    1.0529    2.7134 H   0  0  0  0  0  0  0  0  0  0  0  0
   -7.6857   -0.6529    2.6847 H   0  0  0  0  0  0  0  0  0  0  0  0
   -7.5167   -1.9739    1.5714 H   0  0  0  0  0  0  0  0  0  0  0  0
   -8.2610    1.5777    1.8965 H   0  0  0  0  0  0  0  0  0  0  0  0
   -9.1014    2.9594    0.0117 H   0  0  0  0  0  0  0  0  0  0  0  0
   -9.0068    2.0402   -2.3093 H   0  0  0  0  0  0  0  0  0  0  0  0
   -8.0707   -0.2494   -2.6378 H   0  0  0  0  0  0  0  0  0  0  0  0
   -5.3219   -1.3911   -0.0714 H   0  0  0  0  0  0  0  0  0  0  0  0
   -5.1544   -2.7336    1.0596 H   0  0  0  0  0  0  0  0  0  0  0  0
   -3.1051   -1.6621    2.0089 H   0  0  0  0  0  0  0  0  0  0  0  0
   -2.9547   -1.9925    0.2996 H   0  0  0  0  0  0  0  0  0  0  0  0
    0.0020    1.6891    2.3701 H   0  0  0  0  0  0  0  0  0  0  0  0
    2.2541    1.7918    1.3946 H   0  0  0  0  0  0  0  0  0  0  0  0
    8.3581   -0.8116    1.2987 H   0  0  0  0  0  0  0  0  0  0  0  0
   10.7687   -0.5659    0.8498 H   0  0  0  0  0  0  0  0  0  0  0  0
   11.5694   -0.0765   -1.4442 H   0  0  0  0  0  0  0  0  0  0  0  0
    9.9404    0.1700   -3.2973 H   0  0  0  0  0  0  0  0  0  0  0  0
    7.5281   -0.0666   -2.8742 H   0  0  0  0  0  0  0  0  0  0  0  0
  1  2  1  0
  2  3  1  0
  3  4  1  0
  4  5  1  0
  5  6  2  0
  5  7  1  0
  7  8  2  0
  8  9  1  0
  9 10  2  0
 10 11  1  0
 11 12  1  0
 12 13  1  0
 13 14  1  0
 14 15  1  0
 15 16  1  0
 16 17  1  0
 17 18  2  0
 18 19  1  0
 19 20  2  0
 20 21  1  0
 21 22  2  0
 15 23  1  0
 23 24  1  0
 10 25  1  0
 25 26  2  0
  2 27  1  0
 27 28  2  0
 28 29  1  0
 29 30  2  0
 30 31  1  0
 31 32  2  0
 26  7  1  0
 32 27  1  0
 24 12  1  0
 22 17  1  0
  1 33  1  0
  1 34  1  0
  1 35  1  0
  2 36  1  0
  3 37  1  0
  3 38  1  0
  4 39  1  0
  8 40  1  0
  9 41  1  0
 12 42  1  0
 13 43  1  0
 13 44  1  0
 14 45  1  0
 14 46  1  0
 16 47  1  0
 16 48  1  0
 18 49  1  0
 19 50  1  0
 20 51  1  0
 21 52  1  0
 23 53  1  0
 23 54  1  0
 24 55  1  0
 24 56  1  0
 25 57  1  0
 26 58  1  0
 28 59  1  0
 29 60  1  0
 30 61  1  0
 31 62  1  0
 32 63  1  0
M  END
$$$$
