
     RDKit          3D

 55 59  0  0  0  0  0  0  0  0999 V2000
   -8.5137    1.9584   -2.1676 C   0  0  0  0  0  0  0  0  0  0  0  0
   -7.3295    1.6623   -1.2971 C   0  0  0  0  0  0  0  0  0  0  0  0
   -6.6145    2.7030   -0.6929 C   0  0  0  0  0  0  0  0  0  0  0  0
   -5.4979    2.4297    0.1002 C   0  0  0  0  0  0  0  0  0  0  0  0
   -5.0711    1.1091    0.2971 C   0  0  0  0  0  0  0  0  0  0  0  0
   -3.8756    0.8079    1.1676 C   0  0  0  0  0  0  0  0  0  0  0  0
   -2.3191    0.9379    0.2523 S   0  0  0  0  0  0  0  0  0  0  0  0
   -1.1972    0.3089    1.4516 C   0  0  0  0  0  0  0  0  0  0  0  0
   -1.5780    0.3402    2.7016 N   0  0  0  0  0  0  0  0  0  0  0  0
   -0.7315   -0.1563    3.7143 C   0  0  0  0  0  0  0  0  0  0  0  0
   -1.1612   -0.1023    5.0423 C   0  0  0  0  0  0  0  0  0  0  0  0
   -0.3496   -0.5921    6.0692 C   0  0  0  0  0  0  0  0  0  0  0  0
    0.8990   -1.1408    5.7736 C   0  0  0  0  0  0  0  0  0  0  0  0
    1.3404   -1.1994    4.4503 C   0  0  0  0  0  0  0  0  0  0  0  0
    0.5271   -0.7069    3.4267 C   0  0  0  0  0  0  0  0  0  0  0  0
    0.9235   -0.7274    2.0316 C   0  0  0  0  0  0  0  0  0  0  0  0
    2.0339   -1.1920    1.4987 N   0  0  0  0  0  0  0  0  0  0  0  0
    1.9167   -0.9602    0.1492 C   0  0  0  0  0  0  0  0  0  0  0  0
    2.9923   -1.4318   -0.7678 C   0  0  0  0  0  0  0  0  0  0  0  0
    3.4210   -0.3693   -1.7624 C   0  0  0  0  0  0  0  0  0  0  0  0
    2.6069    0.2331   -2.4646 O   0  0  0  0  0  0  0  0  0  0  0  0
    4.7825   -0.1623   -1.8349 N   0  0  0  0  0  0  0  0  0  0  0  0
    5.3599    0.7969   -2.7482 C   0  0  0  0  0  0  0  0  0  0  0  0
    6.6634    0.2685   -3.2225 C   0  0  0  0  0  0  0  0  0  0  0  0
    7.9786    0.5360   -2.8946 C   0  0  0  0  0  0  0  0  0  0  0  0
    8.7752   -0.3051   -3.7121 C   0  0  0  0  0  0  0  0  0  0  0  0
    7.8989   -1.0308   -4.4841 C   0  0  0  0  0  0  0  0  0  0  0  0
    6.6164   -0.6924   -4.1910 O   0  0  0  0  0  0  0  0  0  0  0  0
    0.7155   -0.3273   -0.1337 C   0  0  0  0  0  0  0  0  0  0  0  0
    0.2067    0.1204   -1.2773 O   0  0  0  0  0  0  0  0  0  0  0  0
    0.0613   -0.2093    1.0832 N   0  0  0  0  0  0  0  0  0  0  0  0
   -5.7697    0.0713   -0.3370 C   0  0  0  0  0  0  0  0  0  0  0  0
   -6.8881    0.3461   -1.1270 C   0  0  0  0  0  0  0  0  0  0  0  0
   -9.0305    2.8648   -1.8317 H   0  0  0  0  0  0  0  0  0  0  0  0
   -8.1913    2.0984   -3.2054 H   0  0  0  0  0  0  0  0  0  0  0  0
   -9.2420    1.1394   -2.1310 H   0  0  0  0  0  0  0  0  0  0  0  0
   -6.9229    3.7359   -0.8359 H   0  0  0  0  0  0  0  0  0  0  0  0
   -4.9601    3.2563    0.5633 H   0  0  0  0  0  0  0  0  0  0  0  0
   -3.9756   -0.2038    1.5756 H   0  0  0  0  0  0  0  0  0  0  0  0
   -3.8671    1.4967    2.0201 H   0  0  0  0  0  0  0  0  0  0  0  0
   -2.1332    0.3241    5.2767 H   0  0  0  0  0  0  0  0  0  0  0  0
   -0.6930   -0.5430    7.1013 H   0  0  0  0  0  0  0  0  0  0  0  0
    1.5290   -1.5223    6.5745 H   0  0  0  0  0  0  0  0  0  0  0  0
    2.3133   -1.6260    4.2173 H   0  0  0  0  0  0  0  0  0  0  0  0
    2.6361   -2.2958   -1.3395 H   0  0  0  0  0  0  0  0  0  0  0  0
    3.8543   -1.7679   -0.1812 H   0  0  0  0  0  0  0  0  0  0  0  0
    5.4049   -0.6455   -1.2029 H   0  0  0  0  0  0  0  0  0  0  0  0
    5.4969    1.7348   -2.1988 H   0  0  0  0  0  0  0  0  0  0  0  0
    4.6856    0.9860   -3.5892 H   0  0  0  0  0  0  0  0  0  0  0  0
    8.3211    1.2603   -2.1618 H   0  0  0  0  0  0  0  0  0  0  0  0
    9.8553   -0.3720   -3.7382 H   0  0  0  0  0  0  0  0  0  0  0  0
    8.0206   -1.7929   -5.2457 H   0  0  0  0  0  0  0  0  0  0  0  0
    0.9362    0.1932   -1.9343 H   0  0  0  0  0  0  0  0  0  0  0  0
   -5.4470   -0.9604   -0.2185 H   0  0  0  0  0  0  0  0  0  0  0  0
   -7.4127   -0.4755   -1.6092 H   0  0  0  0  0  0  0  0  0  0  0  0
  1  2  1  0
  2  3  2  0
  3  4  1  0
  4  5  2  0
  5  6  1  0
  6  7  1  0
  7  8  1  0
  8  9  2  0
  9 10  1  0
 10 11  2  0
 11 12  1  0
 12 13  2  0
 13 14  1  0
 14 15  2  0
 15 16  1  0
 16 17  2  0
 17 18  1  0
 18 19  1  0
 19 20  1  0
 20 21  2  0
 20 22  1  0
 22 23  1  0
 23 24  1  0
 24 25  2  0
 25 26  1  0
 26 27  2  0
 27 28  1  0
 18 29  2  0
 29 30  1  0
 29 31  1  0
  5 32  1  0
 32 33  2  0
 33  2  1  0
 31  8  1  0
 15 10  1  0
 31 16  1  0
 28 24  1  0
  1 34  1  0
  1 35  1  0
  1 36  1  0
  3 37  1  0
  4 38  1  0
  6 39  1  0
  6 40  1  0
 11 41  1  0
 12 42  1  0
 13 43  1  0
 14 44  1  0
 19 45  1  0
 19 46  1  0
 22 47  1  0
 23 48  1  0
 23 49  1  0
 25 50  1  0
 26 51  1  0
 27 52  1  0
 30 53  1  0
 32 54  1  0
 33 55  1  0
M  END
$$$$
