
     RDKit          3D

 35 37  0  0  0  0  0  0  0  0999 V2000
    1.3330   -2.8342   -0.1893 O   0  0  0  0  0  0  0  0  0  0  0  0
    2.0401   -1.7109   -0.1532 C   0  0  0  0  0  0  0  0  0  0  0  0
    3.3971   -1.7520   -0.2898 N   0  0  0  0  0  0  0  0  0  0  0  0
    3.9228   -0.4829   -0.2225 C   0  0  0  0  0  0  0  0  0  0  0  0
    5.2515   -0.0516   -0.3125 C   0  0  0  0  0  0  0  0  0  0  0  0
    5.4959    1.3203   -0.2070 C   0  0  0  0  0  0  0  0  0  0  0  0
    4.4519    2.2225   -0.0188 C   0  0  0  0  0  0  0  0  0  0  0  0
    3.1282    1.7751    0.0692 C   0  0  0  0  0  0  0  0  0  0  0  0
    2.8521    0.3950   -0.0343 C   0  0  0  0  0  0  0  0  0  0  0  0
    1.6575   -0.3927    0.0081 C   0  0  0  0  0  0  0  0  0  0  0  0
    0.2968    0.0649    0.1813 C   0  0  0  0  0  0  0  0  0  0  0  0
   -0.6571   -0.8157    0.1973 N   0  0  0  0  0  0  0  0  0  0  0  0
   -1.9318   -0.3042    0.3362 N   0  0  0  0  0  0  0  0  0  0  0  0
   -2.8819   -1.2720    0.8950 C   0  0  0  0  0  0  0  0  0  0  0  0
   -4.1843   -0.5927    1.3052 C   0  0  0  0  0  0  0  0  0  0  0  0
   -4.7793    0.2032    0.1454 C   0  0  0  0  0  0  0  0  0  0  0  0
   -3.7541    1.1847   -0.4190 C   0  0  0  0  0  0  0  0  0  0  0  0
   -2.4572    0.4745   -0.7967 C   0  0  0  0  0  0  0  0  0  0  0  0
    0.3973   -2.5558   -0.0641 H   0  0  0  0  0  0  0  0  0  0  0  0
    3.9266   -2.6010   -0.4204 H   0  0  0  0  0  0  0  0  0  0  0  0
    6.0672   -0.7525   -0.4585 H   0  0  0  0  0  0  0  0  0  0  0  0
    6.5178    1.6872   -0.2724 H   0  0  0  0  0  0  0  0  0  0  0  0
    4.6658    3.2856    0.0616 H   0  0  0  0  0  0  0  0  0  0  0  0
    2.3268    2.4928    0.2174 H   0  0  0  0  0  0  0  0  0  0  0  0
    0.1184    1.1464    0.3049 H   0  0  0  0  0  0  0  0  0  0  0  0
   -3.0666   -2.0462    0.1407 H   0  0  0  0  0  0  0  0  0  0  0  0
   -2.4200   -1.7442    1.7694 H   0  0  0  0  0  0  0  0  0  0  0  0
   -4.9033   -1.3425    1.6528 H   0  0  0  0  0  0  0  0  0  0  0  0
   -3.9922    0.0868    2.1450 H   0  0  0  0  0  0  0  0  0  0  0  0
   -5.6682    0.7468    0.4840 H   0  0  0  0  0  0  0  0  0  0  0  0
   -5.1026   -0.4852   -0.6450 H   0  0  0  0  0  0  0  0  0  0  0  0
   -3.5416    1.9535    0.3345 H   0  0  0  0  0  0  0  0  0  0  0  0
   -4.1685    1.6953   -1.2951 H   0  0  0  0  0  0  0  0  0  0  0  0
   -2.6222   -0.2153   -1.6330 H   0  0  0  0  0  0  0  0  0  0  0  0
   -1.7159    1.2170   -1.1082 H   0  0  0  0  0  0  0  0  0  0  0  0
  1  2  1  0
  2  3  1  0
  3  4  1  0
  4  5  2  0
  5  6  1  0
  6  7  2  0
  7  8  1  0
  8  9  2  0
  9 10  1  0
 10 11  1  0
 11 12  2  3
 12 13  1  0
 13 14  1  0
 14 15  1  0
 15 16  1  0
 16 17  1  0
 17 18  1  0
 10  2  2  0
 18 13  1  0
  9  4  1  0
  1 19  1  0
  3 20  1  0
  5 21  1  0
  6 22  1  0
  7 23  1  0
  8 24  1  0
 11 25  1  0
 14 26  1  0
 14 27  1  0
 15 28  1  0
 15 29  1  0
 16 30  1  0
 16 31  1  0
 17 32  1  0
 17 33  1  0
 18 34  1  0
 18 35  1  0
M  END
$$$$
