
     RDKit          3D

 71 75  0  0  0  0  0  0  0  0999 V2000
    0.7310   -1.0188    4.9227 C   0  0  0  0  0  0  0  0  0  0  0  0
    0.7814    0.5021    4.9120 C   0  0  0  0  0  0  0  0  0  0  0  0
    0.7266    1.0245    3.5341 N   0  0  0  0  0  0  0  0  0  0  0  0
    1.8972    1.3167    2.8456 C   0  0  0  0  0  0  0  0  0  0  0  0
    2.0000    1.8024    1.6003 C   0  0  0  0  0  0  0  0  0  0  0  0
    3.3594    2.0374    1.0354 C   0  0  0  0  0  0  0  0  0  0  0  0
    4.3759    1.8916    1.7101 O   0  0  0  0  0  0  0  0  0  0  0  0
    3.3875    2.4111   -0.2842 N   0  0  0  0  0  0  0  0  0  0  0  0
    4.6124    2.6337   -1.0213 C   0  0  0  0  0  0  0  0  0  0  0  0
    5.0340    1.4141   -1.8443 C   0  0  0  0  0  0  0  0  0  0  0  0
    5.5655    0.2686   -0.9690 C   0  0  0  0  0  0  0  0  0  0  0  0
    6.0764   -0.9136   -1.6632 N   0  0  0  0  0  0  0  0  0  0  0  0
    5.1220   -1.6113   -2.5149 C   0  0  0  0  0  0  0  0  0  0  0  0
    6.0087   -2.6604   -3.1649 C   0  0  0  0  0  0  0  0  0  0  0  0
    7.3739   -1.9910   -3.2905 C   0  0  0  0  0  0  0  0  0  0  0  0
    7.2739   -0.7090   -2.4691 C   0  0  0  0  0  0  0  0  0  0  0  0
    0.7304    2.0463    0.8769 C   0  0  0  0  0  0  0  0  0  0  0  0
    0.7195    2.4584   -0.2814 O   0  0  0  0  0  0  0  0  0  0  0  0
   -0.5438    1.7593    1.5828 C   0  0  0  0  0  0  0  0  0  0  0  0
   -1.7493    2.0175    0.9112 C   0  0  0  0  0  0  0  0  0  0  0  0
   -2.9550    1.7129    1.5354 C   0  0  0  0  0  0  0  0  0  0  0  0
   -4.4990    2.0752    0.7360 S   0  0  0  0  0  6  0  0  0  0  0  0
   -5.4329    2.4565    1.7745 O   0  0  0  0  0  0  0  0  0  0  0  0
   -4.2396    2.9451   -0.3906 O   0  0  0  0  0  0  0  0  0  0  0  0
   -4.9674    0.5555    0.1267 N   0  0  0  0  0  0  0  0  0  0  0  0
   -4.1671    0.0555   -1.0244 C   0  0  0  0  0  0  0  0  0  0  0  0
   -4.4630   -1.4291   -1.2409 C   0  0  0  0  0  0  0  0  0  0  0  0
   -5.9405   -1.6929   -1.3802 C   0  0  0  0  0  0  0  0  0  0  0  0
   -6.3884   -2.8738   -1.9867 C   0  0  0  0  0  0  0  0  0  0  0  0
   -7.7526   -3.1425   -2.0851 C   0  0  0  0  0  0  0  0  0  0  0  0
   -8.6789   -2.2372   -1.5731 C   0  0  0  0  0  0  0  0  0  0  0  0
   -8.2426   -1.0639   -0.9584 C   0  0  0  0  0  0  0  0  0  0  0  0
   -6.8720   -0.7856   -0.8445 C   0  0  0  0  0  0  0  0  0  0  0  0
   -6.4258    0.4999   -0.1752 C   0  0  0  0  0  0  0  0  0  0  0  0
   -2.9641    1.1772    2.8221 C   0  0  0  0  0  0  0  0  0  0  0  0
   -1.7555    0.9402    3.4896 C   0  0  0  0  0  0  0  0  0  0  0  0
   -0.5157    1.2298    2.8938 C   0  0  0  0  0  0  0  0  0  0  0  0
    1.5602   -1.4435    4.3458 H   0  0  0  0  0  0  0  0  0  0  0  0
    0.8063   -1.3903    5.9499 H   0  0  0  0  0  0  0  0  0  0  0  0
   -0.2015   -1.3975    4.4930 H   0  0  0  0  0  0  0  0  0  0  0  0
    1.7171    0.8201    5.3911 H   0  0  0  0  0  0  0  0  0  0  0  0
   -0.0088    0.9284    5.5406 H   0  0  0  0  0  0  0  0  0  0  0  0
    2.7984    1.1079    3.4216 H   0  0  0  0  0  0  0  0  0  0  0  0
    2.4972    2.5262   -0.7714 H   0  0  0  0  0  0  0  0  0  0  0  0
    4.4130    3.4711   -1.6996 H   0  0  0  0  0  0  0  0  0  0  0  0
    5.4123    2.9404   -0.3373 H   0  0  0  0  0  0  0  0  0  0  0  0
    4.1817    1.0722   -2.4437 H   0  0  0  0  0  0  0  0  0  0  0  0
    5.8129    1.7409   -2.5420 H   0  0  0  0  0  0  0  0  0  0  0  0
    4.7685   -0.0683   -0.2958 H   0  0  0  0  0  0  0  0  0  0  0  0
    6.3602    0.6525   -0.3165 H   0  0  0  0  0  0  0  0  0  0  0  0
    4.6918   -0.9609   -3.2851 H   0  0  0  0  0  0  0  0  0  0  0  0
    4.3107   -2.0725   -1.9427 H   0  0  0  0  0  0  0  0  0  0  0  0
    6.0921   -3.5419   -2.5172 H   0  0  0  0  0  0  0  0  0  0  0  0
    5.6214   -2.9931   -4.1318 H   0  0  0  0  0  0  0  0  0  0  0  0
    8.1575   -2.6544   -2.9081 H   0  0  0  0  0  0  0  0  0  0  0  0
    7.6045   -1.7640   -4.3367 H   0  0  0  0  0  0  0  0  0  0  0  0
    8.1632   -0.5634   -1.8480 H   0  0  0  0  0  0  0  0  0  0  0  0
    7.1840    0.1447   -3.1499 H   0  0  0  0  0  0  0  0  0  0  0  0
   -1.7380    2.4513   -0.0867 H   0  0  0  0  0  0  0  0  0  0  0  0
   -3.0967    0.1655   -0.8324 H   0  0  0  0  0  0  0  0  0  0  0  0
   -4.4145    0.6300   -1.9262 H   0  0  0  0  0  0  0  0  0  0  0  0
   -4.0890   -2.0110   -0.3892 H   0  0  0  0  0  0  0  0  0  0  0  0
   -3.9351   -1.7670   -2.1402 H   0  0  0  0  0  0  0  0  0  0  0  0
   -5.6747   -3.5930   -2.3824 H   0  0  0  0  0  0  0  0  0  0  0  0
   -8.0924   -4.0607   -2.5560 H   0  0  0  0  0  0  0  0  0  0  0  0
   -9.7425   -2.4473   -1.6493 H   0  0  0  0  0  0  0  0  0  0  0  0
   -8.9785   -0.3688   -0.5585 H   0  0  0  0  0  0  0  0  0  0  0  0
   -6.7036    1.3396   -0.8253 H   0  0  0  0  0  0  0  0  0  0  0  0
   -6.9711    0.5834    0.7737 H   0  0  0  0  0  0  0  0  0  0  0  0
   -3.9059    0.9502    3.3186 H   0  0  0  0  0  0  0  0  0  0  0  0
   -1.8229    0.5233    4.4901 H   0  0  0  0  0  0  0  0  0  0  0  0
  1  2  1  0
  2  3  1  0
  3  4  1  0
  4  5  2  0
  5  6  1  0
  6  7  2  0
  6  8  1  0
  8  9  1  0
  9 10  1  0
 10 11  1  0
 11 12  1  0
 12 13  1  0
 13 14  1  0
 14 15  1  0
 15 16  1  0
  5 17  1  0
 17 18  2  0
 17 19  1  0
 19 20  2  0
 20 21  1  0
 21 22  1  0
 22 23  2  0
 22 24  2  0
 22 25  1  0
 25 26  1  0
 26 27  1  0
 27 28  1  0
 28 29  2  0
 29 30  1  0
 30 31  2  0
 31 32  1  0
 32 33  2  0
 33 34  1  0
 21 35  2  0
 35 36  1  0
 36 37  2  0
 37  3  1  0
 16 12  1  0
 37 19  1  0
 34 25  1  0
 33 28  1  0
  1 38  1  0
  1 39  1  0
  1 40  1  0
  2 41  1  0
  2 42  1  0
  4 43  1  0
  8 44  1  0
  9 45  1  0
  9 46  1  0
 10 47  1  0
 10 48  1  0
 11 49  1  0
 11 50  1  0
 13 51  1  0
 13 52  1  0
 14 53  1  0
 14 54  1  0
 15 55  1  0
 15 56  1  0
 16 57  1  0
 16 58  1  0
 20 59  1  0
 26 60  1  0
 26 61  1  0
 27 62  1  0
 27 63  1  0
 29 64  1  0
 30 65  1  0
 31 66  1  0
 32 67  1  0
 34 68  1  0
 34 69  1  0
 35 70  1  0
 36 71  1  0
M  END
$$$$
