
     RDKit          3D

 56 59  0  0  0  0  0  0  0  0999 V2000
    6.6090    0.8071    1.0152 C   0  0  0  0  0  0  0  0  0  0  0  0
    6.0244   -0.3310    0.1938 C   0  0  0  0  0  0  0  0  0  0  0  0
    5.0127    0.2129   -0.6689 O   0  0  0  0  0  0  0  0  0  0  0  0
    3.9202   -0.6154   -0.7211 C   0  0  0  0  0  0  0  0  0  0  0  0
    2.9762   -0.5387    0.3076 C   0  0  0  0  0  0  0  0  0  0  0  0
    1.8294   -1.3331    0.2565 C   0  0  0  0  0  0  0  0  0  0  0  0
    0.8433   -1.2577    1.3355 C   0  0  0  0  0  0  0  0  0  0  0  0
   -0.3265   -0.6029    1.2838 C   0  0  0  0  0  0  0  0  0  0  0  0
   -1.4170   -0.5792    2.6086 S   0  0  0  0  0  0  0  0  0  0  0  0
   -2.6354    0.3156    1.7138 C   0  0  0  0  0  0  0  0  0  0  0  0
   -3.8251    0.5858    2.1517 N   0  0  0  0  0  0  0  0  0  0  0  0
   -4.2330    0.2066    3.4364 C   0  0  0  0  0  0  0  0  0  0  0  0
   -4.9558   -0.9739    3.6240 C   0  0  0  0  0  0  0  0  0  0  0  0
   -5.3909   -1.3421    4.8995 C   0  0  0  0  0  0  0  0  0  0  0  0
   -5.1167   -0.5213    5.9937 C   0  0  0  0  0  0  0  0  0  0  0  0
   -4.4158    0.6702    5.8120 C   0  0  0  0  0  0  0  0  0  0  0  0
   -3.9834    1.0360    4.5349 C   0  0  0  0  0  0  0  0  0  0  0  0
   -2.1660    0.6501    0.4509 N   0  0  0  0  0  0  0  0  0  0  0  0
   -2.9194    1.4317   -0.4987 C   0  0  0  0  0  0  0  0  0  0  0  0
   -3.8835    2.3699   -0.0934 C   0  0  0  0  0  0  0  0  0  0  0  0
   -4.6013    3.1337   -1.0237 C   0  0  0  0  0  0  0  0  0  0  0  0
   -4.3645    2.9855   -2.3836 C   0  0  0  0  0  0  0  0  0  0  0  0
   -3.4195    2.0625   -2.8142 C   0  0  0  0  0  0  0  0  0  0  0  0
   -2.7080    1.2969   -1.8825 C   0  0  0  0  0  0  0  0  0  0  0  0
   -0.8795    0.1993    0.1515 C   0  0  0  0  0  0  0  0  0  0  0  0
   -0.2203    0.4392   -0.8509 O   0  0  0  0  0  0  0  0  0  0  0  0
    1.6391   -2.1957   -0.8293 C   0  0  0  0  0  0  0  0  0  0  0  0
    2.5786   -2.2532   -1.8669 C   0  0  0  0  0  0  0  0  0  0  0  0
    3.7200   -1.4479   -1.8310 C   0  0  0  0  0  0  0  0  0  0  0  0
    4.6946   -1.4245   -2.7935 O   0  0  0  0  0  0  0  0  0  0  0  0
    4.3345   -1.8477   -4.0984 C   0  0  0  0  0  0  0  0  0  0  0  0
    3.2463   -1.0430   -4.7942 C   0  0  0  0  0  0  0  0  0  0  0  0
    2.2403   -1.5043   -5.3143 O   0  0  0  0  0  0  0  0  0  0  0  0
    3.4906    0.2823   -4.8194 O   0  0  0  0  0  0  0  0  0  0  0  0
    7.4113    0.4489    1.6708 H   0  0  0  0  0  0  0  0  0  0  0  0
    5.8327    1.2722    1.6349 H   0  0  0  0  0  0  0  0  0  0  0  0
    7.0094    1.5879    0.3615 H   0  0  0  0  0  0  0  0  0  0  0  0
    5.6436   -1.1068    0.8719 H   0  0  0  0  0  0  0  0  0  0  0  0
    6.8111   -0.7809   -0.4318 H   0  0  0  0  0  0  0  0  0  0  0  0
    3.1389    0.1532    1.1304 H   0  0  0  0  0  0  0  0  0  0  0  0
    1.1348   -1.7912    2.2381 H   0  0  0  0  0  0  0  0  0  0  0  0
   -5.1808   -1.6090    2.7709 H   0  0  0  0  0  0  0  0  0  0  0  0
   -5.9451   -2.2676    5.0383 H   0  0  0  0  0  0  0  0  0  0  0  0
   -5.4549   -0.8070    6.9866 H   0  0  0  0  0  0  0  0  0  0  0  0
   -4.2055    1.3154    6.6604 H   0  0  0  0  0  0  0  0  0  0  0  0
   -3.4454    1.9685    4.3960 H   0  0  0  0  0  0  0  0  0  0  0  0
   -4.0900    2.5598    0.9550 H   0  0  0  0  0  0  0  0  0  0  0  0
   -5.3387    3.8519   -0.6754 H   0  0  0  0  0  0  0  0  0  0  0  0
   -4.9164    3.5815   -3.1050 H   0  0  0  0  0  0  0  0  0  0  0  0
   -3.2242    1.9369   -3.8748 H   0  0  0  0  0  0  0  0  0  0  0  0
   -1.9994    0.5746   -2.2792 H   0  0  0  0  0  0  0  0  0  0  0  0
    0.7517   -2.8226   -0.8876 H   0  0  0  0  0  0  0  0  0  0  0  0
    2.3815   -2.9381   -2.6855 H   0  0  0  0  0  0  0  0  0  0  0  0
    4.0682   -2.9118   -4.1006 H   0  0  0  0  0  0  0  0  0  0  0  0
    5.2310   -1.7682   -4.7258 H   0  0  0  0  0  0  0  0  0  0  0  0
    2.6888    0.6787   -5.2193 H   0  0  0  0  0  0  0  0  0  0  0  0
  1  2  1  0
  2  3  1  0
  3  4  1  0
  4  5  2  0
  5  6  1  0
  6  7  1  0
  7  8  2  3
  8  9  1  0
  9 10  1  0
 10 11  2  3
 11 12  1  0
 12 13  2  0
 13 14  1  0
 14 15  2  0
 15 16  1  0
 16 17  2  0
 10 18  1  0
 18 19  1  0
 19 20  2  0
 20 21  1  0
 21 22  2  0
 22 23  1  0
 23 24  2  0
 18 25  1  0
 25 26  2  0
  6 27  2  0
 27 28  1  0
 28 29  2  0
 29 30  1  0
 30 31  1  0
 31 32  1  0
 32 33  2  0
 32 34  1  0
 29  4  1  0
 25  8  1  0
 17 12  1  0
 24 19  1  0
  1 35  1  0
  1 36  1  0
  1 37  1  0
  2 38  1  0
  2 39  1  0
  5 40  1  0
  7 41  1  0
 13 42  1  0
 14 43  1  0
 15 44  1  0
 16 45  1  0
 17 46  1  0
 20 47  1  0
 21 48  1  0
 22 49  1  0
 23 50  1  0
 24 51  1  0
 27 52  1  0
 28 53  1  0
 31 54  1  0
 31 55  1  0
 34 56  1  0
M  END
$$$$
