
     RDKit          3D

 45 47  0  0  0  0  0  0  0  0999 V2000
    4.8665    1.1028   -2.0162 C   0  0  0  0  0  0  0  0  0  0  0  0
    4.7216   -0.3943   -1.9023 C   0  0  0  0  0  0  0  0  0  0  0  0
    5.3348   -1.0557   -0.9724 N   0  0  0  0  0  0  0  0  0  0  0  0
    3.7928   -1.0895   -2.8738 C   0  0  0  0  0  0  0  0  0  0  0  0
    4.2431   -2.4389   -3.2279 C   0  0  0  0  0  0  0  0  0  0  0  0
    4.5461   -3.5151   -3.5413 N   0  0  0  0  0  0  0  0  0  0  0  0
    2.3822   -1.1404   -2.3432 C   0  0  0  0  0  0  0  0  0  0  0  0
    1.4858   -0.4796   -2.8808 O   0  0  0  0  0  0  0  0  0  0  0  0
    2.1066   -2.0108   -1.1138 C   0  0  0  0  0  0  0  0  0  0  0  0
    0.9545   -1.5674   -0.3937 O   0  0  0  0  0  0  0  0  0  0  0  0
    1.1176   -0.3562    0.1981 C   0  0  0  0  0  0  0  0  0  0  0  0
    2.1390    0.3084    0.2037 O   0  0  0  0  0  0  0  0  0  0  0  0
   -0.1472    0.0308    0.8539 C   0  0  0  0  0  0  0  0  0  0  0  0
   -1.3164   -0.0338    0.0914 C   0  0  0  0  0  0  0  0  0  0  0  0
   -2.5112    0.3410    0.6789 C   0  0  0  0  0  0  0  0  0  0  0  0
   -3.8029    0.3152   -0.0358 C   0  0  0  0  0  0  0  0  0  0  0  0
   -4.9933   -0.0048    0.6466 C   0  0  0  0  0  0  0  0  0  0  0  0
   -6.2274   -0.0411   -0.0095 C   0  0  0  0  0  0  0  0  0  0  0  0
   -6.2998    0.2510   -1.3684 C   0  0  0  0  0  0  0  0  0  0  0  0
   -5.1377    0.5818   -2.0594 C   0  0  0  0  0  0  0  0  0  0  0  0
   -5.2317    0.9962   -3.9026 Br  0  0  0  0  0  0  0  0  0  0  0  0
   -3.9021    0.6160   -1.4069 C   0  0  0  0  0  0  0  0  0  0  0  0
   -2.5624    0.7538    1.9682 N   0  0  0  0  0  0  0  0  0  0  0  0
   -1.4365    0.8267    2.6979 C   0  0  0  0  0  0  0  0  0  0  0  0
   -1.5348    1.2661    4.0114 C   0  0  0  0  0  0  0  0  0  0  0  0
   -0.4188    1.3673    4.8441 C   0  0  0  0  0  0  0  0  0  0  0  0
    0.8326    1.0207    4.3584 C   0  0  0  0  0  0  0  0  0  0  0  0
    0.9585    0.5772    3.0435 C   0  0  0  0  0  0  0  0  0  0  0  0
   -0.1722    0.4768    2.1921 C   0  0  0  0  0  0  0  0  0  0  0  0
    5.2901    1.3470   -2.9931 H   0  0  0  0  0  0  0  0  0  0  0  0
    5.5237    1.4961   -1.2368 H   0  0  0  0  0  0  0  0  0  0  0  0
    3.8838    1.5725   -1.9229 H   0  0  0  0  0  0  0  0  0  0  0  0
    5.9037   -0.4352   -0.3816 H   0  0  0  0  0  0  0  0  0  0  0  0
    3.7747   -0.4901   -3.7929 H   0  0  0  0  0  0  0  0  0  0  0  0
    2.9646   -2.0493   -0.4366 H   0  0  0  0  0  0  0  0  0  0  0  0
    1.9061   -3.0286   -1.4624 H   0  0  0  0  0  0  0  0  0  0  0  0
   -1.2808   -0.3777   -0.9375 H   0  0  0  0  0  0  0  0  0  0  0  0
   -4.9604   -0.2334    1.7120 H   0  0  0  0  0  0  0  0  0  0  0  0
   -7.1288   -0.2935    0.5446 H   0  0  0  0  0  0  0  0  0  0  0  0
   -7.2615    0.2246   -1.8736 H   0  0  0  0  0  0  0  0  0  0  0  0
   -3.0164    0.8976   -1.9725 H   0  0  0  0  0  0  0  0  0  0  0  0
   -2.5132    1.5404    4.4000 H   0  0  0  0  0  0  0  0  0  0  0  0
   -0.5341    1.7171    5.8666 H   0  0  0  0  0  0  0  0  0  0  0  0
    1.7093    1.0959    4.9969 H   0  0  0  0  0  0  0  0  0  0  0  0
    1.9520    0.3126    2.6872 H   0  0  0  0  0  0  0  0  0  0  0  0
  1  2  1  0
  2  3  2  3
  2  4  1  0
  4  5  1  0
  5  6  3  0
  4  7  1  0
  7  8  2  0
  7  9  1  0
  9 10  1  0
 10 11  1  0
 11 12  2  0
 11 13  1  0
 13 14  2  0
 14 15  1  0
 15 16  1  0
 16 17  2  0
 17 18  1  0
 18 19  2  0
 19 20  1  0
 20 21  1  0
 20 22  2  0
 15 23  2  0
 23 24  1  0
 24 25  2  0
 25 26  1  0
 26 27  2  0
 27 28  1  0
 28 29  2  0
 29 13  1  0
 22 16  1  0
 29 24  1  0
  1 30  1  0
  1 31  1  0
  1 32  1  0
  3 33  1  0
  4 34  1  0
  9 35  1  0
  9 36  1  0
 14 37  1  0
 17 38  1  0
 18 39  1  0
 19 40  1  0
 22 41  1  0
 25 42  1  0
 26 43  1  0
 27 44  1  0
 28 45  1  0
M  END
$$$$
