
     RDKit          3D

 90 95  0  0  0  0  0  0  0  0999 V2000
    2.7983    3.4408    0.5235 C   0  0  0  0  0  0  0  0  0  0  0  0
    1.5917    2.9309   -0.2636 C   0  0  0  0  0  0  0  0  0  0  0  0
    0.2820    3.6807    0.0846 C   0  0  0  0  0  0  0  0  0  0  0  0
   -0.2880    3.2914    1.3790 N   0  0  0  0  0  0  0  0  0  0  0  0
   -0.3752    4.3073    2.4604 C   0  0  0  0  0  0  0  0  0  0  0  0
    0.9072    5.0911    2.7345 C   0  0  0  0  0  0  0  0  0  0  0  0
   -1.5717    5.2605    2.2256 C   0  0  0  0  0  0  0  0  0  0  0  0
   -1.8632    6.0295    3.3880 O   0  0  0  0  0  0  0  0  0  0  0  0
   -1.1019    2.1559    1.5614 C   0  0  0  0  0  0  0  0  0  0  0  0
   -1.5607    1.8925    2.6793 O   0  0  0  0  0  0  0  0  0  0  0  0
   -1.5690    1.2798    0.4399 C   0  0  0  0  0  0  0  0  0  0  0  0
   -2.9131    0.8515    0.5976 C   0  0  0  0  0  0  0  0  0  0  0  0
   -3.5766    0.0804   -0.3640 C   0  0  0  0  0  0  0  0  0  0  0  0
   -4.8917   -0.3354   -0.0908 N   0  0  0  0  0  0  0  0  0  0  0  0
   -5.8088   -0.8266   -1.0064 C   0  0  0  0  0  0  0  0  0  0  0  0
   -5.7118   -0.7295   -2.2212 O   0  0  0  0  0  0  0  0  0  0  0  0
   -6.8412   -1.4616   -0.3348 N   0  0  0  0  0  0  0  0  0  0  0  0
   -8.0638   -1.9061   -0.8996 C   0  0  0  0  0  0  0  0  0  0  0  0
   -8.5876   -1.2478   -2.0213 C   0  0  0  0  0  0  0  0  0  0  0  0
   -9.8178   -1.6190   -2.5555 C   0  0  0  0  0  0  0  0  0  0  0  0
  -10.5452   -2.6527   -1.9755 C   0  0  0  0  0  0  0  0  0  0  0  0
  -10.0526   -3.3332   -0.8541 C   0  0  0  0  0  0  0  0  0  0  0  0
  -10.8087   -4.3801   -0.2954 C   0  0  0  0  0  0  0  0  0  0  0  0
  -10.3467   -5.0907    0.8087 C   0  0  0  0  0  0  0  0  0  0  0  0
   -9.1231   -4.7609    1.3723 C   0  0  0  0  0  0  0  0  0  0  0  0
   -8.3577   -3.7217    0.8318 C   0  0  0  0  0  0  0  0  0  0  0  0
   -8.7979   -2.9717   -0.2891 C   0  0  0  0  0  0  0  0  0  0  0  0
   -2.8917   -0.2852   -1.5120 C   0  0  0  0  0  0  0  0  0  0  0  0
   -1.5593    0.0914   -1.6667 C   0  0  0  0  0  0  0  0  0  0  0  0
   -0.8799    0.8521   -0.6972 C   0  0  0  0  0  0  0  0  0  0  0  0
    0.4028    1.0681   -1.0833 O   0  0  0  0  0  0  0  0  0  0  0  0
    1.3970    1.4119   -0.1165 C   0  0  0  0  0  0  0  0  0  0  0  0
    2.6541    0.5759   -0.4768 C   0  0  0  0  0  0  0  0  0  0  0  0
    2.4406   -0.8651   -0.2293 N   0  0  0  0  0  0  0  0  0  0  0  0
    2.5838   -1.2199    1.1816 C   0  0  0  0  0  0  0  0  0  0  0  0
    3.2071   -1.7404   -1.1281 C   0  0  0  0  0  0  0  0  0  0  0  0
    4.7158   -1.6396   -1.0752 C   0  0  0  0  0  0  0  0  0  0  0  0
    5.4528   -2.3658   -0.1299 C   0  0  0  0  0  0  0  0  0  0  0  0
    6.8493   -2.3034   -0.1108 C   0  0  0  0  0  0  0  0  0  0  0  0
    7.5467   -1.5182   -1.0408 C   0  0  0  0  0  0  0  0  0  0  0  0
    9.0137   -1.4828   -1.0452 C   0  0  0  0  0  0  0  0  0  0  0  0
    9.7337   -1.9386   -2.1600 C   0  0  0  0  0  0  0  0  0  0  0  0
   11.1275   -1.9084   -2.1758 C   0  0  0  0  0  0  0  0  0  0  0  0
   11.8241   -1.4237   -1.0717 C   0  0  0  0  0  0  0  0  0  0  0  0
   11.1293   -0.9639    0.0447 C   0  0  0  0  0  0  0  0  0  0  0  0
    9.7326   -0.9952    0.0585 C   0  0  0  0  0  0  0  0  0  0  0  0
    6.8066   -0.7861   -1.9806 C   0  0  0  0  0  0  0  0  0  0  0  0
    5.4097   -0.8457   -1.9985 C   0  0  0  0  0  0  0  0  0  0  0  0
    2.8187    3.0433    1.5379 H   0  0  0  0  0  0  0  0  0  0  0  0
    2.8032    4.5339    0.5706 H   0  0  0  0  0  0  0  0  0  0  0  0
    3.7291    3.1481    0.0247 H   0  0  0  0  0  0  0  0  0  0  0  0
    1.7861    3.1548   -1.3219 H   0  0  0  0  0  0  0  0  0  0  0  0
    0.4536    4.7602    0.0645 H   0  0  0  0  0  0  0  0  0  0  0  0
   -0.4767    3.5083   -0.6894 H   0  0  0  0  0  0  0  0  0  0  0  0
   -0.5770    3.7805    3.3997 H   0  0  0  0  0  0  0  0  0  0  0  0
    1.1842    5.7331    1.8932 H   0  0  0  0  0  0  0  0  0  0  0  0
    1.7368    4.4137    2.9451 H   0  0  0  0  0  0  0  0  0  0  0  0
    0.7902    5.7345    3.6125 H   0  0  0  0  0  0  0  0  0  0  0  0
   -1.3650    5.9555    1.4016 H   0  0  0  0  0  0  0  0  0  0  0  0
   -2.4755    4.6979    1.9649 H   0  0  0  0  0  0  0  0  0  0  0  0
   -2.1047    5.3984    4.0884 H   0  0  0  0  0  0  0  0  0  0  0  0
   -3.4585    1.1560    1.4908 H   0  0  0  0  0  0  0  0  0  0  0  0
   -5.2826   -0.0751    0.8048 H   0  0  0  0  0  0  0  0  0  0  0  0
   -6.5513   -1.8868    0.5300 H   0  0  0  0  0  0  0  0  0  0  0  0
   -8.0556   -0.4178   -2.4845 H   0  0  0  0  0  0  0  0  0  0  0  0
  -10.2086   -1.0889   -3.4205 H   0  0  0  0  0  0  0  0  0  0  0  0
  -11.5056   -2.9230   -2.4092 H   0  0  0  0  0  0  0  0  0  0  0  0
  -11.7660   -4.6563   -0.7306 H   0  0  0  0  0  0  0  0  0  0  0  0
  -10.9437   -5.9007    1.2247 H   0  0  0  0  0  0  0  0  0  0  0  0
   -8.7551   -5.3159    2.2327 H   0  0  0  0  0  0  0  0  0  0  0  0
   -7.3997   -3.5302    1.3006 H   0  0  0  0  0  0  0  0  0  0  0  0
   -3.3546   -0.8851   -2.2887 H   0  0  0  0  0  0  0  0  0  0  0  0
   -1.0263   -0.2305   -2.5606 H   0  0  0  0  0  0  0  0  0  0  0  0
    1.1061    1.1498    0.9058 H   0  0  0  0  0  0  0  0  0  0  0  0
    3.5346    0.9163    0.0760 H   0  0  0  0  0  0  0  0  0  0  0  0
    2.8570    0.7397   -1.5433 H   0  0  0  0  0  0  0  0  0  0  0  0
    1.8170   -0.7284    1.7862 H   0  0  0  0  0  0  0  0  0  0  0  0
    3.5654   -0.9484    1.5902 H   0  0  0  0  0  0  0  0  0  0  0  0
    2.4349   -2.2956    1.3317 H   0  0  0  0  0  0  0  0  0  0  0  0
    2.9228   -2.7856   -0.9440 H   0  0  0  0  0  0  0  0  0  0  0  0
    2.8735   -1.5606   -2.1573 H   0  0  0  0  0  0  0  0  0  0  0  0
    4.9435   -2.9999    0.5921 H   0  0  0  0  0  0  0  0  0  0  0  0
    7.3961   -2.8963    0.6219 H   0  0  0  0  0  0  0  0  0  0  0  0
    9.2037   -2.3334   -3.0237 H   0  0  0  0  0  0  0  0  0  0  0  0
   11.6674   -2.2694   -3.0476 H   0  0  0  0  0  0  0  0  0  0  0  0
   12.9087   -1.3991   -1.0845 H   0  0  0  0  0  0  0  0  0  0  0  0
   11.6748   -0.5870    0.9065 H   0  0  0  0  0  0  0  0  0  0  0  0
    9.2072   -0.6366    0.9389 H   0  0  0  0  0  0  0  0  0  0  0  0
    7.3213   -0.1692   -2.7163 H   0  0  0  0  0  0  0  0  0  0  0  0
    4.8692   -0.2771   -2.7515 H   0  0  0  0  0  0  0  0  0  0  0  0
  1  2  1  0
  2  3  1  0
  3  4  1  0
  4  5  1  0
  5  6  1  0
  5  7  1  0
  7  8  1  0
  4  9  1  0
  9 10  2  0
  9 11  1  0
 11 12  2  0
 12 13  1  0
 13 14  1  0
 14 15  1  0
 15 16  2  0
 15 17  1  0
 17 18  1  0
 18 19  2  0
 19 20  1  0
 20 21  2  0
 21 22  1  0
 22 23  2  0
 23 24  1  0
 24 25  2  0
 25 26  1  0
 26 27  2  0
 13 28  2  0
 28 29  1  0
 29 30  2  0
 30 31  1  0
 31 32  1  0
 32 33  1  0
 33 34  1  0
 34 35  1  0
 34 36  1  0
 36 37  1  0
 37 38  2  0
 38 39  1  0
 39 40  2  0
 40 41  1  0
 41 42  2  0
 42 43  1  0
 43 44  2  0
 44 45  1  0
 45 46  2  0
 40 47  1  0
 47 48  2  0
 32  2  1  0
 48 37  1  0
 30 11  1  0
 46 41  1  0
 27 18  1  0
 27 22  1  0
  1 49  1  0
  1 50  1  0
  1 51  1  0
  2 52  1  0
  3 53  1  0
  3 54  1  0
  5 55  1  0
  6 56  1  0
  6 57  1  0
  6 58  1  0
  7 59  1  0
  7 60  1  0
  8 61  1  0
 12 62  1  0
 14 63  1  0
 17 64  1  0
 19 65  1  0
 20 66  1  0
 21 67  1  0
 23 68  1  0
 24 69  1  0
 25 70  1  0
 26 71  1  0
 28 72  1  0
 29 73  1  0
 32 74  1  0
 33 75  1  0
 33 76  1  0
 35 77  1  0
 35 78  1  0
 35 79  1  0
 36 80  1  0
 36 81  1  0
 38 82  1  0
 39 83  1  0
 42 84  1  0
 43 85  1  0
 44 86  1  0
 45 87  1  0
 46 88  1  0
 47 89  1  0
 48 90  1  0
M  END
$$$$
