
     RDKit          3D

 45 47  0  0  0  0  0  0  0  0999 V2000
   -0.0991   -0.0051    1.7649 O   0  0  0  0  0  0  0  0  0  0  0  0
    0.6032    0.1152    0.7734 C   0  0  0  0  0  0  0  0  0  0  0  0
    1.8053   -0.5062    0.5537 N   0  0  0  0  0  0  0  0  0  0  0  0
    2.4273   -1.2616    1.6131 C   0  0  0  0  0  0  0  0  0  0  0  0
    3.8252   -1.5820    1.2386 C   0  0  0  0  0  0  0  0  0  0  0  0
    5.0461   -1.2843    1.8133 C   0  0  0  0  0  0  0  0  0  0  0  0
    6.0338   -1.8784    0.9939 C   0  0  0  0  0  0  0  0  0  0  0  0
    5.3575   -2.4838   -0.0376 C   0  0  0  0  0  0  0  0  0  0  0  0
    4.0149   -2.3076    0.0983 O   0  0  0  0  0  0  0  0  0  0  0  0
    0.1287    0.9967   -0.3756 C   0  0  0  0  0  0  0  0  0  0  0  0
   -0.8350    0.4013   -1.3476 C   0  0  0  0  0  0  0  0  0  0  0  0
   -1.2728   -0.8662   -1.3153 C   0  0  0  0  0  0  0  0  0  0  0  0
   -2.2379   -1.4346   -2.3175 C   0  0  0  0  0  0  0  0  0  0  0  0
   -3.4749   -2.0027   -1.6628 C   0  0  0  0  0  0  0  0  0  0  0  0
   -4.5595   -1.1735   -1.3435 C   0  0  0  0  0  0  0  0  0  0  0  0
   -5.6963   -1.6979   -0.7239 C   0  0  0  0  0  0  0  0  0  0  0  0
   -5.7545   -3.0532   -0.4108 C   0  0  0  0  0  0  0  0  0  0  0  0
   -4.6795   -3.8857   -0.7163 C   0  0  0  0  0  0  0  0  0  0  0  0
   -3.5429   -3.3636   -1.3366 C   0  0  0  0  0  0  0  0  0  0  0  0
    0.4981    2.2311   -0.5519 N   0  0  0  0  0  0  0  0  0  0  0  0
    1.4160    2.7812    0.3097 C   0  0  0  0  0  0  0  0  0  0  0  0
    2.4425    2.2163    0.6806 O   0  0  0  0  0  0  0  0  0  0  0  0
    1.0604    4.1505    0.6337 C   0  0  0  0  0  0  0  0  0  0  0  0
   -0.0431    4.9382    0.3231 C   0  0  0  0  0  0  0  0  0  0  0  0
    0.1863    6.2207    0.8891 C   0  0  0  0  0  0  0  0  0  0  0  0
    1.4066    6.1390    1.5250 C   0  0  0  0  0  0  0  0  0  0  0  0
    2.2453    7.5642    2.4686 Br  0  0  0  0  0  0  0  0  0  0  0  0
    1.9385    4.8917    1.3836 O   0  0  0  0  0  0  0  0  0  0  0  0
    2.4090   -0.1237   -0.1662 H   0  0  0  0  0  0  0  0  0  0  0  0
    2.3965   -0.6740    2.5360 H   0  0  0  0  0  0  0  0  0  0  0  0
    1.8458   -2.1771    1.7730 H   0  0  0  0  0  0  0  0  0  0  0  0
    5.1980   -0.7159    2.7216 H   0  0  0  0  0  0  0  0  0  0  0  0
    7.1090   -1.8634    1.1354 H   0  0  0  0  0  0  0  0  0  0  0  0
    5.6692   -3.0502   -0.9059 H   0  0  0  0  0  0  0  0  0  0  0  0
   -1.1692    1.0825   -2.1231 H   0  0  0  0  0  0  0  0  0  0  0  0
   -0.9361   -1.5596   -0.5464 H   0  0  0  0  0  0  0  0  0  0  0  0
   -2.5358   -0.6793   -3.0562 H   0  0  0  0  0  0  0  0  0  0  0  0
   -1.7281   -2.2218   -2.8886 H   0  0  0  0  0  0  0  0  0  0  0  0
   -4.5267   -0.1131   -1.5748 H   0  0  0  0  0  0  0  0  0  0  0  0
   -6.5328   -1.0494   -0.4796 H   0  0  0  0  0  0  0  0  0  0  0  0
   -6.6369   -3.4610    0.0769 H   0  0  0  0  0  0  0  0  0  0  0  0
   -4.7214   -4.9421   -0.4654 H   0  0  0  0  0  0  0  0  0  0  0  0
   -2.7115   -4.0245   -1.5627 H   0  0  0  0  0  0  0  0  0  0  0  0
   -0.9053    4.6227   -0.2490 H   0  0  0  0  0  0  0  0  0  0  0  0
   -0.4640    7.0903    0.8518 H   0  0  0  0  0  0  0  0  0  0  0  0
  1  2  2  0
  2  3  1  0
  3  4  1  0
  4  5  1  0
  5  6  2  0
  6  7  1  0
  7  8  2  0
  8  9  1  0
  2 10  1  0
 10 11  1  0
 11 12  2  3
 12 13  1  0
 13 14  1  0
 14 15  2  0
 15 16  1  0
 16 17  2  0
 17 18  1  0
 18 19  2  0
 10 20  2  3
 20 21  1  0
 21 22  2  0
 21 23  1  0
 23 24  2  0
 24 25  1  0
 25 26  2  0
 26 27  1  0
 26 28  1  0
  9  5  1  0
 19 14  1  0
 28 23  1  0
  3 29  1  0
  4 30  1  0
  4 31  1  0
  6 32  1  0
  7 33  1  0
  8 34  1  0
 11 35  1  0
 12 36  1  0
 13 37  1  0
 13 38  1  0
 15 39  1  0
 16 40  1  0
 17 41  1  0
 18 42  1  0
 19 43  1  0
 24 44  1  0
 25 45  1  0
M  END
$$$$
