
     RDKit          3D

 49 52  0  0  0  0  0  0  0  0999 V2000
   -7.6809   -2.4656   -1.6114 C   0  0  0  0  0  0  0  0  0  0  0  0
   -7.2651   -1.1432   -1.9283 O   0  0  0  0  0  0  0  0  0  0  0  0
   -6.4553   -0.5175   -1.0208 C   0  0  0  0  0  0  0  0  0  0  0  0
   -6.0738    0.7786   -1.3751 C   0  0  0  0  0  0  0  0  0  0  0  0
   -5.2461    1.5338   -0.5403 C   0  0  0  0  0  0  0  0  0  0  0  0
   -4.7920    1.0015    0.6718 C   0  0  0  0  0  0  0  0  0  0  0  0
   -3.8779    1.7934    1.5697 C   0  0  0  0  0  0  0  0  0  0  0  0
   -2.4997    1.4408    1.3325 N   0  0  0  0  0  0  0  0  0  0  0  0
   -1.8185    0.5436    2.1263 C   0  0  0  0  0  0  0  0  0  0  0  0
   -2.3080    0.0939    3.1605 O   0  0  0  0  0  0  0  0  0  0  0  0
   -0.4912    0.1623    1.6568 C   0  0  0  0  0  0  0  0  0  0  0  0
    0.3847   -0.7258    2.2783 C   0  0  0  0  0  0  0  0  0  0  0  0
    1.5800   -0.8597    1.5438 C   0  0  0  0  0  0  0  0  0  0  0  0
    1.5773   -0.0947    0.4221 C   0  0  0  0  0  0  0  0  0  0  0  0
    0.1898    0.7990    0.1921 S   0  0  0  0  0  0  0  0  0  0  0  0
    2.8274   -0.2244   -0.3460 C   0  0  0  0  0  0  0  0  0  0  0  0
    3.7147   -1.0260    0.5720 N   0  0  0  0  0  0  0  0  0  0  0  0
    4.7508   -0.1684    1.1758 C   0  0  0  0  0  0  0  0  0  0  0  0
    5.7913    0.3028    0.1792 C   0  0  0  0  0  0  0  0  0  0  0  0
    6.1164    1.6636    0.0805 C   0  0  0  0  0  0  0  0  0  0  0  0
    7.0879    2.0965   -0.8242 C   0  0  0  0  0  0  0  0  0  0  0  0
    7.7485    1.1748   -1.6345 C   0  0  0  0  0  0  0  0  0  0  0  0
    7.4405   -0.1808   -1.5404 C   0  0  0  0  0  0  0  0  0  0  0  0
    6.4700   -0.6153   -0.6365 C   0  0  0  0  0  0  0  0  0  0  0  0
    2.8471   -1.6127    1.6572 C   0  0  0  0  0  0  0  0  0  0  0  0
   -5.1701   -0.3025    1.0200 C   0  0  0  0  0  0  0  0  0  0  0  0
   -5.9984   -1.0565    0.1813 C   0  0  0  0  0  0  0  0  0  0  0  0
   -6.8233   -3.1428   -1.5404 H   0  0  0  0  0  0  0  0  0  0  0  0
   -8.3177   -2.8202   -2.4276 H   0  0  0  0  0  0  0  0  0  0  0  0
   -8.2768   -2.4830   -0.6929 H   0  0  0  0  0  0  0  0  0  0  0  0
   -6.4242    1.2030   -2.3128 H   0  0  0  0  0  0  0  0  0  0  0  0
   -4.9624    2.5380   -0.8457 H   0  0  0  0  0  0  0  0  0  0  0  0
   -3.9788    2.8652    1.3666 H   0  0  0  0  0  0  0  0  0  0  0  0
   -4.1477    1.6369    2.6201 H   0  0  0  0  0  0  0  0  0  0  0  0
   -2.0951    1.6690    0.4345 H   0  0  0  0  0  0  0  0  0  0  0  0
    0.1491   -1.2349    3.2058 H   0  0  0  0  0  0  0  0  0  0  0  0
    3.2429    0.7489   -0.6246 H   0  0  0  0  0  0  0  0  0  0  0  0
    2.6575   -0.8056   -1.2589 H   0  0  0  0  0  0  0  0  0  0  0  0
    5.2995   -0.7364    1.9392 H   0  0  0  0  0  0  0  0  0  0  0  0
    4.2967    0.6892    1.6900 H   0  0  0  0  0  0  0  0  0  0  0  0
    5.6135    2.3971    0.7065 H   0  0  0  0  0  0  0  0  0  0  0  0
    7.3307    3.1535   -0.8958 H   0  0  0  0  0  0  0  0  0  0  0  0
    8.5045    1.5126   -2.3382 H   0  0  0  0  0  0  0  0  0  0  0  0
    7.9554   -0.9013   -2.1703 H   0  0  0  0  0  0  0  0  0  0  0  0
    6.2357   -1.6760   -0.5714 H   0  0  0  0  0  0  0  0  0  0  0  0
    3.2887   -1.5310    2.6559 H   0  0  0  0  0  0  0  0  0  0  0  0
    2.6791   -2.6720    1.4349 H   0  0  0  0  0  0  0  0  0  0  0  0
   -4.8141   -0.7414    1.9515 H   0  0  0  0  0  0  0  0  0  0  0  0
   -6.2625   -2.0600    0.4974 H   0  0  0  0  0  0  0  0  0  0  0  0
  1  2  1  0
  2  3  1  0
  3  4  2  0
  4  5  1  0
  5  6  2  0
  6  7  1  0
  7  8  1  0
  8  9  1  0
  9 10  2  0
  9 11  1  0
 11 12  2  0
 12 13  1  0
 13 14  2  0
 14 15  1  0
 14 16  1  0
 16 17  1  0
 17 18  1  0
 18 19  1  0
 19 20  2  0
 20 21  1  0
 21 22  2  0
 22 23  1  0
 23 24  2  0
 17 25  1  0
  6 26  1  0
 26 27  2  0
 27  3  1  0
 15 11  1  0
 24 19  1  0
 25 13  1  0
  1 28  1  0
  1 29  1  0
  1 30  1  0
  4 31  1  0
  5 32  1  0
  7 33  1  0
  7 34  1  0
  8 35  1  0
 12 36  1  0
 16 37  1  0
 16 38  1  0
 18 39  1  0
 18 40  1  0
 20 41  1  0
 21 42  1  0
 22 43  1  0
 23 44  1  0
 24 45  1  0
 25 46  1  0
 25 47  1  0
 26 48  1  0
 27 49  1  0
M  END
$$$$
