
     RDKit          3D

 37 37  0  0  0  0  0  0  0  0999 V2000
    4.7197    1.8112    0.8980 C   0  0  0  0  0  0  0  0  0  0  0  0
    4.0290    1.2108   -0.3165 C   0  0  0  0  0  0  0  0  0  0  0  0
    3.9741   -0.3184   -0.2933 C   0  0  0  0  0  0  0  0  0  0  0  0
    3.2268   -0.9369    0.8928 C   0  0  0  0  0  0  0  0  0  0  0  0
    1.7761   -0.4811    1.0756 C   0  0  0  0  0  0  0  0  0  0  0  0
    0.8817   -0.8042   -0.1229 C   0  0  0  0  0  0  0  0  0  0  0  0
   -0.5744   -0.4256    0.1550 C   0  0  0  0  0  0  0  0  0  0  0  0
   -1.4701   -0.7439   -1.0442 C   0  0  0  0  0  0  0  0  0  0  0  0
   -2.8652   -0.3721   -0.7575 N   0  0  0  0  0  0  0  0  0  0  0  0
   -3.7392   -1.2687   -0.1556 C   0  0  0  0  0  0  0  0  0  0  0  0
   -5.0107   -0.9920    0.1626 C   0  0  0  0  0  0  0  0  0  0  0  0
   -5.5255    0.3695   -0.1424 C   0  0  0  0  0  0  0  0  0  0  0  0
   -6.7377    0.7383    0.1187 N   0  0  0  0  0  0  0  0  0  0  0  0
   -4.5813    1.3253   -0.7710 C   0  0  0  0  0  0  0  0  0  0  0  0
   -3.3368    0.9060   -1.0316 C   0  0  0  0  0  0  0  0  0  0  0  0
    4.8123    2.8956    0.7794 H   0  0  0  0  0  0  0  0  0  0  0  0
    5.7253    1.3973    1.0226 H   0  0  0  0  0  0  0  0  0  0  0  0
    4.1526    1.6257    1.8148 H   0  0  0  0  0  0  0  0  0  0  0  0
    3.0207    1.6288   -0.4085 H   0  0  0  0  0  0  0  0  0  0  0  0
    4.5748    1.5216   -1.2156 H   0  0  0  0  0  0  0  0  0  0  0  0
    4.9998   -0.7087   -0.2928 H   0  0  0  0  0  0  0  0  0  0  0  0
    3.5227   -0.6667   -1.2298 H   0  0  0  0  0  0  0  0  0  0  0  0
    3.7774   -0.7270    1.8175 H   0  0  0  0  0  0  0  0  0  0  0  0
    3.2421   -2.0281    0.7764 H   0  0  0  0  0  0  0  0  0  0  0  0
    1.7425    0.5940    1.2861 H   0  0  0  0  0  0  0  0  0  0  0  0
    1.3744   -0.9808    1.9662 H   0  0  0  0  0  0  0  0  0  0  0  0
    0.9454   -1.8749   -0.3511 H   0  0  0  0  0  0  0  0  0  0  0  0
    1.2293   -0.2609   -1.0087 H   0  0  0  0  0  0  0  0  0  0  0  0
   -0.6377    0.6438    0.3919 H   0  0  0  0  0  0  0  0  0  0  0  0
   -0.9337   -0.9661    1.0396 H   0  0  0  0  0  0  0  0  0  0  0  0
   -1.1142   -0.2078   -1.9333 H   0  0  0  0  0  0  0  0  0  0  0  0
   -1.4091   -1.8126   -1.2867 H   0  0  0  0  0  0  0  0  0  0  0  0
   -3.3164   -2.2477    0.0514 H   0  0  0  0  0  0  0  0  0  0  0  0
   -5.6648   -1.7136    0.6291 H   0  0  0  0  0  0  0  0  0  0  0  0
   -7.2630   -0.0275    0.5492 H   0  0  0  0  0  0  0  0  0  0  0  0
   -4.9344    2.3226   -0.9917 H   0  0  0  0  0  0  0  0  0  0  0  0
   -2.6123    1.5746   -1.4875 H   0  0  0  0  0  0  0  0  0  0  0  0
  1  2  1  0
  2  3  1  0
  3  4  1  0
  4  5  1  0
  5  6  1  0
  6  7  1  0
  7  8  1  0
  8  9  1  0
  9 10  1  0
 10 11  2  0
 11 12  1  0
 12 13  2  3
 12 14  1  0
 14 15  2  0
 15  9  1  0
  1 16  1  0
  1 17  1  0
  1 18  1  0
  2 19  1  0
  2 20  1  0
  3 21  1  0
  3 22  1  0
  4 23  1  0
  4 24  1  0
  5 25  1  0
  5 26  1  0
  6 27  1  0
  6 28  1  0
  7 29  1  0
  7 30  1  0
  8 31  1  0
  8 32  1  0
 10 33  1  0
 11 34  1  0
 13 35  1  0
 14 36  1  0
 15 37  1  0
M  END
$$$$
