
     RDKit          3D

 54 55  0  0  0  0  0  0  0  0999 V2000
    1.1815    2.3030    1.5625 C   0  0  0  0  0  0  0  0  0  0  0  0
    0.0371    1.7671    0.9080 O   0  0  0  0  0  0  0  0  0  0  0  0
    0.2578    1.0114   -0.2145 C   0  0  0  0  0  0  0  0  0  0  0  0
    1.4579    0.9989   -0.9337 C   0  0  0  0  0  0  0  0  0  0  0  0
    1.6211    0.1724   -2.0598 C   0  0  0  0  0  0  0  0  0  0  0  0
    2.9365    0.1455   -2.8067 C   0  0  0  0  0  0  0  0  0  0  0  0
    3.8564   -0.8040   -2.1902 N   0  0  0  0  0  0  0  0  0  0  0  0
    4.6418   -0.4417   -1.0929 C   0  0  0  0  0  0  0  0  0  0  0  0
    5.1737    0.8410   -0.9115 C   0  0  0  0  0  0  0  0  0  0  0  0
    5.9989    1.1409    0.1816 C   0  0  0  0  0  0  0  0  0  0  0  0
    6.3327    0.1463    1.1037 C   0  0  0  0  0  0  0  0  0  0  0  0
    7.2013    0.4131    2.2759 C   0  0  0  0  0  0  0  0  0  0  0  0
    7.5380   -0.4001    3.1160 O   0  0  0  0  0  0  0  0  0  0  0  0
    7.6067    1.6941    2.3451 O   0  0  0  0  0  0  0  0  0  0  0  0
    5.8489   -1.1500    0.9131 C   0  0  0  0  0  0  0  0  0  0  0  0
    5.0261   -1.4381   -0.1826 C   0  0  0  0  0  0  0  0  0  0  0  0
    0.5627   -0.6584   -2.4546 C   0  0  0  0  0  0  0  0  0  0  0  0
   -0.6448   -0.6387   -1.7545 C   0  0  0  0  0  0  0  0  0  0  0  0
   -2.0449   -1.7796   -2.3405 Br  0  0  0  0  0  0  0  0  0  0  0  0
   -0.8094    0.2112   -0.6543 C   0  0  0  0  0  0  0  0  0  0  0  0
   -2.0027    0.1868    0.0277 O   0  0  0  0  0  0  0  0  0  0  0  0
   -2.7448    1.3933   -0.1892 C   0  0  0  0  0  0  0  0  0  0  0  0
   -4.2437    1.1524    0.0122 C   0  0  0  0  0  0  0  0  0  0  0  0
   -5.0705    2.0349   -0.2022 O   0  0  0  0  0  0  0  0  0  0  0  0
   -4.5563   -0.1180    0.4515 N   0  0  0  0  0  0  0  0  0  0  0  0
   -5.9084   -0.6499    0.6533 C   0  0  0  0  0  0  0  0  0  0  0  0
   -6.6742    0.1717    1.7030 C   0  0  0  0  0  0  0  0  0  0  0  0
   -6.6861   -0.6711   -0.6721 C   0  0  0  0  0  0  0  0  0  0  0  0
   -5.7789   -2.0950    1.1698 C   0  0  0  0  0  0  0  0  0  0  0  0
    0.8519    2.7307    2.5143 H   0  0  0  0  0  0  0  0  0  0  0  0
    1.9181    1.5232    1.7844 H   0  0  0  0  0  0  0  0  0  0  0  0
    1.6246    3.1113    0.9716 H   0  0  0  0  0  0  0  0  0  0  0  0
    2.2936    1.6232   -0.6307 H   0  0  0  0  0  0  0  0  0  0  0  0
    3.3467    1.1559   -2.9047 H   0  0  0  0  0  0  0  0  0  0  0  0
    2.7527   -0.1855   -3.8365 H   0  0  0  0  0  0  0  0  0  0  0  0
    3.4141   -1.7106   -2.0567 H   0  0  0  0  0  0  0  0  0  0  0  0
    4.9763    1.6349   -1.6248 H   0  0  0  0  0  0  0  0  0  0  0  0
    6.3864    2.1515    0.2912 H   0  0  0  0  0  0  0  0  0  0  0  0
    8.1658    1.7184    3.1506 H   0  0  0  0  0  0  0  0  0  0  0  0
    6.1140   -1.9446    1.6077 H   0  0  0  0  0  0  0  0  0  0  0  0
    4.6799   -2.4618   -0.3158 H   0  0  0  0  0  0  0  0  0  0  0  0
    0.6827   -1.3204   -3.3100 H   0  0  0  0  0  0  0  0  0  0  0  0
   -2.6143    1.7654   -1.2145 H   0  0  0  0  0  0  0  0  0  0  0  0
   -2.4387    2.1544    0.5363 H   0  0  0  0  0  0  0  0  0  0  0  0
   -3.7693   -0.7618    0.4860 H   0  0  0  0  0  0  0  0  0  0  0  0
   -6.8657    1.1955    1.3629 H   0  0  0  0  0  0  0  0  0  0  0  0
   -6.1078    0.2394    2.6404 H   0  0  0  0  0  0  0  0  0  0  0  0
   -7.6464   -0.2828    1.9276 H   0  0  0  0  0  0  0  0  0  0  0  0
   -6.8529    0.3387   -1.0619 H   0  0  0  0  0  0  0  0  0  0  0  0
   -7.6681   -1.1410   -0.5502 H   0  0  0  0  0  0  0  0  0  0  0  0
   -6.1383   -1.2296   -1.4397 H   0  0  0  0  0  0  0  0  0  0  0  0
   -5.2440   -2.7255    0.4491 H   0  0  0  0  0  0  0  0  0  0  0  0
   -5.2148   -2.1275    2.1104 H   0  0  0  0  0  0  0  0  0  0  0  0
   -6.7610   -2.5478    1.3493 H   0  0  0  0  0  0  0  0  0  0  0  0
  1  2  1  0
  2  3  1  0
  3  4  2  0
  4  5  1  0
  5  6  1  0
  6  7  1  0
  7  8  1  0
  8  9  2  0
  9 10  1  0
 10 11  2  0
 11 12  1  0
 12 13  2  0
 12 14  1  0
 11 15  1  0
 15 16  2  0
  5 17  2  0
 17 18  1  0
 18 19  1  0
 18 20  2  0
 20 21  1  0
 21 22  1  0
 22 23  1  0
 23 24  2  0
 23 25  1  0
 25 26  1  0
 26 27  1  0
 26 28  1  0
 26 29  1  0
 20  3  1  0
 16  8  1  0
  1 30  1  0
  1 31  1  0
  1 32  1  0
  4 33  1  0
  6 34  1  0
  6 35  1  0
  7 36  1  0
  9 37  1  0
 10 38  1  0
 14 39  1  0
 15 40  1  0
 16 41  1  0
 17 42  1  0
 22 43  1  0
 22 44  1  0
 25 45  1  0
 27 46  1  0
 27 47  1  0
 27 48  1  0
 28 49  1  0
 28 50  1  0
 28 51  1  0
 29 52  1  0
 29 53  1  0
 29 54  1  0
M  END
$$$$
