
     RDKit          3D

 49 51  0  0  0  0  0  0  0  0999 V2000
   -4.2382   -0.6613   -3.9800 C   0  0  0  0  0  0  0  0  0  0  0  0
   -5.0675   -0.6116   -2.8273 O   0  0  0  0  0  0  0  0  0  0  0  0
   -4.4708   -0.3684   -1.6178 C   0  0  0  0  0  0  0  0  0  0  0  0
   -3.0925   -0.3107   -1.4065 C   0  0  0  0  0  0  0  0  0  0  0  0
   -2.5933   -0.0495   -0.1218 C   0  0  0  0  0  0  0  0  0  0  0  0
   -1.1320    0.0213    0.1419 C   0  0  0  0  0  0  0  0  0  0  0  0
   -0.6805   -0.3474    1.2226 O   0  0  0  0  0  0  0  0  0  0  0  0
   -0.3516    0.5623   -0.8713 N   0  0  0  0  0  0  0  0  0  0  0  0
    1.0303    0.6895   -0.9394 C   0  0  0  0  0  0  0  0  0  0  0  0
    1.6102    1.4215   -2.3213 S   0  0  0  0  0  0  0  0  0  0  0  0
    1.7026    0.1913    0.1518 N   0  0  0  0  0  0  0  0  0  0  0  0
    3.0682    0.0629    0.4868 C   0  0  0  0  0  0  0  0  0  0  0  0
    3.3296   -0.4276    1.7955 C   0  0  0  0  0  0  0  0  0  0  0  0
    4.6326   -0.6127    2.2748 C   0  0  0  0  0  0  0  0  0  0  0  0
    5.6622   -0.3020    1.4160 C   0  0  0  0  0  0  0  0  0  0  0  0
    5.4229    0.1681    0.1395 C   0  0  0  0  0  0  0  0  0  0  0  0
    4.1427    0.3597   -0.3553 C   0  0  0  0  0  0  0  0  0  0  0  0
    6.7217    0.3850   -0.4977 C   0  0  0  0  0  0  0  0  0  0  0  0
    6.8720    0.7943   -1.6325 O   0  0  0  0  0  0  0  0  0  0  0  0
    7.6698    0.0385    0.4260 N   0  0  0  0  0  0  0  0  0  0  0  0
    9.0873    0.1171    0.1755 C   0  0  0  0  0  0  0  0  0  0  0  0
    7.1102   -0.3829    1.5993 C   0  0  0  0  0  0  0  0  0  0  0  0
    7.6473   -0.7611    2.6224 O   0  0  0  0  0  0  0  0  0  0  0  0
   -3.4650    0.1256    0.9627 C   0  0  0  0  0  0  0  0  0  0  0  0
   -4.8446    0.0702    0.7688 C   0  0  0  0  0  0  0  0  0  0  0  0
   -5.7823    0.2428    1.7528 O   0  0  0  0  0  0  0  0  0  0  0  0
   -5.3184    0.5742    3.0548 C   0  0  0  0  0  0  0  0  0  0  0  0
   -5.3364   -0.1890   -0.5230 C   0  0  0  0  0  0  0  0  0  0  0  0
   -6.6974   -0.1945   -0.7380 O   0  0  0  0  0  0  0  0  0  0  0  0
   -7.2145   -1.5111   -0.5512 C   0  0  0  0  0  0  0  0  0  0  0  0
   -3.5673   -1.5256   -3.9421 H   0  0  0  0  0  0  0  0  0  0  0  0
   -3.6764    0.2702   -4.1057 H   0  0  0  0  0  0  0  0  0  0  0  0
   -4.8860   -0.7807   -4.8537 H   0  0  0  0  0  0  0  0  0  0  0  0
   -2.4027   -0.4977   -2.2216 H   0  0  0  0  0  0  0  0  0  0  0  0
   -0.8176    0.9604   -1.6760 H   0  0  0  0  0  0  0  0  0  0  0  0
    1.0646   -0.1242    0.8863 H   0  0  0  0  0  0  0  0  0  0  0  0
    2.5013   -0.6689    2.4621 H   0  0  0  0  0  0  0  0  0  0  0  0
    4.8246   -0.9847    3.2758 H   0  0  0  0  0  0  0  0  0  0  0  0
    4.0394    0.7164   -1.3696 H   0  0  0  0  0  0  0  0  0  0  0  0
    9.3487    1.1576   -0.0389 H   0  0  0  0  0  0  0  0  0  0  0  0
    9.3249   -0.4859   -0.7059 H   0  0  0  0  0  0  0  0  0  0  0  0
    9.6583   -0.2394    1.0363 H   0  0  0  0  0  0  0  0  0  0  0  0
   -3.0389    0.3090    1.9449 H   0  0  0  0  0  0  0  0  0  0  0  0
   -4.7608    1.5166    3.0485 H   0  0  0  0  0  0  0  0  0  0  0  0
   -4.7186   -0.2386    3.4771 H   0  0  0  0  0  0  0  0  0  0  0  0
   -6.1938    0.7097    3.6972 H   0  0  0  0  0  0  0  0  0  0  0  0
   -6.7697   -2.2192   -1.2590 H   0  0  0  0  0  0  0  0  0  0  0  0
   -7.0633   -1.8585    0.4766 H   0  0  0  0  0  0  0  0  0  0  0  0
   -8.2916   -1.4772   -0.7404 H   0  0  0  0  0  0  0  0  0  0  0  0
  1  2  1  0
  2  3  1  0
  3  4  2  0
  4  5  1  0
  5  6  1  0
  6  7  2  0
  6  8  1  0
  8  9  1  0
  9 10  2  0
  9 11  1  0
 11 12  1  0
 12 13  2  0
 13 14  1  0
 14 15  2  0
 15 16  1  0
 16 17  2  0
 16 18  1  0
 18 19  2  0
 18 20  1  0
 20 21  1  0
 20 22  1  0
 22 23  2  0
  5 24  2  0
 24 25  1  0
 25 26  1  0
 26 27  1  0
 25 28  2  0
 28 29  1  0
 29 30  1  0
 28  3  1  0
 17 12  1  0
 22 15  1  0
  1 31  1  0
  1 32  1  0
  1 33  1  0
  4 34  1  0
  8 35  1  0
 11 36  1  0
 13 37  1  0
 14 38  1  0
 17 39  1  0
 21 40  1  0
 21 41  1  0
 21 42  1  0
 24 43  1  0
 27 44  1  0
 27 45  1  0
 27 46  1  0
 30 47  1  0
 30 48  1  0
 30 49  1  0
M  END
$$$$
