
     RDKit          3D

 68 70  0  0  0  0  0  0  0  0999 V2000
    4.2196    2.0393    2.3104 C   0  0  0  0  0  0  0  0  0  0  0  0
    5.0616    1.3797    1.2295 C   0  0  0  0  0  0  0  0  0  0  0  0
    4.6763    1.9048   -0.1063 N   0  0  0  0  0  0  0  0  0  0  0  0
    5.2014    3.2685   -0.3905 C   0  0  0  0  0  0  0  0  0  0  0  0
    4.0308    4.2104   -0.6213 C   0  0  0  0  0  0  0  0  0  0  0  0
    4.8423    0.8092   -1.4078 S   0  0  0  0  0  6  0  0  0  0  0  0
    6.1578    0.2107   -1.2945 O   0  0  0  0  0  0  0  0  0  0  0  0
    4.4176    1.4599   -2.6280 O   0  0  0  0  0  0  0  0  0  0  0  0
    3.6304   -0.4335   -1.0348 C   0  0  0  0  0  0  0  0  0  0  0  0
    4.0143   -1.7719   -0.9272 C   0  0  0  0  0  0  0  0  0  0  0  0
    3.0549   -2.7378   -0.6221 C   0  0  0  0  0  0  0  0  0  0  0  0
    1.7150   -2.3722   -0.4205 C   0  0  0  0  0  0  0  0  0  0  0  0
    0.7024   -3.3214   -0.1249 N   0  0  0  0  0  0  0  0  0  0  0  0
    0.3647   -4.1511   -1.3087 C   0  0  0  0  0  0  0  0  0  0  0  0
   -0.5145   -5.3320   -0.8703 C   0  0  0  0  0  0  0  0  0  0  0  0
    0.1318   -6.2167    0.0583 O   0  0  0  0  0  0  0  0  0  0  0  0
    1.2006   -5.5977    0.7902 C   0  0  0  0  0  0  0  0  0  0  0  0
    0.9463   -4.1162    1.1062 C   0  0  0  0  0  0  0  0  0  0  0  0
    1.3469   -1.0056   -0.5303 C   0  0  0  0  0  0  0  0  0  0  0  0
   -0.0139   -0.7215   -0.2949 N   0  0  0  0  0  0  0  0  0  0  0  0
   -0.6547    0.4997   -0.3061 C   0  0  0  0  0  0  0  0  0  0  0  0
   -0.1346    1.5883   -0.5208 O   0  0  0  0  0  0  0  0  0  0  0  0
   -2.1388    0.3479   -0.0032 C   0  0  0  0  0  0  0  0  0  0  0  0
   -2.8907    1.6758   -0.0915 C   0  0  0  0  0  0  0  0  0  0  0  0
   -4.3622    1.5879    0.3585 C   0  0  0  0  0  0  0  0  0  0  0  0
   -4.9929    2.9918    0.3295 C   0  0  0  0  0  0  0  0  0  0  0  0
   -6.4679    2.9734    0.7224 C   0  0  0  0  0  0  0  0  0  0  0  0
   -7.2658    1.9954   -0.1327 C   0  0  0  0  0  0  0  0  0  0  0  0
   -6.6568    0.5983   -0.0949 C   0  0  0  0  0  0  0  0  0  0  0  0
   -5.1842    0.6136   -0.5011 C   0  0  0  0  0  0  0  0  0  0  0  0
    2.3023   -0.0413   -0.8430 C   0  0  0  0  0  0  0  0  0  0  0  0
    3.1517    1.9324    2.0966 H   0  0  0  0  0  0  0  0  0  0  0  0
    4.4194    1.5815    3.2829 H   0  0  0  0  0  0  0  0  0  0  0  0
    4.4404    3.1078    2.3902 H   0  0  0  0  0  0  0  0  0  0  0  0
    4.8904    0.2999    1.2846 H   0  0  0  0  0  0  0  0  0  0  0  0
    6.1281    1.5481    1.4140 H   0  0  0  0  0  0  0  0  0  0  0  0
    5.8102    3.6378    0.4425 H   0  0  0  0  0  0  0  0  0  0  0  0
    5.8599    3.2656   -1.2670 H   0  0  0  0  0  0  0  0  0  0  0  0
    4.3904    5.2204   -0.8409 H   0  0  0  0  0  0  0  0  0  0  0  0
    3.4130    3.8764   -1.4613 H   0  0  0  0  0  0  0  0  0  0  0  0
    3.3885    4.2604    0.2653 H   0  0  0  0  0  0  0  0  0  0  0  0
    5.0495   -2.0676   -1.0840 H   0  0  0  0  0  0  0  0  0  0  0  0
    3.3622   -3.7771   -0.5532 H   0  0  0  0  0  0  0  0  0  0  0  0
   -0.1769   -3.5404   -2.0395 H   0  0  0  0  0  0  0  0  0  0  0  0
    1.2700   -4.5426   -1.7889 H   0  0  0  0  0  0  0  0  0  0  0  0
   -0.8098   -5.9288   -1.7390 H   0  0  0  0  0  0  0  0  0  0  0  0
   -1.4318   -4.9681   -0.3939 H   0  0  0  0  0  0  0  0  0  0  0  0
    2.1202   -5.7224    0.2066 H   0  0  0  0  0  0  0  0  0  0  0  0
    1.3299   -6.1623    1.7192 H   0  0  0  0  0  0  0  0  0  0  0  0
    1.7663   -3.7085    1.7097 H   0  0  0  0  0  0  0  0  0  0  0  0
    0.0361   -4.0393    1.7128 H   0  0  0  0  0  0  0  0  0  0  0  0
   -0.5481   -1.5586   -0.0710 H   0  0  0  0  0  0  0  0  0  0  0  0
   -2.5533   -0.3695   -0.7201 H   0  0  0  0  0  0  0  0  0  0  0  0
   -2.2375   -0.0702    1.0053 H   0  0  0  0  0  0  0  0  0  0  0  0
   -2.8382    2.0526   -1.1212 H   0  0  0  0  0  0  0  0  0  0  0  0
   -2.3773    2.4192    0.5330 H   0  0  0  0  0  0  0  0  0  0  0  0
   -4.3816    1.2302    1.3970 H   0  0  0  0  0  0  0  0  0  0  0  0
   -4.4502    3.6577    1.0116 H   0  0  0  0  0  0  0  0  0  0  0  0
   -4.8956    3.4203   -0.6762 H   0  0  0  0  0  0  0  0  0  0  0  0
   -6.8889    3.9804    0.6144 H   0  0  0  0  0  0  0  0  0  0  0  0
   -6.5618    2.6997    1.7812 H   0  0  0  0  0  0  0  0  0  0  0  0
   -8.3031    1.9568    0.2191 H   0  0  0  0  0  0  0  0  0  0  0  0
   -7.2936    2.3541   -1.1697 H   0  0  0  0  0  0  0  0  0  0  0  0
   -7.2165   -0.0661   -0.7639 H   0  0  0  0  0  0  0  0  0  0  0  0
   -6.7505    0.1861    0.9185 H   0  0  0  0  0  0  0  0  0  0  0  0
   -4.7918   -0.4039   -0.4086 H   0  0  0  0  0  0  0  0  0  0  0  0
   -5.1034    0.8933   -1.5590 H   0  0  0  0  0  0  0  0  0  0  0  0
    2.0437    1.0090   -0.9393 H   0  0  0  0  0  0  0  0  0  0  0  0
  1  2  1  0
  2  3  1  0
  3  4  1  0
  4  5  1  0
  3  6  1  0
  6  7  2  0
  6  8  2  0
  6  9  1  0
  9 10  2  0
 10 11  1  0
 11 12  2  0
 12 13  1  0
 13 14  1  0
 14 15  1  0
 15 16  1  0
 16 17  1  0
 17 18  1  0
 12 19  1  0
 19 20  1  0
 20 21  1  0
 21 22  2  0
 21 23  1  0
 23 24  1  0
 24 25  1  0
 25 26  1  0
 26 27  1  0
 27 28  1  0
 28 29  1  0
 29 30  1  0
 19 31  2  0
 31  9  1  0
 18 13  1  0
 30 25  1  0
  1 32  1  0
  1 33  1  0
  1 34  1  0
  2 35  1  0
  2 36  1  0
  4 37  1  0
  4 38  1  0
  5 39  1  0
  5 40  1  0
  5 41  1  0
 10 42  1  0
 11 43  1  0
 14 44  1  0
 14 45  1  0
 15 46  1  0
 15 47  1  0
 17 48  1  0
 17 49  1  0
 18 50  1  0
 18 51  1  0
 20 52  1  0
 23 53  1  0
 23 54  1  0
 24 55  1  0
 24 56  1  0
 25 57  1  0
 26 58  1  0
 26 59  1  0
 27 60  1  0
 27 61  1  0
 28 62  1  0
 28 63  1  0
 29 64  1  0
 29 65  1  0
 30 66  1  0
 30 67  1  0
 31 68  1  0
M  END
$$$$
