
     RDKit          3D

 32 33  0  0  0  0  0  0  0  0999 V2000
   -2.0739    0.7520   -4.3745 N   0  0  0  0  0  0  0  0  0  0  0  0
   -2.2943    0.4502   -3.2754 C   0  0  0  0  0  0  0  0  0  0  0  0
   -2.5544    0.1035   -1.9059 C   0  0  0  0  0  0  0  0  0  0  0  0
   -3.8650    0.2746   -1.4275 C   0  0  0  0  0  0  0  0  0  0  0  0
   -4.1665   -0.0540   -0.1035 C   0  0  0  0  0  0  0  0  0  0  0  0
   -5.5322    0.1288    0.4034 N   0  0  0  0  0  4  0  0  0  0  0  0
   -5.7651   -0.2138    1.5706 O   0  0  0  0  0  0  0  0  0  0  0  0
   -6.3683    0.6202   -0.3667 O   0  0  0  0  0  1  0  0  0  0  0  0
   -3.1752   -0.5604    0.7374 C   0  0  0  0  0  0  0  0  0  0  0  0
   -1.8731   -0.7286    0.2496 C   0  0  0  0  0  0  0  0  0  0  0  0
   -1.5198   -0.3768   -1.0656 C   0  0  0  0  0  0  0  0  0  0  0  0
   -0.2386   -0.6039   -1.5680 N   0  0  0  0  0  0  0  0  0  0  0  0
    0.9351   -0.8410   -0.7179 C   0  0  0  0  0  0  0  0  0  0  0  0
    1.4075    0.4486   -0.0399 C   0  0  0  0  0  0  0  0  0  0  0  0
    2.6845    0.2745    0.7449 C   0  0  0  0  0  0  0  0  0  0  0  0
    3.5056    1.3753    0.9825 C   0  0  0  0  0  0  0  0  0  0  0  0
    4.6633    1.2043    1.7368 C   0  0  0  0  0  0  0  0  0  0  0  0
    4.9666   -0.0532    2.2422 C   0  0  0  0  0  0  0  0  0  0  0  0
    4.0897   -1.0901    1.9777 C   0  0  0  0  0  0  0  0  0  0  0  0
    2.9589   -0.9521    1.2494 N   0  0  0  0  0  0  0  0  0  0  0  0
   -4.6357    0.6583   -2.0956 H   0  0  0  0  0  0  0  0  0  0  0  0
   -3.3915   -0.8375    1.7682 H   0  0  0  0  0  0  0  0  0  0  0  0
   -1.1380   -1.1483    0.9327 H   0  0  0  0  0  0  0  0  0  0  0  0
   -0.0053   -0.1058   -2.4256 H   0  0  0  0  0  0  0  0  0  0  0  0
    0.7412   -1.6416    0.0040 H   0  0  0  0  0  0  0  0  0  0  0  0
    1.7345   -1.2195   -1.3679 H   0  0  0  0  0  0  0  0  0  0  0  0
    0.6379    0.8293    0.6414 H   0  0  0  0  0  0  0  0  0  0  0  0
    1.5601    1.2152   -0.8102 H   0  0  0  0  0  0  0  0  0  0  0  0
    3.2531    2.3553    0.5893 H   0  0  0  0  0  0  0  0  0  0  0  0
    5.3214    2.0468    1.9298 H   0  0  0  0  0  0  0  0  0  0  0  0
    5.8603   -0.2197    2.8327 H   0  0  0  0  0  0  0  0  0  0  0  0
    4.2769   -2.0907    2.3562 H   0  0  0  0  0  0  0  0  0  0  0  0
  1  2  3  0
  2  3  1  0
  3  4  2  0
  4  5  1  0
  5  6  1  0
  6  7  2  0
  6  8  1  0
  5  9  2  0
  9 10  1  0
 10 11  2  0
 11 12  1  0
 12 13  1  0
 13 14  1  0
 14 15  1  0
 15 16  2  0
 16 17  1  0
 17 18  2  0
 18 19  1  0
 19 20  2  0
 11  3  1  0
 20 15  1  0
  4 21  1  0
  9 22  1  0
 10 23  1  0
 12 24  1  0
 13 25  1  0
 13 26  1  0
 14 27  1  0
 14 28  1  0
 16 29  1  0
 17 30  1  0
 18 31  1  0
 19 32  1  0
M  CHG  2   6   1   8  -1
M  END
$$$$
