
     RDKit          3D

 49 53  0  0  0  0  0  0  0  0999 V2000
    6.2275    2.5948    1.5805 C   0  0  0  0  0  0  0  0  0  0  0  0
    5.9796    1.4151    0.7847 N   0  0  0  0  0  0  0  0  0  0  0  0
    6.9112    0.6061    0.2100 C   0  0  0  0  0  0  0  0  0  0  0  0
    6.1936   -0.3793   -0.4363 C   0  0  0  0  0  0  0  0  0  0  0  0
    6.7509   -1.4757   -1.1520 N   0  0  0  0  0  4  0  0  0  0  0  0
    6.4167   -2.6075   -0.7866 O   0  0  0  0  0  0  0  0  0  0  0  0
    7.5797   -1.1973   -2.0276 O   0  0  0  0  0  1  0  0  0  0  0  0
    4.8313   -0.0698   -0.2289 C   0  0  0  0  0  0  0  0  0  0  0  0
    3.6527   -0.7617   -0.7724 C   0  0  0  0  0  0  0  0  0  0  0  0
    3.7551   -1.6425   -1.6176 O   0  0  0  0  0  0  0  0  0  0  0  0
    2.4830   -0.2759   -0.2444 N   0  0  0  0  0  0  0  0  0  0  0  0
    1.2182   -0.6996   -0.5476 C   0  0  0  0  0  0  0  0  0  0  0  0
    0.7971   -1.7179   -1.4258 C   0  0  0  0  0  0  0  0  0  0  0  0
   -0.5750   -1.7176   -1.3458 C   0  0  0  0  0  0  0  0  0  0  0  0
   -0.9050   -0.7307   -0.4563 N   0  0  0  0  0  0  0  0  0  0  0  0
   -2.2604   -0.3335   -0.0454 C   0  0  0  0  0  0  0  0  0  0  0  0
   -3.0036   -1.5377    0.5952 C   0  0  0  0  0  0  0  0  0  0  0  0
   -4.4359   -1.1462    0.9984 C   0  0  0  0  0  0  0  0  0  0  0  0
   -4.3818   -0.0020    2.0217 C   0  0  0  0  0  0  0  0  0  0  0  0
   -3.6777    1.2170    1.4079 C   0  0  0  0  0  0  0  0  0  0  0  0
   -4.4482    1.6789    0.1620 C   0  0  0  0  0  0  0  0  0  0  0  0
   -4.5034    0.5434   -0.8712 C   0  0  0  0  0  0  0  0  0  0  0  0
   -5.2032   -0.6758   -0.2484 C   0  0  0  0  0  0  0  0  0  0  0  0
   -3.0715    0.1534   -1.2772 C   0  0  0  0  0  0  0  0  0  0  0  0
   -2.2482    0.8230    1.0002 C   0  0  0  0  0  0  0  0  0  0  0  0
    0.1805   -0.1044    0.0427 N   0  0  0  0  0  0  0  0  0  0  0  0
    4.7093    1.0292    0.5529 N   0  0  0  0  0  0  0  0  0  0  0  0
    5.8018    3.4549    1.0583 H   0  0  0  0  0  0  0  0  0  0  0  0
    5.7525    2.4595    2.5553 H   0  0  0  0  0  0  0  0  0  0  0  0
    7.3045    2.7285    1.7055 H   0  0  0  0  0  0  0  0  0  0  0  0
    7.9744    0.7780    0.3082 H   0  0  0  0  0  0  0  0  0  0  0  0
    2.5427    0.4848    0.4226 H   0  0  0  0  0  0  0  0  0  0  0  0
    1.4040   -2.3687   -2.0392 H   0  0  0  0  0  0  0  0  0  0  0  0
   -1.3212   -2.3230   -1.8402 H   0  0  0  0  0  0  0  0  0  0  0  0
   -3.0496   -2.3829   -0.1036 H   0  0  0  0  0  0  0  0  0  0  0  0
   -2.4535   -1.8957    1.4753 H   0  0  0  0  0  0  0  0  0  0  0  0
   -4.9437   -2.0112    1.4389 H   0  0  0  0  0  0  0  0  0  0  0  0
   -3.8492   -0.3297    2.9223 H   0  0  0  0  0  0  0  0  0  0  0  0
   -5.3972    0.2702    2.3344 H   0  0  0  0  0  0  0  0  0  0  0  0
   -3.6413    2.0302    2.1416 H   0  0  0  0  0  0  0  0  0  0  0  0
   -5.4649    1.9819    0.4412 H   0  0  0  0  0  0  0  0  0  0  0  0
   -3.9623    2.5601   -0.2748 H   0  0  0  0  0  0  0  0  0  0  0  0
   -5.0591    0.8761   -1.7551 H   0  0  0  0  0  0  0  0  0  0  0  0
   -5.2629   -1.4893   -0.9815 H   0  0  0  0  0  0  0  0  0  0  0  0
   -6.2338   -0.4165    0.0233 H   0  0  0  0  0  0  0  0  0  0  0  0
   -3.1198   -0.6299   -2.0448 H   0  0  0  0  0  0  0  0  0  0  0  0
   -2.5702    1.0116   -1.7446 H   0  0  0  0  0  0  0  0  0  0  0  0
   -1.7357    1.7033    0.5901 H   0  0  0  0  0  0  0  0  0  0  0  0
   -1.6878    0.5221    1.8951 H   0  0  0  0  0  0  0  0  0  0  0  0
  1  2  1  0
  2  3  1  0
  3  4  2  0
  4  5  1  0
  5  6  2  0
  5  7  1  0
  4  8  1  0
  8  9  1  0
  9 10  2  0
  9 11  1  0
 11 12  1  0
 12 13  1  0
 13 14  2  0
 14 15  1  0
 15 16  1  0
 16 17  1  0
 17 18  1  0
 18 19  1  0
 19 20  1  0
 20 21  1  0
 21 22  1  0
 22 23  1  0
 22 24  1  0
 20 25  1  0
 15 26  1  0
  8 27  2  0
 27  2  1  0
 26 12  2  0
 24 16  1  0
 25 16  1  0
 23 18  1  0
  1 28  1  0
  1 29  1  0
  1 30  1  0
  3 31  1  0
 11 32  1  0
 13 33  1  0
 14 34  1  0
 17 35  1  0
 17 36  1  0
 18 37  1  0
 19 38  1  0
 19 39  1  0
 20 40  1  0
 21 41  1  0
 21 42  1  0
 22 43  1  0
 23 44  1  0
 23 45  1  0
 24 46  1  0
 24 47  1  0
 25 48  1  0
 25 49  1  0
M  CHG  2   5   1   7  -1
M  END
$$$$
