
     RDKit          3D

 40 41  0  0  0  0  0  0  0  0999 V2000
    0.2449    3.8908   -0.8997 C   0  0  0  0  0  0  0  0  0  0  0  0
   -0.0969    2.6220   -1.6700 C   0  0  0  0  0  0  0  0  0  0  0  0
   -0.5708    1.5073   -0.7609 C   0  0  0  0  0  0  0  0  0  0  0  0
   -1.9306    1.3419   -0.4950 C   0  0  0  0  0  0  0  0  0  0  0  0
   -2.9906    2.2136   -1.1069 C   0  0  0  0  0  0  0  0  0  0  0  0
   -2.4058    0.3771    0.3236 N   0  0  0  0  0  0  0  0  0  0  0  0
   -1.5719   -0.4725    0.9553 C   0  0  0  0  0  0  0  0  0  0  0  0
   -2.0996   -1.4586    1.8161 C   0  0  0  0  0  0  0  0  0  0  0  0
   -3.4751   -1.4722    1.9327 O   0  0  0  0  0  0  0  0  0  0  0  0
   -4.0595   -2.3994    2.8344 C   0  0  0  0  0  0  0  0  0  0  0  0
   -1.2643   -2.3553    2.4918 C   0  0  0  0  0  0  0  0  0  0  0  0
    0.1091   -2.2796    2.3240 C   0  0  0  0  0  0  0  0  0  0  0  0
    0.6443   -1.3122    1.4796 C   0  0  0  0  0  0  0  0  0  0  0  0
   -0.1769   -0.3932    0.7730 C   0  0  0  0  0  0  0  0  0  0  0  0
    0.3132    0.6142   -0.1152 C   0  0  0  0  0  0  0  0  0  0  0  0
    2.0989    0.7595   -0.4123 S   0  0  0  0  0  0  0  0  0  0  0  0
    2.2674   -0.5389   -1.6908 C   0  0  0  0  0  0  0  0  0  0  0  0
    3.7271   -0.7607   -2.0618 C   0  0  0  0  0  0  0  0  0  0  0  0
    4.4813   -1.4894   -0.9845 C   0  0  0  0  0  0  0  0  0  0  0  0
    4.0201   -2.2065   -0.1130 O   0  0  0  0  0  0  0  0  0  0  0  0
    5.8134   -1.3189   -1.0972 O   0  0  0  0  0  0  0  0  0  0  0  0
   -0.6221    4.2692   -0.3484 H   0  0  0  0  0  0  0  0  0  0  0  0
    1.0493    3.7221   -0.1769 H   0  0  0  0  0  0  0  0  0  0  0  0
    0.5725    4.6737   -1.5911 H   0  0  0  0  0  0  0  0  0  0  0  0
   -0.8600    2.8544   -2.4213 H   0  0  0  0  0  0  0  0  0  0  0  0
    0.7639    2.3016   -2.2665 H   0  0  0  0  0  0  0  0  0  0  0  0
   -2.8069    3.2677   -0.8805 H   0  0  0  0  0  0  0  0  0  0  0  0
   -3.0247    2.0686   -2.1909 H   0  0  0  0  0  0  0  0  0  0  0  0
   -3.9792    1.9606   -0.7082 H   0  0  0  0  0  0  0  0  0  0  0  0
   -3.7145   -2.2275    3.8593 H   0  0  0  0  0  0  0  0  0  0  0  0
   -5.1426   -2.2436    2.8191 H   0  0  0  0  0  0  0  0  0  0  0  0
   -3.8689   -3.4302    2.5186 H   0  0  0  0  0  0  0  0  0  0  0  0
   -1.6548   -3.1207    3.1530 H   0  0  0  0  0  0  0  0  0  0  0  0
    0.7672   -2.9699    2.8457 H   0  0  0  0  0  0  0  0  0  0  0  0
    1.7280   -1.2867    1.3794 H   0  0  0  0  0  0  0  0  0  0  0  0
    1.7152   -0.2099   -2.5775 H   0  0  0  0  0  0  0  0  0  0  0  0
    1.8109   -1.4697   -1.3388 H   0  0  0  0  0  0  0  0  0  0  0  0
    4.2214    0.1933   -2.2782 H   0  0  0  0  0  0  0  0  0  0  0  0
    3.7807   -1.3811   -2.9637 H   0  0  0  0  0  0  0  0  0  0  0  0
    6.1869   -1.8408   -0.3561 H   0  0  0  0  0  0  0  0  0  0  0  0
  1  2  1  0
  2  3  1  0
  3  4  2  0
  4  5  1  0
  4  6  1  0
  6  7  2  0
  7  8  1  0
  8  9  1  0
  9 10  1  0
  8 11  2  0
 11 12  1  0
 12 13  2  0
 13 14  1  0
 14 15  2  0
 15 16  1  0
 16 17  1  0
 17 18  1  0
 18 19  1  0
 19 20  2  0
 19 21  1  0
 15  3  1  0
 14  7  1  0
  1 22  1  0
  1 23  1  0
  1 24  1  0
  2 25  1  0
  2 26  1  0
  5 27  1  0
  5 28  1  0
  5 29  1  0
 10 30  1  0
 10 31  1  0
 10 32  1  0
 11 33  1  0
 12 34  1  0
 13 35  1  0
 17 36  1  0
 17 37  1  0
 18 38  1  0
 18 39  1  0
 21 40  1  0
M  END
$$$$
