
     RDKit          3D

 52 54  0  0  0  0  0  0  0  0999 V2000
    5.1876   -2.8609   -3.4537 C   0  0  0  0  0  0  0  0  0  0  0  0
    4.1698   -1.9559   -2.7872 C   0  0  0  0  0  0  0  0  0  0  0  0
    4.4040   -1.9852   -1.3733 O   0  0  0  0  0  0  0  0  0  0  0  0
    3.5496   -1.2251   -0.6450 C   0  0  0  0  0  0  0  0  0  0  0  0
    2.6312   -0.5564   -1.1015 O   0  0  0  0  0  0  0  0  0  0  0  0
    3.8589   -1.3014    0.8169 C   0  0  0  0  0  0  0  0  0  0  0  0
    4.9387   -2.0851    1.2663 C   0  0  0  0  0  0  0  0  0  0  0  0
    5.2306   -2.1773    2.6256 C   0  0  0  0  0  0  0  0  0  0  0  0
    4.4495   -1.4895    3.5463 C   0  0  0  0  0  0  0  0  0  0  0  0
    3.3749   -0.7057    3.1146 C   0  0  0  0  0  0  0  0  0  0  0  0
    3.0635   -0.5937    1.7537 C   0  0  0  0  0  0  0  0  0  0  0  0
    1.9803    0.1987    1.2918 N   0  0  0  0  0  0  0  0  0  0  0  0
    1.0898    0.9636    2.0239 C   0  0  0  0  0  0  0  0  0  0  0  0
    1.0996    1.1176    3.2393 O   0  0  0  0  0  0  0  0  0  0  0  0
    0.0576    1.6398    1.1388 C   0  0  0  0  0  0  0  0  0  0  0  0
   -0.9136    2.5451    1.8949 C   0  0  0  0  0  0  0  0  0  0  0  0
   -2.2066    2.4022    1.1313 C   0  0  0  0  0  0  0  0  0  0  0  0
   -3.1939    3.0961    1.3082 O   0  0  0  0  0  0  0  0  0  0  0  0
   -2.0778    1.3353    0.2484 N   0  0  0  0  0  0  0  0  0  0  0  0
   -3.1886    0.7173   -0.4795 C   0  0  0  0  0  0  0  0  0  0  0  0
   -4.2180    0.0571    0.4593 C   0  0  0  0  0  0  0  0  0  0  0  0
   -5.5615    0.7793    0.4768 C   0  0  0  0  0  0  0  0  0  0  0  0
   -6.1683    0.9126   -0.9198 C   0  0  0  0  0  0  0  0  0  0  0  0
   -5.1341    1.1229   -2.0268 C   0  0  0  0  0  0  0  0  0  0  0  0
   -3.8237    1.6855   -1.4914 C   0  0  0  0  0  0  0  0  0  0  0  0
   -0.8551    0.6130    0.4907 C   0  0  0  0  0  0  0  0  0  0  0  0
    5.0544   -2.8656   -4.5389 H   0  0  0  0  0  0  0  0  0  0  0  0
    6.2061   -2.5311   -3.2236 H   0  0  0  0  0  0  0  0  0  0  0  0
    5.0933   -3.8864   -3.0812 H   0  0  0  0  0  0  0  0  0  0  0  0
    3.1572   -2.3149   -3.0025 H   0  0  0  0  0  0  0  0  0  0  0  0
    4.2855   -0.9312   -3.1577 H   0  0  0  0  0  0  0  0  0  0  0  0
    5.5649   -2.6346    0.5668 H   0  0  0  0  0  0  0  0  0  0  0  0
    6.0672   -2.7838    2.9657 H   0  0  0  0  0  0  0  0  0  0  0  0
    4.6711   -1.5584    4.6093 H   0  0  0  0  0  0  0  0  0  0  0  0
    2.7988   -0.1923    3.8783 H   0  0  0  0  0  0  0  0  0  0  0  0
    1.8769    0.2173    0.2746 H   0  0  0  0  0  0  0  0  0  0  0  0
    0.5750    2.2322    0.3724 H   0  0  0  0  0  0  0  0  0  0  0  0
   -0.5781    3.5860    1.8797 H   0  0  0  0  0  0  0  0  0  0  0  0
   -1.0885    2.2293    2.9283 H   0  0  0  0  0  0  0  0  0  0  0  0
   -2.7338   -0.0917   -1.0685 H   0  0  0  0  0  0  0  0  0  0  0  0
   -4.3915   -0.9711    0.1146 H   0  0  0  0  0  0  0  0  0  0  0  0
   -3.8293   -0.0283    1.4807 H   0  0  0  0  0  0  0  0  0  0  0  0
   -6.2639    0.2478    1.1298 H   0  0  0  0  0  0  0  0  0  0  0  0
   -5.4346    1.7773    0.9123 H   0  0  0  0  0  0  0  0  0  0  0  0
   -6.8779    1.7491   -0.9140 H   0  0  0  0  0  0  0  0  0  0  0  0
   -6.7576    0.0176   -1.1553 H   0  0  0  0  0  0  0  0  0  0  0  0
   -5.5464    1.7870   -2.7950 H   0  0  0  0  0  0  0  0  0  0  0  0
   -4.9361    0.1636   -2.5220 H   0  0  0  0  0  0  0  0  0  0  0  0
   -4.0124    2.6690   -1.0469 H   0  0  0  0  0  0  0  0  0  0  0  0
   -3.1244    1.8568   -2.3190 H   0  0  0  0  0  0  0  0  0  0  0  0
   -1.0715   -0.2362    1.1495 H   0  0  0  0  0  0  0  0  0  0  0  0
   -0.4485    0.2425   -0.4556 H   0  0  0  0  0  0  0  0  0  0  0  0
  1  2  1  0
  2  3  1  0
  3  4  1  0
  4  5  2  0
  4  6  1  0
  6  7  2  0
  7  8  1  0
  8  9  2  0
  9 10  1  0
 10 11  2  0
 11 12  1  0
 12 13  1  0
 13 14  2  0
 13 15  1  0
 15 16  1  0
 16 17  1  0
 17 18  2  0
 17 19  1  0
 19 20  1  0
 20 21  1  0
 21 22  1  0
 22 23  1  0
 23 24  1  0
 24 25  1  0
 19 26  1  0
 11  6  1  0
 26 15  1  0
 25 20  1  0
  1 27  1  0
  1 28  1  0
  1 29  1  0
  2 30  1  0
  2 31  1  0
  7 32  1  0
  8 33  1  0
  9 34  1  0
 10 35  1  0
 12 36  1  0
 15 37  1  0
 16 38  1  0
 16 39  1  0
 20 40  1  0
 21 41  1  0
 21 42  1  0
 22 43  1  0
 22 44  1  0
 23 45  1  0
 23 46  1  0
 24 47  1  0
 24 48  1  0
 25 49  1  0
 25 50  1  0
 26 51  1  0
 26 52  1  0
M  END
$$$$
