
     RDKit          3D

 57 60  0  0  0  0  0  0  0  0999 V2000
    3.8598    1.7824   -2.6265 O   0  0  0  0  0  0  0  0  0  0  0  0
    3.8079    0.3888   -2.2444 S   0  0  0  0  0  6  0  0  0  0  0  0
    3.7313   -0.6705   -3.2263 O   0  0  0  0  0  0  0  0  0  0  0  0
    5.1332    0.0497   -1.2794 N   0  0  0  0  0  0  0  0  0  0  0  0
    5.6522    1.0704   -0.3614 C   0  0  0  0  0  0  0  0  0  0  0  0
    6.7941    1.8468   -1.0066 C   0  0  0  0  0  0  0  0  0  0  0  0
    7.9941    0.9185   -0.8790 C   0  0  0  0  0  0  0  0  0  0  0  0
    7.7846    0.1712    0.4368 C   0  0  0  0  0  0  0  0  0  0  0  0
    6.3191    0.3908    0.8338 C   0  0  0  0  0  0  0  0  0  0  0  0
    2.4630    0.1579   -1.1063 C   0  0  0  0  0  0  0  0  0  0  0  0
    2.0718   -1.1435   -0.7676 C   0  0  0  0  0  0  0  0  0  0  0  0
    1.0119   -1.3354    0.1197 C   0  0  0  0  0  0  0  0  0  0  0  0
    0.3497   -0.2222    0.6486 C   0  0  0  0  0  0  0  0  0  0  0  0
   -1.0008   -0.4421    1.7830 S   0  0  0  0  0  6  0  0  0  0  0  0
   -0.7261    0.3950    2.9308 O   0  0  0  0  0  0  0  0  0  0  0  0
   -1.2524   -1.8599    1.9263 O   0  0  0  0  0  0  0  0  0  0  0  0
   -2.3158    0.2319    0.9304 N   0  0  0  0  0  0  0  0  0  0  0  0
   -2.7121   -0.5184   -0.3133 C   0  0  0  0  0  0  0  0  0  0  0  0
   -3.8331    0.2276   -1.0676 C   0  0  0  0  0  0  0  0  0  0  0  0
   -5.0015    0.4904   -0.2016 N   0  0  0  0  0  0  0  0  0  0  0  0
   -6.0398   -0.4386   -0.0963 C   0  0  0  0  0  0  0  0  0  0  0  0
   -5.9682   -1.7443   -0.6044 C   0  0  0  0  0  0  0  0  0  0  0  0
   -7.0364   -2.6449   -0.4862 C   0  0  0  0  0  0  0  0  0  0  0  0
   -8.2181   -2.2533    0.1313 C   0  0  0  0  0  0  0  0  0  0  0  0
   -8.3323   -0.9593    0.6204 C   0  0  0  0  0  0  0  0  0  0  0  0
   -7.2588   -0.0685    0.5003 C   0  0  0  0  0  0  0  0  0  0  0  0
   -4.6196    1.2107    1.0383 C   0  0  0  0  0  0  0  0  0  0  0  0
   -3.5224    0.4459    1.8067 C   0  0  0  0  0  0  0  0  0  0  0  0
    0.7375    1.0793    0.3072 C   0  0  0  0  0  0  0  0  0  0  0  0
    1.7959    1.2706   -0.5812 C   0  0  0  0  0  0  0  0  0  0  0  0
    5.7614   -0.6530   -1.6641 H   0  0  0  0  0  0  0  0  0  0  0  0
    4.8447    1.7269   -0.0247 H   0  0  0  0  0  0  0  0  0  0  0  0
    6.6034    2.1212   -2.0488 H   0  0  0  0  0  0  0  0  0  0  0  0
    6.9841    2.7668   -0.4405 H   0  0  0  0  0  0  0  0  0  0  0  0
    8.0084    0.2058   -1.7138 H   0  0  0  0  0  0  0  0  0  0  0  0
    8.9446    1.4647   -0.8960 H   0  0  0  0  0  0  0  0  0  0  0  0
    8.4525    0.5631    1.2198 H   0  0  0  0  0  0  0  0  0  0  0  0
    8.0134   -0.8980    0.3198 H   0  0  0  0  0  0  0  0  0  0  0  0
    6.2866    1.0644    1.7038 H   0  0  0  0  0  0  0  0  0  0  0  0
    5.8298   -0.5475    1.1291 H   0  0  0  0  0  0  0  0  0  0  0  0
    2.5907   -2.0031   -1.1877 H   0  0  0  0  0  0  0  0  0  0  0  0
    0.7125   -2.3453    0.3923 H   0  0  0  0  0  0  0  0  0  0  0  0
   -1.8515   -0.6040   -0.9836 H   0  0  0  0  0  0  0  0  0  0  0  0
   -3.0412   -1.5266   -0.0402 H   0  0  0  0  0  0  0  0  0  0  0  0
   -4.1135   -0.3038   -1.9841 H   0  0  0  0  0  0  0  0  0  0  0  0
   -3.4418    1.1988   -1.3986 H   0  0  0  0  0  0  0  0  0  0  0  0
   -5.0744   -2.1101   -1.0975 H   0  0  0  0  0  0  0  0  0  0  0  0
   -6.9393   -3.6524   -0.8821 H   0  0  0  0  0  0  0  0  0  0  0  0
   -9.0482   -2.9488    0.2188 H   0  0  0  0  0  0  0  0  0  0  0  0
   -9.2580   -0.6308    1.0854 H   0  0  0  0  0  0  0  0  0  0  0  0
   -7.4062    0.9489    0.8530 H   0  0  0  0  0  0  0  0  0  0  0  0
   -5.4657    1.4001    1.7061 H   0  0  0  0  0  0  0  0  0  0  0  0
   -4.2325    2.1967    0.7495 H   0  0  0  0  0  0  0  0  0  0  0  0
   -3.9042   -0.5228    2.1505 H   0  0  0  0  0  0  0  0  0  0  0  0
   -3.2390    1.0431    2.6797 H   0  0  0  0  0  0  0  0  0  0  0  0
    0.2185    1.9378    0.7307 H   0  0  0  0  0  0  0  0  0  0  0  0
    2.0962    2.2808   -0.8532 H   0  0  0  0  0  0  0  0  0  0  0  0
  1  2  2  0
  2  3  2  0
  2  4  1  0
  4  5  1  0
  5  6  1  0
  6  7  1  0
  7  8  1  0
  8  9  1  0
  2 10  1  0
 10 11  2  0
 11 12  1  0
 12 13  2  0
 13 14  1  0
 14 15  2  0
 14 16  2  0
 14 17  1  0
 17 18  1  0
 18 19  1  0
 19 20  1  0
 20 21  1  0
 21 22  2  0
 22 23  1  0
 23 24  2  0
 24 25  1  0
 25 26  2  0
 20 27  1  0
 27 28  1  0
 13 29  1  0
 29 30  2  0
  9  5  1  0
 30 10  1  0
 28 17  1  0
 26 21  1  0
  4 31  1  0
  5 32  1  0
  6 33  1  0
  6 34  1  0
  7 35  1  0
  7 36  1  0
  8 37  1  0
  8 38  1  0
  9 39  1  0
  9 40  1  0
 11 41  1  0
 12 42  1  0
 18 43  1  0
 18 44  1  0
 19 45  1  0
 19 46  1  0
 22 47  1  0
 23 48  1  0
 24 49  1  0
 25 50  1  0
 26 51  1  0
 27 52  1  0
 27 53  1  0
 28 54  1  0
 28 55  1  0
 29 56  1  0
 30 57  1  0
M  END
$$$$
