
     RDKit          3D

 67 69  0  0  0  0  0  0  0  0999 V2000
   -0.4527    0.1349    2.0993 C   0  0  0  0  0  0  0  0  0  0  0  0
   -0.6311    0.9927    0.8485 C   0  0  0  0  0  0  0  0  0  0  0  0
   -1.9774    0.8117    0.3096 N   0  0  0  0  0  0  0  0  0  0  0  0
   -3.0924    1.3663    0.8892 C   0  0  0  0  0  0  0  0  0  0  0  0
   -3.0329    2.1308    1.8456 O   0  0  0  0  0  0  0  0  0  0  0  0
   -4.4107    0.9835    0.3058 C   0  0  0  0  0  0  0  0  0  0  0  0
   -4.5952   -0.2051   -0.4074 C   0  0  0  0  0  0  0  0  0  0  0  0
   -5.8630   -0.5505   -0.8955 C   0  0  0  0  0  0  0  0  0  0  0  0
   -6.9803    0.2731   -0.6805 C   0  0  0  0  0  0  0  0  0  0  0  0
   -8.3861   -0.0879   -1.1943 C   0  0  0  0  0  0  0  0  0  0  0  0
   -8.9039    1.0277   -2.1290 C   0  0  0  0  0  0  0  0  0  0  0  0
   -8.4372   -1.4090   -1.9963 C   0  0  0  0  0  0  0  0  0  0  0  0
   -9.3509   -0.2399    0.0001 C   0  0  0  0  0  0  0  0  0  0  0  0
   -6.7749    1.4627    0.0471 C   0  0  0  0  0  0  0  0  0  0  0  0
   -5.5102    1.8122    0.5375 C   0  0  0  0  0  0  0  0  0  0  0  0
    0.3690    0.5614   -0.2501 C   0  0  0  0  0  0  0  0  0  0  0  0
   -0.0452    0.0117   -1.2758 O   0  0  0  0  0  0  0  0  0  0  0  0
    1.7237    0.7585   -0.0257 N   0  0  0  0  0  0  0  0  0  0  0  0
    2.2636    1.8000    0.8571 C   0  0  0  0  0  0  0  0  0  0  0  0
    3.6355    1.4010    1.4362 C   0  0  0  0  0  0  0  0  0  0  0  0
    4.5895    1.0254    0.3806 N   0  0  0  0  0  0  0  0  0  0  0  0
    5.9389    0.7309    0.8789 C   0  0  0  0  0  0  0  0  0  0  0  0
    6.0629   -0.4702    1.7816 C   0  0  0  0  0  0  0  0  0  0  0  0
    6.8756   -1.5300    1.6360 C   0  0  0  0  0  0  0  0  0  0  0  0
    7.8159   -1.7323    0.5338 C   0  0  0  0  0  0  0  0  0  0  0  0
    7.3693   -2.1576   -0.7219 C   0  0  0  0  0  0  0  0  0  0  0  0
    8.2813   -2.3707   -1.7573 C   0  0  0  0  0  0  0  0  0  0  0  0
    9.6440   -2.1608   -1.5421 C   0  0  0  0  0  0  0  0  0  0  0  0
   10.0965   -1.7367   -0.2918 C   0  0  0  0  0  0  0  0  0  0  0  0
    9.1839   -1.5227    0.7443 C   0  0  0  0  0  0  0  0  0  0  0  0
    4.0433   -0.0521   -0.4636 C   0  0  0  0  0  0  0  0  0  0  0  0
    2.6664    0.3098   -1.0546 C   0  0  0  0  0  0  0  0  0  0  0  0
    0.5630    0.1925    2.5020 H   0  0  0  0  0  0  0  0  0  0  0  0
   -1.1432    0.4435    2.8925 H   0  0  0  0  0  0  0  0  0  0  0  0
   -0.6536   -0.9215    1.8797 H   0  0  0  0  0  0  0  0  0  0  0  0
   -0.5043    2.0563    1.0702 H   0  0  0  0  0  0  0  0  0  0  0  0
   -2.0325    0.3089   -0.5713 H   0  0  0  0  0  0  0  0  0  0  0  0
   -3.7763   -0.8986   -0.5726 H   0  0  0  0  0  0  0  0  0  0  0  0
   -5.9481   -1.4907   -1.4342 H   0  0  0  0  0  0  0  0  0  0  0  0
   -9.0121    1.9868   -1.6108 H   0  0  0  0  0  0  0  0  0  0  0  0
   -8.2204    1.1826   -2.9718 H   0  0  0  0  0  0  0  0  0  0  0  0
   -9.8878    0.7736   -2.5422 H   0  0  0  0  0  0  0  0  0  0  0  0
   -9.4571   -1.6226   -2.3417 H   0  0  0  0  0  0  0  0  0  0  0  0
   -7.7975   -1.3628   -2.8848 H   0  0  0  0  0  0  0  0  0  0  0  0
   -8.1183   -2.2648   -1.3886 H   0  0  0  0  0  0  0  0  0  0  0  0
   -9.4511    0.6864    0.5747 H   0  0  0  0  0  0  0  0  0  0  0  0
  -10.3569   -0.5196   -0.3353 H   0  0  0  0  0  0  0  0  0  0  0  0
   -9.0018   -1.0163    0.6918 H   0  0  0  0  0  0  0  0  0  0  0  0
   -7.6053    2.1353    0.2545 H   0  0  0  0  0  0  0  0  0  0  0  0
   -5.3881    2.7335    1.1067 H   0  0  0  0  0  0  0  0  0  0  0  0
    2.3540    2.7138    0.2561 H   0  0  0  0  0  0  0  0  0  0  0  0
    1.5801    2.0280    1.6767 H   0  0  0  0  0  0  0  0  0  0  0  0
    3.4788    0.5706    2.1364 H   0  0  0  0  0  0  0  0  0  0  0  0
    4.0280    2.2492    2.0099 H   0  0  0  0  0  0  0  0  0  0  0  0
    6.3016    1.6037    1.4387 H   0  0  0  0  0  0  0  0  0  0  0  0
    6.6131    0.6529    0.0184 H   0  0  0  0  0  0  0  0  0  0  0  0
    5.4473   -0.4493    2.6780 H   0  0  0  0  0  0  0  0  0  0  0  0
    6.8779   -2.3148    2.3916 H   0  0  0  0  0  0  0  0  0  0  0  0
    6.3119   -2.3307   -0.9008 H   0  0  0  0  0  0  0  0  0  0  0  0
    7.9286   -2.7088   -2.7285 H   0  0  0  0  0  0  0  0  0  0  0  0
   10.3534   -2.3329   -2.3476 H   0  0  0  0  0  0  0  0  0  0  0  0
   11.1596   -1.5827   -0.1197 H   0  0  0  0  0  0  0  0  0  0  0  0
    9.5500   -1.1969    1.7150 H   0  0  0  0  0  0  0  0  0  0  0  0
    3.9357   -0.9773    0.1183 H   0  0  0  0  0  0  0  0  0  0  0  0
    4.7278   -0.2581   -1.2947 H   0  0  0  0  0  0  0  0  0  0  0  0
    2.2623   -0.5600   -1.5844 H   0  0  0  0  0  0  0  0  0  0  0  0
    2.7660    1.1225   -1.7844 H   0  0  0  0  0  0  0  0  0  0  0  0
  1  2  1  0
  2  3  1  0
  3  4  1  0
  4  5  2  0
  4  6  1  0
  6  7  2  0
  7  8  1  0
  8  9  2  0
  9 10  1  0
 10 11  1  0
 10 12  1  0
 10 13  1  0
  9 14  1  0
 14 15  2  0
  2 16  1  0
 16 17  2  0
 16 18  1  0
 18 19  1  0
 19 20  1  0
 20 21  1  0
 21 22  1  0
 22 23  1  0
 23 24  2  3
 24 25  1  0
 25 26  2  0
 26 27  1  0
 27 28  2  0
 28 29  1  0
 29 30  2  0
 21 31  1  0
 31 32  1  0
 15  6  1  0
 32 18  1  0
 30 25  1  0
  1 33  1  0
  1 34  1  0
  1 35  1  0
  2 36  1  0
  3 37  1  0
  7 38  1  0
  8 39  1  0
 11 40  1  0
 11 41  1  0
 11 42  1  0
 12 43  1  0
 12 44  1  0
 12 45  1  0
 13 46  1  0
 13 47  1  0
 13 48  1  0
 14 49  1  0
 15 50  1  0
 19 51  1  0
 19 52  1  0
 20 53  1  0
 20 54  1  0
 22 55  1  0
 22 56  1  0
 23 57  1  0
 24 58  1  0
 26 59  1  0
 27 60  1  0
 28 61  1  0
 29 62  1  0
 30 63  1  0
 31 64  1  0
 31 65  1  0
 32 66  1  0
 32 67  1  0
M  END
$$$$
