
     RDKit          3D

 39 41  0  0  0  0  0  0  0  0999 V2000
   -0.1826    1.0255    3.3015 S   0  0  0  0  0  0  0  0  0  0  0  0
   -0.0164    0.1044    1.9101 C   0  0  0  0  0  0  0  0  0  0  0  0
    1.1940   -0.5055    1.7226 N   0  0  0  0  0  0  0  0  0  0  0  0
    1.9886   -0.3412    0.5022 C   0  0  0  0  0  0  0  0  0  0  0  0
    3.0017    0.8073    0.6573 C   0  0  0  0  0  0  0  0  0  0  0  0
    3.8554    1.0102   -0.5863 C   0  0  0  0  0  0  0  0  0  0  0  0
    5.0679    0.1587   -0.3038 C   0  0  0  0  0  0  0  0  0  0  0  0
    5.2320    0.3371    1.1880 C   0  0  0  0  0  0  0  0  0  0  0  0
    3.9114    0.4708    1.7293 O   0  0  0  0  0  0  0  0  0  0  0  0
   -1.0032   -0.1173    0.9610 N   0  0  0  0  0  0  0  0  0  0  0  0
   -0.9857   -1.2986    0.0807 C   0  0  0  0  0  0  0  0  0  0  0  0
   -2.3656   -1.9283   -0.1146 C   0  0  0  0  0  0  0  0  0  0  0  0
   -3.3027   -0.8920   -0.6684 C   0  0  0  0  0  0  0  0  0  0  0  0
   -4.2767   -1.2111   -1.6196 C   0  0  0  0  0  0  0  0  0  0  0  0
   -5.1267   -0.2184   -2.1057 C   0  0  0  0  0  0  0  0  0  0  0  0
   -5.0153    1.0894   -1.6356 C   0  0  0  0  0  0  0  0  0  0  0  0
   -4.0559    1.4081   -0.6736 C   0  0  0  0  0  0  0  0  0  0  0  0
   -3.1882    0.4222   -0.1870 C   0  0  0  0  0  0  0  0  0  0  0  0
   -2.2047    0.7383    0.9153 C   0  0  0  0  0  0  0  0  0  0  0  0
    1.7858   -0.3959    2.5432 H   0  0  0  0  0  0  0  0  0  0  0  0
    1.3441   -0.1316   -0.3531 H   0  0  0  0  0  0  0  0  0  0  0  0
    2.5032   -1.2953    0.3500 H   0  0  0  0  0  0  0  0  0  0  0  0
    2.4798    1.7321    0.9274 H   0  0  0  0  0  0  0  0  0  0  0  0
    4.1608    2.0619   -0.6511 H   0  0  0  0  0  0  0  0  0  0  0  0
    3.3482    0.7526   -1.5203 H   0  0  0  0  0  0  0  0  0  0  0  0
    5.9545    0.4572   -0.8691 H   0  0  0  0  0  0  0  0  0  0  0  0
    4.8493   -0.8901   -0.5359 H   0  0  0  0  0  0  0  0  0  0  0  0
    5.7845    1.2539    1.4201 H   0  0  0  0  0  0  0  0  0  0  0  0
    5.7408   -0.5076    1.6606 H   0  0  0  0  0  0  0  0  0  0  0  0
   -0.5984   -0.9672   -0.8905 H   0  0  0  0  0  0  0  0  0  0  0  0
   -0.3032   -2.0576    0.4766 H   0  0  0  0  0  0  0  0  0  0  0  0
   -2.7623   -2.2976    0.8384 H   0  0  0  0  0  0  0  0  0  0  0  0
   -2.2800   -2.7779   -0.8013 H   0  0  0  0  0  0  0  0  0  0  0  0
   -4.3772   -2.2289   -1.9879 H   0  0  0  0  0  0  0  0  0  0  0  0
   -5.8811   -0.4654   -2.8481 H   0  0  0  0  0  0  0  0  0  0  0  0
   -5.6845    1.8596   -2.0104 H   0  0  0  0  0  0  0  0  0  0  0  0
   -3.9954    2.4275   -0.2991 H   0  0  0  0  0  0  0  0  0  0  0  0
   -2.7345    0.6352    1.8701 H   0  0  0  0  0  0  0  0  0  0  0  0
   -1.8613    1.7756    0.8202 H   0  0  0  0  0  0  0  0  0  0  0  0
  1  2  2  0
  2  3  1  0
  3  4  1  0
  4  5  1  0
  5  6  1  0
  6  7  1  0
  7  8  1  0
  8  9  1  0
  2 10  1  0
 10 11  1  0
 11 12  1  0
 12 13  1  0
 13 14  2  0
 14 15  1  0
 15 16  2  0
 16 17  1  0
 17 18  2  0
 18 19  1  0
  9  5  1  0
 19 10  1  0
 18 13  1  0
  3 20  1  0
  4 21  1  0
  4 22  1  0
  5 23  1  0
  6 24  1  0
  6 25  1  0
  7 26  1  0
  7 27  1  0
  8 28  1  0
  8 29  1  0
 11 30  1  0
 11 31  1  0
 12 32  1  0
 12 33  1  0
 14 34  1  0
 15 35  1  0
 16 36  1  0
 17 37  1  0
 19 38  1  0
 19 39  1  0
M  END
$$$$
