
     RDKit          3D

 42 44  0  0  0  0  0  0  0  0999 V2000
   -6.2296    0.3056   -1.2439 C   0  0  0  0  0  0  0  0  0  0  0  0
   -5.4476   -0.9071   -0.8325 C   0  0  0  0  0  0  0  0  0  0  0  0
   -6.0996   -2.0212   -0.2875 C   0  0  0  0  0  0  0  0  0  0  0  0
   -5.3757   -3.1574    0.0832 C   0  0  0  0  0  0  0  0  0  0  0  0
   -3.9931   -3.1953   -0.0949 C   0  0  0  0  0  0  0  0  0  0  0  0
   -3.3303   -2.0910   -0.6267 C   0  0  0  0  0  0  0  0  0  0  0  0
   -4.0535   -0.9472   -0.9697 C   0  0  0  0  0  0  0  0  0  0  0  0
   -3.3995    0.1310   -1.5057 O   0  0  0  0  0  0  0  0  0  0  0  0
   -2.7257    0.8837   -0.5019 C   0  0  0  0  0  0  0  0  0  0  0  0
   -1.1995    0.7553   -0.5612 C   0  0  0  0  0  0  0  0  0  0  0  0
   -0.6004   -0.0823   -1.2308 O   0  0  0  0  0  0  0  0  0  0  0  0
   -0.5365    1.6734    0.2344 N   0  0  0  0  0  0  0  0  0  0  0  0
    0.9142    1.7466    0.2508 C   0  0  0  0  0  0  0  0  0  0  0  0
    1.5547    0.6066    1.0430 C   0  0  0  0  0  0  0  0  0  0  0  0
    3.0348    0.6318    0.8928 C   0  0  0  0  0  0  0  0  0  0  0  0
    3.8785    1.4057    1.5439 N   0  0  0  0  0  0  0  0  0  0  0  0
    5.1232    1.0836    1.0580 C   0  0  0  0  0  0  0  0  0  0  0  0
    6.3814    1.6014    1.3968 C   0  0  0  0  0  0  0  0  0  0  0  0
    7.5137    1.0987    0.7422 C   0  0  0  0  0  0  0  0  0  0  0  0
    7.3947    0.1005   -0.2289 C   0  0  0  0  0  0  0  0  0  0  0  0
    6.1471   -0.4295   -0.5791 C   0  0  0  0  0  0  0  0  0  0  0  0
    5.0359    0.0914    0.0876 C   0  0  0  0  0  0  0  0  0  0  0  0
    3.6944   -0.1771   -0.0012 N   0  0  0  0  0  0  0  0  0  0  0  0
   -7.3077    0.1375   -1.1476 H   0  0  0  0  0  0  0  0  0  0  0  0
   -5.9666    1.1579   -0.6103 H   0  0  0  0  0  0  0  0  0  0  0  0
   -6.0276    0.5527   -2.2906 H   0  0  0  0  0  0  0  0  0  0  0  0
   -7.1788   -2.0171   -0.1585 H   0  0  0  0  0  0  0  0  0  0  0  0
   -5.8917   -4.0155    0.5018 H   0  0  0  0  0  0  0  0  0  0  0  0
   -3.4328   -4.0863    0.1756 H   0  0  0  0  0  0  0  0  0  0  0  0
   -2.2553   -2.1284   -0.7832 H   0  0  0  0  0  0  0  0  0  0  0  0
   -3.0574    0.6362    0.5166 H   0  0  0  0  0  0  0  0  0  0  0  0
   -2.9765    1.9371   -0.6769 H   0  0  0  0  0  0  0  0  0  0  0  0
   -1.0610    2.3758    0.7411 H   0  0  0  0  0  0  0  0  0  0  0  0
    1.1849    2.7146    0.6869 H   0  0  0  0  0  0  0  0  0  0  0  0
    1.2641    1.7423   -0.7890 H   0  0  0  0  0  0  0  0  0  0  0  0
    1.2938    0.7070    2.1042 H   0  0  0  0  0  0  0  0  0  0  0  0
    1.1633   -0.3655    0.7199 H   0  0  0  0  0  0  0  0  0  0  0  0
    6.4654    2.3747    2.1511 H   0  0  0  0  0  0  0  0  0  0  0  0
    8.4956    1.4923    0.9942 H   0  0  0  0  0  0  0  0  0  0  0  0
    8.2898   -0.2733   -0.7230 H   0  0  0  0  0  0  0  0  0  0  0  0
    6.0555   -1.2037   -1.3333 H   0  0  0  0  0  0  0  0  0  0  0  0
    3.2614   -0.8456   -0.6230 H   0  0  0  0  0  0  0  0  0  0  0  0
  1  2  1  0
  2  3  2  0
  3  4  1  0
  4  5  2  0
  5  6  1  0
  6  7  2  0
  7  8  1  0
  8  9  1  0
  9 10  1  0
 10 11  2  0
 10 12  1  0
 12 13  1  0
 13 14  1  0
 14 15  1  0
 15 16  2  0
 16 17  1  0
 17 18  2  0
 18 19  1  0
 19 20  2  0
 20 21  1  0
 21 22  2  0
 22 23  1  0
  7  2  1  0
 23 15  1  0
 22 17  1  0
  1 24  1  0
  1 25  1  0
  1 26  1  0
  3 27  1  0
  4 28  1  0
  5 29  1  0
  6 30  1  0
  9 31  1  0
  9 32  1  0
 12 33  1  0
 13 34  1  0
 13 35  1  0
 14 36  1  0
 14 37  1  0
 18 38  1  0
 19 39  1  0
 20 40  1  0
 21 41  1  0
 23 42  1  0
M  END
$$$$
