
     RDKit          3D

 63 67  0  0  0  0  0  0  0  0999 V2000
   -5.4307    6.5477    1.3184 C   0  0  0  0  0  0  0  0  0  0  0  0
   -5.9245    5.2589    0.9758 O   0  0  0  0  0  0  0  0  0  0  0  0
   -5.0302    4.2228    1.0054 C   0  0  0  0  0  0  0  0  0  0  0  0
   -3.6909    4.3135    1.3589 C   0  0  0  0  0  0  0  0  0  0  0  0
   -2.8767    3.1730    1.3485 C   0  0  0  0  0  0  0  0  0  0  0  0
   -3.3975    1.9071    0.9765 C   0  0  0  0  0  0  0  0  0  0  0  0
   -2.7644    0.6097    0.8897 C   0  0  0  0  0  0  0  0  0  0  0  0
   -1.3613    0.3246    1.1686 C   0  0  0  0  0  0  0  0  0  0  0  0
   -0.9932   -0.3937    2.3083 C   0  0  0  0  0  0  0  0  0  0  0  0
    0.3558   -0.6546    2.5619 C   0  0  0  0  0  0  0  0  0  0  0  0
    1.3496   -0.1998    1.6899 C   0  0  0  0  0  0  0  0  0  0  0  0
    2.6222   -0.5346    2.0604 O   0  0  0  0  0  0  0  0  0  0  0  0
    3.7165   -0.0286    1.2895 C   0  0  0  0  0  0  0  0  0  0  0  0
    4.0521   -0.9827    0.1292 C   0  0  0  0  0  0  0  0  0  0  0  0
    5.1001   -0.4667   -0.7662 N   0  0  0  0  0  0  0  0  0  0  0  0
    6.4535   -0.5002   -0.1679 C   0  0  0  0  0  0  0  0  0  0  0  0
    7.3334   -1.6496   -0.6879 C   0  0  0  0  0  0  0  0  0  0  0  0
    7.5223   -1.6168   -2.1084 O   0  0  0  0  0  0  0  0  0  0  0  0
    6.4122   -1.0412   -2.8105 C   0  0  0  0  0  0  0  0  0  0  0  0
    5.0855   -1.1974   -2.0537 C   0  0  0  0  0  0  0  0  0  0  0  0
    0.9800    0.5178    0.5518 C   0  0  0  0  0  0  0  0  0  0  0  0
   -0.3700    0.7813    0.2940 C   0  0  0  0  0  0  0  0  0  0  0  0
   -3.6437   -0.3821    0.4846 C   0  0  0  0  0  0  0  0  0  0  0  0
   -3.4117   -1.8160    0.2541 C   0  0  0  0  0  0  0  0  0  0  0  0
   -3.9140   -2.7437    1.1829 C   0  0  0  0  0  0  0  0  0  0  0  0
   -3.6950   -4.1098    1.0127 C   0  0  0  0  0  0  0  0  0  0  0  0
   -2.9738   -4.5623   -0.0877 C   0  0  0  0  0  0  0  0  0  0  0  0
   -2.4672   -3.6521   -1.0194 C   0  0  0  0  0  0  0  0  0  0  0  0
   -2.6730   -2.2767   -0.8549 C   0  0  0  0  0  0  0  0  0  0  0  0
   -2.2256   -1.3256   -1.7381 O   0  0  0  0  0  0  0  0  0  0  0  0
   -1.1824   -1.7102   -2.6235 C   0  0  0  0  0  0  0  0  0  0  0  0
   -5.2146    0.2397    0.2184 S   0  0  0  0  0  0  0  0  0  0  0  0
   -4.7475    1.8406    0.6305 C   0  0  0  0  0  0  0  0  0  0  0  0
   -5.5693    2.9855    0.6403 C   0  0  0  0  0  0  0  0  0  0  0  0
   -6.2607    7.2560    1.2374 H   0  0  0  0  0  0  0  0  0  0  0  0
   -5.0731    6.5712    2.3531 H   0  0  0  0  0  0  0  0  0  0  0  0
   -4.6494    6.8694    0.6218 H   0  0  0  0  0  0  0  0  0  0  0  0
   -3.2370    5.2543    1.6519 H   0  0  0  0  0  0  0  0  0  0  0  0
   -1.8306    3.2628    1.6329 H   0  0  0  0  0  0  0  0  0  0  0  0
   -1.7479   -0.7550    3.0020 H   0  0  0  0  0  0  0  0  0  0  0  0
    0.6344   -1.2179    3.4494 H   0  0  0  0  0  0  0  0  0  0  0  0
    3.5445    1.0012    0.9550 H   0  0  0  0  0  0  0  0  0  0  0  0
    4.5656    0.0240    1.9794 H   0  0  0  0  0  0  0  0  0  0  0  0
    4.3198   -1.9706    0.5273 H   0  0  0  0  0  0  0  0  0  0  0  0
    3.1333   -1.1431   -0.4488 H   0  0  0  0  0  0  0  0  0  0  0  0
    6.9374    0.4476   -0.4357 H   0  0  0  0  0  0  0  0  0  0  0  0
    6.4240   -0.5321    0.9259 H   0  0  0  0  0  0  0  0  0  0  0  0
    6.8992   -2.6208   -0.4220 H   0  0  0  0  0  0  0  0  0  0  0  0
    8.3248   -1.6010   -0.2259 H   0  0  0  0  0  0  0  0  0  0  0  0
    6.3501   -1.5364   -3.7849 H   0  0  0  0  0  0  0  0  0  0  0  0
    6.6345    0.0160   -2.9963 H   0  0  0  0  0  0  0  0  0  0  0  0
    4.9112   -2.2683   -1.8820 H   0  0  0  0  0  0  0  0  0  0  0  0
    4.2641   -0.8167   -2.6709 H   0  0  0  0  0  0  0  0  0  0  0  0
    1.7092    0.8812   -0.1644 H   0  0  0  0  0  0  0  0  0  0  0  0
   -0.6461    1.3328   -0.6024 H   0  0  0  0  0  0  0  0  0  0  0  0
   -4.4772   -2.3998    2.0477 H   0  0  0  0  0  0  0  0  0  0  0  0
   -4.0894   -4.8181    1.7364 H   0  0  0  0  0  0  0  0  0  0  0  0
   -2.8086   -5.6279   -0.2267 H   0  0  0  0  0  0  0  0  0  0  0  0
   -1.9264   -4.0483   -1.8720 H   0  0  0  0  0  0  0  0  0  0  0  0
   -1.5589   -2.3830   -3.4004 H   0  0  0  0  0  0  0  0  0  0  0  0
   -0.3411   -2.1586   -2.0834 H   0  0  0  0  0  0  0  0  0  0  0  0
   -0.8142   -0.8061   -3.1180 H   0  0  0  0  0  0  0  0  0  0  0  0
   -6.6177    2.9096    0.3647 H   0  0  0  0  0  0  0  0  0  0  0  0
  1  2  1  0
  2  3  1  0
  3  4  2  0
  4  5  1  0
  5  6  2  0
  6  7  1  0
  7  8  1  0
  8  9  2  0
  9 10  1  0
 10 11  2  0
 11 12  1  0
 12 13  1  0
 13 14  1  0
 14 15  1  0
 15 16  1  0
 16 17  1  0
 17 18  1  0
 18 19  1  0
 19 20  1  0
 11 21  1  0
 21 22  2  0
  7 23  2  0
 23 24  1  0
 24 25  2  0
 25 26  1  0
 26 27  2  0
 27 28  1  0
 28 29  2  0
 29 30  1  0
 30 31  1  0
 23 32  1  0
 32 33  1  0
 33 34  2  0
 34  3  1  0
 33  6  1  0
 22  8  1  0
 29 24  1  0
 20 15  1  0
  1 35  1  0
  1 36  1  0
  1 37  1  0
  4 38  1  0
  5 39  1  0
  9 40  1  0
 10 41  1  0
 13 42  1  0
 13 43  1  0
 14 44  1  0
 14 45  1  0
 16 46  1  0
 16 47  1  0
 17 48  1  0
 17 49  1  0
 19 50  1  0
 19 51  1  0
 20 52  1  0
 20 53  1  0
 21 54  1  0
 22 55  1  0
 25 56  1  0
 26 57  1  0
 27 58  1  0
 28 59  1  0
 31 60  1  0
 31 61  1  0
 31 62  1  0
 34 63  1  0
M  END
$$$$
