
     RDKit          3D

 45 47  0  0  0  0  0  0  0  0999 V2000
    7.1424   -1.8229    2.1289 C   0  0  0  0  0  0  0  0  0  0  0  0
    6.5755   -0.9718    1.0310 C   0  0  0  0  0  0  0  0  0  0  0  0
    7.4242   -0.2611    0.1741 C   0  0  0  0  0  0  0  0  0  0  0  0
    6.8983    0.5463   -0.8361 C   0  0  0  0  0  0  0  0  0  0  0  0
    5.5165    0.6686   -0.9893 C   0  0  0  0  0  0  0  0  0  0  0  0
    4.6568   -0.0111   -0.1177 C   0  0  0  0  0  0  0  0  0  0  0  0
    3.1772    0.0909   -0.2324 C   0  0  0  0  0  0  0  0  0  0  0  0
    2.4629   -0.8500    0.1040 O   0  0  0  0  0  0  0  0  0  0  0  0
    2.6803    1.3057   -0.6879 N   0  0  0  0  0  0  0  0  0  0  0  0
    1.3663    1.6746   -0.9506 C   0  0  0  0  0  0  0  0  0  0  0  0
    1.1600    3.2495   -1.4653 S   0  0  0  0  0  0  0  0  0  0  0  0
    0.4431    0.6787   -0.7405 N   0  0  0  0  0  0  0  0  0  0  0  0
   -0.9554    0.5843   -0.9099 C   0  0  0  0  0  0  0  0  0  0  0  0
   -1.5442   -0.6168   -0.4873 C   0  0  0  0  0  0  0  0  0  0  0  0
   -2.9212   -0.8324   -0.6041 C   0  0  0  0  0  0  0  0  0  0  0  0
   -3.7473    0.1535   -1.1508 C   0  0  0  0  0  0  0  0  0  0  0  0
   -5.2364   -0.0685   -1.2830 C   0  0  0  0  0  0  0  0  0  0  0  0
   -5.9627   -0.2012    0.0349 C   0  0  0  0  0  0  0  0  0  0  0  0
   -5.9756    0.8489    0.9585 C   0  0  0  0  0  0  0  0  0  0  0  0
   -6.6637    0.6803    2.1502 C   0  0  0  0  0  0  0  0  0  0  0  0
   -7.3362   -0.4434    2.4781 N   0  0  0  0  0  0  0  0  0  0  0  0
   -7.3144   -1.4446    1.5734 C   0  0  0  0  0  0  0  0  0  0  0  0
   -6.6535   -1.3733    0.3562 C   0  0  0  0  0  0  0  0  0  0  0  0
   -3.1620    1.3488   -1.5820 C   0  0  0  0  0  0  0  0  0  0  0  0
   -1.7807    1.5600   -1.4631 C   0  0  0  0  0  0  0  0  0  0  0  0
    5.1889   -0.8356    0.8831 C   0  0  0  0  0  0  0  0  0  0  0  0
    7.2911   -1.2203    3.0301 H   0  0  0  0  0  0  0  0  0  0  0  0
    6.4704   -2.6544    2.3660 H   0  0  0  0  0  0  0  0  0  0  0  0
    8.1024   -2.2567    1.8298 H   0  0  0  0  0  0  0  0  0  0  0  0
    8.5043   -0.3417    0.2823 H   0  0  0  0  0  0  0  0  0  0  0  0
    7.5701    1.0744   -1.5093 H   0  0  0  0  0  0  0  0  0  0  0  0
    5.1364    1.2747   -1.8068 H   0  0  0  0  0  0  0  0  0  0  0  0
    3.3322    2.0652   -0.8281 H   0  0  0  0  0  0  0  0  0  0  0  0
    0.8660   -0.1665   -0.3508 H   0  0  0  0  0  0  0  0  0  0  0  0
   -0.9352   -1.4069   -0.0520 H   0  0  0  0  0  0  0  0  0  0  0  0
   -3.3411   -1.7743   -0.2580 H   0  0  0  0  0  0  0  0  0  0  0  0
   -5.6983    0.7543   -1.8443 H   0  0  0  0  0  0  0  0  0  0  0  0
   -5.3925   -0.9643   -1.8984 H   0  0  0  0  0  0  0  0  0  0  0  0
   -5.4545    1.7802    0.7618 H   0  0  0  0  0  0  0  0  0  0  0  0
   -6.6917    1.4706    2.8947 H   0  0  0  0  0  0  0  0  0  0  0  0
   -7.8612   -2.3382    1.8605 H   0  0  0  0  0  0  0  0  0  0  0  0
   -6.6807   -2.2196   -0.3219 H   0  0  0  0  0  0  0  0  0  0  0  0
   -3.7738    2.1352   -2.0196 H   0  0  0  0  0  0  0  0  0  0  0  0
   -1.4001    2.5036   -1.8293 H   0  0  0  0  0  0  0  0  0  0  0  0
    4.5171   -1.3727    1.5517 H   0  0  0  0  0  0  0  0  0  0  0  0
  1  2  1  0
  2  3  2  0
  3  4  1  0
  4  5  2  0
  5  6  1  0
  6  7  1  0
  7  8  2  0
  7  9  1  0
  9 10  1  0
 10 11  2  0
 10 12  1  0
 12 13  1  0
 13 14  2  0
 14 15  1  0
 15 16  2  0
 16 17  1  0
 17 18  1  0
 18 19  2  0
 19 20  1  0
 20 21  2  0
 21 22  1  0
 22 23  2  0
 16 24  1  0
 24 25  2  0
  6 26  2  0
 26  2  1  0
 25 13  1  0
 23 18  1  0
  1 27  1  0
  1 28  1  0
  1 29  1  0
  3 30  1  0
  4 31  1  0
  5 32  1  0
  9 33  1  0
 12 34  1  0
 14 35  1  0
 15 36  1  0
 17 37  1  0
 17 38  1  0
 19 39  1  0
 20 40  1  0
 22 41  1  0
 23 42  1  0
 24 43  1  0
 25 44  1  0
 26 45  1  0
M  END
$$$$
