
     RDKit          3D

 59 63  0  0  0  0  0  0  0  0999 V2000
    5.7128   -2.1914    4.4221 C   0  0  0  0  0  0  0  0  0  0  0  0
    5.0285   -2.6954    3.2821 O   0  0  0  0  0  0  0  0  0  0  0  0
    4.7582   -1.8049    2.2802 C   0  0  0  0  0  0  0  0  0  0  0  0
    4.0889   -2.3480    1.1814 C   0  0  0  0  0  0  0  0  0  0  0  0
    3.7508   -1.5497    0.0852 C   0  0  0  0  0  0  0  0  0  0  0  0
    4.0791   -0.1897    0.0726 C   0  0  0  0  0  0  0  0  0  0  0  0
    3.7104    0.6533   -1.0714 C   0  0  0  0  0  0  0  0  0  0  0  0
    4.9644    1.3554   -2.0008 S   0  0  0  0  0  0  0  0  0  0  0  0
    3.8662    2.1114   -3.0826 C   0  0  0  0  0  0  0  0  0  0  0  0
    4.1944    2.9221   -4.1880 C   0  0  0  0  0  0  0  0  0  0  0  0
    3.1665    3.4652   -4.9609 C   0  0  0  0  0  0  0  0  0  0  0  0
    1.8404    3.2121   -4.6446 C   0  0  0  0  0  0  0  0  0  0  0  0
    1.5203    2.4062   -3.5481 C   0  0  0  0  0  0  0  0  0  0  0  0
    2.5408    1.8330   -2.7439 C   0  0  0  0  0  0  0  0  0  0  0  0
    2.4609    0.9793   -1.5776 C   0  0  0  0  0  0  0  0  0  0  0  0
    1.2294    0.4943   -0.9622 C   0  0  0  0  0  0  0  0  0  0  0  0
    0.4265   -0.4300   -1.6396 C   0  0  0  0  0  0  0  0  0  0  0  0
   -0.7576   -0.8995   -1.0595 C   0  0  0  0  0  0  0  0  0  0  0  0
   -1.1491   -0.4443    0.1998 C   0  0  0  0  0  0  0  0  0  0  0  0
   -2.2759   -0.8182    0.8771 O   0  0  0  0  0  0  0  0  0  0  0  0
   -3.1501   -1.7472    0.2329 C   0  0  0  0  0  0  0  0  0  0  0  0
   -4.3620   -2.0322    1.1436 C   0  0  0  0  0  0  0  0  0  0  0  0
   -5.4495   -1.0399    1.2103 N   0  0  0  0  0  0  0  0  0  0  0  0
   -4.9966    0.2948    1.6451 C   0  0  0  0  0  0  0  0  0  0  0  0
   -6.1897    1.2564    1.7759 C   0  0  0  0  0  0  0  0  0  0  0  0
   -6.9030    1.3702    0.5352 O   0  0  0  0  0  0  0  0  0  0  0  0
   -7.3694    0.0804    0.1159 C   0  0  0  0  0  0  0  0  0  0  0  0
   -6.2029   -0.9090   -0.0492 C   0  0  0  0  0  0  0  0  0  0  0  0
   -0.3469    0.4812    0.8727 C   0  0  0  0  0  0  0  0  0  0  0  0
    0.8357    0.9522    0.2978 C   0  0  0  0  0  0  0  0  0  0  0  0
    4.7487    0.3524    1.1778 C   0  0  0  0  0  0  0  0  0  0  0  0
    5.0872   -0.4497    2.2748 C   0  0  0  0  0  0  0  0  0  0  0  0
    5.8543   -3.0213    5.1210 H   0  0  0  0  0  0  0  0  0  0  0  0
    5.1195   -1.4248    4.9315 H   0  0  0  0  0  0  0  0  0  0  0  0
    6.7036   -1.8111    4.1522 H   0  0  0  0  0  0  0  0  0  0  0  0
    3.8272   -3.4033    1.1782 H   0  0  0  0  0  0  0  0  0  0  0  0
    3.2308   -1.9994   -0.7571 H   0  0  0  0  0  0  0  0  0  0  0  0
    5.2328    3.1246   -4.4352 H   0  0  0  0  0  0  0  0  0  0  0  0
    3.4103    4.0934   -5.8144 H   0  0  0  0  0  0  0  0  0  0  0  0
    1.0447    3.6426   -5.2476 H   0  0  0  0  0  0  0  0  0  0  0  0
    0.4752    2.2228   -3.3089 H   0  0  0  0  0  0  0  0  0  0  0  0
    0.7208   -0.7956   -2.6210 H   0  0  0  0  0  0  0  0  0  0  0  0
   -1.3457   -1.6196   -1.6178 H   0  0  0  0  0  0  0  0  0  0  0  0
   -3.4781   -1.3659   -0.7397 H   0  0  0  0  0  0  0  0  0  0  0  0
   -2.6137   -2.6926    0.0836 H   0  0  0  0  0  0  0  0  0  0  0  0
   -3.9994   -2.1946    2.1668 H   0  0  0  0  0  0  0  0  0  0  0  0
   -4.8053   -2.9860    0.8302 H   0  0  0  0  0  0  0  0  0  0  0  0
   -4.4885    0.2262    2.6133 H   0  0  0  0  0  0  0  0  0  0  0  0
   -4.2975    0.7190    0.9147 H   0  0  0  0  0  0  0  0  0  0  0  0
   -6.8815    0.9290    2.5614 H   0  0  0  0  0  0  0  0  0  0  0  0
   -5.8320    2.2558    2.0431 H   0  0  0  0  0  0  0  0  0  0  0  0
   -8.1057   -0.2899    0.8396 H   0  0  0  0  0  0  0  0  0  0  0  0
   -7.8823    0.2105   -0.8423 H   0  0  0  0  0  0  0  0  0  0  0  0
   -5.5499   -0.5471   -0.8521 H   0  0  0  0  0  0  0  0  0  0  0  0
   -6.6073   -1.8817   -0.3509 H   0  0  0  0  0  0  0  0  0  0  0  0
   -0.6448    0.8387    1.8554 H   0  0  0  0  0  0  0  0  0  0  0  0
    1.4425    1.6731    0.8400 H   0  0  0  0  0  0  0  0  0  0  0  0
    5.0080    1.4089    1.1964 H   0  0  0  0  0  0  0  0  0  0  0  0
    5.6048    0.0176    3.1056 H   0  0  0  0  0  0  0  0  0  0  0  0
  1  2  1  0
  2  3  1  0
  3  4  2  0
  4  5  1  0
  5  6  2  0
  6  7  1  0
  7  8  1  0
  8  9  1  0
  9 10  2  0
 10 11  1  0
 11 12  2  0
 12 13  1  0
 13 14  2  0
 14 15  1  0
 15 16  1  0
 16 17  2  0
 17 18  1  0
 18 19  2  0
 19 20  1  0
 20 21  1  0
 21 22  1  0
 22 23  1  0
 23 24  1  0
 24 25  1  0
 25 26  1  0
 26 27  1  0
 27 28  1  0
 19 29  1  0
 29 30  2  0
  6 31  1  0
 31 32  2  0
 32  3  1  0
 15  7  2  0
 30 16  1  0
 14  9  1  0
 28 23  1  0
  1 33  1  0
  1 34  1  0
  1 35  1  0
  4 36  1  0
  5 37  1  0
 10 38  1  0
 11 39  1  0
 12 40  1  0
 13 41  1  0
 17 42  1  0
 18 43  1  0
 21 44  1  0
 21 45  1  0
 22 46  1  0
 22 47  1  0
 24 48  1  0
 24 49  1  0
 25 50  1  0
 25 51  1  0
 27 52  1  0
 27 53  1  0
 28 54  1  0
 28 55  1  0
 29 56  1  0
 30 57  1  0
 31 58  1  0
 32 59  1  0
M  END
$$$$
