
     RDKit          3D

 49 52  0  0  0  0  0  0  0  0999 V2000
   -0.9624    3.8207   -2.3393 C   0  0  0  0  0  0  0  0  0  0  0  0
   -1.0105    3.4323   -0.8912 C   0  0  0  0  0  0  0  0  0  0  0  0
   -1.2564    4.3925    0.0950 C   0  0  0  0  0  0  0  0  0  0  0  0
   -1.3270    4.0221    1.4372 C   0  0  0  0  0  0  0  0  0  0  0  0
   -1.1609    2.6867    1.8050 C   0  0  0  0  0  0  0  0  0  0  0  0
   -0.9202    1.7016    0.8338 C   0  0  0  0  0  0  0  0  0  0  0  0
   -0.7786    0.2485    1.2628 C   0  0  0  0  0  0  0  0  0  0  0  0
   -2.1104   -0.4918    1.1258 C   0  0  0  0  0  0  0  0  0  0  0  0
   -1.7873   -1.4257   -0.0076 C   0  0  0  0  0  0  0  0  0  0  0  0
   -2.8249   -2.2728   -0.6412 C   0  0  0  0  0  0  0  0  0  0  0  0
   -2.4705   -3.0769   -1.7318 C   0  0  0  0  0  0  0  0  0  0  0  0
   -3.4257   -3.8854   -2.3505 C   0  0  0  0  0  0  0  0  0  0  0  0
   -4.7384   -3.8952   -1.8827 C   0  0  0  0  0  0  0  0  0  0  0  0
   -5.0975   -3.0982   -0.7963 C   0  0  0  0  0  0  0  0  0  0  0  0
   -4.1441   -2.2875   -0.1741 C   0  0  0  0  0  0  0  0  0  0  0  0
   -0.5377   -1.4514   -0.3600 N   0  0  0  0  0  0  0  0  0  0  0  0
    0.1192   -0.5329    0.4086 N   0  0  0  0  0  0  0  0  0  0  0  0
    1.5105   -0.4495    0.3887 C   0  0  0  0  0  0  0  0  0  0  0  0
    2.2243    0.4573    1.1906 C   0  0  0  0  0  0  0  0  0  0  0  0
    3.6230    0.5297    1.1570 C   0  0  0  0  0  0  0  0  0  0  0  0
    4.3370   -0.3214    0.3159 C   0  0  0  0  0  0  0  0  0  0  0  0
    6.0984   -0.2166    0.2439 S   0  0  0  0  0  6  0  0  0  0  0  0
    6.5625   -1.3837    1.3587 N   0  0  0  0  0  0  0  0  0  0  0  0
    6.5275    1.0466    0.7983 O   0  0  0  0  0  0  0  0  0  0  0  0
    6.5561   -0.6924   -1.0407 O   0  0  0  0  0  0  0  0  0  0  0  0
    3.6643   -1.2234   -0.5041 C   0  0  0  0  0  0  0  0  0  0  0  0
    2.2671   -1.2820   -0.4582 C   0  0  0  0  0  0  0  0  0  0  0  0
   -0.8611    2.0904   -0.5156 C   0  0  0  0  0  0  0  0  0  0  0  0
   -0.2660    3.1810   -2.8916 H   0  0  0  0  0  0  0  0  0  0  0  0
   -1.9579    3.7288   -2.7843 H   0  0  0  0  0  0  0  0  0  0  0  0
   -0.6167    4.8531   -2.4566 H   0  0  0  0  0  0  0  0  0  0  0  0
   -1.3915    5.4367   -0.1776 H   0  0  0  0  0  0  0  0  0  0  0  0
   -1.5134    4.7768    2.1970 H   0  0  0  0  0  0  0  0  0  0  0  0
   -1.2226    2.4210    2.8580 H   0  0  0  0  0  0  0  0  0  0  0  0
   -0.4444    0.2005    2.3072 H   0  0  0  0  0  0  0  0  0  0  0  0
   -2.9617    0.1546    0.8957 H   0  0  0  0  0  0  0  0  0  0  0  0
   -2.3229   -1.0859    2.0211 H   0  0  0  0  0  0  0  0  0  0  0  0
   -1.4488   -3.0777   -2.1067 H   0  0  0  0  0  0  0  0  0  0  0  0
   -3.1433   -4.5063   -3.1971 H   0  0  0  0  0  0  0  0  0  0  0  0
   -5.4819   -4.5250   -2.3652 H   0  0  0  0  0  0  0  0  0  0  0  0
   -6.1223   -3.1089   -0.4331 H   0  0  0  0  0  0  0  0  0  0  0  0
   -4.4547   -1.6815    0.6712 H   0  0  0  0  0  0  0  0  0  0  0  0
    1.7035    1.1410    1.8546 H   0  0  0  0  0  0  0  0  0  0  0  0
    4.1372    1.2534    1.7849 H   0  0  0  0  0  0  0  0  0  0  0  0
    7.0820   -2.1238    0.8865 H   0  0  0  0  0  0  0  0  0  0  0  0
    7.0704   -0.9445    2.1264 H   0  0  0  0  0  0  0  0  0  0  0  0
    4.2066   -1.8798   -1.1798 H   0  0  0  0  0  0  0  0  0  0  0  0
    1.7560   -1.9933   -1.1044 H   0  0  0  0  0  0  0  0  0  0  0  0
   -0.6843    1.3382   -1.2846 H   0  0  0  0  0  0  0  0  0  0  0  0
  1  2  1  0
  2  3  2  0
  3  4  1  0
  4  5  2  0
  5  6  1  0
  6  7  1  0
  7  8  1  0
  8  9  1  0
  9 10  1  0
 10 11  2  0
 11 12  1  0
 12 13  2  0
 13 14  1  0
 14 15  2  0
  9 16  2  0
 16 17  1  0
 17 18  1  0
 18 19  2  0
 19 20  1  0
 20 21  2  0
 21 22  1  0
 22 23  1  0
 22 24  2  0
 22 25  2  0
 21 26  1  0
 26 27  2  0
  6 28  2  0
 28  2  1  0
 17  7  1  0
 27 18  1  0
 15 10  1  0
  1 29  1  0
  1 30  1  0
  1 31  1  0
  3 32  1  0
  4 33  1  0
  5 34  1  0
  7 35  1  0
  8 36  1  0
  8 37  1  0
 11 38  1  0
 12 39  1  0
 13 40  1  0
 14 41  1  0
 15 42  1  0
 19 43  1  0
 20 44  1  0
 23 45  1  0
 23 46  1  0
 26 47  1  0
 27 48  1  0
 28 49  1  0
M  END
$$$$
