
     RDKit          3D

 43 45  0  0  0  0  0  0  0  0999 V2000
   -3.8230    2.7724    0.0401 C   0  0  0  0  0  0  0  0  0  0  0  0
   -2.8320    1.6325    0.2186 C   0  0  0  0  0  0  0  0  0  0  0  0
   -3.4914    0.4167    0.8709 C   0  0  0  0  0  0  0  0  0  0  0  0
   -2.5023   -0.7050    1.1996 C   0  0  0  0  0  0  0  0  0  0  0  0
   -1.9058   -1.3228    0.0189 N   0  0  0  0  0  0  0  0  0  0  0  0
   -2.4752   -2.2934   -0.8061 C   0  0  0  0  0  0  0  0  0  0  0  0
   -3.9286   -3.0698   -0.6715 S   0  0  0  0  0  0  0  0  0  0  0  0
   -1.5988   -2.5270   -1.8571 N   0  0  0  0  0  0  0  0  0  0  0  0
   -0.5579   -1.5314   -1.8787 C   0  0  0  0  0  0  0  0  0  0  0  0
   -0.5586   -0.9739   -0.4483 C   0  0  0  0  0  0  0  0  0  0  0  0
    0.5257   -1.6243    0.4342 C   0  0  0  0  0  0  0  0  0  0  0  0
    1.9291   -1.1444    0.1100 C   0  0  0  0  0  0  0  0  0  0  0  0
    2.7679   -2.0129   -0.6115 C   0  0  0  0  0  0  0  0  0  0  0  0
    4.0540   -1.6274   -0.9708 C   0  0  0  0  0  0  0  0  0  0  0  0
    4.5244   -0.3679   -0.6130 C   0  0  0  0  0  0  0  0  0  0  0  0
    3.7216    0.5201    0.1168 C   0  0  0  0  0  0  0  0  0  0  0  0
    4.2215    1.7837    0.4733 C   0  0  0  0  0  0  0  0  0  0  0  0
    3.4487    2.6817    1.2064 C   0  0  0  0  0  0  0  0  0  0  0  0
    2.1659    2.3250    1.5969 C   0  0  0  0  0  0  0  0  0  0  0  0
    1.6547    1.0720    1.2493 C   0  0  0  0  0  0  0  0  0  0  0  0
    2.4085    0.1405    0.4969 C   0  0  0  0  0  0  0  0  0  0  0  0
   -4.2217    3.1010    1.0052 H   0  0  0  0  0  0  0  0  0  0  0  0
   -3.3337    3.6289   -0.4342 H   0  0  0  0  0  0  0  0  0  0  0  0
   -4.6622    2.4669   -0.5929 H   0  0  0  0  0  0  0  0  0  0  0  0
   -2.4320    1.3616   -0.7643 H   0  0  0  0  0  0  0  0  0  0  0  0
   -1.9927    1.9786    0.8327 H   0  0  0  0  0  0  0  0  0  0  0  0
   -4.2868    0.0426    0.2164 H   0  0  0  0  0  0  0  0  0  0  0  0
   -3.9721    0.7299    1.8060 H   0  0  0  0  0  0  0  0  0  0  0  0
   -1.7029   -0.3319    1.8481 H   0  0  0  0  0  0  0  0  0  0  0  0
   -3.0311   -1.4857    1.7574 H   0  0  0  0  0  0  0  0  0  0  0  0
   -1.9144   -3.0494   -2.6656 H   0  0  0  0  0  0  0  0  0  0  0  0
    0.3801   -1.9779   -2.2126 H   0  0  0  0  0  0  0  0  0  0  0  0
   -0.8639   -0.7612   -2.5954 H   0  0  0  0  0  0  0  0  0  0  0  0
   -0.4535    0.1145   -0.4727 H   0  0  0  0  0  0  0  0  0  0  0  0
    0.3316   -1.4324    1.4966 H   0  0  0  0  0  0  0  0  0  0  0  0
    0.4727   -2.7182    0.3454 H   0  0  0  0  0  0  0  0  0  0  0  0
    2.4188   -3.0026   -0.9011 H   0  0  0  0  0  0  0  0  0  0  0  0
    4.6916   -2.3077   -1.5295 H   0  0  0  0  0  0  0  0  0  0  0  0
    5.5337   -0.0852   -0.9048 H   0  0  0  0  0  0  0  0  0  0  0  0
    5.2276    2.0790    0.1821 H   0  0  0  0  0  0  0  0  0  0  0  0
    3.8521    3.6543    1.4755 H   0  0  0  0  0  0  0  0  0  0  0  0
    1.5603    3.0175    2.1759 H   0  0  0  0  0  0  0  0  0  0  0  0
    0.6502    0.8330    1.5874 H   0  0  0  0  0  0  0  0  0  0  0  0
  1  2  1  0
  2  3  1  0
  3  4  1  0
  4  5  1  0
  5  6  1  0
  6  7  2  0
  6  8  1  0
  8  9  1  0
  9 10  1  0
 10 11  1  0
 11 12  1  0
 12 13  2  0
 13 14  1  0
 14 15  2  0
 15 16  1  0
 16 17  2  0
 17 18  1  0
 18 19  2  0
 19 20  1  0
 20 21  2  0
 10  5  1  0
 21 12  1  0
 21 16  1  0
  1 22  1  0
  1 23  1  0
  1 24  1  0
  2 25  1  0
  2 26  1  0
  3 27  1  0
  3 28  1  0
  4 29  1  0
  4 30  1  0
  8 31  1  0
  9 32  1  0
  9 33  1  0
 10 34  1  0
 11 35  1  0
 11 36  1  0
 13 37  1  0
 14 38  1  0
 15 39  1  0
 17 40  1  0
 18 41  1  0
 19 42  1  0
 20 43  1  0
M  END
$$$$
