
     RDKit          3D

 49 52  0  0  0  0  0  0  0  0999 V2000
   -0.8123    1.1203    4.9493 C   0  0  0  0  0  0  0  0  0  0  0  0
   -0.6483    0.5261    3.5597 C   0  0  0  0  0  0  0  0  0  0  0  0
   -0.6287    1.6132    2.4866 C   0  0  0  0  0  0  0  0  0  0  0  0
   -0.4676    1.0155    1.1160 C   0  0  0  0  0  0  0  0  0  0  0  0
    0.7854    0.8422    0.6548 N   0  0  0  0  0  0  0  0  0  0  0  0
    0.9638    0.2582   -0.5489 C   0  0  0  0  0  0  0  0  0  0  0  0
    2.2739    0.0791   -1.0041 N   0  0  0  0  0  0  0  0  0  0  0  0
    3.3047    0.8487   -0.2797 C   0  0  0  0  0  0  0  0  0  0  0  0
    4.6866    0.5849   -0.9169 C   0  0  0  0  0  0  0  0  0  0  0  0
    5.1281   -0.8260   -0.8191 N   0  0  0  0  0  0  0  0  0  0  0  0
    5.9624   -1.1831   -1.9633 C   0  0  0  0  0  0  0  0  0  0  0  0
    3.9786   -1.7413   -0.6681 C   0  0  0  0  0  0  0  0  0  0  0  0
    2.6673   -1.3013   -1.3643 C   0  0  0  0  0  0  0  0  0  0  0  0
   -0.1422   -0.1072   -1.2995 C   0  0  0  0  0  0  0  0  0  0  0  0
   -0.2639   -0.8321   -2.9027 S   0  0  0  0  0  0  0  0  0  0  0  0
   -2.0383   -0.8207   -2.8390 C   0  0  0  0  0  0  0  0  0  0  0  0
   -2.9296   -1.3163   -4.1652 S   0  0  0  0  0  0  0  0  0  0  0  0
   -2.4591   -0.2884   -1.6151 N   0  0  0  0  0  0  0  0  0  0  0  0
   -3.8068   -0.1602   -1.1668 C   0  0  0  0  0  0  0  0  0  0  0  0
   -4.2614    1.0169   -0.5510 C   0  0  0  0  0  0  0  0  0  0  0  0
   -5.5858    1.1426   -0.1204 C   0  0  0  0  0  0  0  0  0  0  0  0
   -6.4791    0.0906   -0.2961 C   0  0  0  0  0  0  0  0  0  0  0  0
   -6.0475   -1.0863   -0.8999 C   0  0  0  0  0  0  0  0  0  0  0  0
   -4.7225   -1.2100   -1.3310 C   0  0  0  0  0  0  0  0  0  0  0  0
   -1.3935    0.1313   -0.7616 C   0  0  0  0  0  0  0  0  0  0  0  0
   -1.5788    0.6643    0.4557 N   0  0  0  0  0  0  0  0  0  0  0  0
    0.0128    1.8000    5.1851 H   0  0  0  0  0  0  0  0  0  0  0  0
   -0.8237    0.3260    5.7023 H   0  0  0  0  0  0  0  0  0  0  0  0
   -1.7510    1.6777    5.0292 H   0  0  0  0  0  0  0  0  0  0  0  0
   -1.4689   -0.1767    3.3697 H   0  0  0  0  0  0  0  0  0  0  0  0
    0.2809   -0.0557    3.5240 H   0  0  0  0  0  0  0  0  0  0  0  0
   -1.5582    2.1944    2.5180 H   0  0  0  0  0  0  0  0  0  0  0  0
    0.1934    2.3148    2.6721 H   0  0  0  0  0  0  0  0  0  0  0  0
    3.0869    1.9215   -0.3536 H   0  0  0  0  0  0  0  0  0  0  0  0
    3.3344    0.5787    0.7844 H   0  0  0  0  0  0  0  0  0  0  0  0
    4.6315    0.9000   -1.9682 H   0  0  0  0  0  0  0  0  0  0  0  0
    5.4376    1.2169   -0.4294 H   0  0  0  0  0  0  0  0  0  0  0  0
    6.3709   -2.1921   -1.8402 H   0  0  0  0  0  0  0  0  0  0  0  0
    5.4083   -1.1493   -2.9082 H   0  0  0  0  0  0  0  0  0  0  0  0
    6.8200   -0.5053   -2.0399 H   0  0  0  0  0  0  0  0  0  0  0  0
    4.2413   -2.7575   -0.9880 H   0  0  0  0  0  0  0  0  0  0  0  0
    3.7758   -1.8235    0.4082 H   0  0  0  0  0  0  0  0  0  0  0  0
    1.8937   -2.0313   -1.0956 H   0  0  0  0  0  0  0  0  0  0  0  0
    2.8085   -1.3468   -2.4505 H   0  0  0  0  0  0  0  0  0  0  0  0
   -3.5985    1.8689   -0.4210 H   0  0  0  0  0  0  0  0  0  0  0  0
   -5.9170    2.0659    0.3479 H   0  0  0  0  0  0  0  0  0  0  0  0
   -7.5087    0.1869    0.0382 H   0  0  0  0  0  0  0  0  0  0  0  0
   -6.7389   -1.9147   -1.0324 H   0  0  0  0  0  0  0  0  0  0  0  0
   -4.4167   -2.1598   -1.7616 H   0  0  0  0  0  0  0  0  0  0  0  0
  1  2  1  0
  2  3  1  0
  3  4  1  0
  4  5  2  0
  5  6  1  0
  6  7  1  0
  7  8  1  0
  8  9  1  0
  9 10  1  0
 10 11  1  0
 10 12  1  0
 12 13  1  0
  6 14  2  0
 14 15  1  0
 15 16  1  0
 16 17  2  0
 16 18  1  0
 18 19  1  0
 19 20  2  0
 20 21  1  0
 21 22  2  0
 22 23  1  0
 23 24  2  0
 18 25  1  0
 25 26  2  0
 26  4  1  0
 13  7  1  0
 25 14  1  0
 24 19  1  0
  1 27  1  0
  1 28  1  0
  1 29  1  0
  2 30  1  0
  2 31  1  0
  3 32  1  0
  3 33  1  0
  8 34  1  0
  8 35  1  0
  9 36  1  0
  9 37  1  0
 11 38  1  0
 11 39  1  0
 11 40  1  0
 12 41  1  0
 12 42  1  0
 13 43  1  0
 13 44  1  0
 20 45  1  0
 21 46  1  0
 22 47  1  0
 23 48  1  0
 24 49  1  0
M  END
$$$$
