
     RDKit          3D

 37 38  0  0  0  0  0  0  0  0999 V2000
    5.3630    1.1973   -1.3061 C   0  0  0  0  0  0  0  0  0  0  0  0
    4.0236    0.7289   -1.2216 O   0  0  0  0  0  0  0  0  0  0  0  0
    3.5974    0.2485   -0.0099 C   0  0  0  0  0  0  0  0  0  0  0  0
    4.4154    0.0795    1.1122 C   0  0  0  0  0  0  0  0  0  0  0  0
    3.8873   -0.4186    2.3066 C   0  0  0  0  0  0  0  0  0  0  0  0
    2.5336   -0.7378    2.3952 C   0  0  0  0  0  0  0  0  0  0  0  0
    1.6959   -0.5601    1.2868 C   0  0  0  0  0  0  0  0  0  0  0  0
    0.2668   -0.9065    1.4564 C   0  0  0  0  0  0  0  0  0  0  0  0
   -0.1055   -1.8367    2.1572 O   0  0  0  0  0  0  0  0  0  0  0  0
   -0.4858   -0.0064    0.7664 O   0  0  0  0  0  0  0  0  0  0  0  0
   -1.8557   -0.2970    0.8982 N   0  0  0  0  0  0  0  0  0  0  0  0
   -2.5577    0.4339    0.0827 C   0  0  0  0  0  0  0  0  0  0  0  0
   -1.9920    1.3414   -0.7872 N   0  0  0  0  0  0  0  0  0  0  0  0
   -4.0435    0.2581    0.0866 C   0  0  0  0  0  0  0  0  0  0  0  0
   -4.8765    1.2289   -0.4693 C   0  0  0  0  0  0  0  0  0  0  0  0
   -6.2418    1.0059   -0.4387 C   0  0  0  0  0  0  0  0  0  0  0  0
   -6.8119   -0.0953    0.0949 N   0  0  0  0  0  0  0  0  0  0  0  0
   -5.9813   -1.0113    0.6389 C   0  0  0  0  0  0  0  0  0  0  0  0
   -4.6050   -0.8824    0.6612 C   0  0  0  0  0  0  0  0  0  0  0  0
    2.2362   -0.1011    0.0747 C   0  0  0  0  0  0  0  0  0  0  0  0
    1.4306    0.0533   -1.0316 O   0  0  0  0  0  0  0  0  0  0  0  0
    1.5225   -1.1019   -1.8691 C   0  0  0  0  0  0  0  0  0  0  0  0
    5.5446    2.0113   -0.5965 H   0  0  0  0  0  0  0  0  0  0  0  0
    5.5148    1.5949   -2.3142 H   0  0  0  0  0  0  0  0  0  0  0  0
    6.0751    0.3783   -1.1614 H   0  0  0  0  0  0  0  0  0  0  0  0
    5.4734    0.3211    1.0905 H   0  0  0  0  0  0  0  0  0  0  0  0
    4.5327   -0.5531    3.1720 H   0  0  0  0  0  0  0  0  0  0  0  0
    2.1289   -1.1190    3.3317 H   0  0  0  0  0  0  0  0  0  0  0  0
   -0.9813    1.2240   -0.8388 H   0  0  0  0  0  0  0  0  0  0  0  0
   -2.4040    1.3682   -1.7127 H   0  0  0  0  0  0  0  0  0  0  0  0
   -4.4876    2.1464   -0.8934 H   0  0  0  0  0  0  0  0  0  0  0  0
   -6.9373    1.7316   -0.8509 H   0  0  0  0  0  0  0  0  0  0  0  0
   -6.4679   -1.8809    1.0716 H   0  0  0  0  0  0  0  0  0  0  0  0
   -3.9897   -1.6526    1.1147 H   0  0  0  0  0  0  0  0  0  0  0  0
    2.5269   -1.2138   -2.2902 H   0  0  0  0  0  0  0  0  0  0  0  0
    1.2343   -2.0093   -1.3267 H   0  0  0  0  0  0  0  0  0  0  0  0
    0.8215   -0.9676   -2.6982 H   0  0  0  0  0  0  0  0  0  0  0  0
  1  2  1  0
  2  3  1  0
  3  4  2  0
  4  5  1  0
  5  6  2  0
  6  7  1  0
  7  8  1  0
  8  9  2  0
  8 10  1  0
 10 11  1  0
 11 12  2  3
 12 13  1  0
 12 14  1  0
 14 15  2  0
 15 16  1  0
 16 17  2  0
 17 18  1  0
 18 19  2  0
  7 20  2  0
 20 21  1  0
 21 22  1  0
 20  3  1  0
 19 14  1  0
  1 23  1  0
  1 24  1  0
  1 25  1  0
  4 26  1  0
  5 27  1  0
  6 28  1  0
 13 29  1  0
 13 30  1  0
 15 31  1  0
 16 32  1  0
 18 33  1  0
 19 34  1  0
 22 35  1  0
 22 36  1  0
 22 37  1  0
M  END
$$$$
