
     RDKit          3D

 50 53  0  0  0  0  0  0  0  0999 V2000
    6.0179   -1.8074    0.7949 C   0  0  0  0  0  0  0  0  0  0  0  0
    6.2741   -0.4929    0.0696 C   0  0  0  0  0  0  0  0  0  0  0  0
    5.4096    0.5855    0.5710 N   0  0  0  0  0  0  0  0  0  0  0  0
    6.0647    1.6316    1.3678 C   0  0  0  0  0  0  0  0  0  0  0  0
    6.1519    1.2413    2.8354 C   0  0  0  0  0  0  0  0  0  0  0  0
    4.0460    0.6267    0.2967 C   0  0  0  0  0  0  0  0  0  0  0  0
    3.4584   -0.1642   -0.7058 C   0  0  0  0  0  0  0  0  0  0  0  0
    2.0839   -0.1291   -0.9881 C   0  0  0  0  0  0  0  0  0  0  0  0
    1.2368    0.7032   -0.2618 C   0  0  0  0  0  0  0  0  0  0  0  0
   -0.1996    0.7720   -0.5402 C   0  0  0  0  0  0  0  0  0  0  0  0
   -1.0850   -0.2168   -0.3532 C   0  0  0  0  0  0  0  0  0  0  0  0
   -0.7739   -1.8193    0.2725 S   0  0  0  0  0  0  0  0  0  0  0  0
   -2.4404   -2.1916    0.1154 C   0  0  0  0  0  0  0  0  0  0  0  0
   -3.1678   -3.2481    0.3363 N   0  0  0  0  0  0  0  0  0  0  0  0
   -4.4638   -2.8949   -0.0160 N   0  0  0  0  0  0  0  0  0  0  0  0
   -4.4697   -1.6293   -0.4209 C   0  0  0  0  0  0  0  0  0  0  0  0
   -5.6257   -0.8765   -0.8895 C   0  0  0  0  0  0  0  0  0  0  0  0
   -6.1746   -1.2168   -2.1364 C   0  0  0  0  0  0  0  0  0  0  0  0
   -7.2717   -0.5229   -2.6460 C   0  0  0  0  0  0  0  0  0  0  0  0
   -7.8351    0.5154   -1.9119 C   0  0  0  0  0  0  0  0  0  0  0  0
   -7.3119    0.8512   -0.6627 C   0  0  0  0  0  0  0  0  0  0  0  0
   -6.2161    0.1526   -0.1282 C   0  0  0  0  0  0  0  0  0  0  0  0
   -5.7011    0.5438    1.2303 C   0  0  0  0  0  0  0  0  0  0  0  0
   -3.1816   -1.1676   -0.3625 N   0  0  0  0  0  0  0  0  0  0  0  0
   -2.5280   -0.0009   -0.6698 C   0  0  0  0  0  0  0  0  0  0  0  0
   -3.0861    0.9842   -1.1133 O   0  0  0  0  0  0  0  0  0  0  0  0
    1.7865    1.5081    0.7316 C   0  0  0  0  0  0  0  0  0  0  0  0
    3.1632    1.4633    1.0016 C   0  0  0  0  0  0  0  0  0  0  0  0
    6.7089   -2.5758    0.4340 H   0  0  0  0  0  0  0  0  0  0  0  0
    6.1656   -1.7002    1.8739 H   0  0  0  0  0  0  0  0  0  0  0  0
    4.9994   -2.1730    0.6350 H   0  0  0  0  0  0  0  0  0  0  0  0
    7.3288   -0.2303    0.2200 H   0  0  0  0  0  0  0  0  0  0  0  0
    6.1665   -0.6160   -1.0137 H   0  0  0  0  0  0  0  0  0  0  0  0
    5.5634    2.6001    1.2569 H   0  0  0  0  0  0  0  0  0  0  0  0
    7.0801    1.8041    0.9891 H   0  0  0  0  0  0  0  0  0  0  0  0
    6.5989    2.0547    3.4156 H   0  0  0  0  0  0  0  0  0  0  0  0
    5.1663    1.0230    3.2573 H   0  0  0  0  0  0  0  0  0  0  0  0
    6.7770    0.3531    2.9699 H   0  0  0  0  0  0  0  0  0  0  0  0
    4.0617   -0.8305   -1.3145 H   0  0  0  0  0  0  0  0  0  0  0  0
    1.6976   -0.7595   -1.7852 H   0  0  0  0  0  0  0  0  0  0  0  0
   -0.5376    1.7382   -0.9139 H   0  0  0  0  0  0  0  0  0  0  0  0
   -5.7471   -2.0307   -2.7193 H   0  0  0  0  0  0  0  0  0  0  0  0
   -7.6849   -0.7933   -3.6141 H   0  0  0  0  0  0  0  0  0  0  0  0
   -8.6876    1.0616   -2.3078 H   0  0  0  0  0  0  0  0  0  0  0  0
   -7.7726    1.6621   -0.1019 H   0  0  0  0  0  0  0  0  0  0  0  0
   -6.4399    1.1392    1.7778 H   0  0  0  0  0  0  0  0  0  0  0  0
   -4.7897    1.1408    1.1345 H   0  0  0  0  0  0  0  0  0  0  0  0
   -5.4950   -0.3414    1.8407 H   0  0  0  0  0  0  0  0  0  0  0  0
    1.1585    2.1748    1.3178 H   0  0  0  0  0  0  0  0  0  0  0  0
    3.5211    2.0985    1.8061 H   0  0  0  0  0  0  0  0  0  0  0  0
  1  2  1  0
  2  3  1  0
  3  4  1  0
  4  5  1  0
  3  6  1  0
  6  7  2  0
  7  8  1  0
  8  9  2  0
  9 10  1  0
 10 11  2  3
 11 12  1  0
 12 13  1  0
 13 14  2  0
 14 15  1  0
 15 16  2  0
 16 17  1  0
 17 18  2  0
 18 19  1  0
 19 20  2  0
 20 21  1  0
 21 22  2  0
 22 23  1  0
 16 24  1  0
 24 25  1  0
 25 26  2  0
  9 27  1  0
 27 28  2  0
 28  6  1  0
 25 11  1  0
 24 13  1  0
 22 17  1  0
  1 29  1  0
  1 30  1  0
  1 31  1  0
  2 32  1  0
  2 33  1  0
  4 34  1  0
  4 35  1  0
  5 36  1  0
  5 37  1  0
  5 38  1  0
  7 39  1  0
  8 40  1  0
 10 41  1  0
 18 42  1  0
 19 43  1  0
 20 44  1  0
 21 45  1  0
 23 46  1  0
 23 47  1  0
 23 48  1  0
 27 49  1  0
 28 50  1  0
M  END
$$$$
