
     RDKit          3D

 51 56  0  0  0  0  0  0  0  0999 V2000
   -1.2756   -2.0215   -1.3571 O   0  0  0  0  0  0  0  0  0  0  0  0
   -1.8619   -1.6103   -0.3445 C   0  0  0  0  0  0  0  0  0  0  0  0
   -3.3022   -1.9986   -0.1613 C   0  0  0  0  0  0  0  0  0  0  0  0
   -3.9450   -2.6807   -1.2092 C   0  0  0  0  0  0  0  0  0  0  0  0
   -5.2818   -3.0681   -1.0953 C   0  0  0  0  0  0  0  0  0  0  0  0
   -5.9840   -2.7760    0.0677 C   0  0  0  0  0  0  0  0  0  0  0  0
   -7.6396   -3.2246    0.2013 Cl  0  0  0  0  0  0  0  0  0  0  0  0
   -5.3599   -2.1097    1.1197 C   0  0  0  0  0  0  0  0  0  0  0  0
   -4.0197   -1.7310    1.0106 C   0  0  0  0  0  0  0  0  0  0  0  0
   -1.1464   -0.8241    0.7666 C   0  0  0  0  0  0  0  0  0  0  0  0
    0.3158   -0.6569    0.5283 C   0  0  0  0  0  0  0  0  0  0  0  0
    0.7708    0.6330    0.8434 C   0  0  0  0  0  0  0  0  0  0  0  0
    2.1452    0.5992    0.8206 C   0  0  0  0  0  0  0  0  0  0  0  0
    2.9979    1.4958    1.3153 O   0  0  0  0  0  0  0  0  0  0  0  0
    2.5303   -0.6310    0.2456 N   0  0  0  0  0  0  0  0  0  0  0  0
    3.8632   -1.0206   -0.1040 C   0  0  0  0  0  0  0  0  0  0  0  0
    4.2373   -2.3696   -0.0818 C   0  0  0  0  0  0  0  0  0  0  0  0
    5.5423   -2.7483   -0.4080 C   0  0  0  0  0  0  0  0  0  0  0  0
    6.4749   -1.7836   -0.7673 C   0  0  0  0  0  0  0  0  0  0  0  0
    8.0837   -2.2481   -1.1630 Cl  0  0  0  0  0  0  0  0  0  0  0  0
    6.1120   -0.4410   -0.8111 C   0  0  0  0  0  0  0  0  0  0  0  0
    4.8082   -0.0575   -0.4844 C   0  0  0  0  0  0  0  0  0  0  0  0
    1.3695   -1.3988    0.0701 C   0  0  0  0  0  0  0  0  0  0  0  0
    1.3563   -2.5870   -0.5274 O   0  0  0  0  0  0  0  0  0  0  0  0
   -0.3469    1.5119    1.2733 C   0  0  0  0  0  0  0  0  0  0  0  0
   -0.4179    2.7675    0.4514 C   0  0  0  0  0  0  0  0  0  0  0  0
    0.6482    3.6609    0.2827 C   0  0  0  0  0  0  0  0  0  0  0  0
    0.4774    4.8544   -0.4290 C   0  0  0  0  0  0  0  0  0  0  0  0
   -0.7662    5.1888   -0.9593 C   0  0  0  0  0  0  0  0  0  0  0  0
   -1.8489    4.3347   -0.7699 C   0  0  0  0  0  0  0  0  0  0  0  0
   -1.6658    3.1422   -0.0620 C   0  0  0  0  0  0  0  0  0  0  0  0
   -2.8190    2.2609    0.1708 C   0  0  0  0  0  0  0  0  0  0  0  0
   -2.7509    1.0522    0.6442 N   0  0  0  0  0  0  0  0  0  0  0  0
   -1.5088    0.6005    1.0001 N   0  0  0  0  0  0  0  0  0  0  0  0
   -3.4127   -2.9024   -2.1310 H   0  0  0  0  0  0  0  0  0  0  0  0
   -5.7631   -3.5908   -1.9178 H   0  0  0  0  0  0  0  0  0  0  0  0
   -5.9104   -1.8682    2.0211 H   0  0  0  0  0  0  0  0  0  0  0  0
   -3.5749   -1.1971    1.8465 H   0  0  0  0  0  0  0  0  0  0  0  0
   -1.2698   -1.3567    1.7165 H   0  0  0  0  0  0  0  0  0  0  0  0
    3.8359    1.0442    1.5311 H   0  0  0  0  0  0  0  0  0  0  0  0
    3.5410   -3.1478    0.2119 H   0  0  0  0  0  0  0  0  0  0  0  0
    5.8195   -3.7961   -0.3791 H   0  0  0  0  0  0  0  0  0  0  0  0
    6.8344    0.3099   -1.1149 H   0  0  0  0  0  0  0  0  0  0  0  0
    4.5423    0.9907   -0.5884 H   0  0  0  0  0  0  0  0  0  0  0  0
    0.4759   -2.6602   -0.9687 H   0  0  0  0  0  0  0  0  0  0  0  0
   -0.3269    1.7225    2.3475 H   0  0  0  0  0  0  0  0  0  0  0  0
    1.6243    3.4493    0.7076 H   0  0  0  0  0  0  0  0  0  0  0  0
    1.3191    5.5254   -0.5633 H   0  0  0  0  0  0  0  0  0  0  0  0
   -0.8914    6.1177   -1.5101 H   0  0  0  0  0  0  0  0  0  0  0  0
   -2.8216    4.6024   -1.1708 H   0  0  0  0  0  0  0  0  0  0  0  0
   -3.8143    2.6424   -0.1148 H   0  0  0  0  0  0  0  0  0  0  0  0
  1  2  2  0
  2  3  1  0
  3  4  2  0
  4  5  1  0
  5  6  2  0
  6  7  1  0
  6  8  1  0
  8  9  2  0
  2 10  1  0
 10 11  1  0
 11 12  1  0
 12 13  2  0
 13 14  1  0
 13 15  1  0
 15 16  1  0
 16 17  2  0
 17 18  1  0
 18 19  2  0
 19 20  1  0
 19 21  1  0
 21 22  2  0
 15 23  1  0
 23 24  1  0
 12 25  1  0
 25 26  1  0
 26 27  2  0
 27 28  1  0
 28 29  2  0
 29 30  1  0
 30 31  2  0
 31 32  1  0
 32 33  2  0
 33 34  1  0
  9  3  1  0
 34 10  1  0
 23 11  2  0
 34 25  1  0
 22 16  1  0
 31 26  1  0
  4 35  1  0
  5 36  1  0
  8 37  1  0
  9 38  1  0
 10 39  1  0
 14 40  1  0
 17 41  1  0
 18 42  1  0
 21 43  1  0
 22 44  1  0
 24 45  1  0
 25 46  1  0
 27 47  1  0
 28 48  1  0
 29 49  1  0
 30 50  1  0
 32 51  1  0
M  END
$$$$
