
     RDKit          3D

 41 43  0  0  0  0  0  0  0  0999 V2000
   -4.0233    0.1379    2.7019 C   0  0  0  0  0  0  0  0  0  0  0  0
   -3.2047   -0.0380    1.4326 C   0  0  0  0  0  0  0  0  0  0  0  0
   -2.3695   -1.3227    1.4157 C   0  0  0  0  0  0  0  0  0  0  0  0
   -1.3434   -1.4814    2.5423 C   0  0  0  0  0  0  0  0  0  0  0  0
   -0.1176   -0.1415    2.6371 S   0  0  0  0  0  0  0  0  0  0  0  0
    0.7003   -0.3748    1.1240 C   0  0  0  0  0  0  0  0  0  0  0  0
    1.1640   -1.5484    0.8218 N   0  0  0  0  0  0  0  0  0  0  0  0
    1.6469   -1.4103   -0.4596 C   0  0  0  0  0  0  0  0  0  0  0  0
    2.2086   -2.4330   -1.1210 C   0  0  0  0  0  0  0  0  0  0  0  0
    2.7662   -2.4888   -2.4363 C   0  0  0  0  0  0  0  0  0  0  0  0
    2.5807   -3.5973   -3.3202 C   0  0  0  0  0  0  0  0  0  0  0  0
    3.2458   -3.4324   -4.5157 C   0  0  0  0  0  0  0  0  0  0  0  0
    4.1148   -1.9614   -4.5677 S   0  0  0  0  0  0  0  0  0  0  0  0
    3.6032   -1.5418   -2.9871 C   0  0  0  0  0  0  0  0  0  0  0  0
    1.3939   -0.0103   -0.9283 C   0  0  0  0  0  0  0  0  0  0  0  0
    1.6592    0.4444   -2.0259 O   0  0  0  0  0  0  0  0  0  0  0  0
    0.8244    0.5972    0.1707 N   0  0  0  0  0  0  0  0  0  0  0  0
    0.4572    1.9711    0.2049 C   0  0  0  0  0  0  0  0  0  0  0  0
    0.0327    2.6230   -0.9651 C   0  0  0  0  0  0  0  0  0  0  0  0
   -0.3340    3.9732   -0.9554 C   0  0  0  0  0  0  0  0  0  0  0  0
   -0.2708    4.7044    0.2247 C   0  0  0  0  0  0  0  0  0  0  0  0
    0.1691    4.0875    1.3902 C   0  0  0  0  0  0  0  0  0  0  0  0
    0.5349    2.7361    1.3775 C   0  0  0  0  0  0  0  0  0  0  0  0
   -4.6575   -0.7353    2.8846 H   0  0  0  0  0  0  0  0  0  0  0  0
   -4.6727    1.0146    2.6111 H   0  0  0  0  0  0  0  0  0  0  0  0
   -3.3828    0.2901    3.5754 H   0  0  0  0  0  0  0  0  0  0  0  0
   -3.8919   -0.0663    0.5782 H   0  0  0  0  0  0  0  0  0  0  0  0
   -2.5682    0.8406    1.2831 H   0  0  0  0  0  0  0  0  0  0  0  0
   -3.0528   -2.1807    1.4598 H   0  0  0  0  0  0  0  0  0  0  0  0
   -1.8650   -1.3962    0.4444 H   0  0  0  0  0  0  0  0  0  0  0  0
   -1.8565   -1.5260    3.5084 H   0  0  0  0  0  0  0  0  0  0  0  0
   -0.8210   -2.4377    2.4302 H   0  0  0  0  0  0  0  0  0  0  0  0
    2.2257   -3.3809   -0.5833 H   0  0  0  0  0  0  0  0  0  0  0  0
    1.9811   -4.4723   -3.0995 H   0  0  0  0  0  0  0  0  0  0  0  0
    3.2677   -4.1063   -5.3609 H   0  0  0  0  0  0  0  0  0  0  0  0
    3.9494   -0.6129   -2.5546 H   0  0  0  0  0  0  0  0  0  0  0  0
   -0.0490    2.0896   -1.9099 H   0  0  0  0  0  0  0  0  0  0  0  0
   -0.6678    4.4488   -1.8745 H   0  0  0  0  0  0  0  0  0  0  0  0
   -0.5517    5.7543    0.2332 H   0  0  0  0  0  0  0  0  0  0  0  0
    0.2435    4.6591    2.3123 H   0  0  0  0  0  0  0  0  0  0  0  0
    0.9311    2.3251    2.3011 H   0  0  0  0  0  0  0  0  0  0  0  0
  1  2  1  0
  2  3  1  0
  3  4  1  0
  4  5  1  0
  5  6  1  0
  6  7  2  0
  7  8  1  0
  8  9  2  3
  9 10  1  0
 10 11  1  0
 11 12  2  0
 12 13  1  0
 13 14  1  0
  8 15  1  0
 15 16  2  0
 15 17  1  0
 17 18  1  0
 18 19  2  0
 19 20  1  0
 20 21  2  0
 21 22  1  0
 22 23  2  0
 17  6  1  0
 23 18  1  0
 14 10  2  0
  1 24  1  0
  1 25  1  0
  1 26  1  0
  2 27  1  0
  2 28  1  0
  3 29  1  0
  3 30  1  0
  4 31  1  0
  4 32  1  0
  9 33  1  0
 11 34  1  0
 12 35  1  0
 14 36  1  0
 19 37  1  0
 20 38  1  0
 21 39  1  0
 22 40  1  0
 23 41  1  0
M  END
$$$$
