
     RDKit          3D

 47 49  0  0  0  0  0  0  0  0999 V2000
    1.5634    0.4447   -2.8983 O   0  0  0  0  0  0  0  0  0  0  0  0
    1.1843    0.5407   -1.7367 C   0  0  0  0  0  0  0  0  0  0  0  0
    1.8358    1.4936   -0.7501 C   0  0  0  0  0  0  0  0  0  0  0  0
    2.9901    2.2488   -1.3969 C   0  0  0  0  0  0  0  0  0  0  0  0
    3.7299    3.4622   -0.2433 S   0  0  0  0  0  0  0  0  0  0  0  0
    4.5371    2.3685    0.9115 C   0  0  0  0  0  0  0  0  0  0  0  0
    4.1830    2.4244    2.2628 C   0  0  0  0  0  0  0  0  0  0  0  0
    4.7994    1.5806    3.1895 C   0  0  0  0  0  0  0  0  0  0  0  0
    5.7803    0.6833    2.7711 C   0  0  0  0  0  0  0  0  0  0  0  0
    6.1501    0.6342    1.4285 C   0  0  0  0  0  0  0  0  0  0  0  0
    5.5332    1.4774    0.5015 C   0  0  0  0  0  0  0  0  0  0  0  0
    0.1405   -0.1528   -1.1536 N   0  0  0  0  0  0  0  0  0  0  0  0
   -0.6693   -1.1696   -1.7187 C   0  0  0  0  0  0  0  0  0  0  0  0
   -0.4528   -1.6797   -3.0032 C   0  0  0  0  0  0  0  0  0  0  0  0
   -1.2329   -2.7308   -3.4985 C   0  0  0  0  0  0  0  0  0  0  0  0
   -2.2344   -3.2961   -2.7147 C   0  0  0  0  0  0  0  0  0  0  0  0
   -2.4772   -2.7931   -1.4391 C   0  0  0  0  0  0  0  0  0  0  0  0
   -1.7248   -1.7128   -0.9523 C   0  0  0  0  0  0  0  0  0  0  0  0
   -2.0252   -1.1668    0.3982 C   0  0  0  0  0  0  0  0  0  0  0  0
   -1.0815   -0.9359    1.1545 O   0  0  0  0  0  0  0  0  0  0  0  0
   -3.3361   -0.8833    0.7407 N   0  0  0  0  0  0  0  0  0  0  0  0
   -4.4686   -0.7279   -0.1664 C   0  0  0  0  0  0  0  0  0  0  0  0
   -5.4360    0.1794    0.5844 C   0  0  0  0  0  0  0  0  0  0  0  0
   -5.1531   -0.1562    2.0430 C   0  0  0  0  0  0  0  0  0  0  0  0
   -3.6435   -0.3375    2.0519 C   0  0  0  0  0  0  0  0  0  0  0  0
    1.0686    2.1947   -0.4000 H   0  0  0  0  0  0  0  0  0  0  0  0
    2.1860    0.9023    0.1038 H   0  0  0  0  0  0  0  0  0  0  0  0
    2.6281    2.8129   -2.2638 H   0  0  0  0  0  0  0  0  0  0  0  0
    3.7578    1.5619   -1.7675 H   0  0  0  0  0  0  0  0  0  0  0  0
    3.4222    3.1220    2.6044 H   0  0  0  0  0  0  0  0  0  0  0  0
    4.5151    1.6262    4.2374 H   0  0  0  0  0  0  0  0  0  0  0  0
    6.2618    0.0279    3.4924 H   0  0  0  0  0  0  0  0  0  0  0  0
    6.9225   -0.0575    1.1025 H   0  0  0  0  0  0  0  0  0  0  0  0
    5.8452    1.4357   -0.5388 H   0  0  0  0  0  0  0  0  0  0  0  0
   -0.0295    0.0211   -0.1610 H   0  0  0  0  0  0  0  0  0  0  0  0
    0.3337   -1.2950   -3.6445 H   0  0  0  0  0  0  0  0  0  0  0  0
   -1.0363   -3.1194   -4.4958 H   0  0  0  0  0  0  0  0  0  0  0  0
   -2.8178   -4.1306   -3.0948 H   0  0  0  0  0  0  0  0  0  0  0  0
   -3.2413   -3.2566   -0.8214 H   0  0  0  0  0  0  0  0  0  0  0  0
   -4.1602   -0.3062   -1.1271 H   0  0  0  0  0  0  0  0  0  0  0  0
   -4.9171   -1.7141   -0.3221 H   0  0  0  0  0  0  0  0  0  0  0  0
   -5.1905    1.2308    0.3917 H   0  0  0  0  0  0  0  0  0  0  0  0
   -6.4782    0.0125    0.2995 H   0  0  0  0  0  0  0  0  0  0  0  0
   -5.6488   -1.0968    2.3110 H   0  0  0  0  0  0  0  0  0  0  0  0
   -5.4888    0.6209    2.7347 H   0  0  0  0  0  0  0  0  0  0  0  0
   -3.2964   -1.0125    2.8401 H   0  0  0  0  0  0  0  0  0  0  0  0
   -3.1277    0.6243    2.1537 H   0  0  0  0  0  0  0  0  0  0  0  0
  1  2  2  0
  2  3  1  0
  3  4  1  0
  4  5  1  0
  5  6  1  0
  6  7  2  0
  7  8  1  0
  8  9  2  0
  9 10  1  0
 10 11  2  0
  2 12  1  0
 12 13  1  0
 13 14  2  0
 14 15  1  0
 15 16  2  0
 16 17  1  0
 17 18  2  0
 18 19  1  0
 19 20  2  0
 19 21  1  0
 21 22  1  0
 22 23  1  0
 23 24  1  0
 24 25  1  0
 11  6  1  0
 18 13  1  0
 25 21  1  0
  3 26  1  0
  3 27  1  0
  4 28  1  0
  4 29  1  0
  7 30  1  0
  8 31  1  0
  9 32  1  0
 10 33  1  0
 11 34  1  0
 12 35  1  0
 14 36  1  0
 15 37  1  0
 16 38  1  0
 17 39  1  0
 22 40  1  0
 22 41  1  0
 23 42  1  0
 23 43  1  0
 24 44  1  0
 24 45  1  0
 25 46  1  0
 25 47  1  0
M  END
$$$$
