
     RDKit          3D

 55 57  0  0  0  0  0  0  0  0999 V2000
   -4.4511    3.5618   -0.4466 C   0  0  0  0  0  0  0  0  0  0  0  0
   -3.0225    3.1892   -0.0355 C   0  0  0  0  0  0  0  0  0  0  0  0
   -2.3275    4.4166    0.5548 C   0  0  0  0  0  0  0  0  0  0  0  0
   -2.2670    2.6167   -1.2524 C   0  0  0  0  0  0  0  0  0  0  0  0
   -0.8561    2.0620   -0.9606 C   0  0  0  0  0  0  0  0  0  0  0  0
   -0.1722    1.6056   -2.2458 C   0  0  0  0  0  0  0  0  0  0  0  0
   -0.5135    1.9245   -3.3782 O   0  0  0  0  0  0  0  0  0  0  0  0
    0.9293    0.8464   -1.9741 O   0  0  0  0  0  0  0  0  0  0  0  0
    1.5940    0.3185   -3.1244 C   0  0  0  0  0  0  0  0  0  0  0  0
    2.6024   -0.7513   -2.7029 C   0  0  0  0  0  0  0  0  0  0  0  0
    3.4835   -1.1211   -3.4738 O   0  0  0  0  0  0  0  0  0  0  0  0
    2.3697   -1.2343   -1.4253 N   0  0  0  0  0  0  0  0  0  0  0  0
    3.1075   -2.1982   -0.7110 C   0  0  0  0  0  0  0  0  0  0  0  0
    4.2377   -2.8447   -1.2173 C   0  0  0  0  0  0  0  0  0  0  0  0
    4.9305   -3.7805   -0.4402 C   0  0  0  0  0  0  0  0  0  0  0  0
    4.4991   -4.0750    0.8504 C   0  0  0  0  0  0  0  0  0  0  0  0
    3.3723   -3.4352    1.3581 C   0  0  0  0  0  0  0  0  0  0  0  0
    2.8370   -3.7923    2.9545 Cl  0  0  0  0  0  0  0  0  0  0  0  0
    2.6780   -2.5015    0.5870 C   0  0  0  0  0  0  0  0  0  0  0  0
   -0.8569    0.9935    0.0421 N   0  0  0  0  0  0  0  0  0  0  0  0
   -0.2513    1.0666    1.2778 C   0  0  0  0  0  0  0  0  0  0  0  0
    0.3979    2.1602    1.6543 O   0  0  0  0  0  0  0  0  0  0  0  0
   -0.4683   -0.1313    1.9258 C   0  0  0  0  0  0  0  0  0  0  0  0
   -1.2058   -0.9712    1.0350 C   0  0  0  0  0  0  0  0  0  0  0  0
   -1.4131   -0.2567   -0.1252 C   0  0  0  0  0  0  0  0  0  0  0  0
   -2.0076   -0.5861   -1.2638 O   0  0  0  0  0  0  0  0  0  0  0  0
   -1.6180   -2.3670    1.3811 C   0  0  0  0  0  0  0  0  0  0  0  0
   -1.1476   -2.7795    2.7553 C   0  0  0  0  0  0  0  0  0  0  0  0
   -0.4545   -1.9875    3.5964 C   0  0  0  0  0  0  0  0  0  0  0  0
   -0.0404   -0.5672    3.2916 C   0  0  0  0  0  0  0  0  0  0  0  0
   -4.4529    4.3404   -1.2179 H   0  0  0  0  0  0  0  0  0  0  0  0
   -5.0182    3.9348    0.4131 H   0  0  0  0  0  0  0  0  0  0  0  0
   -4.9836    2.6899   -0.8421 H   0  0  0  0  0  0  0  0  0  0  0  0
   -3.0949    2.4218    0.7438 H   0  0  0  0  0  0  0  0  0  0  0  0
   -1.3409    4.1679    0.9547 H   0  0  0  0  0  0  0  0  0  0  0  0
   -2.9147    4.8357    1.3788 H   0  0  0  0  0  0  0  0  0  0  0  0
   -2.1997    5.2011   -0.2003 H   0  0  0  0  0  0  0  0  0  0  0  0
   -2.8796    1.8311   -1.7144 H   0  0  0  0  0  0  0  0  0  0  0  0
   -2.1840    3.4053   -2.0142 H   0  0  0  0  0  0  0  0  0  0  0  0
   -0.2287    2.8775   -0.5827 H   0  0  0  0  0  0  0  0  0  0  0  0
    0.8773   -0.1525   -3.8065 H   0  0  0  0  0  0  0  0  0  0  0  0
    2.1386    1.1260   -3.6246 H   0  0  0  0  0  0  0  0  0  0  0  0
    1.5880   -0.8004   -0.9397 H   0  0  0  0  0  0  0  0  0  0  0  0
    4.6109   -2.6420   -2.2150 H   0  0  0  0  0  0  0  0  0  0  0  0
    5.8121   -4.2685   -0.8463 H   0  0  0  0  0  0  0  0  0  0  0  0
    5.0442   -4.7973    1.4499 H   0  0  0  0  0  0  0  0  0  0  0  0
    1.8034   -2.0140    1.0064 H   0  0  0  0  0  0  0  0  0  0  0  0
    0.7296    2.0136    2.5563 H   0  0  0  0  0  0  0  0  0  0  0  0
   -2.3761   -1.4810   -1.1586 H   0  0  0  0  0  0  0  0  0  0  0  0
   -1.2040   -3.0626    0.6420 H   0  0  0  0  0  0  0  0  0  0  0  0
   -2.7106   -2.4456    1.3414 H   0  0  0  0  0  0  0  0  0  0  0  0
   -1.3959   -3.7922    3.0651 H   0  0  0  0  0  0  0  0  0  0  0  0
   -0.1560   -2.3788    4.5669 H   0  0  0  0  0  0  0  0  0  0  0  0
   -0.4798    0.1003    4.0414 H   0  0  0  0  0  0  0  0  0  0  0  0
    1.0501   -0.4910    3.3720 H   0  0  0  0  0  0  0  0  0  0  0  0
  1  2  1  0
  2  3  1  0
  2  4  1  0
  4  5  1  0
  5  6  1  0
  6  7  2  0
  6  8  1  0
  8  9  1  0
  9 10  1  0
 10 11  2  0
 10 12  1  0
 12 13  1  0
 13 14  2  0
 14 15  1  0
 15 16  2  0
 16 17  1  0
 17 18  1  0
 17 19  2  0
  5 20  1  0
 20 21  1  0
 21 22  1  0
 21 23  2  0
 23 24  1  0
 24 25  2  0
 25 26  1  0
 24 27  1  0
 27 28  1  0
 28 29  2  0
 29 30  1  0
 19 13  1  0
 25 20  1  0
 30 23  1  0
  1 31  1  0
  1 32  1  0
  1 33  1  0
  2 34  1  0
  3 35  1  0
  3 36  1  0
  3 37  1  0
  4 38  1  0
  4 39  1  0
  5 40  1  0
  9 41  1  0
  9 42  1  0
 12 43  1  0
 14 44  1  0
 15 45  1  0
 16 46  1  0
 19 47  1  0
 22 48  1  0
 26 49  1  0
 27 50  1  0
 27 51  1  0
 28 52  1  0
 29 53  1  0
 30 54  1  0
 30 55  1  0
M  END
$$$$
