
     RDKit          3D

 52 57  0  0  0  0  0  0  0  0999 V2000
   -6.0562   -2.4661   -0.2021 C   0  0  0  0  0  0  0  0  0  0  0  0
   -4.6636   -1.9044   -0.1353 C   0  0  0  0  0  0  0  0  0  0  0  0
   -4.2462   -1.1879    0.9974 C   0  0  0  0  0  0  0  0  0  0  0  0
   -2.9676   -0.6343    1.0503 C   0  0  0  0  0  0  0  0  0  0  0  0
   -2.1267   -0.7999   -0.0440 C   0  0  0  0  0  0  0  0  0  0  0  0
   -0.7888   -0.2414    0.0179 N   0  0  0  0  0  0  0  0  0  0  0  0
   -0.4273    1.0904    0.3006 C   0  0  0  0  0  0  0  0  0  0  0  0
   -1.3041    2.4062    0.3925 C   0  0  0  0  0  0  0  0  0  0  0  0
   -0.7537    3.5668    0.9551 C   0  0  0  0  0  0  0  0  0  0  0  0
   -1.5115    4.7397    1.0398 C   0  0  0  0  0  0  0  0  0  0  0  0
   -2.8145    4.7597    0.5512 C   0  0  0  0  0  0  0  0  0  0  0  0
   -3.8375    6.3431    0.6637 Br  0  0  0  0  0  0  0  0  0  0  0  0
   -3.3632    3.6193   -0.0283 C   0  0  0  0  0  0  0  0  0  0  0  0
   -2.6069    2.4451   -0.1124 C   0  0  0  0  0  0  0  0  0  0  0  0
    0.9440    1.0528    0.4596 C   0  0  0  0  0  0  0  0  0  0  0  0
    1.3879   -0.2251    0.1850 N   0  0  0  0  0  4  0  0  0  0  0  0
    0.3225   -1.0053   -0.0630 C   0  0  0  0  0  0  0  0  0  0  0  0
    0.4542   -2.4678   -0.3434 C   0  0  0  0  0  0  0  0  0  0  0  0
    1.6849   -3.0525    0.3196 C   0  0  0  0  0  0  0  0  0  0  0  0
    2.8836   -2.1570    0.1491 C   0  0  0  0  0  0  0  0  0  0  0  0
    4.1580   -2.7209    0.1110 C   0  0  0  0  0  0  0  0  0  0  0  0
    5.2796   -1.8992    0.0307 C   0  0  0  0  0  0  0  0  0  0  0  0
    5.1520   -0.5001   -0.0042 C   0  0  0  0  0  0  0  0  0  0  0  0
    6.2940    0.3068   -0.0956 C   0  0  0  0  0  0  0  0  0  0  0  0
    6.1711    1.6875   -0.1444 C   0  0  0  0  0  0  0  0  0  0  0  0
    4.9020    2.2198   -0.0998 C   0  0  0  0  0  0  0  0  0  0  0  0
    3.7775    1.4724   -0.0061 N   0  0  0  0  0  0  0  0  0  0  0  0
    3.8827    0.1176    0.0467 C   0  0  0  0  0  0  0  0  0  0  0  0
    2.7720   -0.7515    0.1301 C   0  0  0  0  0  0  0  0  0  0  0  0
   -2.5122   -1.4936   -1.1846 C   0  0  0  0  0  0  0  0  0  0  0  0
   -3.7939   -2.0412   -1.2288 C   0  0  0  0  0  0  0  0  0  0  0  0
   -6.0840   -3.3665   -0.8247 H   0  0  0  0  0  0  0  0  0  0  0  0
   -6.4106   -2.7493    0.7946 H   0  0  0  0  0  0  0  0  0  0  0  0
   -6.7389   -1.7220   -0.6235 H   0  0  0  0  0  0  0  0  0  0  0  0
   -4.9208   -1.0615    1.8434 H   0  0  0  0  0  0  0  0  0  0  0  0
   -2.6481   -0.0959    1.9364 H   0  0  0  0  0  0  0  0  0  0  0  0
    0.2561    3.5914    1.3560 H   0  0  0  0  0  0  0  0  0  0  0  0
   -1.0775    5.6311    1.4881 H   0  0  0  0  0  0  0  0  0  0  0  0
   -4.3749    3.6369   -0.4285 H   0  0  0  0  0  0  0  0  0  0  0  0
   -3.0576    1.5975   -0.6164 H   0  0  0  0  0  0  0  0  0  0  0  0
    1.6528    1.8208    0.7103 H   0  0  0  0  0  0  0  0  0  0  0  0
    0.5127   -2.5401   -1.4343 H   0  0  0  0  0  0  0  0  0  0  0  0
   -0.4460   -2.9725    0.0126 H   0  0  0  0  0  0  0  0  0  0  0  0
    1.5057   -3.1672    1.3959 H   0  0  0  0  0  0  0  0  0  0  0  0
    1.8760   -4.0498   -0.0928 H   0  0  0  0  0  0  0  0  0  0  0  0
    4.2955   -3.8010    0.1516 H   0  0  0  0  0  0  0  0  0  0  0  0
    6.2664   -2.3623   -0.0024 H   0  0  0  0  0  0  0  0  0  0  0  0
    7.2886   -0.1342   -0.1345 H   0  0  0  0  0  0  0  0  0  0  0  0
    7.0438    2.3276   -0.2191 H   0  0  0  0  0  0  0  0  0  0  0  0
    4.7477    3.2952   -0.1400 H   0  0  0  0  0  0  0  0  0  0  0  0
   -1.8573   -1.5855   -2.0440 H   0  0  0  0  0  0  0  0  0  0  0  0
   -4.1215   -2.5716   -2.1224 H   0  0  0  0  0  0  0  0  0  0  0  0
  1  2  1  0
  2  3  2  0
  3  4  1  0
  4  5  2  0
  5  6  1  0
  6  7  1  0
  7  8  1  0
  8  9  2  0
  9 10  1  0
 10 11  2  0
 11 12  1  0
 11 13  1  0
 13 14  2  0
  7 15  2  0
 15 16  1  0
 16 17  2  0
 17 18  1  0
 18 19  1  0
 19 20  1  0
 20 21  2  0
 21 22  1  0
 22 23  2  0
 23 24  1  0
 24 25  2  0
 25 26  1  0
 26 27  2  0
 27 28  1  0
 28 29  2  0
  5 30  1  0
 30 31  2  0
 31  2  1  0
 17  6  1  0
 29 20  1  0
 14  8  1  0
 29 16  1  0
 28 23  1  0
  1 32  1  0
  1 33  1  0
  1 34  1  0
  3 35  1  0
  4 36  1  0
  9 37  1  0
 10 38  1  0
 13 39  1  0
 14 40  1  0
 15 41  1  0
 18 42  1  0
 18 43  1  0
 19 44  1  0
 19 45  1  0
 21 46  1  0
 22 47  1  0
 24 48  1  0
 25 49  1  0
 26 50  1  0
 30 51  1  0
 31 52  1  0
M  CHG  1  16   1
M  END
$$$$
