
     RDKit          3D

 42 44  0  0  0  0  0  0  0  0999 V2000
   -6.7821   -0.1493   -0.3677 C   0  0  0  0  0  0  0  0  0  0  0  0
   -5.8001    0.6201    0.3949 N   0  0  0  0  0  0  0  0  0  0  0  0
   -6.2574    1.1099    1.6945 C   0  0  0  0  0  0  0  0  0  0  0  0
   -4.4386    0.3437    0.2169 C   0  0  0  0  0  0  0  0  0  0  0  0
   -3.9607   -0.3813   -0.8892 C   0  0  0  0  0  0  0  0  0  0  0  0
   -2.5959   -0.6494   -1.0814 C   0  0  0  0  0  0  0  0  0  0  0  0
   -1.6488   -0.1930   -0.1669 C   0  0  0  0  0  0  0  0  0  0  0  0
   -0.2118   -0.4248   -0.3458 C   0  0  0  0  0  0  0  0  0  0  0  0
    0.2936   -1.6352   -0.6263 C   0  0  0  0  0  0  0  0  0  0  0  0
    1.7340   -1.9163   -0.8490 C   0  0  0  0  0  0  0  0  0  0  0  0
    2.0442   -2.8020   -1.6502 O   0  0  0  0  0  0  0  0  0  0  0  0
    2.7870   -1.1022   -0.1875 C   0  0  0  0  0  0  0  0  0  0  0  0
    3.8998   -0.8399   -0.9002 C   0  0  0  0  0  0  0  0  0  0  0  0
    4.1394   -1.3016   -2.1835 O   0  0  0  0  0  0  0  0  0  0  0  0
    4.9561    0.0021   -0.3393 C   0  0  0  0  0  0  0  0  0  0  0  0
    6.1236    0.3372   -1.0352 C   0  0  0  0  0  0  0  0  0  0  0  0
    7.0908    1.1598   -0.4474 C   0  0  0  0  0  0  0  0  0  0  0  0
    6.9006    1.6567    0.8422 C   0  0  0  0  0  0  0  0  0  0  0  0
    5.7442    1.3307    1.5462 C   0  0  0  0  0  0  0  0  0  0  0  0
    4.7912    0.5090    0.9452 C   0  0  0  0  0  0  0  0  0  0  0  0
    3.6490    0.1986    1.7008 O   0  0  0  0  0  0  0  0  0  0  0  0
    2.6609   -0.6461    1.2119 C   0  0  0  0  0  0  0  0  0  0  0  0
    1.7322   -0.9943    1.9329 O   0  0  0  0  0  0  0  0  0  0  0  0
   -2.0891    0.5539    0.9232 C   0  0  0  0  0  0  0  0  0  0  0  0
   -3.4563    0.8142    1.1060 C   0  0  0  0  0  0  0  0  0  0  0  0
   -6.6968   -1.2204   -0.1531 H   0  0  0  0  0  0  0  0  0  0  0  0
   -6.6711    0.0215   -1.4438 H   0  0  0  0  0  0  0  0  0  0  0  0
   -7.8051    0.1564   -0.1208 H   0  0  0  0  0  0  0  0  0  0  0  0
   -5.8052    2.0779    1.9353 H   0  0  0  0  0  0  0  0  0  0  0  0
   -6.0329    0.3893    2.4887 H   0  0  0  0  0  0  0  0  0  0  0  0
   -7.3404    1.2775    1.6969 H   0  0  0  0  0  0  0  0  0  0  0  0
   -4.6413   -0.7571   -1.6469 H   0  0  0  0  0  0  0  0  0  0  0  0
   -2.2935   -1.2068   -1.9646 H   0  0  0  0  0  0  0  0  0  0  0  0
    0.4150    0.4523   -0.2158 H   0  0  0  0  0  0  0  0  0  0  0  0
   -0.3507   -2.4964   -0.7787 H   0  0  0  0  0  0  0  0  0  0  0  0
    3.4948   -2.0159   -2.3891 H   0  0  0  0  0  0  0  0  0  0  0  0
    6.2907   -0.0371   -2.0434 H   0  0  0  0  0  0  0  0  0  0  0  0
    7.9931    1.4120   -0.9998 H   0  0  0  0  0  0  0  0  0  0  0  0
    7.6543    2.2950    1.2965 H   0  0  0  0  0  0  0  0  0  0  0  0
    5.5889    1.7094    2.5523 H   0  0  0  0  0  0  0  0  0  0  0  0
   -1.3794    0.9370    1.6535 H   0  0  0  0  0  0  0  0  0  0  0  0
   -3.7258    1.4048    1.9761 H   0  0  0  0  0  0  0  0  0  0  0  0
  1  2  1  0
  2  3  1  0
  2  4  1  0
  4  5  2  0
  5  6  1  0
  6  7  2  0
  7  8  1  0
  8  9  2  3
  9 10  1  0
 10 11  2  0
 10 12  1  0
 12 13  2  0
 13 14  1  0
 13 15  1  0
 15 16  2  0
 16 17  1  0
 17 18  2  0
 18 19  1  0
 19 20  2  0
 20 21  1  0
 21 22  1  0
 22 23  2  0
  7 24  1  0
 24 25  2  0
 25  4  1  0
 22 12  1  0
 20 15  1  0
  1 26  1  0
  1 27  1  0
  1 28  1  0
  3 29  1  0
  3 30  1  0
  3 31  1  0
  5 32  1  0
  6 33  1  0
  8 34  1  0
  9 35  1  0
 14 36  1  0
 16 37  1  0
 17 38  1  0
 18 39  1  0
 19 40  1  0
 24 41  1  0
 25 42  1  0
M  END
$$$$
