
     RDKit          3D

 41 44  0  0  0  0  0  0  0  0999 V2000
   -3.4713    1.1736   -2.5003 C   0  0  0  0  0  0  0  0  0  0  0  0
   -2.5855    0.0269   -1.9953 C   0  0  0  0  0  0  0  0  0  0  0  0
   -3.4357   -1.0418   -1.2621 C   0  0  0  0  0  0  0  0  0  0  0  0
   -3.2657   -0.5995    0.1545 C   0  0  0  0  0  0  0  0  0  0  0  0
   -3.9955   -0.9835    1.2677 C   0  0  0  0  0  0  0  0  0  0  0  0
   -3.6361   -0.4475    2.5031 C   0  0  0  0  0  0  0  0  0  0  0  0
   -2.5591    0.4448    2.6029 C   0  0  0  0  0  0  0  0  0  0  0  0
   -1.8264    0.8128    1.4685 C   0  0  0  0  0  0  0  0  0  0  0  0
   -2.1870    0.2890    0.2382 C   0  0  0  0  0  0  0  0  0  0  0  0
   -1.5725    0.4858   -1.0118 N   0  0  0  0  0  0  0  0  0  0  0  0
   -0.7836    1.7072   -1.2667 C   0  0  0  0  0  0  0  0  0  0  0  0
    0.6657    1.5884   -0.7637 C   0  0  0  0  0  0  0  0  0  0  0  0
    1.3979    2.5731   -0.7105 O   0  0  0  0  0  0  0  0  0  0  0  0
    1.0080    0.2885   -0.4408 N   0  0  0  0  0  0  0  0  0  0  0  0
    2.2316   -0.2077    0.0344 C   0  0  0  0  0  0  0  0  0  0  0  0
    2.2742   -1.5801    0.3668 C   0  0  0  0  0  0  0  0  0  0  0  0
    3.4469   -2.1728    0.8478 C   0  0  0  0  0  0  0  0  0  0  0  0
    4.5561   -1.3702    0.9837 C   0  0  0  0  0  0  0  0  0  0  0  0
    4.5227   -0.0345    0.6613 C   0  0  0  0  0  0  0  0  0  0  0  0
    3.3792    0.5764    0.1850 C   0  0  0  0  0  0  0  0  0  0  0  0
    5.7217    0.5760    0.8669 O   0  0  0  0  0  0  0  0  0  0  0  0
    6.5091   -0.5276    1.3575 C   0  0  0  0  0  0  0  0  0  0  0  0
    5.7759   -1.7680    1.4323 O   0  0  0  0  0  0  0  0  0  0  0  0
   -3.9563    1.7102   -1.6776 H   0  0  0  0  0  0  0  0  0  0  0  0
   -4.2541    0.7900   -3.1633 H   0  0  0  0  0  0  0  0  0  0  0  0
   -2.8893    1.9030   -3.0722 H   0  0  0  0  0  0  0  0  0  0  0  0
   -2.0836   -0.4286   -2.8573 H   0  0  0  0  0  0  0  0  0  0  0  0
   -2.9995   -2.0388   -1.3878 H   0  0  0  0  0  0  0  0  0  0  0  0
   -4.4812   -1.0497   -1.5829 H   0  0  0  0  0  0  0  0  0  0  0  0
   -4.8231   -1.6800    1.1852 H   0  0  0  0  0  0  0  0  0  0  0  0
   -4.1896   -0.7255    3.3967 H   0  0  0  0  0  0  0  0  0  0  0  0
   -2.2847    0.8504    3.5740 H   0  0  0  0  0  0  0  0  0  0  0  0
   -0.9884    1.4926    1.5778 H   0  0  0  0  0  0  0  0  0  0  0  0
   -0.7043    1.8746   -2.3471 H   0  0  0  0  0  0  0  0  0  0  0  0
   -1.2555    2.5851   -0.8115 H   0  0  0  0  0  0  0  0  0  0  0  0
    0.2190   -0.3545   -0.5058 H   0  0  0  0  0  0  0  0  0  0  0  0
    1.3863   -2.1988    0.2564 H   0  0  0  0  0  0  0  0  0  0  0  0
    3.4818   -3.2248    1.1056 H   0  0  0  0  0  0  0  0  0  0  0  0
    3.4054    1.6314   -0.0572 H   0  0  0  0  0  0  0  0  0  0  0  0
    7.3686   -0.6684    0.6919 H   0  0  0  0  0  0  0  0  0  0  0  0
    6.8779   -0.2776    2.3590 H   0  0  0  0  0  0  0  0  0  0  0  0
  1  2  1  0
  2  3  1  0
  3  4  1  0
  4  5  2  0
  5  6  1  0
  6  7  2  0
  7  8  1  0
  8  9  2  0
  9 10  1  0
 10 11  1  0
 11 12  1  0
 12 13  2  0
 12 14  1  0
 14 15  1  0
 15 16  2  0
 16 17  1  0
 17 18  2  0
 18 19  1  0
 19 20  2  0
 19 21  1  0
 21 22  1  0
 22 23  1  0
 10  2  1  0
 20 15  1  0
  9  4  1  0
 23 18  1  0
  1 24  1  0
  1 25  1  0
  1 26  1  0
  2 27  1  0
  3 28  1  0
  3 29  1  0
  5 30  1  0
  6 31  1  0
  7 32  1  0
  8 33  1  0
 11 34  1  0
 11 35  1  0
 14 36  1  0
 16 37  1  0
 17 38  1  0
 20 39  1  0
 22 40  1  0
 22 41  1  0
M  END
$$$$
