
     RDKit          3D

 33 36  0  0  0  0  0  0  0  0999 V2000
    5.1138   -0.1100   -0.2953 C   0  0  0  0  0  0  0  0  0  0  0  0
    4.7228   -1.2066    0.4615 C   0  0  0  0  0  0  0  0  0  0  0  0
    3.3792   -1.3609    0.8067 C   0  0  0  0  0  0  0  0  0  0  0  0
    2.4177   -0.4394    0.4099 C   0  0  0  0  0  0  0  0  0  0  0  0
    1.1334   -0.6291    0.7706 N   0  0  0  0  0  0  0  0  0  0  0  0
    0.2270    0.2933    0.3783 C   0  0  0  0  0  0  0  0  0  0  0  0
    0.6483    1.3861   -0.4115 C   0  0  0  0  0  0  0  0  0  0  0  0
    1.9311    1.5953   -0.7798 N   0  0  0  0  0  0  0  0  0  0  0  0
    2.8173    0.6782   -0.3628 C   0  0  0  0  0  0  0  0  0  0  0  0
    4.1575    0.8221   -0.7006 C   0  0  0  0  0  0  0  0  0  0  0  0
   -0.2317    2.3229   -0.9084 O   0  0  0  0  0  0  0  0  0  0  0  0
   -1.5506    1.7736   -1.0153 C   0  0  0  0  0  0  0  0  0  0  0  0
   -2.0159    1.2142    0.3373 C   0  0  0  0  0  0  0  0  0  0  0  0
   -3.4590    0.6996    0.2803 C   0  0  0  0  0  0  0  0  0  0  0  0
   -3.5921   -0.6275   -0.4693 C   0  0  0  0  0  0  0  0  0  0  0  0
   -2.4710   -1.6218   -0.1466 C   0  0  0  0  0  0  0  0  0  0  0  0
   -1.6198   -1.1809    1.0423 C   0  0  0  0  0  0  0  0  0  0  0  0
   -1.1011    0.1573    0.7886 N   0  0  0  0  0  0  0  0  0  0  0  0
    6.1565    0.0245   -0.5713 H   0  0  0  0  0  0  0  0  0  0  0  0
    5.4562   -1.9406    0.7855 H   0  0  0  0  0  0  0  0  0  0  0  0
    3.0717   -2.2175    1.4017 H   0  0  0  0  0  0  0  0  0  0  0  0
    4.4604    1.6817   -1.2938 H   0  0  0  0  0  0  0  0  0  0  0  0
   -1.5606    1.0156   -1.8096 H   0  0  0  0  0  0  0  0  0  0  0  0
   -2.2131    2.5863   -1.3330 H   0  0  0  0  0  0  0  0  0  0  0  0
   -1.9676    2.0262    1.0753 H   0  0  0  0  0  0  0  0  0  0  0  0
   -3.8203    0.5531    1.3072 H   0  0  0  0  0  0  0  0  0  0  0  0
   -4.1208    1.4493   -0.1690 H   0  0  0  0  0  0  0  0  0  0  0  0
   -3.6070   -0.4449   -1.5506 H   0  0  0  0  0  0  0  0  0  0  0  0
   -4.5630   -1.0757   -0.2259 H   0  0  0  0  0  0  0  0  0  0  0  0
   -2.8992   -2.6122    0.0462 H   0  0  0  0  0  0  0  0  0  0  0  0
   -1.8290   -1.7288   -1.0305 H   0  0  0  0  0  0  0  0  0  0  0  0
   -0.8375   -1.9246    1.2305 H   0  0  0  0  0  0  0  0  0  0  0  0
   -2.2339   -1.1586    1.9511 H   0  0  0  0  0  0  0  0  0  0  0  0
  1  2  2  0
  2  3  1  0
  3  4  2  0
  4  5  1  0
  5  6  2  0
  6  7  1  0
  7  8  2  0
  8  9  1  0
  9 10  2  0
  7 11  1  0
 11 12  1  0
 12 13  1  0
 13 14  1  0
 14 15  1  0
 15 16  1  0
 16 17  1  0
 17 18  1  0
 10  1  1  0
 18 13  1  0
  9  4  1  0
 18  6  1  0
  1 19  1  0
  2 20  1  0
  3 21  1  0
 10 22  1  0
 12 23  1  0
 12 24  1  0
 13 25  1  0
 14 26  1  0
 14 27  1  0
 15 28  1  0
 15 29  1  0
 16 30  1  0
 16 31  1  0
 17 32  1  0
 17 33  1  0
M  END
$$$$
