
     RDKit          3D

 41 42  0  0  0  0  0  0  0  0999 V2000
   -6.6435    2.2629   -3.3207 C   0  0  0  0  0  0  0  0  0  0  0  0
   -5.8052    0.6585   -3.4079 S   0  0  0  0  0  0  0  0  0  0  0  0
   -4.3726    1.0137   -2.4066 C   0  0  0  0  0  0  0  0  0  0  0  0
   -3.4542    2.0007   -2.7760 C   0  0  0  0  0  0  0  0  0  0  0  0
   -2.3264    2.2499   -1.9872 C   0  0  0  0  0  0  0  0  0  0  0  0
   -2.0942    1.5059   -0.8226 C   0  0  0  0  0  0  0  0  0  0  0  0
   -0.8782    1.7777    0.0396 C   0  0  0  0  0  0  0  0  0  0  0  0
   -0.0632    0.5786    0.3054 N   0  0  0  0  0  0  0  0  0  0  0  0
    0.5827    0.0897   -0.9149 C   0  0  0  0  0  0  0  0  0  0  0  0
    0.9186    0.8693    1.3715 C   0  0  0  0  0  0  0  0  0  0  0  0
    1.5816   -0.4150    1.8991 C   0  0  0  0  0  0  0  0  0  0  0  0
    0.9924   -1.1666    2.6705 O   0  0  0  0  0  0  0  0  0  0  0  0
    2.8694   -0.5910    1.4093 N   0  0  0  0  0  0  0  0  0  0  0  0
    3.7528   -1.6593    1.6731 C   0  0  0  0  0  0  0  0  0  0  0  0
    5.0032   -1.6201    1.0392 C   0  0  0  0  0  0  0  0  0  0  0  0
    5.9413   -2.6357    1.2422 C   0  0  0  0  0  0  0  0  0  0  0  0
    5.6371   -3.7043    2.0810 C   0  0  0  0  0  0  0  0  0  0  0  0
    4.3956   -3.7483    2.7117 C   0  0  0  0  0  0  0  0  0  0  0  0
    3.9843   -5.2004    3.8529 Br  0  0  0  0  0  0  0  0  0  0  0  0
    3.4548   -2.7344    2.5127 C   0  0  0  0  0  0  0  0  0  0  0  0
   -3.0187    0.5155   -0.4585 C   0  0  0  0  0  0  0  0  0  0  0  0
   -4.1438    0.2663   -1.2490 C   0  0  0  0  0  0  0  0  0  0  0  0
   -7.5947    2.1955   -3.8546 H   0  0  0  0  0  0  0  0  0  0  0  0
   -6.0421    3.0461   -3.7901 H   0  0  0  0  0  0  0  0  0  0  0  0
   -6.8456    2.5337   -2.2805 H   0  0  0  0  0  0  0  0  0  0  0  0
   -3.5993    2.5762   -3.6867 H   0  0  0  0  0  0  0  0  0  0  0  0
   -1.6287    3.0249   -2.2935 H   0  0  0  0  0  0  0  0  0  0  0  0
   -1.2631    2.1870    0.9840 H   0  0  0  0  0  0  0  0  0  0  0  0
   -0.2588    2.5664   -0.4090 H   0  0  0  0  0  0  0  0  0  0  0  0
    1.1153   -0.8489   -0.7292 H   0  0  0  0  0  0  0  0  0  0  0  0
    1.2954    0.8167   -1.3216 H   0  0  0  0  0  0  0  0  0  0  0  0
   -0.1497   -0.1428   -1.6944 H   0  0  0  0  0  0  0  0  0  0  0  0
    1.6750    1.5890    1.0347 H   0  0  0  0  0  0  0  0  0  0  0  0
    0.4209    1.3193    2.2408 H   0  0  0  0  0  0  0  0  0  0  0  0
    3.2069    0.1102    0.7630 H   0  0  0  0  0  0  0  0  0  0  0  0
    5.2680   -0.7979    0.3788 H   0  0  0  0  0  0  0  0  0  0  0  0
    6.9087   -2.5923    0.7472 H   0  0  0  0  0  0  0  0  0  0  0  0
    6.3669   -4.4936    2.2370 H   0  0  0  0  0  0  0  0  0  0  0  0
    2.4998   -2.8069    3.0222 H   0  0  0  0  0  0  0  0  0  0  0  0
   -2.8524   -0.0782    0.4391 H   0  0  0  0  0  0  0  0  0  0  0  0
   -4.8363   -0.5178   -0.9513 H   0  0  0  0  0  0  0  0  0  0  0  0
  1  2  1  0
  2  3  1  0
  3  4  2  0
  4  5  1  0
  5  6  2  0
  6  7  1  0
  7  8  1  0
  8  9  1  0
  8 10  1  0
 10 11  1  0
 11 12  2  0
 11 13  1  0
 13 14  1  0
 14 15  2  0
 15 16  1  0
 16 17  2  0
 17 18  1  0
 18 19  1  0
 18 20  2  0
  6 21  1  0
 21 22  2  0
 22  3  1  0
 20 14  1  0
  1 23  1  0
  1 24  1  0
  1 25  1  0
  4 26  1  0
  5 27  1  0
  7 28  1  0
  7 29  1  0
  9 30  1  0
  9 31  1  0
  9 32  1  0
 10 33  1  0
 10 34  1  0
 13 35  1  0
 15 36  1  0
 16 37  1  0
 17 38  1  0
 20 39  1  0
 21 40  1  0
 22 41  1  0
M  END
$$$$
