
     RDKit          3D

 46 50  0  0  0  0  0  0  0  0999 V2000
   -7.9340    0.5793   -0.0850 C   0  0  0  0  0  0  0  0  0  0  0  0
   -6.4511    0.6522    0.1685 C   0  0  0  0  0  0  0  0  0  0  0  0
   -5.9386    1.7669    0.8632 C   0  0  0  0  0  0  0  0  0  0  0  0
   -4.5616    1.8571    1.1107 C   0  0  0  0  0  0  0  0  0  0  0  0
   -3.8526    2.8470    1.7629 N   0  0  0  0  0  0  0  0  0  0  0  0
   -2.6217    2.4228    1.7023 C   0  0  0  0  0  0  0  0  0  0  0  0
   -1.1359    3.0706    2.2676 S   0  0  0  0  0  0  0  0  0  0  0  0
   -0.2727    1.6657    1.6317 C   0  0  0  0  0  0  0  0  0  0  0  0
    1.0588    1.5809    1.7635 C   0  0  0  0  0  0  0  0  0  0  0  0
    1.8904    0.5208    1.3155 C   0  0  0  0  0  0  0  0  0  0  0  0
    1.7292   -0.8580    1.3266 C   0  0  0  0  0  0  0  0  0  0  0  0
    2.9027   -1.4430    0.7915 C   0  0  0  0  0  0  0  0  0  0  0  0
    3.7564   -0.4047    0.5005 C   0  0  0  0  0  0  0  0  0  0  0  0
    5.0979   -0.2924   -0.0662 C   0  0  0  0  0  0  0  0  0  0  0  0
    5.3508    0.7600   -0.9696 C   0  0  0  0  0  0  0  0  0  0  0  0
    6.5907    0.9032   -1.5978 C   0  0  0  0  0  0  0  0  0  0  0  0
    7.6092   -0.0053   -1.3371 C   0  0  0  0  0  0  0  0  0  0  0  0
    7.3886   -1.0502   -0.4413 C   0  0  0  0  0  0  0  0  0  0  0  0
    6.1419   -1.1985    0.1978 C   0  0  0  0  0  0  0  0  0  0  0  0
    6.0091   -2.2877    1.1937 C   0  0  0  0  0  0  0  0  0  0  0  0
    5.4367   -2.2486    2.2644 O   0  0  0  0  0  0  0  0  0  0  0  0
    6.6204   -3.4121    0.7730 O   0  0  0  0  0  0  0  0  0  0  0  0
    3.1491    0.7753    0.8155 O   0  0  0  0  0  0  0  0  0  0  0  0
   -1.2086    0.7113    0.9552 C   0  0  0  0  0  0  0  0  0  0  0  0
   -1.0029   -0.3398    0.3811 O   0  0  0  0  0  0  0  0  0  0  0  0
   -2.4784    1.2372    1.0656 N   0  0  0  0  0  0  0  0  0  0  0  0
   -3.7250    0.8327    0.6599 C   0  0  0  0  0  0  0  0  0  0  0  0
   -4.1962   -0.2870   -0.0321 C   0  0  0  0  0  0  0  0  0  0  0  0
   -5.5809   -0.3685   -0.2762 C   0  0  0  0  0  0  0  0  0  0  0  0
   -6.1097   -1.5677   -1.0215 C   0  0  0  0  0  0  0  0  0  0  0  0
   -8.1350    0.5549   -1.1607 H   0  0  0  0  0  0  0  0  0  0  0  0
   -8.3572   -0.3125    0.3878 H   0  0  0  0  0  0  0  0  0  0  0  0
   -8.4559    1.4494    0.3276 H   0  0  0  0  0  0  0  0  0  0  0  0
   -6.5890    2.5624    1.2130 H   0  0  0  0  0  0  0  0  0  0  0  0
    1.5972    2.4059    2.2264 H   0  0  0  0  0  0  0  0  0  0  0  0
    0.8627   -1.3952    1.6868 H   0  0  0  0  0  0  0  0  0  0  0  0
    3.0973   -2.4966    0.6515 H   0  0  0  0  0  0  0  0  0  0  0  0
    4.5642    1.4775   -1.2013 H   0  0  0  0  0  0  0  0  0  0  0  0
    6.7545    1.7233   -2.2928 H   0  0  0  0  0  0  0  0  0  0  0  0
    8.5755    0.1020   -1.8235 H   0  0  0  0  0  0  0  0  0  0  0  0
    8.1994   -1.7450   -0.2311 H   0  0  0  0  0  0  0  0  0  0  0  0
    6.4644   -4.0500    1.5009 H   0  0  0  0  0  0  0  0  0  0  0  0
   -3.5139   -1.0638   -0.3684 H   0  0  0  0  0  0  0  0  0  0  0  0
   -5.3051   -2.2595   -1.2929 H   0  0  0  0  0  0  0  0  0  0  0  0
   -6.5997   -1.2534   -1.9483 H   0  0  0  0  0  0  0  0  0  0  0  0
   -6.8211   -2.1189   -0.3984 H   0  0  0  0  0  0  0  0  0  0  0  0
  1  2  1  0
  2  3  2  0
  3  4  1  0
  4  5  1  0
  5  6  2  0
  6  7  1  0
  7  8  1  0
  8  9  2  3
  9 10  1  0
 10 11  2  0
 11 12  1  0
 12 13  2  0
 13 14  1  0
 14 15  2  0
 15 16  1  0
 16 17  2  0
 17 18  1  0
 18 19  2  0
 19 20  1  0
 20 21  2  0
 20 22  1  0
 13 23  1  0
  8 24  1  0
 24 25  2  0
 24 26  1  0
 26 27  1  0
 27 28  1  0
 28 29  2  0
 29 30  1  0
 29  2  1  0
 27  4  2  0
 26  6  1  0
 23 10  1  0
 19 14  1  0
  1 31  1  0
  1 32  1  0
  1 33  1  0
  3 34  1  0
  9 35  1  0
 11 36  1  0
 12 37  1  0
 15 38  1  0
 16 39  1  0
 17 40  1  0
 18 41  1  0
 22 42  1  0
 28 43  1  0
 30 44  1  0
 30 45  1  0
 30 46  1  0
M  END
$$$$
