
     RDKit          3D

 43 45  0  0  0  0  0  0  0  0999 V2000
    5.6505   -1.1988   -0.7965 C   0  0  0  0  0  0  0  0  0  0  0  0
    4.3976   -0.7581   -1.5370 C   0  0  0  0  0  0  0  0  0  0  0  0
    4.2798    0.7614   -1.6842 C   0  0  0  0  0  0  0  0  0  0  0  0
    4.0900    1.5214   -0.3670 C   0  0  0  0  0  0  0  0  0  0  0  0
    2.8756    1.1388    0.3534 N   0  0  0  0  0  0  0  0  0  0  0  0
    1.6080    1.6458   -0.1499 C   0  0  0  0  0  0  0  0  0  0  0  0
    0.4151    1.0261    0.4935 C   0  0  0  0  0  0  0  0  0  0  0  0
   -0.8712    1.1325   -0.0425 C   0  0  0  0  0  0  0  0  0  0  0  0
   -1.9488    0.5820    0.6528 C   0  0  0  0  0  0  0  0  0  0  0  0
   -3.3118    0.7069    0.1019 C   0  0  0  0  0  0  0  0  0  0  0  0
   -3.6197    1.7467   -0.4801 O   0  0  0  0  0  0  0  0  0  0  0  0
   -4.3344   -0.3611    0.2348 C   0  0  0  0  0  0  0  0  0  0  0  0
   -3.9740   -1.7094    0.3362 C   0  0  0  0  0  0  0  0  0  0  0  0
   -4.9688   -2.6753    0.4642 C   0  0  0  0  0  0  0  0  0  0  0  0
   -4.6184   -3.9634    0.5674 F   0  0  0  0  0  0  0  0  0  0  0  0
   -6.3157   -2.3306    0.4836 C   0  0  0  0  0  0  0  0  0  0  0  0
   -6.6826   -0.9927    0.3561 C   0  0  0  0  0  0  0  0  0  0  0  0
   -5.6963   -0.0168    0.2184 C   0  0  0  0  0  0  0  0  0  0  0  0
   -6.1353    1.2712    0.0675 O   0  0  0  0  0  0  0  0  0  0  0  0
   -1.6990   -0.0052    1.8853 C   0  0  0  0  0  0  0  0  0  0  0  0
   -0.4618   -0.1207    2.4242 N   0  0  0  0  0  0  0  0  0  0  0  0
    0.5636    0.3911    1.7126 C   0  0  0  0  0  0  0  0  0  0  0  0
    1.8280    0.2659    2.2487 N   0  0  0  0  0  0  0  0  0  0  0  0
    2.9865    0.5914    1.6171 C   0  0  0  0  0  0  0  0  0  0  0  0
    4.0595    0.3609    2.1707 O   0  0  0  0  0  0  0  0  0  0  0  0
    5.6408   -0.8693    0.2457 H   0  0  0  0  0  0  0  0  0  0  0  0
    6.5502   -0.8004   -1.2760 H   0  0  0  0  0  0  0  0  0  0  0  0
    5.7225   -2.2912   -0.7980 H   0  0  0  0  0  0  0  0  0  0  0  0
    4.4177   -1.2002   -2.5406 H   0  0  0  0  0  0  0  0  0  0  0  0
    3.5119   -1.1640   -1.0356 H   0  0  0  0  0  0  0  0  0  0  0  0
    5.1785    1.1452   -2.1828 H   0  0  0  0  0  0  0  0  0  0  0  0
    3.4425    0.9770   -2.3579 H   0  0  0  0  0  0  0  0  0  0  0  0
    4.9738    1.3845    0.2642 H   0  0  0  0  0  0  0  0  0  0  0  0
    4.0253    2.5972   -0.5707 H   0  0  0  0  0  0  0  0  0  0  0  0
    1.5924    2.7281    0.0243 H   0  0  0  0  0  0  0  0  0  0  0  0
    1.5684    1.4628   -1.2284 H   0  0  0  0  0  0  0  0  0  0  0  0
   -1.0361    1.6462   -0.9874 H   0  0  0  0  0  0  0  0  0  0  0  0
   -2.9412   -2.0410    0.3018 H   0  0  0  0  0  0  0  0  0  0  0  0
   -7.0701   -3.1049    0.5851 H   0  0  0  0  0  0  0  0  0  0  0  0
   -7.7320   -0.7090    0.3526 H   0  0  0  0  0  0  0  0  0  0  0  0
   -5.3725    1.8205   -0.2235 H   0  0  0  0  0  0  0  0  0  0  0  0
   -2.4954   -0.4008    2.5097 H   0  0  0  0  0  0  0  0  0  0  0  0
    1.9067   -0.1910    3.1447 H   0  0  0  0  0  0  0  0  0  0  0  0
  1  2  1  0
  2  3  1  0
  3  4  1  0
  4  5  1  0
  5  6  1  0
  6  7  1  0
  7  8  2  0
  8  9  1  0
  9 10  1  0
 10 11  2  0
 10 12  1  0
 12 13  2  0
 13 14  1  0
 14 15  1  0
 14 16  2  0
 16 17  1  0
 17 18  2  0
 18 19  1  0
  9 20  2  0
 20 21  1  0
 21 22  2  0
 22 23  1  0
 23 24  1  0
 24 25  2  0
 24  5  1  0
 22  7  1  0
 18 12  1  0
  1 26  1  0
  1 27  1  0
  1 28  1  0
  2 29  1  0
  2 30  1  0
  3 31  1  0
  3 32  1  0
  4 33  1  0
  4 34  1  0
  6 35  1  0
  6 36  1  0
  8 37  1  0
 13 38  1  0
 16 39  1  0
 17 40  1  0
 19 41  1  0
 20 42  1  0
 23 43  1  0
M  END
$$$$
