
     RDKit          3D

 62 66  0  0  0  0  0  0  0  0999 V2000
   -4.8130   -5.1615    1.2775 C   0  0  0  0  0  0  0  0  0  0  0  0
   -4.2818   -5.2528   -0.0383 O   0  0  0  0  0  0  0  0  0  0  0  0
   -3.9097   -4.0806   -0.6381 C   0  0  0  0  0  0  0  0  0  0  0  0
   -3.4274   -4.2211   -1.9414 C   0  0  0  0  0  0  0  0  0  0  0  0
   -3.0101   -3.1073   -2.6690 C   0  0  0  0  0  0  0  0  0  0  0  0
   -3.0736   -1.8393   -2.0936 C   0  0  0  0  0  0  0  0  0  0  0  0
   -3.5542   -1.6779   -0.7876 C   0  0  0  0  0  0  0  0  0  0  0  0
   -3.6020   -0.3413   -0.1787 C   0  0  0  0  0  0  0  0  0  0  0  0
   -5.1294    0.3012    0.2516 S   0  0  0  0  0  0  0  0  0  0  0  0
   -4.4538    1.7716    0.8231 C   0  0  0  0  0  0  0  0  0  0  0  0
   -5.1520    2.8657    1.3697 C   0  0  0  0  0  0  0  0  0  0  0  0
   -4.4374    3.9920    1.7934 C   0  0  0  0  0  0  0  0  0  0  0  0
   -3.0548    4.0352    1.6812 C   0  0  0  0  0  0  0  0  0  0  0  0
   -2.2482    5.0732    2.0603 O   0  0  0  0  0  0  0  0  0  0  0  0
   -2.8840    6.2096    2.6314 C   0  0  0  0  0  0  0  0  0  0  0  0
   -2.3735    2.9405    1.1355 C   0  0  0  0  0  0  0  0  0  0  0  0
   -3.0657    1.7835    0.6892 C   0  0  0  0  0  0  0  0  0  0  0  0
   -2.5791    0.5533    0.1007 C   0  0  0  0  0  0  0  0  0  0  0  0
   -1.1811    0.2413   -0.1836 C   0  0  0  0  0  0  0  0  0  0  0  0
   -0.5221   -0.7787    0.5112 C   0  0  0  0  0  0  0  0  0  0  0  0
    0.8186   -1.0724    0.2362 C   0  0  0  0  0  0  0  0  0  0  0  0
    1.5117   -0.3440   -0.7306 C   0  0  0  0  0  0  0  0  0  0  0  0
    2.8169   -0.5252   -1.0938 O   0  0  0  0  0  0  0  0  0  0  0  0
    3.5576   -1.5281   -0.3921 C   0  0  0  0  0  0  0  0  0  0  0  0
    5.0101   -1.5418   -0.9043 C   0  0  0  0  0  0  0  0  0  0  0  0
    5.8735   -0.5281   -0.2773 N   0  0  0  0  0  0  0  0  0  0  0  0
    7.2542   -0.6143   -0.7572 C   0  0  0  0  0  0  0  0  0  0  0  0
    7.8608    0.6878   -0.2625 C   0  0  0  0  0  0  0  0  0  0  0  0
    6.6977    1.6721   -0.2245 C   0  0  0  0  0  0  0  0  0  0  0  0
    5.4615    0.8488   -0.5646 C   0  0  0  0  0  0  0  0  0  0  0  0
    0.8528    0.6764   -1.4213 C   0  0  0  0  0  0  0  0  0  0  0  0
   -0.4855    0.9715   -1.1515 C   0  0  0  0  0  0  0  0  0  0  0  0
   -3.9698   -2.8090   -0.0639 C   0  0  0  0  0  0  0  0  0  0  0  0
   -5.0752   -6.1729    1.6029 H   0  0  0  0  0  0  0  0  0  0  0  0
   -4.0673   -4.7697    1.9771 H   0  0  0  0  0  0  0  0  0  0  0  0
   -5.7272   -4.5589    1.2941 H   0  0  0  0  0  0  0  0  0  0  0  0
   -3.3769   -5.2090   -2.3929 H   0  0  0  0  0  0  0  0  0  0  0  0
   -2.6350   -3.2280   -3.6816 H   0  0  0  0  0  0  0  0  0  0  0  0
   -2.7453   -0.9771   -2.6697 H   0  0  0  0  0  0  0  0  0  0  0  0
   -6.2343    2.8378    1.4631 H   0  0  0  0  0  0  0  0  0  0  0  0
   -5.0030    4.8193    2.2099 H   0  0  0  0  0  0  0  0  0  0  0  0
   -3.4043    5.9470    3.5584 H   0  0  0  0  0  0  0  0  0  0  0  0
   -3.5644    6.6823    1.9155 H   0  0  0  0  0  0  0  0  0  0  0  0
   -2.1059    6.9372    2.8813 H   0  0  0  0  0  0  0  0  0  0  0  0
   -1.2890    2.9808    1.0570 H   0  0  0  0  0  0  0  0  0  0  0  0
   -1.0457   -1.3535    1.2716 H   0  0  0  0  0  0  0  0  0  0  0  0
    1.2877   -1.8746    0.7956 H   0  0  0  0  0  0  0  0  0  0  0  0
    3.5443   -1.3439    0.6893 H   0  0  0  0  0  0  0  0  0  0  0  0
    3.1123   -2.5088   -0.6002 H   0  0  0  0  0  0  0  0  0  0  0  0
    5.4302   -2.5259   -0.6623 H   0  0  0  0  0  0  0  0  0  0  0  0
    5.0177   -1.4353   -1.9966 H   0  0  0  0  0  0  0  0  0  0  0  0
    7.7803   -1.4836   -0.3506 H   0  0  0  0  0  0  0  0  0  0  0  0
    7.3019   -0.6555   -1.8532 H   0  0  0  0  0  0  0  0  0  0  0  0
    8.2716    0.5623    0.7466 H   0  0  0  0  0  0  0  0  0  0  0  0
    8.6694    1.0344   -0.9134 H   0  0  0  0  0  0  0  0  0  0  0  0
    6.6150    2.1146    0.7750 H   0  0  0  0  0  0  0  0  0  0  0  0
    6.8380    2.4871   -0.9423 H   0  0  0  0  0  0  0  0  0  0  0  0
    4.6058    1.1618    0.0415 H   0  0  0  0  0  0  0  0  0  0  0  0
    5.2116    0.9846   -1.6247 H   0  0  0  0  0  0  0  0  0  0  0  0
    1.3876    1.2477   -2.1759 H   0  0  0  0  0  0  0  0  0  0  0  0
   -0.9775    1.7693   -1.7027 H   0  0  0  0  0  0  0  0  0  0  0  0
   -4.3295   -2.6700    0.9505 H   0  0  0  0  0  0  0  0  0  0  0  0
  1  2  1  0
  2  3  1  0
  3  4  2  0
  4  5  1  0
  5  6  2  0
  6  7  1  0
  7  8  1  0
  8  9  1  0
  9 10  1  0
 10 11  2  0
 11 12  1  0
 12 13  2  0
 13 14  1  0
 14 15  1  0
 13 16  1  0
 16 17  2  0
 17 18  1  0
 18 19  1  0
 19 20  2  0
 20 21  1  0
 21 22  2  0
 22 23  1  0
 23 24  1  0
 24 25  1  0
 25 26  1  0
 26 27  1  0
 27 28  1  0
 28 29  1  0
 29 30  1  0
 22 31  1  0
 31 32  2  0
  7 33  2  0
 33  3  1  0
 18  8  2  0
 32 19  1  0
 17 10  1  0
 30 26  1  0
  1 34  1  0
  1 35  1  0
  1 36  1  0
  4 37  1  0
  5 38  1  0
  6 39  1  0
 11 40  1  0
 12 41  1  0
 15 42  1  0
 15 43  1  0
 15 44  1  0
 16 45  1  0
 20 46  1  0
 21 47  1  0
 24 48  1  0
 24 49  1  0
 25 50  1  0
 25 51  1  0
 27 52  1  0
 27 53  1  0
 28 54  1  0
 28 55  1  0
 29 56  1  0
 29 57  1  0
 30 58  1  0
 30 59  1  0
 31 60  1  0
 32 61  1  0
 33 62  1  0
M  END
$$$$
