
     RDKit          3D

 56 60  0  0  0  0  0  0  0  0999 V2000
   -0.1965    0.5825    0.2715 C   0  0  0  0  0  0  0  0  0  0  0  0
   -0.3078    0.0800   -0.9664 C   0  0  0  0  0  0  0  0  0  0  0  0
    0.7724   -0.1258   -1.9561 C   0  0  0  0  0  0  0  0  0  0  0  0
    2.0636    0.2482   -1.9814 C   0  0  0  0  0  0  0  0  0  0  0  0
    2.8062    1.0419   -1.0193 C   0  0  0  0  0  0  0  0  0  0  0  0
    2.5938    2.3465   -0.8138 C   0  0  0  0  0  0  0  0  0  0  0  0
    1.6413    3.0563   -1.4954 O   0  0  0  0  0  0  0  0  0  0  0  0
    3.3097    3.0441    0.0939 N   0  0  0  0  0  0  0  0  0  0  0  0
    4.2565    2.5042    0.9217 C   0  0  0  0  0  0  0  0  0  0  0  0
    4.7370    3.2627    1.7642 O   0  0  0  0  0  0  0  0  0  0  0  0
    4.5450    1.1508    0.7427 N   0  0  0  0  0  0  0  0  0  0  0  0
    5.5397    0.5105    1.5806 C   0  0  0  0  0  0  0  0  0  0  0  0
    6.6240    1.2202    2.1263 C   0  0  0  0  0  0  0  0  0  0  0  0
    7.5735    0.5922    2.9441 C   0  0  0  0  0  0  0  0  0  0  0  0
    7.4545   -0.7615    3.2330 C   0  0  0  0  0  0  0  0  0  0  0  0
    8.6180   -1.5322    4.2366 Cl  0  0  0  0  0  0  0  0  0  0  0  0
    6.3946   -1.4911    2.7103 C   0  0  0  0  0  0  0  0  0  0  0  0
    5.4479   -0.8592    1.8933 C   0  0  0  0  0  0  0  0  0  0  0  0
    3.9498    0.4087   -0.2870 C   0  0  0  0  0  0  0  0  0  0  0  0
    4.3303   -0.7011   -0.6694 O   0  0  0  0  0  0  0  0  0  0  0  0
    0.1916   -0.8574   -3.0799 C   0  0  0  0  0  0  0  0  0  0  0  0
   -1.1206   -1.0143   -2.8218 C   0  0  0  0  0  0  0  0  0  0  0  0
   -2.1061   -1.6604   -3.7363 C   0  0  0  0  0  0  0  0  0  0  0  0
   -1.4676   -0.4482   -1.5754 N   0  0  0  0  0  0  0  0  0  0  0  0
   -2.7158   -0.4823   -1.0150 C   0  0  0  0  0  0  0  0  0  0  0  0
   -3.7102    0.9269   -0.9682 S   0  0  0  0  0  0  0  0  0  0  0  0
   -4.9787    0.0974   -0.2041 C   0  0  0  0  0  0  0  0  0  0  0  0
   -4.6778   -1.2271    0.0444 C   0  0  0  0  0  0  0  0  0  0  0  0
   -3.3655   -1.5593   -0.4312 C   0  0  0  0  0  0  0  0  0  0  0  0
   -2.7684   -2.8582   -0.3133 C   0  0  0  0  0  0  0  0  0  0  0  0
   -2.3238   -3.9253   -0.2061 N   0  0  0  0  0  0  0  0  0  0  0  0
   -5.6603   -2.1513    0.7070 C   0  0  0  0  0  0  0  0  0  0  0  0
   -6.7937   -1.3796    1.4013 C   0  0  0  0  0  0  0  0  0  0  0  0
   -7.3405   -0.2533    0.5132 C   0  0  0  0  0  0  0  0  0  0  0  0
   -6.2561    0.7814    0.1762 C   0  0  0  0  0  0  0  0  0  0  0  0
    0.7401    0.9134    0.6933 H   0  0  0  0  0  0  0  0  0  0  0  0
   -1.0591    0.6540    0.9248 H   0  0  0  0  0  0  0  0  0  0  0  0
    2.6821   -0.0764   -2.8188 H   0  0  0  0  0  0  0  0  0  0  0  0
    1.5629    3.9359   -1.0977 H   0  0  0  0  0  0  0  0  0  0  0  0
    3.1447    4.0271    0.2606 H   0  0  0  0  0  0  0  0  0  0  0  0
    6.7841    2.2727    1.9059 H   0  0  0  0  0  0  0  0  0  0  0  0
    8.4025    1.1705    3.3438 H   0  0  0  0  0  0  0  0  0  0  0  0
    6.2901   -2.5502    2.9313 H   0  0  0  0  0  0  0  0  0  0  0  0
    4.6219   -1.4672    1.5294 H   0  0  0  0  0  0  0  0  0  0  0  0
    0.7201   -1.1788   -3.9628 H   0  0  0  0  0  0  0  0  0  0  0  0
   -1.6409   -1.9431   -4.6868 H   0  0  0  0  0  0  0  0  0  0  0  0
   -2.9295   -0.9761   -3.9641 H   0  0  0  0  0  0  0  0  0  0  0  0
   -2.5185   -2.5693   -3.2892 H   0  0  0  0  0  0  0  0  0  0  0  0
   -6.0873   -2.8104   -0.0591 H   0  0  0  0  0  0  0  0  0  0  0  0
   -5.1542   -2.7866    1.4427 H   0  0  0  0  0  0  0  0  0  0  0  0
   -6.4225   -0.9477    2.3396 H   0  0  0  0  0  0  0  0  0  0  0  0
   -7.5995   -2.0738    1.6652 H   0  0  0  0  0  0  0  0  0  0  0  0
   -7.7345   -0.6883   -0.4145 H   0  0  0  0  0  0  0  0  0  0  0  0
   -8.1783    0.2455    1.0133 H   0  0  0  0  0  0  0  0  0  0  0  0
   -6.6117    1.4313   -0.6315 H   0  0  0  0  0  0  0  0  0  0  0  0
   -6.0723    1.4128    1.0543 H   0  0  0  0  0  0  0  0  0  0  0  0
  1  2  2  0
  2  3  1  0
  3  4  2  3
  4  5  1  0
  5  6  2  0
  6  7  1  0
  6  8  1  0
  8  9  1  0
  9 10  2  0
  9 11  1  0
 11 12  1  0
 12 13  2  0
 13 14  1  0
 14 15  2  0
 15 16  1  0
 15 17  1  0
 17 18  2  0
 11 19  1  0
 19 20  2  0
  3 21  1  0
 21 22  2  0
 22 23  1  0
 22 24  1  0
 24 25  1  0
 25 26  1  0
 26 27  1  0
 27 28  2  0
 28 29  1  0
 29 30  1  0
 30 31  3  0
 28 32  1  0
 32 33  1  0
 33 34  1  0
 34 35  1  0
 24  2  1  0
 29 25  2  0
 19  5  1  0
 35 27  1  0
 18 12  1  0
  1 36  1  0
  1 37  1  0
  4 38  1  0
  7 39  1  0
  8 40  1  0
 13 41  1  0
 14 42  1  0
 17 43  1  0
 18 44  1  0
 21 45  1  0
 23 46  1  0
 23 47  1  0
 23 48  1  0
 32 49  1  0
 32 50  1  0
 33 51  1  0
 33 52  1  0
 34 53  1  0
 34 54  1  0
 35 55  1  0
 35 56  1  0
M  END
$$$$
