
     RDKit          3D

 44 46  0  0  0  0  0  0  0  0999 V2000
    1.0607   -0.9962   -4.2704 C   0  0  0  0  0  0  0  0  0  0  0  0
    1.0913   -0.9931   -2.8413 O   0  0  0  0  0  0  0  0  0  0  0  0
    1.7093    0.0858   -2.2951 C   0  0  0  0  0  0  0  0  0  0  0  0
    2.2083    1.0018   -2.9373 O   0  0  0  0  0  0  0  0  0  0  0  0
    1.6716    0.0657   -0.7853 C   0  0  0  0  0  0  0  0  0  0  0  0
    1.6214   -1.3316   -0.2052 C   0  0  0  0  0  0  0  0  0  0  0  0
    2.9157   -2.1063   -0.1498 C   0  0  0  0  0  0  0  0  0  0  0  0
    0.5436   -1.9131    0.2264 N   0  0  0  0  0  0  0  0  0  0  0  0
   -0.6551   -1.2437    0.1610 C   0  0  0  0  0  0  0  0  0  0  0  0
   -0.7314    0.0733   -0.0622 C   0  0  0  0  0  0  0  0  0  0  0  0
   -2.0555    0.7180   -0.1436 C   0  0  0  0  0  0  0  0  0  0  0  0
   -2.1438    1.8839   -0.5244 O   0  0  0  0  0  0  0  0  0  0  0  0
   -3.1362   -0.0611    0.2061 N   0  0  0  0  0  0  0  0  0  0  0  0
   -4.4514    0.5505    0.1917 C   0  0  0  0  0  0  0  0  0  0  0  0
   -3.0702   -1.4355    0.3878 C   0  0  0  0  0  0  0  0  0  0  0  0
   -4.0871   -2.1142    0.5472 O   0  0  0  0  0  0  0  0  0  0  0  0
   -1.7971   -1.9921    0.3635 N   0  0  0  0  0  0  0  0  0  0  0  0
   -1.6675   -3.4310    0.5773 C   0  0  0  0  0  0  0  0  0  0  0  0
    0.4908    0.9177   -0.2971 C   0  0  0  0  0  0  0  0  0  0  0  0
    0.8658    1.7323    0.9435 C   0  0  0  0  0  0  0  0  0  0  0  0
    1.2027    1.1232    2.1648 C   0  0  0  0  0  0  0  0  0  0  0  0
    1.5455    1.8984    3.2762 C   0  0  0  0  0  0  0  0  0  0  0  0
    1.5524    3.2872    3.1791 C   0  0  0  0  0  0  0  0  0  0  0  0
    1.9750    4.2381    4.5488 Cl  0  0  0  0  0  0  0  0  0  0  0  0
    1.2162    3.9090    1.9805 C   0  0  0  0  0  0  0  0  0  0  0  0
    0.8735    3.1355    0.8687 C   0  0  0  0  0  0  0  0  0  0  0  0
    0.5058   -0.1294   -4.6426 H   0  0  0  0  0  0  0  0  0  0  0  0
    2.0776   -1.0106   -4.6748 H   0  0  0  0  0  0  0  0  0  0  0  0
    0.5451   -1.9040   -4.5955 H   0  0  0  0  0  0  0  0  0  0  0  0
    2.6278    0.5036   -0.4657 H   0  0  0  0  0  0  0  0  0  0  0  0
    3.3207   -2.2137   -1.1594 H   0  0  0  0  0  0  0  0  0  0  0  0
    3.6344   -1.5646    0.4709 H   0  0  0  0  0  0  0  0  0  0  0  0
    2.7534   -3.0997    0.2773 H   0  0  0  0  0  0  0  0  0  0  0  0
   -4.3920    1.6276    0.3733 H   0  0  0  0  0  0  0  0  0  0  0  0
   -5.0918    0.1004    0.9565 H   0  0  0  0  0  0  0  0  0  0  0  0
   -4.9014    0.3785   -0.7913 H   0  0  0  0  0  0  0  0  0  0  0  0
   -2.6377   -3.9202    0.6995 H   0  0  0  0  0  0  0  0  0  0  0  0
   -1.0823   -3.6102    1.4853 H   0  0  0  0  0  0  0  0  0  0  0  0
   -1.1685   -3.8831   -0.2864 H   0  0  0  0  0  0  0  0  0  0  0  0
    0.2525    1.6345   -1.0959 H   0  0  0  0  0  0  0  0  0  0  0  0
    1.1936    0.0411    2.2767 H   0  0  0  0  0  0  0  0  0  0  0  0
    1.8003    1.4124    4.2145 H   0  0  0  0  0  0  0  0  0  0  0  0
    1.2130    4.9931    1.9034 H   0  0  0  0  0  0  0  0  0  0  0  0
    0.6013    3.6418   -0.0568 H   0  0  0  0  0  0  0  0  0  0  0  0
  1  2  1  0
  2  3  1  0
  3  4  2  0
  3  5  1  0
  5  6  1  0
  6  7  1  0
  6  8  2  0
  8  9  1  0
  9 10  2  0
 10 11  1  0
 11 12  2  0
 11 13  1  0
 13 14  1  0
 13 15  1  0
 15 16  2  0
 15 17  1  0
 17 18  1  0
 10 19  1  0
 19 20  1  0
 20 21  2  0
 21 22  1  0
 22 23  2  0
 23 24  1  0
 23 25  1  0
 25 26  2  0
 19  5  1  0
 26 20  1  0
 17  9  1  0
  1 27  1  0
  1 28  1  0
  1 29  1  0
  5 30  1  0
  7 31  1  0
  7 32  1  0
  7 33  1  0
 14 34  1  0
 14 35  1  0
 14 36  1  0
 18 37  1  0
 18 38  1  0
 18 39  1  0
 19 40  1  0
 21 41  1  0
 22 42  1  0
 25 43  1  0
 26 44  1  0
M  END
$$$$
