
     RDKit          3D

 61 65  0  0  0  0  0  0  0  0999 V2000
   -6.8748   -2.0920    3.4191 C   0  0  0  0  0  0  0  0  0  0  0  0
   -6.5142   -1.5286    2.0765 C   0  0  0  0  0  0  0  0  0  0  0  0
   -5.9257   -0.2647    1.9666 C   0  0  0  0  0  0  0  0  0  0  0  0
   -5.5664    0.2431    0.7157 C   0  0  0  0  0  0  0  0  0  0  0  0
   -5.7847   -0.5073   -0.4482 C   0  0  0  0  0  0  0  0  0  0  0  0
   -5.3872    0.0380   -1.7972 C   0  0  0  0  0  0  0  0  0  0  0  0
   -4.1371   -0.5295   -2.2568 N   0  0  0  0  0  0  0  0  0  0  0  0
   -4.1207   -1.5079   -3.1967 N   0  0  0  0  0  0  0  0  0  0  0  0
   -2.8466   -1.8192   -3.4359 N   0  0  0  0  0  0  0  0  0  0  0  0
   -2.0792   -1.0142   -2.6507 C   0  0  0  0  0  0  0  0  0  0  0  0
   -0.6513   -0.9280   -2.4988 C   0  0  0  0  0  0  0  0  0  0  0  0
    0.1691   -1.6027   -3.1069 O   0  0  0  0  0  0  0  0  0  0  0  0
   -0.2871    0.0335   -1.5629 N   0  0  0  0  0  0  0  0  0  0  0  0
   -1.1855    0.8414   -0.8765 C   0  0  0  0  0  0  0  0  0  0  0  0
   -0.6014    1.8394    0.1219 C   0  0  0  0  0  0  0  0  0  0  0  0
    0.4952    2.7166   -0.5026 C   0  0  0  0  0  0  0  0  0  0  0  0
    1.8972    2.3560   -0.0159 C   0  0  0  0  0  0  0  0  0  0  0  0
    1.9866    0.8856    0.1046 N   0  0  0  0  0  0  0  0  0  0  0  0
    3.5514    0.1957   -0.0841 S   0  0  0  0  0  6  0  0  0  0  0  0
    3.3503   -1.2321    0.0473 O   0  0  0  0  0  0  0  0  0  0  0  0
    4.0709    0.7720   -1.3059 O   0  0  0  0  0  0  0  0  0  0  0  0
    4.4778    0.7659    1.2665 C   0  0  0  0  0  0  0  0  0  0  0  0
    5.7950    0.5404    1.3894 C   0  0  0  0  0  0  0  0  0  0  0  0
    6.6475   -0.1965    0.4543 C   0  0  0  0  0  0  0  0  0  0  0  0
    6.5756   -1.5911    0.3606 C   0  0  0  0  0  0  0  0  0  0  0  0
    7.3909   -2.2781   -0.5411 C   0  0  0  0  0  0  0  0  0  0  0  0
    8.2863   -1.5766   -1.3467 C   0  0  0  0  0  0  0  0  0  0  0  0
    8.3692   -0.1883   -1.2498 C   0  0  0  0  0  0  0  0  0  0  0  0
    7.5538    0.5013   -0.3506 C   0  0  0  0  0  0  0  0  0  0  0  0
    1.1575    0.3162    1.1998 C   0  0  0  0  0  0  0  0  0  0  0  0
   -0.1259    1.1268    1.3927 C   0  0  0  0  0  0  0  0  0  0  0  0
   -2.4820    0.7778   -1.0176 N   0  0  0  0  0  0  0  0  0  0  0  0
   -2.8675   -0.1710   -1.9058 C   0  0  0  0  0  0  0  0  0  0  0  0
   -6.3561   -1.7818   -0.3337 C   0  0  0  0  0  0  0  0  0  0  0  0
   -6.7151   -2.2880    0.9179 C   0  0  0  0  0  0  0  0  0  0  0  0
   -6.9780   -1.2986    4.1682 H   0  0  0  0  0  0  0  0  0  0  0  0
   -6.0991   -2.7879    3.7536 H   0  0  0  0  0  0  0  0  0  0  0  0
   -7.8335   -2.6198    3.3697 H   0  0  0  0  0  0  0  0  0  0  0  0
   -5.7405    0.3345    2.8557 H   0  0  0  0  0  0  0  0  0  0  0  0
   -5.1039    1.2271    0.6577 H   0  0  0  0  0  0  0  0  0  0  0  0
   -5.2681    1.1274   -1.7689 H   0  0  0  0  0  0  0  0  0  0  0  0
   -6.1615   -0.1808   -2.5421 H   0  0  0  0  0  0  0  0  0  0  0  0
    0.7124    0.1264   -1.4082 H   0  0  0  0  0  0  0  0  0  0  0  0
   -1.4324    2.5022    0.4025 H   0  0  0  0  0  0  0  0  0  0  0  0
    0.3086    3.7690   -0.2535 H   0  0  0  0  0  0  0  0  0  0  0  0
    0.4594    2.6583   -1.5972 H   0  0  0  0  0  0  0  0  0  0  0  0
    2.0974    2.8204    0.9576 H   0  0  0  0  0  0  0  0  0  0  0  0
    2.6290    2.7539   -0.7252 H   0  0  0  0  0  0  0  0  0  0  0  0
    3.9526    1.3291    2.0229 H   0  0  0  0  0  0  0  0  0  0  0  0
    6.3223    0.9420    2.2523 H   0  0  0  0  0  0  0  0  0  0  0  0
    5.8745   -2.1539    0.9733 H   0  0  0  0  0  0  0  0  0  0  0  0
    7.3170   -3.3598   -0.6233 H   0  0  0  0  0  0  0  0  0  0  0  0
    8.9113   -2.1113   -2.0566 H   0  0  0  0  0  0  0  0  0  0  0  0
    9.0615    0.3590   -1.8844 H   0  0  0  0  0  0  0  0  0  0  0  0
    7.6199    1.5859   -0.2977 H   0  0  0  0  0  0  0  0  0  0  0  0
    0.8916   -0.7134    0.9349 H   0  0  0  0  0  0  0  0  0  0  0  0
    1.7137    0.2882    2.1419 H   0  0  0  0  0  0  0  0  0  0  0  0
   -0.9107    0.4733    1.7921 H   0  0  0  0  0  0  0  0  0  0  0  0
    0.0558    1.8879    2.1630 H   0  0  0  0  0  0  0  0  0  0  0  0
   -6.5163   -2.3953   -1.2195 H   0  0  0  0  0  0  0  0  0  0  0  0
   -7.1488   -3.2837    0.9829 H   0  0  0  0  0  0  0  0  0  0  0  0
  1  2  1  0
  2  3  2  0
  3  4  1  0
  4  5  2  0
  5  6  1  0
  6  7  1  0
  7  8  1  0
  8  9  2  0
  9 10  1  0
 10 11  1  0
 11 12  2  0
 11 13  1  0
 13 14  1  0
 14 15  1  0
 15 16  1  0
 16 17  1  0
 17 18  1  0
 18 19  1  0
 19 20  2  0
 19 21  2  0
 19 22  1  0
 22 23  2  3
 23 24  1  0
 24 25  2  0
 25 26  1  0
 26 27  2  0
 27 28  1  0
 28 29  2  0
 18 30  1  0
 30 31  1  0
 14 32  2  0
 32 33  1  0
  5 34  1  0
 34 35  2  0
 35  2  1  0
 33  7  1  0
 33 10  2  0
 31 15  1  0
 29 24  1  0
  1 36  1  0
  1 37  1  0
  1 38  1  0
  3 39  1  0
  4 40  1  0
  6 41  1  0
  6 42  1  0
 13 43  1  0
 15 44  1  0
 16 45  1  0
 16 46  1  0
 17 47  1  0
 17 48  1  0
 22 49  1  0
 23 50  1  0
 25 51  1  0
 26 52  1  0
 27 53  1  0
 28 54  1  0
 29 55  1  0
 30 56  1  0
 30 57  1  0
 31 58  1  0
 31 59  1  0
 34 60  1  0
 35 61  1  0
M  END
$$$$
