
     RDKit          3D

 50 53  0  0  0  0  0  0  0  0999 V2000
   -4.5919   -4.1022   -0.6380 C   0  0  0  0  0  0  0  0  0  0  0  0
   -3.9269   -3.6147   -1.7959 O   0  0  0  0  0  0  0  0  0  0  0  0
   -2.9989   -2.6268   -1.6067 C   0  0  0  0  0  0  0  0  0  0  0  0
   -2.3527   -2.1959   -2.7670 C   0  0  0  0  0  0  0  0  0  0  0  0
   -1.3896   -1.1853   -2.7143 C   0  0  0  0  0  0  0  0  0  0  0  0
   -1.0483   -0.5877   -1.4935 C   0  0  0  0  0  0  0  0  0  0  0  0
   -0.0320    0.5451   -1.4735 C   0  0  0  0  0  0  0  0  0  0  0  0
   -0.7369    1.9038   -1.4741 C   0  0  0  0  0  0  0  0  0  0  0  0
   -0.4364    2.3615   -0.0728 C   0  0  0  0  0  0  0  0  0  0  0  0
   -1.0776    3.5632    0.5099 C   0  0  0  0  0  0  0  0  0  0  0  0
   -0.8686    3.8556    1.8645 C   0  0  0  0  0  0  0  0  0  0  0  0
   -1.4764    4.9681    2.4467 C   0  0  0  0  0  0  0  0  0  0  0  0
   -2.2957    5.7941    1.6780 C   0  0  0  0  0  0  0  0  0  0  0  0
   -2.5008    5.5127    0.3290 C   0  0  0  0  0  0  0  0  0  0  0  0
   -1.8945    4.3996   -0.2586 C   0  0  0  0  0  0  0  0  0  0  0  0
    0.4326    1.6390    0.5670 N   0  0  0  0  0  0  0  0  0  0  0  0
    0.7689    0.5953   -0.2487 N   0  0  0  0  0  0  0  0  0  0  0  0
    1.8084   -0.2692    0.0915 C   0  0  0  0  0  0  0  0  0  0  0  0
    2.1758   -1.3591   -0.7166 C   0  0  0  0  0  0  0  0  0  0  0  0
    3.2222   -2.2198   -0.3632 C   0  0  0  0  0  0  0  0  0  0  0  0
    3.9334   -1.9893    0.8139 C   0  0  0  0  0  0  0  0  0  0  0  0
    5.2683   -3.0654    1.2530 S   0  0  0  0  0  6  0  0  0  0  0  0
    6.5208   -2.4403    0.3166 N   0  0  0  0  0  0  0  0  0  0  0  0
    4.9934   -4.3790    0.7171 O   0  0  0  0  0  0  0  0  0  0  0  0
    5.6074   -2.8452    2.6370 O   0  0  0  0  0  0  0  0  0  0  0  0
    3.5924   -0.9276    1.6456 C   0  0  0  0  0  0  0  0  0  0  0  0
    2.5379   -0.0843    1.2812 C   0  0  0  0  0  0  0  0  0  0  0  0
   -1.7004   -1.0289   -0.3310 C   0  0  0  0  0  0  0  0  0  0  0  0
   -2.6655   -2.0402   -0.3864 C   0  0  0  0  0  0  0  0  0  0  0  0
   -5.2745   -4.8941   -0.9541 H   0  0  0  0  0  0  0  0  0  0  0  0
   -5.1919   -3.3149   -0.1703 H   0  0  0  0  0  0  0  0  0  0  0  0
   -3.8809   -4.5385    0.0706 H   0  0  0  0  0  0  0  0  0  0  0  0
   -2.6020   -2.6505   -3.7225 H   0  0  0  0  0  0  0  0  0  0  0  0
   -0.9100   -0.8695   -3.6397 H   0  0  0  0  0  0  0  0  0  0  0  0
    0.6215    0.4761   -2.3524 H   0  0  0  0  0  0  0  0  0  0  0  0
   -0.2610    2.5950   -2.1787 H   0  0  0  0  0  0  0  0  0  0  0  0
   -1.8134    1.8508   -1.6683 H   0  0  0  0  0  0  0  0  0  0  0  0
   -0.2370    3.2142    2.4766 H   0  0  0  0  0  0  0  0  0  0  0  0
   -1.3181    5.1831    3.5008 H   0  0  0  0  0  0  0  0  0  0  0  0
   -2.7738    6.6572    2.1331 H   0  0  0  0  0  0  0  0  0  0  0  0
   -3.1456    6.1583   -0.2659 H   0  0  0  0  0  0  0  0  0  0  0  0
   -2.0728    4.2087   -1.3129 H   0  0  0  0  0  0  0  0  0  0  0  0
    1.6407   -1.5738   -1.6380 H   0  0  0  0  0  0  0  0  0  0  0  0
    3.4611   -3.0660   -1.0039 H   0  0  0  0  0  0  0  0  0  0  0  0
    6.7904   -3.1354   -0.3801 H   0  0  0  0  0  0  0  0  0  0  0  0
    6.2906   -1.5408   -0.1036 H   0  0  0  0  0  0  0  0  0  0  0  0
    4.1289   -0.7429    2.5725 H   0  0  0  0  0  0  0  0  0  0  0  0
    2.2763    0.7353    1.9456 H   0  0  0  0  0  0  0  0  0  0  0  0
   -1.4570   -0.5874    0.6353 H   0  0  0  0  0  0  0  0  0  0  0  0
   -3.1397   -2.3421    0.5405 H   0  0  0  0  0  0  0  0  0  0  0  0
  1  2  1  0
  2  3  1  0
  3  4  2  0
  4  5  1  0
  5  6  2  0
  6  7  1  0
  7  8  1  0
  8  9  1  0
  9 10  1  0
 10 11  2  0
 11 12  1  0
 12 13  2  0
 13 14  1  0
 14 15  2  0
  9 16  2  0
 16 17  1  0
 17 18  1  0
 18 19  2  0
 19 20  1  0
 20 21  2  0
 21 22  1  0
 22 23  1  0
 22 24  2  0
 22 25  2  0
 21 26  1  0
 26 27  2  0
  6 28  1  0
 28 29  2  0
 29  3  1  0
 17  7  1  0
 27 18  1  0
 15 10  1  0
  1 30  1  0
  1 31  1  0
  1 32  1  0
  4 33  1  0
  5 34  1  0
  7 35  1  0
  8 36  1  0
  8 37  1  0
 11 38  1  0
 12 39  1  0
 13 40  1  0
 14 41  1  0
 15 42  1  0
 19 43  1  0
 20 44  1  0
 23 45  1  0
 23 46  1  0
 26 47  1  0
 27 48  1  0
 28 49  1  0
 29 50  1  0
M  END
$$$$
