
     RDKit          3D

 50 52  0  0  0  0  0  0  0  0999 V2000
    4.9188    2.2317   -4.1325 C   0  0  0  0  0  0  0  0  0  0  0  0
    3.9795    1.9120   -3.1115 O   0  0  0  0  0  0  0  0  0  0  0  0
    4.4882    1.4665   -1.9108 C   0  0  0  0  0  0  0  0  0  0  0  0
    5.8489    1.3153   -1.6267 C   0  0  0  0  0  0  0  0  0  0  0  0
    6.2534    0.8634   -0.3691 C   0  0  0  0  0  0  0  0  0  0  0  0
    5.3051    0.5625    0.6058 C   0  0  0  0  0  0  0  0  0  0  0  0
    3.9445    0.7114    0.3315 C   0  0  0  0  0  0  0  0  0  0  0  0
    3.5257    1.1611   -0.9219 C   0  0  0  0  0  0  0  0  0  0  0  0
    2.1685    1.3348   -1.2795 N   0  0  0  0  0  0  0  0  0  0  0  0
    1.0440    1.1799   -0.4888 C   0  0  0  0  0  0  0  0  0  0  0  0
    1.0343    0.8857    0.7029 O   0  0  0  0  0  0  0  0  0  0  0  0
   -0.2449    1.4731   -1.2684 C   0  0  0  0  0  0  0  0  0  0  0  0
   -1.4397    1.0516   -0.6174 O   0  0  0  0  0  0  0  0  0  0  0  0
   -1.7852   -0.2347   -0.8569 C   0  0  0  0  0  0  0  0  0  0  0  0
   -1.2039   -1.0400   -1.5629 O   0  0  0  0  0  0  0  0  0  0  0  0
   -3.0931   -0.4751   -0.2243 C   0  0  0  0  0  0  0  0  0  0  0  0
   -4.1985   -0.1704   -1.0413 C   0  0  0  0  0  0  0  0  0  0  0  0
   -5.4855   -0.2511   -0.5118 C   0  0  0  0  0  0  0  0  0  0  0  0
   -6.6452    0.0652   -1.3525 N   0  0  0  0  0  4  0  0  0  0  0  0
   -6.4371    0.3062   -2.5499 O   0  0  0  0  0  0  0  0  0  0  0  0
   -7.7619    0.0748   -0.8157 O   0  0  0  0  0  1  0  0  0  0  0  0
   -5.6697   -0.6171    0.8200 C   0  0  0  0  0  0  0  0  0  0  0  0
   -4.5543   -0.9272    1.6123 C   0  0  0  0  0  0  0  0  0  0  0  0
   -3.2325   -0.8990    1.1178 C   0  0  0  0  0  0  0  0  0  0  0  0
   -2.1797   -1.2602    1.9355 N   0  0  0  0  0  0  0  0  0  0  0  0
   -0.9927   -1.9738    1.4342 C   0  0  0  0  0  0  0  0  0  0  0  0
   -0.4257   -2.6829    2.6631 C   0  0  0  0  0  0  0  0  0  0  0  0
   -0.8664   -1.7906    3.8098 C   0  0  0  0  0  0  0  0  0  0  0  0
   -2.2769   -1.3942    3.3895 C   0  0  0  0  0  0  0  0  0  0  0  0
    5.4896    1.3459   -4.4344 H   0  0  0  0  0  0  0  0  0  0  0  0
    5.5779    3.0473   -3.8189 H   0  0  0  0  0  0  0  0  0  0  0  0
    4.3550    2.5744   -5.0057 H   0  0  0  0  0  0  0  0  0  0  0  0
    6.6200    1.5483   -2.3547 H   0  0  0  0  0  0  0  0  0  0  0  0
    7.3113    0.7495   -0.1481 H   0  0  0  0  0  0  0  0  0  0  0  0
    5.6206    0.2143    1.5854 H   0  0  0  0  0  0  0  0  0  0  0  0
    3.2350    0.4646    1.1158 H   0  0  0  0  0  0  0  0  0  0  0  0
    2.0452    1.6321   -2.2431 H   0  0  0  0  0  0  0  0  0  0  0  0
   -0.3105    2.5608   -1.3846 H   0  0  0  0  0  0  0  0  0  0  0  0
   -0.1796    1.0496   -2.2797 H   0  0  0  0  0  0  0  0  0  0  0  0
   -4.0328    0.1418   -2.0704 H   0  0  0  0  0  0  0  0  0  0  0  0
   -6.6629   -0.6762    1.2613 H   0  0  0  0  0  0  0  0  0  0  0  0
   -4.7502   -1.2235    2.6402 H   0  0  0  0  0  0  0  0  0  0  0  0
   -1.2441   -2.7069    0.6594 H   0  0  0  0  0  0  0  0  0  0  0  0
   -0.2537   -1.2676    1.0501 H   0  0  0  0  0  0  0  0  0  0  0  0
   -0.8731   -3.6792    2.7642 H   0  0  0  0  0  0  0  0  0  0  0  0
    0.6595   -2.7999    2.6092 H   0  0  0  0  0  0  0  0  0  0  0  0
   -0.8434   -2.2984    4.7783 H   0  0  0  0  0  0  0  0  0  0  0  0
   -0.2210   -0.9051    3.8642 H   0  0  0  0  0  0  0  0  0  0  0  0
   -2.5839   -0.4582    3.8694 H   0  0  0  0  0  0  0  0  0  0  0  0
   -2.9770   -2.1927    3.6616 H   0  0  0  0  0  0  0  0  0  0  0  0
  1  2  1  0
  2  3  1  0
  3  4  2  0
  4  5  1  0
  5  6  2  0
  6  7  1  0
  7  8  2  0
  8  9  1  0
  9 10  1  0
 10 11  2  0
 10 12  1  0
 12 13  1  0
 13 14  1  0
 14 15  2  0
 14 16  1  0
 16 17  2  0
 17 18  1  0
 18 19  1  0
 19 20  2  0
 19 21  1  0
 18 22  2  0
 22 23  1  0
 23 24  2  0
 24 25  1  0
 25 26  1  0
 26 27  1  0
 27 28  1  0
 28 29  1  0
  8  3  1  0
 24 16  1  0
 29 25  1  0
  1 30  1  0
  1 31  1  0
  1 32  1  0
  4 33  1  0
  5 34  1  0
  6 35  1  0
  7 36  1  0
  9 37  1  0
 12 38  1  0
 12 39  1  0
 17 40  1  0
 22 41  1  0
 23 42  1  0
 26 43  1  0
 26 44  1  0
 27 45  1  0
 27 46  1  0
 28 47  1  0
 28 48  1  0
 29 49  1  0
 29 50  1  0
M  CHG  2  19   1  21  -1
M  END
$$$$
