
     RDKit          3D

 63 67  0  0  0  0  0  0  0  0999 V2000
   -2.9322    6.2159    2.2522 C   0  0  0  0  0  0  0  0  0  0  0  0
   -3.4426    5.6937    1.0321 O   0  0  0  0  0  0  0  0  0  0  0  0
   -3.4238    4.3342    0.8863 C   0  0  0  0  0  0  0  0  0  0  0  0
   -3.9580    3.8689   -0.3171 C   0  0  0  0  0  0  0  0  0  0  0  0
   -3.9991    2.5003   -0.5983 C   0  0  0  0  0  0  0  0  0  0  0  0
   -3.5041    1.5728    0.3260 C   0  0  0  0  0  0  0  0  0  0  0  0
   -3.5243    0.1335    0.0340 C   0  0  0  0  0  0  0  0  0  0  0  0
   -5.0406   -0.6340   -0.1680 S   0  0  0  0  0  0  0  0  0  0  0  0
   -4.3311   -2.1762   -0.4328 C   0  0  0  0  0  0  0  0  0  0  0  0
   -5.0175   -3.3844   -0.6907 C   0  0  0  0  0  0  0  0  0  0  0  0
   -4.2820   -4.5543   -0.8911 C   0  0  0  0  0  0  0  0  0  0  0  0
   -4.8048   -5.7928   -1.1496 O   0  0  0  0  0  0  0  0  0  0  0  0
   -6.2219   -5.8934   -1.2160 C   0  0  0  0  0  0  0  0  0  0  0  0
   -2.8940   -4.5144   -0.8366 C   0  0  0  0  0  0  0  0  0  0  0  0
   -2.2186   -3.3168   -0.5797 C   0  0  0  0  0  0  0  0  0  0  0  0
   -2.9391   -2.1147   -0.3665 C   0  0  0  0  0  0  0  0  0  0  0  0
   -2.4793   -0.7707   -0.0874 C   0  0  0  0  0  0  0  0  0  0  0  0
   -1.0846   -0.3621    0.0531 C   0  0  0  0  0  0  0  0  0  0  0  0
   -0.3285   -0.8203    1.1357 C   0  0  0  0  0  0  0  0  0  0  0  0
    1.0061   -0.4311    1.2698 C   0  0  0  0  0  0  0  0  0  0  0  0
    1.6014    0.4120    0.3278 C   0  0  0  0  0  0  0  0  0  0  0  0
    2.9103    0.7134    0.5816 O   0  0  0  0  0  0  0  0  0  0  0  0
    3.5973    1.5102   -0.3860 C   0  0  0  0  0  0  0  0  0  0  0  0
    5.0611    1.7121    0.0562 C   0  0  0  0  0  0  0  0  0  0  0  0
    6.0226    0.6131   -0.1419 N   0  0  0  0  0  0  0  0  0  0  0  0
    5.6303   -0.6369    0.5355 C   0  0  0  0  0  0  0  0  0  0  0  0
    6.7166   -1.7117    0.3618 C   0  0  0  0  0  0  0  0  0  0  0  0
    6.9680   -1.9755   -1.0267 O   0  0  0  0  0  0  0  0  0  0  0  0
    7.3735   -0.7707   -1.6910 C   0  0  0  0  0  0  0  0  0  0  0  0
    6.3037    0.3274   -1.5599 C   0  0  0  0  0  0  0  0  0  0  0  0
    0.8476    0.8682   -0.7538 C   0  0  0  0  0  0  0  0  0  0  0  0
   -0.4901    0.4803   -0.8923 C   0  0  0  0  0  0  0  0  0  0  0  0
   -2.9686    2.0441    1.5314 C   0  0  0  0  0  0  0  0  0  0  0  0
   -2.9281    3.4158    1.8110 C   0  0  0  0  0  0  0  0  0  0  0  0
   -3.5152    5.8608    3.1086 H   0  0  0  0  0  0  0  0  0  0  0  0
   -1.8698    5.9774    2.3704 H   0  0  0  0  0  0  0  0  0  0  0  0
   -3.0261    7.3054    2.2144 H   0  0  0  0  0  0  0  0  0  0  0  0
   -4.3456    4.5786   -1.0439 H   0  0  0  0  0  0  0  0  0  0  0  0
   -4.4143    2.1679   -1.5466 H   0  0  0  0  0  0  0  0  0  0  0  0
   -6.1006   -3.3723   -0.7283 H   0  0  0  0  0  0  0  0  0  0  0  0
   -6.6230   -5.2842   -2.0327 H   0  0  0  0  0  0  0  0  0  0  0  0
   -6.4731   -6.9376   -1.4256 H   0  0  0  0  0  0  0  0  0  0  0  0
   -6.6820   -5.6260   -0.2590 H   0  0  0  0  0  0  0  0  0  0  0  0
   -2.3218   -5.4255   -0.9971 H   0  0  0  0  0  0  0  0  0  0  0  0
   -1.1315   -3.3150   -0.5488 H   0  0  0  0  0  0  0  0  0  0  0  0
   -0.7712   -1.4759    1.8819 H   0  0  0  0  0  0  0  0  0  0  0  0
    1.5876   -0.7887    2.1160 H   0  0  0  0  0  0  0  0  0  0  0  0
    3.1229    2.4985   -0.4311 H   0  0  0  0  0  0  0  0  0  0  0  0
    3.5523    1.0474   -1.3775 H   0  0  0  0  0  0  0  0  0  0  0  0
    5.4554    2.5927   -0.4667 H   0  0  0  0  0  0  0  0  0  0  0  0
    5.0705    1.9709    1.1229 H   0  0  0  0  0  0  0  0  0  0  0  0
    5.4774   -0.4569    1.6054 H   0  0  0  0  0  0  0  0  0  0  0  0
    4.6973   -1.0260    0.1112 H   0  0  0  0  0  0  0  0  0  0  0  0
    6.3864   -2.6491    0.8206 H   0  0  0  0  0  0  0  0  0  0  0  0
    7.6534   -1.4142    0.8483 H   0  0  0  0  0  0  0  0  0  0  0  0
    8.3357   -0.4394   -1.2818 H   0  0  0  0  0  0  0  0  0  0  0  0
    7.5279   -1.0124   -2.7475 H   0  0  0  0  0  0  0  0  0  0  0  0
    5.3945   -0.0085   -2.0722 H   0  0  0  0  0  0  0  0  0  0  0  0
    6.6644    1.2313   -2.0633 H   0  0  0  0  0  0  0  0  0  0  0  0
    1.2640    1.5281   -1.5071 H   0  0  0  0  0  0  0  0  0  0  0  0
   -1.0633    0.8433   -1.7426 H   0  0  0  0  0  0  0  0  0  0  0  0
   -2.5762    1.3445    2.2661 H   0  0  0  0  0  0  0  0  0  0  0  0
   -2.5018    3.7286    2.7582 H   0  0  0  0  0  0  0  0  0  0  0  0
  1  2  1  0
  2  3  1  0
  3  4  2  0
  4  5  1  0
  5  6  2  0
  6  7  1  0
  7  8  1  0
  8  9  1  0
  9 10  2  0
 10 11  1  0
 11 12  1  0
 12 13  1  0
 11 14  2  0
 14 15  1  0
 15 16  2  0
 16 17  1  0
 17 18  1  0
 18 19  2  0
 19 20  1  0
 20 21  2  0
 21 22  1  0
 22 23  1  0
 23 24  1  0
 24 25  1  0
 25 26  1  0
 26 27  1  0
 27 28  1  0
 28 29  1  0
 29 30  1  0
 21 31  1  0
 31 32  2  0
  6 33  1  0
 33 34  2  0
 34  3  1  0
 17  7  2  0
 32 18  1  0
 16  9  1  0
 30 25  1  0
  1 35  1  0
  1 36  1  0
  1 37  1  0
  4 38  1  0
  5 39  1  0
 10 40  1  0
 13 41  1  0
 13 42  1  0
 13 43  1  0
 14 44  1  0
 15 45  1  0
 19 46  1  0
 20 47  1  0
 23 48  1  0
 23 49  1  0
 24 50  1  0
 24 51  1  0
 26 52  1  0
 26 53  1  0
 27 54  1  0
 27 55  1  0
 29 56  1  0
 29 57  1  0
 30 58  1  0
 30 59  1  0
 31 60  1  0
 32 61  1  0
 33 62  1  0
 34 63  1  0
M  END
$$$$
