
     RDKit          3D

 49 51  0  0  0  0  0  0  0  0999 V2000
    9.2231   -1.8461    2.0488 N   0  0  0  0  0  0  0  0  0  0  0  0
    8.0981   -1.8955    1.7653 C   0  0  0  0  0  0  0  0  0  0  0  0
    6.7086   -1.9273    1.4166 C   0  0  0  0  0  0  0  0  0  0  0  0
    6.1881   -3.1594    1.1659 N   0  0  0  0  0  0  0  0  0  0  0  0
    4.8700   -3.1881    0.8342 C   0  0  0  0  0  0  0  0  0  0  0  0
    4.0748   -2.0462    0.7404 C   0  0  0  0  0  0  0  0  0  0  0  0
    2.6465   -2.0673    0.3741 C   0  0  0  0  0  0  0  0  0  0  0  0
    2.1019   -3.0473   -0.4701 C   0  0  0  0  0  0  0  0  0  0  0  0
    0.7380   -3.0528   -0.7879 C   0  0  0  0  0  0  0  0  0  0  0  0
   -0.1283   -2.0733   -0.2926 C   0  0  0  0  0  0  0  0  0  0  0  0
    0.4008   -1.0773    0.5364 C   0  0  0  0  0  0  0  0  0  0  0  0
    1.7656   -1.0882    0.8697 C   0  0  0  0  0  0  0  0  0  0  0  0
   -0.3960   -0.1316    1.1286 O   0  0  0  0  0  0  0  0  0  0  0  0
   -0.1079    1.1904    0.6478 C   0  0  0  0  0  0  0  0  0  0  0  0
   -1.3385    2.0679    0.8764 C   0  0  0  0  0  0  0  0  0  0  0  0
   -1.1883    3.2878    0.1521 O   0  0  0  0  0  0  0  0  0  0  0  0
   -2.3868    4.0751    0.1293 C   0  0  0  0  0  0  0  0  0  0  0  0
   -3.3611    3.5988   -0.9549 C   0  0  0  0  0  0  0  0  0  0  0  0
   -4.2206    2.5790   -0.4332 O   0  0  0  0  0  0  0  0  0  0  0  0
   -5.0472    1.9776   -1.4411 C   0  0  0  0  0  0  0  0  0  0  0  0
   -4.3867    0.7176   -2.0090 C   0  0  0  0  0  0  0  0  0  0  0  0
   -4.5506   -0.3606   -1.0800 O   0  0  0  0  0  0  0  0  0  0  0  0
   -3.6256   -1.4303   -1.2824 C   0  0  0  0  0  0  0  0  0  0  0  0
   -2.3193   -1.1566   -0.5390 C   0  0  0  0  0  0  0  0  0  0  0  0
   -1.4223   -2.2482   -0.7094 O   0  0  0  0  0  0  0  0  0  0  0  0
    4.6120   -0.8232    1.0023 N   0  0  0  0  0  0  0  0  0  0  0  0
    5.9341   -0.7824    1.3378 C   0  0  0  0  0  0  0  0  0  0  0  0
    6.4642    0.5224    1.6015 C   0  0  0  0  0  0  0  0  0  0  0  0
    6.9124    1.5712    1.8195 N   0  0  0  0  0  0  0  0  0  0  0  0
    4.4704   -4.1824    0.6582 H   0  0  0  0  0  0  0  0  0  0  0  0
    2.7247   -3.8233   -0.9099 H   0  0  0  0  0  0  0  0  0  0  0  0
    0.3455   -3.8317   -1.4392 H   0  0  0  0  0  0  0  0  0  0  0  0
    2.1428   -0.3269    1.5513 H   0  0  0  0  0  0  0  0  0  0  0  0
    0.7482    1.6104    1.1888 H   0  0  0  0  0  0  0  0  0  0  0  0
    0.1391    1.1810   -0.4227 H   0  0  0  0  0  0  0  0  0  0  0  0
   -1.4515    2.2834    1.9452 H   0  0  0  0  0  0  0  0  0  0  0  0
   -2.2343    1.5323    0.5546 H   0  0  0  0  0  0  0  0  0  0  0  0
   -2.8485    4.0936    1.1230 H   0  0  0  0  0  0  0  0  0  0  0  0
   -2.0652    5.0921   -0.1177 H   0  0  0  0  0  0  0  0  0  0  0  0
   -2.8095    3.2168   -1.8208 H   0  0  0  0  0  0  0  0  0  0  0  0
   -3.9932    4.4386   -1.2636 H   0  0  0  0  0  0  0  0  0  0  0  0
   -5.9935    1.7146   -0.9571 H   0  0  0  0  0  0  0  0  0  0  0  0
   -5.2589    2.6999   -2.2376 H   0  0  0  0  0  0  0  0  0  0  0  0
   -4.8822    0.4271   -2.9411 H   0  0  0  0  0  0  0  0  0  0  0  0
   -3.3264    0.9010   -2.2074 H   0  0  0  0  0  0  0  0  0  0  0  0
   -4.0809   -2.3435   -0.8830 H   0  0  0  0  0  0  0  0  0  0  0  0
   -3.4544   -1.6104   -2.3506 H   0  0  0  0  0  0  0  0  0  0  0  0
   -2.5528   -1.0155    0.5222 H   0  0  0  0  0  0  0  0  0  0  0  0
   -1.8784   -0.2435   -0.9485 H   0  0  0  0  0  0  0  0  0  0  0  0
  1  2  3  0
  2  3  1  0
  3  4  2  0
  4  5  1  0
  5  6  2  0
  6  7  1  0
  7  8  2  0
  8  9  1  0
  9 10  2  0
 10 11  1  0
 11 12  2  0
 11 13  1  0
 13 14  1  0
 14 15  1  0
 15 16  1  0
 16 17  1  0
 17 18  1  0
 18 19  1  0
 19 20  1  0
 20 21  1  0
 21 22  1  0
 22 23  1  0
 23 24  1  0
 24 25  1  0
  6 26  1  0
 26 27  2  0
 27 28  1  0
 28 29  3  0
 27  3  1  0
 12  7  1  0
 25 10  1  0
  5 30  1  0
  8 31  1  0
  9 32  1  0
 12 33  1  0
 14 34  1  0
 14 35  1  0
 15 36  1  0
 15 37  1  0
 17 38  1  0
 17 39  1  0
 18 40  1  0
 18 41  1  0
 20 42  1  0
 20 43  1  0
 21 44  1  0
 21 45  1  0
 23 46  1  0
 23 47  1  0
 24 48  1  0
 24 49  1  0
M  END
$$$$
