
     RDKit          3D

 44 46  0  0  0  0  0  0  0  0999 V2000
    3.2121    4.0107   -3.3827 C   0  0  0  0  0  0  0  0  0  0  0  0
    2.7854    3.3197   -2.1680 N   0  0  0  0  0  0  0  0  0  0  0  0
    3.3221    1.9439   -2.1344 C   0  0  0  0  0  0  0  0  0  0  0  0
    2.8598    1.1491   -0.8920 C   0  0  0  0  0  0  0  0  0  0  0  0
    1.3780    1.1139   -0.7847 N   0  0  0  0  0  0  0  0  0  0  0  0
    0.7048    0.0821   -0.0973 C   0  0  0  0  0  0  0  0  0  0  0  0
   -0.6345   -0.0888   -0.1522 C   0  0  0  0  0  0  0  0  0  0  0  0
   -1.3392   -1.1454    0.5551 C   0  0  0  0  0  0  0  0  0  0  0  0
   -2.6477   -1.0374    0.8460 C   0  0  0  0  0  0  0  0  0  0  0  0
   -3.3451   -1.9902    1.7116 C   0  0  0  0  0  0  0  0  0  0  0  0
   -4.6955   -2.1066    1.7545 C   0  0  0  0  0  0  0  0  0  0  0  0
   -5.3371   -3.0205    2.6406 C   0  0  0  0  0  0  0  0  0  0  0  0
   -5.8475   -3.7678    3.3674 N   0  0  0  0  0  0  0  0  0  0  0  0
   -5.5489   -1.3299    0.9158 C   0  0  0  0  0  0  0  0  0  0  0  0
   -6.2347   -0.6883    0.2335 N   0  0  0  0  0  0  0  0  0  0  0  0
   -2.3956   -2.7880    2.5960 C   0  0  0  0  0  0  0  0  0  0  0  0
   -1.2514   -3.3822    1.7802 C   0  0  0  0  0  0  0  0  0  0  0  0
   -0.4867   -2.3252    0.9696 C   0  0  0  0  0  0  0  0  0  0  0  0
    0.7414   -1.7791    1.6981 C   0  0  0  0  0  0  0  0  0  0  0  0
    1.5455   -0.8751    0.7503 C   0  0  0  0  0  0  0  0  0  0  0  0
    0.8093    2.4881   -0.8519 C   0  0  0  0  0  0  0  0  0  0  0  0
    1.3111    3.2510   -2.0976 C   0  0  0  0  0  0  0  0  0  0  0  0
    2.8677    3.5066   -4.2930 H   0  0  0  0  0  0  0  0  0  0  0  0
    2.8308    5.0378   -3.3928 H   0  0  0  0  0  0  0  0  0  0  0  0
    4.3048    4.0798   -3.4200 H   0  0  0  0  0  0  0  0  0  0  0  0
    3.0189    1.3954   -3.0367 H   0  0  0  0  0  0  0  0  0  0  0  0
    4.4182    1.9805   -2.1270 H   0  0  0  0  0  0  0  0  0  0  0  0
    3.2639    0.1354   -0.9881 H   0  0  0  0  0  0  0  0  0  0  0  0
    3.2801    1.5950    0.0182 H   0  0  0  0  0  0  0  0  0  0  0  0
   -1.2471    0.5888   -0.7380 H   0  0  0  0  0  0  0  0  0  0  0  0
   -3.2025   -0.1758    0.4764 H   0  0  0  0  0  0  0  0  0  0  0  0
   -1.9915   -2.1255    3.3730 H   0  0  0  0  0  0  0  0  0  0  0  0
   -2.9005   -3.6062    3.1193 H   0  0  0  0  0  0  0  0  0  0  0  0
   -0.5710   -3.9381    2.4360 H   0  0  0  0  0  0  0  0  0  0  0  0
   -1.6725   -4.1200    1.0829 H   0  0  0  0  0  0  0  0  0  0  0  0
   -0.1333   -2.8324    0.0592 H   0  0  0  0  0  0  0  0  0  0  0  0
    1.3850   -2.5963    2.0449 H   0  0  0  0  0  0  0  0  0  0  0  0
    0.4408   -1.2103    2.5881 H   0  0  0  0  0  0  0  0  0  0  0  0
    2.1241   -1.5165    0.0732 H   0  0  0  0  0  0  0  0  0  0  0  0
    2.2610   -0.3077    1.3574 H   0  0  0  0  0  0  0  0  0  0  0  0
   -0.2840    2.4751   -0.8902 H   0  0  0  0  0  0  0  0  0  0  0  0
    1.0918    3.0321    0.0587 H   0  0  0  0  0  0  0  0  0  0  0  0
    0.9080    2.7650   -2.9966 H   0  0  0  0  0  0  0  0  0  0  0  0
    0.9014    4.2677   -2.0628 H   0  0  0  0  0  0  0  0  0  0  0  0
  1  2  1  0
  2  3  1  0
  3  4  1  0
  4  5  1  0
  5  6  1  0
  6  7  2  0
  7  8  1  0
  8  9  2  0
  9 10  1  0
 10 11  2  3
 11 12  1  0
 12 13  3  0
 11 14  1  0
 14 15  3  0
 10 16  1  0
 16 17  1  0
 17 18  1  0
 18 19  1  0
 19 20  1  0
  5 21  1  0
 21 22  1  0
 22  2  1  0
 20  6  1  0
 18  8  1  0
  1 23  1  0
  1 24  1  0
  1 25  1  0
  3 26  1  0
  3 27  1  0
  4 28  1  0
  4 29  1  0
  7 30  1  0
  9 31  1  0
 16 32  1  0
 16 33  1  0
 17 34  1  0
 17 35  1  0
 18 36  1  0
 19 37  1  0
 19 38  1  0
 20 39  1  0
 20 40  1  0
 21 41  1  0
 21 42  1  0
 22 43  1  0
 22 44  1  0
M  END
$$$$
