
     RDKit          3D

 32 34  0  0  0  0  0  0  0  0999 V2000
    6.2631    0.9317   -0.0973 O   0  0  0  0  0  0  0  0  0  0  0  0
    4.9435    0.6364    0.0748 C   0  0  0  0  0  0  0  0  0  0  0  0
    4.4704   -0.6659   -0.0498 C   0  0  0  0  0  0  0  0  0  0  0  0
    3.1087   -0.9184    0.1362 C   0  0  0  0  0  0  0  0  0  0  0  0
    2.2196    0.1250    0.4349 C   0  0  0  0  0  0  0  0  0  0  0  0
    0.8508   -0.1107    0.6535 N   0  0  0  0  0  0  0  0  0  0  0  0
    0.3194   -0.5939   -0.3724 N   0  0  0  0  0  0  0  0  0  0  0  0
   -1.0472   -0.8585   -0.1267 C   0  0  0  0  0  0  0  0  0  0  0  0
   -1.4371   -2.1246    0.3489 C   0  0  0  0  0  0  0  0  0  0  0  0
   -0.4802   -3.0816    0.5762 O   0  0  0  0  0  0  0  0  0  0  0  0
   -2.7748   -2.4240    0.5883 C   0  0  0  0  0  0  0  0  0  0  0  0
   -3.7488   -1.4577    0.3417 C   0  0  0  0  0  0  0  0  0  0  0  0
   -3.4015   -0.1904   -0.1514 C   0  0  0  0  0  0  0  0  0  0  0  0
   -4.3947    0.7698   -0.4072 C   0  0  0  0  0  0  0  0  0  0  0  0
   -4.0634    2.0299   -0.9050 C   0  0  0  0  0  0  0  0  0  0  0  0
   -2.7343    2.3472   -1.1547 C   0  0  0  0  0  0  0  0  0  0  0  0
   -1.7358    1.4044   -0.9041 C   0  0  0  0  0  0  0  0  0  0  0  0
   -2.0404    0.1213   -0.3967 C   0  0  0  0  0  0  0  0  0  0  0  0
    2.7213    1.4242    0.5685 C   0  0  0  0  0  0  0  0  0  0  0  0
    4.0814    1.6822    0.3842 C   0  0  0  0  0  0  0  0  0  0  0  0
    6.7381    0.1125   -0.3135 H   0  0  0  0  0  0  0  0  0  0  0  0
    5.1351   -1.4903   -0.2857 H   0  0  0  0  0  0  0  0  0  0  0  0
    2.7271   -1.9331    0.0486 H   0  0  0  0  0  0  0  0  0  0  0  0
   -0.9036   -3.8724    0.9456 H   0  0  0  0  0  0  0  0  0  0  0  0
   -3.0780   -3.3978    0.9597 H   0  0  0  0  0  0  0  0  0  0  0  0
   -4.7916   -1.7047    0.5323 H   0  0  0  0  0  0  0  0  0  0  0  0
   -5.4422    0.5419   -0.2213 H   0  0  0  0  0  0  0  0  0  0  0  0
   -4.8438    2.7612   -1.0982 H   0  0  0  0  0  0  0  0  0  0  0  0
   -2.4695    3.3267   -1.5442 H   0  0  0  0  0  0  0  0  0  0  0  0
   -0.7019    1.6780   -1.1085 H   0  0  0  0  0  0  0  0  0  0  0  0
    2.0453    2.2382    0.8158 H   0  0  0  0  0  0  0  0  0  0  0  0
    4.4651    2.6934    0.4838 H   0  0  0  0  0  0  0  0  0  0  0  0
  1  2  1  0
  2  3  2  0
  3  4  1  0
  4  5  2  0
  5  6  1  0
  6  7  2  3
  7  8  1  0
  8  9  2  0
  9 10  1  0
  9 11  1  0
 11 12  2  0
 12 13  1  0
 13 14  2  0
 14 15  1  0
 15 16  2  0
 16 17  1  0
 17 18  2  0
  5 19  1  0
 19 20  2  0
 20  2  1  0
 18  8  1  0
 18 13  1  0
  1 21  1  0
  3 22  1  0
  4 23  1  0
 10 24  1  0
 11 25  1  0
 12 26  1  0
 14 27  1  0
 15 28  1  0
 16 29  1  0
 17 30  1  0
 19 31  1  0
 20 32  1  0
M  END
$$$$
