
     RDKit          3D

 49 52  0  0  0  0  0  0  0  0999 V2000
   -6.7688   -2.4082   -0.0345 C   0  0  0  0  0  0  0  0  0  0  0  0
   -6.1795   -1.0331   -0.1530 C   0  0  0  0  0  0  0  0  0  0  0  0
   -7.0041    0.0971   -0.1175 C   0  0  0  0  0  0  0  0  0  0  0  0
   -6.4551    1.3815   -0.1880 C   0  0  0  0  0  0  0  0  0  0  0  0
   -7.3459    2.5885   -0.1923 C   0  0  0  0  0  0  0  0  0  0  0  0
   -5.0658    1.5235   -0.3113 C   0  0  0  0  0  0  0  0  0  0  0  0
   -4.2232    0.4038   -0.3365 C   0  0  0  0  0  0  0  0  0  0  0  0
   -2.8365    0.6447   -0.4411 N   0  0  0  0  0  0  0  0  0  0  0  0
   -1.8277   -0.2927   -0.5588 C   0  0  0  0  0  0  0  0  0  0  0  0
   -1.9463   -1.5074   -0.6573 O   0  0  0  0  0  0  0  0  0  0  0  0
   -0.4540    0.2786   -0.5985 C   0  0  0  0  0  0  0  0  0  0  0  0
    0.4826   -0.2876   -1.4707 C   0  0  0  0  0  0  0  0  0  0  0  0
    1.7816    0.2230   -1.5271 C   0  0  0  0  0  0  0  0  0  0  0  0
    2.1636    1.2798   -0.6946 C   0  0  0  0  0  0  0  0  0  0  0  0
    3.4594    1.8047   -0.7374 N   0  0  0  0  0  0  0  0  0  0  0  0
    4.4182    1.1285   -0.2139 C   0  0  0  0  0  0  0  0  0  0  0  0
    4.4172   -0.0781    0.4390 N   0  0  0  0  0  0  0  0  0  0  0  0
    5.6028   -0.3429    1.2436 C   0  0  0  0  0  0  0  0  0  0  0  0
    5.8703   -1.8315    1.4049 C   0  0  0  0  0  0  0  0  0  0  0  0
    7.1965   -2.2254    0.2866 S   0  0  0  0  0  6  0  0  0  0  0  0
    8.4113   -2.3490    1.0667 O   0  0  0  0  0  0  0  0  0  0  0  0
    6.7604   -3.2553   -0.6304 O   0  0  0  0  0  0  0  0  0  0  0  0
    7.2492   -0.6676   -0.5606 C   0  0  0  0  0  0  0  0  0  0  0  0
    6.7739    0.3148    0.4959 C   0  0  0  0  0  0  0  0  0  0  0  0
    6.0493    1.8010   -0.2679 S   0  0  0  0  0  0  0  0  0  0  0  0
    1.2242    1.8413    0.1747 C   0  0  0  0  0  0  0  0  0  0  0  0
   -0.0799    1.3416    0.2328 C   0  0  0  0  0  0  0  0  0  0  0  0
   -4.7887   -0.8690   -0.2461 C   0  0  0  0  0  0  0  0  0  0  0  0
   -6.1756   -3.1368   -0.5972 H   0  0  0  0  0  0  0  0  0  0  0  0
   -7.7852   -2.4353   -0.4412 H   0  0  0  0  0  0  0  0  0  0  0  0
   -6.8006   -2.7120    1.0162 H   0  0  0  0  0  0  0  0  0  0  0  0
   -8.0824   -0.0260   -0.0345 H   0  0  0  0  0  0  0  0  0  0  0  0
   -8.2617    2.4014    0.3781 H   0  0  0  0  0  0  0  0  0  0  0  0
   -6.8448    3.4447    0.2714 H   0  0  0  0  0  0  0  0  0  0  0  0
   -7.6164    2.8500   -1.2198 H   0  0  0  0  0  0  0  0  0  0  0  0
   -4.6467    2.5239   -0.3866 H   0  0  0  0  0  0  0  0  0  0  0  0
   -2.5676    1.6179   -0.5042 H   0  0  0  0  0  0  0  0  0  0  0  0
    0.1994   -1.1192   -2.1133 H   0  0  0  0  0  0  0  0  0  0  0  0
    2.5000   -0.2048   -2.2219 H   0  0  0  0  0  0  0  0  0  0  0  0
    3.5150   -0.3629    0.8092 H   0  0  0  0  0  0  0  0  0  0  0  0
    5.4530    0.1197    2.2272 H   0  0  0  0  0  0  0  0  0  0  0  0
    5.0028   -2.4536    1.1696 H   0  0  0  0  0  0  0  0  0  0  0  0
    6.2227   -2.0610    2.4150 H   0  0  0  0  0  0  0  0  0  0  0  0
    6.5794   -0.7449   -1.4233 H   0  0  0  0  0  0  0  0  0  0  0  0
    8.2689   -0.4698   -0.8993 H   0  0  0  0  0  0  0  0  0  0  0  0
    7.5838    0.5768    1.1851 H   0  0  0  0  0  0  0  0  0  0  0  0
    1.5170    2.6727    0.8116 H   0  0  0  0  0  0  0  0  0  0  0  0
   -0.7800    1.7733    0.9430 H   0  0  0  0  0  0  0  0  0  0  0  0
   -4.1659   -1.7586   -0.2477 H   0  0  0  0  0  0  0  0  0  0  0  0
  1  2  1  0
  2  3  2  0
  3  4  1  0
  4  5  1  0
  4  6  2  0
  6  7  1  0
  7  8  1  0
  8  9  1  0
  9 10  2  0
  9 11  1  0
 11 12  2  0
 12 13  1  0
 13 14  2  0
 14 15  1  0
 15 16  2  3
 16 17  1  0
 17 18  1  0
 18 19  1  0
 19 20  1  0
 20 21  2  0
 20 22  2  0
 20 23  1  0
 23 24  1  0
 24 25  1  0
 14 26  1  0
 26 27  2  0
  7 28  2  0
 28  2  1  0
 27 11  1  0
 25 16  1  0
 24 18  1  0
  1 29  1  0
  1 30  1  0
  1 31  1  0
  3 32  1  0
  5 33  1  0
  5 34  1  0
  5 35  1  0
  6 36  1  0
  8 37  1  0
 12 38  1  0
 13 39  1  0
 17 40  1  0
 18 41  1  0
 19 42  1  0
 19 43  1  0
 23 44  1  0
 23 45  1  0
 24 46  1  0
 26 47  1  0
 27 48  1  0
 28 49  1  0
M  END
$$$$
