
     RDKit          3D

 34 35  0  0  0  0  0  0  0  0999 V2000
   -0.7670    1.1793   -2.4485 C   0  0  0  0  0  0  0  0  0  0  0  0
   -0.6825    0.0868   -1.4865 N   0  0  0  0  0  0  0  0  0  0  0  0
    0.4178   -0.7744   -1.4004 C   0  0  0  0  0  0  0  0  0  0  0  0
    0.4047   -1.7361   -0.6296 O   0  0  0  0  0  0  0  0  0  0  0  0
    1.6163   -0.4781   -2.3033 C   0  0  0  0  0  0  0  0  0  0  0  0
    3.1777   -1.1129   -1.6218 S   0  0  0  0  0  0  0  0  0  0  0  0
    3.2003   -0.2477   -0.0701 C   0  0  0  0  0  0  0  0  0  0  0  0
    2.5116    0.9057    0.0400 N   0  0  0  0  0  0  0  0  0  0  0  0
    2.5774    1.5238    1.2348 C   0  0  0  0  0  0  0  0  0  0  0  0
    3.2954    1.0427    2.3029 C   0  0  0  0  0  0  0  0  0  0  0  0
    3.9713   -0.1316    2.0788 C   0  0  0  0  0  0  0  0  0  0  0  0
    3.9492   -0.7876    0.9052 N   0  0  0  0  0  0  0  0  0  0  0  0
   -1.7363    0.0333   -0.4624 C   0  0  0  0  0  0  0  0  0  0  0  0
   -2.5513   -1.2699   -0.4453 C   0  0  0  0  0  0  0  0  0  0  0  0
   -3.5148   -1.1456    0.7304 C   0  0  0  0  0  0  0  0  0  0  0  0
   -2.6550   -0.1783    1.9653 S   0  0  0  0  0  6  0  0  0  0  0  0
   -3.4162    1.0330    2.2008 O   0  0  0  0  0  0  0  0  0  0  0  0
   -2.2354   -1.0412    3.0485 O   0  0  0  0  0  0  0  0  0  0  0  0
   -1.2410    0.2469    0.9691 C   0  0  0  0  0  0  0  0  0  0  0  0
   -0.4070    2.0937   -1.9689 H   0  0  0  0  0  0  0  0  0  0  0  0
   -1.8073    1.3098   -2.7618 H   0  0  0  0  0  0  0  0  0  0  0  0
   -0.1774    0.9752   -3.3444 H   0  0  0  0  0  0  0  0  0  0  0  0
    1.7441    0.5951   -2.4629 H   0  0  0  0  0  0  0  0  0  0  0  0
    1.4379   -0.9566   -3.2711 H   0  0  0  0  0  0  0  0  0  0  0  0
    2.0155    2.4501    1.3116 H   0  0  0  0  0  0  0  0  0  0  0  0
    3.3289    1.5533    3.2550 H   0  0  0  0  0  0  0  0  0  0  0  0
    4.5701   -0.5955    2.8574 H   0  0  0  0  0  0  0  0  0  0  0  0
   -2.4427    0.8454   -0.6886 H   0  0  0  0  0  0  0  0  0  0  0  0
   -3.0894   -1.4266   -1.3859 H   0  0  0  0  0  0  0  0  0  0  0  0
   -1.9144   -2.1461   -0.2903 H   0  0  0  0  0  0  0  0  0  0  0  0
   -4.4148   -0.5943    0.4427 H   0  0  0  0  0  0  0  0  0  0  0  0
   -3.7901   -2.1168    1.1467 H   0  0  0  0  0  0  0  0  0  0  0  0
   -0.9523    1.2831    1.1611 H   0  0  0  0  0  0  0  0  0  0  0  0
   -0.4235   -0.4180    1.2557 H   0  0  0  0  0  0  0  0  0  0  0  0
  1  2  1  0
  2  3  1  0
  3  4  2  0
  3  5  1  0
  5  6  1  0
  6  7  1  0
  7  8  2  0
  8  9  1  0
  9 10  2  0
 10 11  1  0
 11 12  2  0
  2 13  1  0
 13 14  1  0
 14 15  1  0
 15 16  1  0
 16 17  2  0
 16 18  2  0
 16 19  1  0
 12  7  1  0
 19 13  1  0
  1 20  1  0
  1 21  1  0
  1 22  1  0
  5 23  1  0
  5 24  1  0
  9 25  1  0
 10 26  1  0
 11 27  1  0
 13 28  1  0
 14 29  1  0
 14 30  1  0
 15 31  1  0
 15 32  1  0
 19 33  1  0
 19 34  1  0
M  END
$$$$
