
     RDKit          3D

 41 42  0  0  0  0  0  0  0  0999 V2000
   -0.0324    0.0870   -2.0603 O   0  0  0  0  0  0  0  0  0  0  0  0
   -0.4652    0.0304   -0.6857 C   0  0  0  0  0  0  0  0  0  0  0  0
    0.3481    1.0303    0.1584 C   0  0  0  0  0  0  0  0  0  0  0  0
    1.6732    0.5721    0.4625 O   0  0  0  0  0  0  0  0  0  0  0  0
    2.5197    0.4372   -0.6774 C   0  0  0  0  0  0  0  0  0  0  0  0
    3.9671    0.3954   -0.2419 C   0  0  0  0  0  0  0  0  0  0  0  0
    4.4320    1.1951    0.8136 C   0  0  0  0  0  0  0  0  0  0  0  0
    5.7794    1.1766    1.1819 C   0  0  0  0  0  0  0  0  0  0  0  0
    6.6740    0.3652    0.4888 C   0  0  0  0  0  0  0  0  0  0  0  0
    8.3346    0.3426    0.9395 Cl  0  0  0  0  0  0  0  0  0  0  0  0
    6.2337   -0.4251   -0.5703 C   0  0  0  0  0  0  0  0  0  0  0  0
    4.8855   -0.4062   -0.9375 C   0  0  0  0  0  0  0  0  0  0  0  0
   -1.9865    0.3172   -0.6534 C   0  0  0  0  0  0  0  0  0  0  0  0
   -2.6110    0.3494    0.6783 N   0  0  0  0  0  0  0  0  0  0  0  0
   -2.5540   -0.9354    1.3942 C   0  0  0  0  0  0  0  0  0  0  0  0
   -3.4838   -2.0081    0.8223 C   0  0  0  0  0  0  0  0  0  0  0  0
   -4.9214   -1.5052    0.7418 C   0  0  0  0  0  0  0  0  0  0  0  0
   -4.9919   -0.1603    0.0263 C   0  0  0  0  0  0  0  0  0  0  0  0
   -3.9982    0.8407    0.6222 C   0  0  0  0  0  0  0  0  0  0  0  0
   -0.2331    0.9776   -2.3974 H   0  0  0  0  0  0  0  0  0  0  0  0
   -0.2588   -0.9912   -0.3511 H   0  0  0  0  0  0  0  0  0  0  0  0
   -0.1307    1.1884    1.1291 H   0  0  0  0  0  0  0  0  0  0  0  0
    0.4189    2.0046   -0.3394 H   0  0  0  0  0  0  0  0  0  0  0  0
    2.3906    1.2840   -1.3616 H   0  0  0  0  0  0  0  0  0  0  0  0
    2.2670   -0.4965   -1.1901 H   0  0  0  0  0  0  0  0  0  0  0  0
    3.7384    1.8313    1.3603 H   0  0  0  0  0  0  0  0  0  0  0  0
    6.1200    1.7951    2.0074 H   0  0  0  0  0  0  0  0  0  0  0  0
    6.9316   -1.0559   -1.1138 H   0  0  0  0  0  0  0  0  0  0  0  0
    4.5545   -1.0249   -1.7692 H   0  0  0  0  0  0  0  0  0  0  0  0
   -2.4850   -0.3997   -1.3178 H   0  0  0  0  0  0  0  0  0  0  0  0
   -2.1351    1.2952   -1.1324 H   0  0  0  0  0  0  0  0  0  0  0  0
   -2.8305   -0.7530    2.4414 H   0  0  0  0  0  0  0  0  0  0  0  0
   -1.5287   -1.3173    1.4387 H   0  0  0  0  0  0  0  0  0  0  0  0
   -3.1422   -2.3139   -0.1735 H   0  0  0  0  0  0  0  0  0  0  0  0
   -3.4454   -2.9019    1.4556 H   0  0  0  0  0  0  0  0  0  0  0  0
   -5.3246   -1.3970    1.7564 H   0  0  0  0  0  0  0  0  0  0  0  0
   -5.5489   -2.2398    0.2252 H   0  0  0  0  0  0  0  0  0  0  0  0
   -4.7916   -0.3010   -1.0424 H   0  0  0  0  0  0  0  0  0  0  0  0
   -6.0085    0.2420    0.1041 H   0  0  0  0  0  0  0  0  0  0  0  0
   -4.3158    1.0904    1.6432 H   0  0  0  0  0  0  0  0  0  0  0  0
   -4.0452    1.7850    0.0659 H   0  0  0  0  0  0  0  0  0  0  0  0
  1  2  1  0
  2  3  1  0
  3  4  1  0
  4  5  1  0
  5  6  1  0
  6  7  2  0
  7  8  1  0
  8  9  2  0
  9 10  1  0
  9 11  1  0
 11 12  2  0
  2 13  1  0
 13 14  1  0
 14 15  1  0
 15 16  1  0
 16 17  1  0
 17 18  1  0
 18 19  1  0
 12  6  1  0
 19 14  1  0
  1 20  1  0
  2 21  1  0
  3 22  1  0
  3 23  1  0
  5 24  1  0
  5 25  1  0
  7 26  1  0
  8 27  1  0
 11 28  1  0
 12 29  1  0
 13 30  1  0
 13 31  1  0
 15 32  1  0
 15 33  1  0
 16 34  1  0
 16 35  1  0
 17 36  1  0
 17 37  1  0
 18 38  1  0
 18 39  1  0
 19 40  1  0
 19 41  1  0
M  END
$$$$
