
     RDKit          3D

 54 59  0  0  0  0  0  0  0  0999 V2000
    5.1082   -2.1726   -1.0781 C   0  0  0  0  0  0  0  0  0  0  0  0
    5.2954   -0.7587   -0.5995 C   0  0  0  0  0  0  0  0  0  0  0  0
    6.1611    0.1000   -1.2943 C   0  0  0  0  0  0  0  0  0  0  0  0
    6.3442    1.4141   -0.8702 C   0  0  0  0  0  0  0  0  0  0  0  0
    5.6638    1.8800    0.2501 C   0  0  0  0  0  0  0  0  0  0  0  0
    4.7992    1.0343    0.9509 C   0  0  0  0  0  0  0  0  0  0  0  0
    4.6074   -0.2862    0.5347 C   0  0  0  0  0  0  0  0  0  0  0  0
    3.7902   -1.1996    1.1453 O   0  0  0  0  0  0  0  0  0  0  0  0
    3.0027   -0.7934    2.2723 C   0  0  0  0  0  0  0  0  0  0  0  0
    1.7568   -0.0533    1.9010 C   0  0  0  0  0  0  0  0  0  0  0  0
    0.7360   -0.6423    1.1863 N   0  0  0  0  0  0  0  0  0  0  0  0
   -0.1455    0.3241    1.0408 C   0  0  0  0  0  0  0  0  0  0  0  0
   -1.4254    0.4291    0.4015 C   0  0  0  0  0  0  0  0  0  0  0  0
   -2.0587    1.6333    0.5520 C   0  0  0  0  0  0  0  0  0  0  0  0
   -1.5364    2.7344    1.2294 N   0  0  0  0  0  0  0  0  0  0  0  0
   -0.3655    2.6174    1.7759 C   0  0  0  0  0  0  0  0  0  0  0  0
    0.3236    1.4299    1.6876 N   0  0  0  0  0  0  0  0  0  0  0  0
    1.5271    1.2223    2.2561 N   0  0  0  0  0  0  0  0  0  0  0  0
   -3.4269    1.8196   -0.0084 C   0  0  0  0  0  0  0  0  0  0  0  0
   -4.2513    2.8749    0.4161 C   0  0  0  0  0  0  0  0  0  0  0  0
   -5.5285    3.0539   -0.1208 C   0  0  0  0  0  0  0  0  0  0  0  0
   -5.9990    2.1836   -1.0983 C   0  0  0  0  0  0  0  0  0  0  0  0
   -5.1942    1.1346   -1.5364 C   0  0  0  0  0  0  0  0  0  0  0  0
   -3.9168    0.9442   -0.9874 C   0  0  0  0  0  0  0  0  0  0  0  0
   -3.0320   -0.1617   -1.4867 C   0  0  0  0  0  0  0  0  0  0  0  0
   -2.0963   -0.7238   -0.3789 C   0  0  0  0  0  0  0  0  0  0  0  0
   -2.8568   -1.6587    0.5881 C   0  0  0  0  0  0  0  0  0  0  0  0
   -3.0285   -2.9827   -0.1585 C   0  0  0  0  0  0  0  0  0  0  0  0
   -1.9720   -2.9970   -1.2613 C   0  0  0  0  0  0  0  0  0  0  0  0
   -1.1344   -1.7372   -1.0479 C   0  0  0  0  0  0  0  0  0  0  0  0
    4.0602   -2.3476   -1.3421 H   0  0  0  0  0  0  0  0  0  0  0  0
    5.7132   -2.3796   -1.9672 H   0  0  0  0  0  0  0  0  0  0  0  0
    5.4113   -2.8799   -0.2993 H   0  0  0  0  0  0  0  0  0  0  0  0
    6.6969   -0.2525   -2.1726 H   0  0  0  0  0  0  0  0  0  0  0  0
    7.0154    2.0732   -1.4142 H   0  0  0  0  0  0  0  0  0  0  0  0
    5.8033    2.9057    0.5820 H   0  0  0  0  0  0  0  0  0  0  0  0
    4.2917    1.4483    1.8154 H   0  0  0  0  0  0  0  0  0  0  0  0
    3.6089   -0.2537    3.0091 H   0  0  0  0  0  0  0  0  0  0  0  0
    2.6952   -1.7192    2.7737 H   0  0  0  0  0  0  0  0  0  0  0  0
    0.0952    3.4552    2.3215 H   0  0  0  0  0  0  0  0  0  0  0  0
   -3.9022    3.5724    1.1747 H   0  0  0  0  0  0  0  0  0  0  0  0
   -6.1495    3.8770    0.2226 H   0  0  0  0  0  0  0  0  0  0  0  0
   -6.9893    2.3254   -1.5230 H   0  0  0  0  0  0  0  0  0  0  0  0
   -5.5665    0.4662   -2.3093 H   0  0  0  0  0  0  0  0  0  0  0  0
   -3.6559   -0.9548   -1.9150 H   0  0  0  0  0  0  0  0  0  0  0  0
   -2.4315    0.2469   -2.3113 H   0  0  0  0  0  0  0  0  0  0  0  0
   -3.8231   -1.2563    0.9103 H   0  0  0  0  0  0  0  0  0  0  0  0
   -2.2663   -1.8404    1.4959 H   0  0  0  0  0  0  0  0  0  0  0  0
   -2.9099   -3.8318    0.5227 H   0  0  0  0  0  0  0  0  0  0  0  0
   -4.0306   -3.0551   -0.5960 H   0  0  0  0  0  0  0  0  0  0  0  0
   -1.3545   -3.9001   -1.2203 H   0  0  0  0  0  0  0  0  0  0  0  0
   -2.4530   -2.9789   -2.2458 H   0  0  0  0  0  0  0  0  0  0  0  0
   -0.2991   -2.0146   -0.4010 H   0  0  0  0  0  0  0  0  0  0  0  0
   -0.7074   -1.3686   -1.9867 H   0  0  0  0  0  0  0  0  0  0  0  0
  1  2  1  0
  2  3  2  0
  3  4  1  0
  4  5  2  0
  5  6  1  0
  6  7  2  0
  7  8  1  0
  8  9  1  0
  9 10  1  0
 10 11  1  0
 11 12  2  0
 12 13  1  0
 13 14  2  0
 14 15  1  0
 15 16  2  0
 16 17  1  0
 17 18  1  0
 14 19  1  0
 19 20  2  0
 20 21  1  0
 21 22  2  0
 22 23  1  0
 23 24  2  0
 24 25  1  0
 25 26  1  0
 26 27  1  0
 27 28  1  0
 28 29  1  0
 29 30  1  0
  7  2  1  0
 18 10  2  0
 24 19  1  0
 30 26  1  0
 17 12  1  0
 26 13  1  0
  1 31  1  0
  1 32  1  0
  1 33  1  0
  3 34  1  0
  4 35  1  0
  5 36  1  0
  6 37  1  0
  9 38  1  0
  9 39  1  0
 16 40  1  0
 20 41  1  0
 21 42  1  0
 22 43  1  0
 23 44  1  0
 25 45  1  0
 25 46  1  0
 27 47  1  0
 27 48  1  0
 28 49  1  0
 28 50  1  0
 29 51  1  0
 29 52  1  0
 30 53  1  0
 30 54  1  0
M  END
$$$$
