
     RDKit          3D

 66 72  0  0  0  0  0  0  0  0999 V2000
    1.6593    0.9617    1.7397 O   0  0  0  0  0  0  0  0  0  0  0  0
    1.5926    0.9762    0.5175 C   0  0  0  0  0  0  0  0  0  0  0  0
    2.6763    0.8552   -0.3716 N   0  0  0  0  0  0  0  0  0  0  0  0
    4.0273    0.5845    0.0644 C   0  0  0  0  0  0  0  0  0  0  0  0
    4.3625   -0.8894   -0.0074 C   0  0  0  0  0  0  0  0  0  0  0  0
    5.3261   -1.3649   -0.9097 C   0  0  0  0  0  0  0  0  0  0  0  0
    5.6126   -2.7298   -0.9886 C   0  0  0  0  0  0  0  0  0  0  0  0
    4.9421   -3.6331   -0.1651 C   0  0  0  0  0  0  0  0  0  0  0  0
    3.9905   -3.1731    0.7432 C   0  0  0  0  0  0  0  0  0  0  0  0
    3.7057   -1.8089    0.8261 C   0  0  0  0  0  0  0  0  0  0  0  0
    2.2538    0.9207   -1.7085 C   0  0  0  0  0  0  0  0  0  0  0  0
    3.0134    0.8459   -2.8612 C   0  0  0  0  0  0  0  0  0  0  0  0
    2.3550    0.9371   -4.0914 C   0  0  0  0  0  0  0  0  0  0  0  0
    0.9616    1.0980   -4.1506 C   0  0  0  0  0  0  0  0  0  0  0  0
    0.2041    1.1690   -2.9809 C   0  0  0  0  0  0  0  0  0  0  0  0
    0.8639    1.0745   -1.7614 C   0  0  0  0  0  0  0  0  0  0  0  0
    0.3198    1.0829   -0.3617 C   0  0  0  0  0  0  0  0  0  0  0  0
   -0.5209    2.2709   -0.0110 N   0  0  0  0  0  0  0  0  0  0  0  0
   -1.8480    1.7994    0.5306 C   0  0  2  0  0  0  0  0  0  0  0  0
   -2.0267    2.1842    2.0093 C   0  0  0  0  0  0  0  0  0  0  0  0
   -2.3700    3.6457    2.1849 C   0  0  0  0  0  0  0  0  0  0  0  0
   -3.7037    4.0785    2.1168 C   0  0  0  0  0  0  0  0  0  0  0  0
   -4.0142    5.4327    2.2455 C   0  0  0  0  0  0  0  0  0  0  0  0
   -2.9977    6.3663    2.4407 C   0  0  0  0  0  0  0  0  0  0  0  0
   -1.6687    5.9458    2.5112 C   0  0  0  0  0  0  0  0  0  0  0  0
   -1.3556    4.5922    2.3815 C   0  0  0  0  0  0  0  0  0  0  0  0
   -1.8044    0.3357    0.3097 C   0  0  0  0  0  0  0  0  0  0  0  0
   -0.5820   -0.0698   -0.2090 C   0  0  0  0  0  0  0  0  0  0  0  0
   -0.6008   -1.4297   -0.3874 C   0  0  0  0  0  0  0  0  0  0  0  0
    0.3685   -2.2465   -0.7946 O   0  0  0  0  0  0  0  0  0  0  0  0
   -1.8779   -1.8888    0.0076 N   0  0  0  0  0  0  0  0  0  0  0  0
   -2.3340   -3.2534   -0.0056 C   0  0  0  0  0  0  0  0  0  0  0  0
   -3.3632   -3.6754    0.8495 C   0  0  0  0  0  0  0  0  0  0  0  0
   -3.7970   -5.0055    0.8445 C   0  0  0  0  0  0  0  0  0  0  0  0
   -3.2123   -5.9300   -0.0153 C   0  0  0  0  0  0  0  0  0  0  0  0
   -2.1942   -5.5251   -0.8733 C   0  0  0  0  0  0  0  0  0  0  0  0
   -1.7560   -4.1967   -0.8683 C   0  0  0  0  0  0  0  0  0  0  0  0
   -2.6185   -0.7601    0.4284 C   0  0  0  0  0  0  0  0  0  0  0  0
   -3.8929   -0.8282    0.8075 O   0  0  0  0  0  0  0  0  0  0  0  0
    4.1481    0.9179    1.1026 H   0  0  0  0  0  0  0  0  0  0  0  0
    4.7232    1.1815   -0.5360 H   0  0  0  0  0  0  0  0  0  0  0  0
    5.8642   -0.6770   -1.5585 H   0  0  0  0  0  0  0  0  0  0  0  0
    6.3596   -3.0886   -1.6930 H   0  0  0  0  0  0  0  0  0  0  0  0
    5.1650   -4.6956   -0.2239 H   0  0  0  0  0  0  0  0  0  0  0  0
    3.4679   -3.8755    1.3889 H   0  0  0  0  0  0  0  0  0  0  0  0
    2.9655   -1.4686    1.5494 H   0  0  0  0  0  0  0  0  0  0  0  0
    4.0889    0.7236   -2.8360 H   0  0  0  0  0  0  0  0  0  0  0  0
    2.9288    0.8799   -5.0137 H   0  0  0  0  0  0  0  0  0  0  0  0
    0.4654    1.1590   -5.1174 H   0  0  0  0  0  0  0  0  0  0  0  0
   -0.8761    1.2748   -3.0316 H   0  0  0  0  0  0  0  0  0  0  0  0
   -0.7104    2.7825   -0.8723 H   0  0  0  0  0  0  0  0  0  0  0  0
   -2.6495    2.2316   -0.0834 H   0  0  0  0  0  0  0  0  0  0  0  0
   -2.8352    1.5892    2.4584 H   0  0  0  0  0  0  0  0  0  0  0  0
   -1.1312    1.9334    2.5984 H   0  0  0  0  0  0  0  0  0  0  0  0
   -4.5106    3.3654    1.9631 H   0  0  0  0  0  0  0  0  0  0  0  0
   -5.0501    5.7624    2.1874 H   0  0  0  0  0  0  0  0  0  0  0  0
   -3.2432    7.4212    2.5350 H   0  0  0  0  0  0  0  0  0  0  0  0
   -0.8732    6.6708    2.6601 H   0  0  0  0  0  0  0  0  0  0  0  0
   -0.3136    4.2755    2.4257 H   0  0  0  0  0  0  0  0  0  0  0  0
    1.1804   -1.7295   -0.9443 H   0  0  0  0  0  0  0  0  0  0  0  0
   -3.8259   -3.0005    1.5623 H   0  0  0  0  0  0  0  0  0  0  0  0
   -4.5879   -5.3182    1.5214 H   0  0  0  0  0  0  0  0  0  0  0  0
   -3.5491   -6.9628   -0.0188 H   0  0  0  0  0  0  0  0  0  0  0  0
   -1.7375   -6.2405   -1.5525 H   0  0  0  0  0  0  0  0  0  0  0  0
   -0.9812   -3.9228   -1.5779 H   0  0  0  0  0  0  0  0  0  0  0  0
   -4.1786    0.0623    1.0704 H   0  0  0  0  0  0  0  0  0  0  0  0
  1  2  2  0
  2  3  1  0
  3  4  1  0
  4  5  1  0
  5  6  2  0
  6  7  1  0
  7  8  2  0
  8  9  1  0
  9 10  2  0
  3 11  1  0
 11 12  2  0
 12 13  1  0
 13 14  2  0
 14 15  1  0
 15 16  2  0
 16 17  1  0
 17 18  1  0
 18 19  1  0
 19 20  1  0
 20 21  1  0
 21 22  2  0
 22 23  1  0
 23 24  2  0
 24 25  1  0
 25 26  2  0
 19 27  1  0
 27 28  1  0
 28 29  2  0
 29 30  1  0
 29 31  1  0
 31 32  1  0
 32 33  2  0
 33 34  1  0
 34 35  2  0
 35 36  1  0
 36 37  2  0
 31 38  1  0
 38 39  1  0
 17  2  1  0
 26 21  1  0
 38 27  2  0
 10  5  1  0
 16 11  1  0
 28 17  1  0
 37 32  1  0
  4 40  1  0
  4 41  1  0
  6 42  1  0
  7 43  1  0
  8 44  1  0
  9 45  1  0
 10 46  1  0
 12 47  1  0
 13 48  1  0
 14 49  1  0
 15 50  1  0
 18 51  1  0
 19 52  1  6
 20 53  1  0
 20 54  1  0
 22 55  1  0
 23 56  1  0
 24 57  1  0
 25 58  1  0
 26 59  1  0
 30 60  1  0
 33 61  1  0
 34 62  1  0
 35 63  1  0
 36 64  1  0
 37 65  1  0
 39 66  1  0
M  END
$$$$
