
     RDKit          3D

 41 42  0  0  0  0  0  0  0  0999 V2000
   -5.4176   -0.1558   -3.7598 C   0  0  0  0  0  0  0  0  0  0  0  0
   -5.6085    0.9834   -2.3625 S   0  0  0  0  0  0  0  0  0  0  0  0
   -3.9194    1.0780   -1.7963 C   0  0  0  0  0  0  0  0  0  0  0  0
   -3.3380    2.3358   -1.6177 C   0  0  0  0  0  0  0  0  0  0  0  0
   -2.0211    2.4516   -1.1625 C   0  0  0  0  0  0  0  0  0  0  0  0
   -1.2650    1.3097   -0.8639 C   0  0  0  0  0  0  0  0  0  0  0  0
    0.1613    1.4321   -0.3702 C   0  0  0  0  0  0  0  0  0  0  0  0
    0.3699    1.5431    1.0910 N   0  0  0  0  0  0  0  0  0  0  0  0
   -0.2162    2.7652    1.6414 C   0  0  0  0  0  0  0  0  0  0  0  0
   -0.1170    0.3636    1.8478 C   0  0  0  0  0  0  0  0  0  0  0  0
    0.7106   -0.8893    1.5284 C   0  0  0  0  0  0  0  0  0  0  0  0
    0.1855   -1.9946    1.4414 O   0  0  0  0  0  0  0  0  0  0  0  0
    2.0595   -0.5996    1.4082 N   0  0  0  0  0  0  0  0  0  0  0  0
    3.1236   -1.4823    1.1566 C   0  0  0  0  0  0  0  0  0  0  0  0
    4.3962   -0.9168    0.9990 C   0  0  0  0  0  0  0  0  0  0  0  0
    5.5097   -1.7221    0.7468 C   0  0  0  0  0  0  0  0  0  0  0  0
    5.3601   -3.1032    0.6513 C   0  0  0  0  0  0  0  0  0  0  0  0
    4.0966   -3.6684    0.8104 C   0  0  0  0  0  0  0  0  0  0  0  0
    3.8951   -5.5456    0.6832 Br  0  0  0  0  0  0  0  0  0  0  0  0
    2.9799   -2.8677    1.0629 C   0  0  0  0  0  0  0  0  0  0  0  0
   -1.8556    0.0501   -1.0411 C   0  0  0  0  0  0  0  0  0  0  0  0
   -3.1736   -0.0636   -1.4947 C   0  0  0  0  0  0  0  0  0  0  0  0
   -5.1619   -1.1604   -3.4136 H   0  0  0  0  0  0  0  0  0  0  0  0
   -6.3645   -0.2125   -4.3036 H   0  0  0  0  0  0  0  0  0  0  0  0
   -4.6453    0.2027   -4.4461 H   0  0  0  0  0  0  0  0  0  0  0  0
   -3.9048    3.2384   -1.8352 H   0  0  0  0  0  0  0  0  0  0  0  0
   -1.5910    3.4433   -1.0414 H   0  0  0  0  0  0  0  0  0  0  0  0
    0.6249    2.3027   -0.8547 H   0  0  0  0  0  0  0  0  0  0  0  0
    0.7391    0.5851   -0.7622 H   0  0  0  0  0  0  0  0  0  0  0  0
   -1.3113    2.7524    1.6318 H   0  0  0  0  0  0  0  0  0  0  0  0
    0.1305    3.6467    1.0909 H   0  0  0  0  0  0  0  0  0  0  0  0
    0.1074    2.9036    2.6793 H   0  0  0  0  0  0  0  0  0  0  0  0
   -1.1782    0.1615    1.6718 H   0  0  0  0  0  0  0  0  0  0  0  0
    0.0095    0.5338    2.9249 H   0  0  0  0  0  0  0  0  0  0  0  0
    2.2652    0.3962    1.4335 H   0  0  0  0  0  0  0  0  0  0  0  0
    4.5377    0.1590    1.0699 H   0  0  0  0  0  0  0  0  0  0  0  0
    6.4915   -1.2716    0.6257 H   0  0  0  0  0  0  0  0  0  0  0  0
    6.2275   -3.7276    0.4553 H   0  0  0  0  0  0  0  0  0  0  0  0
    2.0128   -3.3438    1.1857 H   0  0  0  0  0  0  0  0  0  0  0  0
   -1.2973   -0.8581   -0.8179 H   0  0  0  0  0  0  0  0  0  0  0  0
   -3.6078   -1.0550   -1.5933 H   0  0  0  0  0  0  0  0  0  0  0  0
  1  2  1  0
  2  3  1  0
  3  4  2  0
  4  5  1  0
  5  6  2  0
  6  7  1  0
  7  8  1  0
  8  9  1  0
  8 10  1  0
 10 11  1  0
 11 12  2  0
 11 13  1  0
 13 14  1  0
 14 15  2  0
 15 16  1  0
 16 17  2  0
 17 18  1  0
 18 19  1  0
 18 20  2  0
  6 21  1  0
 21 22  2  0
 22  3  1  0
 20 14  1  0
  1 23  1  0
  1 24  1  0
  1 25  1  0
  4 26  1  0
  5 27  1  0
  7 28  1  0
  7 29  1  0
  9 30  1  0
  9 31  1  0
  9 32  1  0
 10 33  1  0
 10 34  1  0
 13 35  1  0
 15 36  1  0
 16 37  1  0
 17 38  1  0
 20 39  1  0
 21 40  1  0
 22 41  1  0
M  END
$$$$
