
     RDKit          3D

 50 53  0  0  0  0  0  0  0  0999 V2000
   -1.9304   -0.8966    1.8160 O   0  0  0  0  0  0  0  0  0  0  0  0
   -2.2435   -0.5324    0.6808 C   0  0  0  0  0  0  0  0  0  0  0  0
   -3.6151   -0.8890    0.1010 C   0  0  0  0  0  0  0  0  0  0  0  0
   -4.6064    0.2531    0.3674 C   0  0  0  0  0  0  0  0  0  0  0  0
   -6.0004   -0.0822   -0.1575 C   0  0  0  0  0  0  0  0  0  0  0  0
   -6.5185   -1.3968    0.4181 C   0  0  0  0  0  0  0  0  0  0  0  0
   -5.5347   -2.5397    0.1878 C   0  0  0  0  0  0  0  0  0  0  0  0
   -4.1435   -2.1963    0.7146 C   0  0  0  0  0  0  0  0  0  0  0  0
   -1.3889    0.2496   -0.0926 N   0  0  0  0  0  0  0  0  0  0  0  0
   -1.6464    0.6400   -1.4810 C   0  0  0  0  0  0  0  0  0  0  0  0
   -0.7588    1.7948   -1.9282 C   0  0  0  0  0  0  0  0  0  0  0  0
    0.7285    1.4691   -1.7859 C   0  0  0  0  0  0  0  0  0  0  0  0
    1.0288    0.5335   -0.6017 C   0  0  0  0  0  0  0  0  0  0  0  0
    2.3705    0.8109   -0.0237 C   0  0  0  0  0  0  0  0  0  0  0  0
    3.4875    0.1338   -0.1536 N   0  0  0  0  0  0  0  0  0  0  0  0
    4.3805    0.8792    0.5887 C   0  0  0  0  0  0  0  0  0  0  0  0
    5.7805    0.4940    0.7403 C   0  0  0  0  0  0  0  0  0  0  0  0
    6.6690    1.2742    1.5002 C   0  0  0  0  0  0  0  0  0  0  0  0
    8.0074    0.8955    1.6385 C   0  0  0  0  0  0  0  0  0  0  0  0
    8.4602   -0.2620    1.0180 C   0  0  0  0  0  0  0  0  0  0  0  0
    9.7426   -0.6241    1.1511 F   0  0  0  0  0  0  0  0  0  0  0  0
    7.6012   -1.0501    0.2621 C   0  0  0  0  0  0  0  0  0  0  0  0
    6.2627   -0.6727    0.1232 C   0  0  0  0  0  0  0  0  0  0  0  0
    3.8376    1.9768    1.1428 N   0  0  0  0  0  0  0  0  0  0  0  0
    2.5077    1.9347    0.7359 O   0  0  0  0  0  0  0  0  0  0  0  0
   -0.0716    0.5970    0.4617 C   0  0  0  0  0  0  0  0  0  0  0  0
   -3.5188   -1.0574   -0.9777 H   0  0  0  0  0  0  0  0  0  0  0  0
   -4.2641    1.1877   -0.0892 H   0  0  0  0  0  0  0  0  0  0  0  0
   -4.6623    0.4500    1.4468 H   0  0  0  0  0  0  0  0  0  0  0  0
   -5.9713   -0.1491   -1.2520 H   0  0  0  0  0  0  0  0  0  0  0  0
   -6.6937    0.7280    0.0947 H   0  0  0  0  0  0  0  0  0  0  0  0
   -7.4843   -1.6439   -0.0367 H   0  0  0  0  0  0  0  0  0  0  0  0
   -6.6929   -1.2782    1.4947 H   0  0  0  0  0  0  0  0  0  0  0  0
   -5.4757   -2.7614   -0.8849 H   0  0  0  0  0  0  0  0  0  0  0  0
   -5.9019   -3.4463    0.6816 H   0  0  0  0  0  0  0  0  0  0  0  0
   -3.4529   -3.0177    0.4890 H   0  0  0  0  0  0  0  0  0  0  0  0
   -4.1855   -2.1167    1.8088 H   0  0  0  0  0  0  0  0  0  0  0  0
   -2.6937    0.9213   -1.6066 H   0  0  0  0  0  0  0  0  0  0  0  0
   -1.4649   -0.2430   -2.1048 H   0  0  0  0  0  0  0  0  0  0  0  0
   -0.9881    2.6772   -1.3175 H   0  0  0  0  0  0  0  0  0  0  0  0
   -0.9814    2.0656   -2.9663 H   0  0  0  0  0  0  0  0  0  0  0  0
    1.0845    0.9898   -2.7076 H   0  0  0  0  0  0  0  0  0  0  0  0
    1.2840    2.4126   -1.7106 H   0  0  0  0  0  0  0  0  0  0  0  0
    1.0461   -0.4943   -0.9919 H   0  0  0  0  0  0  0  0  0  0  0  0
    6.3267    2.1836    1.9911 H   0  0  0  0  0  0  0  0  0  0  0  0
    8.6956    1.4969    2.2242 H   0  0  0  0  0  0  0  0  0  0  0  0
    7.9750   -1.9515   -0.2128 H   0  0  0  0  0  0  0  0  0  0  0  0
    5.5961   -1.2961   -0.4703 H   0  0  0  0  0  0  0  0  0  0  0  0
    0.1801   -0.0615    1.3010 H   0  0  0  0  0  0  0  0  0  0  0  0
   -0.1632    1.6103    0.8730 H   0  0  0  0  0  0  0  0  0  0  0  0
  1  2  2  0
  2  3  1  0
  3  4  1  0
  4  5  1  0
  5  6  1  0
  6  7  1  0
  7  8  1  0
  2  9  1  0
  9 10  1  0
 10 11  1  0
 11 12  1  0
 12 13  1  0
 13 14  1  0
 14 15  2  0
 15 16  1  0
 16 17  1  0
 17 18  2  0
 18 19  1  0
 19 20  2  0
 20 21  1  0
 20 22  1  0
 22 23  2  0
 16 24  2  0
 24 25  1  0
 13 26  1  0
  8  3  1  0
 26  9  1  0
 25 14  1  0
 23 17  1  0
  3 27  1  0
  4 28  1  0
  4 29  1  0
  5 30  1  0
  5 31  1  0
  6 32  1  0
  6 33  1  0
  7 34  1  0
  7 35  1  0
  8 36  1  0
  8 37  1  0
 10 38  1  0
 10 39  1  0
 11 40  1  0
 11 41  1  0
 12 42  1  0
 12 43  1  0
 13 44  1  0
 18 45  1  0
 19 46  1  0
 22 47  1  0
 23 48  1  0
 26 49  1  0
 26 50  1  0
M  END
$$$$
