
     RDKit          3D

 37 38  0  0  0  0  0  0  0  0999 V2000
    5.5019    0.9236    2.1667 C   0  0  0  0  0  0  0  0  0  0  0  0
    4.1066    0.7146    1.5729 C   0  0  0  0  0  0  0  0  0  0  0  0
    3.4426   -0.4970    2.2332 C   0  0  0  0  0  0  0  0  0  0  0  0
    4.2079    0.5578    0.0444 C   0  0  0  0  0  0  0  0  0  0  0  0
    2.8729    0.5555   -0.6309 C   0  0  0  0  0  0  0  0  0  0  0  0
    2.2108   -0.5298   -0.9794 N   0  0  0  0  0  0  0  0  0  0  0  0
    1.0020   -0.2307   -1.5754 N   0  0  0  0  0  0  0  0  0  0  0  0
    0.7981    1.0628   -1.6374 C   0  0  0  0  0  0  0  0  0  0  0  0
   -0.3898    1.6259   -2.2438 N   0  0  0  0  0  0  0  0  0  0  0  0
   -1.7931    1.2371   -1.3951 S   0  0  0  0  0  6  0  0  0  0  0  0
   -1.4698    1.1978    0.0160 O   0  0  0  0  0  0  0  0  0  0  0  0
   -2.7722    2.1836   -1.8949 O   0  0  0  0  0  0  0  0  0  0  0  0
   -2.1809   -0.4107   -2.0168 C   0  0  0  0  0  0  0  0  0  0  0  0
   -3.4930   -0.8595   -1.4267 C   0  0  0  0  0  0  0  0  0  0  0  0
   -3.5233   -1.5440   -0.2029 C   0  0  0  0  0  0  0  0  0  0  0  0
   -4.7377   -1.9558    0.3475 C   0  0  0  0  0  0  0  0  0  0  0  0
   -5.9325   -1.6867   -0.3167 C   0  0  0  0  0  0  0  0  0  0  0  0
   -5.9150   -1.0029   -1.5305 C   0  0  0  0  0  0  0  0  0  0  0  0
   -4.7021   -0.5898   -2.0838 C   0  0  0  0  0  0  0  0  0  0  0  0
    2.0749    2.0246   -1.0441 S   0  0  0  0  0  0  0  0  0  0  0  0
    5.9765    1.8140    1.7408 H   0  0  0  0  0  0  0  0  0  0  0  0
    5.4465    1.0632    3.2515 H   0  0  0  0  0  0  0  0  0  0  0  0
    6.1516    0.0644    1.9680 H   0  0  0  0  0  0  0  0  0  0  0  0
    3.5061    1.6022    1.8101 H   0  0  0  0  0  0  0  0  0  0  0  0
    2.4078   -0.6169    1.8972 H   0  0  0  0  0  0  0  0  0  0  0  0
    3.9845   -1.4209    2.0044 H   0  0  0  0  0  0  0  0  0  0  0  0
    3.4200   -0.3804    3.3222 H   0  0  0  0  0  0  0  0  0  0  0  0
    4.8199    1.3681   -0.3727 H   0  0  0  0  0  0  0  0  0  0  0  0
    4.7310   -0.3755   -0.2007 H   0  0  0  0  0  0  0  0  0  0  0  0
   -0.3442    2.6328   -2.3874 H   0  0  0  0  0  0  0  0  0  0  0  0
   -2.2386   -0.3564   -3.1083 H   0  0  0  0  0  0  0  0  0  0  0  0
   -1.3814   -1.0984   -1.7330 H   0  0  0  0  0  0  0  0  0  0  0  0
   -2.6008   -1.7546    0.3360 H   0  0  0  0  0  0  0  0  0  0  0  0
   -4.7511   -2.4821    1.2985 H   0  0  0  0  0  0  0  0  0  0  0  0
   -6.8779   -2.0042    0.1151 H   0  0  0  0  0  0  0  0  0  0  0  0
   -6.8478   -0.7852   -2.0443 H   0  0  0  0  0  0  0  0  0  0  0  0
   -4.7108   -0.0464   -3.0268 H   0  0  0  0  0  0  0  0  0  0  0  0
  1  2  1  0
  2  3  1  0
  2  4  1  0
  4  5  1  0
  5  6  2  0
  6  7  1  0
  7  8  2  0
  8  9  1  0
  9 10  1  0
 10 11  2  0
 10 12  2  0
 10 13  1  0
 13 14  1  0
 14 15  2  0
 15 16  1  0
 16 17  2  0
 17 18  1  0
 18 19  2  0
  8 20  1  0
 20  5  1  0
 19 14  1  0
  1 21  1  0
  1 22  1  0
  1 23  1  0
  2 24  1  0
  3 25  1  0
  3 26  1  0
  3 27  1  0
  4 28  1  0
  4 29  1  0
  9 30  1  0
 13 31  1  0
 13 32  1  0
 15 33  1  0
 16 34  1  0
 17 35  1  0
 18 36  1  0
 19 37  1  0
M  END
$$$$
