
     RDKit          3D

 45 47  0  0  0  0  0  0  0  0999 V2000
   -1.4488    3.3980    0.8766 C   0  0  0  0  0  0  0  0  0  0  0  0
   -0.4967    2.2804    0.6302 C   0  0  0  0  0  0  0  0  0  0  0  0
    1.1984    2.5606    0.7456 S   0  0  0  0  0  0  0  0  0  0  0  0
    1.4889    0.9462    0.2822 C   0  0  0  0  0  0  0  0  0  0  0  0
    2.8171    0.6303    0.1955 N   0  0  0  0  0  0  0  0  0  0  0  0
    3.3606   -0.5743   -0.1683 C   0  0  0  0  0  0  0  0  0  0  0  0
    2.5990   -1.9920   -0.6254 S   0  0  0  0  0  0  0  0  0  0  0  0
    4.7467   -0.6153   -0.1560 N   0  0  0  0  0  0  0  0  0  0  0  0
    5.6588    0.3820    0.1693 C   0  0  0  0  0  0  0  0  0  0  0  0
    5.2860    1.5077    0.5041 O   0  0  0  0  0  0  0  0  0  0  0  0
    7.0654    0.0101    0.0860 C   0  0  0  0  0  0  0  0  0  0  0  0
    8.1518    0.8229    0.3578 C   0  0  0  0  0  0  0  0  0  0  0  0
    9.3972    0.1541    0.1804 C   0  0  0  0  0  0  0  0  0  0  0  0
    9.2259   -1.1507   -0.2219 C   0  0  0  0  0  0  0  0  0  0  0  0
    7.5744   -1.5595   -0.3825 S   0  0  0  0  0  0  0  0  0  0  0  0
    0.4344    0.2098    0.0645 N   0  0  0  0  0  0  0  0  0  0  0  0
   -0.7151    0.9527    0.2895 C   0  0  0  0  0  0  0  0  0  0  0  0
   -2.0221    0.3327    0.1143 C   0  0  0  0  0  0  0  0  0  0  0  0
   -3.0593    0.5202    1.0341 C   0  0  0  0  0  0  0  0  0  0  0  0
   -4.3016   -0.0936    0.8395 C   0  0  0  0  0  0  0  0  0  0  0  0
   -4.5297   -0.9169   -0.2727 C   0  0  0  0  0  0  0  0  0  0  0  0
   -5.8671   -1.5981   -0.5023 C   0  0  0  0  0  0  0  0  0  0  0  0
   -6.9975   -0.5795   -0.6695 C   0  0  0  0  0  0  0  0  0  0  0  0
   -6.1896   -2.5921    0.6161 C   0  0  0  0  0  0  0  0  0  0  0  0
   -3.4805   -1.1192   -1.1800 C   0  0  0  0  0  0  0  0  0  0  0  0
   -2.2395   -0.5054   -0.9850 C   0  0  0  0  0  0  0  0  0  0  0  0
   -1.7901    3.3845    1.9165 H   0  0  0  0  0  0  0  0  0  0  0  0
   -0.9900    4.3738    0.6839 H   0  0  0  0  0  0  0  0  0  0  0  0
   -2.3233    3.3203    0.2227 H   0  0  0  0  0  0  0  0  0  0  0  0
    3.4561    1.3867    0.4284 H   0  0  0  0  0  0  0  0  0  0  0  0
    5.1321   -1.5123   -0.4240 H   0  0  0  0  0  0  0  0  0  0  0  0
    8.0511    1.8565    0.6715 H   0  0  0  0  0  0  0  0  0  0  0  0
   10.3683    0.6078    0.3401 H   0  0  0  0  0  0  0  0  0  0  0  0
    9.9926   -1.8853   -0.4297 H   0  0  0  0  0  0  0  0  0  0  0  0
   -2.9102    1.1265    1.9233 H   0  0  0  0  0  0  0  0  0  0  0  0
   -5.0869    0.0702    1.5739 H   0  0  0  0  0  0  0  0  0  0  0  0
   -5.8109   -2.1712   -1.4374 H   0  0  0  0  0  0  0  0  0  0  0  0
   -7.9367   -1.0848   -0.9193 H   0  0  0  0  0  0  0  0  0  0  0  0
   -6.7719    0.1266   -1.4765 H   0  0  0  0  0  0  0  0  0  0  0  0
   -7.1656    0.0007    0.2443 H   0  0  0  0  0  0  0  0  0  0  0  0
   -7.1155   -3.1337    0.3944 H   0  0  0  0  0  0  0  0  0  0  0  0
   -5.3877   -3.3305    0.7268 H   0  0  0  0  0  0  0  0  0  0  0  0
   -6.3196   -2.0932    1.5827 H   0  0  0  0  0  0  0  0  0  0  0  0
   -3.6139   -1.7639   -2.0459 H   0  0  0  0  0  0  0  0  0  0  0  0
   -1.4352   -0.6895   -1.6955 H   0  0  0  0  0  0  0  0  0  0  0  0
  1  2  1  0
  2  3  1  0
  3  4  1  0
  4  5  1  0
  5  6  1  0
  6  7  2  0
  6  8  1  0
  8  9  1  0
  9 10  2  0
  9 11  1  0
 11 12  2  0
 12 13  1  0
 13 14  2  0
 14 15  1  0
  4 16  2  0
 16 17  1  0
 17 18  1  0
 18 19  2  0
 19 20  1  0
 20 21  2  0
 21 22  1  0
 22 23  1  0
 22 24  1  0
 21 25  1  0
 25 26  2  0
 17  2  2  0
 26 18  1  0
 15 11  1  0
  1 27  1  0
  1 28  1  0
  1 29  1  0
  5 30  1  0
  8 31  1  0
 12 32  1  0
 13 33  1  0
 14 34  1  0
 19 35  1  0
 20 36  1  0
 22 37  1  0
 23 38  1  0
 23 39  1  0
 23 40  1  0
 24 41  1  0
 24 42  1  0
 24 43  1  0
 25 44  1  0
 26 45  1  0
M  END
$$$$
