
     RDKit          3D

 35 37  0  0  0  0  0  0  0  0999 V2000
   -2.1076   -2.4456    0.5240 C   0  0  0  0  0  0  0  0  0  0  0  0
   -1.2499   -1.2632    0.2203 C   0  0  0  0  0  0  0  0  0  0  0  0
    0.0373   -1.2457    0.4590 N   0  0  0  0  0  0  0  0  0  0  0  0
    0.4844   -0.0107   -0.0018 N   0  0  0  0  0  0  0  0  0  0  0  0
    1.8103    0.3369    0.0815 C   0  0  0  0  0  0  0  0  0  0  0  0
    2.4098    1.4442   -0.2982 N   0  0  0  0  0  0  0  0  0  0  0  0
    3.7368    1.2749    0.0134 C   0  0  0  0  0  0  0  0  0  0  0  0
    4.8208    2.1439   -0.1755 C   0  0  0  0  0  0  0  0  0  0  0  0
    6.0941    1.7280    0.2350 C   0  0  0  0  0  0  0  0  0  0  0  0
    6.2833    0.4734    0.8211 C   0  0  0  0  0  0  0  0  0  0  0  0
    5.2134   -0.4078    1.0179 C   0  0  0  0  0  0  0  0  0  0  0  0
    3.9569    0.0335    0.5992 C   0  0  0  0  0  0  0  0  0  0  0  0
    2.7149   -0.5390    0.6291 N   0  0  0  0  0  0  0  0  0  0  0  0
   -0.4972    0.8155   -0.5569 C   0  0  0  0  0  0  0  0  0  0  0  0
   -0.4648    1.9243   -1.0572 O   0  0  0  0  0  0  0  0  0  0  0  0
   -1.7205   -0.0082   -0.3839 C   0  0  0  0  0  0  0  0  0  0  0  0
   -2.9311    0.4174   -0.7592 C   0  0  0  0  0  0  0  0  0  0  0  0
   -4.1888   -0.1685   -0.6229 N   0  0  0  0  0  0  0  0  0  0  0  0
   -4.7557   -0.3280    0.7266 C   0  0  0  0  0  0  0  0  0  0  0  0
   -5.2241    0.1762   -1.6123 C   0  0  0  0  0  0  0  0  0  0  0  0
   -1.5045   -3.3569    0.4653 H   0  0  0  0  0  0  0  0  0  0  0  0
   -2.9268   -2.5361   -0.1915 H   0  0  0  0  0  0  0  0  0  0  0  0
   -2.5040   -2.3583    1.5384 H   0  0  0  0  0  0  0  0  0  0  0  0
    4.6647    3.1153   -0.6312 H   0  0  0  0  0  0  0  0  0  0  0  0
    6.9433    2.3924    0.0941 H   0  0  0  0  0  0  0  0  0  0  0  0
    7.2831    0.1752    1.1307 H   0  0  0  0  0  0  0  0  0  0  0  0
    5.3605   -1.3812    1.4724 H   0  0  0  0  0  0  0  0  0  0  0  0
    2.4634   -1.4490    0.9835 H   0  0  0  0  0  0  0  0  0  0  0  0
   -2.9921    1.3760   -1.2801 H   0  0  0  0  0  0  0  0  0  0  0  0
   -5.4777   -1.1511    0.7364 H   0  0  0  0  0  0  0  0  0  0  0  0
   -3.9855   -0.5493    1.4708 H   0  0  0  0  0  0  0  0  0  0  0  0
   -5.2656    0.5905    1.0383 H   0  0  0  0  0  0  0  0  0  0  0  0
   -6.0699   -0.5159   -1.5399 H   0  0  0  0  0  0  0  0  0  0  0  0
   -4.8223    0.1001   -2.6287 H   0  0  0  0  0  0  0  0  0  0  0  0
   -5.5890    1.1968   -1.4534 H   0  0  0  0  0  0  0  0  0  0  0  0
  1  2  1  0
  2  3  2  0
  3  4  1  0
  4  5  1  0
  5  6  2  0
  6  7  1  0
  7  8  2  0
  8  9  1  0
  9 10  2  0
 10 11  1  0
 11 12  2  0
 12 13  1  0
  4 14  1  0
 14 15  2  0
 14 16  1  0
 16 17  2  3
 17 18  1  0
 18 19  1  0
 18 20  1  0
 16  2  1  0
 13  5  1  0
 12  7  1  0
  1 21  1  0
  1 22  1  0
  1 23  1  0
  8 24  1  0
  9 25  1  0
 10 26  1  0
 11 27  1  0
 13 28  1  0
 17 29  1  0
 19 30  1  0
 19 31  1  0
 19 32  1  0
 20 33  1  0
 20 34  1  0
 20 35  1  0
M  END
$$$$
