
     RDKit          3D

 61 65  0  0  0  0  0  0  0  0999 V2000
  -10.5849    1.3482   -0.2396 C   0  0  0  0  0  0  0  0  0  0  0  0
   -9.9999    0.1510   -0.7373 O   0  0  0  0  0  0  0  0  0  0  0  0
   -8.6427    0.0334   -0.6195 C   0  0  0  0  0  0  0  0  0  0  0  0
   -7.7805    0.9743   -0.0639 C   0  0  0  0  0  0  0  0  0  0  0  0
   -6.4008    0.7220   -0.0008 C   0  0  0  0  0  0  0  0  0  0  0  0
   -5.8588   -0.4753   -0.4930 C   0  0  0  0  0  0  0  0  0  0  0  0
   -4.4440   -0.7338   -0.4204 N   0  0  0  0  0  0  0  0  0  0  0  0
   -3.7110   -1.6388   -1.2070 C   0  0  0  0  0  0  0  0  0  0  0  0
   -4.2546   -2.3388   -2.2020 O   0  0  0  0  0  0  0  0  0  0  0  0
   -2.3898   -1.6136   -0.8053 C   0  0  0  0  0  0  0  0  0  0  0  0
   -2.2762   -0.6621    0.2183 C   0  0  0  0  0  0  0  0  0  0  0  0
   -1.1600   -0.2938    0.9143 N   0  0  0  0  0  0  0  0  0  0  0  0
   -0.5851    1.0388    0.5687 C   0  0  0  0  0  0  0  0  0  0  0  0
    0.8497    1.2286    1.1136 C   0  0  0  0  0  0  0  0  0  0  0  0
    1.7590    0.1843    0.6004 N   0  0  0  0  0  0  0  0  0  0  0  0
    3.1380    0.3032    0.7079 C   0  0  0  0  0  0  0  0  0  0  0  0
    3.7492    1.2746    1.5152 C   0  0  0  0  0  0  0  0  0  0  0  0
    5.1433    1.3782    1.6241 C   0  0  0  0  0  0  0  0  0  0  0  0
    5.9702    0.5206    0.9000 C   0  0  0  0  0  0  0  0  0  0  0  0
    7.4409    0.6419    1.0624 C   0  0  0  0  0  0  0  0  0  0  0  0
    7.9005    0.9852    2.1481 O   0  0  0  0  0  0  0  0  0  0  0  0
    8.3696    0.3570   -0.0509 C   0  0  0  0  0  0  0  0  0  0  0  0
    8.0838    0.6885   -1.3771 C   0  0  0  0  0  0  0  0  0  0  0  0
    9.0203    0.3979   -2.3677 C   0  0  0  0  0  0  0  0  0  0  0  0
   10.2104   -0.2080   -1.9926 C   0  0  0  0  0  0  0  0  0  0  0  0
   10.5213   -0.5290   -0.7172 N   0  0  0  0  0  0  0  0  0  0  0  0
    9.5991   -0.2247    0.2304 C   0  0  0  0  0  0  0  0  0  0  0  0
    5.3942   -0.4532    0.0858 C   0  0  0  0  0  0  0  0  0  0  0  0
    3.9986   -0.5466   -0.0100 C   0  0  0  0  0  0  0  0  0  0  0  0
    1.1533   -1.1520    0.3995 C   0  0  0  0  0  0  0  0  0  0  0  0
   -0.1394   -1.3231    1.2250 C   0  0  0  0  0  0  0  0  0  0  0  0
   -3.5297   -0.1420    0.4597 C   0  0  0  0  0  0  0  0  0  0  0  0
   -3.8719    0.7105    1.4274 O   0  0  0  0  0  0  0  0  0  0  0  0
   -6.7352   -1.4141   -1.0518 C   0  0  0  0  0  0  0  0  0  0  0  0
   -8.1116   -1.1585   -1.1126 C   0  0  0  0  0  0  0  0  0  0  0  0
  -11.6630    1.2861   -0.4065 H   0  0  0  0  0  0  0  0  0  0  0  0
  -10.4201    1.4497    0.8370 H   0  0  0  0  0  0  0  0  0  0  0  0
  -10.2148    2.2249   -0.7807 H   0  0  0  0  0  0  0  0  0  0  0  0
   -8.1405    1.9192    0.3297 H   0  0  0  0  0  0  0  0  0  0  0  0
   -5.7717    1.5029    0.4150 H   0  0  0  0  0  0  0  0  0  0  0  0
   -3.5465   -2.8541   -2.6254 H   0  0  0  0  0  0  0  0  0  0  0  0
   -1.5941   -2.2003   -1.2410 H   0  0  0  0  0  0  0  0  0  0  0  0
   -1.2272    1.8291    0.9762 H   0  0  0  0  0  0  0  0  0  0  0  0
   -0.5618    1.1558   -0.5240 H   0  0  0  0  0  0  0  0  0  0  0  0
    0.8325    1.1967    2.2105 H   0  0  0  0  0  0  0  0  0  0  0  0
    1.1973    2.2214    0.8027 H   0  0  0  0  0  0  0  0  0  0  0  0
    3.1519    1.9608    2.1088 H   0  0  0  0  0  0  0  0  0  0  0  0
    5.5752    2.1287    2.2829 H   0  0  0  0  0  0  0  0  0  0  0  0
    7.1566    1.1863   -1.6468 H   0  0  0  0  0  0  0  0  0  0  0  0
    8.8317    0.6478   -3.4067 H   0  0  0  0  0  0  0  0  0  0  0  0
   10.9711   -0.4530   -2.7297 H   0  0  0  0  0  0  0  0  0  0  0  0
    9.8856   -0.4762    1.2489 H   0  0  0  0  0  0  0  0  0  0  0  0
    6.0042   -1.1603   -0.4688 H   0  0  0  0  0  0  0  0  0  0  0  0
    3.5886   -1.3003   -0.6775 H   0  0  0  0  0  0  0  0  0  0  0  0
    0.9377   -1.2792   -0.6681 H   0  0  0  0  0  0  0  0  0  0  0  0
    1.8385   -1.9518    0.7046 H   0  0  0  0  0  0  0  0  0  0  0  0
   -0.5340   -2.3373    1.0973 H   0  0  0  0  0  0  0  0  0  0  0  0
    0.1046   -1.2279    2.2905 H   0  0  0  0  0  0  0  0  0  0  0  0
   -3.0632    0.7794    1.9731 H   0  0  0  0  0  0  0  0  0  0  0  0
   -6.3909   -2.3759   -1.4202 H   0  0  0  0  0  0  0  0  0  0  0  0
   -8.7729   -1.9036   -1.5464 H   0  0  0  0  0  0  0  0  0  0  0  0
  1  2  1  0
  2  3  1  0
  3  4  2  0
  4  5  1  0
  5  6  2  0
  6  7  1  0
  7  8  1  0
  8  9  1  0
  8 10  2  0
 10 11  1  0
 11 12  1  0
 12 13  1  0
 13 14  1  0
 14 15  1  0
 15 16  1  0
 16 17  2  0
 17 18  1  0
 18 19  2  0
 19 20  1  0
 20 21  2  0
 20 22  1  0
 22 23  2  0
 23 24  1  0
 24 25  2  0
 25 26  1  0
 26 27  2  0
 19 28  1  0
 28 29  2  0
 15 30  1  0
 30 31  1  0
 11 32  2  0
 32 33  1  0
  6 34  1  0
 34 35  2  0
 35  3  1  0
 32  7  1  0
 31 12  1  0
 29 16  1  0
 27 22  1  0
  1 36  1  0
  1 37  1  0
  1 38  1  0
  4 39  1  0
  5 40  1  0
  9 41  1  0
 10 42  1  0
 13 43  1  0
 13 44  1  0
 14 45  1  0
 14 46  1  0
 17 47  1  0
 18 48  1  0
 23 49  1  0
 24 50  1  0
 25 51  1  0
 27 52  1  0
 28 53  1  0
 29 54  1  0
 30 55  1  0
 30 56  1  0
 31 57  1  0
 31 58  1  0
 33 59  1  0
 34 60  1  0
 35 61  1  0
M  END
$$$$
