
     RDKit          3D

 56 61  0  0  0  0  0  0  0  0999 V2000
    0.0704    0.6680   -3.6034 C   0  0  0  0  0  0  0  0  0  0  0  0
    0.8542    0.3515   -2.3849 C   0  0  0  0  0  0  0  0  0  0  0  0
    2.1549    0.6541   -2.3356 N   0  0  0  0  0  0  0  0  0  0  0  0
    2.5838    0.2503   -1.0986 N   0  0  0  0  0  0  0  0  0  0  0  0
    3.9496    0.4540   -0.7248 C   0  0  0  0  0  0  0  0  0  0  0  0
    4.4441    0.0691    0.5297 C   0  0  0  0  0  0  0  0  0  0  0  0
    5.7882    0.2850    0.8609 C   0  0  0  0  0  0  0  0  0  0  0  0
    6.6451    0.8899   -0.0655 C   0  0  0  0  0  0  0  0  0  0  0  0
    8.0535    1.1152    0.2813 N   0  0  0  0  0  4  0  0  0  0  0  0
    8.4370    0.7571    1.4042 O   0  0  0  0  0  0  0  0  0  0  0  0
    8.7790    1.6502   -0.5697 O   0  0  0  0  0  1  0  0  0  0  0  0
    6.1675    1.2815   -1.3204 C   0  0  0  0  0  0  0  0  0  0  0  0
    4.8244    1.0631   -1.6448 C   0  0  0  0  0  0  0  0  0  0  0  0
    1.5382   -0.3331   -0.3885 C   0  0  0  0  0  0  0  0  0  0  0  0
    0.4238   -0.2509   -1.1909 C   0  0  0  0  0  0  0  0  0  0  0  0
   -0.8706   -0.7992   -0.7028 C   0  0  0  0  0  0  0  0  0  0  0  0
   -1.7772    0.4246   -0.5571 C   0  0  0  0  0  0  0  0  0  0  0  0
   -2.8131    0.6491   -1.4814 C   0  0  0  0  0  0  0  0  0  0  0  0
   -3.6538    1.7636   -1.3705 C   0  0  0  0  0  0  0  0  0  0  0  0
   -3.4774    2.6747   -0.3300 C   0  0  0  0  0  0  0  0  0  0  0  0
   -4.2180    3.8025   -0.1158 O   0  0  0  0  0  0  0  0  0  0  0  0
   -5.4803    3.8595   -0.7573 C   0  0  0  0  0  0  0  0  0  0  0  0
   -5.3003    4.0960   -2.0803 F   0  0  0  0  0  0  0  0  0  0  0  0
   -6.1419    4.9337   -0.2578 F   0  0  0  0  0  0  0  0  0  0  0  0
   -2.4421    2.4720    0.5834 C   0  0  0  0  0  0  0  0  0  0  0  0
   -1.6038    1.3593    0.4779 C   0  0  0  0  0  0  0  0  0  0  0  0
   -0.7379   -1.5381    0.5724 N   0  0  0  0  0  0  0  0  0  0  0  0
    0.4865   -1.4555    1.2636 C   0  0  0  0  0  0  0  0  0  0  0  0
    1.5908   -0.8850    0.8494 N   0  0  0  0  0  0  0  0  0  0  0  0
    0.5916   -2.0939    2.6698 C   0  0  0  0  0  0  0  0  0  0  0  0
    1.5937   -1.9810    3.3620 O   0  0  0  0  0  0  0  0  0  0  0  0
   -0.5062   -2.7953    3.0907 N   0  0  0  0  0  0  0  0  0  0  0  0
   -1.6758   -2.9371    2.3396 C   0  0  0  0  0  0  0  0  0  0  0  0
   -2.7061   -3.7105    2.8880 C   0  0  0  0  0  0  0  0  0  0  0  0
   -3.8902   -3.8913    2.1827 C   0  0  0  0  0  0  0  0  0  0  0  0
   -4.0394   -3.3017    0.9339 C   0  0  0  0  0  0  0  0  0  0  0  0
   -3.0071   -2.5264    0.3903 C   0  0  0  0  0  0  0  0  0  0  0  0
   -1.8001   -2.3148    1.0783 C   0  0  0  0  0  0  0  0  0  0  0  0
    0.7174    0.7496   -4.4831 H   0  0  0  0  0  0  0  0  0  0  0  0
   -0.4572    1.6187   -3.4788 H   0  0  0  0  0  0  0  0  0  0  0  0
   -0.6669   -0.1151   -3.8061 H   0  0  0  0  0  0  0  0  0  0  0  0
    3.8167   -0.4012    1.2818 H   0  0  0  0  0  0  0  0  0  0  0  0
    6.1425   -0.0249    1.8425 H   0  0  0  0  0  0  0  0  0  0  0  0
    6.8177    1.7542   -2.0535 H   0  0  0  0  0  0  0  0  0  0  0  0
    4.4719    1.3761   -2.6272 H   0  0  0  0  0  0  0  0  0  0  0  0
   -1.2494   -1.4763   -1.4794 H   0  0  0  0  0  0  0  0  0  0  0  0
   -2.9715   -0.0392   -2.3099 H   0  0  0  0  0  0  0  0  0  0  0  0
   -4.4175    1.9007   -2.1308 H   0  0  0  0  0  0  0  0  0  0  0  0
   -6.0908    2.9634   -0.5999 H   0  0  0  0  0  0  0  0  0  0  0  0
   -2.2820    3.1869    1.3881 H   0  0  0  0  0  0  0  0  0  0  0  0
   -0.8053    1.2374    1.2079 H   0  0  0  0  0  0  0  0  0  0  0  0
   -0.4225   -3.2246    4.0019 H   0  0  0  0  0  0  0  0  0  0  0  0
   -2.5946   -4.1783    3.8628 H   0  0  0  0  0  0  0  0  0  0  0  0
   -4.6922   -4.4921    2.6043 H   0  0  0  0  0  0  0  0  0  0  0  0
   -4.9622   -3.4432    0.3755 H   0  0  0  0  0  0  0  0  0  0  0  0
   -3.1890   -2.1024   -0.5910 H   0  0  0  0  0  0  0  0  0  0  0  0
  1  2  1  0
  2  3  2  0
  3  4  1  0
  4  5  1  0
  5  6  2  0
  6  7  1  0
  7  8  2  0
  8  9  1  0
  9 10  2  0
  9 11  1  0
  8 12  1  0
 12 13  2  0
  4 14  1  0
 14 15  2  0
 15 16  1  0
 16 17  1  0
 17 18  2  0
 18 19  1  0
 19 20  2  0
 20 21  1  0
 21 22  1  0
 22 23  1  0
 22 24  1  0
 20 25  1  0
 25 26  2  0
 16 27  1  0
 27 28  1  0
 28 29  2  0
 28 30  1  0
 30 31  2  0
 30 32  1  0
 32 33  1  0
 33 34  2  0
 34 35  1  0
 35 36  2  0
 36 37  1  0
 37 38  2  0
 15  2  1  0
 26 17  1  0
 38 27  1  0
 13  5  1  0
 29 14  1  0
 38 33  1  0
  1 39  1  0
  1 40  1  0
  1 41  1  0
  6 42  1  0
  7 43  1  0
 12 44  1  0
 13 45  1  0
 16 46  1  0
 18 47  1  0
 19 48  1  0
 22 49  1  0
 25 50  1  0
 26 51  1  0
 32 52  1  0
 34 53  1  0
 35 54  1  0
 36 55  1  0
 37 56  1  0
M  CHG  2   9   1  11  -1
M  END
$$$$
