
     RDKit          3D

 60 64  0  0  0  0  0  0  0  0999 V2000
   -6.0150   -3.6524    0.2114 C   0  0  0  0  0  0  0  0  0  0  0  0
   -5.6505   -2.2657   -0.3047 C   0  0  0  0  0  0  0  0  0  0  0  0
   -4.1851   -1.8856   -0.0284 C   0  0  0  0  0  0  0  0  0  0  0  0
   -3.2957   -2.7331   -0.8155 N   0  0  0  0  0  0  0  0  0  0  0  0
   -1.9502   -2.3763   -0.6685 C   0  0  0  0  0  0  0  0  0  0  0  0
   -1.1014   -3.4156   -0.6985 N   0  0  0  0  0  0  0  0  0  0  0  0
    0.1938   -3.1063   -0.6593 C   0  0  0  0  0  0  0  0  0  0  0  0
    0.7011   -1.8723   -0.5955 N   0  0  0  0  0  0  0  0  0  0  0  0
   -0.1659   -0.8343   -0.5598 C   0  0  0  0  0  0  0  0  0  0  0  0
    0.3997    0.4476   -0.5066 N   0  0  0  0  0  0  0  0  0  0  0  0
    1.2009    0.7794   -1.7110 C   0  0  0  0  0  0  0  0  0  0  0  0
    2.6606    0.2700   -1.6833 C   0  0  0  0  0  0  0  0  0  0  0  0
    3.3414    0.6639   -0.4208 N   0  0  0  0  0  0  0  0  0  0  0  0
    4.7349    0.4718   -0.4463 C   0  0  0  0  0  0  0  0  0  0  0  0
    5.4266   -0.3367    0.4709 C   0  0  0  0  0  0  0  0  0  0  0  0
    6.8187   -0.4931    0.4092 C   0  0  0  0  0  0  0  0  0  0  0  0
    7.5560    0.1663   -0.5715 C   0  0  0  0  0  0  0  0  0  0  0  0
    6.9010    0.9885   -1.4820 C   0  0  0  0  0  0  0  0  0  0  0  0
    5.5107    1.1420   -1.4118 C   0  0  0  0  0  0  0  0  0  0  0  0
    2.5942    0.1937    0.7704 C   0  0  0  0  0  0  0  0  0  0  0  0
    1.1374    0.7125    0.7556 C   0  0  0  0  0  0  0  0  0  0  0  0
   -1.5583   -1.0318   -0.5752 C   0  0  0  0  0  0  0  0  0  0  0  0
   -2.5913   -0.0214   -0.5133 N   0  0  0  0  0  0  0  0  0  0  0  0
   -2.3052    1.4022   -0.6588 C   0  0  0  0  0  0  0  0  0  0  0  0
   -1.9903    2.1516    0.6253 C   0  0  0  0  0  0  0  0  0  0  0  0
   -1.3816    3.4159    0.5331 C   0  0  0  0  0  0  0  0  0  0  0  0
   -1.1008    4.1623    1.6794 C   0  0  0  0  0  0  0  0  0  0  0  0
   -1.4337    3.6605    2.9356 C   0  0  0  0  0  0  0  0  0  0  0  0
   -2.0520    2.4186    3.0445 C   0  0  0  0  0  0  0  0  0  0  0  0
   -2.3338    1.6727    1.8971 C   0  0  0  0  0  0  0  0  0  0  0  0
   -3.9372   -0.3919   -0.3454 C   0  0  0  0  0  0  0  0  0  0  0  0
   -4.8601    0.4271   -0.3396 O   0  0  0  0  0  0  0  0  0  0  0  0
   -7.0861   -3.8358    0.0621 H   0  0  0  0  0  0  0  0  0  0  0  0
   -5.4638   -4.4386   -0.3199 H   0  0  0  0  0  0  0  0  0  0  0  0
   -5.8012   -3.7422    1.2848 H   0  0  0  0  0  0  0  0  0  0  0  0
   -6.3230   -1.5415    0.1782 H   0  0  0  0  0  0  0  0  0  0  0  0
   -5.8586   -2.2145   -1.3839 H   0  0  0  0  0  0  0  0  0  0  0  0
   -3.9802   -2.0190    1.0445 H   0  0  0  0  0  0  0  0  0  0  0  0
   -3.3640   -3.7355   -0.6680 H   0  0  0  0  0  0  0  0  0  0  0  0
    0.9020   -3.9291   -0.6872 H   0  0  0  0  0  0  0  0  0  0  0  0
    0.6980    0.4255   -2.6213 H   0  0  0  0  0  0  0  0  0  0  0  0
    1.2243    1.8751   -1.7845 H   0  0  0  0  0  0  0  0  0  0  0  0
    2.6937   -0.8199   -1.7946 H   0  0  0  0  0  0  0  0  0  0  0  0
    3.1619    0.6925   -2.5623 H   0  0  0  0  0  0  0  0  0  0  0  0
    4.8983   -0.8840    1.2467 H   0  0  0  0  0  0  0  0  0  0  0  0
    7.3241   -1.1333    1.1290 H   0  0  0  0  0  0  0  0  0  0  0  0
    8.6363    0.0448   -0.6202 H   0  0  0  0  0  0  0  0  0  0  0  0
    7.4665    1.5200   -2.2451 H   0  0  0  0  0  0  0  0  0  0  0  0
    5.0330    1.8203   -2.1154 H   0  0  0  0  0  0  0  0  0  0  0  0
    3.0685    0.5744    1.6844 H   0  0  0  0  0  0  0  0  0  0  0  0
    2.6036   -0.9018    0.8194 H   0  0  0  0  0  0  0  0  0  0  0  0
    1.1681    1.8011    0.8879 H   0  0  0  0  0  0  0  0  0  0  0  0
    0.5904    0.3117    1.6193 H   0  0  0  0  0  0  0  0  0  0  0  0
   -3.1889    1.8933   -1.0884 H   0  0  0  0  0  0  0  0  0  0  0  0
   -1.5285    1.5466   -1.4161 H   0  0  0  0  0  0  0  0  0  0  0  0
   -1.1213    3.8258   -0.4400 H   0  0  0  0  0  0  0  0  0  0  0  0
   -0.6313    5.1380    1.5893 H   0  0  0  0  0  0  0  0  0  0  0  0
   -1.2235    4.2431    3.8287 H   0  0  0  0  0  0  0  0  0  0  0  0
   -2.3333    2.0339    4.0218 H   0  0  0  0  0  0  0  0  0  0  0  0
   -2.8341    0.7187    2.0140 H   0  0  0  0  0  0  0  0  0  0  0  0
  1  2  1  0
  2  3  1  0
  3  4  1  0
  4  5  1  0
  5  6  2  0
  6  7  1  0
  7  8  2  0
  8  9  1  0
  9 10  1  0
 10 11  1  0
 11 12  1  0
 12 13  1  0
 13 14  1  0
 14 15  2  0
 15 16  1  0
 16 17  2  0
 17 18  1  0
 18 19  2  0
 13 20  1  0
 20 21  1  0
  9 22  2  0
 22 23  1  0
 23 24  1  0
 24 25  1  0
 25 26  2  0
 26 27  1  0
 27 28  2  0
 28 29  1  0
 29 30  2  0
 23 31  1  0
 31 32  2  0
 31  3  1  0
 22  5  1  0
 30 25  1  0
 21 10  1  0
 19 14  1  0
  1 33  1  0
  1 34  1  0
  1 35  1  0
  2 36  1  0
  2 37  1  0
  3 38  1  0
  4 39  1  0
  7 40  1  0
 11 41  1  0
 11 42  1  0
 12 43  1  0
 12 44  1  0
 15 45  1  0
 16 46  1  0
 17 47  1  0
 18 48  1  0
 19 49  1  0
 20 50  1  0
 20 51  1  0
 21 52  1  0
 21 53  1  0
 24 54  1  0
 24 55  1  0
 26 56  1  0
 27 57  1  0
 28 58  1  0
 29 59  1  0
 30 60  1  0
M  END
$$$$
