
     RDKit          3D

 49 51  0  0  0  0  0  0  0  0999 V2000
   -4.4081    3.1381   -1.3671 C   0  0  0  0  0  0  0  0  0  0  0  0
   -4.2309    1.7633   -0.7917 C   0  0  0  0  0  0  0  0  0  0  0  0
   -5.3397    0.9390   -0.5697 C   0  0  0  0  0  0  0  0  0  0  0  0
   -5.1748   -0.3554   -0.0669 C   0  0  0  0  0  0  0  0  0  0  0  0
   -6.3691   -1.2198    0.2101 C   0  0  0  0  0  0  0  0  0  0  0  0
   -3.8827   -0.8137    0.2258 C   0  0  0  0  0  0  0  0  0  0  0  0
   -2.7585   -0.0096   -0.0076 C   0  0  0  0  0  0  0  0  0  0  0  0
   -1.4997   -0.5630    0.3055 N   0  0  0  0  0  0  0  0  0  0  0  0
   -0.2455    0.0024    0.1002 C   0  0  0  0  0  0  0  0  0  0  0  0
   -0.0222    1.0910   -0.4263 O   0  0  0  0  0  0  0  0  0  0  0  0
    0.9093   -0.9049    0.6111 C   0  0  0  0  0  0  0  0  0  0  0  0
    2.1802   -0.2516    0.5718 O   0  0  0  0  0  0  0  0  0  0  0  0
    2.3630    0.6579    1.5576 C   0  0  0  0  0  0  0  0  0  0  0  0
    1.5966    0.8644    2.4857 O   0  0  0  0  0  0  0  0  0  0  0  0
    3.6544    1.3748    1.3791 C   0  0  0  0  0  0  0  0  0  0  0  0
    3.9918    2.3710    2.3079 C   0  0  0  0  0  0  0  0  0  0  0  0
    5.1946    3.0725    2.1883 C   0  0  0  0  0  0  0  0  0  0  0  0
    6.0570    2.7736    1.1384 C   0  0  0  0  0  0  0  0  0  0  0  0
    7.2404    3.4316    0.9825 O   0  0  0  0  0  0  0  0  0  0  0  0
    5.7374    1.7895    0.2094 C   0  0  0  0  0  0  0  0  0  0  0  0
    4.5350    1.0879    0.3264 C   0  0  0  0  0  0  0  0  0  0  0  0
    1.0383   -2.1663   -0.2294 C   0  0  0  0  0  0  0  0  0  0  0  0
    1.0242   -3.4299    0.3821 C   0  0  0  0  0  0  0  0  0  0  0  0
    1.1396   -4.5896   -0.3863 C   0  0  0  0  0  0  0  0  0  0  0  0
    1.2766   -4.5003   -1.7702 C   0  0  0  0  0  0  0  0  0  0  0  0
    1.3054   -3.2520   -2.3882 C   0  0  0  0  0  0  0  0  0  0  0  0
    1.1916   -2.0907   -1.6233 C   0  0  0  0  0  0  0  0  0  0  0  0
   -2.9430    1.2748   -0.5212 C   0  0  0  0  0  0  0  0  0  0  0  0
   -3.6449    3.8230   -0.9829 H   0  0  0  0  0  0  0  0  0  0  0  0
   -5.3835    3.5544   -1.0944 H   0  0  0  0  0  0  0  0  0  0  0  0
   -4.3337    3.0989   -2.4582 H   0  0  0  0  0  0  0  0  0  0  0  0
   -6.3389    1.3103   -0.7894 H   0  0  0  0  0  0  0  0  0  0  0  0
   -7.1866   -0.9912   -0.4817 H   0  0  0  0  0  0  0  0  0  0  0  0
   -6.7175   -1.0589    1.2349 H   0  0  0  0  0  0  0  0  0  0  0  0
   -6.1228   -2.2790    0.0815 H   0  0  0  0  0  0  0  0  0  0  0  0
   -3.7628   -1.8145    0.6337 H   0  0  0  0  0  0  0  0  0  0  0  0
   -1.5151   -1.5060    0.6741 H   0  0  0  0  0  0  0  0  0  0  0  0
    0.6722   -1.1952    1.6443 H   0  0  0  0  0  0  0  0  0  0  0  0
    3.3149    2.6061    3.1275 H   0  0  0  0  0  0  0  0  0  0  0  0
    5.4359    3.8404    2.9166 H   0  0  0  0  0  0  0  0  0  0  0  0
    7.3213    4.0992    1.6835 H   0  0  0  0  0  0  0  0  0  0  0  0
    6.4212    1.5700   -0.6062 H   0  0  0  0  0  0  0  0  0  0  0  0
    4.2997    0.3242   -0.4107 H   0  0  0  0  0  0  0  0  0  0  0  0
    0.9324   -3.5231    1.4624 H   0  0  0  0  0  0  0  0  0  0  0  0
    1.1295   -5.5645    0.0948 H   0  0  0  0  0  0  0  0  0  0  0  0
    1.3691   -5.4038   -2.3675 H   0  0  0  0  0  0  0  0  0  0  0  0
    1.4205   -3.1813   -3.4670 H   0  0  0  0  0  0  0  0  0  0  0  0
    1.2254   -1.1224   -2.1220 H   0  0  0  0  0  0  0  0  0  0  0  0
   -2.0976    1.9284   -0.7136 H   0  0  0  0  0  0  0  0  0  0  0  0
  1  2  1  0
  2  3  2  0
  3  4  1  0
  4  5  1  0
  4  6  2  0
  6  7  1  0
  7  8  1  0
  8  9  1  0
  9 10  2  0
  9 11  1  0
 11 12  1  0
 12 13  1  0
 13 14  2  0
 13 15  1  0
 15 16  2  0
 16 17  1  0
 17 18  2  0
 18 19  1  0
 18 20  1  0
 20 21  2  0
 11 22  1  0
 22 23  2  0
 23 24  1  0
 24 25  2  0
 25 26  1  0
 26 27  2  0
  7 28  2  0
 28  2  1  0
 21 15  1  0
 27 22  1  0
  1 29  1  0
  1 30  1  0
  1 31  1  0
  3 32  1  0
  5 33  1  0
  5 34  1  0
  5 35  1  0
  6 36  1  0
  8 37  1  0
 11 38  1  0
 16 39  1  0
 17 40  1  0
 19 41  1  0
 20 42  1  0
 21 43  1  0
 23 44  1  0
 24 45  1  0
 25 46  1  0
 26 47  1  0
 27 48  1  0
 28 49  1  0
M  END
$$$$
