
     RDKit          3D

 61 65  0  0  0  0  0  0  0  0999 V2000
    3.9868    0.9679   -1.0869 C   0  0  0  0  0  0  0  0  0  0  0  0
    3.8625    0.6168    0.3508 C   0  0  0  0  0  0  0  0  0  0  0  0
    2.7149    0.5929    1.1245 C   0  0  0  0  0  0  0  0  0  0  0  0
    1.2936    0.9077    0.7577 C   0  0  0  0  0  0  0  0  0  0  0  0
    0.5706   -0.3064    0.1718 C   0  0  0  0  0  0  0  0  0  0  0  0
   -0.7855    0.0234   -0.1617 O   0  0  0  0  0  0  0  0  0  0  0  0
   -1.6692   -0.0290    0.8787 C   0  0  0  0  0  0  0  0  0  0  0  0
   -1.3425   -0.2779    2.0316 O   0  0  0  0  0  0  0  0  0  0  0  0
   -3.0878    0.2916    0.4155 C   0  0  0  0  0  0  0  0  0  0  0  0
   -3.1631    1.7518   -0.0826 C   0  0  0  0  0  0  0  0  0  0  0  0
   -4.5907    2.0851   -0.5467 C   0  0  0  0  0  0  0  0  0  0  0  0
   -4.9914    1.1292   -1.6822 C   0  0  0  0  0  0  0  0  0  0  0  0
   -4.9451   -0.3264   -1.1893 C   0  0  0  0  0  0  0  0  0  0  0  0
   -5.9158   -0.4948   -0.0096 C   0  0  0  0  0  0  0  0  0  0  0  0
   -5.5262    0.4527    1.1475 C   0  0  0  0  0  0  0  0  0  0  0  0
   -6.4949    0.2820    2.3210 C   0  0  0  0  0  0  0  0  0  0  0  0
   -5.5628    1.9093    0.6312 C   0  0  0  0  0  0  0  0  0  0  0  0
   -4.0822    0.1228    1.5911 C   0  0  0  0  0  0  0  0  0  0  0  0
   -3.5177   -0.6589   -0.7246 C   0  0  0  0  0  0  0  0  0  0  0  0
    3.0972    0.1206    2.7327 S   0  0  0  0  0  0  0  0  0  0  0  0
    4.7528   -0.0401    2.3552 C   0  0  0  0  0  0  0  0  0  0  0  0
    4.9873    0.2342    1.0824 N   0  0  0  0  0  4  0  0  0  0  0  0
    6.3567    0.1559    0.5513 C   0  0  0  0  0  0  0  0  0  0  0  0
    6.5064   -1.0153   -0.3894 C   0  0  0  0  0  0  0  0  0  0  0  0
    7.0581   -0.8198   -1.6668 C   0  0  0  0  0  0  0  0  0  0  0  0
    7.2096   -1.8926   -2.5463 C   0  0  0  0  0  0  0  0  0  0  0  0
    6.8249   -3.1731   -2.1581 C   0  0  0  0  0  0  0  0  0  0  0  0
    6.2941   -3.3855   -0.8885 C   0  0  0  0  0  0  0  0  0  0  0  0
    6.1404   -2.3159   -0.0046 C   0  0  0  0  0  0  0  0  0  0  0  0
    4.1137    0.0661   -1.6925 H   0  0  0  0  0  0  0  0  0  0  0  0
    3.0892    1.4788   -1.4492 H   0  0  0  0  0  0  0  0  0  0  0  0
    4.8274    1.6435   -1.2659 H   0  0  0  0  0  0  0  0  0  0  0  0
    1.2664    1.7296    0.0315 H   0  0  0  0  0  0  0  0  0  0  0  0
    0.7495    1.2915    1.6293 H   0  0  0  0  0  0  0  0  0  0  0  0
    0.6051   -1.1737    0.8435 H   0  0  0  0  0  0  0  0  0  0  0  0
    1.0578   -0.6193   -0.7590 H   0  0  0  0  0  0  0  0  0  0  0  0
   -2.8567    2.4413    0.7149 H   0  0  0  0  0  0  0  0  0  0  0  0
   -2.4628    1.9138   -0.9122 H   0  0  0  0  0  0  0  0  0  0  0  0
   -4.6295    3.1201   -0.9046 H   0  0  0  0  0  0  0  0  0  0  0  0
   -6.0004    1.3720   -2.0373 H   0  0  0  0  0  0  0  0  0  0  0  0
   -4.3143    1.2574   -2.5356 H   0  0  0  0  0  0  0  0  0  0  0  0
   -5.2343   -1.0010   -2.0028 H   0  0  0  0  0  0  0  0  0  0  0  0
   -6.9407   -0.2861   -0.3426 H   0  0  0  0  0  0  0  0  0  0  0  0
   -5.9023   -1.5379    0.3320 H   0  0  0  0  0  0  0  0  0  0  0  0
   -7.5236    0.5099    2.0207 H   0  0  0  0  0  0  0  0  0  0  0  0
   -6.4781   -0.7452    2.7015 H   0  0  0  0  0  0  0  0  0  0  0  0
   -6.2335    0.9495    3.1496 H   0  0  0  0  0  0  0  0  0  0  0  0
   -6.5794    2.1734    0.3126 H   0  0  0  0  0  0  0  0  0  0  0  0
   -5.2949    2.6049    1.4369 H   0  0  0  0  0  0  0  0  0  0  0  0
   -4.0339   -0.9048    1.9771 H   0  0  0  0  0  0  0  0  0  0  0  0
   -3.7904    0.7753    2.4256 H   0  0  0  0  0  0  0  0  0  0  0  0
   -2.8323   -0.5773   -1.5780 H   0  0  0  0  0  0  0  0  0  0  0  0
   -3.4646   -1.7027   -0.3884 H   0  0  0  0  0  0  0  0  0  0  0  0
    5.5011   -0.3400    3.0796 H   0  0  0  0  0  0  0  0  0  0  0  0
    6.5901    1.1066    0.0586 H   0  0  0  0  0  0  0  0  0  0  0  0
    7.0768    0.0451    1.3715 H   0  0  0  0  0  0  0  0  0  0  0  0
    7.3814    0.1657   -1.9991 H   0  0  0  0  0  0  0  0  0  0  0  0
    7.6367   -1.7351   -3.5352 H   0  0  0  0  0  0  0  0  0  0  0  0
    6.9491   -4.0098   -2.8431 H   0  0  0  0  0  0  0  0  0  0  0  0
    6.0090   -4.3923   -0.5870 H   0  0  0  0  0  0  0  0  0  0  0  0
    5.7379   -2.5273    0.9834 H   0  0  0  0  0  0  0  0  0  0  0  0
  1  2  1  0
  2  3  2  0
  3  4  1  0
  4  5  1  0
  5  6  1  0
  6  7  1  0
  7  8  2  0
  7  9  1  0
  9 10  1  0
 10 11  1  0
 11 12  1  0
 12 13  1  0
 13 14  1  0
 14 15  1  0
 15 16  1  0
 15 17  1  0
 15 18  1  0
 13 19  1  0
  3 20  1  0
 20 21  1  0
 21 22  2  0
 22 23  1  0
 23 24  1  0
 24 25  2  0
 25 26  1  0
 26 27  2  0
 27 28  1  0
 28 29  2  0
 22  2  1  0
 29 24  1  0
 18  9  1  0
 19  9  1  0
 17 11  1  0
  1 30  1  0
  1 31  1  0
  1 32  1  0
  4 33  1  0
  4 34  1  0
  5 35  1  0
  5 36  1  0
 10 37  1  0
 10 38  1  0
 11 39  1  0
 12 40  1  0
 12 41  1  0
 13 42  1  0
 14 43  1  0
 14 44  1  0
 16 45  1  0
 16 46  1  0
 16 47  1  0
 17 48  1  0
 17 49  1  0
 18 50  1  0
 18 51  1  0
 19 52  1  0
 19 53  1  0
 21 54  1  0
 23 55  1  0
 23 56  1  0
 25 57  1  0
 26 58  1  0
 27 59  1  0
 28 60  1  0
 29 61  1  0
M  CHG  1  22   1
M  END
$$$$
