
     RDKit          3D

 50 51  0  0  0  0  0  0  0  0999 V2000
    8.3551    0.4466    2.4887 C   0  0  0  0  0  0  0  0  0  0  0  0
    8.1616   -1.0339    2.1997 C   0  0  0  0  0  0  0  0  0  0  0  0
    6.8717   -1.3429    1.4361 C   0  0  0  0  0  0  0  0  0  0  0  0
    6.8612   -0.7751    0.0126 C   0  0  0  0  0  0  0  0  0  0  0  0
    5.6162   -1.1949   -0.7705 C   0  0  0  0  0  0  0  0  0  0  0  0
    4.3456   -0.4731   -0.3388 C   0  0  0  0  0  0  0  0  0  0  0  0
    4.3586    0.4569    0.4579 O   0  0  0  0  0  0  0  0  0  0  0  0
    3.2294   -0.9956   -0.9757 N   0  0  0  0  0  0  0  0  0  0  0  0
    1.8882   -0.5848   -0.8334 C   0  0  0  0  0  0  0  0  0  0  0  0
    1.4729    0.4563   -0.0016 C   0  0  0  0  0  0  0  0  0  0  0  0
    0.1184    0.8018    0.0837 C   0  0  0  0  0  0  0  0  0  0  0  0
   -0.8402    0.1016   -0.6548 C   0  0  0  0  0  0  0  0  0  0  0  0
   -2.2707    0.5041   -0.5326 C   0  0  0  0  0  0  0  0  0  0  0  0
   -2.5394    1.6695   -0.2591 O   0  0  0  0  0  0  0  0  0  0  0  0
   -3.1875   -0.5285   -0.7116 N   0  0  0  0  0  0  0  0  0  0  0  0
   -4.5407   -0.4236   -0.5068 N   0  0  0  0  0  0  0  0  0  0  0  0
   -5.1179    0.6896   -0.8331 C   0  0  0  0  0  0  0  0  0  0  0  0
   -6.5601    0.9105   -0.5957 C   0  0  0  0  0  0  0  0  0  0  0  0
   -7.1204    2.1396   -0.9616 C   0  0  0  0  0  0  0  0  0  0  0  0
   -8.4820    2.3763   -0.7487 C   0  0  0  0  0  0  0  0  0  0  0  0
   -9.2760    1.3766   -0.1680 C   0  0  0  0  0  0  0  0  0  0  0  0
  -10.7073    1.6212    0.0536 N   0  0  0  0  0  4  0  0  0  0  0  0
  -11.3779    0.7070    0.5530 O   0  0  0  0  0  0  0  0  0  0  0  0
  -11.1601    2.7268   -0.2755 O   0  0  0  0  0  1  0  0  0  0  0  0
   -8.7164    0.1453    0.2016 C   0  0  0  0  0  0  0  0  0  0  0  0
   -7.3546   -0.0845   -0.0137 C   0  0  0  0  0  0  0  0  0  0  0  0
   -0.4298   -0.9325   -1.5030 C   0  0  0  0  0  0  0  0  0  0  0  0
    0.9261   -1.2724   -1.5862 C   0  0  0  0  0  0  0  0  0  0  0  0
    7.4899    0.8609    3.0158 H   0  0  0  0  0  0  0  0  0  0  0  0
    8.5071    1.0186    1.5690 H   0  0  0  0  0  0  0  0  0  0  0  0
    9.2379    0.5934    3.1193 H   0  0  0  0  0  0  0  0  0  0  0  0
    8.1374   -1.5740    3.1538 H   0  0  0  0  0  0  0  0  0  0  0  0
    9.0265   -1.4134    1.6430 H   0  0  0  0  0  0  0  0  0  0  0  0
    6.0148   -0.9636    2.0042 H   0  0  0  0  0  0  0  0  0  0  0  0
    6.7577   -2.4329    1.3859 H   0  0  0  0  0  0  0  0  0  0  0  0
    6.9338    0.3176    0.0356 H   0  0  0  0  0  0  0  0  0  0  0  0
    7.7456   -1.1441   -0.5210 H   0  0  0  0  0  0  0  0  0  0  0  0
    5.4640   -2.2770   -0.6847 H   0  0  0  0  0  0  0  0  0  0  0  0
    5.7736   -0.9604   -1.8306 H   0  0  0  0  0  0  0  0  0  0  0  0
    3.3947   -1.7607   -1.6174 H   0  0  0  0  0  0  0  0  0  0  0  0
    2.1762    1.0278    0.5967 H   0  0  0  0  0  0  0  0  0  0  0  0
   -0.1817    1.6212    0.7350 H   0  0  0  0  0  0  0  0  0  0  0  0
   -2.8469   -1.4780   -0.5965 H   0  0  0  0  0  0  0  0  0  0  0  0
   -4.5823    1.5179   -1.3278 H   0  0  0  0  0  0  0  0  0  0  0  0
   -6.5058    2.9192   -1.4076 H   0  0  0  0  0  0  0  0  0  0  0  0
   -8.9041    3.3374   -1.0368 H   0  0  0  0  0  0  0  0  0  0  0  0
   -9.3198   -0.6386    0.6552 H   0  0  0  0  0  0  0  0  0  0  0  0
   -6.9180   -1.0386    0.2751 H   0  0  0  0  0  0  0  0  0  0  0  0
   -1.1423   -1.4662   -2.1266 H   0  0  0  0  0  0  0  0  0  0  0  0
    1.2177   -2.0781   -2.2558 H   0  0  0  0  0  0  0  0  0  0  0  0
  1  2  1  0
  2  3  1  0
  3  4  1  0
  4  5  1  0
  5  6  1  0
  6  7  2  0
  6  8  1  0
  8  9  1  0
  9 10  2  0
 10 11  1  0
 11 12  2  0
 12 13  1  0
 13 14  2  0
 13 15  1  0
 15 16  1  0
 16 17  2  3
 17 18  1  0
 18 19  2  0
 19 20  1  0
 20 21  2  0
 21 22  1  0
 22 23  2  0
 22 24  1  0
 21 25  1  0
 25 26  2  0
 12 27  1  0
 27 28  2  0
 28  9  1  0
 26 18  1  0
  1 29  1  0
  1 30  1  0
  1 31  1  0
  2 32  1  0
  2 33  1  0
  3 34  1  0
  3 35  1  0
  4 36  1  0
  4 37  1  0
  5 38  1  0
  5 39  1  0
  8 40  1  0
 10 41  1  0
 11 42  1  0
 15 43  1  0
 17 44  1  0
 19 45  1  0
 20 46  1  0
 25 47  1  0
 26 48  1  0
 27 49  1  0
 28 50  1  0
M  CHG  2  22   1  24  -1
M  END
$$$$
