
     RDKit          3D

 47 49  0  0  0  0  0  0  0  0999 V2000
    4.1234    0.3562   -2.3758 C   0  0  0  0  0  0  0  0  0  0  0  0
    4.4006   -0.1423   -0.9819 C   0  0  0  0  0  0  0  0  0  0  0  0
    3.4369   -0.9419   -0.3411 C   0  0  0  0  0  0  0  0  0  0  0  0
    3.6538   -1.4238    0.9481 C   0  0  0  0  0  0  0  0  0  0  0  0
    2.7831   -2.1906    1.6717 O   0  0  0  0  0  0  0  0  0  0  0  0
    1.8045   -2.9480    0.9528 C   0  0  0  0  0  0  0  0  0  0  0  0
    0.5418   -2.1798    0.8782 C   0  0  0  0  0  0  0  0  0  0  0  0
    0.0564   -1.0377    1.4637 C   0  0  0  0  0  0  0  0  0  0  0  0
   -1.2553   -0.8753    0.9357 C   0  0  0  0  0  0  0  0  0  0  0  0
   -2.1698    0.2388    1.2504 C   0  0  0  0  0  0  0  0  0  0  0  0
   -1.7112    1.2502    1.7886 O   0  0  0  0  0  0  0  0  0  0  0  0
   -3.5394    0.1321    0.9840 N   0  0  0  0  0  0  0  0  0  0  0  0
   -4.2088   -1.0786    0.5266 C   0  0  0  0  0  0  0  0  0  0  0  0
   -4.3355    1.3601    0.9983 C   0  0  0  0  0  0  0  0  0  0  0  0
   -4.8359    1.7790   -0.3731 C   0  0  0  0  0  0  0  0  0  0  0  0
   -6.1486    2.2261   -0.5248 C   0  0  0  0  0  0  0  0  0  0  0  0
   -6.5893    2.6130   -1.7885 C   0  0  0  0  0  0  0  0  0  0  0  0
   -5.7092    2.5599   -2.8620 C   0  0  0  0  0  0  0  0  0  0  0  0
   -4.4165    2.1217   -2.6268 C   0  0  0  0  0  0  0  0  0  0  0  0
   -3.9636    1.7354   -1.4141 N   0  0  0  0  0  0  0  0  0  0  0  0
   -1.5164   -1.8603    0.0578 N   0  0  0  0  0  0  0  0  0  0  0  0
   -0.4030   -2.6730    0.0352 O   0  0  0  0  0  0  0  0  0  0  0  0
    4.8312   -1.0855    1.6168 C   0  0  0  0  0  0  0  0  0  0  0  0
    5.8137   -0.2901    1.0068 C   0  0  0  0  0  0  0  0  0  0  0  0
    7.0711    0.0288    1.7667 C   0  0  0  0  0  0  0  0  0  0  0  0
    5.5910    0.1765   -0.3008 C   0  0  0  0  0  0  0  0  0  0  0  0
    6.7929    1.1562   -1.0812 Cl  0  0  0  0  0  0  0  0  0  0  0  0
    4.8894   -0.0023   -3.0702 H   0  0  0  0  0  0  0  0  0  0  0  0
    4.0942    1.4512   -2.3916 H   0  0  0  0  0  0  0  0  0  0  0  0
    3.1563   -0.0025   -2.7448 H   0  0  0  0  0  0  0  0  0  0  0  0
    2.5118   -1.1568   -0.8686 H   0  0  0  0  0  0  0  0  0  0  0  0
    2.1643   -3.2682   -0.0320 H   0  0  0  0  0  0  0  0  0  0  0  0
    1.6264   -3.8614    1.5312 H   0  0  0  0  0  0  0  0  0  0  0  0
    0.5644   -0.3967    2.1712 H   0  0  0  0  0  0  0  0  0  0  0  0
   -5.2710   -1.0335    0.7920 H   0  0  0  0  0  0  0  0  0  0  0  0
   -3.7898   -1.9594    1.0195 H   0  0  0  0  0  0  0  0  0  0  0  0
   -4.1083   -1.1639   -0.5594 H   0  0  0  0  0  0  0  0  0  0  0  0
   -5.1811    1.1747    1.6723 H   0  0  0  0  0  0  0  0  0  0  0  0
   -3.7745    2.2029    1.4183 H   0  0  0  0  0  0  0  0  0  0  0  0
   -6.8256    2.2672    0.3216 H   0  0  0  0  0  0  0  0  0  0  0  0
   -7.6131    2.9508   -1.9329 H   0  0  0  0  0  0  0  0  0  0  0  0
   -6.0209    2.8548   -3.8588 H   0  0  0  0  0  0  0  0  0  0  0  0
   -3.6883    2.0672   -3.4310 H   0  0  0  0  0  0  0  0  0  0  0  0
    4.9836   -1.4565    2.6286 H   0  0  0  0  0  0  0  0  0  0  0  0
    7.0439   -0.3860    2.7798 H   0  0  0  0  0  0  0  0  0  0  0  0
    7.1992    1.1122    1.8625 H   0  0  0  0  0  0  0  0  0  0  0  0
    7.9413   -0.4011    1.2602 H   0  0  0  0  0  0  0  0  0  0  0  0
  1  2  1  0
  2  3  2  0
  3  4  1  0
  4  5  1  0
  5  6  1  0
  6  7  1  0
  7  8  2  0
  8  9  1  0
  9 10  1  0
 10 11  2  0
 10 12  1  0
 12 13  1  0
 12 14  1  0
 14 15  1  0
 15 16  2  0
 16 17  1  0
 17 18  2  0
 18 19  1  0
 19 20  2  0
  9 21  2  0
 21 22  1  0
  4 23  2  0
 23 24  1  0
 24 25  1  0
 24 26  2  0
 26 27  1  0
 26  2  1  0
 22  7  1  0
 20 15  1  0
  1 28  1  0
  1 29  1  0
  1 30  1  0
  3 31  1  0
  6 32  1  0
  6 33  1  0
  8 34  1  0
 13 35  1  0
 13 36  1  0
 13 37  1  0
 14 38  1  0
 14 39  1  0
 16 40  1  0
 17 41  1  0
 18 42  1  0
 19 43  1  0
 23 44  1  0
 25 45  1  0
 25 46  1  0
 25 47  1  0
M  END
$$$$
