
     RDKit          3D

 46 49  0  0  0  0  0  0  0  0999 V2000
    0.7161   -1.0679    0.9849 O   0  0  0  0  0  0  0  0  0  0  0  0
    0.8603    0.1480    0.8810 C   0  0  0  0  0  0  0  0  0  0  0  0
    2.2264    0.8117    0.9911 C   0  0  0  0  0  0  0  0  0  0  0  0
    2.8524    1.1355   -0.6894 S   0  0  0  0  0  0  0  0  0  0  0  0
    4.4200    0.2831   -0.6468 C   0  0  0  0  0  0  0  0  0  0  0  0
    5.4600    1.1181   -0.9207 N   0  0  0  0  0  0  0  0  0  0  0  0
    6.7132    0.6130   -0.9006 C   0  0  0  0  0  0  0  0  0  0  0  0
    7.0039   -0.7044   -0.6048 C   0  0  0  0  0  0  0  0  0  0  0  0
    5.9432   -1.5565   -0.3241 C   0  0  0  0  0  0  0  0  0  0  0  0
    4.6298   -1.0680   -0.3613 C   0  0  0  0  0  0  0  0  0  0  0  0
    3.5657   -2.0161   -0.0120 C   0  0  0  0  0  0  0  0  0  0  0  0
    3.6173   -2.7901    0.9261 O   0  0  0  0  0  0  0  0  0  0  0  0
    2.5169   -1.9392   -0.8416 O   0  0  0  0  0  0  0  0  0  0  0  0
   -0.1718    1.0373    0.6396 N   0  0  0  0  0  0  0  0  0  0  0  0
   -1.5572    0.6437    0.3569 C   0  0  0  0  0  0  0  0  0  0  0  0
   -2.1807   -0.1789    1.5144 C   0  0  0  0  0  0  0  0  0  0  0  0
   -3.6468   -0.5293    1.2008 C   0  0  0  0  0  0  0  0  0  0  0  0
   -4.4551    0.7656    1.0251 C   0  0  0  0  0  0  0  0  0  0  0  0
   -3.8705    1.5952   -0.1290 C   0  0  0  0  0  0  0  0  0  0  0  0
   -3.9295    0.7749   -1.4280 C   0  0  0  0  0  0  0  0  0  0  0  0
   -3.1204   -0.5225   -1.2673 C   0  0  0  0  0  0  0  0  0  0  0  0
   -3.7036   -1.3435   -0.1041 C   0  0  0  0  0  0  0  0  0  0  0  0
   -1.6544   -0.1728   -0.9557 C   0  0  0  0  0  0  0  0  0  0  0  0
   -2.4051    1.9345    0.1868 C   0  0  0  0  0  0  0  0  0  0  0  0
    2.8889    0.1789    1.5881 H   0  0  0  0  0  0  0  0  0  0  0  0
    2.1272    1.7646    1.5225 H   0  0  0  0  0  0  0  0  0  0  0  0
    7.5016    1.3245   -1.1304 H   0  0  0  0  0  0  0  0  0  0  0  0
    8.0284   -1.0594   -0.5905 H   0  0  0  0  0  0  0  0  0  0  0  0
    6.1347   -2.5986   -0.0754 H   0  0  0  0  0  0  0  0  0  0  0  0
    1.7754   -2.3710   -0.3531 H   0  0  0  0  0  0  0  0  0  0  0  0
    0.1154    1.9437    0.2861 H   0  0  0  0  0  0  0  0  0  0  0  0
   -1.6261   -1.1097    1.6819 H   0  0  0  0  0  0  0  0  0  0  0  0
   -2.1231    0.3868    2.4544 H   0  0  0  0  0  0  0  0  0  0  0  0
   -4.0685   -1.1202    2.0222 H   0  0  0  0  0  0  0  0  0  0  0  0
   -5.5060    0.5270    0.8201 H   0  0  0  0  0  0  0  0  0  0  0  0
   -4.4362    1.3487    1.9539 H   0  0  0  0  0  0  0  0  0  0  0  0
   -4.4473    2.5201   -0.2486 H   0  0  0  0  0  0  0  0  0  0  0  0
   -3.5310    1.3640   -2.2631 H   0  0  0  0  0  0  0  0  0  0  0  0
   -4.9722    0.5386   -1.6745 H   0  0  0  0  0  0  0  0  0  0  0  0
   -3.1710   -1.1064   -2.1937 H   0  0  0  0  0  0  0  0  0  0  0  0
   -4.7416   -1.6206   -0.3266 H   0  0  0  0  0  0  0  0  0  0  0  0
   -3.1424   -2.2790    0.0125 H   0  0  0  0  0  0  0  0  0  0  0  0
   -1.0712   -1.0987   -0.8815 H   0  0  0  0  0  0  0  0  0  0  0  0
   -1.2215    0.3962   -1.7892 H   0  0  0  0  0  0  0  0  0  0  0  0
   -2.3533    2.5425    1.1006 H   0  0  0  0  0  0  0  0  0  0  0  0
   -1.9903    2.5564   -0.6183 H   0  0  0  0  0  0  0  0  0  0  0  0
  1  2  2  0
  2  3  1  0
  3  4  1  0
  4  5  1  0
  5  6  2  0
  6  7  1  0
  7  8  2  0
  8  9  1  0
  9 10  2  0
 10 11  1  0
 11 12  2  0
 11 13  1  0
  2 14  1  0
 14 15  1  0
 15 16  1  0
 16 17  1  0
 17 18  1  0
 18 19  1  0
 19 20  1  0
 20 21  1  0
 21 22  1  0
 21 23  1  0
 19 24  1  0
 10  5  1  0
 23 15  1  0
 24 15  1  0
 22 17  1  0
  3 25  1  0
  3 26  1  0
  7 27  1  0
  8 28  1  0
  9 29  1  0
 13 30  1  0
 14 31  1  0
 16 32  1  0
 16 33  1  0
 17 34  1  0
 18 35  1  0
 18 36  1  0
 19 37  1  0
 20 38  1  0
 20 39  1  0
 21 40  1  0
 22 41  1  0
 22 42  1  0
 23 43  1  0
 23 44  1  0
 24 45  1  0
 24 46  1  0
M  END
$$$$
