
     RDKit          3D

 44 46  0  0  0  0  0  0  0  0999 V2000
    4.2403   -2.2347   -0.2642 C   0  0  0  0  0  0  0  0  0  0  0  0
    3.3732   -1.1016   -0.3527 O   0  0  0  0  0  0  0  0  0  0  0  0
    2.2329   -1.3254   -1.0665 C   0  0  0  0  0  0  0  0  0  0  0  0
    1.9517   -2.3798   -1.6171 O   0  0  0  0  0  0  0  0  0  0  0  0
    1.3842   -0.0741   -1.0971 C   0  0  0  0  0  0  0  0  0  0  0  0
    0.2995   -0.1698   -2.1512 C   0  0  0  0  0  0  0  0  0  0  0  0
    0.6972    0.0991   -3.5826 C   0  0  0  0  0  0  0  0  0  0  0  0
   -0.9388   -0.4792   -1.9116 N   0  0  0  0  0  0  0  0  0  0  0  0
   -1.3265   -0.7593   -0.6238 C   0  0  0  0  0  0  0  0  0  0  0  0
   -0.5711   -0.4490    0.4353 C   0  0  0  0  0  0  0  0  0  0  0  0
   -1.0420   -0.7998    1.7882 C   0  0  0  0  0  0  0  0  0  0  0  0
   -0.2820   -0.6800    2.7478 O   0  0  0  0  0  0  0  0  0  0  0  0
   -2.3343   -1.2666    1.8828 N   0  0  0  0  0  0  0  0  0  0  0  0
   -2.8555   -1.5744    3.2009 C   0  0  0  0  0  0  0  0  0  0  0  0
   -3.1045   -1.6347    0.7878 C   0  0  0  0  0  0  0  0  0  0  0  0
   -4.1994   -2.1843    0.9263 O   0  0  0  0  0  0  0  0  0  0  0  0
   -2.5600   -1.3566   -0.4600 N   0  0  0  0  0  0  0  0  0  0  0  0
   -3.3358   -1.7059   -1.6470 C   0  0  0  0  0  0  0  0  0  0  0  0
    0.7807    0.1922    0.2916 C   0  0  0  0  0  0  0  0  0  0  0  0
    0.7369    1.6903    0.6033 C   0  0  0  0  0  0  0  0  0  0  0  0
   -0.0355    2.5896   -0.1521 C   0  0  0  0  0  0  0  0  0  0  0  0
   -0.0475    3.9525    0.1575 C   0  0  0  0  0  0  0  0  0  0  0  0
    0.7077    4.4290    1.2255 C   0  0  0  0  0  0  0  0  0  0  0  0
    0.6914    6.1070    1.6037 Cl  0  0  0  0  0  0  0  0  0  0  0  0
    1.4727    3.5536    1.9904 C   0  0  0  0  0  0  0  0  0  0  0  0
    1.4860    2.1911    1.6818 C   0  0  0  0  0  0  0  0  0  0  0  0
    3.7331   -3.0668    0.2339 H   0  0  0  0  0  0  0  0  0  0  0  0
    5.1093   -1.9496    0.3352 H   0  0  0  0  0  0  0  0  0  0  0  0
    4.5865   -2.5295   -1.2597 H   0  0  0  0  0  0  0  0  0  0  0  0
    2.0540    0.7422   -1.4018 H   0  0  0  0  0  0  0  0  0  0  0  0
    1.4773   -0.6040   -3.8854 H   0  0  0  0  0  0  0  0  0  0  0  0
    1.0811    1.1195   -3.6643 H   0  0  0  0  0  0  0  0  0  0  0  0
   -0.1620   -0.0126   -4.2497 H   0  0  0  0  0  0  0  0  0  0  0  0
   -2.3588   -0.9823    3.9750 H   0  0  0  0  0  0  0  0  0  0  0  0
   -3.9309   -1.3757    3.2430 H   0  0  0  0  0  0  0  0  0  0  0  0
   -2.6852   -2.6373    3.4000 H   0  0  0  0  0  0  0  0  0  0  0  0
   -3.5702   -0.7943   -2.2067 H   0  0  0  0  0  0  0  0  0  0  0  0
   -2.7544   -2.3915   -2.2725 H   0  0  0  0  0  0  0  0  0  0  0  0
   -4.2788   -2.1984   -1.3944 H   0  0  0  0  0  0  0  0  0  0  0  0
    1.4441   -0.2714    1.0346 H   0  0  0  0  0  0  0  0  0  0  0  0
   -0.6487    2.2467   -0.9828 H   0  0  0  0  0  0  0  0  0  0  0  0
   -0.6528    4.6343   -0.4344 H   0  0  0  0  0  0  0  0  0  0  0  0
    2.0555    3.9211    2.8309 H   0  0  0  0  0  0  0  0  0  0  0  0
    2.0792    1.5204    2.3022 H   0  0  0  0  0  0  0  0  0  0  0  0
  1  2  1  0
  2  3  1  0
  3  4  2  0
  3  5  1  0
  5  6  1  0
  6  7  1  0
  6  8  2  0
  8  9  1  0
  9 10  2  0
 10 11  1  0
 11 12  2  0
 11 13  1  0
 13 14  1  0
 13 15  1  0
 15 16  2  0
 15 17  1  0
 17 18  1  0
 10 19  1  0
 19 20  1  0
 20 21  2  0
 21 22  1  0
 22 23  2  0
 23 24  1  0
 23 25  1  0
 25 26  2  0
 19  5  1  0
 26 20  1  0
 17  9  1  0
  1 27  1  0
  1 28  1  0
  1 29  1  0
  5 30  1  0
  7 31  1  0
  7 32  1  0
  7 33  1  0
 14 34  1  0
 14 35  1  0
 14 36  1  0
 18 37  1  0
 18 38  1  0
 18 39  1  0
 19 40  1  0
 21 41  1  0
 22 42  1  0
 25 43  1  0
 26 44  1  0
M  END
$$$$
