
     RDKit          3D

 60 65  0  0  0  0  0  0  0  0999 V2000
    3.8986    2.4370    0.3002 O   0  0  0  0  0  0  0  0  0  0  0  0
    3.1075    1.6094   -0.1446 C   0  0  0  0  0  0  0  0  0  0  0  0
    1.6890    1.5141    0.3988 C   0  0  0  0  0  0  0  0  0  0  0  0
    1.3923   -0.1367    1.1101 S   0  0  0  0  0  0  0  0  0  0  0  0
   -0.3558   -0.0903    1.3543 C   0  0  0  0  0  0  0  0  0  0  0  0
   -0.9483    1.0037    1.0134 N   0  0  0  0  0  0  0  0  0  0  0  0
   -2.3330    1.0506    1.0503 C   0  0  0  0  0  0  0  0  0  0  0  0
   -2.8541    2.2351    0.6734 N   0  0  0  0  0  0  0  0  0  0  0  0
   -4.2052    2.3477    0.6193 C   0  0  0  0  0  0  0  0  0  0  0  0
   -5.0679    1.2964    0.9487 C   0  0  0  0  0  0  0  0  0  0  0  0
   -4.4962    0.0785    1.3313 C   0  0  0  0  0  0  0  0  0  0  0  0
   -3.1072   -0.0367    1.3817 C   0  0  0  0  0  0  0  0  0  0  0  0
   -2.4242   -1.2716    1.7780 C   0  0  0  0  0  0  0  0  0  0  0  0
   -3.1337   -2.2281    2.0902 O   0  0  0  0  0  0  0  0  0  0  0  0
   -1.0223   -1.2383    1.7957 N   0  0  0  0  0  0  0  0  0  0  0  0
   -0.3434   -2.4008    2.2959 C   0  0  0  0  0  0  0  0  0  0  0  0
   -0.6767   -3.6785    1.8219 C   0  0  0  0  0  0  0  0  0  0  0  0
   -0.0218   -4.8144    2.3042 C   0  0  0  0  0  0  0  0  0  0  0  0
    0.9631   -4.6899    3.2812 C   0  0  0  0  0  0  0  0  0  0  0  0
    1.2884   -3.4314    3.7815 C   0  0  0  0  0  0  0  0  0  0  0  0
    0.6347   -2.2952    3.2978 C   0  0  0  0  0  0  0  0  0  0  0  0
   -6.5659    1.4267    0.8300 C   0  0  0  0  0  0  0  0  0  0  0  0
   -7.0398    2.8789    0.7604 C   0  0  0  0  0  0  0  0  0  0  0  0
   -6.1916    3.6731   -0.2290 C   0  0  0  0  0  0  0  0  0  0  0  0
   -4.7353    3.7047    0.2305 C   0  0  0  0  0  0  0  0  0  0  0  0
    3.3262    0.7326   -1.1990 N   0  0  0  0  0  0  0  0  0  0  0  0
    4.4718    0.5949   -2.0223 C   0  0  0  0  0  0  0  0  0  0  0  0
    5.6254    1.3528   -1.7918 C   0  0  0  0  0  0  0  0  0  0  0  0
    6.7383    1.2304   -2.6182 C   0  0  0  0  0  0  0  0  0  0  0  0
    6.7193    0.3424   -3.6860 C   0  0  0  0  0  0  0  0  0  0  0  0
    5.5867   -0.4381   -3.9481 C   0  0  0  0  0  0  0  0  0  0  0  0
    5.6002   -1.3245   -5.0385 C   0  0  0  0  0  0  0  0  0  0  0  0
    4.4902   -2.1115   -5.3415 C   0  0  0  0  0  0  0  0  0  0  0  0
    3.3503   -2.0201   -4.5569 C   0  0  0  0  0  0  0  0  0  0  0  0
    3.3254   -1.1464   -3.4655 C   0  0  0  0  0  0  0  0  0  0  0  0
    4.4370   -0.3287   -3.1200 C   0  0  0  0  0  0  0  0  0  0  0  0
    1.5440    2.2827    1.1624 H   0  0  0  0  0  0  0  0  0  0  0  0
    1.0053    1.7019   -0.4368 H   0  0  0  0  0  0  0  0  0  0  0  0
   -5.1250   -0.7739    1.5834 H   0  0  0  0  0  0  0  0  0  0  0  0
   -1.4403   -3.8066    1.0580 H   0  0  0  0  0  0  0  0  0  0  0  0
   -0.2865   -5.7965    1.9198 H   0  0  0  0  0  0  0  0  0  0  0  0
    1.4726   -5.5755    3.6569 H   0  0  0  0  0  0  0  0  0  0  0  0
    2.0450   -3.3331    4.5554 H   0  0  0  0  0  0  0  0  0  0  0  0
    0.8876   -1.3322    3.7373 H   0  0  0  0  0  0  0  0  0  0  0  0
   -6.8808    0.9006   -0.0838 H   0  0  0  0  0  0  0  0  0  0  0  0
   -7.0561    0.9333    1.6824 H   0  0  0  0  0  0  0  0  0  0  0  0
   -8.0948    2.9071    0.4637 H   0  0  0  0  0  0  0  0  0  0  0  0
   -6.9712    3.3411    1.7543 H   0  0  0  0  0  0  0  0  0  0  0  0
   -6.5722    4.6972   -0.3187 H   0  0  0  0  0  0  0  0  0  0  0  0
   -6.2606    3.2154   -1.2249 H   0  0  0  0  0  0  0  0  0  0  0  0
   -4.6442    4.3630    1.1035 H   0  0  0  0  0  0  0  0  0  0  0  0
   -4.1093    4.1280   -0.5653 H   0  0  0  0  0  0  0  0  0  0  0  0
    2.5546    0.1104   -1.3929 H   0  0  0  0  0  0  0  0  0  0  0  0
    5.6942    2.0552   -0.9669 H   0  0  0  0  0  0  0  0  0  0  0  0
    7.6228    1.8330   -2.4257 H   0  0  0  0  0  0  0  0  0  0  0  0
    7.6004    0.2694   -4.3201 H   0  0  0  0  0  0  0  0  0  0  0  0
    6.4861   -1.4074   -5.6708 H   0  0  0  0  0  0  0  0  0  0  0  0
    4.5195   -2.7893   -6.1911 H   0  0  0  0  0  0  0  0  0  0  0  0
    2.4785   -2.6258   -4.7889 H   0  0  0  0  0  0  0  0  0  0  0  0
    2.4082   -1.1258   -2.8884 H   0  0  0  0  0  0  0  0  0  0  0  0
  1  2  2  0
  2  3  1  0
  3  4  1  0
  4  5  1  0
  5  6  2  0
  6  7  1  0
  7  8  2  0
  8  9  1  0
  9 10  2  0
 10 11  1  0
 11 12  2  0
 12 13  1  0
 13 14  2  0
 13 15  1  0
 15 16  1  0
 16 17  2  0
 17 18  1  0
 18 19  2  0
 19 20  1  0
 20 21  2  0
 10 22  1  0
 22 23  1  0
 23 24  1  0
 24 25  1  0
  2 26  1  0
 26 27  1  0
 27 28  2  0
 28 29  1  0
 29 30  2  0
 30 31  1  0
 31 32  2  0
 32 33  1  0
 33 34  2  0
 34 35  1  0
 35 36  2  0
 15  5  1  0
 21 16  1  0
 36 27  1  0
 12  7  1  0
 36 31  1  0
 25  9  1  0
  3 37  1  0
  3 38  1  0
 11 39  1  0
 17 40  1  0
 18 41  1  0
 19 42  1  0
 20 43  1  0
 21 44  1  0
 22 45  1  0
 22 46  1  0
 23 47  1  0
 23 48  1  0
 24 49  1  0
 24 50  1  0
 25 51  1  0
 25 52  1  0
 26 53  1  0
 28 54  1  0
 29 55  1  0
 30 56  1  0
 32 57  1  0
 33 58  1  0
 34 59  1  0
 35 60  1  0
M  END
$$$$
