
     RDKit          3D

 45 48  0  0  0  0  0  0  0  0999 V2000
    2.8592    1.6267   -1.5041 O   0  0  0  0  0  0  0  0  0  0  0  0
    2.3650    0.8332   -0.7152 C   0  0  0  0  0  0  0  0  0  0  0  0
    1.6311   -0.2982   -1.0143 N   0  0  0  0  0  0  0  0  0  0  0  0
    1.3466   -0.8550   -2.2871 C   0  0  0  0  0  0  0  0  0  0  0  0
    1.9922   -0.3922   -3.4430 C   0  0  0  0  0  0  0  0  0  0  0  0
    1.7388   -0.9652   -4.6916 C   0  0  0  0  0  0  0  0  0  0  0  0
    0.8388   -2.0151   -4.8064 C   0  0  0  0  0  0  0  0  0  0  0  0
    0.1868   -2.4897   -3.6697 C   0  0  0  0  0  0  0  0  0  0  0  0
    0.4187   -1.9229   -2.3991 C   0  0  0  0  0  0  0  0  0  0  0  0
   -0.3425   -2.4799   -1.2785 C   0  0  0  0  0  0  0  0  0  0  0  0
   -1.0649   -3.5800   -1.2108 N   0  0  0  0  0  0  0  0  0  0  0  0
   -1.6112   -3.6160    0.0567 N   0  0  0  0  0  0  0  0  0  0  0  0
   -1.2054   -2.5277    0.6750 C   0  0  0  0  0  0  0  0  0  0  0  0
   -1.6425   -2.1163    2.3024 S   0  0  0  0  0  0  0  0  0  0  0  0
   -1.4288   -0.3153    2.2905 C   0  0  0  0  0  0  0  0  0  0  0  0
   -2.3978    0.4117    1.3885 C   0  0  0  0  0  0  0  0  0  0  0  0
   -1.9319    1.1315    0.2768 C   0  0  0  0  0  0  0  0  0  0  0  0
   -2.8255    1.8031   -0.5611 C   0  0  0  0  0  0  0  0  0  0  0  0
   -4.1907    1.7665   -0.2895 C   0  0  0  0  0  0  0  0  0  0  0  0
   -5.2905    2.5948   -1.3207 Cl  0  0  0  0  0  0  0  0  0  0  0  0
   -4.6699    1.0663    0.8146 C   0  0  0  0  0  0  0  0  0  0  0  0
   -3.7768    0.3938    1.6524 C   0  0  0  0  0  0  0  0  0  0  0  0
   -0.3701   -1.7710   -0.1038 O   0  0  0  0  0  0  0  0  0  0  0  0
    2.4746    1.1139    0.7432 C   0  0  0  0  0  0  0  0  0  0  0  0
    2.3618    2.4377    1.1815 C   0  0  0  0  0  0  0  0  0  0  0  0
    2.4277    2.7276    2.5448 C   0  0  0  0  0  0  0  0  0  0  0  0
    2.6176    1.6994    3.4687 C   0  0  0  0  0  0  0  0  0  0  0  0
    2.7517    0.3805    3.0335 C   0  0  0  0  0  0  0  0  0  0  0  0
    2.6844    0.0843    1.6710 C   0  0  0  0  0  0  0  0  0  0  0  0
    1.1561   -0.7393   -0.2359 H   0  0  0  0  0  0  0  0  0  0  0  0
    2.7200    0.4133   -3.4049 H   0  0  0  0  0  0  0  0  0  0  0  0
    2.2544   -0.5884   -5.5720 H   0  0  0  0  0  0  0  0  0  0  0  0
    0.6422   -2.4640   -5.7769 H   0  0  0  0  0  0  0  0  0  0  0  0
   -0.5206   -3.3117   -3.7822 H   0  0  0  0  0  0  0  0  0  0  0  0
   -0.3943   -0.0793    2.0211 H   0  0  0  0  0  0  0  0  0  0  0  0
   -1.5668    0.0514    3.3143 H   0  0  0  0  0  0  0  0  0  0  0  0
   -0.8696    1.1789    0.0487 H   0  0  0  0  0  0  0  0  0  0  0  0
   -2.4499    2.3520   -1.4211 H   0  0  0  0  0  0  0  0  0  0  0  0
   -5.7352    1.0381    1.0282 H   0  0  0  0  0  0  0  0  0  0  0  0
   -4.1679   -0.1492    2.5113 H   0  0  0  0  0  0  0  0  0  0  0  0
    2.2208    3.2425    0.4625 H   0  0  0  0  0  0  0  0  0  0  0  0
    2.3393    3.7567    2.8854 H   0  0  0  0  0  0  0  0  0  0  0  0
    2.6780    1.9301    4.5301 H   0  0  0  0  0  0  0  0  0  0  0  0
    2.9233   -0.4137    3.7567 H   0  0  0  0  0  0  0  0  0  0  0  0
    2.8237   -0.9437    1.3459 H   0  0  0  0  0  0  0  0  0  0  0  0
  1  2  2  0
  2  3  1  0
  3  4  1  0
  4  5  2  0
  5  6  1  0
  6  7  2  0
  7  8  1  0
  8  9  2  0
  9 10  1  0
 10 11  2  0
 11 12  1  0
 12 13  2  0
 13 14  1  0
 14 15  1  0
 15 16  1  0
 16 17  2  0
 17 18  1  0
 18 19  2  0
 19 20  1  0
 19 21  1  0
 21 22  2  0
 13 23  1  0
  2 24  1  0
 24 25  2  0
 25 26  1  0
 26 27  2  0
 27 28  1  0
 28 29  2  0
  9  4  1  0
 23 10  1  0
 29 24  1  0
 22 16  1  0
  3 30  1  0
  5 31  1  0
  6 32  1  0
  7 33  1  0
  8 34  1  0
 15 35  1  0
 15 36  1  0
 17 37  1  0
 18 38  1  0
 21 39  1  0
 22 40  1  0
 25 41  1  0
 26 42  1  0
 27 43  1  0
 28 44  1  0
 29 45  1  0
M  END
$$$$
