
     RDKit          3D

 57 60  0  0  0  0  0  0  0  0999 V2000
   -2.0584    0.4224   -1.8882 O   0  0  0  0  0  0  0  0  0  0  0  0
   -1.8259   -0.3742   -0.9868 C   0  0  0  0  0  0  0  0  0  0  0  0
   -0.5328   -1.1573   -0.8619 C   0  0  0  0  0  0  0  0  0  0  0  0
    0.4360   -0.8641   -2.0056 C   0  0  0  0  0  0  0  0  0  0  0  0
    1.7305   -1.6646   -1.8540 C   0  0  0  0  0  0  0  0  0  0  0  0
    2.6992   -1.3808   -3.0045 C   0  0  0  0  0  0  0  0  0  0  0  0
    3.9706   -2.2377   -2.9471 C   0  0  0  0  0  0  0  0  0  0  0  0
    4.8321   -1.9132   -1.8141 N   0  0  0  0  0  0  0  0  0  0  0  0
    4.7674   -2.7165   -0.6864 C   0  0  0  0  0  0  0  0  0  0  0  0
    4.0254   -3.6910   -0.5684 O   0  0  0  0  0  0  0  0  0  0  0  0
    5.5856   -2.3831    0.3552 N   0  0  0  0  0  0  0  0  0  0  0  0
    6.4556   -1.2978    0.3443 C   0  0  0  0  0  0  0  0  0  0  0  0
    7.2535   -1.0309    1.4570 C   0  0  0  0  0  0  0  0  0  0  0  0
    8.1223    0.0629    1.4370 C   0  0  0  0  0  0  0  0  0  0  0  0
    8.1920    0.8844    0.3103 C   0  0  0  0  0  0  0  0  0  0  0  0
    7.3923    0.6139   -0.8010 C   0  0  0  0  0  0  0  0  0  0  0  0
    6.5236   -0.4820   -0.7784 C   0  0  0  0  0  0  0  0  0  0  0  0
    5.6639   -0.7994   -1.9345 C   0  0  0  0  0  0  0  0  0  0  0  0
    5.7169   -0.0842   -2.9326 O   0  0  0  0  0  0  0  0  0  0  0  0
   -2.7155   -0.6507    0.0296 N   0  0  0  0  0  0  0  0  0  0  0  0
   -4.0043    0.0123    0.1199 C   0  0  0  0  0  0  0  0  0  0  0  0
   -3.8950    1.4258    0.6974 C   0  0  0  0  0  0  0  0  0  0  0  0
   -5.2351    2.0641    0.8829 C   0  0  0  0  0  0  0  0  0  0  0  0
   -5.8764    2.8903   -0.0193 C   0  0  0  0  0  0  0  0  0  0  0  0
   -7.0792    3.2621    0.5160 N   0  0  0  0  0  0  0  0  0  0  0  0
   -7.2441    2.6930    1.7569 C   0  0  0  0  0  0  0  0  0  0  0  0
   -8.3098    2.7916    2.6596 C   0  0  0  0  0  0  0  0  0  0  0  0
   -8.2032    2.0950    3.8667 C   0  0  0  0  0  0  0  0  0  0  0  0
   -7.0750    1.3319    4.1569 C   0  0  0  0  0  0  0  0  0  0  0  0
   -6.0185    1.2444    3.2427 C   0  0  0  0  0  0  0  0  0  0  0  0
   -6.1007    1.9369    2.0169 C   0  0  0  0  0  0  0  0  0  0  0  0
   -0.0677   -0.8980    0.0965 H   0  0  0  0  0  0  0  0  0  0  0  0
   -0.7790   -2.2256   -0.8467 H   0  0  0  0  0  0  0  0  0  0  0  0
    0.6657    0.2084   -2.0305 H   0  0  0  0  0  0  0  0  0  0  0  0
   -0.0405   -1.1076   -2.9634 H   0  0  0  0  0  0  0  0  0  0  0  0
    2.2003   -1.4069   -0.8980 H   0  0  0  0  0  0  0  0  0  0  0  0
    1.4968   -2.7356   -1.8261 H   0  0  0  0  0  0  0  0  0  0  0  0
    2.9608   -0.3161   -3.0071 H   0  0  0  0  0  0  0  0  0  0  0  0
    2.1927   -1.5861   -3.9557 H   0  0  0  0  0  0  0  0  0  0  0  0
    3.7022   -3.3001   -2.9266 H   0  0  0  0  0  0  0  0  0  0  0  0
    4.5420   -2.0766   -3.8696 H   0  0  0  0  0  0  0  0  0  0  0  0
    5.5223   -2.9857    1.1653 H   0  0  0  0  0  0  0  0  0  0  0  0
    7.2108   -1.6606    2.3415 H   0  0  0  0  0  0  0  0  0  0  0  0
    8.7471    0.2763    2.3016 H   0  0  0  0  0  0  0  0  0  0  0  0
    8.8691    1.7357    0.2971 H   0  0  0  0  0  0  0  0  0  0  0  0
    7.4471    1.2544   -1.6788 H   0  0  0  0  0  0  0  0  0  0  0  0
   -2.4342   -1.2668    0.7810 H   0  0  0  0  0  0  0  0  0  0  0  0
   -4.4532    0.0426   -0.8801 H   0  0  0  0  0  0  0  0  0  0  0  0
   -4.6407   -0.6180    0.7510 H   0  0  0  0  0  0  0  0  0  0  0  0
   -3.2779    2.0522    0.0411 H   0  0  0  0  0  0  0  0  0  0  0  0
   -3.3692    1.3919    1.6601 H   0  0  0  0  0  0  0  0  0  0  0  0
   -5.5751    3.2424   -0.9976 H   0  0  0  0  0  0  0  0  0  0  0  0
   -7.7537    3.8667    0.0684 H   0  0  0  0  0  0  0  0  0  0  0  0
   -9.1896    3.3861    2.4366 H   0  0  0  0  0  0  0  0  0  0  0  0
   -9.0139    2.1516    4.5895 H   0  0  0  0  0  0  0  0  0  0  0  0
   -7.0119    0.7994    5.1025 H   0  0  0  0  0  0  0  0  0  0  0  0
   -5.1435    0.6483    3.4815 H   0  0  0  0  0  0  0  0  0  0  0  0
  1  2  2  0
  2  3  1  0
  3  4  1  0
  4  5  1  0
  5  6  1  0
  6  7  1  0
  7  8  1  0
  8  9  1  0
  9 10  2  0
  9 11  1  0
 11 12  1  0
 12 13  2  0
 13 14  1  0
 14 15  2  0
 15 16  1  0
 16 17  2  0
 17 18  1  0
 18 19  2  0
  2 20  1  0
 20 21  1  0
 21 22  1  0
 22 23  1  0
 23 24  2  0
 24 25  1  0
 25 26  1  0
 26 27  2  0
 27 28  1  0
 28 29  2  0
 29 30  1  0
 30 31  2  0
 18  8  1  0
 31 23  1  0
 17 12  1  0
 31 26  1  0
  3 32  1  0
  3 33  1  0
  4 34  1  0
  4 35  1  0
  5 36  1  0
  5 37  1  0
  6 38  1  0
  6 39  1  0
  7 40  1  0
  7 41  1  0
 11 42  1  0
 13 43  1  0
 14 44  1  0
 15 45  1  0
 16 46  1  0
 20 47  1  0
 21 48  1  0
 21 49  1  0
 22 50  1  0
 22 51  1  0
 24 52  1  0
 25 53  1  0
 27 54  1  0
 28 55  1  0
 29 56  1  0
 30 57  1  0
M  END
$$$$
