
     RDKit          3D

 46 48  0  0  0  0  0  0  0  0999 V2000
    3.7401   -1.0868   -3.4619 C   0  0  0  0  0  0  0  0  0  0  0  0
    3.0921    0.1050   -2.7827 C   0  0  0  0  0  0  0  0  0  0  0  0
    2.7088   -0.2448   -1.4407 O   0  0  0  0  0  0  0  0  0  0  0  0
    3.6623   -0.0636   -0.4911 C   0  0  0  0  0  0  0  0  0  0  0  0
    4.7826    0.3779   -0.6951 O   0  0  0  0  0  0  0  0  0  0  0  0
    3.1649   -0.4351    0.8660 C   0  0  0  0  0  0  0  0  0  0  0  0
    3.8905    0.1219    1.9380 C   0  0  0  0  0  0  0  0  0  0  0  0
    3.5429   -0.1526    3.2579 C   0  0  0  0  0  0  0  0  0  0  0  0
    2.4687   -0.9902    3.5198 C   0  0  0  0  0  0  0  0  0  0  0  0
    1.7436   -1.5570    2.4667 C   0  0  0  0  0  0  0  0  0  0  0  0
    2.0752   -1.2996    1.1283 C   0  0  0  0  0  0  0  0  0  0  0  0
    1.3419   -1.8772    0.0623 N   0  0  0  0  0  0  0  0  0  0  0  0
    0.3121   -2.8002    0.1171 C   0  0  0  0  0  0  0  0  0  0  0  0
   -0.0618   -3.3915    1.1269 O   0  0  0  0  0  0  0  0  0  0  0  0
   -0.2944   -3.1548   -1.2375 C   0  0  0  0  0  0  0  0  0  0  0  0
   -0.3630   -1.7533   -2.4050 S   0  0  0  0  0  0  0  0  0  0  0  0
   -1.4374   -0.6519   -1.5131 C   0  0  0  0  0  0  0  0  0  0  0  0
   -1.3305    0.7150   -1.6909 C   0  0  0  0  0  0  0  0  0  0  0  0
   -2.1807    1.5578   -0.9739 C   0  0  0  0  0  0  0  0  0  0  0  0
   -3.1185    1.0089   -0.1077 C   0  0  0  0  0  0  0  0  0  0  0  0
   -4.0607    1.8015    0.6940 C   0  0  0  0  0  0  0  0  0  0  0  0
   -3.7785    3.0982    1.1517 C   0  0  0  0  0  0  0  0  0  0  0  0
   -4.7147    3.8059    1.9072 C   0  0  0  0  0  0  0  0  0  0  0  0
   -5.9246    3.1990    2.1910 C   0  0  0  0  0  0  0  0  0  0  0  0
   -6.2468    1.9573    1.7799 N   0  0  0  0  0  0  0  0  0  0  0  0
   -5.3111    1.2919    1.0548 C   0  0  0  0  0  0  0  0  0  0  0  0
   -3.2021   -0.3343    0.0218 N   0  0  0  0  0  0  0  0  0  0  0  0
   -2.3595   -1.1671   -0.6823 N   0  0  0  0  0  0  0  0  0  0  0  0
    3.9759   -0.8597   -4.5060 H   0  0  0  0  0  0  0  0  0  0  0  0
    4.6626   -1.3749   -2.9480 H   0  0  0  0  0  0  0  0  0  0  0  0
    3.0744   -1.9558   -3.4299 H   0  0  0  0  0  0  0  0  0  0  0  0
    2.1763    0.3805   -3.3151 H   0  0  0  0  0  0  0  0  0  0  0  0
    3.7475    0.9830   -2.7979 H   0  0  0  0  0  0  0  0  0  0  0  0
    4.7382    0.7779    1.7452 H   0  0  0  0  0  0  0  0  0  0  0  0
    4.1090    0.2841    4.0760 H   0  0  0  0  0  0  0  0  0  0  0  0
    2.1857   -1.2115    4.5464 H   0  0  0  0  0  0  0  0  0  0  0  0
    0.9065   -2.1949    2.7356 H   0  0  0  0  0  0  0  0  0  0  0  0
    1.5892   -1.5472   -0.8687 H   0  0  0  0  0  0  0  0  0  0  0  0
    0.3236   -3.9407   -1.6827 H   0  0  0  0  0  0  0  0  0  0  0  0
   -1.3004   -3.5592   -1.0905 H   0  0  0  0  0  0  0  0  0  0  0  0
   -0.5983    1.1351   -2.3719 H   0  0  0  0  0  0  0  0  0  0  0  0
   -2.1074    2.6306   -1.1158 H   0  0  0  0  0  0  0  0  0  0  0  0
   -2.8205    3.5688    0.9459 H   0  0  0  0  0  0  0  0  0  0  0  0
   -4.5008    4.8051    2.2706 H   0  0  0  0  0  0  0  0  0  0  0  0
   -6.6858    3.7072    2.7758 H   0  0  0  0  0  0  0  0  0  0  0  0
   -5.6173    0.2914    0.7517 H   0  0  0  0  0  0  0  0  0  0  0  0
  1  2  1  0
  2  3  1  0
  3  4  1  0
  4  5  2  0
  4  6  1  0
  6  7  2  0
  7  8  1  0
  8  9  2  0
  9 10  1  0
 10 11  2  0
 11 12  1  0
 12 13  1  0
 13 14  2  0
 13 15  1  0
 15 16  1  0
 16 17  1  0
 17 18  2  0
 18 19  1  0
 19 20  2  0
 20 21  1  0
 21 22  2  0
 22 23  1  0
 23 24  2  0
 24 25  1  0
 25 26  2  0
 20 27  1  0
 27 28  2  0
 11  6  1  0
 28 17  1  0
 26 21  1  0
  1 29  1  0
  1 30  1  0
  1 31  1  0
  2 32  1  0
  2 33  1  0
  7 34  1  0
  8 35  1  0
  9 36  1  0
 10 37  1  0
 12 38  1  0
 15 39  1  0
 15 40  1  0
 18 41  1  0
 19 42  1  0
 22 43  1  0
 23 44  1  0
 24 45  1  0
 26 46  1  0
M  END
$$$$
