
     RDKit          3D

 41 43  0  0  0  0  0  0  0  0999 V2000
   -2.9707   -0.4905    1.4809 C   0  0  0  0  0  0  0  0  0  0  0  0
   -2.5246    0.1227    0.1776 C   0  0  0  0  0  0  0  0  0  0  0  0
   -3.3973    0.4513   -0.8008 C   0  0  0  0  0  0  0  0  0  0  0  0
   -4.8504    0.2694   -0.7457 C   0  0  0  0  0  0  0  0  0  0  0  0
   -5.4265   -0.9259   -1.1882 C   0  0  0  0  0  0  0  0  0  0  0  0
   -6.8106   -1.0994   -1.1324 C   0  0  0  0  0  0  0  0  0  0  0  0
   -7.6224   -0.0803   -0.6350 C   0  0  0  0  0  0  0  0  0  0  0  0
   -7.0522    1.1130   -0.1925 C   0  0  0  0  0  0  0  0  0  0  0  0
   -5.6683    1.2888   -0.2472 C   0  0  0  0  0  0  0  0  0  0  0  0
   -1.1000    0.3801   -0.0668 C   0  0  0  0  0  0  0  0  0  0  0  0
    0.0005    0.1838    0.6773 C   0  0  0  0  0  0  0  0  0  0  0  0
    0.1724   -0.4635    2.2649 S   0  0  0  0  0  0  0  0  0  0  0  0
    1.9243   -0.2965    2.2742 C   0  0  0  0  0  0  0  0  0  0  0  0
    2.8796   -0.6930    3.5828 S   0  0  0  0  0  0  0  0  0  0  0  0
    2.3150    0.2386    1.0667 N   0  0  0  0  0  0  0  0  0  0  0  0
    3.6681    0.4296    0.7238 N   0  0  0  0  0  0  0  0  0  0  0  0
    4.2786   -0.6236    0.0619 C   0  0  0  0  0  0  0  0  0  0  0  0
    3.7713   -1.7340   -0.0609 O   0  0  0  0  0  0  0  0  0  0  0  0
    5.6007   -0.3319   -0.5491 C   0  0  0  0  0  0  0  0  0  0  0  0
    6.4505    0.6499   -0.0374 C   0  0  0  0  0  0  0  0  0  0  0  0
    7.6646    0.8448   -0.6716 C   0  0  0  0  0  0  0  0  0  0  0  0
    8.0682    0.1418   -1.7505 N   0  0  0  0  0  0  0  0  0  0  0  0
    7.2336   -0.8141   -2.2121 C   0  0  0  0  0  0  0  0  0  0  0  0
    6.0023   -1.0898   -1.6492 C   0  0  0  0  0  0  0  0  0  0  0  0
    1.3429    0.5616    0.1378 C   0  0  0  0  0  0  0  0  0  0  0  0
    1.5376    1.1126   -0.9388 O   0  0  0  0  0  0  0  0  0  0  0  0
   -2.5203   -1.4789    1.6170 H   0  0  0  0  0  0  0  0  0  0  0  0
   -2.7064    0.1572    2.3229 H   0  0  0  0  0  0  0  0  0  0  0  0
   -4.0527   -0.6401    1.5424 H   0  0  0  0  0  0  0  0  0  0  0  0
   -3.0598    0.8920   -1.7374 H   0  0  0  0  0  0  0  0  0  0  0  0
   -4.8018   -1.7274   -1.5751 H   0  0  0  0  0  0  0  0  0  0  0  0
   -7.2550   -2.0298   -1.4761 H   0  0  0  0  0  0  0  0  0  0  0  0
   -8.6999   -0.2166   -0.5915 H   0  0  0  0  0  0  0  0  0  0  0  0
   -7.6850    1.9065    0.1962 H   0  0  0  0  0  0  0  0  0  0  0  0
   -5.2330    2.2216    0.1026 H   0  0  0  0  0  0  0  0  0  0  0  0
   -0.9159    0.8149   -1.0544 H   0  0  0  0  0  0  0  0  0  0  0  0
    3.8979    1.3761    0.4372 H   0  0  0  0  0  0  0  0  0  0  0  0
    6.2067    1.2324    0.8428 H   0  0  0  0  0  0  0  0  0  0  0  0
    8.3719    1.5895   -0.3161 H   0  0  0  0  0  0  0  0  0  0  0  0
    7.5944   -1.3701   -3.0731 H   0  0  0  0  0  0  0  0  0  0  0  0
    5.3718   -1.8728   -2.0586 H   0  0  0  0  0  0  0  0  0  0  0  0
  1  2  1  0
  2  3  2  3
  3  4  1  0
  4  5  2  0
  5  6  1  0
  6  7  2  0
  7  8  1  0
  8  9  2  0
  2 10  1  0
 10 11  2  3
 11 12  1  0
 12 13  1  0
 13 14  2  0
 13 15  1  0
 15 16  1  0
 16 17  1  0
 17 18  2  0
 17 19  1  0
 19 20  2  0
 20 21  1  0
 21 22  2  0
 22 23  1  0
 23 24  2  0
 15 25  1  0
 25 26  2  0
  9  4  1  0
 25 11  1  0
 24 19  1  0
  1 27  1  0
  1 28  1  0
  1 29  1  0
  3 30  1  0
  5 31  1  0
  6 32  1  0
  7 33  1  0
  8 34  1  0
  9 35  1  0
 10 36  1  0
 16 37  1  0
 20 38  1  0
 21 39  1  0
 23 40  1  0
 24 41  1  0
M  END
$$$$
