
     RDKit          3D

 50 53  0  0  0  0  0  0  0  0999 V2000
   -5.4980   -0.8444    1.4935 C   0  0  0  0  0  0  0  0  0  0  0  0
   -4.5835   -0.0006    0.6073 C   0  0  0  0  0  0  0  0  0  0  0  0
   -4.6674   -0.4621   -0.8516 C   0  0  0  0  0  0  0  0  0  0  0  0
   -3.7323    0.3775   -1.7285 C   0  0  0  0  0  0  0  0  0  0  0  0
   -3.7936   -0.0878   -3.1823 C   0  0  0  0  0  0  0  0  0  0  0  0
   -2.2909    0.3187   -1.1998 C   0  0  0  0  0  0  0  0  0  0  0  0
   -2.2478    0.6917    0.2165 N   0  0  0  0  0  0  0  0  0  0  0  0
   -0.9490    0.8484    0.7160 C   0  0  0  0  0  0  0  0  0  0  0  0
   -0.7346    0.7306    2.0391 N   0  0  0  0  0  0  0  0  0  0  0  0
    0.5195    0.9203    2.5033 C   0  0  0  0  0  0  0  0  0  0  0  0
    1.5806    1.2245    1.6908 C   0  0  0  0  0  0  0  0  0  0  0  0
    1.2985    1.3221    0.3491 C   0  0  0  0  0  0  0  0  0  0  0  0
    0.0505    1.1403   -0.1407 N   0  0  0  0  0  0  0  0  0  0  0  0
    2.3751    1.6492   -0.6507 C   0  0  0  0  0  0  0  0  0  0  0  0
    3.7791    1.2366   -0.1703 C   0  0  0  0  0  0  0  0  0  0  0  0
    4.1241   -0.2511   -0.2495 C   0  0  0  0  0  0  0  0  0  0  0  0
    3.1812   -1.2583   -0.5083 C   0  0  0  0  0  0  0  0  0  0  0  0
    3.5636   -2.6035   -0.5692 C   0  0  0  0  0  0  0  0  0  0  0  0
    4.8948   -2.9594   -0.3808 C   0  0  0  0  0  0  0  0  0  0  0  0
    5.3602   -4.6131   -0.4590 Cl  0  0  0  0  0  0  0  0  0  0  0  0
    5.8504   -1.9806   -0.1359 C   0  0  0  0  0  0  0  0  0  0  0  0
    5.4674   -0.6378   -0.0749 C   0  0  0  0  0  0  0  0  0  0  0  0
    4.0209    1.8130    1.2352 C   0  0  0  0  0  0  0  0  0  0  0  0
    2.9357    1.4306    2.2169 C   0  0  0  0  0  0  0  0  0  0  0  0
    3.1425    1.3574    3.4241 O   0  0  0  0  0  0  0  0  0  0  0  0
   -3.1339   -0.0562    1.1137 C   0  0  0  0  0  0  0  0  0  0  0  0
   -5.4637   -0.4952    2.5308 H   0  0  0  0  0  0  0  0  0  0  0  0
   -5.2027   -1.8991    1.4811 H   0  0  0  0  0  0  0  0  0  0  0  0
   -6.5366   -0.7795    1.1526 H   0  0  0  0  0  0  0  0  0  0  0  0
   -4.9288    1.0412    0.6581 H   0  0  0  0  0  0  0  0  0  0  0  0
   -5.6991   -0.3669   -1.2122 H   0  0  0  0  0  0  0  0  0  0  0  0
   -4.3994   -1.5243   -0.9259 H   0  0  0  0  0  0  0  0  0  0  0  0
   -4.0727    1.4214   -1.6918 H   0  0  0  0  0  0  0  0  0  0  0  0
   -3.1504    0.5319   -3.8158 H   0  0  0  0  0  0  0  0  0  0  0  0
   -3.4661   -1.1283   -3.2819 H   0  0  0  0  0  0  0  0  0  0  0  0
   -4.8151   -0.0158   -3.5701 H   0  0  0  0  0  0  0  0  0  0  0  0
   -1.8793   -0.6909   -1.3342 H   0  0  0  0  0  0  0  0  0  0  0  0
   -1.6932    1.0086   -1.8096 H   0  0  0  0  0  0  0  0  0  0  0  0
    0.6350    0.8177    3.5789 H   0  0  0  0  0  0  0  0  0  0  0  0
    2.1453    1.1886   -1.6191 H   0  0  0  0  0  0  0  0  0  0  0  0
    2.3540    2.7361   -0.8043 H   0  0  0  0  0  0  0  0  0  0  0  0
    4.4857    1.7272   -0.8562 H   0  0  0  0  0  0  0  0  0  0  0  0
    2.1303   -1.0355   -0.6752 H   0  0  0  0  0  0  0  0  0  0  0  0
    2.8145   -3.3660   -0.7673 H   0  0  0  0  0  0  0  0  0  0  0  0
    6.8930   -2.2517    0.0069 H   0  0  0  0  0  0  0  0  0  0  0  0
    6.2373    0.1102    0.1092 H   0  0  0  0  0  0  0  0  0  0  0  0
    4.0424    2.9091    1.1909 H   0  0  0  0  0  0  0  0  0  0  0  0
    4.9823    1.4828    1.6433 H   0  0  0  0  0  0  0  0  0  0  0  0
   -2.7989   -1.0998    1.1877 H   0  0  0  0  0  0  0  0  0  0  0  0
   -3.1267    0.3723    2.1244 H   0  0  0  0  0  0  0  0  0  0  0  0
  1  2  1  0
  2  3  1  0
  3  4  1  0
  4  5  1  0
  4  6  1  0
  6  7  1  0
  7  8  1  0
  8  9  2  0
  9 10  1  0
 10 11  2  0
 11 12  1  0
 12 13  2  0
 12 14  1  0
 14 15  1  0
 15 16  1  0
 16 17  2  0
 17 18  1  0
 18 19  2  0
 19 20  1  0
 19 21  1  0
 21 22  2  0
 15 23  1  0
 23 24  1  0
 24 25  2  0
  7 26  1  0
 26  2  1  0
 13  8  1  0
 22 16  1  0
 24 11  1  0
  1 27  1  0
  1 28  1  0
  1 29  1  0
  2 30  1  0
  3 31  1  0
  3 32  1  0
  4 33  1  0
  5 34  1  0
  5 35  1  0
  5 36  1  0
  6 37  1  0
  6 38  1  0
 10 39  1  0
 14 40  1  0
 14 41  1  0
 15 42  1  0
 17 43  1  0
 18 44  1  0
 21 45  1  0
 22 46  1  0
 23 47  1  0
 23 48  1  0
 26 49  1  0
 26 50  1  0
M  END
$$$$
