
     RDKit          3D

 54 57  0  0  0  0  0  0  0  0999 V2000
   -2.9051    5.6299   -2.1346 C   0  0  0  0  0  0  0  0  0  0  0  0
   -3.0249    4.1905   -1.9919 N   0  0  0  0  0  0  0  0  0  0  0  0
   -1.9627    3.5168   -1.4020 C   0  0  0  0  0  0  0  0  0  0  0  0
   -1.0147    4.1069   -0.8918 O   0  0  0  0  0  0  0  0  0  0  0  0
   -2.0532    2.0510   -1.3672 C   0  0  0  0  0  0  0  0  0  0  0  0
   -1.0191    1.1744   -1.0701 C   0  0  0  0  0  0  0  0  0  0  0  0
    0.6816    1.6729   -0.8230 S   0  0  0  0  0  0  0  0  0  0  0  0
    1.3158    0.2554    0.1219 C   0  0  0  0  0  0  0  0  0  0  0  0
    2.7574    0.5065    0.5321 C   0  0  0  0  0  0  0  0  0  0  0  0
    3.6706    0.6636   -0.2757 O   0  0  0  0  0  0  0  0  0  0  0  0
    2.9656    0.5303    1.8985 N   0  0  0  0  0  0  0  0  0  0  0  0
    4.3138    0.5832    2.4387 C   0  0  0  0  0  0  0  0  0  0  0  0
    4.9902   -0.7894    2.4004 C   0  0  0  0  0  0  0  0  0  0  0  0
    6.4340   -0.7591    2.8680 C   0  0  0  0  0  0  0  0  0  0  0  0
    6.6343   -2.1838    3.3173 C   0  0  0  0  0  0  0  0  0  0  0  0
    5.2957   -2.5131    3.9463 C   0  0  0  0  0  0  0  0  0  0  0  0
    4.3081   -1.6979    3.2966 O   0  0  0  0  0  0  0  0  0  0  0  0
   -1.2053   -0.1657   -1.0278 N   0  0  0  0  0  0  0  0  0  0  0  0
   -2.4306   -0.6391   -1.2706 C   0  0  0  0  0  0  0  0  0  0  0  0
   -2.6347   -2.0926   -1.2960 C   0  0  0  0  0  0  0  0  0  0  0  0
   -3.3823   -2.6602   -2.3531 C   0  0  0  0  0  0  0  0  0  0  0  0
   -3.5984   -4.0373   -2.4484 C   0  0  0  0  0  0  0  0  0  0  0  0
   -3.0690   -4.8880   -1.4872 C   0  0  0  0  0  0  0  0  0  0  0  0
   -2.3301   -4.3597   -0.4304 C   0  0  0  0  0  0  0  0  0  0  0  0
   -2.1185   -2.9764   -0.3296 C   0  0  0  0  0  0  0  0  0  0  0  0
   -1.2373   -2.4404    1.0650 Cl  0  0  0  0  0  0  0  0  0  0  0  0
   -3.4723    0.1361   -1.5965 N   0  0  0  0  0  0  0  0  0  0  0  0
   -3.2714    1.4712   -1.6437 C   0  0  0  0  0  0  0  0  0  0  0  0
   -4.3782    2.2712   -2.0004 N   0  0  0  0  0  0  0  0  0  0  0  0
   -5.6467    1.6011   -2.2442 C   0  0  0  0  0  0  0  0  0  0  0  0
   -4.2765    3.6331   -2.2037 C   0  0  0  0  0  0  0  0  0  0  0  0
   -5.2450    4.3147   -2.5399 O   0  0  0  0  0  0  0  0  0  0  0  0
   -3.2386    6.0996   -1.2037 H   0  0  0  0  0  0  0  0  0  0  0  0
   -3.5263    5.9957   -2.9572 H   0  0  0  0  0  0  0  0  0  0  0  0
   -1.8641    5.9157   -2.3259 H   0  0  0  0  0  0  0  0  0  0  0  0
    0.6961    0.0992    1.0041 H   0  0  0  0  0  0  0  0  0  0  0  0
    1.3002   -0.6510   -0.4862 H   0  0  0  0  0  0  0  0  0  0  0  0
    2.2672    0.1097    2.4982 H   0  0  0  0  0  0  0  0  0  0  0  0
    4.8936    1.3203    1.8699 H   0  0  0  0  0  0  0  0  0  0  0  0
    4.2134    0.9333    3.4725 H   0  0  0  0  0  0  0  0  0  0  0  0
    4.9282   -1.2282    1.3971 H   0  0  0  0  0  0  0  0  0  0  0  0
    6.5582   -0.0816    3.7212 H   0  0  0  0  0  0  0  0  0  0  0  0
    7.1292   -0.4524    2.0806 H   0  0  0  0  0  0  0  0  0  0  0  0
    7.4751   -2.3148    4.0054 H   0  0  0  0  0  0  0  0  0  0  0  0
    6.8033   -2.8305    2.4469 H   0  0  0  0  0  0  0  0  0  0  0  0
    5.2843   -2.2681    5.0141 H   0  0  0  0  0  0  0  0  0  0  0  0
    5.0386   -3.5720    3.8242 H   0  0  0  0  0  0  0  0  0  0  0  0
   -3.8015   -2.0180   -3.1265 H   0  0  0  0  0  0  0  0  0  0  0  0
   -4.1739   -4.4415   -3.2773 H   0  0  0  0  0  0  0  0  0  0  0  0
   -3.2276   -5.9603   -1.5570 H   0  0  0  0  0  0  0  0  0  0  0  0
   -1.9225   -5.0359    0.3193 H   0  0  0  0  0  0  0  0  0  0  0  0
   -6.4648    2.3135   -2.3753 H   0  0  0  0  0  0  0  0  0  0  0  0
   -5.5610    1.0039   -3.1576 H   0  0  0  0  0  0  0  0  0  0  0  0
   -5.8982    0.9574   -1.3956 H   0  0  0  0  0  0  0  0  0  0  0  0
  1  2  1  0
  2  3  1  0
  3  4  2  0
  3  5  1  0
  5  6  2  0
  6  7  1  0
  7  8  1  0
  8  9  1  0
  9 10  2  0
  9 11  1  0
 11 12  1  0
 12 13  1  0
 13 14  1  0
 14 15  1  0
 15 16  1  0
 16 17  1  0
  6 18  1  0
 18 19  2  0
 19 20  1  0
 20 21  2  0
 21 22  1  0
 22 23  2  0
 23 24  1  0
 24 25  2  0
 25 26  1  0
 19 27  1  0
 27 28  2  0
 28 29  1  0
 29 30  1  0
 29 31  1  0
 31 32  2  0
 31  2  1  0
 28  5  1  0
 17 13  1  0
 25 20  1  0
  1 33  1  0
  1 34  1  0
  1 35  1  0
  8 36  1  0
  8 37  1  0
 11 38  1  0
 12 39  1  0
 12 40  1  0
 13 41  1  0
 14 42  1  0
 14 43  1  0
 15 44  1  0
 15 45  1  0
 16 46  1  0
 16 47  1  0
 21 48  1  0
 22 49  1  0
 23 50  1  0
 24 51  1  0
 30 52  1  0
 30 53  1  0
 30 54  1  0
M  END
$$$$
