
     RDKit          3D

 36 37  0  0  0  0  0  0  0  0999 V2000
   -5.1810    1.4731   -1.4736 C   0  0  0  0  0  0  0  0  0  0  0  0
   -4.1319    0.6670   -0.8772 N   0  0  0  0  0  0  0  0  0  0  0  0
   -4.4874   -0.2162    0.1340 C   0  0  0  0  0  0  0  0  0  0  0  0
   -5.6380   -0.3483    0.5465 O   0  0  0  0  0  0  0  0  0  0  0  0
   -3.3905   -1.0110    0.7288 C   0  0  0  0  0  0  0  0  0  0  0  0
   -3.6688   -1.9654    1.7405 C   0  0  0  0  0  0  0  0  0  0  0  0
   -3.8284   -2.7633    2.5683 N   0  0  0  0  0  0  0  0  0  0  0  0
   -2.1442   -0.7966    0.2969 C   0  0  0  0  0  0  0  0  0  0  0  0
   -1.8490    0.1292   -0.6797 N   0  0  0  0  0  0  0  0  0  0  0  0
   -0.4446    0.3443   -1.0523 C   0  0  0  0  0  0  0  0  0  0  0  0
    0.1976    1.4976   -0.2624 C   0  0  0  0  0  0  0  0  0  0  0  0
    1.6185    1.6651   -0.5602 N   0  0  0  0  0  0  0  0  0  0  0  0
    2.5042    0.7066   -0.0507 C   0  0  0  0  0  0  0  0  0  0  0  0
    2.0374   -0.2180    0.8227 N   0  0  0  0  0  0  0  0  0  0  0  0
    2.9172   -1.0959    1.3644 C   0  0  0  0  0  0  0  0  0  0  0  0
    4.2744   -1.1101    1.0858 C   0  0  0  0  0  0  0  0  0  0  0  0
    5.1621   -2.1364    1.7170 C   0  0  0  0  0  0  0  0  0  0  0  0
    4.8120   -2.4225    3.0004 F   0  0  0  0  0  0  0  0  0  0  0  0
    6.4691   -1.7600    1.7606 F   0  0  0  0  0  0  0  0  0  0  0  0
    5.1338   -3.3202    1.0474 F   0  0  0  0  0  0  0  0  0  0  0  0
    4.7518   -0.1623    0.1789 C   0  0  0  0  0  0  0  0  0  0  0  0
    3.8672    0.7568   -0.3860 C   0  0  0  0  0  0  0  0  0  0  0  0
    4.4863    1.9152   -1.5081 Cl  0  0  0  0  0  0  0  0  0  0  0  0
   -2.8227    0.9287   -1.2736 C   0  0  0  0  0  0  0  0  0  0  0  0
   -2.5336    1.8108   -2.0818 O   0  0  0  0  0  0  0  0  0  0  0  0
   -6.1507    0.9703   -1.4187 H   0  0  0  0  0  0  0  0  0  0  0  0
   -5.2392    2.4195   -0.9265 H   0  0  0  0  0  0  0  0  0  0  0  0
   -4.9552    1.6858   -2.5231 H   0  0  0  0  0  0  0  0  0  0  0  0
   -1.3018   -1.3477    0.7131 H   0  0  0  0  0  0  0  0  0  0  0  0
   -0.3948    0.5720   -2.1248 H   0  0  0  0  0  0  0  0  0  0  0  0
    0.1018   -0.5965   -0.9208 H   0  0  0  0  0  0  0  0  0  0  0  0
    0.0381    1.3716    0.8162 H   0  0  0  0  0  0  0  0  0  0  0  0
   -0.3081    2.4348   -0.5236 H   0  0  0  0  0  0  0  0  0  0  0  0
    1.8154    1.8660   -1.5380 H   0  0  0  0  0  0  0  0  0  0  0  0
    2.4748   -1.8093    2.0581 H   0  0  0  0  0  0  0  0  0  0  0  0
    5.8080   -0.1345   -0.0820 H   0  0  0  0  0  0  0  0  0  0  0  0
  1  2  1  0
  2  3  1  0
  3  4  2  0
  3  5  1  0
  5  6  1  0
  6  7  3  0
  5  8  2  0
  8  9  1  0
  9 10  1  0
 10 11  1  0
 11 12  1  0
 12 13  1  0
 13 14  2  0
 14 15  1  0
 15 16  2  0
 16 17  1  0
 17 18  1  0
 17 19  1  0
 17 20  1  0
 16 21  1  0
 21 22  2  0
 22 23  1  0
  9 24  1  0
 24 25  2  0
 24  2  1  0
 22 13  1  0
  1 26  1  0
  1 27  1  0
  1 28  1  0
  8 29  1  0
 10 30  1  0
 10 31  1  0
 11 32  1  0
 11 33  1  0
 12 34  1  0
 15 35  1  0
 21 36  1  0
M  END
$$$$
