
     RDKit          3D

 52 54  0  0  0  0  0  0  0  0999 V2000
    3.4433   -0.5114   -0.3063 O   0  0  0  0  0  0  0  0  0  0  0  0
    2.3647   -0.6838    0.2464 C   0  0  0  0  0  0  0  0  0  0  0  0
    2.0147   -1.7094    1.1008 N   0  0  0  0  0  0  0  0  0  0  0  0
    2.8104   -2.7851    1.5367 C   0  0  0  0  0  0  0  0  0  0  0  0
    2.2238   -3.6967    2.4241 C   0  0  0  0  0  0  0  0  0  0  0  0
    2.9479   -4.7908    2.9046 C   0  0  0  0  0  0  0  0  0  0  0  0
    4.2671   -4.9819    2.5049 C   0  0  0  0  0  0  0  0  0  0  0  0
    4.8577   -4.0821    1.6201 C   0  0  0  0  0  0  0  0  0  0  0  0
    4.1336   -2.9858    1.1403 C   0  0  0  0  0  0  0  0  0  0  0  0
    1.2096    0.2669    0.0374 C   0  0  0  0  0  0  0  0  0  0  0  0
    1.4074    1.3825   -0.6840 C   0  0  0  0  0  0  0  0  0  0  0  0
    0.3335    2.4150   -0.8845 C   0  0  0  0  0  0  0  0  0  0  0  0
    0.8481    3.8356   -0.7253 C   0  0  0  0  0  0  0  0  0  0  0  0
    0.7161    4.7519   -1.7802 C   0  0  0  0  0  0  0  0  0  0  0  0
    1.1851    6.0607   -1.6504 C   0  0  0  0  0  0  0  0  0  0  0  0
    1.7915    6.4710   -0.4655 C   0  0  0  0  0  0  0  0  0  0  0  0
    1.9294    5.5741    0.5910 C   0  0  0  0  0  0  0  0  0  0  0  0
    1.4613    4.2654    0.4631 C   0  0  0  0  0  0  0  0  0  0  0  0
   -0.8584    2.1443    0.0384 C   0  0  0  0  0  0  0  0  0  0  0  0
   -1.1298    0.6446    0.0771 C   0  0  0  0  0  0  0  0  0  0  0  0
   -2.2783    0.4462    0.9054 O   0  0  0  0  0  0  0  0  0  0  0  0
   -2.8027   -0.8787    0.8592 C   0  0  0  0  0  0  0  0  0  0  0  0
   -3.7454   -1.0566   -0.3292 C   0  0  0  0  0  0  0  0  0  0  0  0
   -4.3958   -2.4413   -0.3209 C   0  0  0  0  0  0  0  0  0  0  0  0
   -5.3347   -2.6454   -1.5034 C   0  0  0  0  0  0  0  0  0  0  0  0
   -6.4064   -1.7175   -1.4310 O   0  0  0  0  0  0  0  0  0  0  0  0
   -0.0061   -0.0657    0.6136 O   0  0  0  0  0  0  0  0  0  0  0  0
    1.0693   -1.6587    1.4659 H   0  0  0  0  0  0  0  0  0  0  0  0
    1.1970   -3.5669    2.7555 H   0  0  0  0  0  0  0  0  0  0  0  0
    2.4815   -5.4914    3.5919 H   0  0  0  0  0  0  0  0  0  0  0  0
    4.8343   -5.8308    2.8775 H   0  0  0  0  0  0  0  0  0  0  0  0
    5.8873   -4.2271    1.3024 H   0  0  0  0  0  0  0  0  0  0  0  0
    4.6337   -2.3068    0.4577 H   0  0  0  0  0  0  0  0  0  0  0  0
    2.3815    1.5801   -1.1295 H   0  0  0  0  0  0  0  0  0  0  0  0
   -0.0106    2.2902   -1.9210 H   0  0  0  0  0  0  0  0  0  0  0  0
    0.2487    4.4534   -2.7159 H   0  0  0  0  0  0  0  0  0  0  0  0
    1.0794    6.7593   -2.4761 H   0  0  0  0  0  0  0  0  0  0  0  0
    2.1600    7.4874   -0.3662 H   0  0  0  0  0  0  0  0  0  0  0  0
    2.4047    5.8913    1.5155 H   0  0  0  0  0  0  0  0  0  0  0  0
    1.5845    3.5801    1.2992 H   0  0  0  0  0  0  0  0  0  0  0  0
   -1.7459    2.6923   -0.3018 H   0  0  0  0  0  0  0  0  0  0  0  0
   -0.6609    2.4957    1.0601 H   0  0  0  0  0  0  0  0  0  0  0  0
   -1.3389    0.2750   -0.9348 H   0  0  0  0  0  0  0  0  0  0  0  0
   -1.9966   -1.6217    0.8487 H   0  0  0  0  0  0  0  0  0  0  0  0
   -3.3636   -1.0240    1.7885 H   0  0  0  0  0  0  0  0  0  0  0  0
   -4.5090   -0.2697   -0.3013 H   0  0  0  0  0  0  0  0  0  0  0  0
   -3.1999   -0.9123   -1.2686 H   0  0  0  0  0  0  0  0  0  0  0  0
   -4.9606   -2.5621    0.6114 H   0  0  0  0  0  0  0  0  0  0  0  0
   -3.6190   -3.2141   -0.3421 H   0  0  0  0  0  0  0  0  0  0  0  0
   -5.7516   -3.6575   -1.4799 H   0  0  0  0  0  0  0  0  0  0  0  0
   -4.8078   -2.5040   -2.4520 H   0  0  0  0  0  0  0  0  0  0  0  0
   -6.9848   -1.8839   -2.1956 H   0  0  0  0  0  0  0  0  0  0  0  0
  1  2  2  0
  2  3  1  0
  3  4  1  0
  4  5  2  0
  5  6  1  0
  6  7  2  0
  7  8  1  0
  8  9  2  0
  2 10  1  0
 10 11  2  0
 11 12  1  0
 12 13  1  0
 13 14  2  0
 14 15  1  0
 15 16  2  0
 16 17  1  0
 17 18  2  0
 12 19  1  0
 19 20  1  0
 20 21  1  0
 21 22  1  0
 22 23  1  0
 23 24  1  0
 24 25  1  0
 25 26  1  0
 20 27  1  0
  9  4  1  0
 27 10  1  0
 18 13  1  0
  3 28  1  0
  5 29  1  0
  6 30  1  0
  7 31  1  0
  8 32  1  0
  9 33  1  0
 11 34  1  0
 12 35  1  0
 14 36  1  0
 15 37  1  0
 16 38  1  0
 17 39  1  0
 18 40  1  0
 19 41  1  0
 19 42  1  0
 20 43  1  0
 22 44  1  0
 22 45  1  0
 23 46  1  0
 23 47  1  0
 24 48  1  0
 24 49  1  0
 25 50  1  0
 25 51  1  0
 26 52  1  0
M  END
$$$$
