
     RDKit          3D

 55 57  0  0  0  0  0  0  0  0999 V2000
    5.7639    1.3867   -3.7463 C   0  0  0  0  0  0  0  0  0  0  0  0
    5.9402    1.0574   -2.3745 O   0  0  0  0  0  0  0  0  0  0  0  0
    4.8053    0.8592   -1.6376 C   0  0  0  0  0  0  0  0  0  0  0  0
    3.4956    0.9584   -2.1030 C   0  0  0  0  0  0  0  0  0  0  0  0
    2.4187    0.7283   -1.2377 C   0  0  0  0  0  0  0  0  0  0  0  0
    2.6317    0.4000    0.1107 C   0  0  0  0  0  0  0  0  0  0  0  0
    1.4805    0.1217    1.0713 C   0  0  0  0  0  0  0  0  0  0  0  0
    0.3877    1.5986    1.1987 S   0  0  0  0  0  0  0  0  0  0  0  0
   -0.9451    0.8918    2.1521 C   0  0  0  0  0  0  0  0  0  0  0  0
   -1.1696    1.4343    3.4263 C   0  0  0  0  0  0  0  0  0  0  0  0
   -2.2515    1.0141    4.1980 C   0  0  0  0  0  0  0  0  0  0  0  0
   -3.1282    0.0598    3.6958 C   0  0  0  0  0  0  0  0  0  0  0  0
   -2.9218   -0.4771    2.4231 C   0  0  0  0  0  0  0  0  0  0  0  0
   -1.8282   -0.0787    1.6365 C   0  0  0  0  0  0  0  0  0  0  0  0
   -1.6575   -0.6672    0.3435 N   0  0  0  0  0  0  0  0  0  0  0  0
   -2.8101   -0.6460   -0.5739 C   0  0  0  0  0  0  0  0  0  0  0  0
   -2.8705    0.6627   -1.3924 C   0  0  0  0  0  0  0  0  0  0  0  0
   -4.0531    0.7578   -2.2747 N   0  0  0  0  0  0  0  0  0  0  0  0
   -3.9639   -0.1853   -3.3936 C   0  0  0  0  0  0  0  0  0  0  0  0
   -4.1710    2.1233   -2.7963 C   0  0  0  0  0  0  0  0  0  0  0  0
   -0.4219   -1.0450   -0.1928 C   0  0  0  0  0  0  0  0  0  0  0  0
   -0.2881   -1.2823   -1.3993 O   0  0  0  0  0  0  0  0  0  0  0  0
    0.7786   -1.2147    0.7506 C   0  0  0  0  0  0  0  0  0  0  0  0
    0.3440   -1.9183    1.9400 O   0  0  0  0  0  0  0  0  0  0  0  0
    1.3187   -2.4967    2.6860 C   0  0  0  0  0  0  0  0  0  0  0  0
    0.7167   -3.2003    3.8625 C   0  0  0  0  0  0  0  0  0  0  0  0
    2.5157   -2.4367    2.4497 O   0  0  0  0  0  0  0  0  0  0  0  0
    3.9545    0.2944    0.5652 C   0  0  0  0  0  0  0  0  0  0  0  0
    5.0265    0.5252   -0.3011 C   0  0  0  0  0  0  0  0  0  0  0  0
    6.7563    1.5074   -4.1912 H   0  0  0  0  0  0  0  0  0  0  0  0
    5.2311    2.3367   -3.8590 H   0  0  0  0  0  0  0  0  0  0  0  0
    5.2542    0.5803   -4.2839 H   0  0  0  0  0  0  0  0  0  0  0  0
    3.2716    1.2105   -3.1340 H   0  0  0  0  0  0  0  0  0  0  0  0
    1.4097    0.8115   -1.6380 H   0  0  0  0  0  0  0  0  0  0  0  0
    1.9090    0.0538    2.0783 H   0  0  0  0  0  0  0  0  0  0  0  0
   -0.5091    2.2037    3.8223 H   0  0  0  0  0  0  0  0  0  0  0  0
   -2.4156    1.4420    5.1841 H   0  0  0  0  0  0  0  0  0  0  0  0
   -3.9750   -0.2699    4.2931 H   0  0  0  0  0  0  0  0  0  0  0  0
   -3.6093   -1.2435    2.0743 H   0  0  0  0  0  0  0  0  0  0  0  0
   -3.7478   -0.7839   -0.0271 H   0  0  0  0  0  0  0  0  0  0  0  0
   -2.7166   -1.5086   -1.2434 H   0  0  0  0  0  0  0  0  0  0  0  0
   -1.9455    0.7958   -1.9685 H   0  0  0  0  0  0  0  0  0  0  0  0
   -2.9041    1.4913   -0.6723 H   0  0  0  0  0  0  0  0  0  0  0  0
   -3.9849   -1.2211   -3.0414 H   0  0  0  0  0  0  0  0  0  0  0  0
   -4.8294   -0.0755   -4.0572 H   0  0  0  0  0  0  0  0  0  0  0  0
   -3.0557   -0.0373   -3.9890 H   0  0  0  0  0  0  0  0  0  0  0  0
   -5.0624    2.2192   -3.4265 H   0  0  0  0  0  0  0  0  0  0  0  0
   -4.2921    2.8400   -1.9763 H   0  0  0  0  0  0  0  0  0  0  0  0
   -3.2961    2.4179   -3.3873 H   0  0  0  0  0  0  0  0  0  0  0  0
    1.4669   -1.8955    0.2286 H   0  0  0  0  0  0  0  0  0  0  0  0
    0.2430   -2.4719    4.5256 H   0  0  0  0  0  0  0  0  0  0  0  0
    1.5041   -3.7212    4.4149 H   0  0  0  0  0  0  0  0  0  0  0  0
   -0.0119   -3.9399    3.5201 H   0  0  0  0  0  0  0  0  0  0  0  0
    4.1668    0.0207    1.5972 H   0  0  0  0  0  0  0  0  0  0  0  0
    6.0450    0.4381    0.0700 H   0  0  0  0  0  0  0  0  0  0  0  0
  1  2  1  0
  2  3  1  0
  3  4  2  0
  4  5  1  0
  5  6  2  0
  6  7  1  0
  7  8  1  0
  8  9  1  0
  9 10  2  0
 10 11  1  0
 11 12  2  0
 12 13  1  0
 13 14  2  0
 14 15  1  0
 15 16  1  0
 16 17  1  0
 17 18  1  0
 18 19  1  0
 18 20  1  0
 15 21  1  0
 21 22  2  0
 21 23  1  0
 23 24  1  0
 24 25  1  0
 25 26  1  0
 25 27  2  0
  6 28  1  0
 28 29  2  0
 29  3  1  0
 23  7  1  0
 14  9  1  0
  1 30  1  0
  1 31  1  0
  1 32  1  0
  4 33  1  0
  5 34  1  0
  7 35  1  0
 10 36  1  0
 11 37  1  0
 12 38  1  0
 13 39  1  0
 16 40  1  0
 16 41  1  0
 17 42  1  0
 17 43  1  0
 19 44  1  0
 19 45  1  0
 19 46  1  0
 20 47  1  0
 20 48  1  0
 20 49  1  0
 23 50  1  0
 26 51  1  0
 26 52  1  0
 26 53  1  0
 28 54  1  0
 29 55  1  0
M  END
$$$$
