
     RDKit          3D

 50 50  0  0  0  0  0  0  0  0999 V2000
    6.3153   -1.7508   -0.1810 C   0  0  0  0  0  0  0  0  0  0  0  0
    7.1750   -0.7217   -0.2823 C   0  0  0  0  0  0  0  0  0  0  0  0
    8.0579   -0.5568   -1.4893 C   0  0  0  0  0  0  0  0  0  0  0  0
    7.3433    0.2885    0.8289 C   0  0  0  0  0  0  0  0  0  0  0  0
    6.5583    1.8672    0.4074 S   0  0  0  0  0  0  0  0  0  0  0  0
    4.8976    1.5196    0.7712 C   0  0  0  0  0  0  0  0  0  0  0  0
    4.4763    0.6304    1.6489 N   0  0  0  0  0  0  0  0  0  0  0  0
    3.0971    0.6809    1.6430 N   0  0  0  0  0  0  0  0  0  0  0  0
    2.7723    1.6061    0.7661 C   0  0  0  0  0  0  0  0  0  0  0  0
    1.4331    2.0906    0.3569 C   0  0  0  0  0  0  0  0  0  0  0  0
    0.5759    0.9513   -0.1970 C   0  0  0  0  0  0  0  0  0  0  0  0
   -0.7700    1.4195   -0.7578 C   0  0  0  0  0  0  0  0  0  0  0  0
   -1.6974    2.1257    0.2387 C   0  0  0  0  0  0  0  0  0  0  0  0
   -2.0716    1.2989    1.4700 C   0  0  0  0  0  0  0  0  0  0  0  0
   -2.7361    0.0621    1.1367 N   0  0  0  0  0  0  0  0  0  0  0  0
   -4.0473   -0.0024    0.7761 C   0  0  0  0  0  0  0  0  0  0  0  0
   -4.8044    0.9527    0.7131 O   0  0  0  0  0  0  0  0  0  0  0  0
   -4.3547   -1.2897    0.4983 O   0  0  0  0  0  0  0  0  0  0  0  0
   -5.6947   -1.6558    0.0792 C   0  0  0  0  0  0  0  0  0  0  0  0
   -6.0511   -1.0090   -1.2644 C   0  0  0  0  0  0  0  0  0  0  0  0
   -6.7297   -1.3331    1.1638 C   0  0  0  0  0  0  0  0  0  0  0  0
   -5.6419   -3.1805   -0.1086 C   0  0  0  0  0  0  0  0  0  0  0  0
    3.8589    2.1905    0.1777 O   0  0  0  0  0  0  0  0  0  0  0  0
    6.2077   -2.4863   -0.9724 H   0  0  0  0  0  0  0  0  0  0  0  0
    5.6840   -1.8798    0.6951 H   0  0  0  0  0  0  0  0  0  0  0  0
    9.1115   -0.5613   -1.1913 H   0  0  0  0  0  0  0  0  0  0  0  0
    7.9169   -1.3656   -2.2146 H   0  0  0  0  0  0  0  0  0  0  0  0
    7.8457    0.3868   -2.0009 H   0  0  0  0  0  0  0  0  0  0  0  0
    8.4122    0.4714    0.9901 H   0  0  0  0  0  0  0  0  0  0  0  0
    6.9582   -0.0877    1.7837 H   0  0  0  0  0  0  0  0  0  0  0  0
    1.5364    2.8778   -0.3992 H   0  0  0  0  0  0  0  0  0  0  0  0
    0.9499    2.5424    1.2302 H   0  0  0  0  0  0  0  0  0  0  0  0
    1.1227    0.4475   -1.0053 H   0  0  0  0  0  0  0  0  0  0  0  0
    0.4159    0.1894    0.5754 H   0  0  0  0  0  0  0  0  0  0  0  0
   -1.2902    0.5519   -1.1832 H   0  0  0  0  0  0  0  0  0  0  0  0
   -0.5840    2.1018   -1.5969 H   0  0  0  0  0  0  0  0  0  0  0  0
   -1.2369    3.0645    0.5691 H   0  0  0  0  0  0  0  0  0  0  0  0
   -2.6124    2.4096   -0.2965 H   0  0  0  0  0  0  0  0  0  0  0  0
   -1.1871    1.0494    2.0641 H   0  0  0  0  0  0  0  0  0  0  0  0
   -2.7415    1.8877    2.1076 H   0  0  0  0  0  0  0  0  0  0  0  0
   -2.2241   -0.8086    1.1052 H   0  0  0  0  0  0  0  0  0  0  0  0
   -6.1514    0.0780   -1.1818 H   0  0  0  0  0  0  0  0  0  0  0  0
   -5.2659   -1.1960   -2.0066 H   0  0  0  0  0  0  0  0  0  0  0  0
   -6.9984   -1.3977   -1.6548 H   0  0  0  0  0  0  0  0  0  0  0  0
   -6.8741   -0.2547    1.2837 H   0  0  0  0  0  0  0  0  0  0  0  0
   -7.7062   -1.7677    0.9245 H   0  0  0  0  0  0  0  0  0  0  0  0
   -6.4055   -1.7178    2.1380 H   0  0  0  0  0  0  0  0  0  0  0  0
   -5.3556   -3.6777    0.8261 H   0  0  0  0  0  0  0  0  0  0  0  0
   -4.8830   -3.4567   -0.8511 H   0  0  0  0  0  0  0  0  0  0  0  0
   -6.6071   -3.5849   -0.4336 H   0  0  0  0  0  0  0  0  0  0  0  0
  1  2  2  0
  2  3  1  0
  2  4  1  0
  4  5  1  0
  5  6  1  0
  6  7  2  0
  7  8  1  0
  8  9  2  0
  9 10  1  0
 10 11  1  0
 11 12  1  0
 12 13  1  0
 13 14  1  0
 14 15  1  0
 15 16  1  0
 16 17  2  0
 16 18  1  0
 18 19  1  0
 19 20  1  0
 19 21  1  0
 19 22  1  0
  9 23  1  0
 23  6  1  0
  1 24  1  0
  1 25  1  0
  3 26  1  0
  3 27  1  0
  3 28  1  0
  4 29  1  0
  4 30  1  0
 10 31  1  0
 10 32  1  0
 11 33  1  0
 11 34  1  0
 12 35  1  0
 12 36  1  0
 13 37  1  0
 13 38  1  0
 14 39  1  0
 14 40  1  0
 15 41  1  0
 20 42  1  0
 20 43  1  0
 20 44  1  0
 21 45  1  0
 21 46  1  0
 21 47  1  0
 22 48  1  0
 22 49  1  0
 22 50  1  0
M  END
$$$$
