
     RDKit          3D

 47 49  0  0  0  0  0  0  0  0999 V2000
   -5.8941    0.7861   -3.4278 C   0  0  0  0  0  0  0  0  0  0  0  0
   -5.9936    0.3120   -2.0932 O   0  0  0  0  0  0  0  0  0  0  0  0
   -4.9407    0.5653   -1.2486 C   0  0  0  0  0  0  0  0  0  0  0  0
   -3.8320    1.3505   -1.5821 C   0  0  0  0  0  0  0  0  0  0  0  0
   -2.8085    1.5594   -0.6542 C   0  0  0  0  0  0  0  0  0  0  0  0
   -2.8844    0.9870    0.6170 C   0  0  0  0  0  0  0  0  0  0  0  0
   -1.8240    1.2219    1.5986 C   0  0  0  0  0  0  0  0  0  0  0  0
   -0.6484    0.5796    1.6481 C   0  0  0  0  0  0  0  0  0  0  0  0
    0.5471    0.9339    2.8392 S   0  0  0  0  0  0  0  0  0  0  0  0
    1.6720   -0.2646    2.2144 C   0  0  0  0  0  0  0  0  0  0  0  0
    3.1550   -0.5302    2.9313 S   0  0  0  0  0  0  0  0  0  0  0  0
    1.1216   -0.8961    1.1184 N   0  0  0  0  0  0  0  0  0  0  0  0
    1.7806   -1.9401    0.3236 C   0  0  0  0  0  0  0  0  0  0  0  0
    2.2347   -1.4550   -1.0496 C   0  0  0  0  0  0  0  0  0  0  0  0
    3.3813   -0.4844   -0.9161 C   0  0  0  0  0  0  0  0  0  0  0  0
    3.1750    0.7243   -0.8090 O   0  0  0  0  0  0  0  0  0  0  0  0
    4.6086   -1.0920   -0.9105 N   0  0  0  0  0  0  0  0  0  0  0  0
    5.6049   -0.4384   -0.4351 C   0  0  0  0  0  0  0  0  0  0  0  0
    5.6946    0.8139    0.0986 N   0  0  0  0  0  0  0  0  0  0  0  0
    7.0282    1.3706    0.1479 C   0  0  0  0  0  0  0  0  0  0  0  0
    7.9660    0.1971    0.4126 C   0  0  0  0  0  0  0  0  0  0  0  0
    7.1932   -1.2053   -0.4592 S   0  0  0  0  0  0  0  0  0  0  0  0
   -0.1596   -0.5065    0.7532 C   0  0  0  0  0  0  0  0  0  0  0  0
   -0.8009   -0.9926   -0.1672 O   0  0  0  0  0  0  0  0  0  0  0  0
   -3.9916    0.2023    0.9595 C   0  0  0  0  0  0  0  0  0  0  0  0
   -5.0192   -0.0176    0.0330 C   0  0  0  0  0  0  0  0  0  0  0  0
   -6.1416   -0.7689    0.2871 O   0  0  0  0  0  0  0  0  0  0  0  0
   -6.1513   -1.5477    1.4745 C   0  0  0  0  0  0  0  0  0  0  0  0
   -5.0180    0.3672   -3.9341 H   0  0  0  0  0  0  0  0  0  0  0  0
   -5.8836    1.8807   -3.4568 H   0  0  0  0  0  0  0  0  0  0  0  0
   -6.7831    0.4490   -3.9695 H   0  0  0  0  0  0  0  0  0  0  0  0
   -3.7329    1.8156   -2.5568 H   0  0  0  0  0  0  0  0  0  0  0  0
   -1.9539    2.1703   -0.9365 H   0  0  0  0  0  0  0  0  0  0  0  0
   -2.0602    1.9935    2.3290 H   0  0  0  0  0  0  0  0  0  0  0  0
    1.0516   -2.7479    0.1809 H   0  0  0  0  0  0  0  0  0  0  0  0
    2.6226   -2.3694    0.8738 H   0  0  0  0  0  0  0  0  0  0  0  0
    1.4280   -0.9603   -1.6012 H   0  0  0  0  0  0  0  0  0  0  0  0
    2.5591   -2.3063   -1.6593 H   0  0  0  0  0  0  0  0  0  0  0  0
    4.9174    1.4333   -0.1286 H   0  0  0  0  0  0  0  0  0  0  0  0
    7.1105    2.1268    0.9345 H   0  0  0  0  0  0  0  0  0  0  0  0
    7.2651    1.8504   -0.8090 H   0  0  0  0  0  0  0  0  0  0  0  0
    8.0022   -0.0364    1.4815 H   0  0  0  0  0  0  0  0  0  0  0  0
    8.9803    0.3888    0.0535 H   0  0  0  0  0  0  0  0  0  0  0  0
   -4.0354   -0.2258    1.9554 H   0  0  0  0  0  0  0  0  0  0  0  0
   -5.2910   -2.2236    1.5155 H   0  0  0  0  0  0  0  0  0  0  0  0
   -7.0561   -2.1629    1.4640 H   0  0  0  0  0  0  0  0  0  0  0  0
   -6.1954   -0.9077    2.3618 H   0  0  0  0  0  0  0  0  0  0  0  0
  1  2  1  0
  2  3  1  0
  3  4  2  0
  4  5  1  0
  5  6  2  0
  6  7  1  0
  7  8  2  3
  8  9  1  0
  9 10  1  0
 10 11  2  0
 10 12  1  0
 12 13  1  0
 13 14  1  0
 14 15  1  0
 15 16  2  0
 15 17  1  0
 17 18  2  3
 18 19  1  0
 19 20  1  0
 20 21  1  0
 21 22  1  0
 12 23  1  0
 23 24  2  0
  6 25  1  0
 25 26  2  0
 26 27  1  0
 27 28  1  0
 26  3  1  0
 23  8  1  0
 22 18  1  0
  1 29  1  0
  1 30  1  0
  1 31  1  0
  4 32  1  0
  5 33  1  0
  7 34  1  0
 13 35  1  0
 13 36  1  0
 14 37  1  0
 14 38  1  0
 19 39  1  0
 20 40  1  0
 20 41  1  0
 21 42  1  0
 21 43  1  0
 25 44  1  0
 28 45  1  0
 28 46  1  0
 28 47  1  0
M  END
$$$$
