
     RDKit          3D

 47 48  0  0  0  0  0  0  0  0999 V2000
   -2.8697    4.0525    1.5257 C   0  0  0  0  0  0  0  0  0  0  0  0
   -3.2295    2.2977    1.2588 S   0  0  0  0  0  0  0  0  0  0  0  0
   -3.0342    2.2034   -0.5536 C   0  0  0  0  0  0  0  0  0  0  0  0
   -1.6487    2.5727   -1.0798 C   0  0  0  0  0  0  0  0  0  0  0  0
   -0.5024    1.6733   -0.5947 C   0  0  0  0  0  0  0  0  0  0  0  0
    0.7666    2.3417   -0.9956 N   0  0  0  0  0  0  0  0  0  0  0  0
    2.0832    2.2882    0.0386 S   0  0  0  0  0  6  0  0  0  0  0  0
    1.6412    2.7969    1.3193 O   0  0  0  0  0  0  0  0  0  0  0  0
    3.1983    2.8749   -0.6702 O   0  0  0  0  0  0  0  0  0  0  0  0
    2.4166    0.5552    0.2170 C   0  0  0  0  0  0  0  0  0  0  0  0
    2.8752   -0.1680   -0.8859 C   0  0  0  0  0  0  0  0  0  0  0  0
    3.1314   -1.5334   -0.7535 C   0  0  0  0  0  0  0  0  0  0  0  0
    2.9521   -2.1748    0.4801 C   0  0  0  0  0  0  0  0  0  0  0  0
    3.2018   -3.6495    0.5994 C   0  0  0  0  0  0  0  0  0  0  0  0
    2.5032   -1.4335    1.5816 C   0  0  0  0  0  0  0  0  0  0  0  0
    2.2415   -0.0678    1.4554 C   0  0  0  0  0  0  0  0  0  0  0  0
   -0.5199    0.3269   -1.3461 C   0  0  0  0  0  0  0  0  0  0  0  0
   -0.1137    0.2789   -2.5143 O   0  0  0  0  0  0  0  0  0  0  0  0
   -0.9765   -0.7975   -0.7026 N   0  0  0  0  0  0  0  0  0  0  0  0
   -0.9772   -2.0853   -1.3778 C   0  0  0  0  0  0  0  0  0  0  0  0
   -1.6996   -3.0221   -0.4224 C   0  0  0  0  0  0  0  0  0  0  0  0
   -1.3590   -2.4391    0.9416 C   0  0  0  0  0  0  0  0  0  0  0  0
   -1.3957   -0.9387    0.6847 C   0  0  0  0  0  0  0  0  0  0  0  0
   -1.8038    4.2505    1.3890 H   0  0  0  0  0  0  0  0  0  0  0  0
   -3.4558    4.6751    0.8453 H   0  0  0  0  0  0  0  0  0  0  0  0
   -3.1351    4.3177    2.5526 H   0  0  0  0  0  0  0  0  0  0  0  0
   -3.2913    1.1851   -0.8619 H   0  0  0  0  0  0  0  0  0  0  0  0
   -3.7843    2.8624   -1.0049 H   0  0  0  0  0  0  0  0  0  0  0  0
   -1.4307    3.6192   -0.8337 H   0  0  0  0  0  0  0  0  0  0  0  0
   -1.6942    2.5402   -2.1777 H   0  0  0  0  0  0  0  0  0  0  0  0
   -0.5276    1.5526    0.4877 H   0  0  0  0  0  0  0  0  0  0  0  0
    1.0192    2.2068   -1.9796 H   0  0  0  0  0  0  0  0  0  0  0  0
    3.0251    0.3186   -1.8473 H   0  0  0  0  0  0  0  0  0  0  0  0
    3.4737   -2.0963   -1.6204 H   0  0  0  0  0  0  0  0  0  0  0  0
    2.3673   -4.2062    0.1601 H   0  0  0  0  0  0  0  0  0  0  0  0
    4.1281   -3.9237    0.0836 H   0  0  0  0  0  0  0  0  0  0  0  0
    3.3082   -3.9519    1.6463 H   0  0  0  0  0  0  0  0  0  0  0  0
    2.3579   -1.9157    2.5460 H   0  0  0  0  0  0  0  0  0  0  0  0
    1.9033    0.4964    2.3214 H   0  0  0  0  0  0  0  0  0  0  0  0
    0.0642   -2.3916   -1.5274 H   0  0  0  0  0  0  0  0  0  0  0  0
   -1.4688   -2.0134   -2.3524 H   0  0  0  0  0  0  0  0  0  0  0  0
   -2.7826   -2.9682   -0.5884 H   0  0  0  0  0  0  0  0  0  0  0  0
   -1.3856   -4.0634   -0.5348 H   0  0  0  0  0  0  0  0  0  0  0  0
   -0.3487   -2.7485    1.2339 H   0  0  0  0  0  0  0  0  0  0  0  0
   -2.0535   -2.7488    1.7269 H   0  0  0  0  0  0  0  0  0  0  0  0
   -2.4200   -0.5651    0.7614 H   0  0  0  0  0  0  0  0  0  0  0  0
   -0.7503   -0.3844    1.3688 H   0  0  0  0  0  0  0  0  0  0  0  0
  1  2  1  0
  2  3  1  0
  3  4  1  0
  4  5  1  0
  5  6  1  0
  6  7  1  0
  7  8  2  0
  7  9  2  0
  7 10  1  0
 10 11  2  0
 11 12  1  0
 12 13  2  0
 13 14  1  0
 13 15  1  0
 15 16  2  0
  5 17  1  0
 17 18  2  0
 17 19  1  0
 19 20  1  0
 20 21  1  0
 21 22  1  0
 22 23  1  0
 16 10  1  0
 23 19  1  0
  1 24  1  0
  1 25  1  0
  1 26  1  0
  3 27  1  0
  3 28  1  0
  4 29  1  0
  4 30  1  0
  5 31  1  0
  6 32  1  0
 11 33  1  0
 12 34  1  0
 14 35  1  0
 14 36  1  0
 14 37  1  0
 15 38  1  0
 16 39  1  0
 20 40  1  0
 20 41  1  0
 21 42  1  0
 21 43  1  0
 22 44  1  0
 22 45  1  0
 23 46  1  0
 23 47  1  0
M  END
$$$$
