
     RDKit          3D

 49 52  0  0  0  0  0  0  0  0999 V2000
    3.4815    2.1963   -1.3989 O   0  0  0  0  0  0  0  0  0  0  0  0
    3.3461    1.4827   -0.4091 C   0  0  0  0  0  0  0  0  0  0  0  0
    2.0521    1.4857    0.3874 C   0  0  0  0  0  0  0  0  0  0  0  0
    1.0516    0.0484   -0.1027 S   0  0  0  0  0  0  0  0  0  0  0  0
   -0.3067    0.2522    0.9464 C   0  0  0  0  0  0  0  0  0  0  0  0
   -0.3788    1.1052    1.9374 N   0  0  0  0  0  0  0  0  0  0  0  0
   -1.6075    0.9528    2.5236 N   0  0  0  0  0  0  0  0  0  0  0  0
   -2.2617   -0.0103    1.8973 C   0  0  0  0  0  0  0  0  0  0  0  0
   -3.5995   -0.4672    2.2599 C   0  0  0  0  0  0  0  0  0  0  0  0
   -3.8602   -1.7995    2.5824 C   0  0  0  0  0  0  0  0  0  0  0  0
   -5.1528   -2.1505    2.9368 C   0  0  0  0  0  0  0  0  0  0  0  0
   -6.1789   -1.2766    3.0018 N   0  0  0  0  0  0  0  0  0  0  0  0
   -5.8970    0.0112    2.7131 C   0  0  0  0  0  0  0  0  0  0  0  0
   -4.6397    0.4599    2.3479 C   0  0  0  0  0  0  0  0  0  0  0  0
   -1.4782   -0.4542    0.8477 N   0  0  0  0  0  0  0  0  0  0  0  0
   -1.8267   -1.4348   -0.1610 C   0  0  0  0  0  0  0  0  0  0  0  0
   -2.6702   -0.9094   -1.3254 C   0  0  0  0  0  0  0  0  0  0  0  0
   -2.1827    0.3417   -2.0363 C   0  0  0  0  0  0  0  0  0  0  0  0
   -3.4489    0.8029   -2.7177 C   0  0  0  0  0  0  0  0  0  0  0  0
   -4.5027    0.4882   -1.6757 C   0  0  0  0  0  0  0  0  0  0  0  0
   -4.0162   -0.6256   -0.9087 O   0  0  0  0  0  0  0  0  0  0  0  0
    4.2895    0.6090    0.1051 N   0  0  0  0  0  0  0  0  0  0  0  0
    5.5930    0.3429   -0.3781 C   0  0  0  0  0  0  0  0  0  0  0  0
    6.1570    1.0047   -1.4712 C   0  0  0  0  0  0  0  0  0  0  0  0
    7.4535    0.6961   -1.8995 C   0  0  0  0  0  0  0  0  0  0  0  0
    8.2019   -0.2772   -1.2412 C   0  0  0  0  0  0  0  0  0  0  0  0
    7.6551   -0.9484   -0.1503 C   0  0  0  0  0  0  0  0  0  0  0  0
    6.3613   -0.6390    0.2778 C   0  0  0  0  0  0  0  0  0  0  0  0
    5.7264   -1.5038    1.6384 Cl  0  0  0  0  0  0  0  0  0  0  0  0
    2.2821    1.4546    1.4575 H   0  0  0  0  0  0  0  0  0  0  0  0
    1.5119    2.4141    0.1772 H   0  0  0  0  0  0  0  0  0  0  0  0
   -3.0797   -2.5519    2.5809 H   0  0  0  0  0  0  0  0  0  0  0  0
   -5.4036   -3.1761    3.1919 H   0  0  0  0  0  0  0  0  0  0  0  0
   -6.7358    0.6976    2.7872 H   0  0  0  0  0  0  0  0  0  0  0  0
   -4.4743    1.5106    2.1357 H   0  0  0  0  0  0  0  0  0  0  0  0
   -0.9016   -1.8744   -0.5464 H   0  0  0  0  0  0  0  0  0  0  0  0
   -2.3561   -2.2482    0.3437 H   0  0  0  0  0  0  0  0  0  0  0  0
   -2.7548   -1.7221   -2.0595 H   0  0  0  0  0  0  0  0  0  0  0  0
   -1.3637    0.1450   -2.7327 H   0  0  0  0  0  0  0  0  0  0  0  0
   -1.8645    1.1174   -1.3330 H   0  0  0  0  0  0  0  0  0  0  0  0
   -3.6255    0.2080   -3.6211 H   0  0  0  0  0  0  0  0  0  0  0  0
   -3.4351    1.8578   -3.0024 H   0  0  0  0  0  0  0  0  0  0  0  0
   -5.4691    0.2333   -2.1208 H   0  0  0  0  0  0  0  0  0  0  0  0
   -4.6445    1.3288   -0.9887 H   0  0  0  0  0  0  0  0  0  0  0  0
    4.0114    0.0455    0.9035 H   0  0  0  0  0  0  0  0  0  0  0  0
    5.6167    1.7735   -2.0159 H   0  0  0  0  0  0  0  0  0  0  0  0
    7.8771    1.2236   -2.7518 H   0  0  0  0  0  0  0  0  0  0  0  0
    9.2085   -0.5117   -1.5790 H   0  0  0  0  0  0  0  0  0  0  0  0
    8.2399   -1.7085    0.3618 H   0  0  0  0  0  0  0  0  0  0  0  0
  1  2  2  0
  2  3  1  0
  3  4  1  0
  4  5  1  0
  5  6  2  0
  6  7  1  0
  7  8  2  0
  8  9  1  0
  9 10  2  0
 10 11  1  0
 11 12  2  0
 12 13  1  0
 13 14  2  0
  8 15  1  0
 15 16  1  0
 16 17  1  0
 17 18  1  0
 18 19  1  0
 19 20  1  0
 20 21  1  0
  2 22  1  0
 22 23  1  0
 23 24  2  0
 24 25  1  0
 25 26  2  0
 26 27  1  0
 27 28  2  0
 28 29  1  0
 15  5  1  0
 21 17  1  0
 28 23  1  0
 14  9  1  0
  3 30  1  0
  3 31  1  0
 10 32  1  0
 11 33  1  0
 13 34  1  0
 14 35  1  0
 16 36  1  0
 16 37  1  0
 17 38  1  0
 18 39  1  0
 18 40  1  0
 19 41  1  0
 19 42  1  0
 20 43  1  0
 20 44  1  0
 22 45  1  0
 24 46  1  0
 25 47  1  0
 26 48  1  0
 27 49  1  0
M  END
$$$$
