
     RDKit          3D

 51 54  0  0  0  0  0  0  0  0999 V2000
    1.9596    3.4212    0.9821 C   0  0  0  0  0  0  0  0  0  0  0  0
    2.4378    2.1455    1.6846 C   0  0  0  0  0  0  0  0  0  0  0  0
    1.3532    1.5905    2.6242 C   0  0  0  0  0  0  0  0  0  0  0  0
    0.8113    0.4546    1.8121 C   0  0  0  0  0  0  0  0  0  0  0  0
   -0.3327   -0.2829    2.0861 C   0  0  0  0  0  0  0  0  0  0  0  0
   -0.6503   -1.3313    1.2224 C   0  0  0  0  0  0  0  0  0  0  0  0
   -2.1008   -2.3155    1.5176 S   0  0  0  0  0  6  0  0  0  0  0  0
   -2.6081   -1.9846    2.8305 O   0  0  0  0  0  0  0  0  0  0  0  0
   -1.7896   -3.6748    1.1365 O   0  0  0  0  0  0  0  0  0  0  0  0
   -3.1735   -1.7299    0.3841 N   0  0  0  0  0  0  0  0  0  0  0  0
   -3.5774   -0.3318    0.4247 C   0  0  0  0  0  0  0  0  0  0  0  0
   -4.7765   -0.0934   -0.4594 C   0  0  0  0  0  0  0  0  0  0  0  0
   -4.6558    0.6155   -1.6630 C   0  0  0  0  0  0  0  0  0  0  0  0
   -5.7711    0.8194   -2.4776 C   0  0  0  0  0  0  0  0  0  0  0  0
   -7.0140    0.3135   -2.1006 C   0  0  0  0  0  0  0  0  0  0  0  0
   -7.1440   -0.3996   -0.9105 C   0  0  0  0  0  0  0  0  0  0  0  0
   -6.0310   -0.6041   -0.0943 C   0  0  0  0  0  0  0  0  0  0  0  0
    0.1767   -1.6431    0.1314 C   0  0  0  0  0  0  0  0  0  0  0  0
    1.3326   -0.8907   -0.1195 C   0  0  0  0  0  0  0  0  0  0  0  0
    1.6529    0.1541    0.7314 C   0  0  0  0  0  0  0  0  0  0  0  0
    2.7256    1.0665    0.7075 N   0  0  0  0  0  0  0  0  0  0  0  0
    3.9080    1.0954   -0.0289 C   0  0  0  0  0  0  0  0  0  0  0  0
    4.6512    2.0879    0.0519 O   0  0  0  0  0  0  0  0  0  0  0  0
    4.3162   -0.1193   -0.8912 C   0  0  0  0  0  0  0  0  0  0  0  0
    4.6903   -1.4460   -0.1623 C   0  0  0  0  0  0  0  0  0  0  0  0
    5.7637   -1.6671   -1.2422 C   0  0  0  0  0  0  0  0  0  0  0  0
    5.7844   -0.1410   -1.4272 C   0  0  0  0  0  0  0  0  0  0  0  0
    2.7236    3.8147    0.3047 H   0  0  0  0  0  0  0  0  0  0  0  0
    1.7298    4.2014    1.7154 H   0  0  0  0  0  0  0  0  0  0  0  0
    1.0587    3.2371    0.3860 H   0  0  0  0  0  0  0  0  0  0  0  0
    3.3488    2.3772    2.2507 H   0  0  0  0  0  0  0  0  0  0  0  0
    1.8029    1.1945    3.5417 H   0  0  0  0  0  0  0  0  0  0  0  0
    0.5866    2.3274    2.8809 H   0  0  0  0  0  0  0  0  0  0  0  0
   -0.9519   -0.0503    2.9482 H   0  0  0  0  0  0  0  0  0  0  0  0
   -3.1904   -2.2190   -0.5079 H   0  0  0  0  0  0  0  0  0  0  0  0
   -2.7474    0.2967    0.0839 H   0  0  0  0  0  0  0  0  0  0  0  0
   -3.8265   -0.0226    1.4459 H   0  0  0  0  0  0  0  0  0  0  0  0
   -3.6941    1.0158   -1.9763 H   0  0  0  0  0  0  0  0  0  0  0  0
   -5.6713    1.3728   -3.4079 H   0  0  0  0  0  0  0  0  0  0  0  0
   -7.8815    0.4725   -2.7358 H   0  0  0  0  0  0  0  0  0  0  0  0
   -8.1119   -0.7988   -0.6181 H   0  0  0  0  0  0  0  0  0  0  0  0
   -6.1421   -1.1698    0.8294 H   0  0  0  0  0  0  0  0  0  0  0  0
   -0.0740   -2.4730   -0.5273 H   0  0  0  0  0  0  0  0  0  0  0  0
    1.9200   -1.1461   -0.9892 H   0  0  0  0  0  0  0  0  0  0  0  0
    3.6311   -0.2543   -1.7390 H   0  0  0  0  0  0  0  0  0  0  0  0
    5.0991   -1.3033    0.8455 H   0  0  0  0  0  0  0  0  0  0  0  0
    3.9195   -2.2191   -0.1211 H   0  0  0  0  0  0  0  0  0  0  0  0
    6.6980   -2.1195   -0.9009 H   0  0  0  0  0  0  0  0  0  0  0  0
    5.4003   -2.2134   -2.1202 H   0  0  0  0  0  0  0  0  0  0  0  0
    5.9183    0.2046   -2.4558 H   0  0  0  0  0  0  0  0  0  0  0  0
    6.5155    0.3654   -0.7858 H   0  0  0  0  0  0  0  0  0  0  0  0
  1  2  1  0
  2  3  1  0
  3  4  1  0
  4  5  2  0
  5  6  1  0
  6  7  1  0
  7  8  2  0
  7  9  2  0
  7 10  1  0
 10 11  1  0
 11 12  1  0
 12 13  2  0
 13 14  1  0
 14 15  2  0
 15 16  1  0
 16 17  2  0
  6 18  2  0
 18 19  1  0
 19 20  2  0
 20 21  1  0
 21 22  1  0
 22 23  2  0
 22 24  1  0
 24 25  1  0
 25 26  1  0
 26 27  1  0
 21  2  1  0
 27 24  1  0
 20  4  1  0
 17 12  1  0
  1 28  1  0
  1 29  1  0
  1 30  1  0
  2 31  1  0
  3 32  1  0
  3 33  1  0
  5 34  1  0
 10 35  1  0
 11 36  1  0
 11 37  1  0
 13 38  1  0
 14 39  1  0
 15 40  1  0
 16 41  1  0
 17 42  1  0
 18 43  1  0
 19 44  1  0
 24 45  1  0
 25 46  1  0
 25 47  1  0
 26 48  1  0
 26 49  1  0
 27 50  1  0
 27 51  1  0
M  END
$$$$
