
     RDKit          3D

 40 43  0  0  0  0  0  0  0  0999 V2000
    2.1619   -1.6033    1.9767 O   0  0  0  0  0  0  0  0  0  0  0  0
    1.8088   -0.5139    1.0943 S   0  0  0  0  0  6  0  0  0  0  0  0
    1.1908    0.6841    1.6227 O   0  0  0  0  0  0  0  0  0  0  0  0
    3.2687   -0.0294    0.2618 C   0  0  0  0  0  0  0  0  0  0  0  0
    3.7781    1.2842    0.3728 C   0  0  0  0  0  0  0  0  0  0  0  0
    4.9579    1.7063   -0.2913 C   0  0  0  0  0  0  0  0  0  0  0  0
    5.7177    0.8551   -1.1147 C   0  0  0  0  0  0  0  0  0  0  0  0
    5.2193   -0.4571   -1.2331 C   0  0  0  0  0  0  0  0  0  0  0  0
    5.7115   -1.4809   -1.9389 N   0  0  0  0  0  0  0  0  0  0  0  0
    4.8510   -2.5403   -1.7151 O   0  0  0  0  0  0  0  0  0  0  0  0
    3.8094   -2.1877   -0.8782 N   0  0  0  0  0  0  0  0  0  0  0  0
    4.0063   -0.9030   -0.5533 C   0  0  0  0  0  0  0  0  0  0  0  0
    0.8100   -1.0993   -0.1434 N   0  0  0  0  0  0  0  0  0  0  0  0
    0.3071   -0.1129   -1.1536 C   0  0  0  0  0  0  0  0  0  0  0  0
   -0.9481    0.6508   -0.6785 C   0  0  0  0  0  0  0  0  0  0  0  0
   -2.0020   -0.2902   -0.2363 N   0  0  0  0  0  0  0  0  0  0  0  0
   -3.2851    0.2388    0.0172 C   0  0  0  0  0  0  0  0  0  0  0  0
   -4.3736   -0.6497    0.1185 C   0  0  0  0  0  0  0  0  0  0  0  0
   -5.6793   -0.2018    0.3555 C   0  0  0  0  0  0  0  0  0  0  0  0
   -5.9372    1.1577    0.4891 C   0  0  0  0  0  0  0  0  0  0  0  0
   -4.8895    2.0647    0.3757 C   0  0  0  0  0  0  0  0  0  0  0  0
   -3.5899    1.6095    0.1375 C   0  0  0  0  0  0  0  0  0  0  0  0
   -2.6313    2.5449    0.0433 F   0  0  0  0  0  0  0  0  0  0  0  0
   -1.5183   -1.2207    0.8165 C   0  0  0  0  0  0  0  0  0  0  0  0
   -0.2953   -2.0044    0.3045 C   0  0  0  0  0  0  0  0  0  0  0  0
    3.2532    2.0099    0.9976 H   0  0  0  0  0  0  0  0  0  0  0  0
    5.2926    2.7360   -0.1548 H   0  0  0  0  0  0  0  0  0  0  0  0
    6.6189    1.1793   -1.6199 H   0  0  0  0  0  0  0  0  0  0  0  0
    0.0703   -0.6747   -2.0663 H   0  0  0  0  0  0  0  0  0  0  0  0
    1.0972    0.5939   -1.4261 H   0  0  0  0  0  0  0  0  0  0  0  0
   -0.6802    1.3322    0.1352 H   0  0  0  0  0  0  0  0  0  0  0  0
   -1.3078    1.2491   -1.5246 H   0  0  0  0  0  0  0  0  0  0  0  0
   -4.2154   -1.7171   -0.0180 H   0  0  0  0  0  0  0  0  0  0  0  0
   -6.4922   -0.9204    0.4253 H   0  0  0  0  0  0  0  0  0  0  0  0
   -6.9490    1.5091    0.6722 H   0  0  0  0  0  0  0  0  0  0  0  0
   -5.0688    3.1311    0.4703 H   0  0  0  0  0  0  0  0  0  0  0  0
   -2.2831   -1.9535    1.0956 H   0  0  0  0  0  0  0  0  0  0  0  0
   -1.2605   -0.6544    1.7200 H   0  0  0  0  0  0  0  0  0  0  0  0
    0.0609   -2.6999    1.0711 H   0  0  0  0  0  0  0  0  0  0  0  0
   -0.5848   -2.6222   -0.5553 H   0  0  0  0  0  0  0  0  0  0  0  0
  1  2  2  0
  2  3  2  0
  2  4  1  0
  4  5  2  0
  5  6  1  0
  6  7  2  0
  7  8  1  0
  8  9  2  0
  9 10  1  0
 10 11  1  0
 11 12  2  0
  2 13  1  0
 13 14  1  0
 14 15  1  0
 15 16  1  0
 16 17  1  0
 17 18  2  0
 18 19  1  0
 19 20  2  0
 20 21  1  0
 21 22  2  0
 22 23  1  0
 16 24  1  0
 24 25  1  0
 12  4  1  0
 25 13  1  0
 12  8  1  0
 22 17  1  0
  5 26  1  0
  6 27  1  0
  7 28  1  0
 14 29  1  0
 14 30  1  0
 15 31  1  0
 15 32  1  0
 18 33  1  0
 19 34  1  0
 20 35  1  0
 21 36  1  0
 24 37  1  0
 24 38  1  0
 25 39  1  0
 25 40  1  0
M  END
$$$$
