
     RDKit          3D

 36 37  0  0  0  0  0  0  0  0999 V2000
   -4.7316   -0.6805   -2.1914 C   0  0  0  0  0  0  0  0  0  0  0  0
   -4.0902    0.0733   -1.1300 N   0  0  0  0  0  0  0  0  0  0  0  0
   -4.4734    1.3957   -0.9498 C   0  0  0  0  0  0  0  0  0  0  0  0
   -5.3199    1.9575   -1.6420 O   0  0  0  0  0  0  0  0  0  0  0  0
   -3.7925    2.1354    0.1355 C   0  0  0  0  0  0  0  0  0  0  0  0
   -4.1555    3.4771    0.4188 C   0  0  0  0  0  0  0  0  0  0  0  0
   -4.4065    4.5742    0.7025 N   0  0  0  0  0  0  0  0  0  0  0  0
   -2.8304    1.5128    0.8233 C   0  0  0  0  0  0  0  0  0  0  0  0
   -2.4570    0.2130    0.5609 N   0  0  0  0  0  0  0  0  0  0  0  0
   -1.3523   -0.3843    1.3211 C   0  0  0  0  0  0  0  0  0  0  0  0
   -0.0060   -0.2826    0.5847 C   0  0  0  0  0  0  0  0  0  0  0  0
    1.0526   -0.8827    1.3977 N   0  0  0  0  0  0  0  0  0  0  0  0
    2.3533   -0.7433    0.8710 C   0  0  0  0  0  0  0  0  0  0  0  0
    2.5617    0.1129   -0.1561 N   0  0  0  0  0  0  0  0  0  0  0  0
    3.8261    0.2780   -0.6144 C   0  0  0  0  0  0  0  0  0  0  0  0
    4.9344   -0.3659   -0.0885 C   0  0  0  0  0  0  0  0  0  0  0  0
    6.2902   -0.1352   -0.6778 C   0  0  0  0  0  0  0  0  0  0  0  0
    7.3022   -0.3815    0.1986 F   0  0  0  0  0  0  0  0  0  0  0  0
    6.5254   -0.9307   -1.7557 F   0  0  0  0  0  0  0  0  0  0  0  0
    6.4723    1.1433   -1.1076 F   0  0  0  0  0  0  0  0  0  0  0  0
    4.7188   -1.2485    0.9715 C   0  0  0  0  0  0  0  0  0  0  0  0
    3.4256   -1.4335    1.4611 C   0  0  0  0  0  0  0  0  0  0  0  0
    3.1883   -2.5358    2.7701 Cl  0  0  0  0  0  0  0  0  0  0  0  0
   -3.0445   -0.5459   -0.4501 C   0  0  0  0  0  0  0  0  0  0  0  0
   -2.6500   -1.6796   -0.7226 O   0  0  0  0  0  0  0  0  0  0  0  0
   -4.1237   -0.5832   -3.0966 H   0  0  0  0  0  0  0  0  0  0  0  0
   -5.7379   -0.3043   -2.3965 H   0  0  0  0  0  0  0  0  0  0  0  0
   -4.8006   -1.7397   -1.9253 H   0  0  0  0  0  0  0  0  0  0  0  0
   -2.2948    2.0211    1.6235 H   0  0  0  0  0  0  0  0  0  0  0  0
   -1.5878   -1.4397    1.5093 H   0  0  0  0  0  0  0  0  0  0  0  0
   -1.2864    0.0951    2.3062 H   0  0  0  0  0  0  0  0  0  0  0  0
   -0.0690   -0.7879   -0.3868 H   0  0  0  0  0  0  0  0  0  0  0  0
    0.2008    0.7795    0.4011 H   0  0  0  0  0  0  0  0  0  0  0  0
    0.8887   -1.8721    1.5811 H   0  0  0  0  0  0  0  0  0  0  0  0
    3.9163    0.9743   -1.4468 H   0  0  0  0  0  0  0  0  0  0  0  0
    5.5534   -1.7865    1.4166 H   0  0  0  0  0  0  0  0  0  0  0  0
  1  2  1  0
  2  3  1  0
  3  4  2  0
  3  5  1  0
  5  6  1  0
  6  7  3  0
  5  8  2  0
  8  9  1  0
  9 10  1  0
 10 11  1  0
 11 12  1  0
 12 13  1  0
 13 14  2  0
 14 15  1  0
 15 16  2  0
 16 17  1  0
 17 18  1  0
 17 19  1  0
 17 20  1  0
 16 21  1  0
 21 22  2  0
 22 23  1  0
  9 24  1  0
 24 25  2  0
 24  2  1  0
 22 13  1  0
  1 26  1  0
  1 27  1  0
  1 28  1  0
  8 29  1  0
 10 30  1  0
 10 31  1  0
 11 32  1  0
 11 33  1  0
 12 34  1  0
 15 35  1  0
 21 36  1  0
M  END
$$$$
