
     RDKit          3D

 39 41  0  0  0  0  0  0  0  0999 V2000
   -2.7031   -1.8651    0.9084 C   0  0  0  0  0  0  0  0  0  0  0  0
   -2.7310   -0.8228   -0.1522 C   0  0  0  0  0  0  0  0  0  0  0  0
   -3.9088   -0.5593   -0.8130 N   0  0  0  0  0  0  0  0  0  0  0  0
   -3.7238    0.3810   -1.7935 C   0  0  0  0  0  0  0  0  0  0  0  0
   -4.6403    0.9286   -2.6997 C   0  0  0  0  0  0  0  0  0  0  0  0
   -4.1660    1.8794   -3.6071 C   0  0  0  0  0  0  0  0  0  0  0  0
   -2.8285    2.2636   -3.6058 C   0  0  0  0  0  0  0  0  0  0  0  0
   -1.9285    1.7047   -2.6913 C   0  0  0  0  0  0  0  0  0  0  0  0
   -2.3791    0.7405   -1.7629 C   0  0  0  0  0  0  0  0  0  0  0  0
   -1.7480   -0.0047   -0.7043 C   0  0  0  0  0  0  0  0  0  0  0  0
   -0.3280    0.1017   -0.3325 C   0  0  0  0  0  0  0  0  0  0  0  0
    0.5167    0.4188   -1.1754 O   0  0  0  0  0  0  0  0  0  0  0  0
    0.0991   -0.1281    1.1306 C   0  0  0  0  0  0  0  0  0  0  0  0
   -0.4038    1.0190    1.9993 C   0  0  0  0  0  0  0  0  0  0  0  0
    1.5298   -0.1473    1.2672 O   0  0  0  0  0  0  0  0  0  0  0  0
    2.1301   -1.2535    0.7427 C   0  0  0  0  0  0  0  0  0  0  0  0
    1.5265   -2.2277    0.3081 O   0  0  0  0  0  0  0  0  0  0  0  0
    3.5677   -1.1191    0.7936 C   0  0  0  0  0  0  0  0  0  0  0  0
    4.5671   -1.9578    0.3223 C   0  0  0  0  0  0  0  0  0  0  0  0
    5.8086   -1.3461    0.6314 C   0  0  0  0  0  0  0  0  0  0  0  0
    5.4850   -0.1770    1.2764 C   0  0  0  0  0  0  0  0  0  0  0  0
    6.2986    0.8588    1.8312 N   0  0  0  0  0  4  0  0  0  0  0  0
    7.5231    0.7151    1.7104 O   0  0  0  0  0  0  0  0  0  0  0  0
    5.7316    1.8058    2.3901 O   0  0  0  0  0  1  0  0  0  0  0  0
    4.1400   -0.0201    1.3887 O   0  0  0  0  0  0  0  0  0  0  0  0
   -2.6011   -1.4052    1.8958 H   0  0  0  0  0  0  0  0  0  0  0  0
   -1.8707   -2.5571    0.7474 H   0  0  0  0  0  0  0  0  0  0  0  0
   -3.6235   -2.4590    0.9123 H   0  0  0  0  0  0  0  0  0  0  0  0
   -4.7937   -1.0111   -0.6264 H   0  0  0  0  0  0  0  0  0  0  0  0
   -5.6832    0.6291   -2.7051 H   0  0  0  0  0  0  0  0  0  0  0  0
   -4.8512    2.3229   -4.3259 H   0  0  0  0  0  0  0  0  0  0  0  0
   -2.4751    3.0023   -4.3210 H   0  0  0  0  0  0  0  0  0  0  0  0
   -0.8851    2.0103   -2.7039 H   0  0  0  0  0  0  0  0  0  0  0  0
   -0.2936   -1.0724    1.5122 H   0  0  0  0  0  0  0  0  0  0  0  0
   -0.0111    1.9784    1.6430 H   0  0  0  0  0  0  0  0  0  0  0  0
   -1.4960    1.0807    2.0041 H   0  0  0  0  0  0  0  0  0  0  0  0
   -0.0578    0.8983    3.0316 H   0  0  0  0  0  0  0  0  0  0  0  0
    4.4028   -2.8972   -0.1908 H   0  0  0  0  0  0  0  0  0  0  0  0
    6.8043   -1.7083    0.4133 H   0  0  0  0  0  0  0  0  0  0  0  0
  1  2  1  0
  2  3  1  0
  3  4  1  0
  4  5  2  0
  5  6  1  0
  6  7  2  0
  7  8  1  0
  8  9  2  0
  9 10  1  0
 10 11  1  0
 11 12  2  0
 11 13  1  0
 13 14  1  0
 13 15  1  0
 15 16  1  0
 16 17  2  0
 16 18  1  0
 18 19  2  0
 19 20  1  0
 20 21  2  0
 21 22  1  0
 22 23  2  0
 22 24  1  0
 21 25  1  0
 10  2  2  0
 25 18  1  0
  9  4  1  0
  1 26  1  0
  1 27  1  0
  1 28  1  0
  3 29  1  0
  5 30  1  0
  6 31  1  0
  7 32  1  0
  8 33  1  0
 13 34  1  0
 14 35  1  0
 14 36  1  0
 14 37  1  0
 19 38  1  0
 20 39  1  0
M  CHG  2  22   1  24  -1
M  END
$$$$
