
     RDKit          3D

 42 44  0  0  0  0  0  0  0  0999 V2000
   -3.9556   -1.9874   -0.1125 C   0  0  0  0  0  0  0  0  0  0  0  0
   -2.7298   -1.2251   -0.5842 C   0  0  0  0  0  0  0  0  0  0  0  0
   -1.6318   -1.3277    0.3558 N   0  0  0  0  0  0  0  0  0  0  0  0
   -0.6434   -2.2721    0.3776 C   0  0  0  0  0  0  0  0  0  0  0  0
   -0.3921   -3.4612   -0.8510 S   0  0  0  0  0  0  0  0  0  0  0  0
    1.2257   -2.8795   -1.4612 C   0  0  0  0  0  0  0  0  0  0  0  0
    1.1276   -1.4342   -1.9328 C   0  0  0  0  0  0  0  0  0  0  0  0
    0.2470   -1.0640   -2.7144 O   0  0  0  0  0  0  0  0  0  0  0  0
    2.1438   -0.4393   -1.4780 C   0  0  0  0  0  0  0  0  0  0  0  0
    2.8260   -0.5585   -0.2628 C   0  0  0  0  0  0  0  0  0  0  0  0
    3.7751    0.3978    0.1054 C   0  0  0  0  0  0  0  0  0  0  0  0
    4.0452    1.4910   -0.7253 C   0  0  0  0  0  0  0  0  0  0  0  0
    5.0706    2.5038   -0.3127 C   0  0  0  0  0  0  0  0  0  0  0  0
    3.3459    1.6211   -1.9315 C   0  0  0  0  0  0  0  0  0  0  0  0
    2.3992    0.6647   -2.3041 C   0  0  0  0  0  0  0  0  0  0  0  0
    0.1361   -2.0879    1.4172 N   0  0  0  0  0  0  0  0  0  0  0  0
   -0.3467   -1.0015    2.1054 N   0  0  0  0  0  0  0  0  0  0  0  0
   -1.3860   -0.5142    1.4472 C   0  0  0  0  0  0  0  0  0  0  0  0
   -2.1603    0.6548    1.8530 C   0  0  0  0  0  0  0  0  0  0  0  0
   -2.7904    0.6643    3.0998 C   0  0  0  0  0  0  0  0  0  0  0  0
   -3.5103    1.7927    3.4656 C   0  0  0  0  0  0  0  0  0  0  0  0
   -3.6359    2.8891    2.6838 N   0  0  0  0  0  0  0  0  0  0  0  0
   -2.9916    2.8647    1.4971 C   0  0  0  0  0  0  0  0  0  0  0  0
   -2.2472    1.7884    1.0423 C   0  0  0  0  0  0  0  0  0  0  0  0
   -3.7270   -3.0517    0.0370 H   0  0  0  0  0  0  0  0  0  0  0  0
   -4.3314   -1.5867    0.8351 H   0  0  0  0  0  0  0  0  0  0  0  0
   -4.7579   -1.9129   -0.8524 H   0  0  0  0  0  0  0  0  0  0  0  0
   -2.9711   -0.1660   -0.7276 H   0  0  0  0  0  0  0  0  0  0  0  0
   -2.3949   -1.5964   -1.5571 H   0  0  0  0  0  0  0  0  0  0  0  0
    1.9791   -3.0303   -0.6857 H   0  0  0  0  0  0  0  0  0  0  0  0
    1.5246   -3.4910   -2.3186 H   0  0  0  0  0  0  0  0  0  0  0  0
    2.6219   -1.3613    0.4407 H   0  0  0  0  0  0  0  0  0  0  0  0
    4.2938    0.2911    1.0617 H   0  0  0  0  0  0  0  0  0  0  0  0
    4.8065    2.9384    0.6584 H   0  0  0  0  0  0  0  0  0  0  0  0
    5.1404    3.3215   -1.0371 H   0  0  0  0  0  0  0  0  0  0  0  0
    6.0553    2.0326   -0.2422 H   0  0  0  0  0  0  0  0  0  0  0  0
    3.5301    2.4673   -2.5893 H   0  0  0  0  0  0  0  0  0  0  0  0
    1.8651    0.7822   -3.2456 H   0  0  0  0  0  0  0  0  0  0  0  0
   -2.7153   -0.1817    3.7783 H   0  0  0  0  0  0  0  0  0  0  0  0
   -4.0173    1.8489    4.4259 H   0  0  0  0  0  0  0  0  0  0  0  0
   -3.0871    3.7710    0.9034 H   0  0  0  0  0  0  0  0  0  0  0  0
   -1.7360    1.8452    0.0858 H   0  0  0  0  0  0  0  0  0  0  0  0
  1  2  1  0
  2  3  1  0
  3  4  1  0
  4  5  1  0
  5  6  1  0
  6  7  1  0
  7  8  2  0
  7  9  1  0
  9 10  2  0
 10 11  1  0
 11 12  2  0
 12 13  1  0
 12 14  1  0
 14 15  2  0
  4 16  2  0
 16 17  1  0
 17 18  2  0
 18 19  1  0
 19 20  2  0
 20 21  1  0
 21 22  2  0
 22 23  1  0
 23 24  2  0
 18  3  1  0
 24 19  1  0
 15  9  1  0
  1 25  1  0
  1 26  1  0
  1 27  1  0
  2 28  1  0
  2 29  1  0
  6 30  1  0
  6 31  1  0
 10 32  1  0
 11 33  1  0
 13 34  1  0
 13 35  1  0
 13 36  1  0
 14 37  1  0
 15 38  1  0
 20 39  1  0
 21 40  1  0
 23 41  1  0
 24 42  1  0
M  END
$$$$
