
     RDKit          3D

 38 39  0  0  0  0  0  0  0  0999 V2000
   -2.0592   -0.8052    1.0327 O   0  0  0  0  0  0  0  0  0  0  0  0
   -2.6818    0.2400    0.8646 C   0  0  0  0  0  0  0  0  0  0  0  0
   -1.9945    1.6089    0.9599 C   0  0  0  0  0  0  0  0  0  0  0  0
   -0.5822    1.5436    0.7775 O   0  0  0  0  0  0  0  0  0  0  0  0
   -0.2124    1.3143   -0.5055 C   0  0  0  0  0  0  0  0  0  0  0  0
   -0.9667    1.2607   -1.4660 O   0  0  0  0  0  0  0  0  0  0  0  0
    1.2488    1.1505   -0.6445 C   0  0  0  0  0  0  0  0  0  0  0  0
    2.1138    1.1709    0.3817 C   0  0  0  0  0  0  0  0  0  0  0  0
    3.5659    1.0116    0.2257 C   0  0  0  0  0  0  0  0  0  0  0  0
    4.4192    1.7610    1.0442 C   0  0  0  0  0  0  0  0  0  0  0  0
    5.8046    1.6183    0.9491 C   0  0  0  0  0  0  0  0  0  0  0  0
    6.3528    0.7158    0.0392 C   0  0  0  0  0  0  0  0  0  0  0  0
    5.5199   -0.0531   -0.7860 C   0  0  0  0  0  0  0  0  0  0  0  0
    6.1056   -1.0570   -1.7477 C   0  0  0  0  0  0  0  0  0  0  0  0
    5.3576   -1.2135   -2.8756 F   0  0  0  0  0  0  0  0  0  0  0  0
    6.2182   -2.2970   -1.1976 F   0  0  0  0  0  0  0  0  0  0  0  0
    7.3552   -0.7227   -2.1762 F   0  0  0  0  0  0  0  0  0  0  0  0
    4.1257    0.0943   -0.6745 C   0  0  0  0  0  0  0  0  0  0  0  0
   -4.0310    0.3445    0.6077 N   0  0  0  0  0  0  0  0  0  0  0  0
   -4.9646   -0.6798    0.4596 C   0  0  0  0  0  0  0  0  0  0  0  0
   -4.6696   -2.0341    0.5564 C   0  0  0  0  0  0  0  0  0  0  0  0
   -5.6976   -2.9653    0.3872 C   0  0  0  0  0  0  0  0  0  0  0  0
   -6.9839   -2.5166    0.1277 C   0  0  0  0  0  0  0  0  0  0  0  0
   -8.2755   -3.6238   -0.0865 Cl  0  0  0  0  0  0  0  0  0  0  0  0
   -7.1921   -1.1506    0.0479 C   0  0  0  0  0  0  0  0  0  0  0  0
   -6.2127   -0.2252    0.2093 N   0  0  0  0  0  0  0  0  0  0  0  0
   -2.1737    1.9920    1.9705 H   0  0  0  0  0  0  0  0  0  0  0  0
   -2.4390    2.3233    0.2564 H   0  0  0  0  0  0  0  0  0  0  0  0
    1.5741    1.0125   -1.6699 H   0  0  0  0  0  0  0  0  0  0  0  0
    1.7668    1.3279    1.4007 H   0  0  0  0  0  0  0  0  0  0  0  0
    4.0122    2.4700    1.7626 H   0  0  0  0  0  0  0  0  0  0  0  0
    6.4557    2.2099    1.5884 H   0  0  0  0  0  0  0  0  0  0  0  0
    7.4352    0.6103   -0.0219 H   0  0  0  0  0  0  0  0  0  0  0  0
    3.4794   -0.5272   -1.2938 H   0  0  0  0  0  0  0  0  0  0  0  0
   -4.4473    1.2555    0.4685 H   0  0  0  0  0  0  0  0  0  0  0  0
   -3.6673   -2.3950    0.7550 H   0  0  0  0  0  0  0  0  0  0  0  0
   -5.4811   -4.0274    0.4583 H   0  0  0  0  0  0  0  0  0  0  0  0
   -8.1785   -0.7427   -0.1537 H   0  0  0  0  0  0  0  0  0  0  0  0
  1  2  2  0
  2  3  1  0
  3  4  1  0
  4  5  1  0
  5  6  2  0
  5  7  1  0
  7  8  2  3
  8  9  1  0
  9 10  2  0
 10 11  1  0
 11 12  2  0
 12 13  1  0
 13 14  1  0
 14 15  1  0
 14 16  1  0
 14 17  1  0
 13 18  2  0
  2 19  1  0
 19 20  1  0
 20 21  2  0
 21 22  1  0
 22 23  2  0
 23 24  1  0
 23 25  1  0
 25 26  2  0
 18  9  1  0
 26 20  1  0
  3 27  1  0
  3 28  1  0
  7 29  1  0
  8 30  1  0
 10 31  1  0
 11 32  1  0
 12 33  1  0
 18 34  1  0
 19 35  1  0
 21 36  1  0
 22 37  1  0
 25 38  1  0
M  END
$$$$
