
     RDKit          3D

 51 54  0  0  0  0  0  0  0  0999 V2000
    2.2115   -3.5211    1.0422 O   0  0  0  0  0  0  0  0  0  0  0  0
    1.9122   -2.3672    0.7310 C   0  0  0  0  0  0  0  0  0  0  0  0
    2.8960   -1.4127    0.2412 C   0  0  0  0  0  0  0  0  0  0  0  0
    3.0957   -0.0901    0.5980 C   0  0  0  0  0  0  0  0  0  0  0  0
    4.1781    0.5114   -0.1125 C   0  0  0  0  0  0  0  0  0  0  0  0
    4.7706   -0.3888   -0.9758 C   0  0  0  0  0  0  0  0  0  0  0  0
    4.0507   -1.9277   -0.9164 S   0  0  0  0  0  0  0  0  0  0  0  0
    5.9543   -0.0979   -1.8460 C   0  0  0  0  0  0  0  0  0  0  0  0
    6.1814    1.4185   -1.9555 C   0  0  0  0  0  0  0  0  0  0  0  0
    6.0521    2.1150   -0.5926 C   0  0  0  0  0  0  0  0  0  0  0  0
    4.6500    1.9289    0.0090 C   0  0  0  0  0  0  0  0  0  0  0  0
    0.5898   -1.9297    0.8599 N   0  0  0  0  0  0  0  0  0  0  0  0
    0.0306   -0.7584    0.1730 C   0  0  0  0  0  0  0  0  0  0  0  0
   -1.4228   -0.9873   -0.2654 C   0  0  0  0  0  0  0  0  0  0  0  0
   -2.3200   -1.3427    0.8858 N   0  0  0  0  0  0  0  0  0  0  0  0
   -3.2997   -0.0652    1.4663 S   0  0  0  0  0  6  0  0  0  0  0  0
   -4.0650   -0.5578    2.5882 O   0  0  0  0  0  0  0  0  0  0  0  0
   -2.4224    1.0789    1.5664 O   0  0  0  0  0  0  0  0  0  0  0  0
   -4.4591    0.2127    0.1398 C   0  0  0  0  0  0  0  0  0  0  0  0
   -4.8663   -0.8991   -0.6167 C   0  0  0  0  0  0  0  0  0  0  0  0
   -5.7348   -0.7350   -1.6938 C   0  0  0  0  0  0  0  0  0  0  0  0
   -6.2026    0.5340   -2.0182 C   0  0  0  0  0  0  0  0  0  0  0  0
   -5.8159    1.6382   -1.2557 C   0  0  0  0  0  0  0  0  0  0  0  0
   -4.9489    1.4981   -0.1532 C   0  0  0  0  0  0  0  0  0  0  0  0
   -4.5999    2.7225    0.6600 C   0  0  0  0  0  0  0  0  0  0  0  0
   -5.4807    3.7473    0.4539 F   0  0  0  0  0  0  0  0  0  0  0  0
   -4.6202    2.5099    2.0007 F   0  0  0  0  0  0  0  0  0  0  0  0
   -3.3826    3.2353    0.3419 F   0  0  0  0  0  0  0  0  0  0  0  0
   -1.6150   -2.0783    1.9917 C   0  0  0  0  0  0  0  0  0  0  0  0
   -0.3785   -2.8290    1.4890 C   0  0  0  0  0  0  0  0  0  0  0  0
    2.4981    0.4217    1.3432 H   0  0  0  0  0  0  0  0  0  0  0  0
    6.8428   -0.5659   -1.4046 H   0  0  0  0  0  0  0  0  0  0  0  0
    5.8201   -0.5195   -2.8487 H   0  0  0  0  0  0  0  0  0  0  0  0
    7.1730    1.6090   -2.3812 H   0  0  0  0  0  0  0  0  0  0  0  0
    5.4475    1.8502   -2.6483 H   0  0  0  0  0  0  0  0  0  0  0  0
    6.2658    3.1847   -0.6965 H   0  0  0  0  0  0  0  0  0  0  0  0
    6.8036    1.7026    0.0929 H   0  0  0  0  0  0  0  0  0  0  0  0
    3.9398    2.5777   -0.5183 H   0  0  0  0  0  0  0  0  0  0  0  0
    4.6584    2.2386    1.0602 H   0  0  0  0  0  0  0  0  0  0  0  0
    0.6321   -0.5144   -0.7076 H   0  0  0  0  0  0  0  0  0  0  0  0
    0.0852    0.0804    0.8751 H   0  0  0  0  0  0  0  0  0  0  0  0
   -1.4725   -1.8175   -0.9811 H   0  0  0  0  0  0  0  0  0  0  0  0
   -1.7906   -0.1029   -0.7958 H   0  0  0  0  0  0  0  0  0  0  0  0
   -4.5159   -1.8994   -0.3685 H   0  0  0  0  0  0  0  0  0  0  0  0
   -6.0486   -1.5973   -2.2778 H   0  0  0  0  0  0  0  0  0  0  0  0
   -6.8809    0.6650   -2.8589 H   0  0  0  0  0  0  0  0  0  0  0  0
   -6.2104    2.6199   -1.5208 H   0  0  0  0  0  0  0  0  0  0  0  0
   -1.3047   -1.3689    2.7688 H   0  0  0  0  0  0  0  0  0  0  0  0
   -2.3191   -2.7916    2.4335 H   0  0  0  0  0  0  0  0  0  0  0  0
   -0.6626   -3.5778    0.7395 H   0  0  0  0  0  0  0  0  0  0  0  0
    0.1006   -3.3573    2.3208 H   0  0  0  0  0  0  0  0  0  0  0  0
  1  2  2  0
  2  3  1  0
  3  4  2  0
  4  5  1  0
  5  6  2  0
  6  7  1  0
  6  8  1  0
  8  9  1  0
  9 10  1  0
 10 11  1  0
  2 12  1  0
 12 13  1  0
 13 14  1  0
 14 15  1  0
 15 16  1  0
 16 17  2  0
 16 18  2  0
 16 19  1  0
 19 20  2  0
 20 21  1  0
 21 22  2  0
 22 23  1  0
 23 24  2  0
 24 25  1  0
 25 26  1  0
 25 27  1  0
 25 28  1  0
 15 29  1  0
 29 30  1  0
  7  3  1  0
 30 12  1  0
 11  5  1  0
 24 19  1  0
  4 31  1  0
  8 32  1  0
  8 33  1  0
  9 34  1  0
  9 35  1  0
 10 36  1  0
 10 37  1  0
 11 38  1  0
 11 39  1  0
 13 40  1  0
 13 41  1  0
 14 42  1  0
 14 43  1  0
 20 44  1  0
 21 45  1  0
 22 46  1  0
 23 47  1  0
 29 48  1  0
 29 49  1  0
 30 50  1  0
 30 51  1  0
M  END
$$$$
