
     RDKit          3D

 60 64  0  0  0  0  0  0  0  0999 V2000
    3.4651   -2.6613    0.5460 O   0  0  0  0  0  0  0  0  0  0  0  0
    2.9659   -1.5545    0.3899 C   0  0  0  0  0  0  0  0  0  0  0  0
    3.6285   -0.3662    0.1397 N   0  0  0  0  0  0  0  0  0  0  0  0
    5.0259   -0.1675    0.0888 C   0  0  0  0  0  0  0  0  0  0  0  0
    5.4782    1.1037   -0.2918 C   0  0  0  0  0  0  0  0  0  0  0  0
    6.8474    1.3840   -0.3705 C   0  0  0  0  0  0  0  0  0  0  0  0
    7.7817    0.3919   -0.0649 C   0  0  0  0  0  0  0  0  0  0  0  0
    9.2379    0.6678   -0.1501 C   0  0  0  0  0  0  0  0  0  0  0  0
   10.1197   -0.1318    0.3985 N   0  0  0  0  0  0  0  0  0  0  0  0
   11.4349    0.4963    0.0996 C   0  0  0  0  0  0  0  0  0  0  0  0
   11.1702    1.5493   -0.9763 C   0  0  0  0  0  0  0  0  0  0  0  0
    9.7449    1.7539   -0.8300 N   0  0  0  0  0  0  0  0  0  0  0  0
    7.3369   -0.8708    0.3321 C   0  0  0  0  0  0  0  0  0  0  0  0
    5.9663   -1.1489    0.4061 C   0  0  0  0  0  0  0  0  0  0  0  0
    1.4788   -1.4550    0.4221 C   0  0  0  0  0  0  0  0  0  0  0  0
    0.7280   -2.5352   -0.0634 C   0  0  0  0  0  0  0  0  0  0  0  0
   -0.6714   -2.4961   -0.0438 C   0  0  0  0  0  0  0  0  0  0  0  0
   -1.3477   -1.3739    0.4571 C   0  0  0  0  0  0  0  0  0  0  0  0
   -2.8315   -1.4432    0.4797 C   0  0  0  0  0  0  0  0  0  0  0  0
   -3.3235   -2.4824    0.9017 O   0  0  0  0  0  0  0  0  0  0  0  0
   -3.5037   -0.3479   -0.0224 N   0  0  0  0  0  0  0  0  0  0  0  0
   -4.9017   -0.1947   -0.1578 C   0  0  0  0  0  0  0  0  0  0  0  0
   -5.3618    1.0311   -0.6569 C   0  0  0  0  0  0  0  0  0  0  0  0
   -6.7298    1.2617   -0.8352 C   0  0  0  0  0  0  0  0  0  0  0  0
   -7.6569    0.2684   -0.5111 C   0  0  0  0  0  0  0  0  0  0  0  0
   -9.1066    0.5222   -0.7049 C   0  0  0  0  0  0  0  0  0  0  0  0
   -9.5350    1.5462   -1.4029 N   0  0  0  0  0  0  0  0  0  0  0  0
  -11.0190    1.4291   -1.3654 C   0  0  0  0  0  0  0  0  0  0  0  0
  -11.3402    0.4178   -0.2656 C   0  0  0  0  0  0  0  0  0  0  0  0
  -10.0789   -0.2787   -0.1483 N   0  0  0  0  0  0  0  0  0  0  0  0
   -7.2048   -0.9576   -0.0170 C   0  0  0  0  0  0  0  0  0  0  0  0
   -5.8337   -1.1851    0.1601 C   0  0  0  0  0  0  0  0  0  0  0  0
   -0.5826   -0.3219    0.9664 C   0  0  0  0  0  0  0  0  0  0  0  0
   -1.2171    0.8426    1.5317 N   0  0  0  0  0  4  0  0  0  0  0  0
   -1.1568    0.9837    2.7562 O   0  0  0  0  0  0  0  0  0  0  0  0
   -1.7253    1.6322    0.7228 O   0  0  0  0  0  1  0  0  0  0  0  0
    0.8222   -0.3432    0.9592 C   0  0  0  0  0  0  0  0  0  0  0  0
    3.0710    0.4379   -0.1122 H   0  0  0  0  0  0  0  0  0  0  0  0
    4.7753    1.8972   -0.5314 H   0  0  0  0  0  0  0  0  0  0  0  0
    7.1691    2.3829   -0.6492 H   0  0  0  0  0  0  0  0  0  0  0  0
   12.1511   -0.2552   -0.2470 H   0  0  0  0  0  0  0  0  0  0  0  0
   11.8253    0.9550    1.0151 H   0  0  0  0  0  0  0  0  0  0  0  0
   11.3937    1.1527   -1.9726 H   0  0  0  0  0  0  0  0  0  0  0  0
   11.7404    2.4680   -0.8147 H   0  0  0  0  0  0  0  0  0  0  0  0
    9.2506    2.0239   -1.6724 H   0  0  0  0  0  0  0  0  0  0  0  0
    8.0537   -1.6495    0.5853 H   0  0  0  0  0  0  0  0  0  0  0  0
    5.6721   -2.1444    0.7232 H   0  0  0  0  0  0  0  0  0  0  0  0
    1.2335   -3.4208   -0.4499 H   0  0  0  0  0  0  0  0  0  0  0  0
   -1.2335   -3.3547   -0.4122 H   0  0  0  0  0  0  0  0  0  0  0  0
   -2.9627    0.4583   -0.3252 H   0  0  0  0  0  0  0  0  0  0  0  0
   -4.6667    1.8270   -0.9135 H   0  0  0  0  0  0  0  0  0  0  0  0
   -7.0681    2.2186   -1.2267 H   0  0  0  0  0  0  0  0  0  0  0  0
  -11.3708    1.0773   -2.3414 H   0  0  0  0  0  0  0  0  0  0  0  0
  -11.4771    2.4014   -1.1583 H   0  0  0  0  0  0  0  0  0  0  0  0
  -11.5785    0.9272    0.6741 H   0  0  0  0  0  0  0  0  0  0  0  0
  -12.1614   -0.2508   -0.5343 H   0  0  0  0  0  0  0  0  0  0  0  0
   -9.8722   -0.6810    0.7584 H   0  0  0  0  0  0  0  0  0  0  0  0
   -7.9016   -1.7584    0.2137 H   0  0  0  0  0  0  0  0  0  0  0  0
   -5.5301   -2.1559    0.5390 H   0  0  0  0  0  0  0  0  0  0  0  0
    1.3825    0.4778    1.4013 H   0  0  0  0  0  0  0  0  0  0  0  0
  1  2  2  0
  2  3  1  0
  3  4  1  0
  4  5  2  0
  5  6  1  0
  6  7  2  0
  7  8  1  0
  8  9  2  0
  9 10  1  0
 10 11  1  0
 11 12  1  0
  7 13  1  0
 13 14  2  0
  2 15  1  0
 15 16  2  0
 16 17  1  0
 17 18  2  0
 18 19  1  0
 19 20  2  0
 19 21  1  0
 21 22  1  0
 22 23  2  0
 23 24  1  0
 24 25  2  0
 25 26  1  0
 26 27  2  0
 27 28  1  0
 28 29  1  0
 29 30  1  0
 25 31  1  0
 31 32  2  0
 18 33  1  0
 33 34  1  0
 34 35  2  0
 34 36  1  0
 33 37  2  0
 14  4  1  0
 37 15  1  0
 12  8  1  0
 32 22  1  0
 30 26  1  0
  3 38  1  0
  5 39  1  0
  6 40  1  0
 10 41  1  0
 10 42  1  0
 11 43  1  0
 11 44  1  0
 12 45  1  0
 13 46  1  0
 14 47  1  0
 16 48  1  0
 17 49  1  0
 21 50  1  0
 23 51  1  0
 24 52  1  0
 28 53  1  0
 28 54  1  0
 29 55  1  0
 29 56  1  0
 30 57  1  0
 31 58  1  0
 32 59  1  0
 37 60  1  0
M  CHG  2  34   1  36  -1
M  END
$$$$
