
     RDKit          3D

 46 48  0  0  0  0  0  0  0  0999 V2000
    5.4694    3.4151   -0.6316 C   0  0  0  0  0  0  0  0  0  0  0  0
    4.4873    2.8878    0.2499 O   0  0  0  0  0  0  0  0  0  0  0  0
    3.4008    2.2619   -0.4305 C   0  0  0  0  0  0  0  0  0  0  0  0
    3.7180    0.8135   -0.8009 C   0  0  0  0  0  0  0  0  0  0  0  0
    2.6509    0.2275   -1.5628 O   0  0  0  0  0  0  0  0  0  0  0  0
    1.6061   -0.2673   -0.8382 C   0  0  0  0  0  0  0  0  0  0  0  0
    1.5387   -0.2157    0.3834 O   0  0  0  0  0  0  0  0  0  0  0  0
    0.5653   -0.8565   -1.6637 C   0  0  0  0  0  0  0  0  0  0  0  0
    0.5453   -0.9691   -3.0474 C   0  0  0  0  0  0  0  0  0  0  0  0
    1.4794   -0.5797   -4.1275 C   0  0  0  0  0  0  0  0  0  0  0  0
   -0.6030   -1.5750   -3.4619 O   0  0  0  0  0  0  0  0  0  0  0  0
   -1.3344   -1.8603   -2.3550 C   0  0  0  0  0  0  0  0  0  0  0  0
   -2.5823   -2.4795   -2.3526 C   0  0  0  0  0  0  0  0  0  0  0  0
   -3.1780   -2.6818   -1.1031 C   0  0  0  0  0  0  0  0  0  0  0  0
   -2.5331   -2.2862    0.0708 C   0  0  0  0  0  0  0  0  0  0  0  0
   -3.1837   -2.4638    1.3224 N   0  0  0  0  0  0  0  0  0  0  0  0
   -4.1656   -1.2075    1.8882 S   0  0  0  0  0  6  0  0  0  0  0  0
   -4.8160   -0.5629    0.7680 O   0  0  0  0  0  0  0  0  0  0  0  0
   -4.9385   -1.7652    2.9783 O   0  0  0  0  0  0  0  0  0  0  0  0
   -2.9899   -0.0812    2.5979 C   0  0  0  0  0  0  0  0  0  0  0  0
   -2.6594    1.0985    1.9198 C   0  0  0  0  0  0  0  0  0  0  0  0
   -1.7414    1.9808    2.4901 C   0  0  0  0  0  0  0  0  0  0  0  0
   -1.1769    1.6819    3.7271 C   0  0  0  0  0  0  0  0  0  0  0  0
   -0.3007    2.5346    4.2735 F   0  0  0  0  0  0  0  0  0  0  0  0
   -1.5132    0.5162    4.4103 C   0  0  0  0  0  0  0  0  0  0  0  0
   -2.4291   -0.3730    3.8473 C   0  0  0  0  0  0  0  0  0  0  0  0
   -1.2798   -1.6611    0.0354 C   0  0  0  0  0  0  0  0  0  0  0  0
   -0.6635   -1.4429   -1.2135 C   0  0  0  0  0  0  0  0  0  0  0  0
    6.2479    3.8922   -0.0300 H   0  0  0  0  0  0  0  0  0  0  0  0
    5.9307    2.6217   -1.2256 H   0  0  0  0  0  0  0  0  0  0  0  0
    5.0282    4.1704   -1.2890 H   0  0  0  0  0  0  0  0  0  0  0  0
    2.5404    2.2841    0.2468 H   0  0  0  0  0  0  0  0  0  0  0  0
    3.1039    2.8407   -1.3139 H   0  0  0  0  0  0  0  0  0  0  0  0
    4.6134    0.7692   -1.4291 H   0  0  0  0  0  0  0  0  0  0  0  0
    3.9515    0.2154    0.0887 H   0  0  0  0  0  0  0  0  0  0  0  0
    2.4455   -1.0769   -3.9978 H   0  0  0  0  0  0  0  0  0  0  0  0
    1.6384    0.5029   -4.1260 H   0  0  0  0  0  0  0  0  0  0  0  0
    1.0885   -0.8593   -5.1112 H   0  0  0  0  0  0  0  0  0  0  0  0
   -3.0671   -2.7746   -3.2755 H   0  0  0  0  0  0  0  0  0  0  0  0
   -4.1645   -3.1379   -1.0601 H   0  0  0  0  0  0  0  0  0  0  0  0
   -3.6188   -3.3678    1.5045 H   0  0  0  0  0  0  0  0  0  0  0  0
   -3.1045    1.3313    0.9547 H   0  0  0  0  0  0  0  0  0  0  0  0
   -1.4633    2.8990    1.9821 H   0  0  0  0  0  0  0  0  0  0  0  0
   -1.0611    0.3118    5.3759 H   0  0  0  0  0  0  0  0  0  0  0  0
   -2.6997   -1.2821    4.3797 H   0  0  0  0  0  0  0  0  0  0  0  0
   -0.7821   -1.3572    0.9519 H   0  0  0  0  0  0  0  0  0  0  0  0
  1  2  1  0
  2  3  1  0
  3  4  1  0
  4  5  1  0
  5  6  1  0
  6  7  2  0
  6  8  1  0
  8  9  2  0
  9 10  1  0
  9 11  1  0
 11 12  1  0
 12 13  2  0
 13 14  1  0
 14 15  2  0
 15 16  1  0
 16 17  1  0
 17 18  2  0
 17 19  2  0
 17 20  1  0
 20 21  2  0
 21 22  1  0
 22 23  2  0
 23 24  1  0
 23 25  1  0
 25 26  2  0
 15 27  1  0
 27 28  2  0
 28  8  1  0
 28 12  1  0
 26 20  1  0
  1 29  1  0
  1 30  1  0
  1 31  1  0
  3 32  1  0
  3 33  1  0
  4 34  1  0
  4 35  1  0
 10 36  1  0
 10 37  1  0
 10 38  1  0
 13 39  1  0
 14 40  1  0
 16 41  1  0
 21 42  1  0
 22 43  1  0
 25 44  1  0
 26 45  1  0
 27 46  1  0
M  END
$$$$
