
     RDKit          3D

 62 65  0  0  0  0  0  0  0  0999 V2000
    0.7836    0.9716   -3.6166 C   0  0  0  0  0  0  0  0  0  0  0  0
    0.6813    0.2531   -2.3923 O   0  0  0  0  0  0  0  0  0  0  0  0
    1.8583   -0.1461   -1.7995 C   0  0  0  0  0  0  0  0  0  0  0  0
    3.1370    0.1522   -2.2832 C   0  0  0  0  0  0  0  0  0  0  0  0
    4.2671   -0.3016   -1.6002 C   0  0  0  0  0  0  0  0  0  0  0  0
    4.1117   -1.0591   -0.4381 C   0  0  0  0  0  0  0  0  0  0  0  0
    5.5449   -1.6308    0.4393 S   0  0  0  0  0  6  0  0  0  0  0  0
    6.6797   -0.8335    0.0188 O   0  0  0  0  0  0  0  0  0  0  0  0
    5.5574   -3.0740    0.3411 O   0  0  0  0  0  0  0  0  0  0  0  0
    5.2109   -1.1989    2.0501 N   0  0  0  0  0  0  0  0  0  0  0  0
    5.1497    0.2702    2.3416 C   0  0  0  0  0  0  0  0  0  0  0  0
    6.3739    0.7215    3.1437 C   0  0  0  0  0  0  0  0  0  0  0  0
    6.4707    0.0764    4.4220 O   0  0  0  0  0  0  0  0  0  0  0  0
    5.9554   -1.2644    4.4206 C   0  0  0  0  0  0  0  0  0  0  0  0
    6.0386   -1.9450    3.0508 C   0  0  0  0  0  0  0  0  0  0  0  0
    2.8416   -1.3644    0.0605 C   0  0  0  0  0  0  0  0  0  0  0  0
    1.7109   -0.9037   -0.6141 C   0  0  0  0  0  0  0  0  0  0  0  0
    0.3933   -1.1577   -0.1823 N   0  0  0  0  0  0  0  0  0  0  0  0
   -0.0383   -1.8054    0.9565 C   0  0  0  0  0  0  0  0  0  0  0  0
    0.6749   -2.2678    1.8427 O   0  0  0  0  0  0  0  0  0  0  0  0
   -1.5634   -1.9120    1.0424 C   0  0  0  0  0  0  0  0  0  0  0  0
   -2.2050   -1.2465   -0.0517 O   0  0  0  0  0  0  0  0  0  0  0  0
   -3.5579   -1.3919   -0.0638 C   0  0  0  0  0  0  0  0  0  0  0  0
   -4.2059   -2.0096    0.7672 O   0  0  0  0  0  0  0  0  0  0  0  0
   -4.1561   -0.6522   -1.2346 C   0  0  0  0  0  0  0  0  0  0  0  0
   -4.6608    0.7282   -0.8084 C   0  0  0  0  0  0  0  0  0  0  0  0
   -5.9924    0.6618   -0.0216 C   0  0  0  0  0  0  0  0  0  0  0  0
   -6.9320    1.5627   -0.8433 C   0  0  0  0  0  0  0  0  0  0  0  0
   -6.4805    3.0258   -0.7008 C   0  0  0  0  0  0  0  0  0  0  0  0
   -5.1876    3.0700   -1.5298 C   0  0  0  0  0  0  0  0  0  0  0  0
   -5.0420    1.6162   -2.0199 C   0  0  0  0  0  0  0  0  0  0  0  0
   -6.5028    1.2374   -2.2724 C   0  0  0  0  0  0  0  0  0  0  0  0
    1.2795    0.3722   -4.3873 H   0  0  0  0  0  0  0  0  0  0  0  0
   -0.2326    1.1842   -3.9633 H   0  0  0  0  0  0  0  0  0  0  0  0
    1.2919    1.9307   -3.4692 H   0  0  0  0  0  0  0  0  0  0  0  0
    3.2900    0.7341   -3.1860 H   0  0  0  0  0  0  0  0  0  0  0  0
    5.2592   -0.0684   -1.9826 H   0  0  0  0  0  0  0  0  0  0  0  0
    5.0708    0.8586    1.4225 H   0  0  0  0  0  0  0  0  0  0  0  0
    4.2332    0.4463    2.9183 H   0  0  0  0  0  0  0  0  0  0  0  0
    6.3305    1.8007    3.3250 H   0  0  0  0  0  0  0  0  0  0  0  0
    7.3003    0.5195    2.5915 H   0  0  0  0  0  0  0  0  0  0  0  0
    6.5266   -1.8341    5.1602 H   0  0  0  0  0  0  0  0  0  0  0  0
    4.9160   -1.2237    4.7683 H   0  0  0  0  0  0  0  0  0  0  0  0
    7.0838   -1.9702    2.7203 H   0  0  0  0  0  0  0  0  0  0  0  0
    5.6615   -2.9703    3.1277 H   0  0  0  0  0  0  0  0  0  0  0  0
    2.7629   -1.9633    0.9631 H   0  0  0  0  0  0  0  0  0  0  0  0
   -0.3320   -0.7848   -0.7921 H   0  0  0  0  0  0  0  0  0  0  0  0
   -1.8762   -1.4453    1.9839 H   0  0  0  0  0  0  0  0  0  0  0  0
   -1.8183   -2.9785    1.0329 H   0  0  0  0  0  0  0  0  0  0  0  0
   -3.3883   -0.5571   -2.0130 H   0  0  0  0  0  0  0  0  0  0  0  0
   -4.9475   -1.2761   -1.6647 H   0  0  0  0  0  0  0  0  0  0  0  0
   -3.8904    1.2186   -0.1990 H   0  0  0  0  0  0  0  0  0  0  0  0
   -6.3911   -0.3584    0.0207 H   0  0  0  0  0  0  0  0  0  0  0  0
   -5.8725    1.0211    1.0063 H   0  0  0  0  0  0  0  0  0  0  0  0
   -7.9900    1.4064   -0.6224 H   0  0  0  0  0  0  0  0  0  0  0  0
   -7.2244    3.7077   -1.1285 H   0  0  0  0  0  0  0  0  0  0  0  0
   -6.3130    3.3135    0.3424 H   0  0  0  0  0  0  0  0  0  0  0  0
   -5.3068    3.7547   -2.3773 H   0  0  0  0  0  0  0  0  0  0  0  0
   -4.3290    3.4071   -0.9397 H   0  0  0  0  0  0  0  0  0  0  0  0
   -4.3760    1.5166   -2.8805 H   0  0  0  0  0  0  0  0  0  0  0  0
   -6.6453    0.1849   -2.5382 H   0  0  0  0  0  0  0  0  0  0  0  0
   -6.9886    1.8708   -3.0222 H   0  0  0  0  0  0  0  0  0  0  0  0
  1  2  1  0
  2  3  1  0
  3  4  2  0
  4  5  1  0
  5  6  2  0
  6  7  1  0
  7  8  2  0
  7  9  2  0
  7 10  1  0
 10 11  1  0
 11 12  1  0
 12 13  1  0
 13 14  1  0
 14 15  1  0
  6 16  1  0
 16 17  2  0
 17 18  1  0
 18 19  1  0
 19 20  2  0
 19 21  1  0
 21 22  1  0
 22 23  1  0
 23 24  2  0
 23 25  1  0
 25 26  1  0
 26 27  1  0
 27 28  1  0
 28 29  1  0
 29 30  1  0
 30 31  1  0
 31 32  1  0
 17  3  1  0
 31 26  1  0
 15 10  1  0
 32 28  1  0
  1 33  1  0
  1 34  1  0
  1 35  1  0
  4 36  1  0
  5 37  1  0
 11 38  1  0
 11 39  1  0
 12 40  1  0
 12 41  1  0
 14 42  1  0
 14 43  1  0
 15 44  1  0
 15 45  1  0
 16 46  1  0
 18 47  1  0
 21 48  1  0
 21 49  1  0
 25 50  1  0
 25 51  1  0
 26 52  1  0
 27 53  1  0
 27 54  1  0
 28 55  1  0
 29 56  1  0
 29 57  1  0
 30 58  1  0
 30 59  1  0
 31 60  1  0
 32 61  1  0
 32 62  1  0
M  END
$$$$
