
     RDKit          3D

 37 38  0  0  0  0  0  0  0  0999 V2000
    5.5170   -0.3129    2.7413 C   0  0  0  0  0  0  0  0  0  0  0  0
    4.3320    0.3783    2.0623 C   0  0  0  0  0  0  0  0  0  0  0  0
    4.7570    1.7646    1.5706 C   0  0  0  0  0  0  0  0  0  0  0  0
    3.7988   -0.5022    0.9173 C   0  0  0  0  0  0  0  0  0  0  0  0
    2.4979   -0.0069    0.3682 C   0  0  0  0  0  0  0  0  0  0  0  0
    1.3691    0.0480    1.0470 N   0  0  0  0  0  0  0  0  0  0  0  0
    0.3279    0.5371    0.2837 N   0  0  0  0  0  0  0  0  0  0  0  0
    0.7075    0.8014   -0.9429 C   0  0  0  0  0  0  0  0  0  0  0  0
   -0.1996    1.3521   -1.9277 N   0  0  0  0  0  0  0  0  0  0  0  0
   -1.4528    0.2945   -2.3157 S   0  0  0  0  0  6  0  0  0  0  0  0
   -0.9323   -1.0562   -2.2724 O   0  0  0  0  0  0  0  0  0  0  0  0
   -1.9880    0.8326   -3.5520 O   0  0  0  0  0  0  0  0  0  0  0  0
   -2.6305    0.5780   -0.9797 C   0  0  0  0  0  0  0  0  0  0  0  0
   -3.8774   -0.2247   -1.2486 C   0  0  0  0  0  0  0  0  0  0  0  0
   -3.9868   -1.5429   -0.7824 C   0  0  0  0  0  0  0  0  0  0  0  0
   -5.1385   -2.2894   -1.0348 C   0  0  0  0  0  0  0  0  0  0  0  0
   -6.1902   -1.7283   -1.7561 C   0  0  0  0  0  0  0  0  0  0  0  0
   -6.0907   -0.4213   -2.2286 C   0  0  0  0  0  0  0  0  0  0  0  0
   -4.9402    0.3279   -1.9777 C   0  0  0  0  0  0  0  0  0  0  0  0
    2.3632    0.5432   -1.2578 S   0  0  0  0  0  0  0  0  0  0  0  0
    6.3425   -0.4691    2.0384 H   0  0  0  0  0  0  0  0  0  0  0  0
    5.2216   -1.2890    3.1404 H   0  0  0  0  0  0  0  0  0  0  0  0
    5.8920    0.2881    3.5766 H   0  0  0  0  0  0  0  0  0  0  0  0
    3.5448    0.5109    2.8159 H   0  0  0  0  0  0  0  0  0  0  0  0
    5.1704    2.3574    2.3938 H   0  0  0  0  0  0  0  0  0  0  0  0
    3.9067    2.3209    1.1638 H   0  0  0  0  0  0  0  0  0  0  0  0
    5.5220    1.6921    0.7901 H   0  0  0  0  0  0  0  0  0  0  0  0
    4.5546   -0.5862    0.1262 H   0  0  0  0  0  0  0  0  0  0  0  0
    3.6297   -1.5208    1.2904 H   0  0  0  0  0  0  0  0  0  0  0  0
    0.2571    1.6704   -2.7800 H   0  0  0  0  0  0  0  0  0  0  0  0
   -2.1791    0.2735   -0.0331 H   0  0  0  0  0  0  0  0  0  0  0  0
   -2.8523    1.6491   -0.9448 H   0  0  0  0  0  0  0  0  0  0  0  0
   -3.1714   -2.0022   -0.2257 H   0  0  0  0  0  0  0  0  0  0  0  0
   -5.2122   -3.3117   -0.6728 H   0  0  0  0  0  0  0  0  0  0  0  0
   -7.0849   -2.3122   -1.9557 H   0  0  0  0  0  0  0  0  0  0  0  0
   -6.9076    0.0133   -2.7989 H   0  0  0  0  0  0  0  0  0  0  0  0
   -4.8772    1.3427   -2.3658 H   0  0  0  0  0  0  0  0  0  0  0  0
  1  2  1  0
  2  3  1  0
  2  4  1  0
  4  5  1  0
  5  6  2  0
  6  7  1  0
  7  8  2  0
  8  9  1  0
  9 10  1  0
 10 11  2  0
 10 12  2  0
 10 13  1  0
 13 14  1  0
 14 15  2  0
 15 16  1  0
 16 17  2  0
 17 18  1  0
 18 19  2  0
  8 20  1  0
 20  5  1  0
 19 14  1  0
  1 21  1  0
  1 22  1  0
  1 23  1  0
  2 24  1  0
  3 25  1  0
  3 26  1  0
  3 27  1  0
  4 28  1  0
  4 29  1  0
  9 30  1  0
 13 31  1  0
 13 32  1  0
 15 33  1  0
 16 34  1  0
 17 35  1  0
 18 36  1  0
 19 37  1  0
M  END
$$$$
