
     RDKit          3D

 33 35  0  0  0  0  0  0  0  0999 V2000
    0.8075   -1.6176    0.5841 O   0  0  0  0  0  0  0  0  0  0  0  0
    0.1826   -1.4779   -0.4575 C   0  0  0  0  0  0  0  0  0  0  0  0
    0.6687   -0.8398   -1.7145 C   0  0  0  0  0  0  0  0  0  0  0  0
    1.7668   -0.0992   -1.9214 C   0  0  0  0  0  0  0  0  0  0  0  0
    2.7268    0.2309   -0.9268 C   0  0  0  0  0  0  0  0  0  0  0  0
    3.4732   -0.5736   -0.0843 C   0  0  0  0  0  0  0  0  0  0  0  0
    4.3464    0.1668    0.7654 C   0  0  0  0  0  0  0  0  0  0  0  0
    4.2607    1.5197    0.5362 C   0  0  0  0  0  0  0  0  0  0  0  0
    3.1402    1.8894   -0.6979 S   0  0  0  0  0  0  0  0  0  0  0  0
   -0.4953   -1.1049   -2.9813 S   0  0  0  0  0  0  0  0  0  0  0  0
   -1.6507   -1.8968   -1.9146 C   0  0  0  0  0  0  0  0  0  0  0  0
   -3.1182   -2.4810   -2.4342 S   0  0  0  0  0  0  0  0  0  0  0  0
   -1.1130   -1.9324   -0.6481 N   0  0  0  0  0  0  0  0  0  0  0  0
   -1.8316   -2.5257    0.5418 N   0  0  0  0  0  0  0  0  0  0  0  0
   -2.8077   -1.4708    1.4685 S   0  0  0  0  0  6  0  0  0  0  0  0
   -2.4969   -1.7526    2.8535 O   0  0  0  0  0  0  0  0  0  0  0  0
   -4.1611   -1.5505    0.9671 O   0  0  0  0  0  0  0  0  0  0  0  0
   -2.1869    0.1529    1.0940 C   0  0  0  0  0  0  0  0  0  0  0  0
   -1.0858    0.6516    1.7963 C   0  0  0  0  0  0  0  0  0  0  0  0
   -0.5719    1.9044    1.4639 C   0  0  0  0  0  0  0  0  0  0  0  0
   -1.1700    2.6601    0.4541 C   0  0  0  0  0  0  0  0  0  0  0  0
   -2.2903    2.1724   -0.2209 C   0  0  0  0  0  0  0  0  0  0  0  0
   -2.8080    0.9184    0.1013 C   0  0  0  0  0  0  0  0  0  0  0  0
    1.9258    0.3462   -2.9026 H   0  0  0  0  0  0  0  0  0  0  0  0
    3.3939   -1.6543   -0.0644 H   0  0  0  0  0  0  0  0  0  0  0  0
    5.0037   -0.2743    1.5046 H   0  0  0  0  0  0  0  0  0  0  0  0
    4.8076    2.3108    1.0307 H   0  0  0  0  0  0  0  0  0  0  0  0
   -1.1865   -2.9931    1.1913 H   0  0  0  0  0  0  0  0  0  0  0  0
   -0.6091    0.0662    2.5805 H   0  0  0  0  0  0  0  0  0  0  0  0
    0.2970    2.2923    1.9913 H   0  0  0  0  0  0  0  0  0  0  0  0
   -0.7674    3.6387    0.2014 H   0  0  0  0  0  0  0  0  0  0  0  0
   -2.7634    2.7749   -0.9933 H   0  0  0  0  0  0  0  0  0  0  0  0
   -3.6873    0.5486   -0.4232 H   0  0  0  0  0  0  0  0  0  0  0  0
  1  2  2  0
  2  3  1  0
  3  4  2  3
  4  5  1  0
  5  6  2  0
  6  7  1  0
  7  8  2  0
  8  9  1  0
  3 10  1  0
 10 11  1  0
 11 12  2  0
 11 13  1  0
 13 14  1  0
 14 15  1  0
 15 16  2  0
 15 17  2  0
 15 18  1  0
 18 19  2  0
 19 20  1  0
 20 21  2  0
 21 22  1  0
 22 23  2  0
 13  2  1  0
 23 18  1  0
  9  5  1  0
  4 24  1  0
  6 25  1  0
  7 26  1  0
  8 27  1  0
 14 28  1  0
 19 29  1  0
 20 30  1  0
 21 31  1  0
 22 32  1  0
 23 33  1  0
M  END
$$$$
