
     RDKit          3D

 43 45  0  0  0  0  0  0  0  0999 V2000
    6.6578   -1.4701    1.1286 C   0  0  0  0  0  0  0  0  0  0  0  0
    5.7139   -0.5930    0.3598 C   0  0  0  0  0  0  0  0  0  0  0  0
    6.2060    0.4170   -0.4714 C   0  0  0  0  0  0  0  0  0  0  0  0
    5.3286    1.2130   -1.2068 C   0  0  0  0  0  0  0  0  0  0  0  0
    3.9442    1.0074   -1.1297 C   0  0  0  0  0  0  0  0  0  0  0  0
    3.0155    1.8799   -1.9290 C   0  0  0  0  0  0  0  0  0  0  0  0
    3.4417   -0.0183   -0.3087 C   0  0  0  0  0  0  0  0  0  0  0  0
    2.0776   -0.1529   -0.3034 O   0  0  0  0  0  0  0  0  0  0  0  0
    1.5169   -1.1583    0.5372 C   0  0  0  0  0  0  0  0  0  0  0  0
    0.0452   -1.0887    0.3795 C   0  0  0  0  0  0  0  0  0  0  0  0
   -0.8104   -0.5162   -0.5291 C   0  0  0  0  0  0  0  0  0  0  0  0
   -2.1116   -0.8455   -0.0668 C   0  0  0  0  0  0  0  0  0  0  0  0
   -3.3808   -0.4917   -0.7191 C   0  0  0  0  0  0  0  0  0  0  0  0
   -3.3956   -0.1721   -1.9095 O   0  0  0  0  0  0  0  0  0  0  0  0
   -4.5691   -0.5624    0.0192 N   0  0  0  0  0  0  0  0  0  0  0  0
   -5.8279   -0.4111   -0.7029 C   0  0  0  0  0  0  0  0  0  0  0  0
   -6.2513    1.0548   -0.6768 C   0  0  0  0  0  0  0  0  0  0  0  0
   -6.2943    1.5658    0.6812 N   0  0  0  0  0  0  0  0  0  0  0  0
   -5.4140    1.1606    1.6561 C   0  0  0  0  0  0  0  0  0  0  0  0
   -5.3525    1.7857    2.7134 O   0  0  0  0  0  0  0  0  0  0  0  0
   -4.6389   -0.1558    1.4307 C   0  0  0  0  0  0  0  0  0  0  0  0
   -2.0321   -1.6099    1.0372 N   0  0  0  0  0  0  0  0  0  0  0  0
   -0.6868   -1.7440    1.3188 O   0  0  0  0  0  0  0  0  0  0  0  0
    4.3296   -0.8138    0.4252 C   0  0  0  0  0  0  0  0  0  0  0  0
    6.8961   -2.3655    0.5457 H   0  0  0  0  0  0  0  0  0  0  0  0
    6.2158   -1.7743    2.0834 H   0  0  0  0  0  0  0  0  0  0  0  0
    7.5883   -0.9396    1.3569 H   0  0  0  0  0  0  0  0  0  0  0  0
    7.2765    0.5927   -0.5517 H   0  0  0  0  0  0  0  0  0  0  0  0
    5.7337    1.9962   -1.8436 H   0  0  0  0  0  0  0  0  0  0  0  0
    3.5643    2.6454   -2.4883 H   0  0  0  0  0  0  0  0  0  0  0  0
    2.4563    1.2760   -2.6512 H   0  0  0  0  0  0  0  0  0  0  0  0
    2.3141    2.3961   -1.2650 H   0  0  0  0  0  0  0  0  0  0  0  0
    1.8619   -2.1519    0.2283 H   0  0  0  0  0  0  0  0  0  0  0  0
    1.7798   -0.9686    1.5846 H   0  0  0  0  0  0  0  0  0  0  0  0
   -0.5454    0.0613   -1.4031 H   0  0  0  0  0  0  0  0  0  0  0  0
   -6.5733   -1.0372   -0.1978 H   0  0  0  0  0  0  0  0  0  0  0  0
   -5.7340   -0.7688   -1.7334 H   0  0  0  0  0  0  0  0  0  0  0  0
   -5.5400    1.6771   -1.2304 H   0  0  0  0  0  0  0  0  0  0  0  0
   -7.2442    1.1847   -1.1171 H   0  0  0  0  0  0  0  0  0  0  0  0
   -6.7304    2.4622    0.8632 H   0  0  0  0  0  0  0  0  0  0  0  0
   -5.1574   -0.9497    1.9782 H   0  0  0  0  0  0  0  0  0  0  0  0
   -3.6478    0.0020    1.8579 H   0  0  0  0  0  0  0  0  0  0  0  0
    3.9743   -1.6184    1.0612 H   0  0  0  0  0  0  0  0  0  0  0  0
  1  2  1  0
  2  3  2  0
  3  4  1  0
  4  5  2  0
  5  6  1  0
  5  7  1  0
  7  8  1  0
  8  9  1  0
  9 10  1  0
 10 11  2  0
 11 12  1  0
 12 13  1  0
 13 14  2  0
 13 15  1  0
 15 16  1  0
 16 17  1  0
 17 18  1  0
 18 19  1  0
 19 20  2  0
 19 21  1  0
 12 22  2  0
 22 23  1  0
  7 24  2  0
 24  2  1  0
 23 10  1  0
 21 15  1  0
  1 25  1  0
  1 26  1  0
  1 27  1  0
  3 28  1  0
  4 29  1  0
  6 30  1  0
  6 31  1  0
  6 32  1  0
  9 33  1  0
  9 34  1  0
 11 35  1  0
 16 36  1  0
 16 37  1  0
 17 38  1  0
 17 39  1  0
 18 40  1  0
 21 41  1  0
 21 42  1  0
 24 43  1  0
M  END
$$$$
