
     RDKit          3D

 41 44  0  0  0  0  0  0  0  0999 V2000
    6.1019    0.9730   -1.5715 C   0  0  0  0  0  0  0  0  0  0  0  0
    4.9724    0.2149   -2.2519 C   0  0  0  0  0  0  0  0  0  0  0  0
    3.7007    0.2587   -1.4433 C   0  0  0  0  0  0  0  0  0  0  0  0
    2.7786    1.2975   -1.6231 C   0  0  0  0  0  0  0  0  0  0  0  0
    1.6066    1.3499   -0.8616 C   0  0  0  0  0  0  0  0  0  0  0  0
    1.3425    0.3602    0.0910 C   0  0  0  0  0  0  0  0  0  0  0  0
    0.1005    0.3818    0.9262 C   0  0  0  0  0  0  0  0  0  0  0  0
    0.1046   -0.2401    2.0700 N   0  0  0  0  0  0  0  0  0  0  0  0
   -1.0155   -0.1929    2.8289 C   0  0  0  0  0  0  0  0  0  0  0  0
   -1.1857   -0.4786    4.1023 N   0  0  0  0  0  0  0  0  0  0  0  0
   -2.5076   -0.2118    4.3256 C   0  0  0  0  0  0  0  0  0  0  0  0
   -3.1916    0.2325    3.2672 N   0  0  0  0  0  0  0  0  0  0  0  0
   -2.2296    0.1917    2.3266 N   0  0  0  0  0  0  0  0  0  0  0  0
   -2.4291    0.6246    0.9555 C   0  0  0  0  0  0  0  0  0  0  0  0
   -3.1286   -0.4644    0.1560 C   0  0  0  0  0  0  0  0  0  0  0  0
   -4.5224   -0.6264    0.3053 C   0  0  0  0  0  0  0  0  0  0  0  0
   -5.2089   -1.6221   -0.3945 C   0  0  0  0  0  0  0  0  0  0  0  0
   -7.0764   -1.8079   -0.1708 Br  0  0  0  0  0  0  0  0  0  0  0  0
   -4.5281   -2.4791   -1.2537 C   0  0  0  0  0  0  0  0  0  0  0  0
   -3.1511   -2.3372   -1.4083 C   0  0  0  0  0  0  0  0  0  0  0  0
   -2.4676   -1.3428   -0.7084 C   0  0  0  0  0  0  0  0  0  0  0  0
   -1.1473   -1.2482   -0.9000 F   0  0  0  0  0  0  0  0  0  0  0  0
   -1.1036    1.1741    0.4154 C   0  0  0  0  0  0  0  0  0  0  0  0
    2.2709   -0.6696    0.2849 C   0  0  0  0  0  0  0  0  0  0  0  0
    3.4406   -0.7202   -0.4773 C   0  0  0  0  0  0  0  0  0  0  0  0
    6.3291    0.5486   -0.5877 H   0  0  0  0  0  0  0  0  0  0  0  0
    7.0105    0.9243   -2.1799 H   0  0  0  0  0  0  0  0  0  0  0  0
    5.8440    2.0281   -1.4306 H   0  0  0  0  0  0  0  0  0  0  0  0
    5.2707   -0.8281   -2.4140 H   0  0  0  0  0  0  0  0  0  0  0  0
    4.7904    0.6362   -3.2481 H   0  0  0  0  0  0  0  0  0  0  0  0
    2.9726    2.0785   -2.3556 H   0  0  0  0  0  0  0  0  0  0  0  0
    0.9296    2.1835   -1.0197 H   0  0  0  0  0  0  0  0  0  0  0  0
   -2.9808   -0.3392    5.2908 H   0  0  0  0  0  0  0  0  0  0  0  0
   -3.1177    1.4808    1.0006 H   0  0  0  0  0  0  0  0  0  0  0  0
   -5.0723    0.0221    0.9877 H   0  0  0  0  0  0  0  0  0  0  0  0
   -5.0552   -3.2577   -1.7987 H   0  0  0  0  0  0  0  0  0  0  0  0
   -2.5996   -2.9993   -2.0699 H   0  0  0  0  0  0  0  0  0  0  0  0
   -1.1226    1.2263   -0.6775 H   0  0  0  0  0  0  0  0  0  0  0  0
   -0.9638    2.1980    0.7895 H   0  0  0  0  0  0  0  0  0  0  0  0
    2.0904   -1.4422    1.0300 H   0  0  0  0  0  0  0  0  0  0  0  0
    4.1485   -1.5289   -0.3074 H   0  0  0  0  0  0  0  0  0  0  0  0
  1  2  1  0
  2  3  1  0
  3  4  2  0
  4  5  1  0
  5  6  2  0
  6  7  1  0
  7  8  2  0
  8  9  1  0
  9 10  2  0
 10 11  1  0
 11 12  2  0
 12 13  1  0
 13 14  1  0
 14 15  1  0
 15 16  2  0
 16 17  1  0
 17 18  1  0
 17 19  2  0
 19 20  1  0
 20 21  2  0
 21 22  1  0
 14 23  1  0
  6 24  1  0
 24 25  2  0
 25  3  1  0
 23  7  1  0
 13  9  1  0
 21 15  1  0
  1 26  1  0
  1 27  1  0
  1 28  1  0
  2 29  1  0
  2 30  1  0
  4 31  1  0
  5 32  1  0
 11 33  1  0
 14 34  1  0
 16 35  1  0
 19 36  1  0
 20 37  1  0
 23 38  1  0
 23 39  1  0
 24 40  1  0
 25 41  1  0
M  END
$$$$
