
     RDKit          3D

 56 59  0  0  0  0  0  0  0  0999 V2000
   -0.2127   -3.6713    1.2641 C   0  0  0  0  0  0  0  0  0  0  0  0
   -0.6235   -3.0852   -0.0733 C   0  0  0  0  0  0  0  0  0  0  0  0
   -1.2897   -1.8301    0.1259 O   0  0  0  0  0  0  0  0  0  0  0  0
   -0.4891   -0.7301    0.1997 C   0  0  0  0  0  0  0  0  0  0  0  0
    0.7318   -0.7678    0.0696 O   0  0  0  0  0  0  0  0  0  0  0  0
   -1.2272    0.5173    0.4379 C   0  0  0  0  0  0  0  0  0  0  0  0
   -0.5764    1.7458    0.5170 C   0  0  0  0  0  0  0  0  0  0  0  0
    0.7904    1.9528    0.4341 N   0  0  0  0  0  0  0  0  0  0  0  0
    1.4907    3.1448    0.4815 C   0  0  0  0  0  0  0  0  0  0  0  0
    1.0303    4.2650    0.6941 O   0  0  0  0  0  0  0  0  0  0  0  0
    3.0069    2.9585    0.3333 C   0  0  0  0  0  0  0  0  0  0  0  0
    3.3837    1.6326   -0.1648 N   0  0  0  0  0  0  0  0  0  0  0  0
    3.5196    0.6415    0.7808 N   0  0  0  0  0  0  0  0  0  0  0  0
    3.8202   -0.5631    0.3882 C   0  0  0  0  0  0  0  0  0  0  0  0
    3.9753   -1.6201    1.4726 C   0  0  0  0  0  0  0  0  0  0  0  0
    3.2870   -2.6152    1.5731 O   0  0  0  0  0  0  0  0  0  0  0  0
    4.9993   -1.3474    2.2880 O   0  0  0  0  0  0  0  0  0  0  0  0
    4.0124   -0.9429   -1.0182 C   0  0  0  0  0  0  0  0  0  0  0  0
    4.3396   -2.2428   -1.4241 C   0  0  0  0  0  0  0  0  0  0  0  0
    4.5060   -2.5263   -2.7823 C   0  0  0  0  0  0  0  0  0  0  0  0
    4.3474   -1.5196   -3.7342 C   0  0  0  0  0  0  0  0  0  0  0  0
    4.0214   -0.2255   -3.3297 C   0  0  0  0  0  0  0  0  0  0  0  0
    3.8547    0.0605   -1.9685 C   0  0  0  0  0  0  0  0  0  0  0  0
    3.5095    1.4280   -1.5365 C   0  0  0  0  0  0  0  0  0  0  0  0
    3.3434    2.3068   -2.3775 O   0  0  0  0  0  0  0  0  0  0  0  0
   -1.6470    3.0447    0.7189 S   0  0  0  0  0  0  0  0  0  0  0  0
   -2.9966    2.0237    0.7398 C   0  0  0  0  0  0  0  0  0  0  0  0
   -2.6585    0.6890    0.6169 C   0  0  0  0  0  0  0  0  0  0  0  0
   -3.7174   -0.3792    0.6317 C   0  0  0  0  0  0  0  0  0  0  0  0
   -5.0685    0.1390    1.1517 C   0  0  0  0  0  0  0  0  0  0  0  0
   -5.4337    1.5024    0.5341 C   0  0  0  0  0  0  0  0  0  0  0  0
   -6.8264    1.9454    0.9775 C   0  0  0  0  0  0  0  0  0  0  0  0
   -4.3826    2.5682    0.9084 C   0  0  0  0  0  0  0  0  0  0  0  0
    0.4943   -3.0145    1.7796 H   0  0  0  0  0  0  0  0  0  0  0  0
    0.2517   -4.6521    1.1321 H   0  0  0  0  0  0  0  0  0  0  0  0
   -1.0833   -3.7776    1.9204 H   0  0  0  0  0  0  0  0  0  0  0  0
    0.2331   -2.9839   -0.7497 H   0  0  0  0  0  0  0  0  0  0  0  0
   -1.3406   -3.7531   -0.5616 H   0  0  0  0  0  0  0  0  0  0  0  0
    1.3642    1.1123    0.3380 H   0  0  0  0  0  0  0  0  0  0  0  0
    3.4732    3.1094    1.3135 H   0  0  0  0  0  0  0  0  0  0  0  0
    3.3759    3.7252   -0.3564 H   0  0  0  0  0  0  0  0  0  0  0  0
    4.9779   -2.0518    2.9660 H   0  0  0  0  0  0  0  0  0  0  0  0
    4.4636   -3.0526   -0.7088 H   0  0  0  0  0  0  0  0  0  0  0  0
    4.7577   -3.5365   -3.0997 H   0  0  0  0  0  0  0  0  0  0  0  0
    4.4763   -1.7417   -4.7913 H   0  0  0  0  0  0  0  0  0  0  0  0
    3.8972    0.5580   -4.0747 H   0  0  0  0  0  0  0  0  0  0  0  0
   -3.8451   -0.7588   -0.3882 H   0  0  0  0  0  0  0  0  0  0  0  0
   -3.4081   -1.2163    1.2660 H   0  0  0  0  0  0  0  0  0  0  0  0
   -5.8456   -0.6030    0.9323 H   0  0  0  0  0  0  0  0  0  0  0  0
   -5.0225    0.2367    2.2448 H   0  0  0  0  0  0  0  0  0  0  0  0
   -5.4454    1.3898   -0.5591 H   0  0  0  0  0  0  0  0  0  0  0  0
   -7.0898    2.9062    0.5241 H   0  0  0  0  0  0  0  0  0  0  0  0
   -7.5815    1.2126    0.6743 H   0  0  0  0  0  0  0  0  0  0  0  0
   -6.8821    2.0569    2.0653 H   0  0  0  0  0  0  0  0  0  0  0  0
   -4.5278    3.4555    0.2793 H   0  0  0  0  0  0  0  0  0  0  0  0
   -4.5140    2.8803    1.9526 H   0  0  0  0  0  0  0  0  0  0  0  0
  1  2  1  0
  2  3  1  0
  3  4  1  0
  4  5  2  0
  4  6  1  0
  6  7  2  0
  7  8  1  0
  8  9  1  0
  9 10  2  0
  9 11  1  0
 11 12  1  0
 12 13  1  0
 13 14  2  0
 14 15  1  0
 15 16  2  0
 15 17  1  0
 14 18  1  0
 18 19  2  0
 19 20  1  0
 20 21  2  0
 21 22  1  0
 22 23  2  0
 23 24  1  0
 24 25  2  0
  7 26  1  0
 26 27  1  0
 27 28  2  0
 28 29  1  0
 29 30  1  0
 30 31  1  0
 31 32  1  0
 31 33  1  0
 28  6  1  0
 24 12  1  0
 33 27  1  0
 23 18  1  0
  1 34  1  0
  1 35  1  0
  1 36  1  0
  2 37  1  0
  2 38  1  0
  8 39  1  0
 11 40  1  0
 11 41  1  0
 17 42  1  0
 19 43  1  0
 20 44  1  0
 21 45  1  0
 22 46  1  0
 29 47  1  0
 29 48  1  0
 30 49  1  0
 30 50  1  0
 31 51  1  0
 32 52  1  0
 32 53  1  0
 32 54  1  0
 33 55  1  0
 33 56  1  0
M  END
$$$$
