
     RDKit          3D

 46 49  0  0  0  0  0  0  0  0999 V2000
   -2.6204    2.1972    0.9196 C   0  0  0  0  0  0  0  0  0  0  0  0
   -3.3193    1.5534   -0.2696 C   0  0  0  0  0  0  0  0  0  0  0  0
   -2.6802    0.2178   -0.7196 C   0  0  0  0  0  0  0  0  0  0  0  0
   -3.2868   -0.2657   -2.0486 C   0  0  0  0  0  0  0  0  0  0  0  0
   -4.7135   -0.7856   -1.8841 C   0  0  0  0  0  0  0  0  0  0  0  0
   -4.7712   -1.8616   -0.8052 C   0  0  0  0  0  0  0  0  0  0  0  0
   -4.1480   -1.3898    0.5051 C   0  0  0  0  0  0  0  0  0  0  0  0
   -2.8051   -0.8478    0.2990 N   0  0  0  0  0  0  0  0  0  0  0  0
   -1.8624   -1.0622    1.3186 C   0  0  0  0  0  0  0  0  0  0  0  0
   -2.2020   -1.5280    2.4069 O   0  0  0  0  0  0  0  0  0  0  0  0
   -0.4733   -0.7207    1.0636 C   0  0  0  0  0  0  0  0  0  0  0  0
    0.3638    0.0390    1.8576 C   0  0  0  0  0  0  0  0  0  0  0  0
    1.6831    0.1140    1.3220 C   0  0  0  0  0  0  0  0  0  0  0  0
    2.8360    0.8286    1.8287 C   0  0  0  0  0  0  0  0  0  0  0  0
    2.7628    1.5120    2.8487 O   0  0  0  0  0  0  0  0  0  0  0  0
    3.9990    0.6702    1.0540 N   0  0  0  0  0  0  0  0  0  0  0  0
    5.1578    1.3183    1.4690 C   0  0  0  0  0  0  0  0  0  0  0  0
    6.3051    1.2253    0.7900 C   0  0  0  0  0  0  0  0  0  0  0  0
    6.3690    0.4377   -0.4087 C   0  0  0  0  0  0  0  0  0  0  0  0
    5.2918   -0.2157   -0.8702 C   0  0  0  0  0  0  0  0  0  0  0  0
    5.3083   -1.0502   -2.1129 C   0  0  0  0  0  0  0  0  0  0  0  0
    3.9926   -0.1182   -0.1129 C   0  0  0  0  0  0  0  0  0  0  0  0
    2.9487   -0.7543   -0.5665 N   0  0  0  0  0  0  0  0  0  0  0  0
    1.8239   -0.6217    0.1719 C   0  0  0  0  0  0  0  0  0  0  0  0
    0.3761   -1.4157   -0.2552 S   0  0  0  0  0  0  0  0  0  0  0  0
   -2.7236    1.5898    1.8230 H   0  0  0  0  0  0  0  0  0  0  0  0
   -1.5561    2.3494    0.7161 H   0  0  0  0  0  0  0  0  0  0  0  0
   -3.0647    3.1758    1.1289 H   0  0  0  0  0  0  0  0  0  0  0  0
   -4.3779    1.4230   -0.0211 H   0  0  0  0  0  0  0  0  0  0  0  0
   -3.2808    2.2628   -1.1059 H   0  0  0  0  0  0  0  0  0  0  0  0
   -1.6258    0.4330   -0.9075 H   0  0  0  0  0  0  0  0  0  0  0  0
   -3.2675    0.5373   -2.7945 H   0  0  0  0  0  0  0  0  0  0  0  0
   -2.6639   -1.0782   -2.4454 H   0  0  0  0  0  0  0  0  0  0  0  0
   -5.3894    0.0373   -1.6251 H   0  0  0  0  0  0  0  0  0  0  0  0
   -5.0677   -1.1982   -2.8355 H   0  0  0  0  0  0  0  0  0  0  0  0
   -5.8097   -2.1666   -0.6357 H   0  0  0  0  0  0  0  0  0  0  0  0
   -4.2304   -2.7482   -1.1602 H   0  0  0  0  0  0  0  0  0  0  0  0
   -4.7619   -0.6130    0.9743 H   0  0  0  0  0  0  0  0  0  0  0  0
   -4.1150   -2.2355    1.2010 H   0  0  0  0  0  0  0  0  0  0  0  0
    0.0417    0.5237    2.7730 H   0  0  0  0  0  0  0  0  0  0  0  0
    5.0955    1.9112    2.3788 H   0  0  0  0  0  0  0  0  0  0  0  0
    7.2007    1.7369    1.1282 H   0  0  0  0  0  0  0  0  0  0  0  0
    7.3222    0.3897   -0.9273 H   0  0  0  0  0  0  0  0  0  0  0  0
    4.5947   -0.6621   -2.8471 H   0  0  0  0  0  0  0  0  0  0  0  0
    5.0471   -2.0884   -1.8834 H   0  0  0  0  0  0  0  0  0  0  0  0
    6.2966   -1.0558   -2.5852 H   0  0  0  0  0  0  0  0  0  0  0  0
  1  2  1  0
  2  3  1  0
  3  4  1  0
  4  5  1  0
  5  6  1  0
  6  7  1  0
  7  8  1  0
  8  9  1  0
  9 10  2  0
  9 11  1  0
 11 12  2  0
 12 13  1  0
 13 14  1  0
 14 15  2  0
 14 16  1  0
 16 17  1  0
 17 18  2  0
 18 19  1  0
 19 20  2  0
 20 21  1  0
 20 22  1  0
 22 23  2  0
 23 24  1  0
 24 25  1  0
  8  3  1  0
 25 11  1  0
 24 13  2  0
 22 16  1  0
  1 26  1  0
  1 27  1  0
  1 28  1  0
  2 29  1  0
  2 30  1  0
  3 31  1  0
  4 32  1  0
  4 33  1  0
  5 34  1  0
  5 35  1  0
  6 36  1  0
  6 37  1  0
  7 38  1  0
  7 39  1  0
 12 40  1  0
 17 41  1  0
 18 42  1  0
 19 43  1  0
 21 44  1  0
 21 45  1  0
 21 46  1  0
M  END
$$$$
