
     RDKit          3D

 38 39  0  0  0  0  0  0  0  0999 V2000
   -3.4269   -2.1747    0.9975 C   0  0  0  0  0  0  0  0  0  0  0  0
   -4.3651   -1.1235    1.3681 N   0  0  0  0  0  0  0  0  0  0  0  0
   -3.6848    0.1562    1.6163 C   0  0  0  0  0  0  0  0  0  0  0  0
   -3.1614    0.8220    0.3651 C   0  0  0  0  0  0  0  0  0  0  0  0
   -4.0385    1.0898   -0.7005 C   0  0  0  0  0  0  0  0  0  0  0  0
   -3.5937    1.7487   -1.8484 C   0  0  0  0  0  0  0  0  0  0  0  0
   -2.2684    2.1660   -1.9422 C   0  0  0  0  0  0  0  0  0  0  0  0
   -1.3844    1.9120   -0.8949 C   0  0  0  0  0  0  0  0  0  0  0  0
   -1.8241    1.2243    0.2403 C   0  0  0  0  0  0  0  0  0  0  0  0
   -0.9497    0.9900    1.2698 O   0  0  0  0  0  0  0  0  0  0  0  0
   -0.0148   -0.0309    0.9333 C   0  0  0  0  0  0  0  0  0  0  0  0
    1.3758    0.4717    0.5116 C   0  0  0  0  0  0  0  0  0  0  0  0
    1.7070    1.6480    0.6181 O   0  0  0  0  0  0  0  0  0  0  0  0
    2.1674   -0.5600    0.0193 N   0  0  0  0  0  0  0  0  0  0  0  0
    3.4936   -0.4753   -0.4550 C   0  0  0  0  0  0  0  0  0  0  0  0
    4.0823   -1.6602   -0.9181 C   0  0  0  0  0  0  0  0  0  0  0  0
    5.3924   -1.6648   -1.4049 C   0  0  0  0  0  0  0  0  0  0  0  0
    6.1277   -0.4836   -1.4332 C   0  0  0  0  0  0  0  0  0  0  0  0
    5.5520    0.6986   -0.9749 C   0  0  0  0  0  0  0  0  0  0  0  0
    4.2406    0.7032   -0.4877 C   0  0  0  0  0  0  0  0  0  0  0  0
   -2.6678   -2.3286    1.7715 H   0  0  0  0  0  0  0  0  0  0  0  0
   -3.9711   -3.1161    0.8722 H   0  0  0  0  0  0  0  0  0  0  0  0
   -2.9304   -1.9606    0.0460 H   0  0  0  0  0  0  0  0  0  0  0  0
   -4.8414   -1.3982    2.2262 H   0  0  0  0  0  0  0  0  0  0  0  0
   -4.4099    0.8453    2.0678 H   0  0  0  0  0  0  0  0  0  0  0  0
   -2.9013    0.0178    2.3700 H   0  0  0  0  0  0  0  0  0  0  0  0
   -5.0804    0.7819   -0.6313 H   0  0  0  0  0  0  0  0  0  0  0  0
   -4.2871    1.9486   -2.6611 H   0  0  0  0  0  0  0  0  0  0  0  0
   -1.9256    2.7000   -2.8244 H   0  0  0  0  0  0  0  0  0  0  0  0
   -0.3606    2.2710   -0.9605 H   0  0  0  0  0  0  0  0  0  0  0  0
   -0.4073   -0.7112    0.1643 H   0  0  0  0  0  0  0  0  0  0  0  0
    0.1312   -0.6297    1.8404 H   0  0  0  0  0  0  0  0  0  0  0  0
    1.7503   -1.4814   -0.0164 H   0  0  0  0  0  0  0  0  0  0  0  0
    3.5328   -2.5976   -0.9088 H   0  0  0  0  0  0  0  0  0  0  0  0
    5.8376   -2.5899   -1.7616 H   0  0  0  0  0  0  0  0  0  0  0  0
    7.1468   -0.4821   -1.8108 H   0  0  0  0  0  0  0  0  0  0  0  0
    6.1212    1.6248   -0.9938 H   0  0  0  0  0  0  0  0  0  0  0  0
    3.8356    1.6485   -0.1405 H   0  0  0  0  0  0  0  0  0  0  0  0
  1  2  1  0
  2  3  1  0
  3  4  1  0
  4  5  2  0
  5  6  1  0
  6  7  2  0
  7  8  1  0
  8  9  2  0
  9 10  1  0
 10 11  1  0
 11 12  1  0
 12 13  2  0
 12 14  1  0
 14 15  1  0
 15 16  2  0
 16 17  1  0
 17 18  2  0
 18 19  1  0
 19 20  2  0
  9  4  1  0
 20 15  1  0
  1 21  1  0
  1 22  1  0
  1 23  1  0
  2 24  1  0
  3 25  1  0
  3 26  1  0
  5 27  1  0
  6 28  1  0
  7 29  1  0
  8 30  1  0
 11 31  1  0
 11 32  1  0
 14 33  1  0
 16 34  1  0
 17 35  1  0
 18 36  1  0
 19 37  1  0
 20 38  1  0
M  END
$$$$
