
     RDKit          3D

 45 47  0  0  0  0  0  0  0  0999 V2000
   -3.1323   -1.7978   -2.1867 C   0  0  0  0  0  0  0  0  0  0  0  0
   -2.3654   -0.9483   -1.1752 C   0  0  0  0  0  0  0  0  0  0  0  0
   -3.2328   -0.2835   -0.1961 N   0  0  0  0  0  0  0  0  0  0  0  0
   -3.8885   -1.2160    0.7283 C   0  0  0  0  0  0  0  0  0  0  0  0
   -5.1449   -0.6226    1.3601 C   0  0  0  0  0  0  0  0  0  0  0  0
   -2.5633    0.8565    0.4766 C   0  0  0  0  0  0  0  0  0  0  0  0
   -1.3317    0.5649    1.3225 C   0  0  0  0  0  0  0  0  0  0  0  0
   -1.4370    0.3058    2.7006 C   0  0  0  0  0  0  0  0  0  0  0  0
   -2.6651    0.3525    3.2989 O   0  0  0  0  0  0  0  0  0  0  0  0
   -0.3165    0.0208    3.4847 C   0  0  0  0  0  0  0  0  0  0  0  0
    0.9473    0.0061    2.9028 C   0  0  0  0  0  0  0  0  0  0  0  0
    1.0849    0.2927    1.5426 C   0  0  0  0  0  0  0  0  0  0  0  0
    2.4266    0.3012    0.9277 C   0  0  0  0  0  0  0  0  0  0  0  0
    3.4198    0.0509    1.6014 O   0  0  0  0  0  0  0  0  0  0  0  0
    2.4965    0.6219   -0.5236 C   0  0  0  0  0  0  0  0  0  0  0  0
    3.7688    0.6738   -1.2678 C   0  0  0  0  0  0  0  0  0  0  0  0
    4.8609    1.3930   -0.7625 C   0  0  0  0  0  0  0  0  0  0  0  0
    6.0655    1.4523   -1.4680 C   0  0  0  0  0  0  0  0  0  0  0  0
    6.1942    0.7909   -2.6870 C   0  0  0  0  0  0  0  0  0  0  0  0
    5.1211    0.0659   -3.1996 C   0  0  0  0  0  0  0  0  0  0  0  0
    3.9164    0.0058   -2.4941 C   0  0  0  0  0  0  0  0  0  0  0  0
    1.3355    0.9021   -1.1339 C   0  0  0  0  0  0  0  0  0  0  0  0
    0.0854    0.9038   -0.5695 O   0  0  0  0  0  0  0  0  0  0  0  0
   -0.0378    0.5786    0.7605 C   0  0  0  0  0  0  0  0  0  0  0  0
   -3.5498   -2.7031   -1.7374 H   0  0  0  0  0  0  0  0  0  0  0  0
   -3.9473   -1.2273   -2.6443 H   0  0  0  0  0  0  0  0  0  0  0  0
   -2.4576   -2.1167   -2.9886 H   0  0  0  0  0  0  0  0  0  0  0  0
   -1.8465   -0.1875   -1.7692 H   0  0  0  0  0  0  0  0  0  0  0  0
   -1.6029   -1.5639   -0.6837 H   0  0  0  0  0  0  0  0  0  0  0  0
   -3.2017   -1.5831    1.4977 H   0  0  0  0  0  0  0  0  0  0  0  0
   -4.2294   -2.1078    0.1926 H   0  0  0  0  0  0  0  0  0  0  0  0
   -5.6442   -1.3795    1.9743 H   0  0  0  0  0  0  0  0  0  0  0  0
   -5.8535   -0.3000    0.5895 H   0  0  0  0  0  0  0  0  0  0  0  0
   -4.9311    0.2329    2.0049 H   0  0  0  0  0  0  0  0  0  0  0  0
   -3.2921    1.4090    1.0821 H   0  0  0  0  0  0  0  0  0  0  0  0
   -2.2950    1.5943   -0.2921 H   0  0  0  0  0  0  0  0  0  0  0  0
   -2.5705    0.1685    4.2481 H   0  0  0  0  0  0  0  0  0  0  0  0
   -0.4086   -0.1862    4.5471 H   0  0  0  0  0  0  0  0  0  0  0  0
    1.8227   -0.2155    3.5099 H   0  0  0  0  0  0  0  0  0  0  0  0
    4.7866    1.9103    0.1923 H   0  0  0  0  0  0  0  0  0  0  0  0
    6.9040    2.0107   -1.0598 H   0  0  0  0  0  0  0  0  0  0  0  0
    7.1331    0.8345   -3.2329 H   0  0  0  0  0  0  0  0  0  0  0  0
    5.2231   -0.4588   -4.1461 H   0  0  0  0  0  0  0  0  0  0  0  0
    3.0987   -0.5797   -2.9084 H   0  0  0  0  0  0  0  0  0  0  0  0
    1.2542    1.1777   -2.1790 H   0  0  0  0  0  0  0  0  0  0  0  0
  1  2  1  0
  2  3  1  0
  3  4  1  0
  4  5  1  0
  3  6  1  0
  6  7  1  0
  7  8  2  0
  8  9  1  0
  8 10  1  0
 10 11  2  0
 11 12  1  0
 12 13  1  0
 13 14  2  0
 13 15  1  0
 15 16  1  0
 16 17  2  0
 17 18  1  0
 18 19  2  0
 19 20  1  0
 20 21  2  0
 15 22  2  0
 22 23  1  0
 23 24  1  0
 24  7  1  0
 24 12  2  0
 21 16  1  0
  1 25  1  0
  1 26  1  0
  1 27  1  0
  2 28  1  0
  2 29  1  0
  4 30  1  0
  4 31  1  0
  5 32  1  0
  5 33  1  0
  5 34  1  0
  6 35  1  0
  6 36  1  0
  9 37  1  0
 10 38  1  0
 11 39  1  0
 17 40  1  0
 18 41  1  0
 19 42  1  0
 20 43  1  0
 21 44  1  0
 22 45  1  0
M  END
$$$$
