
     RDKit          3D

 65 69  0  0  0  0  0  0  0  0999 V2000
   -6.8931    5.0003    1.8766 C   0  0  0  0  0  0  0  0  0  0  0  0
   -5.4733    5.0110    1.7954 O   0  0  0  0  0  0  0  0  0  0  0  0
   -4.8604    3.8210    1.5067 C   0  0  0  0  0  0  0  0  0  0  0  0
   -3.4761    3.8948    1.4065 C   0  0  0  0  0  0  0  0  0  0  0  0
   -2.7146    2.7581    1.1159 C   0  0  0  0  0  0  0  0  0  0  0  0
   -3.3418    1.5025    0.9208 C   0  0  0  0  0  0  0  0  0  0  0  0
   -2.7845    0.2036    0.6157 C   0  0  0  0  0  0  0  0  0  0  0  0
   -1.3681   -0.1037    0.4557 C   0  0  0  0  0  0  0  0  0  0  0  0
   -0.5240   -0.1144    1.5711 C   0  0  0  0  0  0  0  0  0  0  0  0
    0.8383   -0.4005    1.4247 C   0  0  0  0  0  0  0  0  0  0  0  0
    1.3652   -0.6738    0.1618 C   0  0  0  0  0  0  0  0  0  0  0  0
    2.6690   -0.9726   -0.1193 O   0  0  0  0  0  0  0  0  0  0  0  0
    3.6086   -0.8697    0.9514 C   0  0  0  0  0  0  0  0  0  0  0  0
    5.0260   -1.1774    0.4277 C   0  0  0  0  0  0  0  0  0  0  0  0
    5.5414   -0.2646   -0.6166 N   0  0  0  0  0  0  0  0  0  0  0  0
    6.8053   -0.7879   -1.1598 C   0  0  0  0  0  0  0  0  0  0  0  0
    7.3325    0.0843   -2.2994 C   0  0  0  0  0  0  0  0  0  0  0  0
    7.5001    1.5311   -1.8544 C   0  0  0  0  0  0  0  0  0  0  0  0
    6.2075    2.0441   -1.2337 C   0  0  0  0  0  0  0  0  0  0  0  0
    5.7052    1.1117   -0.1285 C   0  0  0  0  0  0  0  0  0  0  0  0
    0.5191   -0.6617   -0.9501 C   0  0  0  0  0  0  0  0  0  0  0  0
   -0.8402   -0.3744   -0.8090 C   0  0  0  0  0  0  0  0  0  0  0  0
   -3.7584   -0.7735    0.4950 C   0  0  0  0  0  0  0  0  0  0  0  0
   -3.6246   -2.2093    0.2156 C   0  0  0  0  0  0  0  0  0  0  0  0
   -3.3667   -3.0813    1.2862 C   0  0  0  0  0  0  0  0  0  0  0  0
   -3.2216   -4.4496    1.0662 C   0  0  0  0  0  0  0  0  0  0  0  0
   -3.3308   -4.9569   -0.2251 C   0  0  0  0  0  0  0  0  0  0  0  0
   -3.5827   -4.0997   -1.3005 C   0  0  0  0  0  0  0  0  0  0  0  0
   -3.7296   -2.7228   -1.0938 C   0  0  0  0  0  0  0  0  0  0  0  0
   -3.9664   -1.8098   -2.0910 O   0  0  0  0  0  0  0  0  0  0  0  0
   -4.0658   -2.2983   -3.4211 C   0  0  0  0  0  0  0  0  0  0  0  0
   -5.3248   -0.1413    0.7542 S   0  0  0  0  0  0  0  0  0  0  0  0
   -4.7327    1.4509    1.0234 C   0  0  0  0  0  0  0  0  0  0  0  0
   -5.5056    2.5973    1.3159 C   0  0  0  0  0  0  0  0  0  0  0  0
   -7.2369    4.3551    2.6918 H   0  0  0  0  0  0  0  0  0  0  0  0
   -7.2227    6.0200    2.0983 H   0  0  0  0  0  0  0  0  0  0  0  0
   -7.3414    4.7060    0.9218 H   0  0  0  0  0  0  0  0  0  0  0  0
   -2.9750    4.8491    1.5516 H   0  0  0  0  0  0  0  0  0  0  0  0
   -1.6337    2.8455    1.0350 H   0  0  0  0  0  0  0  0  0  0  0  0
   -0.9224    0.0947    2.5612 H   0  0  0  0  0  0  0  0  0  0  0  0
    1.4557   -0.4064    2.3161 H   0  0  0  0  0  0  0  0  0  0  0  0
    3.5737    0.1254    1.4080 H   0  0  0  0  0  0  0  0  0  0  0  0
    3.3657   -1.6177    1.7165 H   0  0  0  0  0  0  0  0  0  0  0  0
    4.9897   -2.1896    0.0041 H   0  0  0  0  0  0  0  0  0  0  0  0
    5.7185   -1.2048    1.2787 H   0  0  0  0  0  0  0  0  0  0  0  0
    6.6501   -1.7993   -1.5555 H   0  0  0  0  0  0  0  0  0  0  0  0
    7.5655   -0.8604   -0.3706 H   0  0  0  0  0  0  0  0  0  0  0  0
    8.2933   -0.3078   -2.6517 H   0  0  0  0  0  0  0  0  0  0  0  0
    6.6381    0.0395   -3.1481 H   0  0  0  0  0  0  0  0  0  0  0  0
    7.7830    2.1575   -2.7074 H   0  0  0  0  0  0  0  0  0  0  0  0
    8.3124    1.5983   -1.1203 H   0  0  0  0  0  0  0  0  0  0  0  0
    6.3674    3.0485   -0.8250 H   0  0  0  0  0  0  0  0  0  0  0  0
    5.4394    2.1351   -2.0127 H   0  0  0  0  0  0  0  0  0  0  0  0
    6.3990    1.1416    0.7216 H   0  0  0  0  0  0  0  0  0  0  0  0
    4.7470    1.5133    0.2172 H   0  0  0  0  0  0  0  0  0  0  0  0
    0.9244   -0.8747   -1.9363 H   0  0  0  0  0  0  0  0  0  0  0  0
   -1.4801   -0.3656   -1.6881 H   0  0  0  0  0  0  0  0  0  0  0  0
   -3.2769   -2.6909    2.2975 H   0  0  0  0  0  0  0  0  0  0  0  0
   -3.0220   -5.1165    1.9006 H   0  0  0  0  0  0  0  0  0  0  0  0
   -3.2164   -6.0240   -0.3992 H   0  0  0  0  0  0  0  0  0  0  0  0
   -3.6552   -4.5403   -2.2891 H   0  0  0  0  0  0  0  0  0  0  0  0
   -4.2520   -1.4432   -4.0775 H   0  0  0  0  0  0  0  0  0  0  0  0
   -4.9094   -2.9880   -3.5270 H   0  0  0  0  0  0  0  0  0  0  0  0
   -3.1285   -2.7645   -3.7416 H   0  0  0  0  0  0  0  0  0  0  0  0
   -6.5824    2.4969    1.3842 H   0  0  0  0  0  0  0  0  0  0  0  0
  1  2  1  0
  2  3  1  0
  3  4  2  0
  4  5  1  0
  5  6  2  0
  6  7  1  0
  7  8  1  0
  8  9  2  0
  9 10  1  0
 10 11  2  0
 11 12  1  0
 12 13  1  0
 13 14  1  0
 14 15  1  0
 15 16  1  0
 16 17  1  0
 17 18  1  0
 18 19  1  0
 19 20  1  0
 11 21  1  0
 21 22  2  0
  7 23  2  0
 23 24  1  0
 24 25  2  0
 25 26  1  0
 26 27  2  0
 27 28  1  0
 28 29  2  0
 29 30  1  0
 30 31  1  0
 23 32  1  0
 32 33  1  0
 33 34  2  0
 34  3  1  0
 33  6  1  0
 22  8  1  0
 29 24  1  0
 20 15  1  0
  1 35  1  0
  1 36  1  0
  1 37  1  0
  4 38  1  0
  5 39  1  0
  9 40  1  0
 10 41  1  0
 13 42  1  0
 13 43  1  0
 14 44  1  0
 14 45  1  0
 16 46  1  0
 16 47  1  0
 17 48  1  0
 17 49  1  0
 18 50  1  0
 18 51  1  0
 19 52  1  0
 19 53  1  0
 20 54  1  0
 20 55  1  0
 21 56  1  0
 22 57  1  0
 25 58  1  0
 26 59  1  0
 27 60  1  0
 28 61  1  0
 31 62  1  0
 31 63  1  0
 31 64  1  0
 34 65  1  0
M  END
$$$$
