
     RDKit          3D

 47 49  0  0  0  0  0  0  0  0999 V2000
    6.4055   -2.1420   -4.2191 C   0  0  0  0  0  0  0  0  0  0  0  0
    5.8677   -0.9115   -3.7524 O   0  0  0  0  0  0  0  0  0  0  0  0
    4.9682   -0.9791   -2.7256 C   0  0  0  0  0  0  0  0  0  0  0  0
    4.4874   -2.1423   -2.1291 C   0  0  0  0  0  0  0  0  0  0  0  0
    3.5600   -2.0636   -1.0816 C   0  0  0  0  0  0  0  0  0  0  0  0
    3.1160   -0.8248   -0.6037 C   0  0  0  0  0  0  0  0  0  0  0  0
    2.1545   -0.8353    0.4295 N   0  0  0  0  0  0  0  0  0  0  0  0
    1.8108    0.1343    1.3646 C   0  0  0  0  0  0  0  0  0  0  0  0
    2.8313    1.3682    1.8796 S   0  0  0  0  0  0  0  0  0  0  0  0
    0.5267   -0.0886    1.9025 N   0  0  0  0  0  0  0  0  0  0  0  0
    0.0410    0.5571    3.1295 C   0  0  0  0  0  0  0  0  0  0  0  0
   -0.9379    1.6783    2.7899 C   0  0  0  0  0  0  0  0  0  0  0  0
   -2.0328    1.1783    1.8766 C   0  0  0  0  0  0  0  0  0  0  0  0
   -3.2424    1.8843    1.7894 C   0  0  0  0  0  0  0  0  0  0  0  0
   -4.2640    1.4521    0.9368 C   0  0  0  0  0  0  0  0  0  0  0  0
   -5.4783    2.0789    0.8001 O   0  0  0  0  0  0  0  0  0  0  0  0
   -5.6881    3.2778    1.5315 C   0  0  0  0  0  0  0  0  0  0  0  0
   -4.0715    0.2994    0.1513 C   0  0  0  0  0  0  0  0  0  0  0  0
   -5.1237   -0.0641   -0.6531 O   0  0  0  0  0  0  0  0  0  0  0  0
   -4.9348   -1.1605   -1.5350 C   0  0  0  0  0  0  0  0  0  0  0  0
   -2.8595   -0.3970    0.2302 C   0  0  0  0  0  0  0  0  0  0  0  0
   -1.8284    0.0387    1.0797 C   0  0  0  0  0  0  0  0  0  0  0  0
   -0.5360   -0.7544    1.1356 C   0  0  0  0  0  0  0  0  0  0  0  0
    3.5791    0.3345   -1.2230 C   0  0  0  0  0  0  0  0  0  0  0  0
    4.5040    0.2554   -2.2707 C   0  0  0  0  0  0  0  0  0  0  0  0
    7.1209   -1.9139   -5.0150 H   0  0  0  0  0  0  0  0  0  0  0  0
    6.9476   -2.6641   -3.4236 H   0  0  0  0  0  0  0  0  0  0  0  0
    5.6227   -2.7768   -4.6471 H   0  0  0  0  0  0  0  0  0  0  0  0
    4.8093   -3.1261   -2.4530 H   0  0  0  0  0  0  0  0  0  0  0  0
    3.2047   -2.9891   -0.6360 H   0  0  0  0  0  0  0  0  0  0  0  0
    1.7960   -1.7502    0.6687 H   0  0  0  0  0  0  0  0  0  0  0  0
   -0.4584   -0.2197    3.7237 H   0  0  0  0  0  0  0  0  0  0  0  0
    0.8599    0.9361    3.7460 H   0  0  0  0  0  0  0  0  0  0  0  0
   -0.4165    2.4992    2.2836 H   0  0  0  0  0  0  0  0  0  0  0  0
   -1.3693    2.0684    3.7188 H   0  0  0  0  0  0  0  0  0  0  0  0
   -3.3623    2.7718    2.4026 H   0  0  0  0  0  0  0  0  0  0  0  0
   -5.6620    3.0914    2.6101 H   0  0  0  0  0  0  0  0  0  0  0  0
   -4.9657    4.0489    1.2443 H   0  0  0  0  0  0  0  0  0  0  0  0
   -6.6867    3.6503    1.2837 H   0  0  0  0  0  0  0  0  0  0  0  0
   -5.8483   -1.2753   -2.1265 H   0  0  0  0  0  0  0  0  0  0  0  0
   -4.1102   -0.9730   -2.2307 H   0  0  0  0  0  0  0  0  0  0  0  0
   -4.7808   -2.0909   -0.9789 H   0  0  0  0  0  0  0  0  0  0  0  0
   -2.6903   -1.2881   -0.3659 H   0  0  0  0  0  0  0  0  0  0  0  0
   -0.2107   -0.9463    0.1084 H   0  0  0  0  0  0  0  0  0  0  0  0
   -0.7298   -1.7140    1.6290 H   0  0  0  0  0  0  0  0  0  0  0  0
    3.2168    1.3169   -0.9392 H   0  0  0  0  0  0  0  0  0  0  0  0
    4.8583    1.1704   -2.7399 H   0  0  0  0  0  0  0  0  0  0  0  0
  1  2  1  0
  2  3  1  0
  3  4  2  0
  4  5  1  0
  5  6  2  0
  6  7  1  0
  7  8  1  0
  8  9  2  0
  8 10  1  0
 10 11  1  0
 11 12  1  0
 12 13  1  0
 13 14  2  0
 14 15  1  0
 15 16  1  0
 16 17  1  0
 15 18  2  0
 18 19  1  0
 19 20  1  0
 18 21  1  0
 21 22  2  0
 22 23  1  0
  6 24  1  0
 24 25  2  0
 25  3  1  0
 23 10  1  0
 22 13  1  0
  1 26  1  0
  1 27  1  0
  1 28  1  0
  4 29  1  0
  5 30  1  0
  7 31  1  0
 11 32  1  0
 11 33  1  0
 12 34  1  0
 12 35  1  0
 14 36  1  0
 17 37  1  0
 17 38  1  0
 17 39  1  0
 20 40  1  0
 20 41  1  0
 20 42  1  0
 21 43  1  0
 23 44  1  0
 23 45  1  0
 24 46  1  0
 25 47  1  0
M  END
$$$$
