
     RDKit          3D

 39 41  0  0  0  0  0  0  0  0999 V2000
   -2.6355   -1.0940    1.5628 C   0  0  0  0  0  0  0  0  0  0  0  0
   -2.7084   -0.5182    0.1933 C   0  0  0  0  0  0  0  0  0  0  0  0
   -3.9054   -0.5272   -0.4852 N   0  0  0  0  0  0  0  0  0  0  0  0
   -3.7573   -0.0191   -1.7503 C   0  0  0  0  0  0  0  0  0  0  0  0
   -4.7023    0.1455   -2.7705 C   0  0  0  0  0  0  0  0  0  0  0  0
   -4.2626    0.6893   -3.9802 C   0  0  0  0  0  0  0  0  0  0  0  0
   -2.9307    1.0512   -4.1592 C   0  0  0  0  0  0  0  0  0  0  0  0
   -2.0016    0.8793   -3.1268 C   0  0  0  0  0  0  0  0  0  0  0  0
   -2.4175    0.3317   -1.8933 C   0  0  0  0  0  0  0  0  0  0  0  0
   -1.7522    0.0404   -0.6506 C   0  0  0  0  0  0  0  0  0  0  0  0
   -0.3280    0.2847   -0.3812 C   0  0  0  0  0  0  0  0  0  0  0  0
    0.5026    0.2324   -1.2935 O   0  0  0  0  0  0  0  0  0  0  0  0
    0.1209    0.6865    1.0357 C   0  0  0  0  0  0  0  0  0  0  0  0
   -0.3157    2.1185    1.3209 C   0  0  0  0  0  0  0  0  0  0  0  0
    1.5552    0.6601    1.1466 O   0  0  0  0  0  0  0  0  0  0  0  0
    2.0833   -0.5991    1.2026 C   0  0  0  0  0  0  0  0  0  0  0  0
    1.4125   -1.6194    1.2997 O   0  0  0  0  0  0  0  0  0  0  0  0
    3.5253   -0.5238    1.1575 C   0  0  0  0  0  0  0  0  0  0  0  0
    4.4030    0.5378    0.9840 C   0  0  0  0  0  0  0  0  0  0  0  0
    5.7177    0.0069    1.0212 C   0  0  0  0  0  0  0  0  0  0  0  0
    5.5571   -1.3431    1.2180 C   0  0  0  0  0  0  0  0  0  0  0  0
    6.5073   -2.4034    1.3441 N   0  0  0  0  0  4  0  0  0  0  0  0
    6.0797   -3.5471    1.5417 O   0  0  0  0  0  0  0  0  0  0  0  0
    7.6998   -2.0807    1.2501 O   0  0  0  0  0  1  0  0  0  0  0  0
    4.2453   -1.6855    1.3049 O   0  0  0  0  0  0  0  0  0  0  0  0
   -2.5651   -0.2970    2.3093 H   0  0  0  0  0  0  0  0  0  0  0  0
   -3.5244   -1.6906    1.7949 H   0  0  0  0  0  0  0  0  0  0  0  0
   -1.7673   -1.7532    1.6595 H   0  0  0  0  0  0  0  0  0  0  0  0
   -4.7775   -0.8858   -0.1206 H   0  0  0  0  0  0  0  0  0  0  0  0
   -5.7405   -0.1401   -2.6358 H   0  0  0  0  0  0  0  0  0  0  0  0
   -4.9705    0.8274   -4.7943 H   0  0  0  0  0  0  0  0  0  0  0  0
   -2.6046    1.4678   -5.1090 H   0  0  0  0  0  0  0  0  0  0  0  0
   -0.9627    1.1596   -3.2816 H   0  0  0  0  0  0  0  0  0  0  0  0
   -0.3011    0.0257    1.7945 H   0  0  0  0  0  0  0  0  0  0  0  0
    0.1017    2.8093    0.5792 H   0  0  0  0  0  0  0  0  0  0  0  0
   -1.4049    2.2215    1.3062 H   0  0  0  0  0  0  0  0  0  0  0  0
    0.0522    2.4437    2.3000 H   0  0  0  0  0  0  0  0  0  0  0  0
    4.1172    1.5718    0.8385 H   0  0  0  0  0  0  0  0  0  0  0  0
    6.6552    0.5362    0.9163 H   0  0  0  0  0  0  0  0  0  0  0  0
  1  2  1  0
  2  3  1  0
  3  4  1  0
  4  5  2  0
  5  6  1  0
  6  7  2  0
  7  8  1  0
  8  9  2  0
  9 10  1  0
 10 11  1  0
 11 12  2  0
 11 13  1  0
 13 14  1  0
 13 15  1  0
 15 16  1  0
 16 17  2  0
 16 18  1  0
 18 19  2  0
 19 20  1  0
 20 21  2  0
 21 22  1  0
 22 23  2  0
 22 24  1  0
 21 25  1  0
 10  2  2  0
 25 18  1  0
  9  4  1  0
  1 26  1  0
  1 27  1  0
  1 28  1  0
  3 29  1  0
  5 30  1  0
  6 31  1  0
  7 32  1  0
  8 33  1  0
 13 34  1  0
 14 35  1  0
 14 36  1  0
 14 37  1  0
 19 38  1  0
 20 39  1  0
M  CHG  2  22   1  24  -1
M  END
$$$$
