
     RDKit          3D

 41 41  0  0  0  0  0  0  0  0999 V2000
    4.3415   -1.5660    1.8757 C   0  0  0  0  0  0  0  0  0  0  0  0
    2.9270   -2.0720    1.6388 C   0  0  0  0  0  0  0  0  0  0  0  0
    1.8715   -0.9629    1.6304 C   0  0  0  0  0  0  0  0  0  0  0  0
    2.0057   -0.0096    0.4408 C   0  0  0  0  0  0  0  0  0  0  0  0
    0.9789    1.1317    0.4438 C   0  0  0  0  0  0  0  0  0  0  0  0
   -0.5133    0.7167    0.4767 C   0  0  0  0  0  0  0  0  0  0  0  0
   -1.4058    1.9654    0.5592 C   0  0  0  0  0  0  0  0  0  0  0  0
   -1.4229    2.7498   -0.7418 C   0  0  0  0  0  0  0  0  0  0  0  0
   -1.5299    4.0405   -0.6464 N   0  0  0  0  0  0  0  0  0  0  0  0
   -1.5427    4.6646   -1.8989 O   0  0  0  0  0  0  0  0  0  0  0  0
   -1.3482    1.9693   -2.0114 C   0  0  0  0  0  0  0  0  0  0  0  0
   -1.1438    0.6403   -2.0001 C   0  0  0  0  0  0  0  0  0  0  0  0
   -1.0964   -0.1427   -3.2838 C   0  0  0  0  0  0  0  0  0  0  0  0
   -0.9377   -0.1601   -0.7246 C   0  0  0  0  0  0  0  0  0  0  0  0
   -2.2070   -0.9455   -0.3659 C   0  0  0  0  0  0  0  0  0  0  0  0
   -3.3438   -0.6733   -0.7272 O   0  0  0  0  0  0  0  0  0  0  0  0
   -1.8812   -1.9973    0.4433 O   0  0  0  0  0  0  0  0  0  0  0  0
   -3.0006   -2.7859    0.8490 C   0  0  0  0  0  0  0  0  0  0  0  0
    4.6937   -0.9505    1.0430 H   0  0  0  0  0  0  0  0  0  0  0  0
    4.3986   -0.9732    2.7940 H   0  0  0  0  0  0  0  0  0  0  0  0
    5.0302   -2.4112    1.9754 H   0  0  0  0  0  0  0  0  0  0  0  0
    2.6758   -2.7819    2.4361 H   0  0  0  0  0  0  0  0  0  0  0  0
    2.8909   -2.6296    0.6957 H   0  0  0  0  0  0  0  0  0  0  0  0
    1.9237   -0.3972    2.5683 H   0  0  0  0  0  0  0  0  0  0  0  0
    0.8886   -1.4461    1.6031 H   0  0  0  0  0  0  0  0  0  0  0  0
    1.9437   -0.5728   -0.4967 H   0  0  0  0  0  0  0  0  0  0  0  0
    3.0005    0.4507    0.4511 H   0  0  0  0  0  0  0  0  0  0  0  0
    1.1819    1.7651    1.3177 H   0  0  0  0  0  0  0  0  0  0  0  0
    1.1770    1.7593   -0.4337 H   0  0  0  0  0  0  0  0  0  0  0  0
   -0.6776    0.1610    1.4086 H   0  0  0  0  0  0  0  0  0  0  0  0
   -1.0667    2.6191    1.3720 H   0  0  0  0  0  0  0  0  0  0  0  0
   -2.4412    1.6848    0.7877 H   0  0  0  0  0  0  0  0  0  0  0  0
   -1.6464    5.6045   -1.6601 H   0  0  0  0  0  0  0  0  0  0  0  0
   -1.4811    2.5203   -2.9353 H   0  0  0  0  0  0  0  0  0  0  0  0
   -1.8747   -0.9121   -3.2944 H   0  0  0  0  0  0  0  0  0  0  0  0
   -0.1226   -0.6309   -3.3937 H   0  0  0  0  0  0  0  0  0  0  0  0
   -1.2488    0.4946   -4.1613 H   0  0  0  0  0  0  0  0  0  0  0  0
   -0.1666   -0.9123   -0.9285 H   0  0  0  0  0  0  0  0  0  0  0  0
   -2.6320   -3.5945    1.4862 H   0  0  0  0  0  0  0  0  0  0  0  0
   -3.7048   -2.1814    1.4292 H   0  0  0  0  0  0  0  0  0  0  0  0
   -3.4937   -3.2286   -0.0221 H   0  0  0  0  0  0  0  0  0  0  0  0
  1  2  1  0
  2  3  1  0
  3  4  1  0
  4  5  1  0
  5  6  1  0
  6  7  1  0
  7  8  1  0
  8  9  2  3
  9 10  1  0
  8 11  1  0
 11 12  2  0
 12 13  1  0
 12 14  1  0
 14 15  1  0
 15 16  2  0
 15 17  1  0
 17 18  1  0
 14  6  1  0
  1 19  1  0
  1 20  1  0
  1 21  1  0
  2 22  1  0
  2 23  1  0
  3 24  1  0
  3 25  1  0
  4 26  1  0
  4 27  1  0
  5 28  1  0
  5 29  1  0
  6 30  1  0
  7 31  1  0
  7 32  1  0
 10 33  1  0
 11 34  1  0
 13 35  1  0
 13 36  1  0
 13 37  1  0
 14 38  1  0
 18 39  1  0
 18 40  1  0
 18 41  1  0
M  END
$$$$
