
     RDKit          3D

 64 67  0  0  0  0  0  0  0  0999 V2000
    6.8841    1.7064   -2.2468 C   0  0  0  0  0  0  0  0  0  0  0  0
    6.4029    0.9123   -1.0701 C   0  0  0  0  0  0  0  0  0  0  0  0
    6.4388   -0.4641   -1.0940 C   0  0  0  0  0  0  0  0  0  0  0  0
    5.9200   -1.0825    0.0166 C   0  0  0  0  0  0  0  0  0  0  0  0
    5.8479   -2.4816    0.1709 N   0  0  0  0  0  0  0  0  0  0  0  0
    4.9363   -3.3441   -0.9434 S   0  0  0  0  0  6  0  0  0  0  0  0
    4.7260   -4.6625   -0.3855 O   0  0  0  0  0  0  0  0  0  0  0  0
    5.5272   -3.1754   -2.2547 O   0  0  0  0  0  0  0  0  0  0  0  0
    3.3620   -2.5163   -0.9453 C   0  0  0  0  0  0  0  0  0  0  0  0
    2.9462   -1.8057   -2.0722 C   0  0  0  0  0  0  0  0  0  0  0  0
    1.6908   -1.1887   -2.0734 C   0  0  0  0  0  0  0  0  0  0  0  0
    0.8457   -1.2739   -0.9570 C   0  0  0  0  0  0  0  0  0  0  0  0
   -0.4100   -0.6367   -1.0542 N   0  0  0  0  0  0  0  0  0  0  0  0
   -1.3715   -0.5047   -0.0568 C   0  0  0  0  0  0  0  0  0  0  0  0
   -1.2400   -0.8787    1.1065 O   0  0  0  0  0  0  0  0  0  0  0  0
   -2.6768    0.1663   -0.5645 C   0  0  0  0  0  0  0  0  0  0  0  0
   -2.4665    1.6286   -1.0116 C   0  0  0  0  0  0  0  0  0  0  0  0
   -3.4411    2.0899   -2.1199 C   0  0  0  0  0  0  0  0  0  0  0  0
   -3.1149    3.5309   -2.5286 C   0  0  0  0  0  0  0  0  0  0  0  0
   -4.9113    1.9882   -1.7166 C   0  0  0  0  0  0  0  0  0  0  0  0
   -3.7135   -0.0243    0.4466 N   0  0  0  0  0  0  0  0  0  0  0  0
   -4.5639   -1.0989    0.4244 C   0  0  0  0  0  0  0  0  0  0  0  0
   -4.7008   -1.9509   -0.4357 O   0  0  0  0  0  0  0  0  0  0  0  0
   -5.3374   -1.0530    1.6609 C   0  0  0  0  0  0  0  0  0  0  0  0
   -6.3451   -1.8793    2.1196 C   0  0  0  0  0  0  0  0  0  0  0  0
   -6.9011   -1.5780    3.3667 C   0  0  0  0  0  0  0  0  0  0  0  0
   -6.4417   -0.4733    4.1130 C   0  0  0  0  0  0  0  0  0  0  0  0
   -5.4197    0.3466    3.6250 C   0  0  0  0  0  0  0  0  0  0  0  0
   -4.8881    0.0299    2.3908 C   0  0  0  0  0  0  0  0  0  0  0  0
   -3.8285    0.6761    1.6185 C   0  0  0  0  0  0  0  0  0  0  0  0
   -3.2144    1.6503    2.0104 O   0  0  0  0  0  0  0  0  0  0  0  0
    1.2754   -1.9951    0.1601 C   0  0  0  0  0  0  0  0  0  0  0  0
    2.5275   -2.6234    0.1681 C   0  0  0  0  0  0  0  0  0  0  0  0
    5.4347   -0.4487    1.0918 N   0  0  0  0  0  0  0  0  0  0  0  0
    5.4456    0.8926    1.0278 C   0  0  0  0  0  0  0  0  0  0  0  0
    4.8828    1.6468    2.1947 C   0  0  0  0  0  0  0  0  0  0  0  0
    5.8871    1.6018   -0.0299 N   0  0  0  0  0  0  0  0  0  0  0  0
    7.0450    2.7540   -1.9662 H   0  0  0  0  0  0  0  0  0  0  0  0
    7.8356    1.3097   -2.6218 H   0  0  0  0  0  0  0  0  0  0  0  0
    6.1382    1.6706   -3.0511 H   0  0  0  0  0  0  0  0  0  0  0  0
    6.8465   -1.0148   -1.9329 H   0  0  0  0  0  0  0  0  0  0  0  0
    5.6117   -2.7337    1.1274 H   0  0  0  0  0  0  0  0  0  0  0  0
    3.5795   -1.7325   -2.9525 H   0  0  0  0  0  0  0  0  0  0  0  0
    1.3834   -0.6424   -2.9627 H   0  0  0  0  0  0  0  0  0  0  0  0
   -0.6206   -0.2305   -1.9586 H   0  0  0  0  0  0  0  0  0  0  0  0
   -2.9699   -0.4248   -1.4447 H   0  0  0  0  0  0  0  0  0  0  0  0
   -2.5298    2.3193   -0.1648 H   0  0  0  0  0  0  0  0  0  0  0  0
   -1.4474    1.7518   -1.4013 H   0  0  0  0  0  0  0  0  0  0  0  0
   -3.2857    1.4568   -3.0024 H   0  0  0  0  0  0  0  0  0  0  0  0
   -2.0857    3.6048   -2.8988 H   0  0  0  0  0  0  0  0  0  0  0  0
   -3.7774    3.8736   -3.3311 H   0  0  0  0  0  0  0  0  0  0  0  0
   -3.2181    4.2215   -1.6837 H   0  0  0  0  0  0  0  0  0  0  0  0
   -5.5559    2.4365   -2.4825 H   0  0  0  0  0  0  0  0  0  0  0  0
   -5.2223    0.9477   -1.6175 H   0  0  0  0  0  0  0  0  0  0  0  0
   -5.1016    2.5038   -0.7706 H   0  0  0  0  0  0  0  0  0  0  0  0
   -6.6856   -2.7262    1.5325 H   0  0  0  0  0  0  0  0  0  0  0  0
   -7.6946   -2.2042    3.7702 H   0  0  0  0  0  0  0  0  0  0  0  0
   -6.8863   -0.2586    5.0827 H   0  0  0  0  0  0  0  0  0  0  0  0
   -5.0530    1.1943    4.1932 H   0  0  0  0  0  0  0  0  0  0  0  0
    0.6507   -2.1093    1.0423 H   0  0  0  0  0  0  0  0  0  0  0  0
    2.8305   -3.1983    1.0395 H   0  0  0  0  0  0  0  0  0  0  0  0
    5.1556    2.7056    2.1451 H   0  0  0  0  0  0  0  0  0  0  0  0
    5.2707    1.2344    3.1329 H   0  0  0  0  0  0  0  0  0  0  0  0
    3.7920    1.5640    2.1925 H   0  0  0  0  0  0  0  0  0  0  0  0
  1  2  1  0
  2  3  2  0
  3  4  1  0
  4  5  1  0
  5  6  1  0
  6  7  2  0
  6  8  2  0
  6  9  1  0
  9 10  2  0
 10 11  1  0
 11 12  2  0
 12 13  1  0
 13 14  1  0
 14 15  2  0
 14 16  1  0
 16 17  1  0
 17 18  1  0
 18 19  1  0
 18 20  1  0
 16 21  1  0
 21 22  1  0
 22 23  2  0
 22 24  1  0
 24 25  2  0
 25 26  1  0
 26 27  2  0
 27 28  1  0
 28 29  2  0
 29 30  1  0
 30 31  2  0
 12 32  1  0
 32 33  2  0
  4 34  2  0
 34 35  1  0
 35 36  1  0
 35 37  2  0
 37  2  1  0
 33  9  1  0
 30 21  1  0
 29 24  1  0
  1 38  1  0
  1 39  1  0
  1 40  1  0
  3 41  1  0
  5 42  1  0
 10 43  1  0
 11 44  1  0
 13 45  1  0
 16 46  1  0
 17 47  1  0
 17 48  1  0
 18 49  1  0
 19 50  1  0
 19 51  1  0
 19 52  1  0
 20 53  1  0
 20 54  1  0
 20 55  1  0
 25 56  1  0
 26 57  1  0
 27 58  1  0
 28 59  1  0
 32 60  1  0
 33 61  1  0
 36 62  1  0
 36 63  1  0
 36 64  1  0
M  END
$$$$
