
     RDKit          3D

 43 45  0  0  0  0  0  0  0  0999 V2000
   -3.2441   -2.8627    0.6110 C   0  0  0  0  0  0  0  0  0  0  0  0
   -2.9367   -2.7138   -0.8769 C   0  0  0  0  0  0  0  0  0  0  0  0
   -3.7486   -3.7220   -1.6890 C   0  0  0  0  0  0  0  0  0  0  0  0
   -1.1558   -3.0202   -1.2033 S   0  0  0  0  0  0  0  0  0  0  0  0
   -0.4062   -1.5073   -0.6143 C   0  0  0  0  0  0  0  0  0  0  0  0
    0.9616   -1.4744   -0.4530 C   0  0  0  0  0  0  0  0  0  0  0  0
    1.5216   -0.2915   -0.0126 C   0  0  0  0  0  0  0  0  0  0  0  0
    2.9148   -0.2103    0.1887 N   0  0  0  0  0  0  0  0  0  0  0  0
    3.7006   -0.4553   -1.0430 C   0  0  0  0  0  0  0  0  0  0  0  0
    5.2037   -0.4231   -0.7175 C   0  0  0  0  0  0  0  0  0  0  0  0
    5.5861    0.8149   -0.0987 O   0  0  0  0  0  0  0  0  0  0  0  0
    4.8505    1.0042    1.1214 C   0  0  0  0  0  0  0  0  0  0  0  0
    3.3368    1.0403    0.8616 C   0  0  0  0  0  0  0  0  0  0  0  0
    0.7449    0.7671    0.2695 N   0  0  0  0  0  0  0  0  0  0  0  0
   -0.5822    0.6550    0.0769 C   0  0  0  0  0  0  0  0  0  0  0  0
   -1.4239    1.8323    0.3792 C   0  0  0  0  0  0  0  0  0  0  0  0
   -0.8618    3.0402    0.8402 C   0  0  0  0  0  0  0  0  0  0  0  0
   -1.6561    4.1567    1.1280 C   0  0  0  0  0  0  0  0  0  0  0  0
   -3.0347    4.0857    0.9592 C   0  0  0  0  0  0  0  0  0  0  0  0
   -4.0136    5.4549    1.3118 Cl  0  0  0  0  0  0  0  0  0  0  0  0
   -3.6238    2.9103    0.5059 C   0  0  0  0  0  0  0  0  0  0  0  0
   -2.8243    1.7971    0.2197 C   0  0  0  0  0  0  0  0  0  0  0  0
   -1.1934   -0.4521   -0.3690 N   0  0  0  0  0  0  0  0  0  0  0  0
   -4.3112   -2.6952    0.7961 H   0  0  0  0  0  0  0  0  0  0  0  0
   -2.6948   -2.1363    1.2182 H   0  0  0  0  0  0  0  0  0  0  0  0
   -3.0014   -3.8667    0.9775 H   0  0  0  0  0  0  0  0  0  0  0  0
   -3.2098   -1.7104   -1.2197 H   0  0  0  0  0  0  0  0  0  0  0  0
   -4.8212   -3.5587   -1.5349 H   0  0  0  0  0  0  0  0  0  0  0  0
   -3.5286   -4.7556   -1.3980 H   0  0  0  0  0  0  0  0  0  0  0  0
   -3.5557   -3.6172   -2.7626 H   0  0  0  0  0  0  0  0  0  0  0  0
    1.5680   -2.3506   -0.6386 H   0  0  0  0  0  0  0  0  0  0  0  0
    3.4731    0.3250   -1.7812 H   0  0  0  0  0  0  0  0  0  0  0  0
    3.4685   -1.4295   -1.4863 H   0  0  0  0  0  0  0  0  0  0  0  0
    5.4795   -1.2520   -0.0545 H   0  0  0  0  0  0  0  0  0  0  0  0
    5.7847   -0.5258   -1.6394 H   0  0  0  0  0  0  0  0  0  0  0  0
    5.1753    1.9530    1.5599 H   0  0  0  0  0  0  0  0  0  0  0  0
    5.1122    0.2032    1.8233 H   0  0  0  0  0  0  0  0  0  0  0  0
    3.1086    1.9049    0.2242 H   0  0  0  0  0  0  0  0  0  0  0  0
    2.8205    1.1578    1.8220 H   0  0  0  0  0  0  0  0  0  0  0  0
    0.2156    3.1199    0.9798 H   0  0  0  0  0  0  0  0  0  0  0  0
   -1.1893    5.0721    1.4815 H   0  0  0  0  0  0  0  0  0  0  0  0
   -4.7003    2.8483    0.3715 H   0  0  0  0  0  0  0  0  0  0  0  0
   -3.3090    0.8882   -0.1344 H   0  0  0  0  0  0  0  0  0  0  0  0
  1  2  1  0
  2  3  1  0
  2  4  1  0
  4  5  1  0
  5  6  2  0
  6  7  1  0
  7  8  1  0
  8  9  1  0
  9 10  1  0
 10 11  1  0
 11 12  1  0
 12 13  1  0
  7 14  2  0
 14 15  1  0
 15 16  1  0
 16 17  2  0
 17 18  1  0
 18 19  2  0
 19 20  1  0
 19 21  1  0
 21 22  2  0
 15 23  2  0
 23  5  1  0
 13  8  1  0
 22 16  1  0
  1 24  1  0
  1 25  1  0
  1 26  1  0
  2 27  1  0
  3 28  1  0
  3 29  1  0
  3 30  1  0
  6 31  1  0
  9 32  1  0
  9 33  1  0
 10 34  1  0
 10 35  1  0
 12 36  1  0
 12 37  1  0
 13 38  1  0
 13 39  1  0
 17 40  1  0
 18 41  1  0
 21 42  1  0
 22 43  1  0
M  END
$$$$
