
     RDKit          3D

 56 61  0  0  0  0  0  0  0  0999 V2000
   -0.2078    3.2789    1.2387 C   0  0  0  0  0  0  0  0  0  0  0  0
    0.6310    2.1201    0.8466 C   0  0  0  0  0  0  0  0  0  0  0  0
    1.9185    2.3077    0.5406 N   0  0  0  0  0  0  0  0  0  0  0  0
    2.4151    1.0659    0.2429 N   0  0  0  0  0  0  0  0  0  0  0  0
    3.7910    0.9276   -0.1240 C   0  0  0  0  0  0  0  0  0  0  0  0
    4.6035    2.0771   -0.1653 C   0  0  0  0  0  0  0  0  0  0  0  0
    5.9539    1.9885   -0.5161 C   0  0  0  0  0  0  0  0  0  0  0  0
    6.5026    0.7413   -0.8308 C   0  0  0  0  0  0  0  0  0  0  0  0
    7.9190    0.6417   -1.2044 N   0  0  0  0  0  4  0  0  0  0  0  0
    8.3747   -0.4844   -1.4523 O   0  0  0  0  0  0  0  0  0  0  0  0
    8.5776    1.6908   -1.2518 O   0  0  0  0  0  1  0  0  0  0  0  0
    5.7086   -0.4116   -0.7960 C   0  0  0  0  0  0  0  0  0  0  0  0
    4.3562   -0.3160   -0.4435 C   0  0  0  0  0  0  0  0  0  0  0  0
    1.4200    0.1011    0.3740 C   0  0  0  0  0  0  0  0  0  0  0  0
    0.2707    0.7667    0.7328 C   0  0  0  0  0  0  0  0  0  0  0  0
   -0.9817   -0.0053    0.9592 C   0  0  0  0  0  0  0  0  0  0  0  0
   -1.9198    0.4571   -0.1577 C   0  0  0  0  0  0  0  0  0  0  0  0
   -1.7754    0.0101   -1.4846 C   0  0  0  0  0  0  0  0  0  0  0  0
   -2.6416    0.4502   -2.4881 C   0  0  0  0  0  0  0  0  0  0  0  0
   -3.6475    1.3641   -2.1857 C   0  0  0  0  0  0  0  0  0  0  0  0
   -4.4739    1.7470   -3.2045 O   0  0  0  0  0  0  0  0  0  0  0  0
   -4.4400    3.1553   -3.4070 C   0  0  0  0  0  0  0  0  0  0  0  0
   -4.9521    3.3973   -4.6407 F   0  0  0  0  0  0  0  0  0  0  0  0
   -5.2761    3.7518   -2.5184 F   0  0  0  0  0  0  0  0  0  0  0  0
   -3.8255    1.8018   -0.8749 C   0  0  0  0  0  0  0  0  0  0  0  0
   -2.9642    1.3573    0.1308 C   0  0  0  0  0  0  0  0  0  0  0  0
   -0.7673   -1.4684    0.9294 N   0  0  0  0  0  0  0  0  0  0  0  0
    0.4823   -1.9487    0.4912 C   0  0  0  0  0  0  0  0  0  0  0  0
    1.5452   -1.2385    0.2034 N   0  0  0  0  0  0  0  0  0  0  0  0
    0.6728   -3.4743    0.3158 C   0  0  0  0  0  0  0  0  0  0  0  0
    1.6909   -3.9497   -0.1687 O   0  0  0  0  0  0  0  0  0  0  0  0
   -0.3677   -4.2573    0.7380 N   0  0  0  0  0  0  0  0  0  0  0  0
   -1.5640   -3.7526    1.2550 C   0  0  0  0  0  0  0  0  0  0  0  0
   -2.5348   -4.6767    1.6589 C   0  0  0  0  0  0  0  0  0  0  0  0
   -3.7467   -4.2316    2.1748 C   0  0  0  0  0  0  0  0  0  0  0  0
   -3.9826   -2.8673    2.2863 C   0  0  0  0  0  0  0  0  0  0  0  0
   -3.0092   -1.9459    1.8808 C   0  0  0  0  0  0  0  0  0  0  0  0
   -1.7751   -2.3598    1.3510 C   0  0  0  0  0  0  0  0  0  0  0  0
    0.4082    4.1139    1.5932 H   0  0  0  0  0  0  0  0  0  0  0  0
   -0.8931    3.0063    2.0495 H   0  0  0  0  0  0  0  0  0  0  0  0
   -0.7966    3.6287    0.3847 H   0  0  0  0  0  0  0  0  0  0  0  0
    4.1946    3.0587    0.0736 H   0  0  0  0  0  0  0  0  0  0  0  0
    6.5543    2.8967   -0.5414 H   0  0  0  0  0  0  0  0  0  0  0  0
    6.1195   -1.3896   -1.0389 H   0  0  0  0  0  0  0  0  0  0  0  0
    3.7793   -1.2367   -0.4321 H   0  0  0  0  0  0  0  0  0  0  0  0
   -1.3708    0.2866    1.9431 H   0  0  0  0  0  0  0  0  0  0  0  0
   -0.9829   -0.6875   -1.7505 H   0  0  0  0  0  0  0  0  0  0  0  0
   -2.5181    0.0886   -3.5052 H   0  0  0  0  0  0  0  0  0  0  0  0
   -3.4331    3.5885   -3.3459 H   0  0  0  0  0  0  0  0  0  0  0  0
   -4.6420    2.4733   -0.6179 H   0  0  0  0  0  0  0  0  0  0  0  0
   -3.1202    1.7172    1.1461 H   0  0  0  0  0  0  0  0  0  0  0  0
   -0.2277   -5.2537    0.6416 H   0  0  0  0  0  0  0  0  0  0  0  0
   -2.3568   -5.7453    1.5751 H   0  0  0  0  0  0  0  0  0  0  0  0
   -4.5044   -4.9461    2.4874 H   0  0  0  0  0  0  0  0  0  0  0  0
   -4.9293   -2.5127    2.6877 H   0  0  0  0  0  0  0  0  0  0  0  0
   -3.2616   -0.8980    1.9976 H   0  0  0  0  0  0  0  0  0  0  0  0
  1  2  1  0
  2  3  2  0
  3  4  1  0
  4  5  1  0
  5  6  2  0
  6  7  1  0
  7  8  2  0
  8  9  1  0
  9 10  2  0
  9 11  1  0
  8 12  1  0
 12 13  2  0
  4 14  1  0
 14 15  2  0
 15 16  1  0
 16 17  1  0
 17 18  2  0
 18 19  1  0
 19 20  2  0
 20 21  1  0
 21 22  1  0
 22 23  1  0
 22 24  1  0
 20 25  1  0
 25 26  2  0
 16 27  1  0
 27 28  1  0
 28 29  2  0
 28 30  1  0
 30 31  2  0
 30 32  1  0
 32 33  1  0
 33 34  2  0
 34 35  1  0
 35 36  2  0
 36 37  1  0
 37 38  2  0
 15  2  1  0
 26 17  1  0
 38 27  1  0
 13  5  1  0
 29 14  1  0
 38 33  1  0
  1 39  1  0
  1 40  1  0
  1 41  1  0
  6 42  1  0
  7 43  1  0
 12 44  1  0
 13 45  1  0
 16 46  1  0
 18 47  1  0
 19 48  1  0
 22 49  1  0
 25 50  1  0
 26 51  1  0
 32 52  1  0
 34 53  1  0
 35 54  1  0
 36 55  1  0
 37 56  1  0
M  CHG  2   9   1  11  -1
M  END
$$$$
