
     RDKit          3D

 55 58  0  0  0  0  0  0  0  0999 V2000
    1.8488   -1.2281    1.2704 C   0  0  0  0  0  0  0  0  0  0  0  0
    2.3821   -0.1915    0.4493 O   0  0  0  0  0  0  0  0  0  0  0  0
    3.7449   -0.0322    0.4405 C   0  0  0  0  0  0  0  0  0  0  0  0
    4.6276   -0.6831    1.3077 C   0  0  0  0  0  0  0  0  0  0  0  0
    6.0018   -0.4323    1.2364 C   0  0  0  0  0  0  0  0  0  0  0  0
    6.5032    0.4750    0.3063 C   0  0  0  0  0  0  0  0  0  0  0  0
    5.6318    1.1328   -0.5601 C   0  0  0  0  0  0  0  0  0  0  0  0
    4.2506    0.8790   -0.5100 C   0  0  0  0  0  0  0  0  0  0  0  0
    3.3245    1.6155   -1.4509 C   0  0  0  0  0  0  0  0  0  0  0  0
    2.7256    2.7825   -0.7927 N   0  0  0  0  0  0  0  0  0  0  0  0
    1.3715    3.4579   -1.5242 S   0  0  0  0  0  6  0  0  0  0  0  0
    0.9867    4.6055   -0.7327 O   0  0  0  0  0  0  0  0  0  0  0  0
    1.6247    3.5556   -2.9451 O   0  0  0  0  0  0  0  0  0  0  0  0
    0.1323    2.2072   -1.2628 C   0  0  0  0  0  0  0  0  0  0  0  0
   -0.4666    2.0954    0.0027 C   0  0  0  0  0  0  0  0  0  0  0  0
   -1.4460    1.1211    0.2396 C   0  0  0  0  0  0  0  0  0  0  0  0
   -1.8193    0.2781   -0.7943 C   0  0  0  0  0  0  0  0  0  0  0  0
   -1.2094    0.4039   -2.0504 C   0  0  0  0  0  0  0  0  0  0  0  0
   -0.2491    1.3714   -2.3125 C   0  0  0  0  0  0  0  0  0  0  0  0
   -1.7747   -0.5761   -3.0314 C   0  0  0  0  0  0  0  0  0  0  0  0
   -2.5550   -1.5229   -2.1018 C   0  0  0  0  0  0  0  0  0  0  0  0
   -1.7906   -2.8339   -1.8808 C   0  0  0  0  0  0  0  0  0  0  0  0
   -2.7424   -0.7861   -0.8273 N   0  0  0  0  0  0  0  0  0  0  0  0
   -3.7089   -1.2058    0.0843 C   0  0  0  0  0  0  0  0  0  0  0  0
   -4.3334   -2.2579   -0.1337 O   0  0  0  0  0  0  0  0  0  0  0  0
   -4.0376   -0.3294    1.3222 C   0  0  0  0  0  0  0  0  0  0  0  0
   -5.3651   -0.6304    2.0800 C   0  0  0  0  0  0  0  0  0  0  0  0
   -4.5527   -1.4975    3.0572 C   0  0  0  0  0  0  0  0  0  0  0  0
   -3.3147   -0.6785    2.6550 C   0  0  0  0  0  0  0  0  0  0  0  0
    1.9956   -0.9997    2.3328 H   0  0  0  0  0  0  0  0  0  0  0  0
    2.2759   -2.2034    1.0088 H   0  0  0  0  0  0  0  0  0  0  0  0
    0.7709   -1.2795    1.0873 H   0  0  0  0  0  0  0  0  0  0  0  0
    4.2802   -1.3857    2.0589 H   0  0  0  0  0  0  0  0  0  0  0  0
    6.6813   -0.9427    1.9151 H   0  0  0  0  0  0  0  0  0  0  0  0
    7.5717    0.6741    0.2580 H   0  0  0  0  0  0  0  0  0  0  0  0
    6.0329    1.8478   -1.2765 H   0  0  0  0  0  0  0  0  0  0  0  0
    3.8809    1.9534   -2.3337 H   0  0  0  0  0  0  0  0  0  0  0  0
    2.5654    0.9149   -1.8137 H   0  0  0  0  0  0  0  0  0  0  0  0
    2.5983    2.6697    0.2123 H   0  0  0  0  0  0  0  0  0  0  0  0
   -0.1719    2.7641    0.8100 H   0  0  0  0  0  0  0  0  0  0  0  0
   -1.8546    1.0500    1.2371 H   0  0  0  0  0  0  0  0  0  0  0  0
    0.1896    1.4676   -3.3014 H   0  0  0  0  0  0  0  0  0  0  0  0
   -0.9969   -1.0863   -3.6083 H   0  0  0  0  0  0  0  0  0  0  0  0
   -2.4558   -0.0535   -3.7134 H   0  0  0  0  0  0  0  0  0  0  0  0
   -3.5358   -1.7579   -2.5350 H   0  0  0  0  0  0  0  0  0  0  0  0
   -0.8169   -2.6591   -1.4077 H   0  0  0  0  0  0  0  0  0  0  0  0
   -1.6205   -3.3468   -2.8337 H   0  0  0  0  0  0  0  0  0  0  0  0
   -2.3484   -3.5160   -1.2314 H   0  0  0  0  0  0  0  0  0  0  0  0
   -4.0136    0.7376    1.0663 H   0  0  0  0  0  0  0  0  0  0  0  0
   -6.1425   -1.1559    1.5188 H   0  0  0  0  0  0  0  0  0  0  0  0
   -5.8128    0.2568    2.5466 H   0  0  0  0  0  0  0  0  0  0  0  0
   -4.8463   -1.4310    4.1080 H   0  0  0  0  0  0  0  0  0  0  0  0
   -4.4962   -2.5539    2.7691 H   0  0  0  0  0  0  0  0  0  0  0  0
   -3.1336    0.1929    3.2966 H   0  0  0  0  0  0  0  0  0  0  0  0
   -2.3874   -1.2528    2.5688 H   0  0  0  0  0  0  0  0  0  0  0  0
  1  2  1  0
  2  3  1  0
  3  4  2  0
  4  5  1  0
  5  6  2  0
  6  7  1  0
  7  8  2  0
  8  9  1  0
  9 10  1  0
 10 11  1  0
 11 12  2  0
 11 13  2  0
 11 14  1  0
 14 15  2  0
 15 16  1  0
 16 17  2  0
 17 18  1  0
 18 19  2  0
 18 20  1  0
 20 21  1  0
 21 22  1  0
 21 23  1  0
 23 24  1  0
 24 25  2  0
 24 26  1  0
 26 27  1  0
 27 28  1  0
 28 29  1  0
  8  3  1  0
 19 14  1  0
 29 26  1  0
 23 17  1  0
  1 30  1  0
  1 31  1  0
  1 32  1  0
  4 33  1  0
  5 34  1  0
  6 35  1  0
  7 36  1  0
  9 37  1  0
  9 38  1  0
 10 39  1  0
 15 40  1  0
 16 41  1  0
 19 42  1  0
 20 43  1  0
 20 44  1  0
 21 45  1  0
 22 46  1  0
 22 47  1  0
 22 48  1  0
 26 49  1  0
 27 50  1  0
 27 51  1  0
 28 52  1  0
 28 53  1  0
 29 54  1  0
 29 55  1  0
M  END
$$$$
