
     RDKit          3D

 39 41  0  0  0  0  0  0  0  0999 V2000
    1.9059   -3.0008    2.2725 O   0  0  0  0  0  0  0  0  0  0  0  0
    1.9942   -2.3770    1.2296 C   0  0  0  0  0  0  0  0  0  0  0  0
    2.9911   -2.4625    0.2770 N   0  0  0  0  0  0  0  0  0  0  0  0
    2.8541   -1.3857   -0.6002 N   0  0  0  0  0  0  0  0  0  0  0  0
    1.6239   -0.8078   -0.3049 C   0  0  0  0  0  0  0  0  0  0  0  0
    1.1003    0.2271   -1.1967 C   0  0  0  0  0  0  0  0  0  0  0  0
    1.4995    1.5578   -1.0183 C   0  0  0  0  0  0  0  0  0  0  0  0
    0.9969    2.5635   -1.8467 C   0  0  0  0  0  0  0  0  0  0  0  0
    0.0979    2.2462   -2.8648 C   0  0  0  0  0  0  0  0  0  0  0  0
   -0.2980    0.9229   -3.0627 C   0  0  0  0  0  0  0  0  0  0  0  0
    0.2056   -0.0770   -2.2316 C   0  0  0  0  0  0  0  0  0  0  0  0
   -0.1618   -1.3780   -2.4301 O   0  0  0  0  0  0  0  0  0  0  0  0
    1.0285   -1.3388    0.7783 C   0  0  0  0  0  0  0  0  0  0  0  0
   -0.2352   -1.1153    1.5519 C   0  0  0  0  0  0  0  0  0  0  0  0
   -1.2592   -2.2628    1.4969 C   0  0  0  0  0  0  0  0  0  0  0  0
   -1.4632   -2.8022    0.1137 N   0  0  0  0  0  4  0  0  0  0  0  0
   -0.6949   -3.6957   -0.2644 O   0  0  0  0  0  0  0  0  0  0  0  0
   -2.4291   -2.3722   -0.5323 O   0  0  0  0  0  1  0  0  0  0  0  0
   -0.8008    0.3040    1.4577 C   0  0  0  0  0  0  0  0  0  0  0  0
   -0.2018    1.3154    2.2367 C   0  0  0  0  0  0  0  0  0  0  0  0
   -0.6640    2.6321    2.1961 C   0  0  0  0  0  0  0  0  0  0  0  0
   -1.7321    2.9667    1.3721 C   0  0  0  0  0  0  0  0  0  0  0  0
   -2.3316    1.9856    0.5883 C   0  0  0  0  0  0  0  0  0  0  0  0
   -1.8699    0.6658    0.6286 C   0  0  0  0  0  0  0  0  0  0  0  0
    3.9101   -2.8036    0.5334 H   0  0  0  0  0  0  0  0  0  0  0  0
    2.8858   -1.6514   -1.5901 H   0  0  0  0  0  0  0  0  0  0  0  0
    2.1952    1.8178   -0.2237 H   0  0  0  0  0  0  0  0  0  0  0  0
    1.3049    3.5946   -1.6942 H   0  0  0  0  0  0  0  0  0  0  0  0
   -0.2906    3.0317   -3.5083 H   0  0  0  0  0  0  0  0  0  0  0  0
   -0.9867    0.6893   -3.8688 H   0  0  0  0  0  0  0  0  0  0  0  0
   -0.9398   -1.4104   -3.0124 H   0  0  0  0  0  0  0  0  0  0  0  0
    0.0778   -1.1531    2.6093 H   0  0  0  0  0  0  0  0  0  0  0  0
   -2.2420   -1.9710    1.8832 H   0  0  0  0  0  0  0  0  0  0  0  0
   -0.9151   -3.1191    2.0909 H   0  0  0  0  0  0  0  0  0  0  0  0
    0.6425    1.0822    2.8841 H   0  0  0  0  0  0  0  0  0  0  0  0
   -0.1860    3.3946    2.8050 H   0  0  0  0  0  0  0  0  0  0  0  0
   -2.0930    3.9908    1.3333 H   0  0  0  0  0  0  0  0  0  0  0  0
   -3.1589    2.2469   -0.0682 H   0  0  0  0  0  0  0  0  0  0  0  0
   -2.3606   -0.0504   -0.0204 H   0  0  0  0  0  0  0  0  0  0  0  0
  1  2  2  0
  2  3  1  0
  3  4  1  0
  4  5  1  0
  5  6  1  0
  6  7  2  0
  7  8  1  0
  8  9  2  0
  9 10  1  0
 10 11  2  0
 11 12  1  0
  5 13  2  0
 13 14  1  0
 14 15  1  0
 15 16  1  0
 16 17  2  0
 16 18  1  0
 14 19  1  0
 19 20  2  0
 20 21  1  0
 21 22  2  0
 22 23  1  0
 23 24  2  0
 13  2  1  0
 24 19  1  0
 11  6  1  0
  3 25  1  0
  4 26  1  0
  7 27  1  0
  8 28  1  0
  9 29  1  0
 10 30  1  0
 12 31  1  0
 14 32  1  0
 15 33  1  0
 15 34  1  0
 20 35  1  0
 21 36  1  0
 22 37  1  0
 23 38  1  0
 24 39  1  0
M  CHG  2  16   1  18  -1
M  END
$$$$
