
     RDKit          3D

 39 41  0  0  0  0  0  0  0  0999 V2000
    0.2332    0.9474    2.8876 S   0  0  0  0  0  0  0  0  0  0  0  0
    0.0825   -0.0968    1.5783 C   0  0  0  0  0  0  0  0  0  0  0  0
    1.1467   -0.7989    1.0458 N   0  0  0  0  0  0  0  0  0  0  0  0
    2.5532   -0.7064    1.4442 C   0  0  0  0  0  0  0  0  0  0  0  0
    3.2726    0.4232    0.7037 C   0  0  0  0  0  0  0  0  0  0  0  0
    4.7104    0.6128    1.1546 C   0  0  0  0  0  0  0  0  0  0  0  0
    5.3238    1.2571   -0.0632 C   0  0  0  0  0  0  0  0  0  0  0  0
    4.6335    0.5214   -1.1925 C   0  0  0  0  0  0  0  0  0  0  0  0
    3.3440    0.1159   -0.7080 O   0  0  0  0  0  0  0  0  0  0  0  0
   -1.1242   -0.3561    0.9098 N   0  0  0  0  0  0  0  0  0  0  0  0
   -1.4189   -1.6696    0.3213 C   0  0  0  0  0  0  0  0  0  0  0  0
   -2.0953   -1.5158   -1.0376 C   0  0  0  0  0  0  0  0  0  0  0  0
   -3.2935   -0.6062   -0.9522 C   0  0  0  0  0  0  0  0  0  0  0  0
   -4.2964   -0.6733   -1.9289 C   0  0  0  0  0  0  0  0  0  0  0  0
   -5.3974    0.1801   -1.8688 C   0  0  0  0  0  0  0  0  0  0  0  0
   -5.5012    1.1114   -0.8390 C   0  0  0  0  0  0  0  0  0  0  0  0
   -4.5007    1.1949    0.1296 C   0  0  0  0  0  0  0  0  0  0  0  0
   -3.3837    0.3464    0.0791 C   0  0  0  0  0  0  0  0  0  0  0  0
   -2.3208    0.4648    1.1521 C   0  0  0  0  0  0  0  0  0  0  0  0
    1.0418   -1.0036    0.0601 H   0  0  0  0  0  0  0  0  0  0  0  0
    2.9966   -1.6719    1.1758 H   0  0  0  0  0  0  0  0  0  0  0  0
    2.6297   -0.5838    2.5282 H   0  0  0  0  0  0  0  0  0  0  0  0
    2.7214    1.3668    0.7939 H   0  0  0  0  0  0  0  0  0  0  0  0
    4.7954    1.2229    2.0580 H   0  0  0  0  0  0  0  0  0  0  0  0
    5.1942   -0.3532    1.3432 H   0  0  0  0  0  0  0  0  0  0  0  0
    6.4130    1.1747   -0.1037 H   0  0  0  0  0  0  0  0  0  0  0  0
    5.0602    2.3210   -0.0939 H   0  0  0  0  0  0  0  0  0  0  0  0
    4.5129    1.1422   -2.0848 H   0  0  0  0  0  0  0  0  0  0  0  0
    5.1831   -0.3844   -1.4693 H   0  0  0  0  0  0  0  0  0  0  0  0
   -0.5287   -2.2962    0.2231 H   0  0  0  0  0  0  0  0  0  0  0  0
   -2.0803   -2.1921    1.0256 H   0  0  0  0  0  0  0  0  0  0  0  0
   -2.3966   -2.5052   -1.4004 H   0  0  0  0  0  0  0  0  0  0  0  0
   -1.3886   -1.0878   -1.7590 H   0  0  0  0  0  0  0  0  0  0  0  0
   -4.2245   -1.3923   -2.7418 H   0  0  0  0  0  0  0  0  0  0  0  0
   -6.1734    0.1199   -2.6273 H   0  0  0  0  0  0  0  0  0  0  0  0
   -6.3595    1.7765   -0.7919 H   0  0  0  0  0  0  0  0  0  0  0  0
   -4.5930    1.9309    0.9257 H   0  0  0  0  0  0  0  0  0  0  0  0
   -2.0212    1.5162    1.2252 H   0  0  0  0  0  0  0  0  0  0  0  0
   -2.7499    0.1471    2.1105 H   0  0  0  0  0  0  0  0  0  0  0  0
  1  2  2  0
  2  3  1  0
  3  4  1  0
  4  5  1  0
  5  6  1  0
  6  7  1  0
  7  8  1  0
  8  9  1  0
  2 10  1  0
 10 11  1  0
 11 12  1  0
 12 13  1  0
 13 14  2  0
 14 15  1  0
 15 16  2  0
 16 17  1  0
 17 18  2  0
 18 19  1  0
  9  5  1  0
 19 10  1  0
 18 13  1  0
  3 20  1  0
  4 21  1  0
  4 22  1  0
  5 23  1  0
  6 24  1  0
  6 25  1  0
  7 26  1  0
  7 27  1  0
  8 28  1  0
  8 29  1  0
 11 30  1  0
 11 31  1  0
 12 32  1  0
 12 33  1  0
 14 34  1  0
 15 35  1  0
 16 36  1  0
 17 37  1  0
 19 38  1  0
 19 39  1  0
M  END
$$$$
