
     RDKit          3D

 57 59  0  0  0  0  0  0  0  0999 V2000
   -5.0467   -2.5453    4.0374 C   0  0  0  0  0  0  0  0  0  0  0  0
   -5.0550   -1.9183    2.6737 C   0  0  0  0  0  0  0  0  0  0  0  0
   -4.6755   -2.6617    1.5477 C   0  0  0  0  0  0  0  0  0  0  0  0
   -4.7184   -2.0895    0.2749 C   0  0  0  0  0  0  0  0  0  0  0  0
   -5.1367   -0.7641    0.1278 C   0  0  0  0  0  0  0  0  0  0  0  0
   -5.2193   -0.0385   -1.4978 S   0  0  0  0  0  6  0  0  0  0  0  0
   -6.2074    1.0192   -1.4490 O   0  0  0  0  0  0  0  0  0  0  0  0
   -5.3289   -1.1222   -2.4520 O   0  0  0  0  0  0  0  0  0  0  0  0
   -3.6885    0.6732   -1.6742 N   0  0  0  0  0  0  0  0  0  0  0  0
   -2.5200   -0.2110   -1.8809 C   0  0  0  0  0  0  0  0  0  0  0  0
   -1.4923   -0.0242   -0.7702 C   0  0  0  0  0  0  0  0  0  0  0  0
   -0.9751    1.4238   -0.7145 C   0  0  0  0  0  0  0  0  0  0  0  0
    0.3420    1.5528   -1.4753 C   0  0  0  0  0  0  0  0  0  0  0  0
    0.4667    2.1696   -2.5275 O   0  0  0  0  0  0  0  0  0  0  0  0
    1.3918    0.8953   -0.8807 N   0  0  0  0  0  0  0  0  0  0  0  0
    2.7434    0.9363   -1.4269 C   0  0  0  0  0  0  0  0  0  0  0  0
    2.9127   -0.1036   -2.5293 C   0  0  0  0  0  0  0  0  0  0  0  0
    3.7372    0.6836   -0.2719 C   0  0  0  0  0  0  0  0  0  0  0  0
    3.3337    0.3026    0.8264 O   0  0  0  0  0  0  0  0  0  0  0  0
    5.0555    0.9225   -0.6261 N   0  0  0  0  0  0  0  0  0  0  0  0
    6.2029    0.7800    0.1810 C   0  0  0  0  0  0  0  0  0  0  0  0
    7.4408    1.0647   -0.4161 C   0  0  0  0  0  0  0  0  0  0  0  0
    8.6266    0.9440    0.3123 C   0  0  0  0  0  0  0  0  0  0  0  0
    8.5753    0.5424    1.6396 C   0  0  0  0  0  0  0  0  0  0  0  0
    9.7103    0.4265    2.3394 F   0  0  0  0  0  0  0  0  0  0  0  0
    7.3609    0.2610    2.2495 C   0  0  0  0  0  0  0  0  0  0  0  0
    6.1739    0.3784    1.5194 C   0  0  0  0  0  0  0  0  0  0  0  0
   -2.0221    2.4256   -1.2261 C   0  0  0  0  0  0  0  0  0  0  0  0
   -3.4368    1.9353   -0.9463 C   0  0  0  0  0  0  0  0  0  0  0  0
   -5.5558   -0.0251    1.2374 C   0  0  0  0  0  0  0  0  0  0  0  0
   -5.5101   -0.6029    2.5073 C   0  0  0  0  0  0  0  0  0  0  0  0
   -4.3276   -3.3698    4.0874 H   0  0  0  0  0  0  0  0  0  0  0  0
   -6.0422   -2.9317    4.2774 H   0  0  0  0  0  0  0  0  0  0  0  0
   -4.7549   -1.8129    4.7981 H   0  0  0  0  0  0  0  0  0  0  0  0
   -4.3538   -3.6961    1.6552 H   0  0  0  0  0  0  0  0  0  0  0  0
   -4.4366   -2.6840   -0.5914 H   0  0  0  0  0  0  0  0  0  0  0  0
   -2.8159   -1.2633   -1.9203 H   0  0  0  0  0  0  0  0  0  0  0  0
   -2.0794    0.0229   -2.8571 H   0  0  0  0  0  0  0  0  0  0  0  0
   -0.6775   -0.7436   -0.9090 H   0  0  0  0  0  0  0  0  0  0  0  0
   -1.9593   -0.2681    0.1927 H   0  0  0  0  0  0  0  0  0  0  0  0
   -0.7553    1.6653    0.3348 H   0  0  0  0  0  0  0  0  0  0  0  0
    1.2990    0.5167    0.0591 H   0  0  0  0  0  0  0  0  0  0  0  0
    2.9244    1.9419   -1.8250 H   0  0  0  0  0  0  0  0  0  0  0  0
    2.1872    0.0523   -3.3348 H   0  0  0  0  0  0  0  0  0  0  0  0
    3.9147   -0.0636   -2.9680 H   0  0  0  0  0  0  0  0  0  0  0  0
    2.7629   -1.1171   -2.1393 H   0  0  0  0  0  0  0  0  0  0  0  0
    5.2219    1.2464   -1.5714 H   0  0  0  0  0  0  0  0  0  0  0  0
    7.5024    1.3800   -1.4546 H   0  0  0  0  0  0  0  0  0  0  0  0
    9.5857    1.1582   -0.1471 H   0  0  0  0  0  0  0  0  0  0  0  0
    7.3394   -0.0485    3.2894 H   0  0  0  0  0  0  0  0  0  0  0  0
    5.2445    0.1520    2.0310 H   0  0  0  0  0  0  0  0  0  0  0  0
   -1.8604    3.3973   -0.7439 H   0  0  0  0  0  0  0  0  0  0  0  0
   -1.9177    2.5978   -2.3046 H   0  0  0  0  0  0  0  0  0  0  0  0
   -4.1465    2.6966   -1.2873 H   0  0  0  0  0  0  0  0  0  0  0  0
   -3.5724    1.7942    0.1306 H   0  0  0  0  0  0  0  0  0  0  0  0
   -5.9255    0.9914    1.1214 H   0  0  0  0  0  0  0  0  0  0  0  0
   -5.8420   -0.0247    3.3677 H   0  0  0  0  0  0  0  0  0  0  0  0
  1  2  1  0
  2  3  2  0
  3  4  1  0
  4  5  2  0
  5  6  1  0
  6  7  2  0
  6  8  2  0
  6  9  1  0
  9 10  1  0
 10 11  1  0
 11 12  1  0
 12 13  1  0
 13 14  2  0
 13 15  1  0
 15 16  1  0
 16 17  1  0
 16 18  1  0
 18 19  2  0
 18 20  1  0
 20 21  1  0
 21 22  2  0
 22 23  1  0
 23 24  2  0
 24 25  1  0
 24 26  1  0
 26 27  2  0
 12 28  1  0
 28 29  1  0
  5 30  1  0
 30 31  2  0
 31  2  1  0
 29  9  1  0
 27 21  1  0
  1 32  1  0
  1 33  1  0
  1 34  1  0
  3 35  1  0
  4 36  1  0
 10 37  1  0
 10 38  1  0
 11 39  1  0
 11 40  1  0
 12 41  1  0
 15 42  1  0
 16 43  1  0
 17 44  1  0
 17 45  1  0
 17 46  1  0
 20 47  1  0
 22 48  1  0
 23 49  1  0
 26 50  1  0
 27 51  1  0
 28 52  1  0
 28 53  1  0
 29 54  1  0
 29 55  1  0
 30 56  1  0
 31 57  1  0
M  END
$$$$
