
     RDKit          3D

 44 46  0  0  0  0  0  0  0  0999 V2000
    7.0094    1.0564    1.6036 C   0  0  0  0  0  0  0  0  0  0  0  0
    6.8394   -0.2304    0.8180 C   0  0  0  0  0  0  0  0  0  0  0  0
    5.5893   -0.2180    0.1130 O   0  0  0  0  0  0  0  0  0  0  0  0
    4.5149   -0.6638    0.8115 C   0  0  0  0  0  0  0  0  0  0  0  0
    4.5252   -1.0617    1.9654 O   0  0  0  0  0  0  0  0  0  0  0  0
    3.2856   -0.6008   -0.0255 C   0  0  0  0  0  0  0  0  0  0  0  0
    2.0764   -1.0174    0.5396 C   0  0  0  0  0  0  0  0  0  0  0  0
    0.8935   -0.9762   -0.2083 C   0  0  0  0  0  0  0  0  0  0  0  0
    0.8839   -0.4972   -1.5234 C   0  0  0  0  0  0  0  0  0  0  0  0
   -0.2767   -0.4941   -2.3282 N   0  0  0  0  0  0  0  0  0  0  0  0
   -1.6287   -0.3807   -1.9177 C   0  0  0  0  0  0  0  0  0  0  0  0
   -2.6083   -0.6454   -2.8578 C   0  0  0  0  0  0  0  0  0  0  0  0
   -3.9223   -0.5409   -2.4503 C   0  0  0  0  0  0  0  0  0  0  0  0
   -5.0383   -0.8194   -3.4107 C   0  0  0  0  0  0  0  0  0  0  0  0
   -4.2576   -0.1942   -1.1953 N   0  0  0  0  0  0  0  0  0  0  0  0
   -3.2481    0.0422   -0.3361 C   0  0  0  0  0  0  0  0  0  0  0  0
   -3.5907    0.4198    1.0508 C   0  0  0  0  0  0  0  0  0  0  0  0
   -4.9281    0.4789    1.4896 C   0  0  0  0  0  0  0  0  0  0  0  0
   -5.2536    0.8350    2.8028 C   0  0  0  0  0  0  0  0  0  0  0  0
   -4.2456    1.1418    3.7116 C   0  0  0  0  0  0  0  0  0  0  0  0
   -2.9149    1.0936    3.3087 C   0  0  0  0  0  0  0  0  0  0  0  0
   -2.5937    0.7372    1.9947 C   0  0  0  0  0  0  0  0  0  0  0  0
   -1.9445   -0.0432   -0.6586 N   0  0  0  0  0  0  0  0  0  0  0  0
    2.1092   -0.1162   -2.0920 C   0  0  0  0  0  0  0  0  0  0  0  0
    3.2974   -0.1543   -1.3512 C   0  0  0  0  0  0  0  0  0  0  0  0
    7.9847    1.0834    2.0974 H   0  0  0  0  0  0  0  0  0  0  0  0
    6.9238    1.9247    0.9420 H   0  0  0  0  0  0  0  0  0  0  0  0
    6.2294    1.1580    2.3647 H   0  0  0  0  0  0  0  0  0  0  0  0
    6.9237   -1.1106    1.4658 H   0  0  0  0  0  0  0  0  0  0  0  0
    7.6302   -0.3088    0.0649 H   0  0  0  0  0  0  0  0  0  0  0  0
    2.0440   -1.3851    1.5636 H   0  0  0  0  0  0  0  0  0  0  0  0
   -0.0222   -1.3348    0.2555 H   0  0  0  0  0  0  0  0  0  0  0  0
   -0.1402    0.0286   -3.1865 H   0  0  0  0  0  0  0  0  0  0  0  0
   -2.3558   -0.9382   -3.8688 H   0  0  0  0  0  0  0  0  0  0  0  0
   -6.0115   -0.6893   -2.9263 H   0  0  0  0  0  0  0  0  0  0  0  0
   -4.9864   -0.1318   -4.2606 H   0  0  0  0  0  0  0  0  0  0  0  0
   -4.9748   -1.8490   -3.7765 H   0  0  0  0  0  0  0  0  0  0  0  0
   -5.7365    0.2426    0.7991 H   0  0  0  0  0  0  0  0  0  0  0  0
   -6.2952    0.8707    3.1111 H   0  0  0  0  0  0  0  0  0  0  0  0
   -4.4966    1.4183    4.7321 H   0  0  0  0  0  0  0  0  0  0  0  0
   -2.1223    1.3327    4.0129 H   0  0  0  0  0  0  0  0  0  0  0  0
   -1.5437    0.7099    1.7058 H   0  0  0  0  0  0  0  0  0  0  0  0
    2.1540    0.2233   -3.1240 H   0  0  0  0  0  0  0  0  0  0  0  0
    4.2221    0.1630   -1.8263 H   0  0  0  0  0  0  0  0  0  0  0  0
  1  2  1  0
  2  3  1  0
  3  4  1  0
  4  5  2  0
  4  6  1  0
  6  7  2  0
  7  8  1  0
  8  9  2  0
  9 10  1  0
 10 11  1  0
 11 12  2  0
 12 13  1  0
 13 14  1  0
 13 15  2  0
 15 16  1  0
 16 17  1  0
 17 18  2  0
 18 19  1  0
 19 20  2  0
 20 21  1  0
 21 22  2  0
 16 23  2  0
  9 24  1  0
 24 25  2  0
 25  6  1  0
 23 11  1  0
 22 17  1  0
  1 26  1  0
  1 27  1  0
  1 28  1  0
  2 29  1  0
  2 30  1  0
  7 31  1  0
  8 32  1  0
 10 33  1  0
 12 34  1  0
 14 35  1  0
 14 36  1  0
 14 37  1  0
 18 38  1  0
 19 39  1  0
 20 40  1  0
 21 41  1  0
 22 42  1  0
 24 43  1  0
 25 44  1  0
M  END
$$$$
