
     RDKit          3D

 52 54  0  0  0  0  0  0  0  0999 V2000
    5.3306   -5.6349   -0.4855 C   0  0  0  0  0  0  0  0  0  0  0  0
    4.0961   -4.7691   -0.3277 C   0  0  0  0  0  0  0  0  0  0  0  0
    4.5149   -3.4690    0.1072 O   0  0  0  0  0  0  0  0  0  0  0  0
    3.5057   -2.5786    0.2707 C   0  0  0  0  0  0  0  0  0  0  0  0
    2.3190   -2.8106    0.0805 O   0  0  0  0  0  0  0  0  0  0  0  0
    4.0186   -1.2457    0.7151 C   0  0  0  0  0  0  0  0  0  0  0  0
    5.3961   -1.0639    0.9417 C   0  0  0  0  0  0  0  0  0  0  0  0
    5.8903    0.1724    1.3531 C   0  0  0  0  0  0  0  0  0  0  0  0
    5.0159    1.2358    1.5409 C   0  0  0  0  0  0  0  0  0  0  0  0
    3.6452    1.0697    1.3206 C   0  0  0  0  0  0  0  0  0  0  0  0
    3.1234   -0.1635    0.9094 C   0  0  0  0  0  0  0  0  0  0  0  0
    1.7360   -0.3536    0.6780 N   0  0  0  0  0  0  0  0  0  0  0  0
    0.6999    0.5496    0.8252 C   0  0  0  0  0  0  0  0  0  0  0  0
    0.7953    1.7000    1.2377 O   0  0  0  0  0  0  0  0  0  0  0  0
   -0.6435   -0.0551    0.4578 C   0  0  0  0  0  0  0  0  0  0  0  0
   -0.7104   -0.5263   -0.9933 C   0  0  0  0  0  0  0  0  0  0  0  0
   -2.1474   -0.2901   -1.3821 C   0  0  0  0  0  0  0  0  0  0  0  0
   -2.6585   -0.6746   -2.4212 O   0  0  0  0  0  0  0  0  0  0  0  0
   -2.7579    0.4607   -0.3817 N   0  0  0  0  0  0  0  0  0  0  0  0
   -4.0664    1.0911   -0.5869 C   0  0  0  0  0  0  0  0  0  0  0  0
   -3.9429    2.3655   -1.4453 C   0  0  0  0  0  0  0  0  0  0  0  0
   -5.1539    3.2730   -1.2733 C   0  0  0  0  0  0  0  0  0  0  0  0
   -5.3065    3.7498    0.1721 C   0  0  0  0  0  0  0  0  0  0  0  0
   -4.7458    2.7695    1.2042 C   0  0  0  0  0  0  0  0  0  0  0  0
   -4.8378    1.3244    0.7261 C   0  0  0  0  0  0  0  0  0  0  0  0
   -1.7709    0.9618    0.5489 C   0  0  0  0  0  0  0  0  0  0  0  0
    6.0201   -5.1942   -1.2131 H   0  0  0  0  0  0  0  0  0  0  0  0
    5.0614   -6.6412   -0.8179 H   0  0  0  0  0  0  0  0  0  0  0  0
    5.8734   -5.7090    0.4627 H   0  0  0  0  0  0  0  0  0  0  0  0
    3.5751   -4.6878   -1.2884 H   0  0  0  0  0  0  0  0  0  0  0  0
    3.4270   -5.2096    0.4198 H   0  0  0  0  0  0  0  0  0  0  0  0
    6.1017   -1.8796    0.8015 H   0  0  0  0  0  0  0  0  0  0  0  0
    6.9556    0.3054    1.5256 H   0  0  0  0  0  0  0  0  0  0  0  0
    5.3954    2.2042    1.8601 H   0  0  0  0  0  0  0  0  0  0  0  0
    3.0094    1.9353    1.4807 H   0  0  0  0  0  0  0  0  0  0  0  0
    1.4822   -1.3002    0.3842 H   0  0  0  0  0  0  0  0  0  0  0  0
   -0.8506   -0.8949    1.1342 H   0  0  0  0  0  0  0  0  0  0  0  0
   -0.4686   -1.5894   -1.0798 H   0  0  0  0  0  0  0  0  0  0  0  0
   -0.0617    0.0564   -1.6553 H   0  0  0  0  0  0  0  0  0  0  0  0
   -4.6535    0.3664   -1.1679 H   0  0  0  0  0  0  0  0  0  0  0  0
   -3.8307    2.0877   -2.5003 H   0  0  0  0  0  0  0  0  0  0  0  0
   -3.0393    2.9291   -1.1823 H   0  0  0  0  0  0  0  0  0  0  0  0
   -5.0777    4.1396   -1.9393 H   0  0  0  0  0  0  0  0  0  0  0  0
   -6.0575    2.7278   -1.5741 H   0  0  0  0  0  0  0  0  0  0  0  0
   -4.8044    4.7168    0.2985 H   0  0  0  0  0  0  0  0  0  0  0  0
   -6.3697    3.9309    0.3714 H   0  0  0  0  0  0  0  0  0  0  0  0
   -5.2844    2.8887    2.1513 H   0  0  0  0  0  0  0  0  0  0  0  0
   -3.6988    3.0218    1.4105 H   0  0  0  0  0  0  0  0  0  0  0  0
   -4.5030    0.6384    1.5121 H   0  0  0  0  0  0  0  0  0  0  0  0
   -5.8978    1.0926    0.5548 H   0  0  0  0  0  0  0  0  0  0  0  0
   -2.1814    1.0125    1.5611 H   0  0  0  0  0  0  0  0  0  0  0  0
   -1.4674    1.9641    0.2282 H   0  0  0  0  0  0  0  0  0  0  0  0
  1  2  1  0
  2  3  1  0
  3  4  1  0
  4  5  2  0
  4  6  1  0
  6  7  2  0
  7  8  1  0
  8  9  2  0
  9 10  1  0
 10 11  2  0
 11 12  1  0
 12 13  1  0
 13 14  2  0
 13 15  1  0
 15 16  1  0
 16 17  1  0
 17 18  2  0
 17 19  1  0
 19 20  1  0
 20 21  1  0
 21 22  1  0
 22 23  1  0
 23 24  1  0
 24 25  1  0
 19 26  1  0
 11  6  1  0
 26 15  1  0
 25 20  1  0
  1 27  1  0
  1 28  1  0
  1 29  1  0
  2 30  1  0
  2 31  1  0
  7 32  1  0
  8 33  1  0
  9 34  1  0
 10 35  1  0
 12 36  1  0
 15 37  1  0
 16 38  1  0
 16 39  1  0
 20 40  1  0
 21 41  1  0
 21 42  1  0
 22 43  1  0
 22 44  1  0
 23 45  1  0
 23 46  1  0
 24 47  1  0
 24 48  1  0
 25 49  1  0
 25 50  1  0
 26 51  1  0
 26 52  1  0
M  END
$$$$
