
     RDKit          3D

 43 44  0  0  0  0  0  0  0  0999 V2000
    3.5035    3.9166   -0.8516 C   0  0  0  0  0  0  0  0  0  0  0  0
    2.5859    2.7494   -0.5441 C   0  0  0  0  0  0  0  0  0  0  0  0
    3.2706    1.5390   -0.8882 O   0  0  0  0  0  0  0  0  0  0  0  0
    2.5447    0.4059   -0.6630 C   0  0  0  0  0  0  0  0  0  0  0  0
    1.4214    0.3788   -0.1736 O   0  0  0  0  0  0  0  0  0  0  0  0
    3.3592   -0.8175   -1.0759 C   0  0  0  0  0  0  0  0  0  0  0  0
    2.5715   -2.0363   -0.9759 N   0  0  0  0  0  0  0  0  0  0  0  0
    1.6879   -2.3608   -1.9869 C   0  0  0  0  0  0  0  0  0  0  0  0
    1.6700   -1.7753   -3.0671 O   0  0  0  0  0  0  0  0  0  0  0  0
    0.7303   -3.4924   -1.6568 C   0  0  0  0  0  0  0  0  0  0  0  0
   -0.7855   -2.8333   -0.9000 S   0  0  0  0  0  0  0  0  0  0  0  0
   -0.2225   -2.4364    0.6915 C   0  0  0  0  0  0  0  0  0  0  0  0
    0.8500   -2.9598    1.2484 N   0  0  0  0  0  0  0  0  0  0  0  0
    1.1075   -2.2042    2.3572 N   0  0  0  0  0  0  0  0  0  0  0  0
    0.2277   -1.2224    2.4814 N   0  0  0  0  0  0  0  0  0  0  0  0
   -0.6796   -1.3911    1.4789 N   0  0  0  0  0  0  0  0  0  0  0  0
   -1.8015   -0.5347    1.3724 C   0  0  0  0  0  0  0  0  0  0  0  0
   -1.5715    0.8355    1.6127 C   0  0  0  0  0  0  0  0  0  0  0  0
   -2.6010    1.7742    1.4853 C   0  0  0  0  0  0  0  0  0  0  0  0
   -2.3300    3.2364    1.6776 C   0  0  0  0  0  0  0  0  0  0  0  0
   -3.8697    1.3339    1.1081 C   0  0  0  0  0  0  0  0  0  0  0  0
   -4.1165   -0.0270    0.9145 C   0  0  0  0  0  0  0  0  0  0  0  0
   -3.1005   -0.9875    1.0735 C   0  0  0  0  0  0  0  0  0  0  0  0
   -3.5184   -2.4301    0.9896 C   0  0  0  0  0  0  0  0  0  0  0  0
    4.4332    3.8373   -0.2784 H   0  0  0  0  0  0  0  0  0  0  0  0
    3.0193    4.8667   -0.6092 H   0  0  0  0  0  0  0  0  0  0  0  0
    3.7811    3.9213   -1.9108 H   0  0  0  0  0  0  0  0  0  0  0  0
    2.3387    2.7453    0.5239 H   0  0  0  0  0  0  0  0  0  0  0  0
    1.6673    2.8353   -1.1353 H   0  0  0  0  0  0  0  0  0  0  0  0
    4.2089   -0.9219   -0.3957 H   0  0  0  0  0  0  0  0  0  0  0  0
    3.7081   -0.6904   -2.1053 H   0  0  0  0  0  0  0  0  0  0  0  0
    2.3253   -2.3408   -0.0361 H   0  0  0  0  0  0  0  0  0  0  0  0
    1.2128   -4.2364   -1.0156 H   0  0  0  0  0  0  0  0  0  0  0  0
    0.4674   -3.9972   -2.5922 H   0  0  0  0  0  0  0  0  0  0  0  0
   -0.5673    1.1846    1.8564 H   0  0  0  0  0  0  0  0  0  0  0  0
   -2.1303    3.7110    0.7117 H   0  0  0  0  0  0  0  0  0  0  0  0
   -3.1883    3.7302    2.1462 H   0  0  0  0  0  0  0  0  0  0  0  0
   -1.4666    3.3946    2.3328 H   0  0  0  0  0  0  0  0  0  0  0  0
   -4.6822    2.0458    0.9785 H   0  0  0  0  0  0  0  0  0  0  0  0
   -5.1284   -0.3405    0.6612 H   0  0  0  0  0  0  0  0  0  0  0  0
   -4.4786   -2.5738    1.4998 H   0  0  0  0  0  0  0  0  0  0  0  0
   -2.8127   -3.0974    1.4919 H   0  0  0  0  0  0  0  0  0  0  0  0
   -3.6412   -2.7344   -0.0536 H   0  0  0  0  0  0  0  0  0  0  0  0
  1  2  1  0
  2  3  1  0
  3  4  1  0
  4  5  2  0
  4  6  1  0
  6  7  1  0
  7  8  1  0
  8  9  2  0
  8 10  1  0
 10 11  1  0
 11 12  1  0
 12 13  2  0
 13 14  1  0
 14 15  2  0
 15 16  1  0
 16 17  1  0
 17 18  2  0
 18 19  1  0
 19 20  1  0
 19 21  2  0
 21 22  1  0
 22 23  2  0
 23 24  1  0
 16 12  1  0
 23 17  1  0
  1 25  1  0
  1 26  1  0
  1 27  1  0
  2 28  1  0
  2 29  1  0
  6 30  1  0
  6 31  1  0
  7 32  1  0
 10 33  1  0
 10 34  1  0
 18 35  1  0
 20 36  1  0
 20 37  1  0
 20 38  1  0
 21 39  1  0
 22 40  1  0
 24 41  1  0
 24 42  1  0
 24 43  1  0
M  END
$$$$
