
     RDKit          3D

 52 54  0  0  0  0  0  0  0  0999 V2000
    3.1074    2.7247   -2.8717 C   0  0  0  0  0  0  0  0  0  0  0  0
    2.9477    1.2460   -2.5273 C   0  0  0  0  0  0  0  0  0  0  0  0
    4.0282    0.7422   -1.5527 C   0  0  0  0  0  0  0  0  0  0  0  0
    4.0029    1.4182   -0.1777 C   0  0  0  0  0  0  0  0  0  0  0  0
    5.0606    0.8537    0.7394 C   0  0  0  0  0  0  0  0  0  0  0  0
    6.3049    1.4848    0.8664 C   0  0  0  0  0  0  0  0  0  0  0  0
    7.2852    0.9514    1.7049 C   0  0  0  0  0  0  0  0  0  0  0  0
    7.0328   -0.2185    2.4191 C   0  0  0  0  0  0  0  0  0  0  0  0
    5.8009   -0.8578    2.2940 C   0  0  0  0  0  0  0  0  0  0  0  0
    4.8193   -0.3260    1.4566 C   0  0  0  0  0  0  0  0  0  0  0  0
    1.6015    0.9931   -2.0273 N   0  0  0  0  0  0  0  0  0  0  0  0
    1.0340   -0.2645   -2.0883 C   0  0  0  0  0  0  0  0  0  0  0  0
    1.5748   -1.2281   -2.6186 O   0  0  0  0  0  0  0  0  0  0  0  0
   -0.2888   -0.4265   -1.4231 C   0  0  0  0  0  0  0  0  0  0  0  0
   -0.6491   -1.6956   -0.9596 C   0  0  0  0  0  0  0  0  0  0  0  0
   -1.8809   -1.8921   -0.3268 C   0  0  0  0  0  0  0  0  0  0  0  0
   -2.7745   -0.8272   -0.1563 C   0  0  0  0  0  0  0  0  0  0  0  0
   -3.9924   -1.1077    0.4975 N   0  0  0  0  0  0  0  0  0  0  0  0
   -5.0437   -0.2371    0.7211 C   0  0  0  0  0  0  0  0  0  0  0  0
   -5.1334    0.9235    0.3409 O   0  0  0  0  0  0  0  0  0  0  0  0
   -6.1873   -0.8186    1.4774 C   0  0  0  0  0  0  0  0  0  0  0  0
   -5.9877   -1.7133    2.5385 C   0  0  0  0  0  0  0  0  0  0  0  0
   -7.0855   -2.2340    3.2269 C   0  0  0  0  0  0  0  0  0  0  0  0
   -8.3795   -1.8580    2.8641 C   0  0  0  0  0  0  0  0  0  0  0  0
   -8.5728   -0.9538    1.8198 C   0  0  0  0  0  0  0  0  0  0  0  0
  -10.3277   -0.4386    1.3419 Br  0  0  0  0  0  0  0  0  0  0  0  0
   -7.4849   -0.4269    1.1272 C   0  0  0  0  0  0  0  0  0  0  0  0
   -2.4161    0.4356   -0.6327 C   0  0  0  0  0  0  0  0  0  0  0  0
   -1.1834    0.6369   -1.2685 C   0  0  0  0  0  0  0  0  0  0  0  0
    2.9064    3.3695   -2.0099 H   0  0  0  0  0  0  0  0  0  0  0  0
    2.3992    3.0113   -3.6574 H   0  0  0  0  0  0  0  0  0  0  0  0
    4.1181    2.9363   -3.2354 H   0  0  0  0  0  0  0  0  0  0  0  0
    3.0594    0.6750   -3.4581 H   0  0  0  0  0  0  0  0  0  0  0  0
    5.0150    0.8894   -2.0116 H   0  0  0  0  0  0  0  0  0  0  0  0
    3.9146   -0.3420   -1.4232 H   0  0  0  0  0  0  0  0  0  0  0  0
    4.1570    2.4991   -0.2763 H   0  0  0  0  0  0  0  0  0  0  0  0
    3.0220    1.2939    0.2972 H   0  0  0  0  0  0  0  0  0  0  0  0
    6.5196    2.3951    0.3117 H   0  0  0  0  0  0  0  0  0  0  0  0
    8.2475    1.4476    1.7986 H   0  0  0  0  0  0  0  0  0  0  0  0
    7.7973   -0.6342    3.0698 H   0  0  0  0  0  0  0  0  0  0  0  0
    5.6052   -1.7734    2.8457 H   0  0  0  0  0  0  0  0  0  0  0  0
    3.8653   -0.8398    1.3617 H   0  0  0  0  0  0  0  0  0  0  0  0
    1.2094    1.6638   -1.3804 H   0  0  0  0  0  0  0  0  0  0  0  0
    0.0302   -2.5363   -1.0892 H   0  0  0  0  0  0  0  0  0  0  0  0
   -2.1270   -2.8911    0.0237 H   0  0  0  0  0  0  0  0  0  0  0  0
   -4.1283   -2.0718    0.7718 H   0  0  0  0  0  0  0  0  0  0  0  0
   -4.9866   -1.9881    2.8605 H   0  0  0  0  0  0  0  0  0  0  0  0
   -6.9340   -2.9236    4.0543 H   0  0  0  0  0  0  0  0  0  0  0  0
   -9.2290   -2.2657    3.4070 H   0  0  0  0  0  0  0  0  0  0  0  0
   -7.6362    0.2837    0.3174 H   0  0  0  0  0  0  0  0  0  0  0  0
   -3.0788    1.2902   -0.5334 H   0  0  0  0  0  0  0  0  0  0  0  0
   -0.9589    1.6254   -1.6587 H   0  0  0  0  0  0  0  0  0  0  0  0
  1  2  1  0
  2  3  1  0
  3  4  1  0
  4  5  1  0
  5  6  2  0
  6  7  1  0
  7  8  2  0
  8  9  1  0
  9 10  2  0
  2 11  1  0
 11 12  1  0
 12 13  2  0
 12 14  1  0
 14 15  2  0
 15 16  1  0
 16 17  2  0
 17 18  1  0
 18 19  1  0
 19 20  2  0
 19 21  1  0
 21 22  2  0
 22 23  1  0
 23 24  2  0
 24 25  1  0
 25 26  1  0
 25 27  2  0
 17 28  1  0
 28 29  2  0
 10  5  1  0
 29 14  1  0
 27 21  1  0
  1 30  1  0
  1 31  1  0
  1 32  1  0
  2 33  1  0
  3 34  1  0
  3 35  1  0
  4 36  1  0
  4 37  1  0
  6 38  1  0
  7 39  1  0
  8 40  1  0
  9 41  1  0
 10 42  1  0
 11 43  1  0
 15 44  1  0
 16 45  1  0
 18 46  1  0
 22 47  1  0
 23 48  1  0
 24 49  1  0
 27 50  1  0
 28 51  1  0
 29 52  1  0
M  END
$$$$
