
     RDKit          3D

 50 51  0  0  0  0  0  0  0  0999 V2000
    6.0284    1.8465   -1.4044 C   0  0  0  0  0  0  0  0  0  0  0  0
    5.1959    1.2073   -0.3322 C   0  0  0  0  0  0  0  0  0  0  0  0
    4.3298    0.1522   -0.6423 C   0  0  0  0  0  0  0  0  0  0  0  0
    3.5793   -0.4649    0.3609 C   0  0  0  0  0  0  0  0  0  0  0  0
    3.6893   -0.0376    1.6889 C   0  0  0  0  0  0  0  0  0  0  0  0
    2.9023   -0.6858    2.7373 C   0  0  0  0  0  0  0  0  0  0  0  0
    3.3418   -1.7685    3.3909 C   0  0  0  0  0  0  0  0  0  0  0  0
    2.1860   -2.3343    4.5479 S   0  0  0  0  0  0  0  0  0  0  0  0
    1.0379   -1.0520    4.1034 C   0  0  0  0  0  0  0  0  0  0  0  0
   -0.4671   -0.9044    4.7998 S   0  0  0  0  0  0  0  0  0  0  0  0
    1.6390   -0.2511    3.1281 N   0  0  0  0  0  0  0  0  0  0  0  0
    0.9671    0.8794    2.4728 C   0  0  0  0  0  0  0  0  0  0  0  0
    0.3346    0.4752    1.1475 C   0  0  0  0  0  0  0  0  0  0  0  0
    0.0795   -0.6688    0.7919 O   0  0  0  0  0  0  0  0  0  0  0  0
    0.0787    1.5917    0.4035 O   0  0  0  0  0  0  0  0  0  0  0  0
   -0.6500    1.3291   -0.7944 C   0  0  0  0  0  0  0  0  0  0  0  0
   -2.1286    1.0444   -0.5201 C   0  0  0  0  0  0  0  0  0  0  0  0
   -2.7078    1.4716    0.4753 O   0  0  0  0  0  0  0  0  0  0  0  0
   -2.7445    0.2792   -1.4898 N   0  0  0  0  0  0  0  0  0  0  0  0
   -4.1648   -0.0603   -1.4249 C   0  0  0  0  0  0  0  0  0  0  0  0
   -4.9692    1.0633   -2.0836 C   0  0  0  0  0  0  0  0  0  0  0  0
   -4.4149   -1.4459   -2.0743 C   0  0  0  0  0  0  0  0  0  0  0  0
   -5.8997   -1.8212   -2.1042 C   0  0  0  0  0  0  0  0  0  0  0  0
   -3.6393   -2.5458   -1.3354 C   0  0  0  0  0  0  0  0  0  0  0  0
    4.5711    1.0012    2.0051 C   0  0  0  0  0  0  0  0  0  0  0  0
    5.3211    1.6177    1.0006 C   0  0  0  0  0  0  0  0  0  0  0  0
    5.5070    1.8266   -2.3672 H   0  0  0  0  0  0  0  0  0  0  0  0
    6.2317    2.8961   -1.1673 H   0  0  0  0  0  0  0  0  0  0  0  0
    6.9798    1.3154   -1.5058 H   0  0  0  0  0  0  0  0  0  0  0  0
    4.2356   -0.1984   -1.6679 H   0  0  0  0  0  0  0  0  0  0  0  0
    2.9070   -1.2809    0.0997 H   0  0  0  0  0  0  0  0  0  0  0  0
    4.2911   -2.2616    3.2294 H   0  0  0  0  0  0  0  0  0  0  0  0
    0.1777    1.2823    3.1131 H   0  0  0  0  0  0  0  0  0  0  0  0
    1.6980    1.6774    2.3059 H   0  0  0  0  0  0  0  0  0  0  0  0
   -0.1854    0.5147   -1.3627 H   0  0  0  0  0  0  0  0  0  0  0  0
   -0.6002    2.2311   -1.4135 H   0  0  0  0  0  0  0  0  0  0  0  0
   -2.2331    0.0369   -2.3283 H   0  0  0  0  0  0  0  0  0  0  0  0
   -4.4543   -0.1053   -0.3672 H   0  0  0  0  0  0  0  0  0  0  0  0
   -4.7075    2.0369   -1.6542 H   0  0  0  0  0  0  0  0  0  0  0  0
   -6.0449    0.9259   -1.9400 H   0  0  0  0  0  0  0  0  0  0  0  0
   -4.7664    1.1145   -3.1591 H   0  0  0  0  0  0  0  0  0  0  0  0
   -4.0520   -1.4244   -3.1107 H   0  0  0  0  0  0  0  0  0  0  0  0
   -6.4667   -1.1545   -2.7609 H   0  0  0  0  0  0  0  0  0  0  0  0
   -6.3403   -1.7754   -1.1026 H   0  0  0  0  0  0  0  0  0  0  0  0
   -6.0371   -2.8383   -2.4875 H   0  0  0  0  0  0  0  0  0  0  0  0
   -2.5598   -2.3671   -1.3697 H   0  0  0  0  0  0  0  0  0  0  0  0
   -3.9412   -2.6042   -0.2841 H   0  0  0  0  0  0  0  0  0  0  0  0
   -3.8206   -3.5240   -1.7939 H   0  0  0  0  0  0  0  0  0  0  0  0
    4.6802    1.3374    3.0341 H   0  0  0  0  0  0  0  0  0  0  0  0
    6.0059    2.4207    1.2656 H   0  0  0  0  0  0  0  0  0  0  0  0
  1  2  1  0
  2  3  2  0
  3  4  1  0
  4  5  2  0
  5  6  1  0
  6  7  2  0
  7  8  1  0
  8  9  1  0
  9 10  2  0
  9 11  1  0
 11 12  1  0
 12 13  1  0
 13 14  2  0
 13 15  1  0
 15 16  1  0
 16 17  1  0
 17 18  2  0
 17 19  1  0
 19 20  1  0
 20 21  1  0
 20 22  1  0
 22 23  1  0
 22 24  1  0
  5 25  1  0
 25 26  2  0
 26  2  1  0
 11  6  1  0
  1 27  1  0
  1 28  1  0
  1 29  1  0
  3 30  1  0
  4 31  1  0
  7 32  1  0
 12 33  1  0
 12 34  1  0
 16 35  1  0
 16 36  1  0
 19 37  1  0
 20 38  1  0
 21 39  1  0
 21 40  1  0
 21 41  1  0
 22 42  1  0
 23 43  1  0
 23 44  1  0
 23 45  1  0
 24 46  1  0
 24 47  1  0
 24 48  1  0
 25 49  1  0
 26 50  1  0
M  END
$$$$
