
     RDKit          3D

 36 37  0  0  0  0  0  0  0  0999 V2000
    0.3264    0.8540    0.7732 O   0  0  0  0  0  0  0  0  0  0  0  0
    0.5296   -0.3414    0.9632 C   0  0  0  0  0  0  0  0  0  0  0  0
   -0.5112   -1.4305    0.7069 C   0  0  0  0  0  0  0  0  0  0  0  0
   -1.7179   -0.8786    0.1891 O   0  0  0  0  0  0  0  0  0  0  0  0
   -2.6559   -1.8094   -0.0901 C   0  0  0  0  0  0  0  0  0  0  0  0
   -2.5725   -3.0157    0.0526 O   0  0  0  0  0  0  0  0  0  0  0  0
   -3.8345   -1.1166   -0.6104 C   0  0  0  0  0  0  0  0  0  0  0  0
   -3.9485   -0.8669   -1.9812 C   0  0  0  0  0  0  0  0  0  0  0  0
   -2.7293   -1.3387   -3.1106 Cl  0  0  0  0  0  0  0  0  0  0  0  0
   -5.0808   -0.2130   -2.4764 C   0  0  0  0  0  0  0  0  0  0  0  0
   -6.0959    0.1872   -1.6064 C   0  0  0  0  0  0  0  0  0  0  0  0
   -5.9818   -0.0666   -0.2388 C   0  0  0  0  0  0  0  0  0  0  0  0
   -4.8520   -0.7202    0.2625 C   0  0  0  0  0  0  0  0  0  0  0  0
   -4.7712   -1.0029    1.9648 Cl  0  0  0  0  0  0  0  0  0  0  0  0
    1.7341   -0.8344    1.4283 N   0  0  0  0  0  0  0  0  0  0  0  0
    2.8563    0.0317    1.7445 C   0  0  0  0  0  0  0  0  0  0  0  0
    3.9149    0.0879    0.6305 C   0  0  0  0  0  0  0  0  0  0  0  0
    3.5077    0.8963   -0.5926 C   0  0  0  0  0  0  0  0  0  0  0  0
    3.9682    2.2868   -0.2357 C   0  0  0  0  0  0  0  0  0  0  0  0
    5.2509    2.0069    0.5148 C   0  0  0  0  0  0  0  0  0  0  0  0
    5.0932    0.7336    1.1587 O   0  0  0  0  0  0  0  0  0  0  0  0
   -0.7154   -1.9331    1.6596 H   0  0  0  0  0  0  0  0  0  0  0  0
   -0.0875   -2.1390   -0.0148 H   0  0  0  0  0  0  0  0  0  0  0  0
   -5.1781   -0.0118   -3.5414 H   0  0  0  0  0  0  0  0  0  0  0  0
   -6.9758    0.6968   -1.9940 H   0  0  0  0  0  0  0  0  0  0  0  0
   -6.7780    0.2488    0.4325 H   0  0  0  0  0  0  0  0  0  0  0  0
    1.8479   -1.8310    1.5666 H   0  0  0  0  0  0  0  0  0  0  0  0
    3.3122   -0.3706    2.6567 H   0  0  0  0  0  0  0  0  0  0  0  0
    2.4993    1.0363    1.9976 H   0  0  0  0  0  0  0  0  0  0  0  0
    4.1891   -0.9331    0.3411 H   0  0  0  0  0  0  0  0  0  0  0  0
    2.4480    0.8380   -0.8475 H   0  0  0  0  0  0  0  0  0  0  0  0
    4.0759    0.5457   -1.4637 H   0  0  0  0  0  0  0  0  0  0  0  0
    4.1167    2.9356   -1.1029 H   0  0  0  0  0  0  0  0  0  0  0  0
    3.2390    2.7663    0.4274 H   0  0  0  0  0  0  0  0  0  0  0  0
    6.1014    1.9292   -0.1708 H   0  0  0  0  0  0  0  0  0  0  0  0
    5.4757    2.7722    1.2629 H   0  0  0  0  0  0  0  0  0  0  0  0
  1  2  2  0
  2  3  1  0
  3  4  1  0
  4  5  1  0
  5  6  2  0
  5  7  1  0
  7  8  2  0
  8  9  1  0
  8 10  1  0
 10 11  2  0
 11 12  1  0
 12 13  2  0
 13 14  1  0
  2 15  1  0
 15 16  1  0
 16 17  1  0
 17 18  1  0
 18 19  1  0
 19 20  1  0
 20 21  1  0
 13  7  1  0
 21 17  1  0
  3 22  1  0
  3 23  1  0
 10 24  1  0
 11 25  1  0
 12 26  1  0
 15 27  1  0
 16 28  1  0
 16 29  1  0
 17 30  1  0
 18 31  1  0
 18 32  1  0
 19 33  1  0
 19 34  1  0
 20 35  1  0
 20 36  1  0
M  END
$$$$
