
     RDKit          3D

 48 50  0  0  0  0  0  0  0  0999 V2000
    5.7269   -0.3579   -1.9859 C   0  0  0  0  0  0  0  0  0  0  0  0
    5.3435    0.6268   -0.8904 C   0  0  0  0  0  0  0  0  0  0  0  0
    4.7021   -0.0639    0.2361 N   0  0  0  0  0  0  0  0  0  0  0  0
    5.5978   -0.4825    1.3222 C   0  0  0  0  0  0  0  0  0  0  0  0
    5.7090    0.5970    2.3895 C   0  0  0  0  0  0  0  0  0  0  0  0
    3.3279   -0.2772    0.2857 C   0  0  0  0  0  0  0  0  0  0  0  0
    2.4811    0.0151   -0.7987 C   0  0  0  0  0  0  0  0  0  0  0  0
    1.0942   -0.2005   -0.7580 C   0  0  0  0  0  0  0  0  0  0  0  0
    0.4981   -0.7197    0.3864 C   0  0  0  0  0  0  0  0  0  0  0  0
   -0.9413   -0.9816    0.4386 C   0  0  0  0  0  0  0  0  0  0  0  0
   -1.9331   -0.0858    0.6198 C   0  0  0  0  0  0  0  0  0  0  0  0
   -1.7130    1.3622    0.8240 C   0  0  0  0  0  0  0  0  0  0  0  0
   -0.6207    1.8973    0.9629 O   0  0  0  0  0  0  0  0  0  0  0  0
   -2.8517    2.1093    0.8837 N   0  0  0  0  0  0  0  0  0  0  0  0
   -4.1319    1.6578    0.9988 C   0  0  0  0  0  0  0  0  0  0  0  0
   -5.0157    2.4564    1.3027 O   0  0  0  0  0  0  0  0  0  0  0  0
   -4.3340    0.3083    0.8038 N   0  0  0  0  0  0  0  0  0  0  0  0
   -5.7073   -0.1779    0.8027 C   0  0  0  0  0  0  0  0  0  0  0  0
   -6.1935   -0.2656   -0.6027 C   0  0  0  0  0  0  0  0  0  0  0  0
   -6.2067   -1.2798   -1.5389 C   0  0  0  0  0  0  0  0  0  0  0  0
   -6.8007   -0.7398   -2.7046 C   0  0  0  0  0  0  0  0  0  0  0  0
   -7.1105    0.5663   -2.4068 C   0  0  0  0  0  0  0  0  0  0  0  0
   -6.7435    0.8638   -1.1342 O   0  0  0  0  0  0  0  0  0  0  0  0
   -3.3237   -0.6217    0.6198 C   0  0  0  0  0  0  0  0  0  0  0  0
   -3.5429   -1.8251    0.4786 O   0  0  0  0  0  0  0  0  0  0  0  0
    1.3033   -1.0250    1.4786 C   0  0  0  0  0  0  0  0  0  0  0  0
    2.6886   -0.8043    1.4220 C   0  0  0  0  0  0  0  0  0  0  0  0
    6.2256    0.1659   -2.8075 H   0  0  0  0  0  0  0  0  0  0  0  0
    6.4125   -1.1220   -1.6051 H   0  0  0  0  0  0  0  0  0  0  0  0
    4.8516   -0.8723   -2.3934 H   0  0  0  0  0  0  0  0  0  0  0  0
    6.2557    1.1294   -0.5445 H   0  0  0  0  0  0  0  0  0  0  0  0
    4.7162    1.4324   -1.2878 H   0  0  0  0  0  0  0  0  0  0  0  0
    5.2881   -1.4375    1.7604 H   0  0  0  0  0  0  0  0  0  0  0  0
    6.6006   -0.6737    0.9190 H   0  0  0  0  0  0  0  0  0  0  0  0
    4.7406    0.8148    2.8498 H   0  0  0  0  0  0  0  0  0  0  0  0
    6.3958    0.2770    3.1796 H   0  0  0  0  0  0  0  0  0  0  0  0
    6.0915    1.5314    1.9661 H   0  0  0  0  0  0  0  0  0  0  0  0
    2.8783    0.4164   -1.7251 H   0  0  0  0  0  0  0  0  0  0  0  0
    0.4974    0.0460   -1.6325 H   0  0  0  0  0  0  0  0  0  0  0  0
   -1.1746   -2.0387    0.3103 H   0  0  0  0  0  0  0  0  0  0  0  0
   -2.7190    3.0926    1.0746 H   0  0  0  0  0  0  0  0  0  0  0  0
   -5.7530   -1.1661    1.2751 H   0  0  0  0  0  0  0  0  0  0  0  0
   -6.3580    0.4850    1.3836 H   0  0  0  0  0  0  0  0  0  0  0  0
   -5.8261   -2.2825   -1.3941 H   0  0  0  0  0  0  0  0  0  0  0  0
   -6.9804   -1.2397   -3.6463 H   0  0  0  0  0  0  0  0  0  0  0  0
   -7.5692    1.3735   -2.9610 H   0  0  0  0  0  0  0  0  0  0  0  0
    0.8719   -1.4328    2.3890 H   0  0  0  0  0  0  0  0  0  0  0  0
    3.2520   -1.0513    2.3157 H   0  0  0  0  0  0  0  0  0  0  0  0
  1  2  1  0
  2  3  1  0
  3  4  1  0
  4  5  1  0
  3  6  1  0
  6  7  2  0
  7  8  1  0
  8  9  2  0
  9 10  1  0
 10 11  2  3
 11 12  1  0
 12 13  2  0
 12 14  1  0
 14 15  1  0
 15 16  2  0
 15 17  1  0
 17 18  1  0
 18 19  1  0
 19 20  2  0
 20 21  1  0
 21 22  2  0
 22 23  1  0
 17 24  1  0
 24 25  2  0
  9 26  1  0
 26 27  2  0
 27  6  1  0
 24 11  1  0
 23 19  1  0
  1 28  1  0
  1 29  1  0
  1 30  1  0
  2 31  1  0
  2 32  1  0
  4 33  1  0
  4 34  1  0
  5 35  1  0
  5 36  1  0
  5 37  1  0
  7 38  1  0
  8 39  1  0
 10 40  1  0
 14 41  1  0
 18 42  1  0
 18 43  1  0
 20 44  1  0
 21 45  1  0
 22 46  1  0
 26 47  1  0
 27 48  1  0
M  END
$$$$
