
     RDKit          3D

 46 47  0  0  0  0  0  0  0  0999 V2000
    0.1831    0.6194   -1.9830 O   0  0  0  0  0  0  0  0  0  0  0  0
    0.2398   -0.5151   -1.5277 C   0  0  0  0  0  0  0  0  0  0  0  0
   -0.7022   -1.5059   -1.6881 N   0  0  0  0  0  0  0  0  0  0  0  0
   -1.9354   -1.3068   -2.4126 C   0  0  0  0  0  0  0  0  0  0  0  0
   -3.0020   -0.5827   -1.5886 C   0  0  0  0  0  0  0  0  0  0  0  0
   -3.4997   -1.4408   -0.4153 C   0  0  0  0  0  0  0  0  0  0  0  0
   -4.5572   -0.8606    0.4156 N   0  0  0  0  0  0  0  0  0  0  0  0
   -4.1063    0.2624    1.2545 C   0  0  0  0  0  0  0  0  0  0  0  0
   -5.3026    1.0272    1.8419 C   0  0  0  0  0  0  0  0  0  0  0  0
   -6.1234    1.6398    0.8366 O   0  0  0  0  0  0  0  0  0  0  0  0
   -6.0795    0.9569   -0.4237 C   0  0  0  0  0  0  0  0  0  0  0  0
   -5.8111   -0.5513   -0.2912 C   0  0  0  0  0  0  0  0  0  0  0  0
    1.4514   -0.9398   -0.6782 C   0  0  0  0  0  0  0  0  0  0  0  0
    1.4921   -2.0655   -0.2000 O   0  0  0  0  0  0  0  0  0  0  0  0
    2.3834    0.0733   -0.5631 N   0  0  0  0  0  0  0  0  0  0  0  0
    3.5227   -0.1130    0.1546 N   0  0  0  0  0  0  0  0  0  0  0  0
    4.3225    0.9059    0.2011 C   0  0  0  0  0  0  0  0  0  0  0  0
    5.5956    0.8412    0.9456 C   0  0  0  0  0  0  0  0  0  0  0  0
    6.4118    1.9785    0.9507 C   0  0  0  0  0  0  0  0  0  0  0  0
    7.6255    1.9605    1.6422 C   0  0  0  0  0  0  0  0  0  0  0  0
    8.0237    0.8114    2.3267 C   0  0  0  0  0  0  0  0  0  0  0  0
    7.2108   -0.3227    2.3228 C   0  0  0  0  0  0  0  0  0  0  0  0
    6.0002   -0.3086    1.6341 C   0  0  0  0  0  0  0  0  0  0  0  0
    5.2625   -1.4600    1.6775 O   0  0  0  0  0  0  0  0  0  0  0  0
   -0.5144   -2.3879   -1.2142 H   0  0  0  0  0  0  0  0  0  0  0  0
   -2.2917   -2.2904   -2.7358 H   0  0  0  0  0  0  0  0  0  0  0  0
   -1.7118   -0.7173   -3.3092 H   0  0  0  0  0  0  0  0  0  0  0  0
   -2.5982    0.3687   -1.2263 H   0  0  0  0  0  0  0  0  0  0  0  0
   -3.8378   -0.3446   -2.2561 H   0  0  0  0  0  0  0  0  0  0  0  0
   -2.6546   -1.7022    0.2343 H   0  0  0  0  0  0  0  0  0  0  0  0
   -3.8658   -2.3983   -0.8083 H   0  0  0  0  0  0  0  0  0  0  0  0
   -3.5046    0.9712    0.6748 H   0  0  0  0  0  0  0  0  0  0  0  0
   -3.4826   -0.1218    2.0689 H   0  0  0  0  0  0  0  0  0  0  0  0
   -5.9360    0.3615    2.4404 H   0  0  0  0  0  0  0  0  0  0  0  0
   -4.9510    1.8233    2.5062 H   0  0  0  0  0  0  0  0  0  0  0  0
   -7.0421    1.1234   -0.9181 H   0  0  0  0  0  0  0  0  0  0  0  0
   -5.3114    1.4357   -1.0417 H   0  0  0  0  0  0  0  0  0  0  0  0
   -5.8596   -1.0337   -1.2742 H   0  0  0  0  0  0  0  0  0  0  0  0
   -6.6235   -0.9892    0.3026 H   0  0  0  0  0  0  0  0  0  0  0  0
    2.1855    0.9589   -1.0269 H   0  0  0  0  0  0  0  0  0  0  0  0
    4.0858    1.8566   -0.3105 H   0  0  0  0  0  0  0  0  0  0  0  0
    6.1181    2.8817    0.4228 H   0  0  0  0  0  0  0  0  0  0  0  0
    8.2628    2.8416    1.6482 H   0  0  0  0  0  0  0  0  0  0  0  0
    8.9683    0.7967    2.8651 H   0  0  0  0  0  0  0  0  0  0  0  0
    7.5189   -1.2189    2.8550 H   0  0  0  0  0  0  0  0  0  0  0  0
    4.4400   -1.3183    1.1563 H   0  0  0  0  0  0  0  0  0  0  0  0
  1  2  2  0
  2  3  1  0
  3  4  1  0
  4  5  1  0
  5  6  1  0
  6  7  1  0
  7  8  1  0
  8  9  1  0
  9 10  1  0
 10 11  1  0
 11 12  1  0
  2 13  1  0
 13 14  2  0
 13 15  1  0
 15 16  1  0
 16 17  2  3
 17 18  1  0
 18 19  2  0
 19 20  1  0
 20 21  2  0
 21 22  1  0
 22 23  2  0
 23 24  1  0
 12  7  1  0
 23 18  1  0
  3 25  1  0
  4 26  1  0
  4 27  1  0
  5 28  1  0
  5 29  1  0
  6 30  1  0
  6 31  1  0
  8 32  1  0
  8 33  1  0
  9 34  1  0
  9 35  1  0
 11 36  1  0
 11 37  1  0
 12 38  1  0
 12 39  1  0
 15 40  1  0
 17 41  1  0
 19 42  1  0
 20 43  1  0
 21 44  1  0
 22 45  1  0
 24 46  1  0
M  END
$$$$
