
     RDKit          3D

 53 55  0  0  0  0  0  0  0  0999 V2000
    4.7187   -3.7470    0.4312 C   0  0  0  0  0  0  0  0  0  0  0  0
    5.2078   -2.4221    0.5922 O   0  0  0  0  0  0  0  0  0  0  0  0
    4.2905   -1.4054    0.5593 C   0  0  0  0  0  0  0  0  0  0  0  0
    2.9063   -1.5672    0.5283 C   0  0  0  0  0  0  0  0  0  0  0  0
    2.0755   -0.4385    0.5156 C   0  0  0  0  0  0  0  0  0  0  0  0
    0.6129   -0.6424    0.4788 C   0  0  0  0  0  0  0  0  0  0  0  0
   -0.2161    0.3534    0.5128 N   0  0  0  0  0  0  0  0  0  0  0  0
   -1.5525    0.0384    0.4452 N   0  0  0  0  0  0  0  0  0  0  0  0
   -2.0550   -0.8566   -0.6108 C   0  0  0  0  0  0  0  0  0  0  0  0
   -3.3120   -0.3179   -1.3255 C   0  0  0  0  0  0  0  0  0  0  0  0
   -4.3713    0.0399   -0.3648 N   0  0  0  0  0  0  0  0  0  0  0  0
   -5.7024    0.1302   -0.7444 C   0  0  0  0  0  0  0  0  0  0  0  0
   -6.7325    0.1770    0.2122 C   0  0  0  0  0  0  0  0  0  0  0  0
   -8.0829    0.2582   -0.1511 C   0  0  0  0  0  0  0  0  0  0  0  0
   -8.4337    0.2913   -1.4937 C   0  0  0  0  0  0  0  0  0  0  0  0
  -10.0886    0.3914   -1.9491 Cl  0  0  0  0  0  0  0  0  0  0  0  0
   -7.4462    0.2407   -2.4684 C   0  0  0  0  0  0  0  0  0  0  0  0
   -6.0987    0.1578   -2.0921 C   0  0  0  0  0  0  0  0  0  0  0  0
   -3.9272    0.6274    0.9191 C   0  0  0  0  0  0  0  0  0  0  0  0
   -2.4656    1.1055    0.8618 C   0  0  0  0  0  0  0  0  0  0  0  0
    2.6098    0.8574    0.5404 C   0  0  0  0  0  0  0  0  0  0  0  0
    3.9907    1.0378    0.5699 C   0  0  0  0  0  0  0  0  0  0  0  0
    4.6333    2.2469    0.6061 O   0  0  0  0  0  0  0  0  0  0  0  0
    3.8242    3.4124    0.5067 C   0  0  0  0  0  0  0  0  0  0  0  0
    4.8117   -0.1011    0.5672 C   0  0  0  0  0  0  0  0  0  0  0  0
    6.2016    0.0718    0.6158 O   0  0  0  0  0  0  0  0  0  0  0  0
    6.7561    0.1138   -0.6546 C   0  0  0  0  0  0  0  0  0  0  0  0
    8.2371    0.3121   -0.5228 C   0  0  0  0  0  0  0  0  0  0  0  0
    6.1726    0.0081   -1.7267 O   0  0  0  0  0  0  0  0  0  0  0  0
    4.1834   -3.8602   -0.5174 H   0  0  0  0  0  0  0  0  0  0  0  0
    5.5803   -4.4212    0.4100 H   0  0  0  0  0  0  0  0  0  0  0  0
    4.0890   -4.0380    1.2783 H   0  0  0  0  0  0  0  0  0  0  0  0
    2.4552   -2.5531    0.5211 H   0  0  0  0  0  0  0  0  0  0  0  0
    0.2591   -1.6881    0.4392 H   0  0  0  0  0  0  0  0  0  0  0  0
   -2.2898   -1.8074   -0.1187 H   0  0  0  0  0  0  0  0  0  0  0  0
   -1.2687   -1.0361   -1.3519 H   0  0  0  0  0  0  0  0  0  0  0  0
   -3.6563   -1.1005   -2.0121 H   0  0  0  0  0  0  0  0  0  0  0  0
   -3.0491    0.5666   -1.9187 H   0  0  0  0  0  0  0  0  0  0  0  0
   -6.4993    0.1249    1.2726 H   0  0  0  0  0  0  0  0  0  0  0  0
   -8.8464    0.2878    0.6210 H   0  0  0  0  0  0  0  0  0  0  0  0
   -7.7087    0.2678   -3.5221 H   0  0  0  0  0  0  0  0  0  0  0  0
   -5.3602    0.1385   -2.8884 H   0  0  0  0  0  0  0  0  0  0  0  0
   -4.0326   -0.1321    1.7032 H   0  0  0  0  0  0  0  0  0  0  0  0
   -4.5456    1.4910    1.1924 H   0  0  0  0  0  0  0  0  0  0  0  0
   -2.3653    1.9282    0.1432 H   0  0  0  0  0  0  0  0  0  0  0  0
   -2.1473    1.4655    1.8462 H   0  0  0  0  0  0  0  0  0  0  0  0
    1.9265    1.7008    0.5383 H   0  0  0  0  0  0  0  0  0  0  0  0
    3.2587    3.4236   -0.4310 H   0  0  0  0  0  0  0  0  0  0  0  0
    3.1600    3.5049    1.3722 H   0  0  0  0  0  0  0  0  0  0  0  0
    4.4895    4.2812    0.5041 H   0  0  0  0  0  0  0  0  0  0  0  0
    8.6869    0.3538   -1.5189 H   0  0  0  0  0  0  0  0  0  0  0  0
    8.6761   -0.5268    0.0229 H   0  0  0  0  0  0  0  0  0  0  0  0
    8.4405    1.2554   -0.0098 H   0  0  0  0  0  0  0  0  0  0  0  0
  1  2  1  0
  2  3  1  0
  3  4  2  0
  4  5  1  0
  5  6  1  0
  6  7  2  3
  7  8  1  0
  8  9  1  0
  9 10  1  0
 10 11  1  0
 11 12  1  0
 12 13  2  0
 13 14  1  0
 14 15  2  0
 15 16  1  0
 15 17  1  0
 17 18  2  0
 11 19  1  0
 19 20  1  0
  5 21  2  0
 21 22  1  0
 22 23  1  0
 23 24  1  0
 22 25  2  0
 25 26  1  0
 26 27  1  0
 27 28  1  0
 27 29  2  0
 25  3  1  0
 20  8  1  0
 18 12  1  0
  1 30  1  0
  1 31  1  0
  1 32  1  0
  4 33  1  0
  6 34  1  0
  9 35  1  0
  9 36  1  0
 10 37  1  0
 10 38  1  0
 13 39  1  0
 14 40  1  0
 17 41  1  0
 18 42  1  0
 19 43  1  0
 19 44  1  0
 20 45  1  0
 20 46  1  0
 21 47  1  0
 24 48  1  0
 24 49  1  0
 24 50  1  0
 28 51  1  0
 28 52  1  0
 28 53  1  0
M  END
$$$$
