
     RDKit          3D

 47 49  0  0  0  0  0  0  0  0999 V2000
   -5.5797   -2.0018    0.2346 C   0  0  0  0  0  0  0  0  0  0  0  0
   -4.4798   -1.0961    0.5564 N   0  0  0  0  0  0  0  0  0  0  0  0
   -3.6707   -0.7654   -0.6336 C   0  0  0  0  0  0  0  0  0  0  0  0
   -3.9703    0.6057   -1.2695 C   0  0  0  0  0  0  0  0  0  0  0  0
   -3.8288    1.7140   -0.2855 N   0  0  0  0  0  0  0  0  0  0  0  0
   -2.6968    2.9290   -0.6006 S   0  0  0  0  0  6  0  0  0  0  0  0
   -2.8093    3.9280    0.4411 O   0  0  0  0  0  0  0  0  0  0  0  0
   -2.8074    3.2912   -1.9983 O   0  0  0  0  0  0  0  0  0  0  0  0
   -1.1309    2.1076   -0.3869 C   0  0  0  0  0  0  0  0  0  0  0  0
   -0.4947    1.5284   -1.4830 C   0  0  0  0  0  0  0  0  0  0  0  0
    0.7456    0.9076   -1.3081 C   0  0  0  0  0  0  0  0  0  0  0  0
    1.3737    0.8690   -0.0510 C   0  0  0  0  0  0  0  0  0  0  0  0
    2.6205    0.2079   -0.0094 N   0  0  0  0  0  0  0  0  0  0  0  0
    3.5268   -0.0658    0.9878 C   0  0  0  0  0  0  0  0  0  0  0  0
    3.4776    0.2889    2.6178 S   0  0  0  0  0  0  0  0  0  0  0  0
    4.6589   -0.7507    0.5662 N   0  0  0  0  0  0  0  0  0  0  0  0
    4.9950   -1.1928   -0.7023 C   0  0  0  0  0  0  0  0  0  0  0  0
    4.2866   -1.0271   -1.6905 O   0  0  0  0  0  0  0  0  0  0  0  0
    6.2951   -1.9069   -0.8458 C   0  0  0  0  0  0  0  0  0  0  0  0
    7.5295   -1.5017   -0.0751 C   0  0  0  0  0  0  0  0  0  0  0  0
    6.8537   -2.8082    0.2305 C   0  0  0  0  0  0  0  0  0  0  0  0
    0.7353    1.4838    1.0262 C   0  0  0  0  0  0  0  0  0  0  0  0
   -0.5082    2.1094    0.8614 C   0  0  0  0  0  0  0  0  0  0  0  0
   -4.0168    1.3081    1.1342 C   0  0  0  0  0  0  0  0  0  0  0  0
   -4.9893    0.1184    1.2285 C   0  0  0  0  0  0  0  0  0  0  0  0
   -6.2653   -1.5736   -0.5054 H   0  0  0  0  0  0  0  0  0  0  0  0
   -6.1533   -2.2473    1.1357 H   0  0  0  0  0  0  0  0  0  0  0  0
   -5.1937   -2.9486   -0.1594 H   0  0  0  0  0  0  0  0  0  0  0  0
   -3.7476   -1.5491   -1.3974 H   0  0  0  0  0  0  0  0  0  0  0  0
   -2.6206   -0.7702   -0.3148 H   0  0  0  0  0  0  0  0  0  0  0  0
   -4.9972    0.6271   -1.6546 H   0  0  0  0  0  0  0  0  0  0  0  0
   -3.3130    0.7496   -2.1320 H   0  0  0  0  0  0  0  0  0  0  0  0
   -0.9444    1.5604   -2.4726 H   0  0  0  0  0  0  0  0  0  0  0  0
    1.2231    0.4574   -2.1772 H   0  0  0  0  0  0  0  0  0  0  0  0
    2.9215   -0.1519   -0.9174 H   0  0  0  0  0  0  0  0  0  0  0  0
    5.3113   -0.9361    1.3141 H   0  0  0  0  0  0  0  0  0  0  0  0
    6.4659   -2.2403   -1.8675 H   0  0  0  0  0  0  0  0  0  0  0  0
    7.4703   -0.7017    0.6527 H   0  0  0  0  0  0  0  0  0  0  0  0
    8.4792   -1.5335   -0.5998 H   0  0  0  0  0  0  0  0  0  0  0  0
    7.3487   -3.7206   -0.0877 H   0  0  0  0  0  0  0  0  0  0  0  0
    6.3275   -2.9167    1.1710 H   0  0  0  0  0  0  0  0  0  0  0  0
    1.1680    1.5180    2.0173 H   0  0  0  0  0  0  0  0  0  0  0  0
   -0.9751    2.5982    1.7145 H   0  0  0  0  0  0  0  0  0  0  0  0
   -3.0604    1.0339    1.5903 H   0  0  0  0  0  0  0  0  0  0  0  0
   -4.4386    2.1517    1.6908 H   0  0  0  0  0  0  0  0  0  0  0  0
   -5.1732   -0.1146    2.2834 H   0  0  0  0  0  0  0  0  0  0  0  0
   -5.9488    0.4274    0.7915 H   0  0  0  0  0  0  0  0  0  0  0  0
  1  2  1  0
  2  3  1  0
  3  4  1  0
  4  5  1  0
  5  6  1  0
  6  7  2  0
  6  8  2  0
  6  9  1  0
  9 10  2  0
 10 11  1  0
 11 12  2  0
 12 13  1  0
 13 14  1  0
 14 15  2  0
 14 16  1  0
 16 17  1  0
 17 18  2  0
 17 19  1  0
 19 20  1  0
 20 21  1  0
 12 22  1  0
 22 23  2  0
  5 24  1  0
 24 25  1  0
 25  2  1  0
 23  9  1  0
 21 19  1  0
  1 26  1  0
  1 27  1  0
  1 28  1  0
  3 29  1  0
  3 30  1  0
  4 31  1  0
  4 32  1  0
 10 33  1  0
 11 34  1  0
 13 35  1  0
 16 36  1  0
 19 37  1  0
 20 38  1  0
 20 39  1  0
 21 40  1  0
 21 41  1  0
 22 42  1  0
 23 43  1  0
 24 44  1  0
 24 45  1  0
 25 46  1  0
 25 47  1  0
M  END
$$$$
