
     RDKit          3D

 47 49  0  0  0  0  0  0  0  0999 V2000
   -6.5210   -0.2508   -1.6025 C   0  0  0  0  0  0  0  0  0  0  0  0
   -5.9612   -0.5272   -0.2816 N   0  0  0  0  0  0  0  0  0  0  0  0
   -4.6387   -1.1780   -0.3658 C   0  0  0  0  0  0  0  0  0  0  0  0
   -3.4415   -0.2183   -0.2321 C   0  0  0  0  0  0  0  0  0  0  0  0
   -3.4620    0.5186    1.0764 N   0  0  0  0  0  0  0  0  0  0  0  0
   -2.5716    1.9746    1.0994 S   0  0  0  0  0  6  0  0  0  0  0  0
   -3.0586    2.7978    0.0119 O   0  0  0  0  0  0  0  0  0  0  0  0
   -2.5498    2.4711    2.4587 O   0  0  0  0  0  0  0  0  0  0  0  0
   -0.9290    1.4300    0.7090 C   0  0  0  0  0  0  0  0  0  0  0  0
   -0.2198    0.6837    1.6477 C   0  0  0  0  0  0  0  0  0  0  0  0
    1.0739    0.2527    1.3424 C   0  0  0  0  0  0  0  0  0  0  0  0
    1.6735    0.5583    0.1076 C   0  0  0  0  0  0  0  0  0  0  0  0
    2.9827    0.0627   -0.0775 N   0  0  0  0  0  0  0  0  0  0  0  0
    3.8721    0.0795   -1.1261 C   0  0  0  0  0  0  0  0  0  0  0  0
    3.7029    0.6804   -2.6745 S   0  0  0  0  0  0  0  0  0  0  0  0
    5.1007   -0.5057   -0.8506 N   0  0  0  0  0  0  0  0  0  0  0  0
    5.5450   -1.1059    0.3156 C   0  0  0  0  0  0  0  0  0  0  0  0
    4.8553   -1.2292    1.3227 O   0  0  0  0  0  0  0  0  0  0  0  0
    6.9400   -1.6305    0.3148 C   0  0  0  0  0  0  0  0  0  0  0  0
    7.5616   -2.2785   -0.9004 C   0  0  0  0  0  0  0  0  0  0  0  0
    8.0661   -0.9458   -0.4241 C   0  0  0  0  0  0  0  0  0  0  0  0
    0.9498    1.3218   -0.8100 C   0  0  0  0  0  0  0  0  0  0  0  0
   -0.3479    1.7607   -0.5142 C   0  0  0  0  0  0  0  0  0  0  0  0
   -4.8480    0.6532    1.6406 C   0  0  0  0  0  0  0  0  0  0  0  0
   -5.9055    0.7113    0.5251 C   0  0  0  0  0  0  0  0  0  0  0  0
   -7.5108    0.2104   -1.5120 H   0  0  0  0  0  0  0  0  0  0  0  0
   -5.8811    0.4146   -2.1930 H   0  0  0  0  0  0  0  0  0  0  0  0
   -6.6594   -1.1821   -2.1626 H   0  0  0  0  0  0  0  0  0  0  0  0
   -4.5433   -1.7626   -1.2892 H   0  0  0  0  0  0  0  0  0  0  0  0
   -4.5853   -1.9100    0.4508 H   0  0  0  0  0  0  0  0  0  0  0  0
   -2.5163   -0.8026   -0.2814 H   0  0  0  0  0  0  0  0  0  0  0  0
   -3.4493    0.4825   -1.0743 H   0  0  0  0  0  0  0  0  0  0  0  0
   -0.6641    0.4370    2.6096 H   0  0  0  0  0  0  0  0  0  0  0  0
    1.6115   -0.3304    2.0885 H   0  0  0  0  0  0  0  0  0  0  0  0
    3.3533   -0.4264    0.7401 H   0  0  0  0  0  0  0  0  0  0  0  0
    5.7398   -0.4716   -1.6315 H   0  0  0  0  0  0  0  0  0  0  0  0
    7.2096   -2.0733    1.2721 H   0  0  0  0  0  0  0  0  0  0  0  0
    8.1924   -3.1470   -0.7374 H   0  0  0  0  0  0  0  0  0  0  0  0
    7.0068   -2.3232   -1.8298 H   0  0  0  0  0  0  0  0  0  0  0  0
    9.0373   -0.9152    0.0603 H   0  0  0  0  0  0  0  0  0  0  0  0
    7.8617   -0.0669   -1.0233 H   0  0  0  0  0  0  0  0  0  0  0  0
    1.3559    1.6187   -1.7677 H   0  0  0  0  0  0  0  0  0  0  0  0
   -0.8869    2.3616   -1.2439 H   0  0  0  0  0  0  0  0  0  0  0  0
   -4.9344    1.5454    2.2696 H   0  0  0  0  0  0  0  0  0  0  0  0
   -5.0283   -0.2037    2.3013 H   0  0  0  0  0  0  0  0  0  0  0  0
   -5.6859    1.5798   -0.1102 H   0  0  0  0  0  0  0  0  0  0  0  0
   -6.8921    0.8784    0.9723 H   0  0  0  0  0  0  0  0  0  0  0  0
  1  2  1  0
  2  3  1  0
  3  4  1  0
  4  5  1  0
  5  6  1  0
  6  7  2  0
  6  8  2  0
  6  9  1  0
  9 10  2  0
 10 11  1  0
 11 12  2  0
 12 13  1  0
 13 14  1  0
 14 15  2  0
 14 16  1  0
 16 17  1  0
 17 18  2  0
 17 19  1  0
 19 20  1  0
 20 21  1  0
 12 22  1  0
 22 23  2  0
  5 24  1  0
 24 25  1  0
 25  2  1  0
 23  9  1  0
 21 19  1  0
  1 26  1  0
  1 27  1  0
  1 28  1  0
  3 29  1  0
  3 30  1  0
  4 31  1  0
  4 32  1  0
 10 33  1  0
 11 34  1  0
 13 35  1  0
 16 36  1  0
 19 37  1  0
 20 38  1  0
 20 39  1  0
 21 40  1  0
 21 41  1  0
 22 42  1  0
 23 43  1  0
 24 44  1  0
 24 45  1  0
 25 46  1  0
 25 47  1  0
M  END
$$$$
