
     RDKit          3D

 44 46  0  0  0  0  0  0  0  0999 V2000
    7.7183   -1.0228    0.2267 C   0  0  0  0  0  0  0  0  0  0  0  0
    7.0878   -0.4882   -1.0454 C   0  0  0  0  0  0  0  0  0  0  0  0
    5.6752   -0.3124   -0.8611 O   0  0  0  0  0  0  0  0  0  0  0  0
    5.2932    0.8784   -0.3361 C   0  0  0  0  0  0  0  0  0  0  0  0
    6.0354    1.7919   -0.0124 O   0  0  0  0  0  0  0  0  0  0  0  0
    3.8125    0.9372   -0.1963 C   0  0  0  0  0  0  0  0  0  0  0  0
    2.9772   -0.1256   -0.5580 C   0  0  0  0  0  0  0  0  0  0  0  0
    1.5884   -0.0174   -0.4058 C   0  0  0  0  0  0  0  0  0  0  0  0
    1.0075    1.1458    0.1110 C   0  0  0  0  0  0  0  0  0  0  0  0
   -0.3790    1.3206    0.2711 N   0  0  0  0  0  0  0  0  0  0  0  0
   -1.4644    0.5907   -0.2273 C   0  0  0  0  0  0  0  0  0  0  0  0
   -1.4815    0.0805   -1.5090 C   0  0  0  0  0  0  0  0  0  0  0  0
   -2.6155   -0.5998   -1.8991 C   0  0  0  0  0  0  0  0  0  0  0  0
   -2.7137   -1.1803   -3.2770 C   0  0  0  0  0  0  0  0  0  0  0  0
   -3.6708   -0.7620   -1.0811 N   0  0  0  0  0  0  0  0  0  0  0  0
   -3.5850   -0.2137    0.1460 C   0  0  0  0  0  0  0  0  0  0  0  0
   -4.7404   -0.3703    1.0547 C   0  0  0  0  0  0  0  0  0  0  0  0
   -4.7318    0.1656    2.3577 C   0  0  0  0  0  0  0  0  0  0  0  0
   -5.8246    0.0179    3.2188 C   0  0  0  0  0  0  0  0  0  0  0  0
   -6.9564   -0.6719    2.7959 C   0  0  0  0  0  0  0  0  0  0  0  0
   -6.9960   -1.2130    1.5148 C   0  0  0  0  0  0  0  0  0  0  0  0
   -5.9011   -1.0629    0.6571 C   0  0  0  0  0  0  0  0  0  0  0  0
   -2.5149    0.4681    0.5989 N   0  0  0  0  0  0  0  0  0  0  0  0
    1.8542    2.2031    0.4734 C   0  0  0  0  0  0  0  0  0  0  0  0
    3.2415    2.1038    0.3224 C   0  0  0  0  0  0  0  0  0  0  0  0
    7.2296   -1.9523    0.5367 H   0  0  0  0  0  0  0  0  0  0  0  0
    8.7845   -1.2166    0.0794 H   0  0  0  0  0  0  0  0  0  0  0  0
    7.6029   -0.3121    1.0512 H   0  0  0  0  0  0  0  0  0  0  0  0
    7.2165   -1.2155   -1.8537 H   0  0  0  0  0  0  0  0  0  0  0  0
    7.5668    0.4425   -1.3706 H   0  0  0  0  0  0  0  0  0  0  0  0
    3.3893   -1.0507   -0.9540 H   0  0  0  0  0  0  0  0  0  0  0  0
    0.9767   -0.8762   -0.6683 H   0  0  0  0  0  0  0  0  0  0  0  0
   -0.6222    1.6476    1.2026 H   0  0  0  0  0  0  0  0  0  0  0  0
   -0.6545    0.2299   -2.1903 H   0  0  0  0  0  0  0  0  0  0  0  0
   -2.6439   -0.3869   -4.0276 H   0  0  0  0  0  0  0  0  0  0  0  0
   -1.9086   -1.9033   -3.4416 H   0  0  0  0  0  0  0  0  0  0  0  0
   -3.6688   -1.6974   -3.4152 H   0  0  0  0  0  0  0  0  0  0  0  0
   -3.8595    0.7102    2.7155 H   0  0  0  0  0  0  0  0  0  0  0  0
   -5.7873    0.4430    4.2184 H   0  0  0  0  0  0  0  0  0  0  0  0
   -7.8061   -0.7875    3.4634 H   0  0  0  0  0  0  0  0  0  0  0  0
   -7.8771   -1.7529    1.1777 H   0  0  0  0  0  0  0  0  0  0  0  0
   -5.9594   -1.4965   -0.3404 H   0  0  0  0  0  0  0  0  0  0  0  0
    1.4336    3.1262    0.8672 H   0  0  0  0  0  0  0  0  0  0  0  0
    3.8713    2.9440    0.6094 H   0  0  0  0  0  0  0  0  0  0  0  0
  1  2  1  0
  2  3  1  0
  3  4  1  0
  4  5  2  0
  4  6  1  0
  6  7  2  0
  7  8  1  0
  8  9  2  0
  9 10  1  0
 10 11  1  0
 11 12  2  0
 12 13  1  0
 13 14  1  0
 13 15  2  0
 15 16  1  0
 16 17  1  0
 17 18  2  0
 18 19  1  0
 19 20  2  0
 20 21  1  0
 21 22  2  0
 16 23  2  0
  9 24  1  0
 24 25  2  0
 25  6  1  0
 23 11  1  0
 22 17  1  0
  1 26  1  0
  1 27  1  0
  1 28  1  0
  2 29  1  0
  2 30  1  0
  7 31  1  0
  8 32  1  0
 10 33  1  0
 12 34  1  0
 14 35  1  0
 14 36  1  0
 14 37  1  0
 18 38  1  0
 19 39  1  0
 20 40  1  0
 21 41  1  0
 22 42  1  0
 24 43  1  0
 25 44  1  0
M  END
$$$$
