
     RDKit          3D

 71 76  0  0  0  0  0  0  0  0999 V2000
   -4.5772   -3.8264    3.3446 C   0  0  0  0  0  0  0  0  0  0  0  0
   -3.5866   -2.9942    2.7558 O   0  0  0  0  0  0  0  0  0  0  0  0
   -3.4607   -3.0405    1.3939 C   0  0  0  0  0  0  0  0  0  0  0  0
   -4.2197   -3.8506    0.5270 C   0  0  0  0  0  0  0  0  0  0  0  0
   -4.0077   -3.8211   -0.8573 C   0  0  0  0  0  0  0  0  0  0  0  0
   -3.0351   -2.9706   -1.3352 C   0  0  0  0  0  0  0  0  0  0  0  0
   -2.2757   -2.1547   -0.4944 C   0  0  0  0  0  0  0  0  0  0  0  0
   -2.4776   -2.1874    0.8770 C   0  0  0  0  0  0  0  0  0  0  0  0
   -1.3231   -1.3567   -1.3309 C   0  0  1  0  0  0  0  0  0  0  0  0
   -1.6280   -1.8516   -2.7732 C   0  0  0  0  0  0  0  0  0  0  0  0
   -1.0904   -1.5327   -3.8231 O   0  0  0  0  0  0  0  0  0  0  0  0
   -2.6606   -2.7883   -2.6600 N   0  0  0  0  0  0  0  0  0  0  0  0
   -1.5947    0.0933   -1.1402 C   0  0  0  0  0  0  0  0  0  0  0  0
   -0.3746    0.8059   -1.1120 C   0  0  0  0  0  0  0  0  0  0  0  0
   -0.6481    2.1370   -0.9582 C   0  0  0  0  0  0  0  0  0  0  0  0
    0.1290    3.2118   -0.9212 O   0  0  0  0  0  0  0  0  0  0  0  0
   -2.0278    2.2380   -0.8374 N   0  0  0  0  0  0  0  0  0  0  0  0
   -2.7570    3.4851   -0.6424 C   0  0  0  0  0  0  0  0  0  0  0  0
   -2.9472    3.7987    0.8220 C   0  0  0  0  0  0  0  0  0  0  0  0
   -4.0686    3.3193    1.5147 C   0  0  0  0  0  0  0  0  0  0  0  0
   -4.2385    3.6004    2.8712 C   0  0  0  0  0  0  0  0  0  0  0  0
   -3.2875    4.3593    3.5507 C   0  0  0  0  0  0  0  0  0  0  0  0
   -2.1644    4.8344    2.8761 C   0  0  0  0  0  0  0  0  0  0  0  0
   -1.9932    4.5537    1.5196 C   0  0  0  0  0  0  0  0  0  0  0  0
   -2.6190    0.9895   -0.9768 C   0  0  0  0  0  0  0  0  0  0  0  0
   -3.9371    0.8395   -0.9234 O   0  0  0  0  0  0  0  0  0  0  0  0
    0.7522   -0.1280   -1.3173 C   0  0  1  0  0  0  0  0  0  0  0  0
    2.0196    0.0437   -0.4871 C   0  0  0  0  0  0  0  0  0  0  0  0
    2.9205   -1.1117   -0.6768 N   0  0  0  0  0  0  0  0  0  0  0  0
    4.2802   -1.0229   -0.4303 C   0  0  0  0  0  0  0  0  0  0  0  0
    5.0185   -1.9967   -0.3580 O   0  0  0  0  0  0  0  0  0  0  0  0
    4.6897    0.2637   -0.2856 O   0  0  0  0  0  0  0  0  0  0  0  0
    6.0815    0.5823   -0.0289 C   0  0  0  0  0  0  0  0  0  0  0  0
    6.5557   -0.0090    1.3033 C   0  0  0  0  0  0  0  0  0  0  0  0
    6.9755    0.1552   -1.1984 C   0  0  0  0  0  0  0  0  0  0  0  0
    6.1144    2.1152    0.0778 C   0  0  0  0  0  0  0  0  0  0  0  0
    2.3006   -2.4465   -0.6203 C   0  0  0  0  0  0  0  0  0  0  0  0
    0.9305   -2.5436   -1.3392 C   0  0  0  0  0  0  0  0  0  0  0  0
    0.1005   -1.4215   -0.9342 N   0  0  0  0  0  0  0  0  0  0  0  0
   -4.5489   -3.6665    4.4268 H   0  0  0  0  0  0  0  0  0  0  0  0
   -4.3646   -4.8844    3.1591 H   0  0  0  0  0  0  0  0  0  0  0  0
   -5.5788   -3.5563    2.9938 H   0  0  0  0  0  0  0  0  0  0  0  0
   -4.9845   -4.5209    0.9073 H   0  0  0  0  0  0  0  0  0  0  0  0
   -4.5916   -4.4509   -1.5192 H   0  0  0  0  0  0  0  0  0  0  0  0
   -1.8872   -1.5582    1.5385 H   0  0  0  0  0  0  0  0  0  0  0  0
   -3.0463   -3.2698   -3.4586 H   0  0  0  0  0  0  0  0  0  0  0  0
    1.0441    2.9210   -1.0733 H   0  0  0  0  0  0  0  0  0  0  0  0
   -3.7231    3.4043   -1.1543 H   0  0  0  0  0  0  0  0  0  0  0  0
   -2.2088    4.2884   -1.1484 H   0  0  0  0  0  0  0  0  0  0  0  0
   -4.8119    2.7146    0.9986 H   0  0  0  0  0  0  0  0  0  0  0  0
   -5.1099    3.2214    3.3982 H   0  0  0  0  0  0  0  0  0  0  0  0
   -3.4183    4.5742    4.6076 H   0  0  0  0  0  0  0  0  0  0  0  0
   -1.4173    5.4183    3.4070 H   0  0  0  0  0  0  0  0  0  0  0  0
   -1.1054    4.9193    1.0072 H   0  0  0  0  0  0  0  0  0  0  0  0
   -4.1219   -0.1166   -0.9076 H   0  0  0  0  0  0  0  0  0  0  0  0
    1.0076   -0.1369   -2.3869 H   0  0  0  0  0  0  0  0  0  0  0  0
    2.5257    0.9722   -0.7721 H   0  0  0  0  0  0  0  0  0  0  0  0
    1.7973    0.1118    0.5857 H   0  0  0  0  0  0  0  0  0  0  0  0
    5.8509    0.2311    2.1074 H   0  0  0  0  0  0  0  0  0  0  0  0
    7.5441    0.3738    1.5798 H   0  0  0  0  0  0  0  0  0  0  0  0
    6.6287   -1.0999    1.2650 H   0  0  0  0  0  0  0  0  0  0  0  0
    7.9954    0.5365   -1.0801 H   0  0  0  0  0  0  0  0  0  0  0  0
    6.5739    0.5240   -2.1490 H   0  0  0  0  0  0  0  0  0  0  0  0
    7.0415   -0.9332   -1.2880 H   0  0  0  0  0  0  0  0  0  0  0  0
    5.7417    2.5788   -0.8433 H   0  0  0  0  0  0  0  0  0  0  0  0
    5.4594    2.4635    0.8851 H   0  0  0  0  0  0  0  0  0  0  0  0
    7.1263    2.4888    0.2680 H   0  0  0  0  0  0  0  0  0  0  0  0
    2.9861   -3.1894   -1.0433 H   0  0  0  0  0  0  0  0  0  0  0  0
    2.1751   -2.6868    0.4435 H   0  0  0  0  0  0  0  0  0  0  0  0
    0.4609   -3.4958   -1.0684 H   0  0  0  0  0  0  0  0  0  0  0  0
    1.0915   -2.5478   -2.4239 H   0  0  0  0  0  0  0  0  0  0  0  0
  1  2  1  0
  2  3  1  0
  3  4  2  0
  4  5  1  0
  5  6  2  0
  6  7  1  0
  7  8  2  0
  7  9  1  0
  9 10  1  0
 10 11  2  0
 10 12  1  0
  9 13  1  0
 13 14  1  0
 14 15  2  0
 15 16  1  0
 15 17  1  0
 17 18  1  0
 18 19  1  0
 19 20  2  0
 20 21  1  0
 21 22  2  0
 22 23  1  0
 23 24  2  0
 17 25  1  0
 25 26  1  0
 14 27  1  0
 27 28  1  0
 28 29  1  0
 29 30  1  0
 30 31  2  0
 30 32  1  0
 32 33  1  0
 33 34  1  0
 33 35  1  0
 33 36  1  0
 29 37  1  0
 37 38  1  0
 38 39  1  0
  8  3  1  0
  9 39  1  1
 12  6  1  0
 25 13  2  0
 39 27  1  0
 24 19  1  0
  1 40  1  0
  1 41  1  0
  1 42  1  0
  4 43  1  0
  5 44  1  0
  8 45  1  0
 12 46  1  0
 16 47  1  0
 18 48  1  0
 18 49  1  0
 20 50  1  0
 21 51  1  0
 22 52  1  0
 23 53  1  0
 24 54  1  0
 26 55  1  0
 27 56  1  6
 28 57  1  0
 28 58  1  0
 34 59  1  0
 34 60  1  0
 34 61  1  0
 35 62  1  0
 35 63  1  0
 35 64  1  0
 36 65  1  0
 36 66  1  0
 36 67  1  0
 37 68  1  0
 37 69  1  0
 38 70  1  0
 38 71  1  0
M  END
$$$$
