
     RDKit          3D

 43 46  0  0  0  0  0  0  0  0999 V2000
    8.1037    1.0981    0.5203 C   0  0  0  0  0  0  0  0  0  0  0  0
    6.6212    0.9108    0.3822 C   0  0  0  0  0  0  0  0  0  0  0  0
    6.1100   -0.1377   -0.3918 C   0  0  0  0  0  0  0  0  0  0  0  0
    4.7307   -0.3299   -0.4988 C   0  0  0  0  0  0  0  0  0  0  0  0
    3.8459    0.5118    0.1849 C   0  0  0  0  0  0  0  0  0  0  0  0
    2.3813    0.2662    0.0443 C   0  0  0  0  0  0  0  0  0  0  0  0
    1.9705   -0.1945   -1.0136 O   0  0  0  0  0  0  0  0  0  0  0  0
    1.6403    0.5606    1.1605 N   0  0  0  0  0  0  0  0  0  0  0  0
    0.2664    0.4373    1.2845 C   0  0  0  0  0  0  0  0  0  0  0  0
   -0.2003    0.7455    2.5064 N   0  0  0  0  0  0  0  0  0  0  0  0
   -1.5366    0.6478    2.6870 C   0  0  0  0  0  0  0  0  0  0  0  0
   -2.4060    0.2610    1.6937 C   0  0  0  0  0  0  0  0  0  0  0  0
   -1.8400   -0.0278    0.4710 C   0  0  0  0  0  0  0  0  0  0  0  0
   -0.5080    0.0566    0.2607 N   0  0  0  0  0  0  0  0  0  0  0  0
   -2.6843   -0.4895   -0.6849 C   0  0  0  0  0  0  0  0  0  0  0  0
   -4.1043    0.0789   -0.5819 C   0  0  0  0  0  0  0  0  0  0  0  0
   -4.9559   -0.3972   -1.7100 C   0  0  0  0  0  0  0  0  0  0  0  0
   -5.5819    0.2455   -2.7574 C   0  0  0  0  0  0  0  0  0  0  0  0
   -6.2441   -0.7598   -3.5023 C   0  0  0  0  0  0  0  0  0  0  0  0
   -5.9800   -1.9480   -2.8633 C   0  0  0  0  0  0  0  0  0  0  0  0
   -5.1988   -1.7373   -1.7734 O   0  0  0  0  0  0  0  0  0  0  0  0
   -4.7262   -0.2829    0.7699 C   0  0  0  0  0  0  0  0  0  0  0  0
   -3.8560    0.1714    1.9193 C   0  0  0  0  0  0  0  0  0  0  0  0
   -4.3141    0.4227    3.0296 O   0  0  0  0  0  0  0  0  0  0  0  0
    4.3522    1.5642    0.9583 C   0  0  0  0  0  0  0  0  0  0  0  0
    5.7335    1.7542    1.0621 C   0  0  0  0  0  0  0  0  0  0  0  0
    8.3514    2.1535    0.6750 H   0  0  0  0  0  0  0  0  0  0  0  0
    8.6249    0.7722   -0.3860 H   0  0  0  0  0  0  0  0  0  0  0  0
    8.4760    0.5187    1.3707 H   0  0  0  0  0  0  0  0  0  0  0  0
    6.7816   -0.8095   -0.9224 H   0  0  0  0  0  0  0  0  0  0  0  0
    4.3464   -1.1415   -1.1142 H   0  0  0  0  0  0  0  0  0  0  0  0
    2.0832    0.8321    2.0226 H   0  0  0  0  0  0  0  0  0  0  0  0
   -1.8894    0.8983    3.6844 H   0  0  0  0  0  0  0  0  0  0  0  0
   -2.6971   -1.5870   -0.6841 H   0  0  0  0  0  0  0  0  0  0  0  0
   -2.2210   -0.1721   -1.6278 H   0  0  0  0  0  0  0  0  0  0  0  0
   -4.0400    1.1755   -0.6438 H   0  0  0  0  0  0  0  0  0  0  0  0
   -5.5617    1.3074   -2.9609 H   0  0  0  0  0  0  0  0  0  0  0  0
   -6.8392   -0.6358   -4.3961 H   0  0  0  0  0  0  0  0  0  0  0  0
   -6.2579   -2.9764   -3.0478 H   0  0  0  0  0  0  0  0  0  0  0  0
   -5.7029    0.2065    0.8677 H   0  0  0  0  0  0  0  0  0  0  0  0
   -4.8791   -1.3640    0.8725 H   0  0  0  0  0  0  0  0  0  0  0  0
    3.6911    2.2620    1.4641 H   0  0  0  0  0  0  0  0  0  0  0  0
    6.1143    2.5736    1.6688 H   0  0  0  0  0  0  0  0  0  0  0  0
  1  2  1  0
  2  3  2  0
  3  4  1  0
  4  5  2  0
  5  6  1  0
  6  7  2  0
  6  8  1  0
  8  9  1  0
  9 10  2  0
 10 11  1  0
 11 12  2  0
 12 13  1  0
 13 14  2  0
 13 15  1  0
 15 16  1  0
 16 17  1  0
 17 18  2  0
 18 19  1  0
 19 20  2  0
 20 21  1  0
 16 22  1  0
 22 23  1  0
 23 24  2  0
  5 25  1  0
 25 26  2  0
 26  2  1  0
 14  9  1  0
 21 17  1  0
 23 12  1  0
  1 27  1  0
  1 28  1  0
  1 29  1  0
  3 30  1  0
  4 31  1  0
  8 32  1  0
 11 33  1  0
 15 34  1  0
 15 35  1  0
 16 36  1  0
 18 37  1  0
 19 38  1  0
 20 39  1  0
 22 40  1  0
 22 41  1  0
 25 42  1  0
 26 43  1  0
M  END
$$$$
