
     RDKit          3D

 56 58  0  0  0  0  0  0  0  0999 V2000
   -6.4697    0.0999   -3.0323 C   0  0  0  0  0  0  0  0  0  0  0  0
   -6.3926    0.8144   -1.6975 C   0  0  0  0  0  0  0  0  0  0  0  0
   -5.0121    1.0329   -1.3906 O   0  0  0  0  0  0  0  0  0  0  0  0
   -4.7775    1.5972   -0.1789 C   0  0  0  0  0  0  0  0  0  0  0  0
   -5.6493    1.9027    0.6296 O   0  0  0  0  0  0  0  0  0  0  0  0
   -3.3084    1.7201    0.1294 C   0  0  0  0  0  0  0  0  0  0  0  0
   -2.4310    2.0815   -1.0434 C   0  0  0  0  0  0  0  0  0  0  0  0
   -2.8310    2.6957   -2.0306 O   0  0  0  0  0  0  0  0  0  0  0  0
   -0.9746    1.8144   -0.9400 C   0  0  0  0  0  0  0  0  0  0  0  0
   -0.4401    1.1720    0.1125 C   0  0  0  0  0  0  0  0  0  0  0  0
    1.0094    1.0038    0.1723 C   0  0  0  0  0  0  0  0  0  0  0  0
    1.7070    0.4611    1.1841 C   0  0  0  0  0  0  0  0  0  0  0  0
    3.1697    0.3222    1.1734 C   0  0  0  0  0  0  0  0  0  0  0  0
    4.0156    1.3427    0.7423 C   0  0  0  0  0  0  0  0  0  0  0  0
    5.4100    1.1801    0.7776 C   0  0  0  0  0  0  0  0  0  0  0  0
    6.0205    0.0010    1.2396 C   0  0  0  0  0  0  0  0  0  0  0  0
    7.4121   -0.1484    1.2855 N   0  0  0  0  0  0  0  0  0  0  0  0
    8.2457    0.7629    0.5027 C   0  0  0  0  0  0  0  0  0  0  0  0
    7.9754   -1.4780    1.5136 C   0  0  0  0  0  0  0  0  0  0  0  0
    5.1437   -0.9971    1.6985 C   0  0  0  0  0  0  0  0  0  0  0  0
    3.7481   -0.8448    1.6687 C   0  0  0  0  0  0  0  0  0  0  0  0
   -1.2980    0.6113    1.2278 C   0  0  0  0  0  0  0  0  0  0  0  0
   -2.8041    0.4903    0.9030 C   0  0  0  0  0  0  0  0  0  0  0  0
   -3.1766   -0.8542    0.2782 C   0  0  0  0  0  0  0  0  0  0  0  0
   -2.5075   -1.3991   -0.8264 C   0  0  0  0  0  0  0  0  0  0  0  0
   -2.9078   -2.6216   -1.3734 C   0  0  0  0  0  0  0  0  0  0  0  0
   -3.9824   -3.3177   -0.8277 C   0  0  0  0  0  0  0  0  0  0  0  0
   -4.6601   -2.7925    0.2674 C   0  0  0  0  0  0  0  0  0  0  0  0
   -4.2613   -1.5720    0.8154 C   0  0  0  0  0  0  0  0  0  0  0  0
   -5.9923    0.6960   -3.8170 H   0  0  0  0  0  0  0  0  0  0  0  0
   -7.5091   -0.0890   -3.3146 H   0  0  0  0  0  0  0  0  0  0  0  0
   -5.9355   -0.8551   -2.9888 H   0  0  0  0  0  0  0  0  0  0  0  0
   -6.9111    1.7775   -1.7590 H   0  0  0  0  0  0  0  0  0  0  0  0
   -6.8547    0.1945   -0.9209 H   0  0  0  0  0  0  0  0  0  0  0  0
   -3.2236    2.5965    0.7911 H   0  0  0  0  0  0  0  0  0  0  0  0
   -0.3807    2.2091   -1.7582 H   0  0  0  0  0  0  0  0  0  0  0  0
    1.5608    1.3581   -0.7000 H   0  0  0  0  0  0  0  0  0  0  0  0
    1.2202    0.0748    2.0747 H   0  0  0  0  0  0  0  0  0  0  0  0
    3.6110    2.2874    0.3879 H   0  0  0  0  0  0  0  0  0  0  0  0
    6.0062    2.0212    0.4373 H   0  0  0  0  0  0  0  0  0  0  0  0
    9.3091    0.5206    0.6099 H   0  0  0  0  0  0  0  0  0  0  0  0
    8.0001    0.7043   -0.5635 H   0  0  0  0  0  0  0  0  0  0  0  0
    8.1382    1.7960    0.8499 H   0  0  0  0  0  0  0  0  0  0  0  0
    7.6735   -2.1749    0.7238 H   0  0  0  0  0  0  0  0  0  0  0  0
    9.0708   -1.4481    1.5272 H   0  0  0  0  0  0  0  0  0  0  0  0
    7.6756   -1.8739    2.4899 H   0  0  0  0  0  0  0  0  0  0  0  0
    5.5219   -1.9320    2.1002 H   0  0  0  0  0  0  0  0  0  0  0  0
    3.1255   -1.6579    2.0349 H   0  0  0  0  0  0  0  0  0  0  0  0
   -0.9310   -0.3747    1.5400 H   0  0  0  0  0  0  0  0  0  0  0  0
   -1.1837    1.2798    2.0925 H   0  0  0  0  0  0  0  0  0  0  0  0
   -3.3062    0.5077    1.8828 H   0  0  0  0  0  0  0  0  0  0  0  0
   -1.6666   -0.8935   -1.2905 H   0  0  0  0  0  0  0  0  0  0  0  0
   -2.3787   -3.0285   -2.2317 H   0  0  0  0  0  0  0  0  0  0  0  0
   -4.2921   -4.2664   -1.2575 H   0  0  0  0  0  0  0  0  0  0  0  0
   -5.5027   -3.3299    0.6948 H   0  0  0  0  0  0  0  0  0  0  0  0
   -4.8177   -1.1802    1.6657 H   0  0  0  0  0  0  0  0  0  0  0  0
  1  2  1  0
  2  3  1  0
  3  4  1  0
  4  5  2  0
  4  6  1  0
  6  7  1  0
  7  8  2  0
  7  9  1  0
  9 10  2  0
 10 11  1  0
 11 12  2  3
 12 13  1  0
 13 14  2  0
 14 15  1  0
 15 16  2  0
 16 17  1  0
 17 18  1  0
 17 19  1  0
 16 20  1  0
 20 21  2  0
 10 22  1  0
 22 23  1  0
 23 24  1  0
 24 25  2  0
 25 26  1  0
 26 27  2  0
 27 28  1  0
 28 29  2  0
 23  6  1  0
 29 24  1  0
 21 13  1  0
  1 30  1  0
  1 31  1  0
  1 32  1  0
  2 33  1  0
  2 34  1  0
  6 35  1  0
  9 36  1  0
 11 37  1  0
 12 38  1  0
 14 39  1  0
 15 40  1  0
 18 41  1  0
 18 42  1  0
 18 43  1  0
 19 44  1  0
 19 45  1  0
 19 46  1  0
 20 47  1  0
 21 48  1  0
 22 49  1  0
 22 50  1  0
 23 51  1  0
 25 52  1  0
 26 53  1  0
 27 54  1  0
 28 55  1  0
 29 56  1  0
M  END
$$$$
