
     RDKit          3D

 57 61  0  0  0  0  0  0  0  0999 V2000
    4.6806    1.7663    1.5009 C   0  0  0  0  0  0  0  0  0  0  0  0
    4.9479    1.5354    0.0178 C   0  0  0  0  0  0  0  0  0  0  0  0
    5.7871    0.2936   -0.2602 C   0  0  0  0  0  0  0  0  0  0  0  0
    3.7102    1.6239   -0.8806 C   0  0  0  0  0  0  0  0  0  0  0  0
    3.7626    2.3728   -1.8645 O   0  0  0  0  0  0  0  0  0  0  0  0
    2.5715    0.8744   -0.6286 N   0  0  0  0  0  0  0  0  0  0  0  0
    2.3959   -0.1169    0.4291 C   0  0  0  0  0  0  0  0  0  0  0  0
    1.4338   -1.2208   -0.0011 C   0  0  0  0  0  0  0  0  0  0  0  0
    0.0101   -0.6884   -0.3500 C   0  0  0  0  0  0  0  0  0  0  0  0
    0.1055    0.8070   -0.7567 C   0  0  0  0  0  0  0  0  0  0  0  0
    1.4103    1.1081   -1.4882 C   0  0  0  0  0  0  0  0  0  0  0  0
   -0.4528   -1.3574   -1.5543 O   0  0  0  0  0  0  0  0  0  0  0  0
   -0.8481   -2.6562   -1.4098 C   0  0  0  0  0  0  0  0  0  0  0  0
   -0.9080   -3.4137   -2.5792 C   0  0  0  0  0  0  0  0  0  0  0  0
   -1.2870   -4.7570   -2.5235 C   0  0  0  0  0  0  0  0  0  0  0  0
   -1.6110   -5.3372   -1.2971 C   0  0  0  0  0  0  0  0  0  0  0  0
   -2.0757   -6.9914   -1.2336 Cl  0  0  0  0  0  0  0  0  0  0  0  0
   -1.5689   -4.5840   -0.1266 C   0  0  0  0  0  0  0  0  0  0  0  0
   -1.1949   -3.2377   -0.1926 C   0  0  0  0  0  0  0  0  0  0  0  0
   -1.1874   -2.4050    1.0238 C   0  0  0  0  0  0  0  0  0  0  0  0
   -1.3636   -2.9320    2.1176 O   0  0  0  0  0  0  0  0  0  0  0  0
   -1.0097   -0.9056    0.8035 C   0  0  0  0  0  0  0  0  0  0  0  0
   -2.3943   -0.3044    0.5936 C   0  0  0  0  0  0  0  0  0  0  0  0
   -2.3111    0.8392    1.5430 C   0  0  0  0  0  0  0  0  0  0  0  0
   -3.3477    1.8974    1.5911 C   0  0  0  0  0  0  0  0  0  0  0  0
   -3.1573    2.9945    2.4426 C   0  0  0  0  0  0  0  0  0  0  0  0
   -4.1145    4.0107    2.5095 C   0  0  0  0  0  0  0  0  0  0  0  0
   -5.2636    3.9301    1.7267 C   0  0  0  0  0  0  0  0  0  0  0  0
   -6.4437    5.1786    1.8066 Cl  0  0  0  0  0  0  0  0  0  0  0  0
   -5.4640    2.8415    0.8789 C   0  0  0  0  0  0  0  0  0  0  0  0
   -4.5074    1.8228    0.8102 C   0  0  0  0  0  0  0  0  0  0  0  0
   -1.2721    0.8342    2.3140 N   0  0  0  0  0  0  0  0  0  0  0  0
   -0.5168   -0.3205    2.0144 O   0  0  0  0  0  0  0  0  0  0  0  0
    3.9189    2.5387    1.6504 H   0  0  0  0  0  0  0  0  0  0  0  0
    5.5977    2.0977    2.0010 H   0  0  0  0  0  0  0  0  0  0  0  0
    4.3535    0.8605    2.0173 H   0  0  0  0  0  0  0  0  0  0  0  0
    5.5637    2.3925   -0.2958 H   0  0  0  0  0  0  0  0  0  0  0  0
    5.3279   -0.6248    0.1106 H   0  0  0  0  0  0  0  0  0  0  0  0
    6.7693    0.3832    0.2163 H   0  0  0  0  0  0  0  0  0  0  0  0
    5.9464    0.1670   -1.3366 H   0  0  0  0  0  0  0  0  0  0  0  0
    2.0220    0.4053    1.3163 H   0  0  0  0  0  0  0  0  0  0  0  0
    3.3490   -0.5721    0.6891 H   0  0  0  0  0  0  0  0  0  0  0  0
    1.8617   -1.7309   -0.8752 H   0  0  0  0  0  0  0  0  0  0  0  0
    1.3931   -1.9763    0.7917 H   0  0  0  0  0  0  0  0  0  0  0  0
    0.0617    1.4608    0.1207 H   0  0  0  0  0  0  0  0  0  0  0  0
   -0.7297    1.0802   -1.4127 H   0  0  0  0  0  0  0  0  0  0  0  0
    1.5212    0.4734   -2.3755 H   0  0  0  0  0  0  0  0  0  0  0  0
    1.3995    2.1496   -1.8289 H   0  0  0  0  0  0  0  0  0  0  0  0
   -0.6479   -2.9643   -3.5351 H   0  0  0  0  0  0  0  0  0  0  0  0
   -1.3239   -5.3451   -3.4376 H   0  0  0  0  0  0  0  0  0  0  0  0
   -1.8325   -5.0360    0.8274 H   0  0  0  0  0  0  0  0  0  0  0  0
   -2.5797    0.0199   -0.4327 H   0  0  0  0  0  0  0  0  0  0  0  0
   -3.2067   -0.9670    0.9119 H   0  0  0  0  0  0  0  0  0  0  0  0
   -2.2641    3.0663    3.0613 H   0  0  0  0  0  0  0  0  0  0  0  0
   -3.9563    4.8566    3.1738 H   0  0  0  0  0  0  0  0  0  0  0  0
   -6.3641    2.7789    0.2722 H   0  0  0  0  0  0  0  0  0  0  0  0
   -4.6963    0.9835    0.1477 H   0  0  0  0  0  0  0  0  0  0  0  0
  1  2  1  0
  2  3  1  0
  2  4  1  0
  4  5  2  0
  4  6  1  0
  6  7  1  0
  7  8  1  0
  8  9  1  0
  9 10  1  0
 10 11  1  0
  9 12  1  0
 12 13  1  0
 13 14  2  0
 14 15  1  0
 15 16  2  0
 16 17  1  0
 16 18  1  0
 18 19  2  0
 19 20  1  0
 20 21  2  0
 20 22  1  0
 22 23  1  0
 23 24  1  0
 24 25  1  0
 25 26  2  0
 26 27  1  0
 27 28  2  0
 28 29  1  0
 28 30  1  0
 30 31  2  0
 24 32  2  0
 32 33  1  0
 11  6  1  0
 19 13  1  0
 33 22  1  0
 22  9  1  0
 31 25  1  0
  1 34  1  0
  1 35  1  0
  1 36  1  0
  2 37  1  0
  3 38  1  0
  3 39  1  0
  3 40  1  0
  7 41  1  0
  7 42  1  0
  8 43  1  0
  8 44  1  0
 10 45  1  0
 10 46  1  0
 11 47  1  0
 11 48  1  0
 14 49  1  0
 15 50  1  0
 18 51  1  0
 23 52  1  0
 23 53  1  0
 26 54  1  0
 27 55  1  0
 30 56  1  0
 31 57  1  0
M  END
$$$$
