
     RDKit          3D

 45 48  0  0  0  0  0  0  0  0999 V2000
   -3.5049   -2.8115   -0.9051 C   0  0  0  0  0  0  0  0  0  0  0  0
   -3.2827   -1.4103   -0.4597 C   0  0  0  0  0  0  0  0  0  0  0  0
   -4.1969   -0.3639   -0.5077 C   0  0  0  0  0  0  0  0  0  0  0  0
   -5.4504   -0.2991   -0.9391 O   0  0  0  0  0  0  0  0  0  0  0  0
   -3.5853    0.7407    0.0056 N   0  0  0  0  0  0  0  0  0  0  0  0
   -2.3027    0.4445    0.3854 C   0  0  0  0  0  0  0  0  0  0  0  0
   -1.3927    1.3323    0.9624 C   0  0  0  0  0  0  0  0  0  0  0  0
   -0.1310    0.8147    1.2540 C   0  0  0  0  0  0  0  0  0  0  0  0
    0.1522   -0.5339    0.9892 C   0  0  0  0  0  0  0  0  0  0  0  0
    1.7740   -1.1472    1.3775 S   0  0  0  0  0  6  0  0  0  0  0  0
    2.0545   -0.7795    2.7492 O   0  0  0  0  0  0  0  0  0  0  0  0
    1.8729   -2.5224    0.9333 O   0  0  0  0  0  0  0  0  0  0  0  0
    2.7785   -0.2135    0.3560 N   0  0  0  0  0  0  0  0  0  0  0  0
    2.5780   -0.3988   -1.1100 C   0  0  0  0  0  0  0  0  0  0  0  0
    3.7718   -1.0839   -1.7612 C   0  0  0  0  0  0  0  0  0  0  0  0
    5.0563   -0.2800   -1.5718 C   0  0  0  0  0  0  0  0  0  0  0  0
    5.0677    0.4949   -0.2556 C   0  0  0  0  0  0  0  0  0  0  0  0
    4.2000   -0.1831    0.7969 C   0  0  0  0  0  0  0  0  0  0  0  0
   -0.8011   -1.4079    0.4309 C   0  0  0  0  0  0  0  0  0  0  0  0
   -2.0710   -0.8909    0.1131 C   0  0  0  0  0  0  0  0  0  0  0  0
   -1.8161    2.7573    1.1714 C   0  0  0  0  0  0  0  0  0  0  0  0
   -3.3557    2.8510    1.2862 C   0  0  0  0  0  0  0  0  0  0  0  0
   -4.1013    2.0904    0.1683 C   0  0  0  0  0  0  0  0  0  0  0  0
   -2.5619   -3.2967   -1.1774 H   0  0  0  0  0  0  0  0  0  0  0  0
   -3.9728   -3.3919   -0.1036 H   0  0  0  0  0  0  0  0  0  0  0  0
   -4.1577   -2.8453   -1.7833 H   0  0  0  0  0  0  0  0  0  0  0  0
   -5.6999   -1.1905   -1.2388 H   0  0  0  0  0  0  0  0  0  0  0  0
    0.6336    1.4541    1.6915 H   0  0  0  0  0  0  0  0  0  0  0  0
    1.6745   -0.9793   -1.3206 H   0  0  0  0  0  0  0  0  0  0  0  0
    2.4179    0.5917   -1.5530 H   0  0  0  0  0  0  0  0  0  0  0  0
    3.5873   -1.2347   -2.8310 H   0  0  0  0  0  0  0  0  0  0  0  0
    3.9021   -2.0813   -1.3220 H   0  0  0  0  0  0  0  0  0  0  0  0
    5.9128   -0.9633   -1.6141 H   0  0  0  0  0  0  0  0  0  0  0  0
    5.1855    0.4255   -2.4017 H   0  0  0  0  0  0  0  0  0  0  0  0
    4.6955    1.5123   -0.4337 H   0  0  0  0  0  0  0  0  0  0  0  0
    6.0976    0.5955    0.1046 H   0  0  0  0  0  0  0  0  0  0  0  0
    4.2668    0.3875    1.7297 H   0  0  0  0  0  0  0  0  0  0  0  0
    4.5638   -1.1999    0.9870 H   0  0  0  0  0  0  0  0  0  0  0  0
   -0.5647   -2.4510    0.2429 H   0  0  0  0  0  0  0  0  0  0  0  0
   -1.4689    3.3584    0.3231 H   0  0  0  0  0  0  0  0  0  0  0  0
   -1.3613    3.1593    2.0836 H   0  0  0  0  0  0  0  0  0  0  0  0
   -3.6642    3.9024    1.2892 H   0  0  0  0  0  0  0  0  0  0  0  0
   -3.6586    2.4278    2.2539 H   0  0  0  0  0  0  0  0  0  0  0  0
   -3.9727    2.5942   -0.7960 H   0  0  0  0  0  0  0  0  0  0  0  0
   -5.1690    2.0252    0.4008 H   0  0  0  0  0  0  0  0  0  0  0  0
  1  2  1  0
  2  3  2  0
  3  4  1  0
  3  5  1  0
  5  6  1  0
  6  7  2  0
  7  8  1  0
  8  9  2  0
  9 10  1  0
 10 11  2  0
 10 12  2  0
 10 13  1  0
 13 14  1  0
 14 15  1  0
 15 16  1  0
 16 17  1  0
 17 18  1  0
  9 19  1  0
 19 20  2  0
  7 21  1  0
 21 22  1  0
 22 23  1  0
 20  2  1  0
 23  5  1  0
 20  6  1  0
 18 13  1  0
  1 24  1  0
  1 25  1  0
  1 26  1  0
  4 27  1  0
  8 28  1  0
 14 29  1  0
 14 30  1  0
 15 31  1  0
 15 32  1  0
 16 33  1  0
 16 34  1  0
 17 35  1  0
 17 36  1  0
 18 37  1  0
 18 38  1  0
 19 39  1  0
 21 40  1  0
 21 41  1  0
 22 42  1  0
 22 43  1  0
 23 44  1  0
 23 45  1  0
M  END
$$$$
