
     RDKit          3D

 61 63  0  0  0  0  0  0  0  0999 V2000
   -2.3658    6.5740    3.9769 C   0  0  0  0  0  0  0  0  0  0  0  0
   -1.1818    5.6212    3.9240 C   0  0  0  0  0  0  0  0  0  0  0  0
   -1.3045    4.6408    2.7594 C   0  0  0  0  0  0  0  0  0  0  0  0
   -0.1084    3.6968    2.6981 C   0  0  0  0  0  0  0  0  0  0  0  0
   -0.2409    2.7581    1.6000 N   0  0  0  0  0  0  0  0  0  0  0  0
    0.8622    2.0396    1.1742 C   0  0  0  0  0  0  0  0  0  0  0  0
    2.0011    2.2420    1.5918 O   0  0  0  0  0  0  0  0  0  0  0  0
    0.5607    0.9864    0.0976 C   0  0  0  0  0  0  0  0  0  0  0  0
    0.4026    1.6282   -1.2909 C   0  0  0  0  0  0  0  0  0  0  0  0
    1.6615    2.2163   -1.8880 C   0  0  0  0  0  0  0  0  0  0  0  0
    2.4535    1.4550   -2.7597 C   0  0  0  0  0  0  0  0  0  0  0  0
    3.6235    1.9877   -3.3027 C   0  0  0  0  0  0  0  0  0  0  0  0
    4.0145    3.2849   -2.9798 C   0  0  0  0  0  0  0  0  0  0  0  0
    3.2356    4.0507   -2.1147 C   0  0  0  0  0  0  0  0  0  0  0  0
    2.0638    3.5210   -1.5719 C   0  0  0  0  0  0  0  0  0  0  0  0
    1.6344   -0.0422    0.0920 N   0  0  0  0  0  0  0  0  0  0  0  0
    1.5677   -1.1989    1.3125 S   0  0  0  0  0  6  0  0  0  0  0  0
    2.9304   -1.5501    1.6397 O   0  0  0  0  0  0  0  0  0  0  0  0
    0.6059   -0.7904    2.3112 O   0  0  0  0  0  0  0  0  0  0  0  0
    0.8726   -2.5700    0.4183 C   0  0  0  0  0  0  0  0  0  0  0  0
    1.7101   -3.5198   -0.1667 C   0  0  0  0  0  0  0  0  0  0  0  0
    1.1534   -4.6069   -0.8504 C   0  0  0  0  0  0  0  0  0  0  0  0
   -0.2400   -4.7601   -0.9537 C   0  0  0  0  0  0  0  0  0  0  0  0
   -1.0558   -3.7991   -0.3556 C   0  0  0  0  0  0  0  0  0  0  0  0
   -0.5115   -2.7089    0.3390 C   0  0  0  0  0  0  0  0  0  0  0  0
   -2.5163   -3.9264   -0.4626 C   0  0  0  0  0  0  0  0  0  0  0  0
   -3.2254   -3.0167   -0.0371 O   0  0  0  0  0  0  0  0  0  0  0  0
   -2.9985   -5.0757   -1.0670 N   0  0  0  0  0  0  0  0  0  0  0  0
   -4.4389   -5.2320   -1.1555 C   0  0  0  0  0  0  0  0  0  0  0  0
   -2.2146   -6.0150   -1.7273 C   0  0  0  0  0  0  0  0  0  0  0  0
   -2.7221   -6.9439   -2.3600 O   0  0  0  0  0  0  0  0  0  0  0  0
   -0.8339   -5.8477   -1.6470 N   0  0  0  0  0  0  0  0  0  0  0  0
    0.0164   -6.8329   -2.3047 C   0  0  0  0  0  0  0  0  0  0  0  0
   -2.2605    7.2640    4.8202 H   0  0  0  0  0  0  0  0  0  0  0  0
   -2.4327    7.1677    3.0591 H   0  0  0  0  0  0  0  0  0  0  0  0
   -3.3052    6.0263    4.1009 H   0  0  0  0  0  0  0  0  0  0  0  0
   -1.1210    5.0691    4.8691 H   0  0  0  0  0  0  0  0  0  0  0  0
   -0.2571    6.2015    3.8276 H   0  0  0  0  0  0  0  0  0  0  0  0
   -1.3832    5.1928    1.8147 H   0  0  0  0  0  0  0  0  0  0  0  0
   -2.2291    4.0591    2.8607 H   0  0  0  0  0  0  0  0  0  0  0  0
    0.8213    4.2630    2.5728 H   0  0  0  0  0  0  0  0  0  0  0  0
   -0.0243    3.1122    3.6213 H   0  0  0  0  0  0  0  0  0  0  0  0
   -1.1404    2.3021    1.5061 H   0  0  0  0  0  0  0  0  0  0  0  0
   -0.3963    0.5059    0.3361 H   0  0  0  0  0  0  0  0  0  0  0  0
    0.0133    0.8713   -1.9856 H   0  0  0  0  0  0  0  0  0  0  0  0
   -0.3656    2.4121   -1.2565 H   0  0  0  0  0  0  0  0  0  0  0  0
    2.1665    0.4379   -3.0182 H   0  0  0  0  0  0  0  0  0  0  0  0
    4.2320    1.3888   -3.9749 H   0  0  0  0  0  0  0  0  0  0  0  0
    4.9278    3.6990   -3.3985 H   0  0  0  0  0  0  0  0  0  0  0  0
    3.5444    5.0601   -1.8564 H   0  0  0  0  0  0  0  0  0  0  0  0
    1.4758    4.1346   -0.8925 H   0  0  0  0  0  0  0  0  0  0  0  0
    2.5730    0.3769    0.0683 H   0  0  0  0  0  0  0  0  0  0  0  0
    2.7929   -3.4246   -0.0956 H   0  0  0  0  0  0  0  0  0  0  0  0
    1.8415   -5.3232   -1.2920 H   0  0  0  0  0  0  0  0  0  0  0  0
   -1.1675   -1.9805    0.8130 H   0  0  0  0  0  0  0  0  0  0  0  0
   -4.9492   -4.6940   -0.3505 H   0  0  0  0  0  0  0  0  0  0  0  0
   -4.7706   -4.8303   -2.1188 H   0  0  0  0  0  0  0  0  0  0  0  0
   -4.7162   -6.2896   -1.0993 H   0  0  0  0  0  0  0  0  0  0  0  0
    0.6484   -7.3232   -1.5570 H   0  0  0  0  0  0  0  0  0  0  0  0
   -0.5630   -7.6108   -2.8102 H   0  0  0  0  0  0  0  0  0  0  0  0
    0.6332   -6.3340   -3.0590 H   0  0  0  0  0  0  0  0  0  0  0  0
  1  2  1  0
  2  3  1  0
  3  4  1  0
  4  5  1  0
  5  6  1  0
  6  7  2  0
  6  8  1  0
  8  9  1  0
  9 10  1  0
 10 11  2  0
 11 12  1  0
 12 13  2  0
 13 14  1  0
 14 15  2  0
  8 16  1  0
 16 17  1  0
 17 18  2  0
 17 19  2  0
 17 20  1  0
 20 21  2  0
 21 22  1  0
 22 23  2  0
 23 24  1  0
 24 25  2  0
 24 26  1  0
 26 27  2  0
 26 28  1  0
 28 29  1  0
 28 30  1  0
 30 31  2  0
 30 32  1  0
 32 33  1  0
 15 10  1  0
 25 20  1  0
 32 23  1  0
  1 34  1  0
  1 35  1  0
  1 36  1  0
  2 37  1  0
  2 38  1  0
  3 39  1  0
  3 40  1  0
  4 41  1  0
  4 42  1  0
  5 43  1  0
  8 44  1  0
  9 45  1  0
  9 46  1  0
 11 47  1  0
 12 48  1  0
 13 49  1  0
 14 50  1  0
 15 51  1  0
 16 52  1  0
 21 53  1  0
 22 54  1  0
 25 55  1  0
 29 56  1  0
 29 57  1  0
 29 58  1  0
 33 59  1  0
 33 60  1  0
 33 61  1  0
M  END
$$$$
