
     RDKit          3D

 42 44  0  0  0  0  0  0  0  0999 V2000
    1.8688    2.3158    1.8253 C   0  0  0  0  0  0  0  0  0  0  0  0
    2.1139    1.6599    0.5849 O   0  0  0  0  0  0  0  0  0  0  0  0
    1.0760    0.9675    0.0154 C   0  0  0  0  0  0  0  0  0  0  0  0
   -0.2247    0.8932    0.5413 C   0  0  0  0  0  0  0  0  0  0  0  0
   -1.2588    0.1600   -0.0783 C   0  0  0  0  0  0  0  0  0  0  0  0
   -2.5324    0.1274    0.4707 N   0  0  0  0  0  0  0  0  0  0  0  0
   -2.9008    0.7896    1.7196 C   0  0  0  0  0  0  0  0  0  0  0  0
   -4.3912    0.4999    1.8527 C   0  0  0  0  0  0  0  0  0  0  0  0
   -4.8620    0.5506    0.4099 C   0  0  0  0  0  0  0  0  0  0  0  0
   -3.7224   -0.1235   -0.3546 C   0  0  0  0  0  0  0  0  0  0  0  0
   -0.8916   -0.5533   -1.2417 C   0  0  0  0  0  0  0  0  0  0  0  0
   -1.8026   -1.3696   -1.8765 O   0  0  0  0  0  0  0  0  0  0  0  0
   -1.4310   -2.7446   -1.7178 C   0  0  0  0  0  0  0  0  0  0  0  0
    0.3915   -0.4593   -1.8012 C   0  0  0  0  0  0  0  0  0  0  0  0
    1.3849    0.3013   -1.1793 C   0  0  0  0  0  0  0  0  0  0  0  0
    2.7704    0.3618   -1.7776 C   0  0  0  0  0  0  0  0  0  0  0  0
    3.7591   -0.4024   -0.9684 C   0  0  0  0  0  0  0  0  0  0  0  0
    3.7740   -1.6789   -0.7285 N   0  0  0  0  0  0  0  0  0  0  0  0
    4.8637   -1.8970    0.0886 C   0  0  0  0  0  0  0  0  0  0  0  0
    5.3817   -3.3498    0.7060 S   0  0  0  0  0  0  0  0  0  0  0  0
    5.5187   -0.7408    0.3541 N   0  0  0  0  0  0  0  0  0  0  0  0
    4.9315    0.2721   -0.3074 C   0  0  0  0  0  0  0  0  0  0  0  0
    5.2584    1.4275   -0.4222 O   0  0  0  0  0  0  0  0  0  0  0  0
    2.8033    2.7903    2.1428 H   0  0  0  0  0  0  0  0  0  0  0  0
    1.1181    3.1051    1.7129 H   0  0  0  0  0  0  0  0  0  0  0  0
    1.5808    1.5968    2.6013 H   0  0  0  0  0  0  0  0  0  0  0  0
   -0.4534    1.4297    1.4549 H   0  0  0  0  0  0  0  0  0  0  0  0
   -2.3478    0.3930    2.5778 H   0  0  0  0  0  0  0  0  0  0  0  0
   -2.7379    1.8716    1.6478 H   0  0  0  0  0  0  0  0  0  0  0  0
   -4.9038    1.2218    2.4944 H   0  0  0  0  0  0  0  0  0  0  0  0
   -4.5483   -0.5044    2.2648 H   0  0  0  0  0  0  0  0  0  0  0  0
   -4.9635    1.5938    0.0858 H   0  0  0  0  0  0  0  0  0  0  0  0
   -5.8219    0.0507    0.2547 H   0  0  0  0  0  0  0  0  0  0  0  0
   -3.6509    0.3109   -1.3600 H   0  0  0  0  0  0  0  0  0  0  0  0
   -3.9104   -1.2027   -0.4270 H   0  0  0  0  0  0  0  0  0  0  0  0
   -0.9827   -2.9580   -0.7359 H   0  0  0  0  0  0  0  0  0  0  0  0
   -0.7438   -3.0418   -2.5199 H   0  0  0  0  0  0  0  0  0  0  0  0
   -2.3424   -3.3396   -1.8060 H   0  0  0  0  0  0  0  0  0  0  0  0
    0.6105   -0.9999   -2.7195 H   0  0  0  0  0  0  0  0  0  0  0  0
    2.7713   -0.0633   -2.7886 H   0  0  0  0  0  0  0  0  0  0  0  0
    3.0814    1.4069   -1.8843 H   0  0  0  0  0  0  0  0  0  0  0  0
    6.3661   -0.6683    0.8891 H   0  0  0  0  0  0  0  0  0  0  0  0
  1  2  1  0
  2  3  1  0
  3  4  2  0
  4  5  1  0
  5  6  1  0
  6  7  1  0
  7  8  1  0
  8  9  1  0
  9 10  1  0
  5 11  2  0
 11 12  1  0
 12 13  1  0
 11 14  1  0
 14 15  2  0
 15 16  1  0
 16 17  1  0
 17 18  2  0
 18 19  1  0
 19 20  2  0
 19 21  1  0
 21 22  1  0
 22 23  2  0
 15  3  1  0
 22 17  1  0
 10  6  1  0
  1 24  1  0
  1 25  1  0
  1 26  1  0
  4 27  1  0
  7 28  1  0
  7 29  1  0
  8 30  1  0
  8 31  1  0
  9 32  1  0
  9 33  1  0
 10 34  1  0
 10 35  1  0
 13 36  1  0
 13 37  1  0
 13 38  1  0
 14 39  1  0
 16 40  1  0
 16 41  1  0
 21 42  1  0
M  END
$$$$
