
     RDKit          3D

 74 78  0  0  0  0  0  0  0  0999 V2000
    0.0466    6.3033   -0.7156 C   0  0  0  0  0  0  0  0  0  0  0  0
    0.1007    4.8297   -0.4431 C   0  0  0  0  0  0  0  0  0  0  0  0
   -1.0455    4.0421   -0.5704 C   0  0  0  0  0  0  0  0  0  0  0  0
   -1.0167    2.6624   -0.3038 C   0  0  0  0  0  0  0  0  0  0  0  0
   -2.3088    1.9038   -0.4644 C   0  0  0  0  0  0  0  0  0  0  0  0
    0.2047    2.0591    0.0756 C   0  0  0  0  0  0  0  0  0  0  0  0
    0.2459    0.6668    0.3516 N   0  0  0  0  0  0  0  0  0  0  0  0
   -0.0172    0.1664    1.6297 C   0  0  0  0  0  0  0  0  0  0  0  0
   -0.0246   -1.0497    1.8631 O   0  0  0  0  0  0  0  0  0  0  0  0
   -0.2844    1.1810    2.7529 C   0  0  0  0  0  0  0  0  0  0  0  0
   -0.8756    0.4991    3.9130 N   0  0  0  0  0  0  0  0  0  0  0  0
   -0.1629   -0.3997    4.7419 C   0  0  0  0  0  0  0  0  0  0  0  0
    1.0448   -0.4174    4.8887 O   0  0  0  0  0  0  0  0  0  0  0  0
   -1.1146   -1.3168    5.3963 C   0  0  0  0  0  0  0  0  0  0  0  0
   -0.8006   -2.3194    6.3008 C   0  0  0  0  0  0  0  0  0  0  0  0
   -1.8465   -3.1003    6.8057 C   0  0  0  0  0  0  0  0  0  0  0  0
   -3.1758   -2.8761    6.3995 C   0  0  0  0  0  0  0  0  0  0  0  0
   -3.4830   -1.8654    5.4861 C   0  0  0  0  0  0  0  0  0  0  0  0
   -2.4307   -1.1068    5.0068 C   0  0  0  0  0  0  0  0  0  0  0  0
   -2.5318    0.2004    3.8661 S   0  0  0  0  0  6  0  0  0  0  0  0
   -3.2195    1.3044    4.4938 O   0  0  0  0  0  0  0  0  0  0  0  0
   -2.9078   -0.3276    2.5761 O   0  0  0  0  0  0  0  0  0  0  0  0
    0.4717   -0.2933   -0.7537 C   0  0  0  0  0  0  0  0  0  0  0  0
   -0.2263    0.0027   -2.1207 C   0  0  0  0  0  0  0  0  0  0  0  0
   -0.0420    1.0210   -2.7882 O   0  0  0  0  0  0  0  0  0  0  0  0
   -1.0854   -0.9948   -2.5490 N   0  0  0  0  0  0  0  0  0  0  0  0
   -1.7693   -0.9591   -3.8318 C   0  0  0  0  0  0  0  0  0  0  0  0
   -1.3020   -2.0880   -4.7523 C   0  0  0  0  0  0  0  0  0  0  0  0
    0.1376   -1.9749   -5.2344 C   0  0  0  0  0  0  0  0  0  0  0  0
    0.4620   -3.4191   -5.5336 C   0  0  0  0  0  0  0  0  0  0  0  0
   -0.2309   -4.1319   -4.3912 C   0  0  0  0  0  0  0  0  0  0  0  0
   -1.4019   -3.3607   -4.0727 O   0  0  0  0  0  0  0  0  0  0  0  0
    1.9554   -0.6412   -0.9337 C   0  0  0  0  0  0  0  0  0  0  0  0
    2.5251   -1.6652   -0.1513 C   0  0  0  0  0  0  0  0  0  0  0  0
    3.8698   -2.0117   -0.2917 C   0  0  0  0  0  0  0  0  0  0  0  0
    4.6567   -1.3368   -1.2145 C   0  0  0  0  0  0  0  0  0  0  0  0
    5.9452   -1.6726   -1.3549 F   0  0  0  0  0  0  0  0  0  0  0  0
    4.1258   -0.3146   -1.9895 C   0  0  0  0  0  0  0  0  0  0  0  0
    2.7814    0.0374   -1.8472 C   0  0  0  0  0  0  0  0  0  0  0  0
    1.3517    2.8561    0.2771 C   0  0  0  0  0  0  0  0  0  0  0  0
    2.6728    2.3227    0.7636 C   0  0  0  0  0  0  0  0  0  0  0  0
    1.2843    4.2328   -0.0019 C   0  0  0  0  0  0  0  0  0  0  0  0
   -0.7342    6.5394   -1.4462 H   0  0  0  0  0  0  0  0  0  0  0  0
   -0.1611    6.8473    0.2107 H   0  0  0  0  0  0  0  0  0  0  0  0
    0.9954    6.6583   -1.1339 H   0  0  0  0  0  0  0  0  0  0  0  0
   -1.9795    4.5057   -0.8856 H   0  0  0  0  0  0  0  0  0  0  0  0
   -2.5486    1.7913   -1.5262 H   0  0  0  0  0  0  0  0  0  0  0  0
   -2.2759    0.9106   -0.0105 H   0  0  0  0  0  0  0  0  0  0  0  0
   -3.1257    2.4449    0.0261 H   0  0  0  0  0  0  0  0  0  0  0  0
   -0.9625    1.9749    2.4287 H   0  0  0  0  0  0  0  0  0  0  0  0
    0.6636    1.6403    3.0501 H   0  0  0  0  0  0  0  0  0  0  0  0
    0.2281   -2.4974    6.6028 H   0  0  0  0  0  0  0  0  0  0  0  0
   -1.6312   -3.8938    7.5201 H   0  0  0  0  0  0  0  0  0  0  0  0
   -3.9711   -3.5003    6.8026 H   0  0  0  0  0  0  0  0  0  0  0  0
   -4.5039   -1.6862    5.1634 H   0  0  0  0  0  0  0  0  0  0  0  0
    0.0037   -1.2320   -0.4273 H   0  0  0  0  0  0  0  0  0  0  0  0
   -1.1955   -1.8474   -2.0122 H   0  0  0  0  0  0  0  0  0  0  0  0
   -2.8329   -1.0934   -3.5998 H   0  0  0  0  0  0  0  0  0  0  0  0
   -1.6440    0.0148   -4.3178 H   0  0  0  0  0  0  0  0  0  0  0  0
   -1.9731   -2.1377   -5.6192 H   0  0  0  0  0  0  0  0  0  0  0  0
    0.8032   -1.6091   -4.4421 H   0  0  0  0  0  0  0  0  0  0  0  0
    0.2411   -1.3176   -6.1025 H   0  0  0  0  0  0  0  0  0  0  0  0
    0.0044   -3.7100   -6.4869 H   0  0  0  0  0  0  0  0  0  0  0  0
    1.5324   -3.6311   -5.5840 H   0  0  0  0  0  0  0  0  0  0  0  0
    0.4035   -4.1546   -3.4989 H   0  0  0  0  0  0  0  0  0  0  0  0
   -0.5194   -5.1560   -4.6443 H   0  0  0  0  0  0  0  0  0  0  0  0
    1.9199   -2.2013    0.5785 H   0  0  0  0  0  0  0  0  0  0  0  0
    4.3026   -2.8037    0.3093 H   0  0  0  0  0  0  0  0  0  0  0  0
    4.7592    0.2045   -2.7033 H   0  0  0  0  0  0  0  0  0  0  0  0
    2.3928    0.8540   -2.4552 H   0  0  0  0  0  0  0  0  0  0  0  0
    3.3960    2.3089   -0.0566 H   0  0  0  0  0  0  0  0  0  0  0  0
    3.0620    2.9633    1.5630 H   0  0  0  0  0  0  0  0  0  0  0  0
    2.5975    1.3179    1.1839 H   0  0  0  0  0  0  0  0  0  0  0  0
    2.1743    4.8475    0.1269 H   0  0  0  0  0  0  0  0  0  0  0  0
  1  2  1  0
  2  3  2  0
  3  4  1  0
  4  5  1  0
  4  6  2  0
  6  7  1  0
  7  8  1  0
  8  9  2  0
  8 10  1  0
 10 11  1  0
 11 12  1  0
 12 13  2  0
 12 14  1  0
 14 15  2  0
 15 16  1  0
 16 17  2  0
 17 18  1  0
 18 19  2  0
 19 20  1  0
 20 21  2  0
 20 22  2  0
  7 23  1  0
 23 24  1  0
 24 25  2  0
 24 26  1  0
 26 27  1  0
 27 28  1  0
 28 29  1  0
 29 30  1  0
 30 31  1  0
 31 32  1  0
 23 33  1  0
 33 34  2  0
 34 35  1  0
 35 36  2  0
 36 37  1  0
 36 38  1  0
 38 39  2  0
  6 40  1  0
 40 41  1  0
 40 42  2  0
 42  2  1  0
 20 11  1  0
 32 28  1  0
 39 33  1  0
 19 14  1  0
  1 43  1  0
  1 44  1  0
  1 45  1  0
  3 46  1  0
  5 47  1  0
  5 48  1  0
  5 49  1  0
 10 50  1  0
 10 51  1  0
 15 52  1  0
 16 53  1  0
 17 54  1  0
 18 55  1  0
 23 56  1  0
 26 57  1  0
 27 58  1  0
 27 59  1  0
 28 60  1  0
 29 61  1  0
 29 62  1  0
 30 63  1  0
 30 64  1  0
 31 65  1  0
 31 66  1  0
 34 67  1  0
 35 68  1  0
 38 69  1  0
 39 70  1  0
 41 71  1  0
 41 72  1  0
 41 73  1  0
 42 74  1  0
M  END
$$$$
