
     RDKit          3D

 45 47  0  0  0  0  0  0  0  0999 V2000
    3.1194   -0.7521    4.6710 N   0  0  0  0  0  0  0  0  0  0  0  0
    3.6374   -0.5868    3.6455 C   0  0  0  0  0  0  0  0  0  0  0  0
    4.2615   -0.3799    2.3798 C   0  0  0  0  0  0  0  0  0  0  0  0
    5.6651   -0.6281    2.3196 C   0  0  0  0  0  0  0  0  0  0  0  0
    6.8074   -0.8235    2.2539 N   0  0  0  0  0  0  0  0  0  0  0  0
    3.5744    0.0506    1.2901 C   0  0  0  0  0  0  0  0  0  0  0  0
    2.1344    0.3323    1.3165 C   0  0  0  0  0  0  0  0  0  0  0  0
    1.4412    0.7834    0.2537 C   0  0  0  0  0  0  0  0  0  0  0  0
   -0.0024    0.9141    0.3182 C   0  0  0  0  0  0  0  0  0  0  0  0
   -0.8108    0.7026   -0.7424 C   0  0  0  0  0  0  0  0  0  0  0  0
   -2.2196    0.7578   -0.6918 N   0  0  0  0  0  0  0  0  0  0  0  0
   -3.0948    0.1588   -1.7132 C   0  0  0  0  0  0  0  0  0  0  0  0
   -3.1323   -1.3636   -1.6121 C   0  0  0  0  0  0  0  0  0  0  0  0
   -3.2088   -1.9505   -0.1993 C   0  0  0  0  0  0  0  0  0  0  0  0
   -4.0325   -1.1482    0.8093 C   0  0  0  0  0  0  0  0  0  0  0  0
   -3.2525    0.0083    1.4455 C   0  0  0  0  0  0  0  0  0  0  0  0
   -2.9684    1.1801    0.5069 C   0  0  0  0  0  0  0  0  0  0  0  0
   -0.1321    0.3400   -2.0577 C   0  0  0  0  0  0  0  0  0  0  0  0
    1.1728    1.1045   -2.2731 C   0  0  0  0  0  0  0  0  0  0  0  0
    2.1147    1.0945   -1.0619 C   0  0  0  0  0  0  0  0  0  0  0  0
    3.3030    0.1481   -1.2575 C   0  0  0  0  0  0  0  0  0  0  0  0
    4.2553    0.2553   -0.0607 C   0  0  0  0  0  0  0  0  0  0  0  0
    1.5849    0.1170    2.2327 H   0  0  0  0  0  0  0  0  0  0  0  0
   -0.4201    1.1040    1.3011 H   0  0  0  0  0  0  0  0  0  0  0  0
   -2.8036    0.4659   -2.7227 H   0  0  0  0  0  0  0  0  0  0  0  0
   -4.1186    0.5408   -1.6072 H   0  0  0  0  0  0  0  0  0  0  0  0
   -2.2525   -1.7889   -2.1102 H   0  0  0  0  0  0  0  0  0  0  0  0
   -3.9963   -1.7171   -2.1894 H   0  0  0  0  0  0  0  0  0  0  0  0
   -2.1925   -2.0926    0.1899 H   0  0  0  0  0  0  0  0  0  0  0  0
   -3.6367   -2.9577   -0.2816 H   0  0  0  0  0  0  0  0  0  0  0  0
   -4.9641   -0.7891    0.3573 H   0  0  0  0  0  0  0  0  0  0  0  0
   -4.3224   -1.8291    1.6197 H   0  0  0  0  0  0  0  0  0  0  0  0
   -2.3148   -0.3760    1.8645 H   0  0  0  0  0  0  0  0  0  0  0  0
   -3.8340    0.3892    2.2944 H   0  0  0  0  0  0  0  0  0  0  0  0
   -3.9167    1.6479    0.2122 H   0  0  0  0  0  0  0  0  0  0  0  0
   -2.4294    1.9689    1.0447 H   0  0  0  0  0  0  0  0  0  0  0  0
    0.0551   -0.7408   -2.0763 H   0  0  0  0  0  0  0  0  0  0  0  0
   -0.7664    0.5701   -2.9177 H   0  0  0  0  0  0  0  0  0  0  0  0
    1.6772    0.7315   -3.1726 H   0  0  0  0  0  0  0  0  0  0  0  0
    0.9147    2.1506   -2.4927 H   0  0  0  0  0  0  0  0  0  0  0  0
    2.5223    2.1140   -0.9832 H   0  0  0  0  0  0  0  0  0  0  0  0
    2.9564   -0.8878   -1.3706 H   0  0  0  0  0  0  0  0  0  0  0  0
    3.8486    0.4063   -2.1731 H   0  0  0  0  0  0  0  0  0  0  0  0
    5.0576   -0.4756   -0.2152 H   0  0  0  0  0  0  0  0  0  0  0  0
    4.7186    1.2508   -0.0646 H   0  0  0  0  0  0  0  0  0  0  0  0
  1  2  3  0
  2  3  1  0
  3  4  1  0
  4  5  3  0
  3  6  2  3
  6  7  1  0
  7  8  2  0
  8  9  1  0
  9 10  2  0
 10 11  1  0
 11 12  1  0
 12 13  1  0
 13 14  1  0
 14 15  1  0
 15 16  1  0
 16 17  1  0
 10 18  1  0
 18 19  1  0
 19 20  1  0
 20 21  1  0
 21 22  1  0
 22  6  1  0
 20  8  1  0
 17 11  1  0
  7 23  1  0
  9 24  1  0
 12 25  1  0
 12 26  1  0
 13 27  1  0
 13 28  1  0
 14 29  1  0
 14 30  1  0
 15 31  1  0
 15 32  1  0
 16 33  1  0
 16 34  1  0
 17 35  1  0
 17 36  1  0
 18 37  1  0
 18 38  1  0
 19 39  1  0
 19 40  1  0
 20 41  1  0
 21 42  1  0
 21 43  1  0
 22 44  1  0
 22 45  1  0
M  END
$$$$
