
     RDKit          3D

 46 49  0  0  0  0  0  0  0  0999 V2000
    5.7662    0.0901    1.1155 C   0  0  0  0  0  0  0  0  0  0  0  0
    5.4001    0.4815   -0.2468 N   0  0  0  0  0  0  0  0  0  0  0  0
    5.7328   -0.5873   -1.2031 C   0  0  0  0  0  0  0  0  0  0  0  0
    4.5360   -1.5269   -1.2193 C   0  0  0  0  0  0  0  0  0  0  0  0
    3.3779   -0.7122   -0.6556 C   0  0  0  0  0  0  0  0  0  0  0  0
    3.9454    0.6935   -0.4493 C   0  0  0  0  0  0  0  0  0  0  0  0
    3.2369    1.5270    0.6311 C   0  0  0  0  0  0  0  0  0  0  0  0
    1.8130    1.9411    0.2434 C   0  0  0  0  0  0  0  0  0  0  0  0
    0.8907    0.8184    0.3773 N   0  0  0  0  0  0  0  0  0  0  0  0
   -0.4680    0.9874    0.1007 C   0  0  0  0  0  0  0  0  0  0  0  0
   -0.9791    2.0092   -0.6979 C   0  0  0  0  0  0  0  0  0  0  0  0
   -2.3454    2.0757   -0.9984 C   0  0  0  0  0  0  0  0  0  0  0  0
   -3.2406    1.1040   -0.5317 C   0  0  0  0  0  0  0  0  0  0  0  0
   -4.9430    1.3040   -0.9731 S   0  0  0  0  0  0  0  0  0  0  0  0
   -5.7136   -0.1432   -0.3023 C   0  0  0  0  0  0  0  0  0  0  0  0
   -7.0882   -0.3007   -0.5507 C   0  0  0  0  0  0  0  0  0  0  0  0
   -7.7891   -1.4038   -0.0594 C   0  0  0  0  0  0  0  0  0  0  0  0
   -7.1241   -2.3663    0.6898 C   0  0  0  0  0  0  0  0  0  0  0  0
   -5.7608   -2.2216    0.9438 C   0  0  0  0  0  0  0  0  0  0  0  0
   -5.0487   -1.1126    0.4499 C   0  0  0  0  0  0  0  0  0  0  0  0
   -3.6025   -1.0290    0.7603 C   0  0  0  0  0  0  0  0  0  0  0  0
   -3.0996   -1.8928    1.4783 O   0  0  0  0  0  0  0  0  0  0  0  0
   -2.7412    0.0553    0.2346 C   0  0  0  0  0  0  0  0  0  0  0  0
   -1.3640   -0.0005    0.5306 C   0  0  0  0  0  0  0  0  0  0  0  0
    6.8402   -0.1221    1.1717 H   0  0  0  0  0  0  0  0  0  0  0  0
    5.2275   -0.7944    1.4721 H   0  0  0  0  0  0  0  0  0  0  0  0
    5.5872    0.9120    1.8164 H   0  0  0  0  0  0  0  0  0  0  0  0
    6.6702   -1.1063   -0.9740 H   0  0  0  0  0  0  0  0  0  0  0  0
    5.8586   -0.1383   -2.1964 H   0  0  0  0  0  0  0  0  0  0  0  0
    4.7168   -2.4041   -0.5879 H   0  0  0  0  0  0  0  0  0  0  0  0
    4.3231   -1.8805   -2.2334 H   0  0  0  0  0  0  0  0  0  0  0  0
    2.5301   -0.7089   -1.3485 H   0  0  0  0  0  0  0  0  0  0  0  0
    3.0422   -1.1576    0.2883 H   0  0  0  0  0  0  0  0  0  0  0  0
    3.8483    1.2404   -1.3984 H   0  0  0  0  0  0  0  0  0  0  0  0
    3.8156    2.4467    0.7879 H   0  0  0  0  0  0  0  0  0  0  0  0
    3.2188    0.9932    1.5892 H   0  0  0  0  0  0  0  0  0  0  0  0
    1.4927    2.7492    0.9123 H   0  0  0  0  0  0  0  0  0  0  0  0
    1.8182    2.3286   -0.7815 H   0  0  0  0  0  0  0  0  0  0  0  0
    1.0298    0.2896    1.2372 H   0  0  0  0  0  0  0  0  0  0  0  0
   -0.3327    2.7791   -1.1082 H   0  0  0  0  0  0  0  0  0  0  0  0
   -2.6996    2.9006   -1.6147 H   0  0  0  0  0  0  0  0  0  0  0  0
   -7.6306    0.4420   -1.1339 H   0  0  0  0  0  0  0  0  0  0  0  0
   -8.8522   -1.5079   -0.2623 H   0  0  0  0  0  0  0  0  0  0  0  0
   -7.6614   -3.2285    1.0772 H   0  0  0  0  0  0  0  0  0  0  0  0
   -5.2504   -2.9828    1.5324 H   0  0  0  0  0  0  0  0  0  0  0  0
   -0.9835   -0.8405    1.1107 H   0  0  0  0  0  0  0  0  0  0  0  0
  1  2  1  0
  2  3  1  0
  3  4  1  0
  4  5  1  0
  5  6  1  0
  6  7  1  0
  7  8  1  0
  8  9  1  0
  9 10  1  0
 10 11  2  0
 11 12  1  0
 12 13  2  0
 13 14  1  0
 14 15  1  0
 15 16  2  0
 16 17  1  0
 17 18  2  0
 18 19  1  0
 19 20  2  0
 20 21  1  0
 21 22  2  0
 21 23  1  0
 23 24  2  0
  6  2  1  0
 24 10  1  0
 23 13  1  0
 20 15  1  0
  1 25  1  0
  1 26  1  0
  1 27  1  0
  3 28  1  0
  3 29  1  0
  4 30  1  0
  4 31  1  0
  5 32  1  0
  5 33  1  0
  6 34  1  0
  7 35  1  0
  7 36  1  0
  8 37  1  0
  8 38  1  0
  9 39  1  0
 11 40  1  0
 12 41  1  0
 16 42  1  0
 17 43  1  0
 18 44  1  0
 19 45  1  0
 24 46  1  0
M  END
$$$$
