
     RDKit          3D

 50 50  0  0  0  0  0  0  0  0999 V2000
    7.9029   -1.5844   -1.7005 C   0  0  0  0  0  0  0  0  0  0  0  0
    7.7485   -0.3507   -1.1888 C   0  0  0  0  0  0  0  0  0  0  0  0
    8.8063    0.7054   -1.3634 C   0  0  0  0  0  0  0  0  0  0  0  0
    6.4911    0.0605   -0.4615 C   0  0  0  0  0  0  0  0  0  0  0  0
    6.7835    0.1105    1.3253 S   0  0  0  0  0  0  0  0  0  0  0  0
    5.2183    0.6092    1.8852 C   0  0  0  0  0  0  0  0  0  0  0  0
    4.9200    0.8001    3.1545 N   0  0  0  0  0  0  0  0  0  0  0  0
    3.5958    1.1864    3.2020 N   0  0  0  0  0  0  0  0  0  0  0  0
    3.1774    1.2047    1.9565 C   0  0  0  0  0  0  0  0  0  0  0  0
    1.8394    1.5397    1.4165 C   0  0  0  0  0  0  0  0  0  0  0  0
    0.9663    0.2898    1.2970 C   0  0  0  0  0  0  0  0  0  0  0  0
   -0.3967    0.5580    0.6518 C   0  0  0  0  0  0  0  0  0  0  0  0
   -1.3140    1.4340    1.5119 C   0  0  0  0  0  0  0  0  0  0  0  0
   -2.6894    1.6287    0.8768 C   0  0  0  0  0  0  0  0  0  0  0  0
   -3.4516    0.4031    0.8428 N   0  0  0  0  0  0  0  0  0  0  0  0
   -4.4704    0.2113   -0.0420 C   0  0  0  0  0  0  0  0  0  0  0  0
   -4.7348    0.9466   -0.9787 O   0  0  0  0  0  0  0  0  0  0  0  0
   -5.1344   -0.9138    0.3063 O   0  0  0  0  0  0  0  0  0  0  0  0
   -6.2766   -1.3680   -0.4645 C   0  0  0  0  0  0  0  0  0  0  0  0
   -7.4220   -0.3506   -0.4160 C   0  0  0  0  0  0  0  0  0  0  0  0
   -5.8768   -1.7132   -1.9034 C   0  0  0  0  0  0  0  0  0  0  0  0
   -6.7343   -2.6550    0.2391 C   0  0  0  0  0  0  0  0  0  0  0  0
    4.1483    0.8513    1.0606 O   0  0  0  0  0  0  0  0  0  0  0  0
    8.8039   -1.8695   -2.2360 H   0  0  0  0  0  0  0  0  0  0  0  0
    7.1390   -2.3485   -1.5890 H   0  0  0  0  0  0  0  0  0  0  0  0
    9.1980    1.0293   -0.3943 H   0  0  0  0  0  0  0  0  0  0  0  0
    9.6529    0.3430   -1.9566 H   0  0  0  0  0  0  0  0  0  0  0  0
    8.3906    1.5766   -1.8800 H   0  0  0  0  0  0  0  0  0  0  0  0
    5.6807   -0.6485   -0.6672 H   0  0  0  0  0  0  0  0  0  0  0  0
    6.1624    1.0427   -0.8195 H   0  0  0  0  0  0  0  0  0  0  0  0
    1.3700    2.2723    2.0817 H   0  0  0  0  0  0  0  0  0  0  0  0
    1.9481    2.0180    0.4362 H   0  0  0  0  0  0  0  0  0  0  0  0
    1.4901   -0.4592    0.6885 H   0  0  0  0  0  0  0  0  0  0  0  0
    0.8228   -0.1641    2.2860 H   0  0  0  0  0  0  0  0  0  0  0  0
   -0.8805   -0.4101    0.4738 H   0  0  0  0  0  0  0  0  0  0  0  0
   -0.2536    1.0239   -0.3307 H   0  0  0  0  0  0  0  0  0  0  0  0
   -1.4243    0.9866    2.5072 H   0  0  0  0  0  0  0  0  0  0  0  0
   -0.8600    2.4216    1.6476 H   0  0  0  0  0  0  0  0  0  0  0  0
   -3.2704    2.3468    1.4661 H   0  0  0  0  0  0  0  0  0  0  0  0
   -2.5949    2.0346   -0.1366 H   0  0  0  0  0  0  0  0  0  0  0  0
   -3.4916   -0.1925    1.6582 H   0  0  0  0  0  0  0  0  0  0  0  0
   -8.3381   -0.7609   -0.8544 H   0  0  0  0  0  0  0  0  0  0  0  0
   -7.1794    0.5650   -0.9637 H   0  0  0  0  0  0  0  0  0  0  0  0
   -7.6332   -0.0520    0.6169 H   0  0  0  0  0  0  0  0  0  0  0  0
   -5.0022   -2.3732   -1.9161 H   0  0  0  0  0  0  0  0  0  0  0  0
   -6.6954   -2.2091   -2.4362 H   0  0  0  0  0  0  0  0  0  0  0  0
   -5.6057   -0.8221   -2.4776 H   0  0  0  0  0  0  0  0  0  0  0  0
   -5.9274   -3.3969    0.2578 H   0  0  0  0  0  0  0  0  0  0  0  0
   -6.9949   -2.4557    1.2852 H   0  0  0  0  0  0  0  0  0  0  0  0
   -7.6036   -3.1019   -0.2547 H   0  0  0  0  0  0  0  0  0  0  0  0
  1  2  2  0
  2  3  1  0
  2  4  1  0
  4  5  1  0
  5  6  1  0
  6  7  2  0
  7  8  1  0
  8  9  2  0
  9 10  1  0
 10 11  1  0
 11 12  1  0
 12 13  1  0
 13 14  1  0
 14 15  1  0
 15 16  1  0
 16 17  2  0
 16 18  1  0
 18 19  1  0
 19 20  1  0
 19 21  1  0
 19 22  1  0
  9 23  1  0
 23  6  1  0
  1 24  1  0
  1 25  1  0
  3 26  1  0
  3 27  1  0
  3 28  1  0
  4 29  1  0
  4 30  1  0
 10 31  1  0
 10 32  1  0
 11 33  1  0
 11 34  1  0
 12 35  1  0
 12 36  1  0
 13 37  1  0
 13 38  1  0
 14 39  1  0
 14 40  1  0
 15 41  1  0
 20 42  1  0
 20 43  1  0
 20 44  1  0
 21 45  1  0
 21 46  1  0
 21 47  1  0
 22 48  1  0
 22 49  1  0
 22 50  1  0
M  END
$$$$
