
     RDKit          3D

 54 55  0  0  0  0  0  0  0  0999 V2000
   -1.1598   -1.9648    0.3516 C   0  0  0  0  0  0  0  0  0  0  0  0
   -1.6913   -0.7163   -0.0828 O   0  0  0  0  0  0  0  0  0  0  0  0
   -0.8330    0.1477   -0.7124 C   0  0  0  0  0  0  0  0  0  0  0  0
    0.5529   -0.0205   -0.7794 C   0  0  0  0  0  0  0  0  0  0  0  0
    1.3695    0.9299   -1.4193 C   0  0  0  0  0  0  0  0  0  0  0  0
    2.8645    0.7112   -1.4871 C   0  0  0  0  0  0  0  0  0  0  0  0
    3.4076    0.7433   -0.1370 N   0  0  0  0  0  0  0  0  0  0  0  0
    4.7723    0.5457    0.0788 C   0  0  0  0  0  0  0  0  0  0  0  0
    5.3073    0.9147    1.3217 C   0  0  0  0  0  0  0  0  0  0  0  0
    6.6483    0.6702    1.6430 C   0  0  0  0  0  0  0  0  0  0  0  0
    7.4812    0.0232    0.7263 C   0  0  0  0  0  0  0  0  0  0  0  0
    8.8922   -0.2269    1.1085 C   0  0  0  0  0  0  0  0  0  0  0  0
    9.4121    0.0991    2.1591 O   0  0  0  0  0  0  0  0  0  0  0  0
    9.5907   -0.8741    0.1573 O   0  0  0  0  0  0  0  0  0  0  0  0
    6.9576   -0.3819   -0.5040 C   0  0  0  0  0  0  0  0  0  0  0  0
    5.6127   -0.1326   -0.8140 C   0  0  0  0  0  0  0  0  0  0  0  0
    0.7800    2.0731   -1.9753 C   0  0  0  0  0  0  0  0  0  0  0  0
   -0.6038    2.2527   -1.9078 C   0  0  0  0  0  0  0  0  0  0  0  0
   -1.3439    3.8253   -2.6742 Br  0  0  0  0  0  0  0  0  0  0  0  0
   -1.4145    1.2845   -1.3034 C   0  0  0  0  0  0  0  0  0  0  0  0
   -2.7719    1.5028   -1.2404 O   0  0  0  0  0  0  0  0  0  0  0  0
   -3.5173    0.5529   -2.0071 C   0  0  0  0  0  0  0  0  0  0  0  0
   -4.5194   -0.2059   -1.1353 C   0  0  0  0  0  0  0  0  0  0  0  0
   -4.9578   -1.3034   -1.4584 O   0  0  0  0  0  0  0  0  0  0  0  0
   -4.8897    0.4897    0.0022 N   0  0  0  0  0  0  0  0  0  0  0  0
   -5.7158   -0.0495    1.0883 C   0  0  0  0  0  0  0  0  0  0  0  0
   -6.0097    1.0995    2.0697 C   0  0  0  0  0  0  0  0  0  0  0  0
   -7.0604   -0.5849    0.5666 C   0  0  0  0  0  0  0  0  0  0  0  0
   -4.9563   -1.1578    1.8360 C   0  0  0  0  0  0  0  0  0  0  0  0
   -0.4331   -1.8228    1.1614 H   0  0  0  0  0  0  0  0  0  0  0  0
   -0.7162   -2.5182   -0.4874 H   0  0  0  0  0  0  0  0  0  0  0  0
   -1.9880   -2.5668    0.7470 H   0  0  0  0  0  0  0  0  0  0  0  0
    1.0382   -0.8831   -0.3286 H   0  0  0  0  0  0  0  0  0  0  0  0
    3.0360   -0.2588   -1.9680 H   0  0  0  0  0  0  0  0  0  0  0  0
    3.3367    1.4861   -2.1046 H   0  0  0  0  0  0  0  0  0  0  0  0
    3.0424    1.5201    0.4107 H   0  0  0  0  0  0  0  0  0  0  0  0
    4.6753    1.3969    2.0650 H   0  0  0  0  0  0  0  0  0  0  0  0
    7.0320    0.9767    2.6149 H   0  0  0  0  0  0  0  0  0  0  0  0
   10.4800   -0.9708    0.5520 H   0  0  0  0  0  0  0  0  0  0  0  0
    7.5809   -0.9037   -1.2269 H   0  0  0  0  0  0  0  0  0  0  0  0
    5.2413   -0.4955   -1.7673 H   0  0  0  0  0  0  0  0  0  0  0  0
    1.3980    2.8226   -2.4630 H   0  0  0  0  0  0  0  0  0  0  0  0
   -2.8798   -0.1780   -2.5253 H   0  0  0  0  0  0  0  0  0  0  0  0
   -4.0878    1.1038   -2.7589 H   0  0  0  0  0  0  0  0  0  0  0  0
   -4.2078    1.1993    0.2597 H   0  0  0  0  0  0  0  0  0  0  0  0
   -6.5503    1.9141    1.5691 H   0  0  0  0  0  0  0  0  0  0  0  0
   -6.6201    0.7590    2.9136 H   0  0  0  0  0  0  0  0  0  0  0  0
   -5.0820    1.5261    2.4780 H   0  0  0  0  0  0  0  0  0  0  0  0
   -6.9298   -1.5168   -0.0001 H   0  0  0  0  0  0  0  0  0  0  0  0
   -7.7519   -0.8083    1.3884 H   0  0  0  0  0  0  0  0  0  0  0  0
   -7.5461    0.1436   -0.0969 H   0  0  0  0  0  0  0  0  0  0  0  0
   -4.6968   -1.9952    1.1738 H   0  0  0  0  0  0  0  0  0  0  0  0
   -4.0170   -0.7757    2.2586 H   0  0  0  0  0  0  0  0  0  0  0  0
   -5.5584   -1.5579    2.6638 H   0  0  0  0  0  0  0  0  0  0  0  0
  1  2  1  0
  2  3  1  0
  3  4  2  0
  4  5  1  0
  5  6  1  0
  6  7  1  0
  7  8  1  0
  8  9  2  0
  9 10  1  0
 10 11  2  0
 11 12  1  0
 12 13  2  0
 12 14  1  0
 11 15  1  0
 15 16  2  0
  5 17  2  0
 17 18  1  0
 18 19  1  0
 18 20  2  0
 20 21  1  0
 21 22  1  0
 22 23  1  0
 23 24  2  0
 23 25  1  0
 25 26  1  0
 26 27  1  0
 26 28  1  0
 26 29  1  0
 20  3  1  0
 16  8  1  0
  1 30  1  0
  1 31  1  0
  1 32  1  0
  4 33  1  0
  6 34  1  0
  6 35  1  0
  7 36  1  0
  9 37  1  0
 10 38  1  0
 14 39  1  0
 15 40  1  0
 16 41  1  0
 17 42  1  0
 22 43  1  0
 22 44  1  0
 25 45  1  0
 27 46  1  0
 27 47  1  0
 27 48  1  0
 28 49  1  0
 28 50  1  0
 28 51  1  0
 29 52  1  0
 29 53  1  0
 29 54  1  0
M  END
$$$$
