
     RDKit          3D

 55 57  0  0  0  0  0  0  0  0999 V2000
    0.7510   -1.7605   -1.4911 O   0  0  0  0  0  0  0  0  0  0  0  0
    0.2236   -1.3888   -0.4482 C   0  0  0  0  0  0  0  0  0  0  0  0
   -1.1422   -1.2483   -0.3090 N   0  0  0  0  0  0  0  0  0  0  0  0
   -2.0418   -1.5781   -1.3972 C   0  0  0  0  0  0  0  0  0  0  0  0
   -3.3924   -0.8782   -1.2518 C   0  0  0  0  0  0  0  0  0  0  0  0
   -3.2711    0.6444   -1.4094 C   0  0  0  0  0  0  0  0  0  0  0  0
   -4.5648    1.4415   -1.2003 C   0  0  0  0  0  0  0  0  0  0  0  0
   -5.1708    1.3352    0.2108 C   0  0  0  0  0  0  0  0  0  0  0  0
   -6.6574    1.0417    0.0111 C   0  0  0  0  0  0  0  0  0  0  0  0
   -6.9532    1.5169   -1.4021 C   0  0  0  0  0  0  0  0  0  0  0  0
   -5.7042    1.0990   -2.1655 C   0  0  0  0  0  0  0  0  0  0  0  0
    1.0092   -1.0733    0.8235 C   0  0  0  0  0  0  0  0  0  0  0  0
    0.7357    0.3219    1.3776 C   0  0  0  0  0  0  0  0  0  0  0  0
    1.2492    1.3878    0.4265 C   0  0  0  0  0  0  0  0  0  0  0  0
    2.6927    1.2002    0.0071 C   0  0  0  0  0  0  0  0  0  0  0  0
    3.3596    2.1775   -0.3356 O   0  0  0  0  0  0  0  0  0  0  0  0
    3.1642   -0.1006   -0.0631 N   0  0  0  0  0  0  0  0  0  0  0  0
    4.5179   -0.3236   -0.5672 C   0  0  0  0  0  0  0  0  0  0  0  0
    5.5350   -0.4985    0.5387 C   0  0  0  0  0  0  0  0  0  0  0  0
    6.0220   -1.7732    0.8673 C   0  0  0  0  0  0  0  0  0  0  0  0
    6.9520   -1.9318    1.8976 C   0  0  0  0  0  0  0  0  0  0  0  0
    7.4006   -0.8169    2.6035 C   0  0  0  0  0  0  0  0  0  0  0  0
    8.5488   -1.0136    3.8705 Cl  0  0  0  0  0  0  0  0  0  0  0  0
    6.9235    0.4541    2.2927 C   0  0  0  0  0  0  0  0  0  0  0  0
    5.9920    0.6120    1.2641 C   0  0  0  0  0  0  0  0  0  0  0  0
    2.5126   -1.2270    0.6092 C   0  0  0  0  0  0  0  0  0  0  0  0
   -1.5267   -1.2321    0.6272 H   0  0  0  0  0  0  0  0  0  0  0  0
   -2.1817   -2.6643   -1.3759 H   0  0  0  0  0  0  0  0  0  0  0  0
   -1.5737   -1.3221   -2.3542 H   0  0  0  0  0  0  0  0  0  0  0  0
   -4.0615   -1.2788   -2.0204 H   0  0  0  0  0  0  0  0  0  0  0  0
   -3.8277   -1.1316   -0.2795 H   0  0  0  0  0  0  0  0  0  0  0  0
   -2.8866    0.8623   -2.4137 H   0  0  0  0  0  0  0  0  0  0  0  0
   -2.5233    1.0251   -0.7033 H   0  0  0  0  0  0  0  0  0  0  0  0
   -4.3098    2.4996   -1.3592 H   0  0  0  0  0  0  0  0  0  0  0  0
   -4.6993    0.5745    0.8407 H   0  0  0  0  0  0  0  0  0  0  0  0
   -5.0488    2.2956    0.7308 H   0  0  0  0  0  0  0  0  0  0  0  0
   -7.2843    1.5391    0.7601 H   0  0  0  0  0  0  0  0  0  0  0  0
   -6.8342   -0.0404    0.0858 H   0  0  0  0  0  0  0  0  0  0  0  0
   -7.0686    2.6086   -1.4225 H   0  0  0  0  0  0  0  0  0  0  0  0
   -7.8619    1.0643   -1.8108 H   0  0  0  0  0  0  0  0  0  0  0  0
   -5.7545    0.0267   -2.3844 H   0  0  0  0  0  0  0  0  0  0  0  0
   -5.6078    1.6318   -3.1178 H   0  0  0  0  0  0  0  0  0  0  0  0
    0.6934   -1.8227    1.5622 H   0  0  0  0  0  0  0  0  0  0  0  0
    1.2397    0.4284    2.3469 H   0  0  0  0  0  0  0  0  0  0  0  0
   -0.3323    0.4809    1.5620 H   0  0  0  0  0  0  0  0  0  0  0  0
    0.6431    1.4171   -0.4864 H   0  0  0  0  0  0  0  0  0  0  0  0
    1.1604    2.3669    0.9122 H   0  0  0  0  0  0  0  0  0  0  0  0
    4.8318    0.5062   -1.2121 H   0  0  0  0  0  0  0  0  0  0  0  0
    4.4931   -1.2110   -1.2119 H   0  0  0  0  0  0  0  0  0  0  0  0
    5.6805   -2.6502    0.3213 H   0  0  0  0  0  0  0  0  0  0  0  0
    7.3253   -2.9231    2.1401 H   0  0  0  0  0  0  0  0  0  0  0  0
    7.2722    1.3254    2.8407 H   0  0  0  0  0  0  0  0  0  0  0  0
    5.6233    1.6089    1.0254 H   0  0  0  0  0  0  0  0  0  0  0  0
    2.7337   -2.1420    0.0464 H   0  0  0  0  0  0  0  0  0  0  0  0
    2.9945   -1.3239    1.5904 H   0  0  0  0  0  0  0  0  0  0  0  0
  1  2  2  0
  2  3  1  0
  3  4  1  0
  4  5  1  0
  5  6  1  0
  6  7  1  0
  7  8  1  0
  8  9  1  0
  9 10  1  0
 10 11  1  0
  2 12  1  0
 12 13  1  0
 13 14  1  0
 14 15  1  0
 15 16  2  0
 15 17  1  0
 17 18  1  0
 18 19  1  0
 19 20  2  0
 20 21  1  0
 21 22  2  0
 22 23  1  0
 22 24  1  0
 24 25  2  0
 17 26  1  0
 11  7  1  0
 26 12  1  0
 25 19  1  0
  3 27  1  0
  4 28  1  0
  4 29  1  0
  5 30  1  0
  5 31  1  0
  6 32  1  0
  6 33  1  0
  7 34  1  0
  8 35  1  0
  8 36  1  0
  9 37  1  0
  9 38  1  0
 10 39  1  0
 10 40  1  0
 11 41  1  0
 11 42  1  0
 12 43  1  0
 13 44  1  0
 13 45  1  0
 14 46  1  0
 14 47  1  0
 18 48  1  0
 18 49  1  0
 20 50  1  0
 21 51  1  0
 24 52  1  0
 25 53  1  0
 26 54  1  0
 26 55  1  0
M  END
$$$$
