
     RDKit          3D

 48 51  0  0  0  0  0  0  0  0999 V2000
    3.3284    0.5299    1.3718 O   0  0  0  0  0  0  0  0  0  0  0  0
    3.5265    0.6038    0.1673 C   0  0  0  0  0  0  0  0  0  0  0  0
    2.5740    0.5842   -0.8526 N   0  0  0  0  0  0  0  0  0  0  0  0
    1.2249    0.8570   -0.8760 C   0  0  0  0  0  0  0  0  0  0  0  0
    0.6603    1.4108   -2.3647 S   0  0  0  0  0  0  0  0  0  0  0  0
    0.4432    0.6690    0.2403 N   0  0  0  0  0  0  0  0  0  0  0  0
   -0.9159    1.2432    0.3371 C   0  0  0  0  0  0  0  0  0  0  0  0
   -1.5290    1.1018    1.7430 C   0  0  0  0  0  0  0  0  0  0  0  0
   -1.5777   -0.2794    2.2430 N   0  0  0  0  0  0  0  0  0  0  0  0
   -2.9129   -0.8701    2.3509 C   0  0  0  0  0  0  0  0  0  0  0  0
   -3.6619   -1.1053    1.0537 C   0  0  0  0  0  0  0  0  0  0  0  0
   -3.5593   -2.3487    0.3842 C   0  0  0  0  0  0  0  0  0  0  0  0
   -4.2348   -2.5840   -0.8180 C   0  0  0  0  0  0  0  0  0  0  0  0
   -5.0096   -1.5661   -1.3262 C   0  0  0  0  0  0  0  0  0  0  0  0
   -5.1285   -0.3588   -0.6816 C   0  0  0  0  0  0  0  0  0  0  0  0
   -4.4763   -0.0993    0.5056 C   0  0  0  0  0  0  0  0  0  0  0  0
   -5.9429    0.5058   -1.3441 O   0  0  0  0  0  0  0  0  0  0  0  0
   -6.3136   -0.2940   -2.4863 C   0  0  0  0  0  0  0  0  0  0  0  0
   -5.7326   -1.6144   -2.4766 O   0  0  0  0  0  0  0  0  0  0  0  0
   -0.5654   -1.1504    1.6270 C   0  0  0  0  0  0  0  0  0  0  0  0
    0.7172   -0.3847    1.2370 C   0  0  0  0  0  0  0  0  0  0  0  0
    4.9396    0.6493   -0.3041 C   0  0  0  0  0  0  0  0  0  0  0  0
    5.8964   -0.1096    0.3834 C   0  0  0  0  0  0  0  0  0  0  0  0
    7.2326   -0.0907   -0.0245 C   0  0  0  0  0  0  0  0  0  0  0  0
    7.6132    0.6958   -1.1106 C   0  0  0  0  0  0  0  0  0  0  0  0
    9.2578    0.7207   -1.6132 Cl  0  0  0  0  0  0  0  0  0  0  0  0
    6.6710    1.4702   -1.7880 C   0  0  0  0  0  0  0  0  0  0  0  0
    5.3324    1.4534   -1.3834 C   0  0  0  0  0  0  0  0  0  0  0  0
    2.9491    0.6674   -1.7875 H   0  0  0  0  0  0  0  0  0  0  0  0
   -1.5515    0.7335   -0.3968 H   0  0  0  0  0  0  0  0  0  0  0  0
   -0.8664    2.3034    0.0643 H   0  0  0  0  0  0  0  0  0  0  0  0
   -0.9020    1.6712    2.4420 H   0  0  0  0  0  0  0  0  0  0  0  0
   -2.5087    1.5898    1.7774 H   0  0  0  0  0  0  0  0  0  0  0  0
   -2.8396   -1.8222    2.8938 H   0  0  0  0  0  0  0  0  0  0  0  0
   -3.5317   -0.2399    3.0041 H   0  0  0  0  0  0  0  0  0  0  0  0
   -2.9429   -3.1413    0.8045 H   0  0  0  0  0  0  0  0  0  0  0  0
   -4.1524   -3.5339   -1.3335 H   0  0  0  0  0  0  0  0  0  0  0  0
   -4.6014    0.8606    0.9942 H   0  0  0  0  0  0  0  0  0  0  0  0
   -5.9915    0.2243   -3.3969 H   0  0  0  0  0  0  0  0  0  0  0  0
   -7.4051   -0.3920   -2.5055 H   0  0  0  0  0  0  0  0  0  0  0  0
   -0.9472   -1.6221    0.7153 H   0  0  0  0  0  0  0  0  0  0  0  0
   -0.3066   -1.9501    2.3298 H   0  0  0  0  0  0  0  0  0  0  0  0
    1.1253    0.0995    2.1306 H   0  0  0  0  0  0  0  0  0  0  0  0
    1.4468   -1.0982    0.8418 H   0  0  0  0  0  0  0  0  0  0  0  0
    5.6027   -0.7161    1.2386 H   0  0  0  0  0  0  0  0  0  0  0  0
    7.9684   -0.6849    0.5116 H   0  0  0  0  0  0  0  0  0  0  0  0
    6.9752    2.0970   -2.6230 H   0  0  0  0  0  0  0  0  0  0  0  0
    4.6228    2.0958   -1.8991 H   0  0  0  0  0  0  0  0  0  0  0  0
  1  2  2  0
  2  3  1  0
  3  4  1  0
  4  5  2  0
  4  6  1  0
  6  7  1  0
  7  8  1  0
  8  9  1  0
  9 10  1  0
 10 11  1  0
 11 12  2  0
 12 13  1  0
 13 14  2  0
 14 15  1  0
 15 16  2  0
 15 17  1  0
 17 18  1  0
 18 19  1  0
  9 20  1  0
 20 21  1  0
  2 22  1  0
 22 23  2  0
 23 24  1  0
 24 25  2  0
 25 26  1  0
 25 27  1  0
 27 28  2  0
 21  6  1  0
 28 22  1  0
 16 11  1  0
 19 14  1  0
  3 29  1  0
  7 30  1  0
  7 31  1  0
  8 32  1  0
  8 33  1  0
 10 34  1  0
 10 35  1  0
 12 36  1  0
 13 37  1  0
 16 38  1  0
 18 39  1  0
 18 40  1  0
 20 41  1  0
 20 42  1  0
 21 43  1  0
 21 44  1  0
 23 45  1  0
 24 46  1  0
 27 47  1  0
 28 48  1  0
M  END
$$$$
