
     RDKit          3D

 42 44  0  0  0  0  0  0  0  0999 V2000
   -2.8465    0.5261   -1.3407 O   0  0  0  0  0  0  0  0  0  0  0  0
   -2.4056    0.1123   -0.2653 C   0  0  0  0  0  0  0  0  0  0  0  0
   -3.2480   -0.8046    0.6497 C   0  0  0  0  0  0  0  0  0  0  0  0
   -4.6702   -1.0170    0.1385 C   0  0  0  0  0  0  0  0  0  0  0  0
   -5.0024   -2.3915    0.6594 C   0  0  0  0  0  0  0  0  0  0  0  0
   -3.6761   -3.0958    0.5081 C   0  0  0  0  0  0  0  0  0  0  0  0
   -2.6707   -2.1156    0.7926 O   0  0  0  0  0  0  0  0  0  0  0  0
   -1.1426    0.4849    0.1830 N   0  0  0  0  0  0  0  0  0  0  0  0
   -0.5459    0.0681    1.4585 C   0  0  0  0  0  0  0  0  0  0  0  0
    0.9869    0.1489    1.4398 C   0  0  0  0  0  0  0  0  0  0  0  0
    1.4534    1.5244    1.1167 N   0  0  0  0  0  0  0  0  0  0  0  0
    3.1260    1.7614    0.9898 S   0  0  0  0  0  6  0  0  0  0  0  0
    3.3665    3.1822    0.8509 O   0  0  0  0  0  0  0  0  0  0  0  0
    3.7649    0.9925    2.0371 O   0  0  0  0  0  0  0  0  0  0  0  0
    3.5352    0.9931   -0.5648 C   0  0  0  0  0  0  0  0  0  0  0  0
    3.9179   -0.3519   -0.5927 C   0  0  0  0  0  0  0  0  0  0  0  0
    4.2558   -0.9459   -1.8086 C   0  0  0  0  0  0  0  0  0  0  0  0
    4.2286   -0.1945   -2.9845 C   0  0  0  0  0  0  0  0  0  0  0  0
    3.8754    1.1554   -2.9488 C   0  0  0  0  0  0  0  0  0  0  0  0
    3.5362    1.7565   -1.7367 C   0  0  0  0  0  0  0  0  0  0  0  0
    0.5666    2.3008    0.2042 C   0  0  0  0  0  0  0  0  0  0  0  0
   -0.3391    1.3946   -0.6384 C   0  0  0  0  0  0  0  0  0  0  0  0
   -3.2882   -0.3514    1.6476 H   0  0  0  0  0  0  0  0  0  0  0  0
   -4.7129   -1.0258   -0.9570 H   0  0  0  0  0  0  0  0  0  0  0  0
   -5.3603   -0.2443    0.4902 H   0  0  0  0  0  0  0  0  0  0  0  0
   -5.8141   -2.8833    0.1174 H   0  0  0  0  0  0  0  0  0  0  0  0
   -5.2783   -2.3297    1.7186 H   0  0  0  0  0  0  0  0  0  0  0  0
   -3.5678   -3.9441    1.1893 H   0  0  0  0  0  0  0  0  0  0  0  0
   -3.5246   -3.4476   -0.5182 H   0  0  0  0  0  0  0  0  0  0  0  0
   -0.8455   -0.9492    1.7124 H   0  0  0  0  0  0  0  0  0  0  0  0
   -0.9507    0.7364    2.2279 H   0  0  0  0  0  0  0  0  0  0  0  0
    1.3666   -0.1377    2.4261 H   0  0  0  0  0  0  0  0  0  0  0  0
    1.3693   -0.5591    0.6977 H   0  0  0  0  0  0  0  0  0  0  0  0
    3.9597   -0.9385    0.3224 H   0  0  0  0  0  0  0  0  0  0  0  0
    4.5498   -1.9924   -1.8401 H   0  0  0  0  0  0  0  0  0  0  0  0
    4.4976   -0.6591   -3.9305 H   0  0  0  0  0  0  0  0  0  0  0  0
    3.8756    1.7405   -3.8656 H   0  0  0  0  0  0  0  0  0  0  0  0
    3.2857    2.8146   -1.7140 H   0  0  0  0  0  0  0  0  0  0  0  0
   -0.0487    2.9559    0.8332 H   0  0  0  0  0  0  0  0  0  0  0  0
    1.1405    2.9524   -0.4603 H   0  0  0  0  0  0  0  0  0  0  0  0
   -0.9872    2.0115   -1.2697 H   0  0  0  0  0  0  0  0  0  0  0  0
    0.2668    0.7667   -1.3026 H   0  0  0  0  0  0  0  0  0  0  0  0
  1  2  2  0
  2  3  1  0
  3  4  1  0
  4  5  1  0
  5  6  1  0
  6  7  1  0
  2  8  1  0
  8  9  1  0
  9 10  1  0
 10 11  1  0
 11 12  1  0
 12 13  2  0
 12 14  2  0
 12 15  1  0
 15 16  2  0
 16 17  1  0
 17 18  2  0
 18 19  1  0
 19 20  2  0
 11 21  1  0
 21 22  1  0
  7  3  1  0
 22  8  1  0
 20 15  1  0
  3 23  1  0
  4 24  1  0
  4 25  1  0
  5 26  1  0
  5 27  1  0
  6 28  1  0
  6 29  1  0
  9 30  1  0
  9 31  1  0
 10 32  1  0
 10 33  1  0
 16 34  1  0
 17 35  1  0
 18 36  1  0
 19 37  1  0
 20 38  1  0
 21 39  1  0
 21 40  1  0
 22 41  1  0
 22 42  1  0
M  END
$$$$
