
     RDKit          3D

 39 40  0  0  0  0  0  0  0  0999 V2000
   -3.8292    1.7095    1.3071 C   0  0  0  0  0  0  0  0  0  0  0  0
   -4.0813    0.2172    1.1570 C   0  0  0  0  0  0  0  0  0  0  0  0
   -2.8166   -0.5874    0.8500 C   0  0  0  0  0  0  0  0  0  0  0  0
   -2.2149   -0.2675   -0.5205 C   0  0  0  0  0  0  0  0  0  0  0  0
   -1.0612   -1.1003   -0.7839 N   0  0  0  0  0  0  0  0  0  0  0  0
   -1.0178   -2.3834   -1.2115 C   0  0  0  0  0  0  0  0  0  0  0  0
   -2.1574   -3.0922   -1.2956 N   0  0  0  0  0  0  0  0  0  0  0  0
    0.1396   -2.8857   -1.5239 N   0  0  0  0  0  0  0  0  0  0  0  0
    1.1010   -1.7660   -1.3018 C   0  0  0  0  0  0  0  0  0  0  0  0
    0.2872   -0.5452   -0.8088 C   0  0  0  0  0  0  0  0  0  0  0  0
    0.7345   -0.0571    0.5764 C   0  0  0  0  0  0  0  0  0  0  0  0
    2.0950    0.6016    0.5634 C   0  0  0  0  0  0  0  0  0  0  0  0
    3.2089   -0.0523    1.1099 C   0  0  0  0  0  0  0  0  0  0  0  0
    4.4682    0.5516    1.0889 C   0  0  0  0  0  0  0  0  0  0  0  0
    4.6124    1.8133    0.5226 C   0  0  0  0  0  0  0  0  0  0  0  0
    5.8228    2.4394    0.4802 O   0  0  0  0  0  0  0  0  0  0  0  0
    3.5203    2.4787   -0.0197 C   0  0  0  0  0  0  0  0  0  0  0  0
    2.2622    1.8753    0.0007 C   0  0  0  0  0  0  0  0  0  0  0  0
   -3.5149    2.1611    0.3617 H   0  0  0  0  0  0  0  0  0  0  0  0
   -3.0571    1.9043    2.0581 H   0  0  0  0  0  0  0  0  0  0  0  0
   -4.7466    2.2148    1.6256 H   0  0  0  0  0  0  0  0  0  0  0  0
   -4.5119   -0.1579    2.0932 H   0  0  0  0  0  0  0  0  0  0  0  0
   -4.8304    0.0495    0.3744 H   0  0  0  0  0  0  0  0  0  0  0  0
   -3.0715   -1.6528    0.9006 H   0  0  0  0  0  0  0  0  0  0  0  0
   -2.0729   -0.4162    1.6375 H   0  0  0  0  0  0  0  0  0  0  0  0
   -1.9232    0.7877   -0.5649 H   0  0  0  0  0  0  0  0  0  0  0  0
   -2.9660   -0.4066   -1.3068 H   0  0  0  0  0  0  0  0  0  0  0  0
   -1.9798   -3.9774   -1.7589 H   0  0  0  0  0  0  0  0  0  0  0  0
   -2.9146   -2.5964   -1.7417 H   0  0  0  0  0  0  0  0  0  0  0  0
    1.6046   -1.5349   -2.2469 H   0  0  0  0  0  0  0  0  0  0  0  0
    1.8596   -2.0932   -0.5842 H   0  0  0  0  0  0  0  0  0  0  0  0
    0.3449    0.2602   -1.5513 H   0  0  0  0  0  0  0  0  0  0  0  0
    0.7212   -0.8871    1.2952 H   0  0  0  0  0  0  0  0  0  0  0  0
    0.0186    0.6760    0.9696 H   0  0  0  0  0  0  0  0  0  0  0  0
    3.1033   -1.0402    1.5546 H   0  0  0  0  0  0  0  0  0  0  0  0
    5.3158    0.0251    1.5160 H   0  0  0  0  0  0  0  0  0  0  0  0
    6.4846    1.8593    0.8909 H   0  0  0  0  0  0  0  0  0  0  0  0
    3.6481    3.4654   -0.4557 H   0  0  0  0  0  0  0  0  0  0  0  0
    1.4146    2.4095   -0.4225 H   0  0  0  0  0  0  0  0  0  0  0  0
  1  2  1  0
  2  3  1  0
  3  4  1  0
  4  5  1  0
  5  6  1  0
  6  7  1  0
  6  8  2  0
  8  9  1  0
  9 10  1  0
 10 11  1  0
 11 12  1  0
 12 13  2  0
 13 14  1  0
 14 15  2  0
 15 16  1  0
 15 17  1  0
 17 18  2  0
 10  5  1  0
 18 12  1  0
  1 19  1  0
  1 20  1  0
  1 21  1  0
  2 22  1  0
  2 23  1  0
  3 24  1  0
  3 25  1  0
  4 26  1  0
  4 27  1  0
  7 28  1  0
  7 29  1  0
  9 30  1  0
  9 31  1  0
 10 32  1  0
 11 33  1  0
 11 34  1  0
 13 35  1  0
 14 36  1  0
 16 37  1  0
 17 38  1  0
 18 39  1  0
M  END
$$$$
