
     RDKit          3D

 38 39  0  0  0  0  0  0  0  0999 V2000
   -4.7693   -0.9368    2.8097 C   0  0  0  0  0  0  0  0  0  0  0  0
   -4.7448    0.0200    1.7604 O   0  0  0  0  0  0  0  0  0  0  0  0
   -3.5377    0.2788    1.1593 C   0  0  0  0  0  0  0  0  0  0  0  0
   -2.3285   -0.3263    1.5242 C   0  0  0  0  0  0  0  0  0  0  0  0
   -1.1463   -0.0006    0.8564 C   0  0  0  0  0  0  0  0  0  0  0  0
   -1.1757    0.9324   -0.1802 C   0  0  0  0  0  0  0  0  0  0  0  0
    0.0792    1.2830   -0.8996 C   0  0  0  0  0  0  0  0  0  0  0  0
    0.1220    1.1941   -2.1946 N   0  0  0  0  0  0  0  0  0  0  0  0
    1.1596    1.7021   -0.1482 N   0  0  0  0  0  0  0  0  0  0  0  0
    2.3845    1.3906   -0.7705 O   0  0  0  0  0  0  0  0  0  0  0  0
    2.9577    0.2626   -0.2313 C   0  0  0  0  0  0  0  0  0  0  0  0
    2.5336   -0.2905    0.7785 O   0  0  0  0  0  0  0  0  0  0  0  0
    4.1690   -0.1136   -1.0537 C   0  0  0  0  0  0  0  0  0  0  0  0
    4.7750   -1.4005   -0.5790 C   0  0  0  0  0  0  0  0  0  0  0  0
    5.7539   -1.5857    0.3783 C   0  0  0  0  0  0  0  0  0  0  0  0
    6.0829   -2.9606    0.5570 C   0  0  0  0  0  0  0  0  0  0  0  0
    5.3486   -3.7784   -0.2716 C   0  0  0  0  0  0  0  0  0  0  0  0
    4.2712   -2.8918   -1.2587 S   0  0  0  0  0  0  0  0  0  0  0  0
   -2.3749    1.5433   -0.5598 C   0  0  0  0  0  0  0  0  0  0  0  0
   -3.5603    1.2226    0.1086 C   0  0  0  0  0  0  0  0  0  0  0  0
   -4.7858    1.7692   -0.1832 O   0  0  0  0  0  0  0  0  0  0  0  0
   -4.8493    2.7358   -1.2224 C   0  0  0  0  0  0  0  0  0  0  0  0
   -5.8019   -1.0199    3.1625 H   0  0  0  0  0  0  0  0  0  0  0  0
   -4.4603   -1.9243    2.4516 H   0  0  0  0  0  0  0  0  0  0  0  0
   -4.1548   -0.6112    3.6554 H   0  0  0  0  0  0  0  0  0  0  0  0
   -2.2738   -1.0607    2.3212 H   0  0  0  0  0  0  0  0  0  0  0  0
   -0.2197   -0.4977    1.1358 H   0  0  0  0  0  0  0  0  0  0  0  0
   -0.7655    0.8445   -2.5699 H   0  0  0  0  0  0  0  0  0  0  0  0
    1.1513    1.4305    0.8355 H   0  0  0  0  0  0  0  0  0  0  0  0
    4.9064    0.6924   -0.9651 H   0  0  0  0  0  0  0  0  0  0  0  0
    3.8702   -0.1943   -2.1051 H   0  0  0  0  0  0  0  0  0  0  0  0
    6.2119   -0.7748    0.9322 H   0  0  0  0  0  0  0  0  0  0  0  0
    6.8195   -3.3311    1.2593 H   0  0  0  0  0  0  0  0  0  0  0  0
    5.3912   -4.8563   -0.3461 H   0  0  0  0  0  0  0  0  0  0  0  0
   -2.3520    2.2724   -1.3630 H   0  0  0  0  0  0  0  0  0  0  0  0
   -4.5531    2.3024   -2.1833 H   0  0  0  0  0  0  0  0  0  0  0  0
   -5.8898    3.0626   -1.3121 H   0  0  0  0  0  0  0  0  0  0  0  0
   -4.2443    3.6158   -0.9807 H   0  0  0  0  0  0  0  0  0  0  0  0
  1  2  1  0
  2  3  1  0
  3  4  2  0
  4  5  1  0
  5  6  2  0
  6  7  1  0
  7  8  2  3
  7  9  1  0
  9 10  1  0
 10 11  1  0
 11 12  2  0
 11 13  1  0
 13 14  1  0
 14 15  2  0
 15 16  1  0
 16 17  2  0
 17 18  1  0
  6 19  1  0
 19 20  2  0
 20 21  1  0
 21 22  1  0
 20  3  1  0
 18 14  1  0
  1 23  1  0
  1 24  1  0
  1 25  1  0
  4 26  1  0
  5 27  1  0
  8 28  1  0
  9 29  1  0
 13 30  1  0
 13 31  1  0
 15 32  1  0
 16 33  1  0
 17 34  1  0
 19 35  1  0
 22 36  1  0
 22 37  1  0
 22 38  1  0
M  END
$$$$
