
     RDKit          3D

 67 72  0  0  0  0  0  0  0  0999 V2000
   -2.7076    1.8802    2.0991 O   0  0  0  0  0  0  0  0  0  0  0  0
   -2.4081    1.1655    1.1389 C   0  0  0  0  0  0  0  0  0  0  0  0
   -3.4866    0.5704    0.2130 C   0  0  0  0  0  0  0  0  0  0  0  0
   -4.7912    1.3814    0.3180 C   0  0  0  0  0  0  0  0  0  0  0  0
   -5.9493    0.7406   -0.4162 C   0  0  0  0  0  0  0  0  0  0  0  0
   -6.6565   -0.3227    0.1638 C   0  0  0  0  0  0  0  0  0  0  0  0
   -7.7096   -0.9282   -0.5226 C   0  0  0  0  0  0  0  0  0  0  0  0
   -8.0634   -0.4781   -1.7932 C   0  0  0  0  0  0  0  0  0  0  0  0
   -7.3667    0.5785   -2.3785 C   0  0  0  0  0  0  0  0  0  0  0  0
   -6.3138    1.1863   -1.6943 C   0  0  0  0  0  0  0  0  0  0  0  0
   -3.0190    0.5359   -1.1695 N   0  0  0  0  0  0  0  0  0  0  0  0
   -1.7882   -0.1117   -1.2993 C   0  0  0  0  0  0  0  0  0  0  0  0
   -1.6649   -0.8229   -2.4291 N   0  0  0  0  0  0  0  0  0  0  0  0
   -0.4710   -1.3675   -2.6426 C   0  0  0  0  0  0  0  0  0  0  0  0
    0.6047   -1.2192   -1.8666 N   0  0  0  0  0  0  0  0  0  0  0  0
    0.4705   -0.4737   -0.7444 C   0  0  0  0  0  0  0  0  0  0  0  0
    1.6745   -0.1613   -0.0717 N   0  0  0  0  0  0  0  0  0  0  0  0
    2.1952    1.1263   -0.6228 C   0  0  0  0  0  0  0  0  0  0  0  0
    3.7073    1.3067   -0.3564 C   0  0  0  0  0  0  0  0  0  0  0  0
    4.4899    0.2173   -0.9684 N   0  0  0  0  0  0  0  0  0  0  0  0
    5.7861    0.4192   -1.4125 C   0  0  0  0  0  0  0  0  0  0  0  0
    6.5907    1.4513   -0.8995 C   0  0  0  0  0  0  0  0  0  0  0  0
    7.9029    1.6624   -1.3416 C   0  0  0  0  0  0  0  0  0  0  0  0
    8.4498    0.8396   -2.3179 C   0  0  0  0  0  0  0  0  0  0  0  0
    7.6844   -0.1937   -2.8447 C   0  0  0  0  0  0  0  0  0  0  0  0
    6.3740   -0.3975   -2.3933 C   0  0  0  0  0  0  0  0  0  0  0  0
    3.7756   -1.0560   -1.1861 C   0  0  0  0  0  0  0  0  0  0  0  0
    2.6779   -1.2606   -0.1181 C   0  0  0  0  0  0  0  0  0  0  0  0
   -0.7697    0.0575   -0.3483 C   0  0  0  0  0  0  0  0  0  0  0  0
   -1.0891    0.7403    0.8881 N   0  0  0  0  0  0  0  0  0  0  0  0
   -0.1709    0.8535    2.0144 C   0  0  0  0  0  0  0  0  0  0  0  0
   -0.3822   -0.2391    3.0475 C   0  0  0  0  0  0  0  0  0  0  0  0
    0.1162   -1.5332    2.8460 C   0  0  0  0  0  0  0  0  0  0  0  0
   -0.0935   -2.5342    3.7968 C   0  0  0  0  0  0  0  0  0  0  0  0
   -0.8069   -2.2542    4.9599 C   0  0  0  0  0  0  0  0  0  0  0  0
   -1.3130   -0.9743    5.1731 C   0  0  0  0  0  0  0  0  0  0  0  0
   -1.1032    0.0264    4.2227 C   0  0  0  0  0  0  0  0  0  0  0  0
   -3.6708   -0.4552    0.5645 H   0  0  0  0  0  0  0  0  0  0  0  0
   -4.6344    2.4009   -0.0597 H   0  0  0  0  0  0  0  0  0  0  0  0
   -5.0861    1.5012    1.3690 H   0  0  0  0  0  0  0  0  0  0  0  0
   -6.3945   -0.6840    1.1560 H   0  0  0  0  0  0  0  0  0  0  0  0
   -8.2552   -1.7508   -0.0661 H   0  0  0  0  0  0  0  0  0  0  0  0
   -8.8844   -0.9490   -2.3271 H   0  0  0  0  0  0  0  0  0  0  0  0
   -7.6438    0.9286   -3.3693 H   0  0  0  0  0  0  0  0  0  0  0  0
   -5.7761    2.0076   -2.1656 H   0  0  0  0  0  0  0  0  0  0  0  0
   -3.6622    0.1200   -1.8398 H   0  0  0  0  0  0  0  0  0  0  0  0
   -0.3553   -1.9689   -3.5369 H   0  0  0  0  0  0  0  0  0  0  0  0
    2.0335    1.1832   -1.7094 H   0  0  0  0  0  0  0  0  0  0  0  0
    1.6535    1.9645   -0.1687 H   0  0  0  0  0  0  0  0  0  0  0  0
    3.9967    2.2802   -0.7706 H   0  0  0  0  0  0  0  0  0  0  0  0
    3.8980    1.3234    0.7232 H   0  0  0  0  0  0  0  0  0  0  0  0
    6.2161    2.1044   -0.1164 H   0  0  0  0  0  0  0  0  0  0  0  0
    8.4937    2.4698   -0.9155 H   0  0  0  0  0  0  0  0  0  0  0  0
    9.4660    1.0004   -2.6654 H   0  0  0  0  0  0  0  0  0  0  0  0
    8.0981   -0.8419   -3.6125 H   0  0  0  0  0  0  0  0  0  0  0  0
    5.8092   -1.2048   -2.8518 H   0  0  0  0  0  0  0  0  0  0  0  0
    3.3416   -1.0609   -2.1922 H   0  0  0  0  0  0  0  0  0  0  0  0
    4.4662   -1.9041   -1.1068 H   0  0  0  0  0  0  0  0  0  0  0  0
    2.2088   -2.2464   -0.2345 H   0  0  0  0  0  0  0  0  0  0  0  0
    3.1601   -1.2821    0.8681 H   0  0  0  0  0  0  0  0  0  0  0  0
    0.8771    0.9014    1.7366 H   0  0  0  0  0  0  0  0  0  0  0  0
   -0.3431    1.8260    2.4956 H   0  0  0  0  0  0  0  0  0  0  0  0
    0.6735   -1.7719    1.9452 H   0  0  0  0  0  0  0  0  0  0  0  0
    0.2988   -3.5341    3.6285 H   0  0  0  0  0  0  0  0  0  0  0  0
   -0.9708   -3.0325    5.7002 H   0  0  0  0  0  0  0  0  0  0  0  0
   -1.8743   -0.7557    6.0778 H   0  0  0  0  0  0  0  0  0  0  0  0
   -1.5154    1.0193    4.3992 H   0  0  0  0  0  0  0  0  0  0  0  0
  1  2  2  0
  2  3  1  0
  3  4  1  0
  4  5  1  0
  5  6  2  0
  6  7  1  0
  7  8  2  0
  8  9  1  0
  9 10  2  0
  3 11  1  0
 11 12  1  0
 12 13  2  0
 13 14  1  0
 14 15  2  0
 15 16  1  0
 16 17  1  0
 17 18  1  0
 18 19  1  0
 19 20  1  0
 20 21  1  0
 21 22  2  0
 22 23  1  0
 23 24  2  0
 24 25  1  0
 25 26  2  0
 20 27  1  0
 27 28  1  0
 16 29  2  0
 29 30  1  0
 30 31  1  0
 31 32  1  0
 32 33  2  0
 33 34  1  0
 34 35  2  0
 35 36  1  0
 36 37  2  0
 30  2  1  0
 37 32  1  0
 10  5  1  0
 29 12  1  0
 28 17  1  0
 26 21  1  0
  3 38  1  0
  4 39  1  0
  4 40  1  0
  6 41  1  0
  7 42  1  0
  8 43  1  0
  9 44  1  0
 10 45  1  0
 11 46  1  0
 14 47  1  0
 18 48  1  0
 18 49  1  0
 19 50  1  0
 19 51  1  0
 22 52  1  0
 23 53  1  0
 24 54  1  0
 25 55  1  0
 26 56  1  0
 27 57  1  0
 27 58  1  0
 28 59  1  0
 28 60  1  0
 31 61  1  0
 31 62  1  0
 33 63  1  0
 34 64  1  0
 35 65  1  0
 36 66  1  0
 37 67  1  0
M  END
$$$$
