
     RDKit          3D

 46 46  0  0  0  0  0  0  0  0999 V2000
   -1.8490    0.3223    2.2906 O   0  0  0  0  0  0  0  0  0  0  0  0
   -1.8504    0.5970    1.0965 C   0  0  0  0  0  0  0  0  0  0  0  0
   -0.5960    0.6632    0.2549 C   0  0  0  0  0  0  0  0  0  0  0  0
    0.6518    0.3909    1.0851 C   0  0  0  0  0  0  0  0  0  0  0  0
    1.8914    0.4531    0.2330 C   0  0  0  0  0  0  0  0  0  0  0  0
    1.9066    0.6303   -0.9773 O   0  0  0  0  0  0  0  0  0  0  0  0
    2.9934    0.2684    1.0127 O   0  0  0  0  0  0  0  0  0  0  0  0
    4.2582    0.3248    0.3324 C   0  0  0  0  0  0  0  0  0  0  0  0
    4.6077   -1.0528   -0.2258 C   0  0  0  0  0  0  0  0  0  0  0  0
    5.8380   -1.0737   -1.1384 C   0  0  0  0  0  0  0  0  0  0  0  0
    7.1315   -0.6355   -0.4565 C   0  0  0  0  0  0  0  0  0  0  0  0
    7.2766   -1.3371    0.7021 F   0  0  0  0  0  0  0  0  0  0  0  0
    7.0209    0.6739   -0.0967 F   0  0  0  0  0  0  0  0  0  0  0  0
    8.3517   -0.8330   -1.3605 C   0  0  0  0  0  0  0  0  0  0  0  0
    8.5059   -2.1332   -1.7137 F   0  0  0  0  0  0  0  0  0  0  0  0
    8.2365   -0.1252   -2.5117 F   0  0  0  0  0  0  0  0  0  0  0  0
    9.5003   -0.4410   -0.7615 F   0  0  0  0  0  0  0  0  0  0  0  0
   -2.9922    0.8810    0.3761 N   0  0  0  0  0  0  0  0  0  0  0  0
   -4.3204    0.7645    0.9683 C   0  0  0  0  0  0  0  0  0  0  0  0
   -4.7489   -0.7137    1.0171 C   0  0  0  0  0  0  0  0  0  0  0  0
   -6.2631   -0.8685    0.9642 C   0  0  0  0  0  0  0  0  0  0  0  0
   -6.8451   -0.2946   -0.3288 C   0  0  0  0  0  0  0  0  0  0  0  0
   -6.0472    0.8858   -0.8870 C   0  0  0  0  0  0  0  0  0  0  0  0
   -5.3247    1.6529    0.2149 C   0  0  0  0  0  0  0  0  0  0  0  0
   -0.6828   -0.0753   -0.5513 H   0  0  0  0  0  0  0  0  0  0  0  0
   -0.5358    1.6578   -0.2032 H   0  0  0  0  0  0  0  0  0  0  0  0
    0.7402    1.1373    1.8827 H   0  0  0  0  0  0  0  0  0  0  0  0
    0.5946   -0.6051    1.5387 H   0  0  0  0  0  0  0  0  0  0  0  0
    4.2481    1.0936   -0.4492 H   0  0  0  0  0  0  0  0  0  0  0  0
    4.9944    0.6320    1.0814 H   0  0  0  0  0  0  0  0  0  0  0  0
    4.7461   -1.7522    0.6082 H   0  0  0  0  0  0  0  0  0  0  0  0
    3.7534   -1.4457   -0.7910 H   0  0  0  0  0  0  0  0  0  0  0  0
    5.9552   -2.0997   -1.5080 H   0  0  0  0  0  0  0  0  0  0  0  0
    5.6464   -0.4322   -2.0068 H   0  0  0  0  0  0  0  0  0  0  0  0
   -2.9238    0.9054   -0.6338 H   0  0  0  0  0  0  0  0  0  0  0  0
   -4.2477    1.1428    1.9961 H   0  0  0  0  0  0  0  0  0  0  0  0
   -4.3078   -1.2690    0.1784 H   0  0  0  0  0  0  0  0  0  0  0  0
   -4.3566   -1.1792    1.9293 H   0  0  0  0  0  0  0  0  0  0  0  0
   -6.5411   -1.9246    1.0552 H   0  0  0  0  0  0  0  0  0  0  0  0
   -6.7081   -0.3538    1.8250 H   0  0  0  0  0  0  0  0  0  0  0  0
   -7.8810    0.0128   -0.1409 H   0  0  0  0  0  0  0  0  0  0  0  0
   -6.8942   -1.0784   -1.0945 H   0  0  0  0  0  0  0  0  0  0  0  0
   -5.3118    0.5175   -1.6134 H   0  0  0  0  0  0  0  0  0  0  0  0
   -6.7191    1.5545   -1.4369 H   0  0  0  0  0  0  0  0  0  0  0  0
   -4.8278    2.5356   -0.2051 H   0  0  0  0  0  0  0  0  0  0  0  0
   -6.0742    2.0263    0.9250 H   0  0  0  0  0  0  0  0  0  0  0  0
  1  2  2  0
  2  3  1  0
  3  4  1  0
  4  5  1  0
  5  6  2  0
  5  7  1  0
  7  8  1  0
  8  9  1  0
  9 10  1  0
 10 11  1  0
 11 12  1  0
 11 13  1  0
 11 14  1  0
 14 15  1  0
 14 16  1  0
 14 17  1  0
  2 18  1  0
 18 19  1  0
 19 20  1  0
 20 21  1  0
 21 22  1  0
 22 23  1  0
 23 24  1  0
 24 19  1  0
  3 25  1  0
  3 26  1  0
  4 27  1  0
  4 28  1  0
  8 29  1  0
  8 30  1  0
  9 31  1  0
  9 32  1  0
 10 33  1  0
 10 34  1  0
 18 35  1  0
 19 36  1  0
 20 37  1  0
 20 38  1  0
 21 39  1  0
 21 40  1  0
 22 41  1  0
 22 42  1  0
 23 43  1  0
 23 44  1  0
 24 45  1  0
 24 46  1  0
M  END
$$$$
