
     RDKit          3D

 54 58  0  0  0  0  0  0  0  0999 V2000
   -5.3999   -1.7830   -1.6517 C   0  0  0  0  0  0  0  0  0  0  0  0
   -5.3104   -1.9725   -0.1431 C   0  0  0  0  0  0  0  0  0  0  0  0
   -3.9594   -2.5635    0.3054 C   0  0  0  0  0  0  0  0  0  0  0  0
   -3.9581   -2.8619    1.8083 C   0  0  0  0  0  0  0  0  0  0  0  0
   -2.8010   -1.7466   -0.0898 N   0  0  0  0  0  0  0  0  0  0  0  0
   -1.8582   -2.2989   -0.9551 C   0  0  0  0  0  0  0  0  0  0  0  0
   -0.7837   -1.7191   -1.3982 N   0  0  0  0  0  0  0  0  0  0  0  0
   -0.6250   -0.4619   -0.9259 C   0  0  0  0  0  0  0  0  0  0  0  0
   -1.4664    0.2200   -0.0726 C   0  0  0  0  0  0  0  0  0  0  0  0
   -2.6559   -0.4386    0.4067 C   0  0  0  0  0  0  0  0  0  0  0  0
   -3.4525    0.0993    1.1682 O   0  0  0  0  0  0  0  0  0  0  0  0
   -0.9187    1.5000    0.1356 C   0  0  0  0  0  0  0  0  0  0  0  0
   -1.3486    2.5553    0.8699 N   0  0  0  0  0  0  0  0  0  0  0  0
   -0.5529    3.6345    0.8190 C   0  0  0  0  0  0  0  0  0  0  0  0
   -0.9232    4.7575    1.5475 C   0  0  0  0  0  0  0  0  0  0  0  0
   -0.1502    5.9192    1.5448 C   0  0  0  0  0  0  0  0  0  0  0  0
    1.0184    5.9606    0.7978 C   0  0  0  0  0  0  0  0  0  0  0  0
    1.4033    4.8395    0.0606 C   0  0  0  0  0  0  0  0  0  0  0  0
    0.6445    3.6758    0.0539 C   0  0  0  0  0  0  0  0  0  0  0  0
    1.0797    2.6365   -0.6799 N   0  0  0  0  0  0  0  0  0  0  0  0
    0.2614    1.5662   -0.6021 C   0  0  0  0  0  0  0  0  0  0  0  0
    0.4380    0.3542   -1.2248 N   0  0  0  0  0  0  0  0  0  0  0  0
    1.5547    0.0185   -2.0907 C   0  0  0  0  0  0  0  0  0  0  0  0
    2.6842   -0.6143   -1.3159 C   0  0  0  0  0  0  0  0  0  0  0  0
    3.6551    0.1798   -0.6904 C   0  0  0  0  0  0  0  0  0  0  0  0
    4.6952   -0.4039    0.0419 C   0  0  0  0  0  0  0  0  0  0  0  0
    4.7764   -1.7908    0.1619 C   0  0  0  0  0  0  0  0  0  0  0  0
    5.7362   -2.4857    0.8451 O   0  0  0  0  0  0  0  0  0  0  0  0
    6.7303   -1.7184    1.5119 C   0  0  0  0  0  0  0  0  0  0  0  0
    3.8074   -2.5854   -0.4541 C   0  0  0  0  0  0  0  0  0  0  0  0
    2.7671   -2.0057   -1.1842 C   0  0  0  0  0  0  0  0  0  0  0  0
   -4.6762   -1.0425   -2.0056 H   0  0  0  0  0  0  0  0  0  0  0  0
   -5.2160   -2.7254   -2.1773 H   0  0  0  0  0  0  0  0  0  0  0  0
   -6.3991   -1.4311   -1.9276 H   0  0  0  0  0  0  0  0  0  0  0  0
   -6.1157   -2.6503    0.1669 H   0  0  0  0  0  0  0  0  0  0  0  0
   -5.5090   -1.0143    0.3482 H   0  0  0  0  0  0  0  0  0  0  0  0
   -3.8631   -3.5372   -0.1932 H   0  0  0  0  0  0  0  0  0  0  0  0
   -4.1415   -1.9667    2.4097 H   0  0  0  0  0  0  0  0  0  0  0  0
   -4.7379   -3.5902    2.0557 H   0  0  0  0  0  0  0  0  0  0  0  0
   -2.9949   -3.2813    2.1186 H   0  0  0  0  0  0  0  0  0  0  0  0
   -2.0802   -3.3290   -1.2764 H   0  0  0  0  0  0  0  0  0  0  0  0
   -1.8398    4.7245    2.1328 H   0  0  0  0  0  0  0  0  0  0  0  0
   -0.4644    6.7834    2.1246 H   0  0  0  0  0  0  0  0  0  0  0  0
    1.6311    6.8584    0.7851 H   0  0  0  0  0  0  0  0  0  0  0  0
    2.3193    4.8743   -0.5245 H   0  0  0  0  0  0  0  0  0  0  0  0
    1.8919    0.9320   -2.5946 H   0  0  0  0  0  0  0  0  0  0  0  0
    1.1924   -0.6521   -2.8787 H   0  0  0  0  0  0  0  0  0  0  0  0
    3.6025    1.2653   -0.7622 H   0  0  0  0  0  0  0  0  0  0  0  0
    5.4198    0.2551    0.5078 H   0  0  0  0  0  0  0  0  0  0  0  0
    7.3206   -1.1326    0.7995 H   0  0  0  0  0  0  0  0  0  0  0  0
    7.4097   -2.4148    2.0129 H   0  0  0  0  0  0  0  0  0  0  0  0
    6.2856   -1.0770    2.2800 H   0  0  0  0  0  0  0  0  0  0  0  0
    3.8597   -3.6671   -0.3596 H   0  0  0  0  0  0  0  0  0  0  0  0
    2.0175   -2.6479   -1.6422 H   0  0  0  0  0  0  0  0  0  0  0  0
  1  2  1  0
  2  3  1  0
  3  4  1  0
  3  5  1  0
  5  6  1  0
  6  7  2  0
  7  8  1  0
  8  9  2  0
  9 10  1  0
 10 11  2  0
  9 12  1  0
 12 13  2  0
 13 14  1  0
 14 15  2  0
 15 16  1  0
 16 17  2  0
 17 18  1  0
 18 19  2  0
 19 20  1  0
 20 21  2  0
 21 22  1  0
 22 23  1  0
 23 24  1  0
 24 25  2  0
 25 26  1  0
 26 27  2  0
 27 28  1  0
 28 29  1  0
 27 30  1  0
 30 31  2  0
 10  5  1  0
 21 12  1  0
 31 24  1  0
 22  8  1  0
 19 14  1  0
  1 32  1  0
  1 33  1  0
  1 34  1  0
  2 35  1  0
  2 36  1  0
  3 37  1  0
  4 38  1  0
  4 39  1  0
  4 40  1  0
  6 41  1  0
 15 42  1  0
 16 43  1  0
 17 44  1  0
 18 45  1  0
 23 46  1  0
 23 47  1  0
 25 48  1  0
 26 49  1  0
 29 50  1  0
 29 51  1  0
 29 52  1  0
 30 53  1  0
 31 54  1  0
M  END
$$$$
