
     RDKit          3D

 80 83  0  0  0  0  0  0  0  0999 V2000
   -6.6148   -6.2342   -1.5213 C   0  0  0  0  0  0  0  0  0  0  0  0
   -6.0069   -4.9744   -0.9254 C   0  0  0  0  0  0  0  0  0  0  0  0
   -5.7743   -3.9056   -1.9931 C   0  0  0  0  0  0  0  0  0  0  0  0
   -5.1598   -2.6400   -1.3902 C   0  0  0  0  0  0  0  0  0  0  0  0
   -4.9225   -1.5746   -2.4632 C   0  0  0  0  0  0  0  0  0  0  0  0
   -4.4189   -0.2442   -1.8976 C   0  0  0  0  0  0  0  0  0  0  0  0
   -3.0266   -0.3378   -1.2753 C   0  0  0  0  0  0  0  0  0  0  0  0
   -2.4988    1.0164   -0.8256 C   0  0  0  0  0  0  0  0  0  0  0  0
   -3.1450    2.0512   -0.9472 O   0  0  0  0  0  0  0  0  0  0  0  0
   -1.2357    0.9069   -0.2829 N   0  0  0  0  0  0  0  0  0  0  0  0
   -0.4155    1.9214    0.2538 C   0  0  0  0  0  0  0  0  0  0  0  0
   -0.8093    3.2543    0.3845 C   0  0  0  0  0  0  0  0  0  0  0  0
    0.0823    4.1991    0.9066 C   0  0  0  0  0  0  0  0  0  0  0  0
   -0.2830    5.6366    1.0663 C   0  0  0  0  0  0  0  0  0  0  0  0
    0.3302    6.3355    1.8665 O   0  0  0  0  0  0  0  0  0  0  0  0
   -1.2959    6.1162    0.2617 N   0  0  0  0  0  0  0  0  0  0  0  0
   -1.6912    7.5094    0.2867 C   0  0  0  0  0  0  0  0  0  0  0  0
   -0.7954    8.3630   -0.6063 C   0  0  0  0  0  0  0  0  0  0  0  0
   -1.2417    9.8158   -0.6152 C   0  0  0  0  0  0  0  0  0  0  0  0
    1.3562    3.7923    1.3258 C   0  0  0  0  0  0  0  0  0  0  0  0
    1.7493    2.4565    1.2121 C   0  0  0  0  0  0  0  0  0  0  0  0
    0.8740    1.5067    0.6718 C   0  0  0  0  0  0  0  0  0  0  0  0
    1.2082    0.1283    0.5531 N   0  0  0  0  0  0  0  0  0  0  0  0
    2.4496   -0.1033   -0.2038 C   0  0  0  0  0  0  0  0  0  0  0  0
    2.6145   -1.6022   -0.4409 C   0  0  0  0  0  0  0  0  0  0  0  0
    2.5542   -2.4005    0.8729 C   0  0  0  0  0  0  0  0  0  0  0  0
    1.2850   -2.0419    1.6532 C   0  0  0  0  0  0  0  0  0  0  0  0
    1.1732   -0.5368    1.8680 C   0  0  0  0  0  0  0  0  0  0  0  0
    3.8135   -2.2703    1.7208 C   0  0  0  0  0  0  0  0  0  0  0  0
    4.5488   -3.4684    1.2226 C   0  0  0  0  0  0  0  0  0  0  0  0
    5.9935   -3.6716    1.4786 C   0  0  0  0  0  0  0  0  0  0  0  0
    6.6381   -4.7663    0.8887 C   0  0  0  0  0  0  0  0  0  0  0  0
    7.9977   -4.9884    1.1149 C   0  0  0  0  0  0  0  0  0  0  0  0
    8.7187   -4.1196    1.9320 C   0  0  0  0  0  0  0  0  0  0  0  0
    8.0825   -3.0290    2.5237 C   0  0  0  0  0  0  0  0  0  0  0  0
    6.7213   -2.8037    2.3007 C   0  0  0  0  0  0  0  0  0  0  0  0
    3.8148   -4.3170    0.5757 N   0  0  0  0  0  0  0  0  0  0  0  0
    2.4987   -3.8019    0.5472 O   0  0  0  0  0  0  0  0  0  0  0  0
   -6.7862   -6.9794   -0.7378 H   0  0  0  0  0  0  0  0  0  0  0  0
   -5.9478   -6.6748   -2.2698 H   0  0  0  0  0  0  0  0  0  0  0  0
   -7.5754   -6.0184   -2.0009 H   0  0  0  0  0  0  0  0  0  0  0  0
   -5.0577   -5.2291   -0.4394 H   0  0  0  0  0  0  0  0  0  0  0  0
   -6.6752   -4.5852   -0.1485 H   0  0  0  0  0  0  0  0  0  0  0  0
   -5.1116   -4.3016   -2.7723 H   0  0  0  0  0  0  0  0  0  0  0  0
   -6.7273   -3.6567   -2.4759 H   0  0  0  0  0  0  0  0  0  0  0  0
   -4.2139   -2.8991   -0.9016 H   0  0  0  0  0  0  0  0  0  0  0  0
   -5.8278   -2.2410   -0.6172 H   0  0  0  0  0  0  0  0  0  0  0  0
   -5.8638   -1.3852   -2.9944 H   0  0  0  0  0  0  0  0  0  0  0  0
   -4.2101   -1.9509   -3.2079 H   0  0  0  0  0  0  0  0  0  0  0  0
   -5.1329    0.1371   -1.1568 H   0  0  0  0  0  0  0  0  0  0  0  0
   -4.4001    0.4895   -2.7135 H   0  0  0  0  0  0  0  0  0  0  0  0
   -2.3220   -0.7544   -2.0047 H   0  0  0  0  0  0  0  0  0  0  0  0
   -3.0460   -0.9941   -0.3985 H   0  0  0  0  0  0  0  0  0  0  0  0
   -0.7707    0.0013   -0.2920 H   0  0  0  0  0  0  0  0  0  0  0  0
   -1.8137    3.5532    0.1123 H   0  0  0  0  0  0  0  0  0  0  0  0
   -1.6577    5.5433   -0.4891 H   0  0  0  0  0  0  0  0  0  0  0  0
   -1.6582    7.8725    1.3202 H   0  0  0  0  0  0  0  0  0  0  0  0
   -2.7300    7.5529   -0.0577 H   0  0  0  0  0  0  0  0  0  0  0  0
    0.2444    8.3060   -0.2631 H   0  0  0  0  0  0  0  0  0  0  0  0
   -0.8108    7.9721   -1.6310 H   0  0  0  0  0  0  0  0  0  0  0  0
   -0.5837   10.4105   -1.2565 H   0  0  0  0  0  0  0  0  0  0  0  0
   -2.2636    9.9095   -0.9965 H   0  0  0  0  0  0  0  0  0  0  0  0
   -1.2101   10.2422    0.3926 H   0  0  0  0  0  0  0  0  0  0  0  0
    2.0463    4.5201    1.7501 H   0  0  0  0  0  0  0  0  0  0  0  0
    2.7371    2.1724    1.5615 H   0  0  0  0  0  0  0  0  0  0  0  0
    2.3962    0.4006   -1.1770 H   0  0  0  0  0  0  0  0  0  0  0  0
    3.3240    0.2916    0.3265 H   0  0  0  0  0  0  0  0  0  0  0  0
    1.8179   -1.9561   -1.1100 H   0  0  0  0  0  0  0  0  0  0  0  0
    3.5531   -1.7969   -0.9744 H   0  0  0  0  0  0  0  0  0  0  0  0
    0.4069   -2.4015    1.0990 H   0  0  0  0  0  0  0  0  0  0  0  0
    1.2587   -2.5678    2.6155 H   0  0  0  0  0  0  0  0  0  0  0  0
    1.9857   -0.1807    2.5143 H   0  0  0  0  0  0  0  0  0  0  0  0
    0.2243   -0.3280    2.3782 H   0  0  0  0  0  0  0  0  0  0  0  0
    4.3584   -1.3379    1.5628 H   0  0  0  0  0  0  0  0  0  0  0  0
    3.6184   -2.4125    2.7894 H   0  0  0  0  0  0  0  0  0  0  0  0
    6.0856   -5.4544    0.2512 H   0  0  0  0  0  0  0  0  0  0  0  0
    8.4912   -5.8419    0.6568 H   0  0  0  0  0  0  0  0  0  0  0  0
    9.7770   -4.2954    2.1106 H   0  0  0  0  0  0  0  0  0  0  0  0
    8.6478   -2.3564    3.1648 H   0  0  0  0  0  0  0  0  0  0  0  0
    6.2544   -1.9530    2.7862 H   0  0  0  0  0  0  0  0  0  0  0  0
  1  2  1  0
  2  3  1  0
  3  4  1  0
  4  5  1  0
  5  6  1  0
  6  7  1  0
  7  8  1  0
  8  9  2  0
  8 10  1  0
 10 11  1  0
 11 12  2  0
 12 13  1  0
 13 14  1  0
 14 15  2  0
 14 16  1  0
 16 17  1  0
 17 18  1  0
 18 19  1  0
 13 20  2  0
 20 21  1  0
 21 22  2  0
 22 23  1  0
 23 24  1  0
 24 25  1  0
 25 26  1  0
 26 27  1  0
 27 28  1  0
 26 29  1  0
 29 30  1  0
 30 31  1  0
 31 32  2  0
 32 33  1  0
 33 34  2  0
 34 35  1  0
 35 36  2  0
 30 37  2  0
 37 38  1  0
 22 11  1  0
 28 23  1  0
 36 31  1  0
 38 26  1  0
  1 39  1  0
  1 40  1  0
  1 41  1  0
  2 42  1  0
  2 43  1  0
  3 44  1  0
  3 45  1  0
  4 46  1  0
  4 47  1  0
  5 48  1  0
  5 49  1  0
  6 50  1  0
  6 51  1  0
  7 52  1  0
  7 53  1  0
 10 54  1  0
 12 55  1  0
 16 56  1  0
 17 57  1  0
 17 58  1  0
 18 59  1  0
 18 60  1  0
 19 61  1  0
 19 62  1  0
 19 63  1  0
 20 64  1  0
 21 65  1  0
 24 66  1  0
 24 67  1  0
 25 68  1  0
 25 69  1  0
 27 70  1  0
 27 71  1  0
 28 72  1  0
 28 73  1  0
 29 74  1  0
 29 75  1  0
 32 76  1  0
 33 77  1  0
 34 78  1  0
 35 79  1  0
 36 80  1  0
M  END
$$$$
