
     RDKit          3D

 62 64  0  0  0  0  0  0  0  0999 V2000
    5.5688    2.3986    0.7423 C   0  0  0  0  0  0  0  0  0  0  0  0
    6.1234    1.0678    1.1867 C   0  0  0  0  0  0  0  0  0  0  0  0
    7.1850    1.0767    2.1061 C   0  0  0  0  0  0  0  0  0  0  0  0
    7.7621   -0.1114    2.5338 C   0  0  0  0  0  0  0  0  0  0  0  0
    7.2618   -1.3229    2.0714 C   0  0  0  0  0  0  0  0  0  0  0  0
    6.1787   -1.3739    1.1705 C   0  0  0  0  0  0  0  0  0  0  0  0
    5.6610   -2.7489    0.8397 C   0  0  0  0  0  0  0  0  0  0  0  0
    5.6357   -0.1668    0.6811 C   0  0  0  0  0  0  0  0  0  0  0  0
    4.5832   -0.0990   -0.2620 N   0  0  0  0  0  0  0  0  0  0  0  0
    4.3773   -0.9077   -1.3679 C   0  0  0  0  0  0  0  0  0  0  0  0
    5.0779   -1.8464   -1.7363 O   0  0  0  0  0  0  0  0  0  0  0  0
    3.1541   -0.4829   -2.1859 C   0  0  0  0  0  0  0  0  0  0  0  0
    2.5171    0.6768   -1.6330 O   0  0  0  0  0  0  0  0  0  0  0  0
    1.4126    1.0760   -2.3274 C   0  0  0  0  0  0  0  0  0  0  0  0
    1.0186    0.5665   -3.3679 O   0  0  0  0  0  0  0  0  0  0  0  0
    0.7871    2.2753   -1.6551 C   0  0  0  0  0  0  0  0  0  0  0  0
   -0.7176    2.3622   -1.9061 C   0  0  0  0  0  0  0  0  0  0  0  0
   -1.5018    1.3473   -1.1042 C   0  0  0  0  0  0  0  0  0  0  0  0
   -1.8126    0.0955   -1.6547 C   0  0  0  0  0  0  0  0  0  0  0  0
   -2.5087   -0.8536   -0.9065 C   0  0  0  0  0  0  0  0  0  0  0  0
   -2.9169   -0.5456    0.3938 C   0  0  0  0  0  0  0  0  0  0  0  0
   -3.7788   -1.7716    1.3605 S   0  0  0  0  0  6  0  0  0  0  0  0
   -3.4999   -1.4957    2.7546 O   0  0  0  0  0  0  0  0  0  0  0  0
   -3.4858   -3.0667    0.7819 O   0  0  0  0  0  0  0  0  0  0  0  0
   -5.4117   -1.4197    1.0608 N   0  0  0  0  0  0  0  0  0  0  0  0
   -5.9568   -1.7360   -0.2825 C   0  0  0  0  0  0  0  0  0  0  0  0
   -6.6274   -0.5193   -0.9078 C   0  0  0  0  0  0  0  0  0  0  0  0
   -7.7655    0.0091   -0.0357 C   0  0  0  0  0  0  0  0  0  0  0  0
   -7.4892   -0.1677    1.4566 C   0  0  0  0  0  0  0  0  0  0  0  0
   -5.9948   -0.2471    1.7486 C   0  0  0  0  0  0  0  0  0  0  0  0
   -2.5940    0.6878    0.9645 C   0  0  0  0  0  0  0  0  0  0  0  0
   -1.8928    1.6327    0.2130 C   0  0  0  0  0  0  0  0  0  0  0  0
    4.5219    2.4917    1.0489 H   0  0  0  0  0  0  0  0  0  0  0  0
    6.1167    3.2378    1.1884 H   0  0  0  0  0  0  0  0  0  0  0  0
    5.6491    2.5018   -0.3457 H   0  0  0  0  0  0  0  0  0  0  0  0
    7.5832    2.0168    2.4820 H   0  0  0  0  0  0  0  0  0  0  0  0
    8.5935   -0.0954    3.2331 H   0  0  0  0  0  0  0  0  0  0  0  0
    7.7102   -2.2466    2.4332 H   0  0  0  0  0  0  0  0  0  0  0  0
    6.2336   -3.1823    0.0142 H   0  0  0  0  0  0  0  0  0  0  0  0
    5.7650   -3.4126    1.7089 H   0  0  0  0  0  0  0  0  0  0  0  0
    4.5944   -2.7407    0.6044 H   0  0  0  0  0  0  0  0  0  0  0  0
    4.0716    0.7718   -0.3119 H   0  0  0  0  0  0  0  0  0  0  0  0
    2.4503   -1.3223   -2.1901 H   0  0  0  0  0  0  0  0  0  0  0  0
    3.5004   -0.2588   -3.2012 H   0  0  0  0  0  0  0  0  0  0  0  0
    0.9909    2.2346   -0.5783 H   0  0  0  0  0  0  0  0  0  0  0  0
    1.2834    3.1639   -2.0625 H   0  0  0  0  0  0  0  0  0  0  0  0
   -1.0682    3.3666   -1.6333 H   0  0  0  0  0  0  0  0  0  0  0  0
   -0.9481    2.2491   -2.9732 H   0  0  0  0  0  0  0  0  0  0  0  0
   -1.5021   -0.1528   -2.6695 H   0  0  0  0  0  0  0  0  0  0  0  0
   -2.7199   -1.8287   -1.3392 H   0  0  0  0  0  0  0  0  0  0  0  0
   -5.1753   -2.0929   -0.9605 H   0  0  0  0  0  0  0  0  0  0  0  0
   -6.6778   -2.5568   -0.1753 H   0  0  0  0  0  0  0  0  0  0  0  0
   -7.0086   -0.7676   -1.9051 H   0  0  0  0  0  0  0  0  0  0  0  0
   -5.8827    0.2759   -1.0464 H   0  0  0  0  0  0  0  0  0  0  0  0
   -7.9282    1.0699   -0.2642 H   0  0  0  0  0  0  0  0  0  0  0  0
   -8.7007   -0.5076   -0.2873 H   0  0  0  0  0  0  0  0  0  0  0  0
   -7.9741   -1.0893    1.8021 H   0  0  0  0  0  0  0  0  0  0  0  0
   -7.9446    0.6559    2.0177 H   0  0  0  0  0  0  0  0  0  0  0  0
   -5.8576   -0.3527    2.8302 H   0  0  0  0  0  0  0  0  0  0  0  0
   -5.5007    0.6753    1.4259 H   0  0  0  0  0  0  0  0  0  0  0  0
   -2.8782    0.9146    1.9896 H   0  0  0  0  0  0  0  0  0  0  0  0
   -1.6475    2.5920    0.6629 H   0  0  0  0  0  0  0  0  0  0  0  0
  1  2  1  0
  2  3  2  0
  3  4  1  0
  4  5  2  0
  5  6  1  0
  6  7  1  0
  6  8  2  0
  8  9  1  0
  9 10  1  0
 10 11  2  0
 10 12  1  0
 12 13  1  0
 13 14  1  0
 14 15  2  0
 14 16  1  0
 16 17  1  0
 17 18  1  0
 18 19  2  0
 19 20  1  0
 20 21  2  0
 21 22  1  0
 22 23  2  0
 22 24  2  0
 22 25  1  0
 25 26  1  0
 26 27  1  0
 27 28  1  0
 28 29  1  0
 29 30  1  0
 21 31  1  0
 31 32  2  0
  8  2  1  0
 32 18  1  0
 30 25  1  0
  1 33  1  0
  1 34  1  0
  1 35  1  0
  3 36  1  0
  4 37  1  0
  5 38  1  0
  7 39  1  0
  7 40  1  0
  7 41  1  0
  9 42  1  0
 12 43  1  0
 12 44  1  0
 16 45  1  0
 16 46  1  0
 17 47  1  0
 17 48  1  0
 19 49  1  0
 20 50  1  0
 26 51  1  0
 26 52  1  0
 27 53  1  0
 27 54  1  0
 28 55  1  0
 28 56  1  0
 29 57  1  0
 29 58  1  0
 30 59  1  0
 30 60  1  0
 31 61  1  0
 32 62  1  0
M  END
$$$$
