
     RDKit          3D

 42 44  0  0  0  0  0  0  0  0999 V2000
   -1.3024   -4.3364   -1.2702 C   0  0  0  0  0  0  0  0  0  0  0  0
   -1.4536   -4.2880    0.2405 C   0  0  0  0  0  0  0  0  0  0  0  0
   -2.6626   -3.0245    0.7611 S   0  0  0  0  0  0  0  0  0  0  0  0
   -1.7290   -1.5166    0.5249 C   0  0  0  0  0  0  0  0  0  0  0  0
   -2.4102   -0.3182    0.5143 C   0  0  0  0  0  0  0  0  0  0  0  0
   -1.6721    0.8335    0.3416 C   0  0  0  0  0  0  0  0  0  0  0  0
   -2.2656    2.0741    0.2974 N   0  0  0  0  0  0  0  0  0  0  0  0
   -1.4361    3.2669    0.1682 C   0  0  0  0  0  0  0  0  0  0  0  0
   -2.4537    4.4010    0.2333 C   0  0  0  0  0  0  0  0  0  0  0  0
   -3.4749    3.8733    1.2281 C   0  0  0  0  0  0  0  0  0  0  0  0
   -3.5553    2.3800    0.9062 C   0  0  0  0  0  0  0  0  0  0  0  0
   -0.3407    0.7631    0.1741 N   0  0  0  0  0  0  0  0  0  0  0  0
    0.2516   -0.4452    0.2061 C   0  0  0  0  0  0  0  0  0  0  0  0
    1.7179   -0.4989    0.0305 C   0  0  0  0  0  0  0  0  0  0  0  0
    2.4277   -1.7104    0.1233 C   0  0  0  0  0  0  0  0  0  0  0  0
    3.8171   -1.7625   -0.0402 C   0  0  0  0  0  0  0  0  0  0  0  0
    4.5446   -0.5983   -0.2967 C   0  0  0  0  0  0  0  0  0  0  0  0
    6.0288   -0.6633   -0.5006 C   0  0  0  0  0  0  0  0  0  0  0  0
    3.8589    0.6127   -0.4070 C   0  0  0  0  0  0  0  0  0  0  0  0
    2.4695    0.6595   -0.2405 C   0  0  0  0  0  0  0  0  0  0  0  0
   -0.4004   -1.6029    0.3859 N   0  0  0  0  0  0  0  0  0  0  0  0
   -0.9009   -3.4028   -1.6758 H   0  0  0  0  0  0  0  0  0  0  0  0
   -2.2594   -4.5436   -1.7608 H   0  0  0  0  0  0  0  0  0  0  0  0
   -0.6100   -5.1384   -1.5466 H   0  0  0  0  0  0  0  0  0  0  0  0
   -1.8311   -5.2553    0.5883 H   0  0  0  0  0  0  0  0  0  0  0  0
   -0.4885   -4.1311    0.7323 H   0  0  0  0  0  0  0  0  0  0  0  0
   -3.4857   -0.2928    0.6212 H   0  0  0  0  0  0  0  0  0  0  0  0
   -0.8828    3.2904   -0.7765 H   0  0  0  0  0  0  0  0  0  0  0  0
   -0.7312    3.3445    1.0051 H   0  0  0  0  0  0  0  0  0  0  0  0
   -2.9249    4.5445   -0.7465 H   0  0  0  0  0  0  0  0  0  0  0  0
   -2.0066    5.3492    0.5442 H   0  0  0  0  0  0  0  0  0  0  0  0
   -3.1043    4.0145    2.2509 H   0  0  0  0  0  0  0  0  0  0  0  0
   -4.4453    4.3710    1.1471 H   0  0  0  0  0  0  0  0  0  0  0  0
   -4.3589    2.1812    0.1887 H   0  0  0  0  0  0  0  0  0  0  0  0
   -3.7450    1.8116    1.8234 H   0  0  0  0  0  0  0  0  0  0  0  0
    1.8948   -2.6375    0.3272 H   0  0  0  0  0  0  0  0  0  0  0  0
    4.3244   -2.7211    0.0371 H   0  0  0  0  0  0  0  0  0  0  0  0
    6.4902    0.3218   -0.3751 H   0  0  0  0  0  0  0  0  0  0  0  0
    6.4888   -1.3345    0.2321 H   0  0  0  0  0  0  0  0  0  0  0  0
    6.2526   -1.0258   -1.5086 H   0  0  0  0  0  0  0  0  0  0  0  0
    4.3964    1.5334   -0.6214 H   0  0  0  0  0  0  0  0  0  0  0  0
    1.9679    1.6218   -0.3292 H   0  0  0  0  0  0  0  0  0  0  0  0
  1  2  1  0
  2  3  1  0
  3  4  1  0
  4  5  2  0
  5  6  1  0
  6  7  1  0
  7  8  1  0
  8  9  1  0
  9 10  1  0
 10 11  1  0
  6 12  2  0
 12 13  1  0
 13 14  1  0
 14 15  2  0
 15 16  1  0
 16 17  2  0
 17 18  1  0
 17 19  1  0
 19 20  2  0
 13 21  2  0
 21  4  1  0
 11  7  1  0
 20 14  1  0
  1 22  1  0
  1 23  1  0
  1 24  1  0
  2 25  1  0
  2 26  1  0
  5 27  1  0
  8 28  1  0
  8 29  1  0
  9 30  1  0
  9 31  1  0
 10 32  1  0
 10 33  1  0
 11 34  1  0
 11 35  1  0
 15 36  1  0
 16 37  1  0
 18 38  1  0
 18 39  1  0
 18 40  1  0
 19 41  1  0
 20 42  1  0
M  END
$$$$
