
     RDKit          3D

 40 42  0  0  0  0  0  0  0  0999 V2000
   -2.0496   -1.8728    0.5821 O   0  0  0  0  0  0  0  0  0  0  0  0
   -1.6129   -0.7310    0.4327 C   0  0  0  0  0  0  0  0  0  0  0  0
   -2.5304    0.4836    0.3263 C   0  0  0  0  0  0  0  0  0  0  0  0
   -3.9853    0.1477    0.0871 C   0  0  0  0  0  0  0  0  0  0  0  0
   -4.8550   -0.0580    1.1680 C   0  0  0  0  0  0  0  0  0  0  0  0
   -6.1968   -0.3760    0.9470 C   0  0  0  0  0  0  0  0  0  0  0  0
   -6.6730   -0.4956   -0.3566 C   0  0  0  0  0  0  0  0  0  0  0  0
   -8.4894   -0.9262   -0.6564 Br  0  0  0  0  0  0  0  0  0  0  0  0
   -5.8196   -0.3048   -1.4410 C   0  0  0  0  0  0  0  0  0  0  0  0
   -4.4777    0.0129   -1.2194 C   0  0  0  0  0  0  0  0  0  0  0  0
   -0.2462   -0.4853    0.3668 N   0  0  0  0  0  0  0  0  0  0  0  0
    0.6720   -1.6309    0.3620 C   0  0  0  0  0  0  0  0  0  0  0  0
    2.0263   -1.3020   -0.2862 C   0  0  0  0  0  0  0  0  0  0  0  0
    2.6681   -0.1687    0.4008 N   0  0  0  0  0  0  0  0  0  0  0  0
    3.9434    0.1644   -0.0477 C   0  0  0  0  0  0  0  0  0  0  0  0
    4.7278    1.0906    0.6433 C   0  0  0  0  0  0  0  0  0  0  0  0
    6.0102    1.4023    0.1912 C   0  0  0  0  0  0  0  0  0  0  0  0
    6.4973    0.7757   -0.9436 C   0  0  0  0  0  0  0  0  0  0  0  0
    5.6772   -0.1421   -1.5693 C   0  0  0  0  0  0  0  0  0  0  0  0
    4.4320   -0.4556   -1.1449 N   0  0  0  0  0  0  0  0  0  0  0  0
    1.7877    0.9055    0.8845 C   0  0  0  0  0  0  0  0  0  0  0  0
    0.3758    0.8401    0.2661 C   0  0  0  0  0  0  0  0  0  0  0  0
   -2.4436    1.0623    1.2539 H   0  0  0  0  0  0  0  0  0  0  0  0
   -2.1885    1.1265   -0.4935 H   0  0  0  0  0  0  0  0  0  0  0  0
   -4.4896    0.0159    2.1900 H   0  0  0  0  0  0  0  0  0  0  0  0
   -6.8562   -0.5360    1.7956 H   0  0  0  0  0  0  0  0  0  0  0  0
   -6.1852   -0.4075   -2.4590 H   0  0  0  0  0  0  0  0  0  0  0  0
   -3.8180    0.1468   -2.0738 H   0  0  0  0  0  0  0  0  0  0  0  0
    0.8158   -1.9231    1.4094 H   0  0  0  0  0  0  0  0  0  0  0  0
    0.2072   -2.4754   -0.1586 H   0  0  0  0  0  0  0  0  0  0  0  0
    1.8662   -1.0608   -1.3454 H   0  0  0  0  0  0  0  0  0  0  0  0
    2.6629   -2.1933   -0.2264 H   0  0  0  0  0  0  0  0  0  0  0  0
    4.3621    1.5558    1.5520 H   0  0  0  0  0  0  0  0  0  0  0  0
    6.6215    2.1192    0.7310 H   0  0  0  0  0  0  0  0  0  0  0  0
    7.4895    0.9872   -1.3242 H   0  0  0  0  0  0  0  0  0  0  0  0
    6.0065   -0.6726   -2.4579 H   0  0  0  0  0  0  0  0  0  0  0  0
    1.7057    0.8062    1.9737 H   0  0  0  0  0  0  0  0  0  0  0  0
    2.1921    1.9033    0.6756 H   0  0  0  0  0  0  0  0  0  0  0  0
    0.4281    1.0786   -0.8031 H   0  0  0  0  0  0  0  0  0  0  0  0
   -0.2582    1.5932    0.7423 H   0  0  0  0  0  0  0  0  0  0  0  0
  1  2  2  0
  2  3  1  0
  3  4  1  0
  4  5  2  0
  5  6  1  0
  6  7  2  0
  7  8  1  0
  7  9  1  0
  9 10  2  0
  2 11  1  0
 11 12  1  0
 12 13  1  0
 13 14  1  0
 14 15  1  0
 15 16  2  0
 16 17  1  0
 17 18  2  0
 18 19  1  0
 19 20  2  0
 14 21  1  0
 21 22  1  0
 10  4  1  0
 22 11  1  0
 20 15  1  0
  3 23  1  0
  3 24  1  0
  5 25  1  0
  6 26  1  0
  9 27  1  0
 10 28  1  0
 12 29  1  0
 12 30  1  0
 13 31  1  0
 13 32  1  0
 16 33  1  0
 17 34  1  0
 18 35  1  0
 19 36  1  0
 21 37  1  0
 21 38  1  0
 22 39  1  0
 22 40  1  0
M  END
$$$$
