
     RDKit          3D

 57 60  0  0  0  0  0  0  0  0999 V2000
   -2.4107    6.4010   -0.2407 C   0  0  0  0  0  0  0  0  0  0  0  0
   -2.0952    4.9307   -0.5094 C   0  0  0  0  0  0  0  0  0  0  0  0
   -0.6397    4.6035   -0.1191 C   0  0  0  0  0  0  0  0  0  0  0  0
   -0.2599    3.1547   -0.4637 C   0  0  0  0  0  0  0  0  0  0  0  0
   -1.3321    2.1771   -0.0764 C   0  0  0  0  0  0  0  0  0  0  0  0
   -2.6180    2.5965    0.2144 C   0  0  0  0  0  0  0  0  0  0  0  0
   -3.6665    1.3060    0.5620 S   0  0  0  0  0  0  0  0  0  0  0  0
   -2.4312    0.1604    0.3116 C   0  0  0  0  0  0  0  0  0  0  0  0
   -2.6967   -1.1480    0.4362 N   0  0  0  0  0  0  0  0  0  0  0  0
   -1.6390   -1.9342    0.2076 C   0  0  0  0  0  0  0  0  0  0  0  0
   -1.8637   -3.4441    0.3003 C   0  0  0  0  0  0  0  0  0  0  0  0
   -0.5351   -4.2266    0.2610 C   0  0  0  0  0  0  0  0  0  0  0  0
   -2.5801   -3.7863    1.6203 C   0  0  0  0  0  0  0  0  0  0  0  0
   -2.7331   -3.8901   -0.8881 C   0  0  0  0  0  0  0  0  0  0  0  0
   -0.4077   -1.4988   -0.1225 N   0  0  0  0  0  0  0  0  0  0  0  0
   -0.1540   -0.1708   -0.2237 C   0  0  0  0  0  0  0  0  0  0  0  0
    1.1598    0.2543   -0.5124 N   0  0  0  0  0  0  0  0  0  0  0  0
    1.7818   -0.5672   -1.5784 C   0  0  0  0  0  0  0  0  0  0  0  0
    2.7028   -1.6732   -1.0328 C   0  0  0  0  0  0  0  0  0  0  0  0
    3.7472   -1.1458   -0.1398 N   0  0  0  0  0  0  0  0  0  0  0  0
    4.9642   -1.7573    0.1202 C   0  0  0  0  0  0  0  0  0  0  0  0
    5.8069   -1.2347    0.8546 O   0  0  0  0  0  0  0  0  0  0  0  0
    5.2406   -3.1105   -0.5089 C   0  0  0  0  0  0  0  0  0  0  0  0
    5.9455   -2.8804   -2.1203 Cl  0  0  0  0  0  0  0  0  0  0  0  0
    3.4396    0.1316    0.5160 C   0  0  0  0  0  0  0  0  0  0  0  0
    1.9310    0.3038    0.7572 C   0  0  0  0  0  0  0  0  0  0  0  0
   -1.2129    0.7359   -0.0115 C   0  0  0  0  0  0  0  0  0  0  0  0
   -3.0833    4.0198    0.2497 C   0  0  0  0  0  0  0  0  0  0  0  0
   -2.2776    6.6499    0.8181 H   0  0  0  0  0  0  0  0  0  0  0  0
   -3.4441    6.6334   -0.5183 H   0  0  0  0  0  0  0  0  0  0  0  0
   -1.7513    7.0512   -0.8256 H   0  0  0  0  0  0  0  0  0  0  0  0
   -2.2091    4.7503   -1.5870 H   0  0  0  0  0  0  0  0  0  0  0  0
    0.0540    5.2856   -0.6246 H   0  0  0  0  0  0  0  0  0  0  0  0
   -0.5070    4.7664    0.9587 H   0  0  0  0  0  0  0  0  0  0  0  0
    0.6850    2.9172    0.0319 H   0  0  0  0  0  0  0  0  0  0  0  0
   -0.0908    3.0732   -1.5450 H   0  0  0  0  0  0  0  0  0  0  0  0
    0.1287   -3.9291    1.0820 H   0  0  0  0  0  0  0  0  0  0  0  0
   -0.7092   -5.3055    0.3498 H   0  0  0  0  0  0  0  0  0  0  0  0
    0.0041   -4.0604   -0.6791 H   0  0  0  0  0  0  0  0  0  0  0  0
   -2.7257   -4.8683    1.7225 H   0  0  0  0  0  0  0  0  0  0  0  0
   -3.5698   -3.3186    1.6806 H   0  0  0  0  0  0  0  0  0  0  0  0
   -2.0014   -3.4435    2.4865 H   0  0  0  0  0  0  0  0  0  0  0  0
   -2.2483   -3.6576   -1.8440 H   0  0  0  0  0  0  0  0  0  0  0  0
   -3.7088   -3.3899   -0.8868 H   0  0  0  0  0  0  0  0  0  0  0  0
   -2.9175   -4.9702   -0.8602 H   0  0  0  0  0  0  0  0  0  0  0  0
    2.3888    0.1165   -2.1874 H   0  0  0  0  0  0  0  0  0  0  0  0
    1.0353   -0.9911   -2.2628 H   0  0  0  0  0  0  0  0  0  0  0  0
    2.1323   -2.4028   -0.4480 H   0  0  0  0  0  0  0  0  0  0  0  0
    3.1594   -2.2057   -1.8699 H   0  0  0  0  0  0  0  0  0  0  0  0
    5.9619   -3.6519    0.1104 H   0  0  0  0  0  0  0  0  0  0  0  0
    4.3379   -3.7204   -0.5811 H   0  0  0  0  0  0  0  0  0  0  0  0
    3.9759    0.2065    1.4681 H   0  0  0  0  0  0  0  0  0  0  0  0
    3.8144    0.9271   -0.1397 H   0  0  0  0  0  0  0  0  0  0  0  0
    1.6087   -0.4854    1.4508 H   0  0  0  0  0  0  0  0  0  0  0  0
    1.7533    1.2653    1.2504 H   0  0  0  0  0  0  0  0  0  0  0  0
   -3.1577    4.3362    1.2979 H   0  0  0  0  0  0  0  0  0  0  0  0
   -4.0816    4.1142   -0.1940 H   0  0  0  0  0  0  0  0  0  0  0  0
  1  2  1  0
  2  3  1  0
  3  4  1  0
  4  5  1  0
  5  6  2  0
  6  7  1  0
  7  8  1  0
  8  9  2  0
  9 10  1  0
 10 11  1  0
 11 12  1  0
 11 13  1  0
 11 14  1  0
 10 15  2  0
 15 16  1  0
 16 17  1  0
 17 18  1  0
 18 19  1  0
 19 20  1  0
 20 21  1  0
 21 22  2  0
 21 23  1  0
 23 24  1  0
 20 25  1  0
 25 26  1  0
 16 27  2  0
  6 28  1  0
 28  2  1  0
 27  5  1  0
 27  8  1  0
 26 17  1  0
  1 29  1  0
  1 30  1  0
  1 31  1  0
  2 32  1  0
  3 33  1  0
  3 34  1  0
  4 35  1  0
  4 36  1  0
 12 37  1  0
 12 38  1  0
 12 39  1  0
 13 40  1  0
 13 41  1  0
 13 42  1  0
 14 43  1  0
 14 44  1  0
 14 45  1  0
 18 46  1  0
 18 47  1  0
 19 48  1  0
 19 49  1  0
 23 50  1  0
 23 51  1  0
 25 52  1  0
 25 53  1  0
 26 54  1  0
 26 55  1  0
 28 56  1  0
 28 57  1  0
M  END
$$$$
