
     RDKit          3D

 62 66  0  0  0  0  0  0  0  0999 V2000
   -4.7149   -0.4248    3.3236 C   0  0  0  0  0  0  0  0  0  0  0  0
   -5.1506   -0.1701    1.9011 C   0  0  0  0  0  0  0  0  0  0  0  0
   -6.1669   -0.8813    1.3771 C   0  0  0  0  0  0  0  0  0  0  0  0
   -6.6391   -0.6646    0.0048 C   0  0  0  0  0  0  0  0  0  0  0  0
   -7.7085   -1.4244   -0.4862 C   0  0  0  0  0  0  0  0  0  0  0  0
   -8.1774   -1.2199   -1.7819 C   0  0  0  0  0  0  0  0  0  0  0  0
   -7.5824   -0.2548   -2.5888 C   0  0  0  0  0  0  0  0  0  0  0  0
   -6.5119    0.5087   -2.1109 C   0  0  0  0  0  0  0  0  0  0  0  0
   -6.0292    0.3045   -0.8161 C   0  0  0  0  0  0  0  0  0  0  0  0
   -4.9453    1.0230   -0.2371 N   0  0  0  0  0  0  0  0  0  0  0  0
   -4.0786    1.9995   -0.6995 C   0  0  0  0  0  0  0  0  0  0  0  0
   -3.9646    2.6400   -2.3045 S   0  0  0  0  0  0  0  0  0  0  0  0
   -2.3183    3.4109   -2.2712 C   0  0  0  0  0  0  0  0  0  0  0  0
   -1.2228    2.3544   -2.3336 C   0  0  0  0  0  0  0  0  0  0  0  0
   -0.7480    2.0075   -3.4128 O   0  0  0  0  0  0  0  0  0  0  0  0
   -0.8636    1.8669   -1.0870 N   0  0  0  0  0  0  0  0  0  0  0  0
    0.1185    0.9073   -0.7793 C   0  0  0  0  0  0  0  0  0  0  0  0
    0.9609    0.3167   -1.7249 C   0  0  0  0  0  0  0  0  0  0  0  0
    1.9247   -0.6176   -1.3313 C   0  0  0  0  0  0  0  0  0  0  0  0
    2.0554   -0.9476    0.0184 C   0  0  0  0  0  0  0  0  0  0  0  0
    3.2895   -2.1106    0.5417 S   0  0  0  0  0  6  0  0  0  0  0  0
    3.9082   -2.6890   -0.6327 O   0  0  0  0  0  0  0  0  0  0  0  0
    2.6876   -2.9476    1.5583 O   0  0  0  0  0  0  0  0  0  0  0  0
    4.4548   -1.1058    1.2939 N   0  0  0  0  0  0  0  0  0  0  0  0
    5.0542   -0.0622    0.4124 C   0  0  0  0  0  0  0  0  0  0  0  0
    6.2297    0.6159    1.1079 C   0  0  0  0  0  0  0  0  0  0  0  0
    7.3650   -0.3753    1.4008 C   0  0  0  0  0  0  0  0  0  0  0  0
    8.4557   -0.3137    0.3300 C   0  0  0  0  0  0  0  0  0  0  0  0
    6.8376   -1.8110    1.5370 C   0  0  0  0  0  0  0  0  0  0  0  0
    5.4399   -1.8438    2.1403 C   0  0  0  0  0  0  0  0  0  0  0  0
    1.2116   -0.3793    0.9729 C   0  0  0  0  0  0  0  0  0  0  0  0
    0.2458    0.5453    0.5702 C   0  0  0  0  0  0  0  0  0  0  0  0
   -3.2612    2.3768    0.2617 N   0  0  0  0  0  0  0  0  0  0  0  0
   -3.5226    1.6231    1.3640 N   0  0  0  0  0  0  0  0  0  0  0  0
   -4.5212    0.8118    1.0762 C   0  0  0  0  0  0  0  0  0  0  0  0
   -3.6711   -0.7601    3.3469 H   0  0  0  0  0  0  0  0  0  0  0  0
   -4.7975    0.4954    3.9130 H   0  0  0  0  0  0  0  0  0  0  0  0
   -5.3240   -1.1910    3.8166 H   0  0  0  0  0  0  0  0  0  0  0  0
   -6.6770   -1.6401    1.9654 H   0  0  0  0  0  0  0  0  0  0  0  0
   -8.1868   -2.1801    0.1330 H   0  0  0  0  0  0  0  0  0  0  0  0
   -9.0082   -1.8103   -2.1613 H   0  0  0  0  0  0  0  0  0  0  0  0
   -7.9526   -0.0919   -3.5990 H   0  0  0  0  0  0  0  0  0  0  0  0
   -6.1061    1.2445   -2.7917 H   0  0  0  0  0  0  0  0  0  0  0  0
   -2.1909    4.0569   -1.3962 H   0  0  0  0  0  0  0  0  0  0  0  0
   -2.2183    4.0525   -3.1534 H   0  0  0  0  0  0  0  0  0  0  0  0
   -1.4413    2.1715   -0.3004 H   0  0  0  0  0  0  0  0  0  0  0  0
    0.8917    0.5602   -2.7807 H   0  0  0  0  0  0  0  0  0  0  0  0
    2.5665   -1.0725   -2.0824 H   0  0  0  0  0  0  0  0  0  0  0  0
    4.2978    0.6999    0.1988 H   0  0  0  0  0  0  0  0  0  0  0  0
    5.3805   -0.4978   -0.5390 H   0  0  0  0  0  0  0  0  0  0  0  0
    5.8808    1.0442    2.0578 H   0  0  0  0  0  0  0  0  0  0  0  0
    6.5895    1.4575    0.5039 H   0  0  0  0  0  0  0  0  0  0  0  0
    7.8273   -0.0780    2.3521 H   0  0  0  0  0  0  0  0  0  0  0  0
    8.8929    0.6900    0.2770 H   0  0  0  0  0  0  0  0  0  0  0  0
    8.0579   -0.5608   -0.6602 H   0  0  0  0  0  0  0  0  0  0  0  0
    9.2622   -1.0180    0.5585 H   0  0  0  0  0  0  0  0  0  0  0  0
    6.8148   -2.3050    0.5556 H   0  0  0  0  0  0  0  0  0  0  0  0
    7.5263   -2.3926    2.1605 H   0  0  0  0  0  0  0  0  0  0  0  0
    5.4362   -1.3890    3.1366 H   0  0  0  0  0  0  0  0  0  0  0  0
    5.1417   -2.8871    2.2772 H   0  0  0  0  0  0  0  0  0  0  0  0
    1.3027   -0.6490    2.0230 H   0  0  0  0  0  0  0  0  0  0  0  0
   -0.4067    0.9816    1.3242 H   0  0  0  0  0  0  0  0  0  0  0  0
  1  2  1  0
  2  3  2  0
  3  4  1  0
  4  5  2  0
  5  6  1  0
  6  7  2  0
  7  8  1  0
  8  9  2  0
  9 10  1  0
 10 11  1  0
 11 12  1  0
 12 13  1  0
 13 14  1  0
 14 15  2  0
 14 16  1  0
 16 17  1  0
 17 18  2  0
 18 19  1  0
 19 20  2  0
 20 21  1  0
 21 22  2  0
 21 23  2  0
 21 24  1  0
 24 25  1  0
 25 26  1  0
 26 27  1  0
 27 28  1  0
 27 29  1  0
 29 30  1  0
 20 31  1  0
 31 32  2  0
 11 33  2  0
 33 34  1  0
 34 35  2  0
 35  2  1  0
  9  4  1  0
 35 10  1  0
 32 17  1  0
 30 24  1  0
  1 36  1  0
  1 37  1  0
  1 38  1  0
  3 39  1  0
  5 40  1  0
  6 41  1  0
  7 42  1  0
  8 43  1  0
 13 44  1  0
 13 45  1  0
 16 46  1  0
 18 47  1  0
 19 48  1  0
 25 49  1  0
 25 50  1  0
 26 51  1  0
 26 52  1  0
 27 53  1  0
 28 54  1  0
 28 55  1  0
 28 56  1  0
 29 57  1  0
 29 58  1  0
 30 59  1  0
 30 60  1  0
 31 61  1  0
 32 62  1  0
M  END
$$$$
