
     RDKit          3D

 43 45  0  0  0  0  0  0  0  0999 V2000
   -6.7712    1.4257    0.1811 C   0  0  0  0  0  0  0  0  0  0  0  0
   -6.2325   -0.0066    0.2139 C   0  0  0  0  0  0  0  0  0  0  0  0
   -6.8208   -0.8373   -0.9294 C   0  0  0  0  0  0  0  0  0  0  0  0
   -4.7132   -0.0307    0.1989 C   0  0  0  0  0  0  0  0  0  0  0  0
   -3.9788    0.4693   -0.8876 C   0  0  0  0  0  0  0  0  0  0  0  0
   -2.5806    0.4407   -0.8825 C   0  0  0  0  0  0  0  0  0  0  0  0
   -1.8966   -0.0991    0.2123 C   0  0  0  0  0  0  0  0  0  0  0  0
   -0.4114   -0.1532    0.2673 C   0  0  0  0  0  0  0  0  0  0  0  0
    0.1728   -0.0928    1.3461 O   0  0  0  0  0  0  0  0  0  0  0  0
    0.2424   -0.3180   -0.9476 N   0  0  0  0  0  0  0  0  0  0  0  0
    1.6063   -0.3487   -1.2129 C   0  0  0  0  0  0  0  0  0  0  0  0
    2.0158   -0.5935   -2.8124 S   0  0  0  0  0  0  0  0  0  0  0  0
    2.4046   -0.1724   -0.1075 N   0  0  0  0  0  0  0  0  0  0  0  0
    3.8011   -0.0971    0.0951 C   0  0  0  0  0  0  0  0  0  0  0  0
    4.2113    0.0314    1.4536 C   0  0  0  0  0  0  0  0  0  0  0  0
    5.5598    0.1212    1.8252 C   0  0  0  0  0  0  0  0  0  0  0  0
    6.4753    0.0818    0.8072 C   0  0  0  0  0  0  0  0  0  0  0  0
    7.8626    0.1488    0.8504 N   0  0  0  0  0  0  0  0  0  0  0  0
    8.3577    0.0702   -0.4596 C   0  0  0  0  0  0  0  0  0  0  0  0
    9.5274    0.0980   -0.7971 O   0  0  0  0  0  0  0  0  0  0  0  0
    7.2433   -0.0459   -1.3027 N   0  0  0  0  0  0  0  0  0  0  0  0
    6.0898   -0.0394   -0.5239 C   0  0  0  0  0  0  0  0  0  0  0  0
    4.7698   -0.1290   -0.9123 C   0  0  0  0  0  0  0  0  0  0  0  0
   -2.6187   -0.5817    1.3082 C   0  0  0  0  0  0  0  0  0  0  0  0
   -4.0155   -0.5521    1.2983 C   0  0  0  0  0  0  0  0  0  0  0  0
   -7.8625    1.4287    0.2760 H   0  0  0  0  0  0  0  0  0  0  0  0
   -6.5175    1.9377   -0.7535 H   0  0  0  0  0  0  0  0  0  0  0  0
   -6.3613    2.0171    1.0075 H   0  0  0  0  0  0  0  0  0  0  0  0
   -6.5794   -0.4605    1.1518 H   0  0  0  0  0  0  0  0  0  0  0  0
   -7.9127   -0.8790   -0.8521 H   0  0  0  0  0  0  0  0  0  0  0  0
   -6.5734   -0.4181   -1.9107 H   0  0  0  0  0  0  0  0  0  0  0  0
   -6.4432   -1.8655   -0.9007 H   0  0  0  0  0  0  0  0  0  0  0  0
   -4.4924    0.8972   -1.7467 H   0  0  0  0  0  0  0  0  0  0  0  0
   -2.0520    0.8720   -1.7279 H   0  0  0  0  0  0  0  0  0  0  0  0
   -0.3186   -0.4753   -1.7737 H   0  0  0  0  0  0  0  0  0  0  0  0
    1.8588   -0.1040    0.7546 H   0  0  0  0  0  0  0  0  0  0  0  0
    3.4623    0.0605    2.2447 H   0  0  0  0  0  0  0  0  0  0  0  0
    5.8529    0.2169    2.8631 H   0  0  0  0  0  0  0  0  0  0  0  0
    8.4468    0.2393    1.6649 H   0  0  0  0  0  0  0  0  0  0  0  0
    7.3015   -0.1217   -2.3049 H   0  0  0  0  0  0  0  0  0  0  0  0
    4.5432   -0.2108   -1.9625 H   0  0  0  0  0  0  0  0  0  0  0  0
   -2.0983   -0.9862    2.1744 H   0  0  0  0  0  0  0  0  0  0  0  0
   -4.5548   -0.9379    2.1615 H   0  0  0  0  0  0  0  0  0  0  0  0
  1  2  1  0
  2  3  1  0
  2  4  1  0
  4  5  2  0
  5  6  1  0
  6  7  2  0
  7  8  1  0
  8  9  2  0
  8 10  1  0
 10 11  1  0
 11 12  2  0
 11 13  1  0
 13 14  1  0
 14 15  2  0
 15 16  1  0
 16 17  2  0
 17 18  1  0
 18 19  1  0
 19 20  2  0
 19 21  1  0
 21 22  1  0
 22 23  2  0
  7 24  1  0
 24 25  2  0
 25  4  1  0
 23 14  1  0
 22 17  1  0
  1 26  1  0
  1 27  1  0
  1 28  1  0
  2 29  1  0
  3 30  1  0
  3 31  1  0
  3 32  1  0
  5 33  1  0
  6 34  1  0
 10 35  1  0
 13 36  1  0
 15 37  1  0
 16 38  1  0
 18 39  1  0
 21 40  1  0
 23 41  1  0
 24 42  1  0
 25 43  1  0
M  END
$$$$
