
     RDKit          3D

 43 46  0  0  0  0  0  0  0  0999 V2000
   -3.8392    5.3034   -3.9631 N   0  0  0  0  0  0  0  0  0  0  0  0
   -3.0866    4.4566   -3.7143 C   0  0  0  0  0  0  0  0  0  0  0  0
   -2.1237    3.4049   -3.3792 C   0  0  0  0  0  0  0  0  0  0  0  0
   -1.7616    3.4818   -1.9037 C   0  0  0  0  0  0  0  0  0  0  0  0
   -0.7418    2.5139   -1.5490 N   0  0  0  0  0  0  0  0  0  0  0  0
    0.5115    2.7773   -1.0875 C   0  0  0  0  0  0  0  0  0  0  0  0
    1.0869    1.5499   -0.8488 C   0  0  0  0  0  0  0  0  0  0  0  0
    2.4039    1.3936   -0.3182 C   0  0  0  0  0  0  0  0  0  0  0  0
    2.8123    0.6459    0.7305 C   0  0  0  0  0  0  0  0  0  0  0  0
    4.2033    0.6406    1.0557 C   0  0  0  0  0  0  0  0  0  0  0  0
    5.3397    0.6471    1.2919 N   0  0  0  0  0  0  0  0  0  0  0  0
    1.8922   -0.0843    1.5486 C   0  0  0  0  0  0  0  0  0  0  0  0
    0.7357    0.3567    2.0076 N   0  0  0  0  0  0  0  0  0  0  0  0
    0.0695   -0.6298    2.7131 C   0  0  0  0  0  0  0  0  0  0  0  0
   -1.2034   -0.5047    3.3048 C   0  0  0  0  0  0  0  0  0  0  0  0
   -1.7645   -1.5916    3.9828 C   0  0  0  0  0  0  0  0  0  0  0  0
   -1.0728   -2.7948    4.0782 C   0  0  0  0  0  0  0  0  0  0  0  0
    0.1925   -2.9419    3.5014 C   0  0  0  0  0  0  0  0  0  0  0  0
    0.7445   -1.8436    2.8217 C   0  0  0  0  0  0  0  0  0  0  0  0
    2.2561   -1.7158    2.0170 S   0  0  0  0  0  0  0  0  0  0  0  0
    0.1131    0.5888   -1.2608 C   0  0  0  0  0  0  0  0  0  0  0  0
    0.2026   -0.8695   -1.2881 C   0  0  0  0  0  0  0  0  0  0  0  0
    1.3200   -1.5126   -1.8413 C   0  0  0  0  0  0  0  0  0  0  0  0
    1.4018   -2.9072   -1.8353 C   0  0  0  0  0  0  0  0  0  0  0  0
    0.3671   -3.6540   -1.2826 C   0  0  0  0  0  0  0  0  0  0  0  0
    0.4520   -4.9905   -1.2731 F   0  0  0  0  0  0  0  0  0  0  0  0
   -0.7538   -3.0355   -0.7431 C   0  0  0  0  0  0  0  0  0  0  0  0
   -0.8392   -1.6423   -0.7514 C   0  0  0  0  0  0  0  0  0  0  0  0
   -1.0057    1.2055   -1.6803 N   0  0  0  0  0  0  0  0  0  0  0  0
   -1.2240    3.5179   -3.9960 H   0  0  0  0  0  0  0  0  0  0  0  0
   -2.5509    2.4248   -3.6216 H   0  0  0  0  0  0  0  0  0  0  0  0
   -2.6306    3.2803   -1.2655 H   0  0  0  0  0  0  0  0  0  0  0  0
   -1.3829    4.4772   -1.6412 H   0  0  0  0  0  0  0  0  0  0  0  0
    0.8673    3.7873   -0.9361 H   0  0  0  0  0  0  0  0  0  0  0  0
    3.1634    1.9798   -0.8384 H   0  0  0  0  0  0  0  0  0  0  0  0
   -1.7400    0.4355    3.2250 H   0  0  0  0  0  0  0  0  0  0  0  0
   -2.7476   -1.4923    4.4372 H   0  0  0  0  0  0  0  0  0  0  0  0
   -1.5200   -3.6332    4.6087 H   0  0  0  0  0  0  0  0  0  0  0  0
    0.7310   -3.8820    3.5756 H   0  0  0  0  0  0  0  0  0  0  0  0
    2.1254   -0.9374   -2.2905 H   0  0  0  0  0  0  0  0  0  0  0  0
    2.2616   -3.4153   -2.2604 H   0  0  0  0  0  0  0  0  0  0  0  0
   -1.5516   -3.6359   -0.3186 H   0  0  0  0  0  0  0  0  0  0  0  0
   -1.7137   -1.1546   -0.3247 H   0  0  0  0  0  0  0  0  0  0  0  0
  1  2  3  0
  2  3  1  0
  3  4  1  0
  4  5  1  0
  5  6  1  0
  6  7  2  0
  7  8  1  0
  8  9  2  3
  9 10  1  0
 10 11  3  0
  9 12  1  0
 12 13  2  0
 13 14  1  0
 14 15  2  0
 15 16  1  0
 16 17  2  0
 17 18  1  0
 18 19  2  0
 19 20  1  0
  7 21  1  0
 21 22  1  0
 22 23  2  0
 23 24  1  0
 24 25  2  0
 25 26  1  0
 25 27  1  0
 27 28  2  0
 21 29  2  0
 29  5  1  0
 20 12  1  0
 28 22  1  0
 19 14  1  0
  3 30  1  0
  3 31  1  0
  4 32  1  0
  4 33  1  0
  6 34  1  0
  8 35  1  0
 15 36  1  0
 16 37  1  0
 17 38  1  0
 18 39  1  0
 23 40  1  0
 24 41  1  0
 27 42  1  0
 28 43  1  0
M  END
$$$$
