
     RDKit          3D

 48 49  0  0  0  0  0  0  0  0999 V2000
    0.5876    3.1931    0.6647 C   0  0  0  0  0  0  0  0  0  0  0  0
    1.4156    2.0929    0.3097 O   0  0  0  0  0  0  0  0  0  0  0  0
    0.7892    0.9263   -0.0461 C   0  0  0  0  0  0  0  0  0  0  0  0
   -0.5807    0.8083   -0.3038 C   0  0  0  0  0  0  0  0  0  0  0  0
   -1.1509   -0.4320   -0.6442 C   0  0  0  0  0  0  0  0  0  0  0  0
   -2.6390   -0.5385   -0.9005 C   0  0  0  0  0  0  0  0  0  0  0  0
   -3.3784   -0.3259    0.3402 N   0  0  0  0  0  0  0  0  0  0  0  0
   -4.8470   -0.4934    0.2679 C   0  0  0  0  0  0  0  0  0  0  0  0
   -5.2127   -1.9839    0.1281 C   0  0  0  0  0  0  0  0  0  0  0  0
   -5.4741    0.2934   -0.8985 C   0  0  0  0  0  0  0  0  0  0  0  0
   -5.4221    0.0577    1.6087 C   0  0  0  0  0  0  0  0  0  0  0  0
   -6.8381   -0.0764    1.7025 O   0  0  0  0  0  0  0  0  0  0  0  0
   -0.3304   -1.5648   -0.7163 C   0  0  0  0  0  0  0  0  0  0  0  0
    1.0394   -1.4557   -0.4707 C   0  0  0  0  0  0  0  0  0  0  0  0
    2.0972   -3.0283   -0.5832 Br  0  0  0  0  0  0  0  0  0  0  0  0
    1.6036   -0.2129   -0.1592 C   0  0  0  0  0  0  0  0  0  0  0  0
    2.9490   -0.1372    0.1148 O   0  0  0  0  0  0  0  0  0  0  0  0
    3.6580    0.4239   -0.9935 C   0  0  0  0  0  0  0  0  0  0  0  0
    5.1332    0.2136   -0.7520 C   0  0  0  0  0  0  0  0  0  0  0  0
    5.8564    1.1196    0.0380 C   0  0  0  0  0  0  0  0  0  0  0  0
    7.2172    0.9188    0.2799 C   0  0  0  0  0  0  0  0  0  0  0  0
    7.8584   -0.1943   -0.2593 C   0  0  0  0  0  0  0  0  0  0  0  0
    9.5350   -0.4426    0.0388 Cl  0  0  0  0  0  0  0  0  0  0  0  0
    7.1502   -1.1108   -1.0338 C   0  0  0  0  0  0  0  0  0  0  0  0
    5.7893   -0.9099   -1.2759 C   0  0  0  0  0  0  0  0  0  0  0  0
    0.0484    3.5741   -0.2085 H   0  0  0  0  0  0  0  0  0  0  0  0
   -0.1021    2.9295    1.4736 H   0  0  0  0  0  0  0  0  0  0  0  0
    1.2368    3.9949    1.0294 H   0  0  0  0  0  0  0  0  0  0  0  0
   -1.2436    1.6671   -0.2378 H   0  0  0  0  0  0  0  0  0  0  0  0
   -2.8978    0.2166   -1.6516 H   0  0  0  0  0  0  0  0  0  0  0  0
   -2.8602   -1.5192   -1.3347 H   0  0  0  0  0  0  0  0  0  0  0  0
   -2.9988   -0.9445    1.0579 H   0  0  0  0  0  0  0  0  0  0  0  0
   -4.8109   -2.5711    0.9618 H   0  0  0  0  0  0  0  0  0  0  0  0
   -4.8269   -2.4151   -0.8016 H   0  0  0  0  0  0  0  0  0  0  0  0
   -6.2986   -2.1296    0.1139 H   0  0  0  0  0  0  0  0  0  0  0  0
   -6.5684    0.2415   -0.8714 H   0  0  0  0  0  0  0  0  0  0  0  0
   -5.1936    1.3522   -0.8576 H   0  0  0  0  0  0  0  0  0  0  0  0
   -5.1649   -0.1023   -1.8722 H   0  0  0  0  0  0  0  0  0  0  0  0
   -5.1908    1.1246    1.7102 H   0  0  0  0  0  0  0  0  0  0  0  0
   -4.9787   -0.4543    2.4715 H   0  0  0  0  0  0  0  0  0  0  0  0
   -7.0305   -0.9999    1.9368 H   0  0  0  0  0  0  0  0  0  0  0  0
   -0.7612   -2.5330   -0.9613 H   0  0  0  0  0  0  0  0  0  0  0  0
    3.4576    1.4979   -1.0869 H   0  0  0  0  0  0  0  0  0  0  0  0
    3.3672   -0.0567   -1.9375 H   0  0  0  0  0  0  0  0  0  0  0  0
    5.3566    1.9816    0.4758 H   0  0  0  0  0  0  0  0  0  0  0  0
    7.7660    1.6280    0.8931 H   0  0  0  0  0  0  0  0  0  0  0  0
    7.6475   -1.9847   -1.4453 H   0  0  0  0  0  0  0  0  0  0  0  0
    5.2409   -1.6389   -1.8687 H   0  0  0  0  0  0  0  0  0  0  0  0
  1  2  1  0
  2  3  1  0
  3  4  2  0
  4  5  1  0
  5  6  1  0
  6  7  1  0
  7  8  1  0
  8  9  1  0
  8 10  1  0
  8 11  1  0
 11 12  1  0
  5 13  2  0
 13 14  1  0
 14 15  1  0
 14 16  2  0
 16 17  1  0
 17 18  1  0
 18 19  1  0
 19 20  2  0
 20 21  1  0
 21 22  2  0
 22 23  1  0
 22 24  1  0
 24 25  2  0
 16  3  1  0
 25 19  1  0
  1 26  1  0
  1 27  1  0
  1 28  1  0
  4 29  1  0
  6 30  1  0
  6 31  1  0
  7 32  1  0
  9 33  1  0
  9 34  1  0
  9 35  1  0
 10 36  1  0
 10 37  1  0
 10 38  1  0
 11 39  1  0
 11 40  1  0
 12 41  1  0
 13 42  1  0
 18 43  1  0
 18 44  1  0
 20 45  1  0
 21 46  1  0
 24 47  1  0
 25 48  1  0
M  END
$$$$
