
     RDKit          3D

 40 43  0  0  0  0  0  0  0  0999 V2000
   -2.9963    3.7284   -2.4066 C   0  0  0  0  0  0  0  0  0  0  0  0
   -1.7885    3.1485   -2.4260 C   0  0  0  0  0  0  0  0  0  0  0  0
   -0.9527    2.8924   -1.2008 C   0  0  0  0  0  0  0  0  0  0  0  0
   -0.9440    1.4606   -0.9161 N   0  0  0  0  0  0  0  0  0  0  0  0
   -0.0577    0.5618   -1.4832 C   0  0  0  0  0  0  0  0  0  0  0  0
    1.2063    1.1372   -2.5551 S   0  0  0  0  0  0  0  0  0  0  0  0
    2.5214    1.4909   -1.3450 C   0  0  0  0  0  0  0  0  0  0  0  0
    2.6287    0.4367   -0.2684 C   0  0  0  0  0  0  0  0  0  0  0  0
    3.3608   -0.6745   -0.4556 C   0  0  0  0  0  0  0  0  0  0  0  0
    3.3499   -1.7329    0.5766 C   0  0  0  0  0  0  0  0  0  0  0  0
    4.0262   -2.7461    0.4239 O   0  0  0  0  0  0  0  0  0  0  0  0
    2.5458   -1.4633    1.6550 N   0  0  0  0  0  0  0  0  0  0  0  0
    2.3477   -2.3098    2.7238 C   0  0  0  0  0  0  0  0  0  0  0  0
    1.5344   -1.8141    3.6637 C   0  0  0  0  0  0  0  0  0  0  0  0
    0.9724   -0.2176    3.2468 S   0  0  0  0  0  0  0  0  0  0  0  0
    1.8782   -0.2647    1.7434 C   0  0  0  0  0  0  0  0  0  0  0  0
    1.8992    0.6896    0.8769 N   0  0  0  0  0  0  0  0  0  0  0  0
   -0.0787   -0.7178   -1.2899 N   0  0  0  0  0  0  0  0  0  0  0  0
   -1.0208   -1.2400   -0.4031 C   0  0  0  0  0  0  0  0  0  0  0  0
   -1.0181   -2.6138   -0.1495 C   0  0  0  0  0  0  0  0  0  0  0  0
   -1.9250   -3.1718    0.7551 C   0  0  0  0  0  0  0  0  0  0  0  0
   -2.8435   -2.3561    1.4146 C   0  0  0  0  0  0  0  0  0  0  0  0
   -2.8543   -0.9836    1.1680 C   0  0  0  0  0  0  0  0  0  0  0  0
   -1.9404   -0.4355    0.2599 C   0  0  0  0  0  0  0  0  0  0  0  0
   -1.9149    1.0103   -0.0214 C   0  0  0  0  0  0  0  0  0  0  0  0
   -2.7343    1.7346    0.5412 O   0  0  0  0  0  0  0  0  0  0  0  0
   -3.4646    4.0338   -1.4745 H   0  0  0  0  0  0  0  0  0  0  0  0
   -3.5524    3.8915   -3.3245 H   0  0  0  0  0  0  0  0  0  0  0  0
   -1.3660    2.8530   -3.3835 H   0  0  0  0  0  0  0  0  0  0  0  0
   -1.3472    3.4460   -0.3403 H   0  0  0  0  0  0  0  0  0  0  0  0
    0.0587    3.2736   -1.3623 H   0  0  0  0  0  0  0  0  0  0  0  0
    3.4664    1.5759   -1.8933 H   0  0  0  0  0  0  0  0  0  0  0  0
    2.3362    2.4727   -0.8952 H   0  0  0  0  0  0  0  0  0  0  0  0
    3.9214   -0.8772   -1.3588 H   0  0  0  0  0  0  0  0  0  0  0  0
    2.8344   -3.2768    2.7408 H   0  0  0  0  0  0  0  0  0  0  0  0
    1.2478   -2.3159    4.5777 H   0  0  0  0  0  0  0  0  0  0  0  0
   -0.3016   -3.2512   -0.6620 H   0  0  0  0  0  0  0  0  0  0  0  0
   -1.9145   -4.2429    0.9416 H   0  0  0  0  0  0  0  0  0  0  0  0
   -3.5514   -2.7877    2.1182 H   0  0  0  0  0  0  0  0  0  0  0  0
   -3.5687   -0.3441    1.6816 H   0  0  0  0  0  0  0  0  0  0  0  0
  1  2  2  0
  2  3  1  0
  3  4  1  0
  4  5  1  0
  5  6  1  0
  6  7  1  0
  7  8  1  0
  8  9  2  0
  9 10  1  0
 10 11  2  0
 10 12  1  0
 12 13  1  0
 13 14  2  0
 14 15  1  0
 15 16  1  0
 16 17  2  0
  5 18  2  0
 18 19  1  0
 19 20  2  0
 20 21  1  0
 21 22  2  0
 22 23  1  0
 23 24  2  0
 24 25  1  0
 25 26  2  0
 25  4  1  0
 17  8  1  0
 24 19  1  0
 16 12  1  0
  1 27  1  0
  1 28  1  0
  2 29  1  0
  3 30  1  0
  3 31  1  0
  7 32  1  0
  7 33  1  0
  9 34  1  0
 13 35  1  0
 14 36  1  0
 20 37  1  0
 21 38  1  0
 22 39  1  0
 23 40  1  0
M  END
$$$$
