
     RDKit          3D

 36 37  0  0  0  0  0  0  0  0999 V2000
    5.9127    0.8996    0.3782 C   0  0  0  0  0  0  0  0  0  0  0  0
    4.9430   -0.0701    0.7564 O   0  0  0  0  0  0  0  0  0  0  0  0
    3.6730    0.1067    0.2788 C   0  0  0  0  0  0  0  0  0  0  0  0
    3.2328    1.1757   -0.4979 C   0  0  0  0  0  0  0  0  0  0  0  0
    1.9003    1.2389   -0.9234 C   0  0  0  0  0  0  0  0  0  0  0  0
    1.0002    0.2272   -0.5906 C   0  0  0  0  0  0  0  0  0  0  0  0
   -0.3649    0.2247   -0.9604 N   0  0  0  0  0  0  0  0  0  0  0  0
   -1.0665    0.8755   -1.9365 C   0  0  0  0  0  0  0  0  0  0  0  0
   -0.4659    1.6398   -3.3004 S   0  0  0  0  0  0  0  0  0  0  0  0
   -2.4355    0.8082   -1.8442 N   0  0  0  0  0  0  0  0  0  0  0  0
   -3.2937    0.5254   -0.7613 C   0  0  0  0  0  0  0  0  0  0  0  0
   -4.6388    0.2807   -1.0659 C   0  0  0  0  0  0  0  0  0  0  0  0
   -5.5617    0.0037   -0.0541 C   0  0  0  0  0  0  0  0  0  0  0  0
   -5.1514   -0.0136    1.2758 C   0  0  0  0  0  0  0  0  0  0  0  0
   -3.8226    0.2575    1.5922 C   0  0  0  0  0  0  0  0  0  0  0  0
   -2.8988    0.5335    0.5788 C   0  0  0  0  0  0  0  0  0  0  0  0
    1.4371   -0.8414    0.2212 C   0  0  0  0  0  0  0  0  0  0  0  0
    0.4730   -1.7720    0.5391 O   0  0  0  0  0  0  0  0  0  0  0  0
    0.8839   -2.8885    1.3187 C   0  0  0  0  0  0  0  0  0  0  0  0
    2.7693   -0.8961    0.6421 C   0  0  0  0  0  0  0  0  0  0  0  0
    5.6583    1.8870    0.7774 H   0  0  0  0  0  0  0  0  0  0  0  0
    6.8709    0.6013    0.8143 H   0  0  0  0  0  0  0  0  0  0  0  0
    6.0372    0.9316   -0.7093 H   0  0  0  0  0  0  0  0  0  0  0  0
    3.8936    1.9867   -0.7859 H   0  0  0  0  0  0  0  0  0  0  0  0
    1.5935    2.1118   -1.4879 H   0  0  0  0  0  0  0  0  0  0  0  0
   -0.8718   -0.5528   -0.5447 H   0  0  0  0  0  0  0  0  0  0  0  0
   -2.8941    1.0758   -2.7091 H   0  0  0  0  0  0  0  0  0  0  0  0
   -4.9833    0.2854   -2.0971 H   0  0  0  0  0  0  0  0  0  0  0  0
   -6.5999   -0.1966   -0.3059 H   0  0  0  0  0  0  0  0  0  0  0  0
   -5.8677   -0.2250    2.0655 H   0  0  0  0  0  0  0  0  0  0  0  0
   -3.5033    0.2701    2.6314 H   0  0  0  0  0  0  0  0  0  0  0  0
   -1.8891    0.7977    0.8772 H   0  0  0  0  0  0  0  0  0  0  0  0
    1.2312   -2.5723    2.3077 H   0  0  0  0  0  0  0  0  0  0  0  0
    0.0113   -3.5326    1.4638 H   0  0  0  0  0  0  0  0  0  0  0  0
    1.6472   -3.4755    0.7974 H   0  0  0  0  0  0  0  0  0  0  0  0
    3.1402   -1.7078    1.2588 H   0  0  0  0  0  0  0  0  0  0  0  0
  1  2  1  0
  2  3  1  0
  3  4  2  0
  4  5  1  0
  5  6  2  0
  6  7  1  0
  7  8  1  0
  8  9  2  0
  8 10  1  0
 10 11  1  0
 11 12  2  0
 12 13  1  0
 13 14  2  0
 14 15  1  0
 15 16  2  0
  6 17  1  0
 17 18  1  0
 18 19  1  0
 17 20  2  0
 20  3  1  0
 16 11  1  0
  1 21  1  0
  1 22  1  0
  1 23  1  0
  4 24  1  0
  5 25  1  0
  7 26  1  0
 10 27  1  0
 12 28  1  0
 13 29  1  0
 14 30  1  0
 15 31  1  0
 16 32  1  0
 19 33  1  0
 19 34  1  0
 19 35  1  0
 20 36  1  0
M  END
$$$$
