
     RDKit          3D

 40 42  0  0  0  0  0  0  0  0999 V2000
   -2.1292    0.1442   -1.7155 O   0  0  0  0  0  0  0  0  0  0  0  0
   -1.6279   -0.2905   -0.6781 C   0  0  0  0  0  0  0  0  0  0  0  0
   -2.4630   -0.9501    0.4170 C   0  0  0  0  0  0  0  0  0  0  0  0
   -3.9532   -0.7308    0.2808 C   0  0  0  0  0  0  0  0  0  0  0  0
   -4.5656    0.3791    0.8811 C   0  0  0  0  0  0  0  0  0  0  0  0
   -5.9404    0.5866    0.7490 C   0  0  0  0  0  0  0  0  0  0  0  0
   -6.7072   -0.3116    0.0100 C   0  0  0  0  0  0  0  0  0  0  0  0
   -8.5681   -0.0302   -0.1697 Br  0  0  0  0  0  0  0  0  0  0  0  0
   -6.1122   -1.4129   -0.6010 C   0  0  0  0  0  0  0  0  0  0  0  0
   -4.7375   -1.6202   -0.4682 C   0  0  0  0  0  0  0  0  0  0  0  0
   -0.2582   -0.2200   -0.4515 N   0  0  0  0  0  0  0  0  0  0  0  0
    0.4247   -0.8023    0.7113 C   0  0  0  0  0  0  0  0  0  0  0  0
    1.9544   -0.8693    0.5509 C   0  0  0  0  0  0  0  0  0  0  0  0
    2.4880    0.4585    0.2153 N   0  0  0  0  0  0  0  0  0  0  0  0
    3.8789    0.5668    0.2339 C   0  0  0  0  0  0  0  0  0  0  0  0
    4.5014    1.8066    0.0702 C   0  0  0  0  0  0  0  0  0  0  0  0
    5.8923    1.9047    0.1062 C   0  0  0  0  0  0  0  0  0  0  0  0
    6.6448    0.7611    0.3151 C   0  0  0  0  0  0  0  0  0  0  0  0
    5.9662   -0.4293    0.4864 C   0  0  0  0  0  0  0  0  0  0  0  0
    4.6188   -0.5429    0.4554 N   0  0  0  0  0  0  0  0  0  0  0  0
    1.7592    1.2239   -0.8154 C   0  0  0  0  0  0  0  0  0  0  0  0
    0.6029    0.4241   -1.4467 C   0  0  0  0  0  0  0  0  0  0  0  0
   -2.2560   -2.0269    0.4054 H   0  0  0  0  0  0  0  0  0  0  0  0
   -2.1494   -0.5700    1.3960 H   0  0  0  0  0  0  0  0  0  0  0  0
   -3.9751    1.0935    1.4505 H   0  0  0  0  0  0  0  0  0  0  0  0
   -6.3996    1.4518    1.2191 H   0  0  0  0  0  0  0  0  0  0  0  0
   -6.7047   -2.1096   -1.1877 H   0  0  0  0  0  0  0  0  0  0  0  0
   -4.2801   -2.4742   -0.9630 H   0  0  0  0  0  0  0  0  0  0  0  0
    0.1715   -0.1735    1.5732 H   0  0  0  0  0  0  0  0  0  0  0  0
    0.0274   -1.8052    0.8972 H   0  0  0  0  0  0  0  0  0  0  0  0
    2.3754   -1.2322    1.4969 H   0  0  0  0  0  0  0  0  0  0  0  0
    2.2088   -1.5900   -0.2374 H   0  0  0  0  0  0  0  0  0  0  0  0
    3.9122    2.7073   -0.0633 H   0  0  0  0  0  0  0  0  0  0  0  0
    6.3760    2.8687   -0.0193 H   0  0  0  0  0  0  0  0  0  0  0  0
    7.7272    0.7962    0.3521 H   0  0  0  0  0  0  0  0  0  0  0  0
    6.5015   -1.3579    0.6612 H   0  0  0  0  0  0  0  0  0  0  0  0
    2.4183    1.5486   -1.6301 H   0  0  0  0  0  0  0  0  0  0  0  0
    1.3520    2.1233   -0.3380 H   0  0  0  0  0  0  0  0  0  0  0  0
    0.0192    1.0830   -2.0981 H   0  0  0  0  0  0  0  0  0  0  0  0
    1.0062   -0.3785   -2.0766 H   0  0  0  0  0  0  0  0  0  0  0  0
  1  2  2  0
  2  3  1  0
  3  4  1  0
  4  5  2  0
  5  6  1  0
  6  7  2  0
  7  8  1  0
  7  9  1  0
  9 10  2  0
  2 11  1  0
 11 12  1  0
 12 13  1  0
 13 14  1  0
 14 15  1  0
 15 16  2  0
 16 17  1  0
 17 18  2  0
 18 19  1  0
 19 20  2  0
 14 21  1  0
 21 22  1  0
 10  4  1  0
 22 11  1  0
 20 15  1  0
  3 23  1  0
  3 24  1  0
  5 25  1  0
  6 26  1  0
  9 27  1  0
 10 28  1  0
 12 29  1  0
 12 30  1  0
 13 31  1  0
 13 32  1  0
 16 33  1  0
 17 34  1  0
 18 35  1  0
 19 36  1  0
 21 37  1  0
 21 38  1  0
 22 39  1  0
 22 40  1  0
M  END
$$$$
