
     RDKit          3D

 54 57  0  0  0  0  0  0  0  0999 V2000
    8.3754   -1.8884    0.0895 C   0  0  0  0  0  0  0  0  0  0  0  0
    7.0077   -1.7620   -0.2760 O   0  0  0  0  0  0  0  0  0  0  0  0
    6.1360   -1.3633    0.7014 C   0  0  0  0  0  0  0  0  0  0  0  0
    6.4627   -1.1212    2.0347 C   0  0  0  0  0  0  0  0  0  0  0  0
    5.4712   -0.7257    2.9333 C   0  0  0  0  0  0  0  0  0  0  0  0
    4.1534   -0.5699    2.4999 C   0  0  0  0  0  0  0  0  0  0  0  0
    3.8105   -0.8042    1.1630 C   0  0  0  0  0  0  0  0  0  0  0  0
    2.4541   -0.6278    0.8098 N   0  0  0  0  0  0  0  0  0  0  0  0
    1.8930   -0.7378   -0.4491 C   0  0  0  0  0  0  0  0  0  0  0  0
    2.4951   -0.9287   -1.5007 O   0  0  0  0  0  0  0  0  0  0  0  0
    0.4136   -0.5197   -0.4899 C   0  0  0  0  0  0  0  0  0  0  0  0
   -0.3929   -0.9370    0.5016 C   0  0  0  0  0  0  0  0  0  0  0  0
   -1.8321   -0.7199    0.4945 C   0  0  0  0  0  0  0  0  0  0  0  0
   -2.6439   -1.1808    1.6563 C   0  0  0  0  0  0  0  0  0  0  0  0
   -2.0823   -1.7108    2.6187 O   0  0  0  0  0  0  0  0  0  0  0  0
   -4.0061   -0.9607    1.5735 N   0  0  0  0  0  0  0  0  0  0  0  0
   -4.8342   -1.3836    2.6078 C   0  0  0  0  0  0  0  0  0  0  0  0
   -6.1566   -1.1787    2.5799 C   0  0  0  0  0  0  0  0  0  0  0  0
   -6.7525   -0.5024    1.4596 C   0  0  0  0  0  0  0  0  0  0  0  0
   -5.9926   -0.0771    0.4439 C   0  0  0  0  0  0  0  0  0  0  0  0
   -4.5201   -0.3062    0.4705 C   0  0  0  0  0  0  0  0  0  0  0  0
   -3.8105    0.1145   -0.5255 N   0  0  0  0  0  0  0  0  0  0  0  0
   -2.4492   -0.0923   -0.5314 C   0  0  0  0  0  0  0  0  0  0  0  0
   -1.6615    0.3475   -1.6233 N   0  0  0  0  0  0  0  0  0  0  0  0
   -2.3158    1.0285   -2.7593 C   0  0  0  0  0  0  0  0  0  0  0  0
   -2.5870    2.5173   -2.4603 C   0  0  0  0  0  0  0  0  0  0  0  0
   -3.4631    3.1151   -3.5638 C   0  0  0  0  0  0  0  0  0  0  0  0
   -1.2973    3.3293   -2.3303 C   0  0  0  0  0  0  0  0  0  0  0  0
   -0.2781    0.1136   -1.6750 C   0  0  0  0  0  0  0  0  0  0  0  0
    0.4061    0.4417   -2.7354 N   0  0  0  0  0  0  0  0  0  0  0  0
    4.8104   -1.2047    0.2733 C   0  0  0  0  0  0  0  0  0  0  0  0
    8.7851   -0.9290    0.4223 H   0  0  0  0  0  0  0  0  0  0  0  0
    8.5112   -2.6623    0.8518 H   0  0  0  0  0  0  0  0  0  0  0  0
    8.9323   -2.1977   -0.8005 H   0  0  0  0  0  0  0  0  0  0  0  0
    7.4754   -1.2342    2.4065 H   0  0  0  0  0  0  0  0  0  0  0  0
    5.7256   -0.5399    3.9737 H   0  0  0  0  0  0  0  0  0  0  0  0
    3.4036   -0.2619    3.2243 H   0  0  0  0  0  0  0  0  0  0  0  0
    1.8496   -0.3347    1.5665 H   0  0  0  0  0  0  0  0  0  0  0  0
    0.0032   -1.4744    1.3599 H   0  0  0  0  0  0  0  0  0  0  0  0
   -4.3615   -1.8925    3.4446 H   0  0  0  0  0  0  0  0  0  0  0  0
   -6.7957   -1.5131    3.3907 H   0  0  0  0  0  0  0  0  0  0  0  0
   -7.8267   -0.3472    1.4585 H   0  0  0  0  0  0  0  0  0  0  0  0
   -6.4010    0.4348   -0.4176 H   0  0  0  0  0  0  0  0  0  0  0  0
   -3.2617    0.5186   -2.9867 H   0  0  0  0  0  0  0  0  0  0  0  0
   -1.7303    0.9345   -3.6825 H   0  0  0  0  0  0  0  0  0  0  0  0
   -3.1361    2.6084   -1.5150 H   0  0  0  0  0  0  0  0  0  0  0  0
   -2.9654    3.0640   -4.5389 H   0  0  0  0  0  0  0  0  0  0  0  0
   -4.4142    2.5774   -3.6388 H   0  0  0  0  0  0  0  0  0  0  0  0
   -3.6907    4.1659   -3.3539 H   0  0  0  0  0  0  0  0  0  0  0  0
   -0.6854    3.2528   -3.2355 H   0  0  0  0  0  0  0  0  0  0  0  0
   -0.6983    2.9890   -1.4803 H   0  0  0  0  0  0  0  0  0  0  0  0
   -1.5221    4.3889   -2.1651 H   0  0  0  0  0  0  0  0  0  0  0  0
    1.3955    0.1552   -2.6342 H   0  0  0  0  0  0  0  0  0  0  0  0
    4.5941   -1.4070   -0.7712 H   0  0  0  0  0  0  0  0  0  0  0  0
  1  2  1  0
  2  3  1  0
  3  4  2  0
  4  5  1  0
  5  6  2  0
  6  7  1  0
  7  8  1  0
  8  9  1  0
  9 10  2  0
  9 11  1  0
 11 12  2  0
 12 13  1  0
 13 14  1  0
 14 15  2  0
 14 16  1  0
 16 17  1  0
 17 18  2  0
 18 19  1  0
 19 20  2  0
 20 21  1  0
 21 22  2  0
 22 23  1  0
 23 24  1  0
 24 25  1  0
 25 26  1  0
 26 27  1  0
 26 28  1  0
 24 29  1  0
 29 30  2  3
  7 31  2  0
 31  3  1  0
 29 11  1  0
 23 13  2  0
 21 16  1  0
  1 32  1  0
  1 33  1  0
  1 34  1  0
  4 35  1  0
  5 36  1  0
  6 37  1  0
  8 38  1  0
 12 39  1  0
 17 40  1  0
 18 41  1  0
 19 42  1  0
 20 43  1  0
 25 44  1  0
 25 45  1  0
 26 46  1  0
 27 47  1  0
 27 48  1  0
 27 49  1  0
 28 50  1  0
 28 51  1  0
 28 52  1  0
 30 53  1  0
 31 54  1  0
M  END
$$$$
