
     RDKit          3D

 37 39  0  0  0  0  0  0  0  0999 V2000
    4.2388   -2.1989    0.5878 C   0  0  0  0  0  0  0  0  0  0  0  0
    3.0303   -1.3109    0.5836 C   0  0  0  0  0  0  0  0  0  0  0  0
    1.7634   -1.8327    0.8482 C   0  0  0  0  0  0  0  0  0  0  0  0
    0.6322   -1.0104    0.8021 C   0  0  0  0  0  0  0  0  0  0  0  0
    0.7324    0.3421    0.4580 C   0  0  0  0  0  0  0  0  0  0  0  0
    2.0167    0.8802    0.2570 C   0  0  0  0  0  0  0  0  0  0  0  0
    3.1486    0.0485    0.2832 C   0  0  0  0  0  0  0  0  0  0  0  0
    2.1842    2.3528    0.0018 C   0  0  0  0  0  0  0  0  0  0  0  0
    1.1816    3.0942    0.8663 C   0  0  0  0  0  0  0  0  0  0  0  0
   -0.2274    2.6389    0.5208 C   0  0  0  0  0  0  0  0  0  0  0  0
   -0.4123    1.1927    0.3806 N   0  0  0  0  0  0  0  0  0  0  0  0
   -1.7219    0.8025    0.0732 C   0  0  0  0  0  0  0  0  0  0  0  0
   -2.6862    1.5200    0.3748 O   0  0  0  0  0  0  0  0  0  0  0  0
   -1.9530   -0.4590   -0.7884 C   0  0  0  0  0  0  0  0  0  0  0  0
   -2.8663   -1.4598   -0.0827 C   0  0  0  0  0  0  0  0  0  0  0  0
   -3.9055   -1.8041   -1.1220 C   0  0  0  0  0  0  0  0  0  0  0  0
   -3.9852   -0.5320   -1.9260 C   0  0  0  0  0  0  0  0  0  0  0  0
   -2.6371   -0.0624   -2.0035 O   0  0  0  0  0  0  0  0  0  0  0  0
    5.1286   -1.6459    0.9069 H   0  0  0  0  0  0  0  0  0  0  0  0
    4.1091   -3.0339    1.2844 H   0  0  0  0  0  0  0  0  0  0  0  0
    4.4115   -2.5997   -0.4157 H   0  0  0  0  0  0  0  0  0  0  0  0
    1.6456   -2.8833    1.1051 H   0  0  0  0  0  0  0  0  0  0  0  0
   -0.3170   -1.4504    1.0857 H   0  0  0  0  0  0  0  0  0  0  0  0
    4.1320    0.4712    0.0851 H   0  0  0  0  0  0  0  0  0  0  0  0
    2.0257    2.5617   -1.0625 H   0  0  0  0  0  0  0  0  0  0  0  0
    3.1964    2.6810    0.2643 H   0  0  0  0  0  0  0  0  0  0  0  0
    1.2727    4.1762    0.7207 H   0  0  0  0  0  0  0  0  0  0  0  0
    1.3815    2.8944    1.9274 H   0  0  0  0  0  0  0  0  0  0  0  0
   -0.5361    3.0940   -0.4299 H   0  0  0  0  0  0  0  0  0  0  0  0
   -0.9213    3.0089    1.2858 H   0  0  0  0  0  0  0  0  0  0  0  0
   -1.0233   -0.9166   -1.1262 H   0  0  0  0  0  0  0  0  0  0  0  0
   -2.3231   -2.3471    0.2568 H   0  0  0  0  0  0  0  0  0  0  0  0
   -3.3427   -1.0217    0.8021 H   0  0  0  0  0  0  0  0  0  0  0  0
   -4.8659   -2.1058   -0.6964 H   0  0  0  0  0  0  0  0  0  0  0  0
   -3.5340   -2.6212   -1.7517 H   0  0  0  0  0  0  0  0  0  0  0  0
   -4.3798   -0.6919   -2.9330 H   0  0  0  0  0  0  0  0  0  0  0  0
   -4.5931    0.2286   -1.4238 H   0  0  0  0  0  0  0  0  0  0  0  0
  1  2  1  0
  2  3  2  0
  3  4  1  0
  4  5  2  0
  5  6  1  0
  6  7  2  0
  6  8  1  0
  8  9  1  0
  9 10  1  0
 10 11  1  0
 11 12  1  0
 12 13  2  0
 12 14  1  0
 14 15  1  0
 15 16  1  0
 16 17  1  0
 17 18  1  0
  7  2  1  0
 18 14  1  0
 11  5  1  0
  1 19  1  0
  1 20  1  0
  1 21  1  0
  3 22  1  0
  4 23  1  0
  7 24  1  0
  8 25  1  0
  8 26  1  0
  9 27  1  0
  9 28  1  0
 10 29  1  0
 10 30  1  0
 14 31  1  0
 15 32  1  0
 15 33  1  0
 16 34  1  0
 16 35  1  0
 17 36  1  0
 17 37  1  0
M  END
$$$$
