
     RDKit          3D

 59 62  0  0  0  0  0  0  0  0999 V2000
   -6.2689    3.1791    1.2595 C   0  0  0  0  0  0  0  0  0  0  0  0
   -5.9669    1.7567    1.6990 C   0  0  0  0  0  0  0  0  0  0  0  0
   -5.9081    0.8318    0.5828 N   0  0  0  0  0  0  0  0  0  0  0  0
   -4.7880    0.4017   -0.1048 C   0  0  0  0  0  0  0  0  0  0  0  0
   -3.4320    0.8708    0.1564 C   0  0  0  0  0  0  0  0  0  0  0  0
   -3.2113    2.0376    0.4758 O   0  0  0  0  0  0  0  0  0  0  0  0
   -2.3852   -0.0495   -0.0135 N   0  0  0  0  0  0  0  0  0  0  0  0
   -2.5269   -1.4397    0.4226 C   0  0  0  0  0  0  0  0  0  0  0  0
   -1.5680   -2.3542   -0.3307 C   0  0  0  0  0  0  0  0  0  0  0  0
   -0.1283   -1.8570   -0.2258 C   0  0  0  0  0  0  0  0  0  0  0  0
   -0.0198   -0.3930   -0.6727 C   0  0  0  0  0  0  0  0  0  0  0  0
    1.3965    0.1238   -0.4685 C   0  0  0  0  0  0  0  0  0  0  0  0
    1.6955    0.9522    0.3847 O   0  0  0  0  0  0  0  0  0  0  0  0
    2.3229   -0.4429   -1.3185 N   0  0  0  0  0  0  0  0  0  0  0  0
    3.7282   -0.0822   -1.2648 C   0  0  0  0  0  0  0  0  0  0  0  0
    4.4611   -0.7867   -0.1210 C   0  0  0  0  0  0  0  0  0  0  0  0
    5.9293   -0.4441   -0.1061 C   0  0  0  0  0  0  0  0  0  0  0  0
    6.3742    0.7257    0.5217 C   0  0  0  0  0  0  0  0  0  0  0  0
    7.7304    1.0589    0.5206 C   0  0  0  0  0  0  0  0  0  0  0  0
    8.6630    0.2356   -0.1196 C   0  0  0  0  0  0  0  0  0  0  0  0
   10.1234    0.5756   -0.0910 C   0  0  0  0  0  0  0  0  0  0  0  0
    8.2202   -0.9390   -0.7379 C   0  0  0  0  0  0  0  0  0  0  0  0
    6.8637   -1.2731   -0.7377 C   0  0  0  0  0  0  0  0  0  0  0  0
   -1.0226    0.4823    0.0853 C   0  0  0  0  0  0  0  0  0  0  0  0
   -5.2128   -0.4597   -1.1108 C   0  0  0  0  0  0  0  0  0  0  0  0
   -6.6213   -0.5819   -0.9761 C   0  0  0  0  0  0  0  0  0  0  0  0
   -7.9432   -1.4109   -1.7258 S   0  0  0  0  0  0  0  0  0  0  0  0
   -9.0301   -0.6708   -0.6170 C   0  0  0  0  0  0  0  0  0  0  0  0
   -8.4252    0.1756    0.2878 C   0  0  0  0  0  0  0  0  0  0  0  0
   -7.0213    0.2089    0.0576 C   0  0  0  0  0  0  0  0  0  0  0  0
   -6.2899    3.8471    2.1261 H   0  0  0  0  0  0  0  0  0  0  0  0
   -5.5131    3.5500    0.5600 H   0  0  0  0  0  0  0  0  0  0  0  0
   -7.2414    3.2407    0.7596 H   0  0  0  0  0  0  0  0  0  0  0  0
   -6.7401    1.3989    2.3884 H   0  0  0  0  0  0  0  0  0  0  0  0
   -5.0177    1.7080    2.2413 H   0  0  0  0  0  0  0  0  0  0  0  0
   -2.3103   -1.4634    1.4984 H   0  0  0  0  0  0  0  0  0  0  0  0
   -3.5478   -1.8080    0.3112 H   0  0  0  0  0  0  0  0  0  0  0  0
   -1.8585   -2.3948   -1.3879 H   0  0  0  0  0  0  0  0  0  0  0  0
   -1.6381   -3.3736    0.0644 H   0  0  0  0  0  0  0  0  0  0  0  0
    0.2214   -1.9580    0.8099 H   0  0  0  0  0  0  0  0  0  0  0  0
    0.5201   -2.4973   -0.8352 H   0  0  0  0  0  0  0  0  0  0  0  0
   -0.2500   -0.3307   -1.7452 H   0  0  0  0  0  0  0  0  0  0  0  0
    2.0228   -1.1103   -2.0171 H   0  0  0  0  0  0  0  0  0  0  0  0
    3.8047    1.0067   -1.1614 H   0  0  0  0  0  0  0  0  0  0  0  0
    4.1651   -0.3561   -2.2318 H   0  0  0  0  0  0  0  0  0  0  0  0
    4.0162   -0.5202    0.8461 H   0  0  0  0  0  0  0  0  0  0  0  0
    4.3350   -1.8737   -0.2100 H   0  0  0  0  0  0  0  0  0  0  0  0
    5.6649    1.3849    1.0192 H   0  0  0  0  0  0  0  0  0  0  0  0
    8.0530    1.9680    1.0231 H   0  0  0  0  0  0  0  0  0  0  0  0
   10.6252    0.2169   -0.9960 H   0  0  0  0  0  0  0  0  0  0  0  0
   10.2721    1.6597   -0.0458 H   0  0  0  0  0  0  0  0  0  0  0  0
   10.5973    0.1171    0.7825 H   0  0  0  0  0  0  0  0  0  0  0  0
    8.9308   -1.6026   -1.2255 H   0  0  0  0  0  0  0  0  0  0  0  0
    6.5445   -2.1880   -1.2309 H   0  0  0  0  0  0  0  0  0  0  0  0
   -0.9941    1.5014   -0.3195 H   0  0  0  0  0  0  0  0  0  0  0  0
   -0.7740    0.5543    1.1522 H   0  0  0  0  0  0  0  0  0  0  0  0
   -4.5875   -0.9374   -1.8528 H   0  0  0  0  0  0  0  0  0  0  0  0
  -10.0844   -0.8998   -0.6925 H   0  0  0  0  0  0  0  0  0  0  0  0
   -8.9548    0.7284    1.0525 H   0  0  0  0  0  0  0  0  0  0  0  0
  1  2  1  0
  2  3  1  0
  3  4  1  0
  4  5  1  0
  5  6  2  0
  5  7  1  0
  7  8  1  0
  8  9  1  0
  9 10  1  0
 10 11  1  0
 11 12  1  0
 12 13  2  0
 12 14  1  0
 14 15  1  0
 15 16  1  0
 16 17  1  0
 17 18  2  0
 18 19  1  0
 19 20  2  0
 20 21  1  0
 20 22  1  0
 22 23  2  0
 11 24  1  0
  4 25  2  0
 25 26  1  0
 26 27  1  0
 27 28  1  0
 28 29  2  0
 29 30  1  0
 30  3  1  0
 24  7  1  0
 30 26  2  0
 23 17  1  0
  1 31  1  0
  1 32  1  0
  1 33  1  0
  2 34  1  0
  2 35  1  0
  8 36  1  0
  8 37  1  0
  9 38  1  0
  9 39  1  0
 10 40  1  0
 10 41  1  0
 11 42  1  0
 14 43  1  0
 15 44  1  0
 15 45  1  0
 16 46  1  0
 16 47  1  0
 18 48  1  0
 19 49  1  0
 21 50  1  0
 21 51  1  0
 21 52  1  0
 22 53  1  0
 23 54  1  0
 24 55  1  0
 24 56  1  0
 25 57  1  0
 28 58  1  0
 29 59  1  0
M  END
$$$$
