
     RDKit          3D

 46 48  0  0  0  0  0  0  0  0999 V2000
   -2.0134    5.1477   -0.3992 C   0  0  0  0  0  0  0  0  0  0  0  0
   -2.5979    3.7523   -0.5192 C   0  0  0  0  0  0  0  0  0  0  0  0
   -1.6810    2.7823    0.0015 O   0  0  0  0  0  0  0  0  0  0  0  0
   -0.7442    2.3484   -0.8635 C   0  0  0  0  0  0  0  0  0  0  0  0
   -0.5768    2.6646   -2.0266 O   0  0  0  0  0  0  0  0  0  0  0  0
    0.1192    1.3197   -0.1922 C   0  0  0  0  0  0  0  0  0  0  0  0
    0.8725    1.5767    0.8377 N   0  0  0  0  0  0  0  0  0  0  0  0
    1.4811    0.3973    1.1640 N   0  0  0  0  0  0  0  0  0  0  0  0
    1.2660   -0.6448    0.1536 C   0  0  0  0  0  0  0  0  0  0  0  0
    2.5052   -1.0007   -0.6769 C   0  0  0  0  0  0  0  0  0  0  0  0
    2.4288   -1.4383   -1.8254 O   0  0  0  0  0  0  0  0  0  0  0  0
    3.8480   -0.9419   -0.0503 C   0  0  0  0  0  0  0  0  0  0  0  0
    4.0691   -1.4301    1.2425 C   0  0  0  0  0  0  0  0  0  0  0  0
    5.3495   -1.3686    1.7953 C   0  0  0  0  0  0  0  0  0  0  0  0
    6.4057   -0.8347    1.0557 C   0  0  0  0  0  0  0  0  0  0  0  0
    6.1890   -0.3681   -0.2410 C   0  0  0  0  0  0  0  0  0  0  0  0
    4.9117   -0.4275   -0.7991 C   0  0  0  0  0  0  0  0  0  0  0  0
    0.1449   -0.0773   -0.7322 C   0  0  0  0  0  0  0  0  0  0  0  0
   -1.1758   -0.8034   -0.5788 C   0  0  0  0  0  0  0  0  0  0  0  0
   -1.8976   -0.7893    0.6247 C   0  0  0  0  0  0  0  0  0  0  0  0
   -3.1125   -1.4748    0.7416 C   0  0  0  0  0  0  0  0  0  0  0  0
   -3.6216   -2.1904   -0.3407 C   0  0  0  0  0  0  0  0  0  0  0  0
   -4.7899   -2.9008   -0.3598 O   0  0  0  0  0  0  0  0  0  0  0  0
   -5.5576   -2.9084    0.8373 C   0  0  0  0  0  0  0  0  0  0  0  0
   -2.9034   -2.2152   -1.5373 C   0  0  0  0  0  0  0  0  0  0  0  0
   -1.6910   -1.5315   -1.6584 C   0  0  0  0  0  0  0  0  0  0  0  0
   -1.7352    5.3605    0.6385 H   0  0  0  0  0  0  0  0  0  0  0  0
   -1.1027    5.2456   -0.9988 H   0  0  0  0  0  0  0  0  0  0  0  0
   -2.7332    5.9003   -0.7333 H   0  0  0  0  0  0  0  0  0  0  0  0
   -3.5107    3.6845    0.0820 H   0  0  0  0  0  0  0  0  0  0  0  0
   -2.8757    3.5209   -1.5547 H   0  0  0  0  0  0  0  0  0  0  0  0
    2.3208    0.4775    1.7388 H   0  0  0  0  0  0  0  0  0  0  0  0
    0.9679   -1.5572    0.6833 H   0  0  0  0  0  0  0  0  0  0  0  0
    3.2645   -1.8743    1.8228 H   0  0  0  0  0  0  0  0  0  0  0  0
    5.5288   -1.7454    2.7999 H   0  0  0  0  0  0  0  0  0  0  0  0
    7.4033   -0.7917    1.4869 H   0  0  0  0  0  0  0  0  0  0  0  0
    7.0160    0.0363   -0.8200 H   0  0  0  0  0  0  0  0  0  0  0  0
    4.7482   -0.0732   -1.8148 H   0  0  0  0  0  0  0  0  0  0  0  0
    0.4223   -0.0176   -1.7910 H   0  0  0  0  0  0  0  0  0  0  0  0
   -1.5232   -0.2436    1.4908 H   0  0  0  0  0  0  0  0  0  0  0  0
   -3.6327   -1.4291    1.6927 H   0  0  0  0  0  0  0  0  0  0  0  0
   -5.8893   -1.8982    1.1004 H   0  0  0  0  0  0  0  0  0  0  0  0
   -5.0013   -3.3696    1.6604 H   0  0  0  0  0  0  0  0  0  0  0  0
   -6.4502   -3.5154    0.6579 H   0  0  0  0  0  0  0  0  0  0  0  0
   -3.2910   -2.7754   -2.3849 H   0  0  0  0  0  0  0  0  0  0  0  0
   -1.1547   -1.5781   -2.6051 H   0  0  0  0  0  0  0  0  0  0  0  0
  1  2  1  0
  2  3  1  0
  3  4  1  0
  4  5  2  0
  4  6  1  0
  6  7  2  0
  7  8  1  0
  8  9  1  0
  9 10  1  0
 10 11  2  0
 10 12  1  0
 12 13  2  0
 13 14  1  0
 14 15  2  0
 15 16  1  0
 16 17  2  0
  9 18  1  0
 18 19  1  0
 19 20  2  0
 20 21  1  0
 21 22  2  0
 22 23  1  0
 23 24  1  0
 22 25  1  0
 25 26  2  0
 18  6  1  0
 26 19  1  0
 17 12  1  0
  1 27  1  0
  1 28  1  0
  1 29  1  0
  2 30  1  0
  2 31  1  0
  8 32  1  0
  9 33  1  0
 13 34  1  0
 14 35  1  0
 15 36  1  0
 16 37  1  0
 17 38  1  0
 18 39  1  0
 20 40  1  0
 21 41  1  0
 24 42  1  0
 24 43  1  0
 24 44  1  0
 25 45  1  0
 26 46  1  0
M  END
$$$$
