
     RDKit          3D

 42 44  0  0  0  0  0  0  0  0999 V2000
   -5.8686   -1.1201    1.0826 C   0  0  0  0  0  0  0  0  0  0  0  0
   -4.9603   -1.3781   -0.0884 C   0  0  0  0  0  0  0  0  0  0  0  0
   -5.0957   -2.5660   -0.8230 C   0  0  0  0  0  0  0  0  0  0  0  0
   -4.2596   -2.8271   -1.9063 C   0  0  0  0  0  0  0  0  0  0  0  0
   -3.2806   -1.9051   -2.2625 C   0  0  0  0  0  0  0  0  0  0  0  0
   -3.1361   -0.7179   -1.5393 C   0  0  0  0  0  0  0  0  0  0  0  0
   -3.9728   -0.4433   -0.4527 C   0  0  0  0  0  0  0  0  0  0  0  0
   -3.9195    0.6862    0.3216 O   0  0  0  0  0  0  0  0  0  0  0  0
   -2.9940    1.7014   -0.0226 C   0  0  0  0  0  0  0  0  0  0  0  0
   -1.5402    1.4376    0.3905 C   0  0  0  0  0  0  0  0  0  0  0  0
   -1.2100    0.6551    1.2775 O   0  0  0  0  0  0  0  0  0  0  0  0
   -0.6129    2.1650   -0.3344 N   0  0  0  0  0  0  0  0  0  0  0  0
    0.8108    2.0255   -0.0824 C   0  0  0  0  0  0  0  0  0  0  0  0
    1.3752    0.7178   -0.6385 C   0  0  0  0  0  0  0  0  0  0  0  0
    2.7985    0.5459   -0.2436 C   0  0  0  0  0  0  0  0  0  0  0  0
    3.8495    1.0730   -0.8364 N   0  0  0  0  0  0  0  0  0  0  0  0
    4.9346    0.6428   -0.1110 C   0  0  0  0  0  0  0  0  0  0  0  0
    6.2998    0.9013   -0.2987 C   0  0  0  0  0  0  0  0  0  0  0  0
    7.2195    0.3377    0.5954 C   0  0  0  0  0  0  0  0  0  0  0  0
    6.7880   -0.4662    1.6538 C   0  0  0  0  0  0  0  0  0  0  0  0
    5.4291   -0.7350    1.8571 C   0  0  0  0  0  0  0  0  0  0  0  0
    4.5353   -0.1611    0.9508 C   0  0  0  0  0  0  0  0  0  0  0  0
    3.1694   -0.2067    0.8445 N   0  0  0  0  0  0  0  0  0  0  0  0
   -6.5765   -1.9423    1.2317 H   0  0  0  0  0  0  0  0  0  0  0  0
   -5.2821   -1.0172    2.0015 H   0  0  0  0  0  0  0  0  0  0  0  0
   -6.4508   -0.2075    0.9174 H   0  0  0  0  0  0  0  0  0  0  0  0
   -5.8540   -3.2967   -0.5512 H   0  0  0  0  0  0  0  0  0  0  0  0
   -4.3699   -3.7507   -2.4688 H   0  0  0  0  0  0  0  0  0  0  0  0
   -2.6237   -2.1115   -3.1037 H   0  0  0  0  0  0  0  0  0  0  0  0
   -2.3525   -0.0380   -1.8521 H   0  0  0  0  0  0  0  0  0  0  0  0
   -3.0647    1.9573   -1.0868 H   0  0  0  0  0  0  0  0  0  0  0  0
   -3.3011    2.6008    0.5248 H   0  0  0  0  0  0  0  0  0  0  0  0
   -0.9139    2.7869   -1.0741 H   0  0  0  0  0  0  0  0  0  0  0  0
    1.3085    2.8882   -0.5394 H   0  0  0  0  0  0  0  0  0  0  0  0
    0.9710    2.0853    1.0012 H   0  0  0  0  0  0  0  0  0  0  0  0
    0.7879   -0.1407   -0.2919 H   0  0  0  0  0  0  0  0  0  0  0  0
    1.2968    0.7192   -1.7326 H   0  0  0  0  0  0  0  0  0  0  0  0
    6.6264    1.5261   -1.1219 H   0  0  0  0  0  0  0  0  0  0  0  0
    8.2814    0.5295    0.4610 H   0  0  0  0  0  0  0  0  0  0  0  0
    7.5226   -0.8922    2.3342 H   0  0  0  0  0  0  0  0  0  0  0  0
    5.0950   -1.3580    2.6795 H   0  0  0  0  0  0  0  0  0  0  0  0
    2.5403   -0.7014    1.4619 H   0  0  0  0  0  0  0  0  0  0  0  0
  1  2  1  0
  2  3  2  0
  3  4  1  0
  4  5  2  0
  5  6  1  0
  6  7  2  0
  7  8  1  0
  8  9  1  0
  9 10  1  0
 10 11  2  0
 10 12  1  0
 12 13  1  0
 13 14  1  0
 14 15  1  0
 15 16  2  0
 16 17  1  0
 17 18  2  0
 18 19  1  0
 19 20  2  0
 20 21  1  0
 21 22  2  0
 22 23  1  0
  7  2  1  0
 23 15  1  0
 22 17  1  0
  1 24  1  0
  1 25  1  0
  1 26  1  0
  3 27  1  0
  4 28  1  0
  5 29  1  0
  6 30  1  0
  9 31  1  0
  9 32  1  0
 12 33  1  0
 13 34  1  0
 13 35  1  0
 14 36  1  0
 14 37  1  0
 18 38  1  0
 19 39  1  0
 20 40  1  0
 21 41  1  0
 23 42  1  0
M  END
$$$$
