
     RDKit          3D

 49 51  0  0  0  0  0  0  0  0999 V2000
    7.1850    2.1858   -2.6140 C   0  0  0  0  0  0  0  0  0  0  0  0
    6.0215    1.4660   -1.9529 C   0  0  0  0  0  0  0  0  0  0  0  0
    4.6306    2.6117   -1.7230 S   0  0  0  0  0  0  0  0  0  0  0  0
    3.4709    1.5559   -0.9498 C   0  0  0  0  0  0  0  0  0  0  0  0
    3.6556    0.2813   -0.9152 N   0  0  0  0  0  0  0  0  0  0  0  0
    2.7061   -0.4863   -0.2790 C   0  0  0  0  0  0  0  0  0  0  0  0
    2.8786   -1.6790   -0.0474 O   0  0  0  0  0  0  0  0  0  0  0  0
    1.4301    0.1663    0.1558 C   0  0  0  0  0  0  0  0  0  0  0  0
    1.3328    1.5065    0.0993 C   0  0  0  0  0  0  0  0  0  0  0  0
    2.3918    2.1885   -0.4244 N   0  0  0  0  0  0  0  0  0  0  0  0
    0.2057    2.1760    0.5131 N   0  0  0  0  0  0  0  0  0  0  0  0
   -0.6566    1.5617    1.2706 C   0  0  0  0  0  0  0  0  0  0  0  0
   -1.8208    2.3790    1.7743 C   0  0  0  0  0  0  0  0  0  0  0  0
   -0.4866    0.1248    1.7283 C   0  0  0  0  0  0  0  0  0  0  0  0
   -1.7096   -0.6410    2.1624 C   0  0  0  0  0  0  0  0  0  0  0  0
   -1.6749   -1.5047    3.0309 O   0  0  0  0  0  0  0  0  0  0  0  0
   -2.8172   -0.2916    1.4633 O   0  0  0  0  0  0  0  0  0  0  0  0
   -4.0401   -0.9769    1.8008 C   0  0  0  0  0  0  0  0  0  0  0  0
   -5.1897   -0.0471    1.4246 C   0  0  0  0  0  0  0  0  0  0  0  0
   -4.1307   -2.2859    1.0262 C   0  0  0  0  0  0  0  0  0  0  0  0
    0.3299   -0.6919    0.7093 C   0  0  0  0  0  0  0  0  0  0  0  0
   -0.4779   -1.3290   -0.4191 C   0  0  0  0  0  0  0  0  0  0  0  0
   -0.4723   -2.7230   -0.5684 C   0  0  0  0  0  0  0  0  0  0  0  0
   -1.2074   -3.2908   -1.5977 C   0  0  0  0  0  0  0  0  0  0  0  0
   -1.9416   -2.5771   -2.4784 N   0  0  0  0  0  0  0  0  0  0  0  0
   -1.9242   -1.2357   -2.3341 C   0  0  0  0  0  0  0  0  0  0  0  0
   -1.2196   -0.5744   -1.3390 C   0  0  0  0  0  0  0  0  0  0  0  0
    6.9206    2.5264   -3.6215 H   0  0  0  0  0  0  0  0  0  0  0  0
    7.5147    3.0517   -2.0269 H   0  0  0  0  0  0  0  0  0  0  0  0
    8.0397    1.5056   -2.7114 H   0  0  0  0  0  0  0  0  0  0  0  0
    6.3361    1.0847   -0.9758 H   0  0  0  0  0  0  0  0  0  0  0  0
    5.7128    0.6229   -2.5789 H   0  0  0  0  0  0  0  0  0  0  0  0
    2.2749    3.1849   -0.5418 H   0  0  0  0  0  0  0  0  0  0  0  0
   -2.0677    2.0943    2.7994 H   0  0  0  0  0  0  0  0  0  0  0  0
   -2.6844    2.2221    1.1244 H   0  0  0  0  0  0  0  0  0  0  0  0
   -1.5679    3.4440    1.7607 H   0  0  0  0  0  0  0  0  0  0  0  0
    0.1157    0.2330    2.6441 H   0  0  0  0  0  0  0  0  0  0  0  0
   -4.0872   -1.1629    2.8790 H   0  0  0  0  0  0  0  0  0  0  0  0
   -5.1572    0.2055    0.3581 H   0  0  0  0  0  0  0  0  0  0  0  0
   -5.1103    0.8993    1.9770 H   0  0  0  0  0  0  0  0  0  0  0  0
   -6.1610   -0.4997    1.6485 H   0  0  0  0  0  0  0  0  0  0  0  0
   -4.0738   -2.1058   -0.0520 H   0  0  0  0  0  0  0  0  0  0  0  0
   -5.0697   -2.8074    1.2406 H   0  0  0  0  0  0  0  0  0  0  0  0
   -3.2985   -2.9525    1.2781 H   0  0  0  0  0  0  0  0  0  0  0  0
    0.7845   -1.5078    1.2920 H   0  0  0  0  0  0  0  0  0  0  0  0
    0.1015   -3.3652    0.1005 H   0  0  0  0  0  0  0  0  0  0  0  0
   -1.2238   -4.3672   -1.7437 H   0  0  0  0  0  0  0  0  0  0  0  0
   -2.5103   -0.6842   -3.0642 H   0  0  0  0  0  0  0  0  0  0  0  0
   -1.2578    0.5091   -1.3030 H   0  0  0  0  0  0  0  0  0  0  0  0
  1  2  1  0
  2  3  1  0
  3  4  1  0
  4  5  2  0
  5  6  1  0
  6  7  2  0
  6  8  1  0
  8  9  2  0
  9 10  1  0
  9 11  1  0
 11 12  2  0
 12 13  1  0
 12 14  1  0
 14 15  1  0
 15 16  2  0
 15 17  1  0
 17 18  1  0
 18 19  1  0
 18 20  1  0
 14 21  1  0
 21 22  1  0
 22 23  2  0
 23 24  1  0
 24 25  2  0
 25 26  1  0
 26 27  2  0
 10  4  1  0
 27 22  1  0
 21  8  1  0
  1 28  1  0
  1 29  1  0
  1 30  1  0
  2 31  1  0
  2 32  1  0
 10 33  1  0
 13 34  1  0
 13 35  1  0
 13 36  1  0
 14 37  1  0
 18 38  1  0
 19 39  1  0
 19 40  1  0
 19 41  1  0
 20 42  1  0
 20 43  1  0
 20 44  1  0
 21 45  1  0
 23 46  1  0
 24 47  1  0
 26 48  1  0
 27 49  1  0
M  END
$$$$
