
     RDKit          3D

 90 95  0  0  0  0  0  0  0  0999 V2000
   -0.0642    3.0966   -0.7138 C   0  0  0  0  0  0  0  0  0  0  0  0
    0.9216    2.6982    0.3898 C   0  0  0  0  0  0  0  0  0  0  0  0
    0.3558    2.8743    1.8087 C   0  0  0  0  0  0  0  0  0  0  0  0
   -1.0891    2.6697    1.9940 N   0  0  0  0  0  0  0  0  0  0  0  0
   -1.8049    3.6988    2.7950 C   0  0  0  0  0  0  0  0  0  0  0  0
   -1.8517    5.0498    2.0693 C   0  0  0  0  0  0  0  0  0  0  0  0
   -1.2696    3.8593    4.2387 C   0  0  0  0  0  0  0  0  0  0  0  0
   -1.2913    2.6559    4.9958 O   0  0  0  0  0  0  0  0  0  0  0  0
   -1.6091    1.3685    2.1249 C   0  0  0  0  0  0  0  0  0  0  0  0
   -2.3290    1.0510    3.0745 O   0  0  0  0  0  0  0  0  0  0  0  0
   -1.5023    0.4059    1.0033 C   0  0  0  0  0  0  0  0  0  0  0  0
   -2.7192   -0.0908    0.4994 C   0  0  0  0  0  0  0  0  0  0  0  0
   -2.7351   -1.0788   -0.4888 C   0  0  0  0  0  0  0  0  0  0  0  0
   -3.9276   -1.6424   -0.9832 N   0  0  0  0  0  0  0  0  0  0  0  0
   -5.1726   -1.0320   -0.9758 C   0  0  0  0  0  0  0  0  0  0  0  0
   -5.3648    0.1546   -0.7401 O   0  0  0  0  0  0  0  0  0  0  0  0
   -6.1514   -1.9698   -1.2677 N   0  0  0  0  0  0  0  0  0  0  0  0
   -7.5310   -1.7002   -1.4784 C   0  0  0  0  0  0  0  0  0  0  0  0
   -7.9344   -0.4425   -1.9436 C   0  0  0  0  0  0  0  0  0  0  0  0
   -9.2804   -0.1504   -2.1577 C   0  0  0  0  0  0  0  0  0  0  0  0
  -10.2469   -1.1190   -1.9075 C   0  0  0  0  0  0  0  0  0  0  0  0
   -9.8813   -2.3990   -1.4638 C   0  0  0  0  0  0  0  0  0  0  0  0
  -10.8854   -3.3575   -1.2216 C   0  0  0  0  0  0  0  0  0  0  0  0
  -10.5685   -4.6360   -0.7817 C   0  0  0  0  0  0  0  0  0  0  0  0
   -9.2405   -4.9815   -0.5768 C   0  0  0  0  0  0  0  0  0  0  0  0
   -8.2302   -4.0414   -0.8096 C   0  0  0  0  0  0  0  0  0  0  0  0
   -8.5111   -2.7214   -1.2533 C   0  0  0  0  0  0  0  0  0  0  0  0
   -1.5257   -1.5914   -0.9624 C   0  0  0  0  0  0  0  0  0  0  0  0
   -0.3131   -1.0934   -0.4782 C   0  0  0  0  0  0  0  0  0  0  0  0
   -0.3055   -0.0854    0.4906 C   0  0  0  0  0  0  0  0  0  0  0  0
    0.8922    0.3058    0.9984 O   0  0  0  0  0  0  0  0  0  0  0  0
    1.5323    1.2936    0.1595 C   0  0  0  0  0  0  0  0  0  0  0  0
    3.0343    1.2206    0.5606 C   0  0  0  0  0  0  0  0  0  0  0  0
    3.9430    2.2021   -0.0523 N   0  0  0  0  0  0  0  0  0  0  0  0
    3.9643    2.1398   -1.5114 C   0  0  0  0  0  0  0  0  0  0  0  0
    5.2937    2.1703    0.5418 C   0  0  0  0  0  0  0  0  0  0  0  0
    6.1796    0.9949    0.1653 C   0  0  0  0  0  0  0  0  0  0  0  0
    6.0790   -0.2384    0.8220 C   0  0  0  0  0  0  0  0  0  0  0  0
    6.8657   -1.3250    0.4216 C   0  0  0  0  0  0  0  0  0  0  0  0
    7.7884   -1.2092   -0.6316 C   0  0  0  0  0  0  0  0  0  0  0  0
    8.5996   -2.3640   -1.0613 C   0  0  0  0  0  0  0  0  0  0  0  0
    8.7286   -2.6946   -2.4227 C   0  0  0  0  0  0  0  0  0  0  0  0
    9.5026   -3.7831   -2.8366 C   0  0  0  0  0  0  0  0  0  0  0  0
   10.1577   -4.5724   -1.8922 C   0  0  0  0  0  0  0  0  0  0  0  0
   10.0375   -4.2688   -0.5391 C   0  0  0  0  0  0  0  0  0  0  0  0
    9.2697   -3.1742   -0.1286 C   0  0  0  0  0  0  0  0  0  0  0  0
    7.9067    0.0395   -1.2611 C   0  0  0  0  0  0  0  0  0  0  0  0
    7.1132    1.1251   -0.8715 C   0  0  0  0  0  0  0  0  0  0  0  0
   -0.4005    4.1274   -0.5734 H   0  0  0  0  0  0  0  0  0  0  0  0
    0.4208    3.0372   -1.6955 H   0  0  0  0  0  0  0  0  0  0  0  0
   -0.9470    2.4523   -0.7495 H   0  0  0  0  0  0  0  0  0  0  0  0
    1.7378    3.4257    0.2957 H   0  0  0  0  0  0  0  0  0  0  0  0
    0.8819    2.2478    2.5392 H   0  0  0  0  0  0  0  0  0  0  0  0
    0.5944    3.9016    2.1000 H   0  0  0  0  0  0  0  0  0  0  0  0
   -2.8501    3.3632    2.8766 H   0  0  0  0  0  0  0  0  0  0  0  0
   -0.8659    5.5186    2.0007 H   0  0  0  0  0  0  0  0  0  0  0  0
   -2.5113    5.7490    2.5913 H   0  0  0  0  0  0  0  0  0  0  0  0
   -2.2385    4.9206    1.0535 H   0  0  0  0  0  0  0  0  0  0  0  0
   -0.2423    4.2362    4.2474 H   0  0  0  0  0  0  0  0  0  0  0  0
   -1.8804    4.5898    4.7782 H   0  0  0  0  0  0  0  0  0  0  0  0
   -1.8043    1.9894    4.4844 H   0  0  0  0  0  0  0  0  0  0  0  0
   -3.6483    0.2825    0.9294 H   0  0  0  0  0  0  0  0  0  0  0  0
   -3.8396   -2.3996   -1.6440 H   0  0  0  0  0  0  0  0  0  0  0  0
   -5.9189   -2.8909   -0.9301 H   0  0  0  0  0  0  0  0  0  0  0  0
   -7.2084    0.3391   -2.1637 H   0  0  0  0  0  0  0  0  0  0  0  0
   -9.5708    0.8354   -2.5128 H   0  0  0  0  0  0  0  0  0  0  0  0
  -11.2934   -0.8665   -2.0684 H   0  0  0  0  0  0  0  0  0  0  0  0
  -11.9364   -3.1120   -1.3761 H   0  0  0  0  0  0  0  0  0  0  0  0
  -11.3593   -5.3613   -0.5938 H   0  0  0  0  0  0  0  0  0  0  0  0
   -8.9900   -5.9802   -0.2381 H   0  0  0  0  0  0  0  0  0  0  0  0
   -7.2098   -4.3665   -0.6280 H   0  0  0  0  0  0  0  0  0  0  0  0
   -1.5078   -2.3793   -1.7121 H   0  0  0  0  0  0  0  0  0  0  0  0
    0.6264   -1.5047   -0.8414 H   0  0  0  0  0  0  0  0  0  0  0  0
    1.4608    1.0021   -0.8976 H   0  0  0  0  0  0  0  0  0  0  0  0
    3.0853    1.3227    1.6529 H   0  0  0  0  0  0  0  0  0  0  0  0
    3.3733    0.1966    0.3516 H   0  0  0  0  0  0  0  0  0  0  0  0
    2.9895    2.4205   -1.9223 H   0  0  0  0  0  0  0  0  0  0  0  0
    4.6730    2.8677   -1.9219 H   0  0  0  0  0  0  0  0  0  0  0  0
    4.2218    1.1443   -1.8914 H   0  0  0  0  0  0  0  0  0  0  0  0
    5.2181    2.2281    1.6342 H   0  0  0  0  0  0  0  0  0  0  0  0
    5.8090    3.1003    0.2608 H   0  0  0  0  0  0  0  0  0  0  0  0
    5.3799   -0.3713    1.6481 H   0  0  0  0  0  0  0  0  0  0  0  0
    6.7380   -2.2743    0.9355 H   0  0  0  0  0  0  0  0  0  0  0  0
    8.2188   -2.0998   -3.1786 H   0  0  0  0  0  0  0  0  0  0  0  0
    9.5875   -4.0153   -3.8978 H   0  0  0  0  0  0  0  0  0  0  0  0
   10.7565   -5.4220   -2.2101 H   0  0  0  0  0  0  0  0  0  0  0  0
   10.5438   -4.8818    0.2028 H   0  0  0  0  0  0  0  0  0  0  0  0
    9.2127   -2.9472    0.9346 H   0  0  0  0  0  0  0  0  0  0  0  0
    8.6331    0.1845   -2.0625 H   0  0  0  0  0  0  0  0  0  0  0  0
    7.2311    2.0786   -1.3839 H   0  0  0  0  0  0  0  0  0  0  0  0
  1  2  1  0
  2  3  1  0
  3  4  1  0
  4  5  1  0
  5  6  1  0
  5  7  1  0
  7  8  1  0
  4  9  1  0
  9 10  2  0
  9 11  1  0
 11 12  2  0
 12 13  1  0
 13 14  1  0
 14 15  1  0
 15 16  2  0
 15 17  1  0
 17 18  1  0
 18 19  2  0
 19 20  1  0
 20 21  2  0
 21 22  1  0
 22 23  2  0
 23 24  1  0
 24 25  2  0
 25 26  1  0
 26 27  2  0
 13 28  2  0
 28 29  1  0
 29 30  2  0
 30 31  1  0
 31 32  1  0
 32 33  1  0
 33 34  1  0
 34 35  1  0
 34 36  1  0
 36 37  1  0
 37 38  2  0
 38 39  1  0
 39 40  2  0
 40 41  1  0
 41 42  2  0
 42 43  1  0
 43 44  2  0
 44 45  1  0
 45 46  2  0
 40 47  1  0
 47 48  2  0
 32  2  1  0
 48 37  1  0
 30 11  1  0
 46 41  1  0
 27 18  1  0
 27 22  1  0
  1 49  1  0
  1 50  1  0
  1 51  1  0
  2 52  1  0
  3 53  1  0
  3 54  1  0
  5 55  1  0
  6 56  1  0
  6 57  1  0
  6 58  1  0
  7 59  1  0
  7 60  1  0
  8 61  1  0
 12 62  1  0
 14 63  1  0
 17 64  1  0
 19 65  1  0
 20 66  1  0
 21 67  1  0
 23 68  1  0
 24 69  1  0
 25 70  1  0
 26 71  1  0
 28 72  1  0
 29 73  1  0
 32 74  1  0
 33 75  1  0
 33 76  1  0
 35 77  1  0
 35 78  1  0
 35 79  1  0
 36 80  1  0
 36 81  1  0
 38 82  1  0
 39 83  1  0
 42 84  1  0
 43 85  1  0
 44 86  1  0
 45 87  1  0
 46 88  1  0
 47 89  1  0
 48 90  1  0
M  END
$$$$
