
     RDKit          3D

 47 49  0  0  0  0  0  0  0  0999 V2000
    6.9710   -1.0852   -4.1739 C   0  0  0  0  0  0  0  0  0  0  0  0
    6.5625   -1.9675   -3.1347 O   0  0  0  0  0  0  0  0  0  0  0  0
    5.4802   -1.5814   -2.3903 C   0  0  0  0  0  0  0  0  0  0  0  0
    4.8353   -0.3557   -2.4615 C   0  0  0  0  0  0  0  0  0  0  0  0
    3.7360   -0.0872   -1.6342 C   0  0  0  0  0  0  0  0  0  0  0  0
    3.2517   -1.0352   -0.7198 C   0  0  0  0  0  0  0  0  0  0  0  0
    2.1404   -0.6298    0.0602 N   0  0  0  0  0  0  0  0  0  0  0  0
    1.4773   -1.1768    1.1565 C   0  0  0  0  0  0  0  0  0  0  0  0
    1.9673   -2.5213    2.0363 S   0  0  0  0  0  0  0  0  0  0  0  0
    0.3172   -0.4490    1.4993 N   0  0  0  0  0  0  0  0  0  0  0  0
   -0.2642   -0.4526    2.8534 C   0  0  0  0  0  0  0  0  0  0  0  0
   -1.7344   -0.8666    2.8167 C   0  0  0  0  0  0  0  0  0  0  0  0
   -2.5090    0.0332    1.8829 C   0  0  0  0  0  0  0  0  0  0  0  0
   -3.8841    0.2318    2.0687 C   0  0  0  0  0  0  0  0  0  0  0  0
   -4.6128    1.0586    1.2031 C   0  0  0  0  0  0  0  0  0  0  0  0
   -5.9584    1.3073    1.3134 O   0  0  0  0  0  0  0  0  0  0  0  0
   -6.6533    0.7107    2.4054 C   0  0  0  0  0  0  0  0  0  0  0  0
   -3.9540    1.6897    0.1262 C   0  0  0  0  0  0  0  0  0  0  0  0
   -4.7345    2.4955   -0.6695 O   0  0  0  0  0  0  0  0  0  0  0  0
   -4.1271    3.1121   -1.7925 C   0  0  0  0  0  0  0  0  0  0  0  0
   -2.5843    1.4762   -0.0653 C   0  0  0  0  0  0  0  0  0  0  0  0
   -1.8546    0.6408    0.8012 C   0  0  0  0  0  0  0  0  0  0  0  0
   -0.3771    0.4265    0.5454 C   0  0  0  0  0  0  0  0  0  0  0  0
    3.8900   -2.2681   -0.6758 C   0  0  0  0  0  0  0  0  0  0  0  0
    5.0016   -2.5301   -1.4949 C   0  0  0  0  0  0  0  0  0  0  0  0
    7.3089   -0.1375   -3.7820 H   0  0  0  0  0  0  0  0  0  0  0  0
    6.1582   -0.9522   -4.8985 H   0  0  0  0  0  0  0  0  0  0  0  0
    7.8099   -1.5362   -4.6959 H   0  0  0  0  0  0  0  0  0  0  0  0
    5.1565    0.4116   -3.1477 H   0  0  0  0  0  0  0  0  0  0  0  0
    3.2603    0.8838   -1.7166 H   0  0  0  0  0  0  0  0  0  0  0  0
    1.8733    0.3260   -0.1221 H   0  0  0  0  0  0  0  0  0  0  0  0
    0.2846   -1.0904    3.5495 H   0  0  0  0  0  0  0  0  0  0  0  0
   -0.1660    0.5729    3.2370 H   0  0  0  0  0  0  0  0  0  0  0  0
   -2.1504   -0.7979    3.8236 H   0  0  0  0  0  0  0  0  0  0  0  0
   -1.8326   -1.9009    2.4684 H   0  0  0  0  0  0  0  0  0  0  0  0
   -4.3661   -0.2670    2.9028 H   0  0  0  0  0  0  0  0  0  0  0  0
   -6.6130   -0.3830    2.3477 H   0  0  0  0  0  0  0  0  0  0  0  0
   -7.7029    0.9924    2.3317 H   0  0  0  0  0  0  0  0  0  0  0  0
   -6.2738    1.0707    3.3619 H   0  0  0  0  0  0  0  0  0  0  0  0
   -3.7671    2.3596   -2.5047 H   0  0  0  0  0  0  0  0  0  0  0  0
   -3.3227    3.7873   -1.4851 H   0  0  0  0  0  0  0  0  0  0  0  0
   -4.8883    3.7080   -2.3050 H   0  0  0  0  0  0  0  0  0  0  0  0
   -2.0585    1.9474   -0.8875 H   0  0  0  0  0  0  0  0  0  0  0  0
    0.1227    1.3900    0.5841 H   0  0  0  0  0  0  0  0  0  0  0  0
   -0.2626    0.0080   -0.4505 H   0  0  0  0  0  0  0  0  0  0  0  0
    3.5588   -3.0703   -0.0368 H   0  0  0  0  0  0  0  0  0  0  0  0
    5.4879   -3.4981   -1.4341 H   0  0  0  0  0  0  0  0  0  0  0  0
  1  2  1  0
  2  3  1  0
  3  4  2  0
  4  5  1  0
  5  6  2  0
  6  7  1  0
  7  8  1  0
  8  9  2  0
  8 10  1  0
 10 11  1  0
 11 12  1  0
 12 13  1  0
 13 14  2  0
 14 15  1  0
 15 16  1  0
 16 17  1  0
 15 18  2  0
 18 19  1  0
 19 20  1  0
 18 21  1  0
 21 22  2  0
 22 23  1  0
  6 24  1  0
 24 25  2  0
 25  3  1  0
 23 10  1  0
 22 13  1  0
  1 26  1  0
  1 27  1  0
  1 28  1  0
  4 29  1  0
  5 30  1  0
  7 31  1  0
 11 32  1  0
 11 33  1  0
 12 34  1  0
 12 35  1  0
 14 36  1  0
 17 37  1  0
 17 38  1  0
 17 39  1  0
 20 40  1  0
 20 41  1  0
 20 42  1  0
 21 43  1  0
 23 44  1  0
 23 45  1  0
 24 46  1  0
 25 47  1  0
M  END
$$$$
