
     RDKit          3D

 43 45  0  0  0  0  0  0  0  0999 V2000
   -7.9756    1.9980    0.3758 C   0  0  0  0  0  0  0  0  0  0  0  0
   -6.6659    1.2914    0.0673 C   0  0  0  0  0  0  0  0  0  0  0  0
   -5.8615    1.0285    1.3369 C   0  0  0  0  0  0  0  0  0  0  0  0
   -4.5896    0.3065    1.0102 C   0  0  0  0  0  0  0  0  0  0  0  0
   -4.5134   -0.9777    0.8573 N   0  0  0  0  0  0  0  0  0  0  0  0
   -3.2122   -1.3091    0.5519 N   0  0  0  0  0  0  0  0  0  0  0  0
   -2.8216   -2.6112    0.3316 C   0  0  0  0  0  0  0  0  0  0  0  0
   -3.5306   -3.6118    0.3686 O   0  0  0  0  0  0  0  0  0  0  0  0
   -1.3810   -2.7502    0.0187 C   0  0  0  0  0  0  0  0  0  0  0  0
   -0.5948   -1.6602   -0.0163 C   0  0  0  0  0  0  0  0  0  0  0  0
    0.8779   -1.7847   -0.3426 C   0  0  0  0  0  0  0  0  0  0  0  0
    1.8804   -1.7122    1.1832 S   0  0  0  0  0  0  0  0  0  0  0  0
    2.0911    0.0980    1.3174 C   0  0  0  0  0  0  0  0  0  0  0  0
    3.0191    0.6350    0.2350 C   0  0  0  0  0  0  0  0  0  0  0  0
    2.6814    1.5769   -0.4745 O   0  0  0  0  0  0  0  0  0  0  0  0
    4.2391   -0.0223    0.1983 N   0  0  0  0  0  0  0  0  0  0  0  0
    5.3401    0.2402   -0.6385 C   0  0  0  0  0  0  0  0  0  0  0  0
    6.4458   -0.6161   -0.5251 C   0  0  0  0  0  0  0  0  0  0  0  0
    7.5798   -0.4225   -1.3179 C   0  0  0  0  0  0  0  0  0  0  0  0
    7.6097    0.6293   -2.2229 C   0  0  0  0  0  0  0  0  0  0  0  0
    8.6952    0.8159   -2.9845 F   0  0  0  0  0  0  0  0  0  0  0  0
    6.5262    1.4876   -2.3490 C   0  0  0  0  0  0  0  0  0  0  0  0
    5.3912    1.2949   -1.5541 C   0  0  0  0  0  0  0  0  0  0  0  0
   -1.0614   -0.3784    0.1988 N   0  0  0  0  0  0  0  0  0  0  0  0
   -2.3183   -0.2757    0.4699 C   0  0  0  0  0  0  0  0  0  0  0  0
   -3.1205    1.2268    0.7898 S   0  0  0  0  0  0  0  0  0  0  0  0
   -7.7965    2.9631    0.8605 H   0  0  0  0  0  0  0  0  0  0  0  0
   -8.5349    2.1803   -0.5469 H   0  0  0  0  0  0  0  0  0  0  0  0
   -8.6009    1.3914    1.0384 H   0  0  0  0  0  0  0  0  0  0  0  0
   -6.0798    1.9032   -0.6288 H   0  0  0  0  0  0  0  0  0  0  0  0
   -6.8759    0.3459   -0.4469 H   0  0  0  0  0  0  0  0  0  0  0  0
   -6.4408    0.4062    2.0286 H   0  0  0  0  0  0  0  0  0  0  0  0
   -5.6378    1.9702    1.8500 H   0  0  0  0  0  0  0  0  0  0  0  0
   -1.0204   -3.7549   -0.1597 H   0  0  0  0  0  0  0  0  0  0  0  0
    1.0846   -2.7509   -0.8157 H   0  0  0  0  0  0  0  0  0  0  0  0
    1.1883   -1.0180   -1.0591 H   0  0  0  0  0  0  0  0  0  0  0  0
    2.5375    0.3254    2.2912 H   0  0  0  0  0  0  0  0  0  0  0  0
    1.1263    0.6079    1.2694 H   0  0  0  0  0  0  0  0  0  0  0  0
    4.3147   -0.8295    0.8094 H   0  0  0  0  0  0  0  0  0  0  0  0
    6.4383   -1.4458    0.1767 H   0  0  0  0  0  0  0  0  0  0  0  0
    8.4348   -1.0851   -1.2360 H   0  0  0  0  0  0  0  0  0  0  0  0
    6.5658    2.3044   -3.0636 H   0  0  0  0  0  0  0  0  0  0  0  0
    4.5662    1.9894   -1.6746 H   0  0  0  0  0  0  0  0  0  0  0  0
  1  2  1  0
  2  3  1  0
  3  4  1  0
  4  5  2  0
  5  6  1  0
  6  7  1  0
  7  8  2  0
  7  9  1  0
  9 10  2  0
 10 11  1  0
 11 12  1  0
 12 13  1  0
 13 14  1  0
 14 15  2  0
 14 16  1  0
 16 17  1  0
 17 18  2  0
 18 19  1  0
 19 20  2  0
 20 21  1  0
 20 22  1  0
 22 23  2  0
 10 24  1  0
 24 25  2  0
 25 26  1  0
 26  4  1  0
 25  6  1  0
 23 17  1  0
  1 27  1  0
  1 28  1  0
  1 29  1  0
  2 30  1  0
  2 31  1  0
  3 32  1  0
  3 33  1  0
  9 34  1  0
 11 35  1  0
 11 36  1  0
 13 37  1  0
 13 38  1  0
 16 39  1  0
 18 40  1  0
 19 41  1  0
 22 42  1  0
 23 43  1  0
M  END
$$$$
