
     RDKit          3D

 69 71  0  0  0  0  0  0  0  0999 V2000
   -7.7669   -0.6767    2.8473 C   0  0  0  0  0  0  0  0  0  0  0  0
   -7.5788   -0.5789    1.3404 C   0  0  0  0  0  0  0  0  0  0  0  0
   -6.7181    0.6154    0.9174 C   0  0  0  0  0  0  0  0  0  0  0  0
   -5.3376    0.5295    1.4010 N   0  0  0  0  0  0  0  0  0  0  0  0
   -4.9410    1.4587    2.4626 C   0  0  0  0  0  0  0  0  0  0  0  0
   -4.5430    2.8249    1.9015 C   0  0  0  0  0  0  0  0  0  0  0  0
   -4.0878    3.7668    3.0046 C   0  0  0  0  0  0  0  0  0  0  0  0
   -4.4500   -0.2976    0.7040 C   0  0  0  0  0  0  0  0  0  0  0  0
   -4.8215   -0.9784   -0.2560 O   0  0  0  0  0  0  0  0  0  0  0  0
   -3.0078   -0.3691    1.2277 C   0  0  0  0  0  0  0  0  0  0  0  0
   -2.1406   -1.1425    0.3383 N   0  0  0  0  0  0  0  0  0  0  0  0
   -1.4878   -0.4452   -0.6843 C   0  0  0  0  0  0  0  0  0  0  0  0
   -1.5882    0.7817   -0.7838 O   0  0  0  0  0  0  0  0  0  0  0  0
   -0.6926   -1.1881   -1.5666 N   0  0  0  0  0  0  0  0  0  0  0  0
    0.0309   -0.4566   -2.6025 C   0  0  0  0  0  0  0  0  0  0  0  0
    1.3928    0.0290   -2.0930 C   0  0  0  0  0  0  0  0  0  0  0  0
    2.2020    0.6966   -3.2059 C   0  0  0  0  0  0  0  0  0  0  0  0
    3.5199    1.3067   -2.7193 C   0  0  0  0  0  0  0  0  0  0  0  0
    4.4864    0.2808   -2.1278 C   0  0  0  0  0  0  0  0  0  0  0  0
    5.8437    0.8824   -1.7863 C   0  0  0  0  0  0  0  0  0  0  0  0
    6.1356    2.0391   -2.0671 O   0  0  0  0  0  0  0  0  0  0  0  0
    6.6546   -0.0440   -1.1481 N   0  0  0  0  0  0  0  0  0  0  0  0
    7.9784    0.1356   -0.6977 C   0  0  0  0  0  0  0  0  0  0  0  0
    8.5819   -0.9473   -0.0411 C   0  0  0  0  0  0  0  0  0  0  0  0
    9.8924   -0.8544    0.4351 C   0  0  0  0  0  0  0  0  0  0  0  0
   10.6145    0.3242    0.2580 C   0  0  0  0  0  0  0  0  0  0  0  0
   10.0237    1.4062   -0.3922 C   0  0  0  0  0  0  0  0  0  0  0  0
    8.7113    1.3128   -0.8687 C   0  0  0  0  0  0  0  0  0  0  0  0
   -0.4384   -2.5619   -1.4615 C   0  0  0  0  0  0  0  0  0  0  0  0
    0.3743   -3.1425   -2.1808 O   0  0  0  0  0  0  0  0  0  0  0  0
   -1.1930   -3.2030   -0.4222 C   0  0  0  0  0  0  0  0  0  0  0  0
   -1.1462   -4.8748   -0.1317 S   0  0  0  0  0  0  0  0  0  0  0  0
   -2.2673   -4.7275    1.1546 C   0  0  0  0  0  0  0  0  0  0  0  0
   -2.6553   -3.4179    1.3524 C   0  0  0  0  0  0  0  0  0  0  0  0
   -2.0186   -2.5289    0.4373 C   0  0  0  0  0  0  0  0  0  0  0  0
   -8.4537   -1.4956    3.0882 H   0  0  0  0  0  0  0  0  0  0  0  0
   -6.8174   -0.8778    3.3543 H   0  0  0  0  0  0  0  0  0  0  0  0
   -8.1891    0.2492    3.2516 H   0  0  0  0  0  0  0  0  0  0  0  0
   -8.5648   -0.4804    0.8703 H   0  0  0  0  0  0  0  0  0  0  0  0
   -7.1430   -1.5155    0.9745 H   0  0  0  0  0  0  0  0  0  0  0  0
   -6.6968    0.6671   -0.1784 H   0  0  0  0  0  0  0  0  0  0  0  0
   -7.1703    1.5503    1.2690 H   0  0  0  0  0  0  0  0  0  0  0  0
   -4.1096    1.0317    3.0323 H   0  0  0  0  0  0  0  0  0  0  0  0
   -5.7775    1.5589    3.1634 H   0  0  0  0  0  0  0  0  0  0  0  0
   -3.7386    2.7156    1.1648 H   0  0  0  0  0  0  0  0  0  0  0  0
   -5.3901    3.2745    1.3696 H   0  0  0  0  0  0  0  0  0  0  0  0
   -3.2158    3.3636    3.5296 H   0  0  0  0  0  0  0  0  0  0  0  0
   -3.8109    4.7380    2.5826 H   0  0  0  0  0  0  0  0  0  0  0  0
   -4.8857    3.9300    3.7365 H   0  0  0  0  0  0  0  0  0  0  0  0
   -3.0062   -0.8255    2.2225 H   0  0  0  0  0  0  0  0  0  0  0  0
   -2.6074    0.6437    1.3247 H   0  0  0  0  0  0  0  0  0  0  0  0
   -0.5685    0.3986   -2.9364 H   0  0  0  0  0  0  0  0  0  0  0  0
    0.1680   -1.1063   -3.4751 H   0  0  0  0  0  0  0  0  0  0  0  0
    1.9505   -0.8233   -1.6886 H   0  0  0  0  0  0  0  0  0  0  0  0
    1.2484    0.7326   -1.2641 H   0  0  0  0  0  0  0  0  0  0  0  0
    2.4107   -0.0339   -3.9972 H   0  0  0  0  0  0  0  0  0  0  0  0
    1.6014    1.4935   -3.6617 H   0  0  0  0  0  0  0  0  0  0  0  0
    3.3109    2.0859   -1.9758 H   0  0  0  0  0  0  0  0  0  0  0  0
    3.9978    1.8092   -3.5699 H   0  0  0  0  0  0  0  0  0  0  0  0
    4.6496   -0.5332   -2.8452 H   0  0  0  0  0  0  0  0  0  0  0  0
    4.0659   -0.1452   -1.2087 H   0  0  0  0  0  0  0  0  0  0  0  0
    6.2472   -0.9540   -0.9667 H   0  0  0  0  0  0  0  0  0  0  0  0
    8.0389   -1.8778    0.1143 H   0  0  0  0  0  0  0  0  0  0  0  0
   10.3493   -1.7039    0.9353 H   0  0  0  0  0  0  0  0  0  0  0  0
   11.6342    0.4009    0.6254 H   0  0  0  0  0  0  0  0  0  0  0  0
   10.5788    2.3314   -0.5286 H   0  0  0  0  0  0  0  0  0  0  0  0
    8.2908    2.1823   -1.3635 H   0  0  0  0  0  0  0  0  0  0  0  0
   -2.5905   -5.6049    1.6977 H   0  0  0  0  0  0  0  0  0  0  0  0
   -3.3685   -3.1348    2.1156 H   0  0  0  0  0  0  0  0  0  0  0  0
  1  2  1  0
  2  3  1  0
  3  4  1  0
  4  5  1  0
  5  6  1  0
  6  7  1  0
  4  8  1  0
  8  9  2  0
  8 10  1  0
 10 11  1  0
 11 12  1  0
 12 13  2  0
 12 14  1  0
 14 15  1  0
 15 16  1  0
 16 17  1  0
 17 18  1  0
 18 19  1  0
 19 20  1  0
 20 21  2  0
 20 22  1  0
 22 23  1  0
 23 24  2  0
 24 25  1  0
 25 26  2  0
 26 27  1  0
 27 28  2  0
 14 29  1  0
 29 30  2  0
 29 31  1  0
 31 32  1  0
 32 33  1  0
 33 34  2  0
 34 35  1  0
 35 11  1  0
 28 23  1  0
 35 31  2  0
  1 36  1  0
  1 37  1  0
  1 38  1  0
  2 39  1  0
  2 40  1  0
  3 41  1  0
  3 42  1  0
  5 43  1  0
  5 44  1  0
  6 45  1  0
  6 46  1  0
  7 47  1  0
  7 48  1  0
  7 49  1  0
 10 50  1  0
 10 51  1  0
 15 52  1  0
 15 53  1  0
 16 54  1  0
 16 55  1  0
 17 56  1  0
 17 57  1  0
 18 58  1  0
 18 59  1  0
 19 60  1  0
 19 61  1  0
 22 62  1  0
 24 63  1  0
 25 64  1  0
 26 65  1  0
 27 66  1  0
 28 67  1  0
 33 68  1  0
 34 69  1  0
M  END
$$$$
