
     RDKit          3D

 38 42  0  0  0  0  0  0  0  0999 V2000
    0.5721   -2.4671   -0.1521 O   0  0  0  0  0  0  0  0  0  0  0  0
   -0.0329   -1.2897   -0.2480 C   0  0  0  0  0  0  0  0  0  0  0  0
   -1.2305   -0.8351    0.2378 C   0  0  0  0  0  0  0  0  0  0  0  0
   -1.3981    0.5249   -0.1953 C   0  0  0  0  0  0  0  0  0  0  0  0
   -0.2991    0.8717   -0.9362 C   0  0  0  0  0  0  0  0  0  0  0  0
    0.0230    1.9914   -1.5718 O   0  0  0  0  0  0  0  0  0  0  0  0
    0.5429   -0.2322   -0.9393 N   0  0  0  0  0  0  0  0  0  0  0  0
    1.8261   -0.2935   -1.6281 C   0  0  0  0  0  0  0  0  0  0  0  0
    2.9669    0.1313   -0.7352 C   0  0  0  0  0  0  0  0  0  0  0  0
    3.6408   -0.8089    0.0577 C   0  0  0  0  0  0  0  0  0  0  0  0
    4.6928   -0.4148    0.8862 C   0  0  0  0  0  0  0  0  0  0  0  0
    5.0792    0.9233    0.9349 C   0  0  0  0  0  0  0  0  0  0  0  0
    4.4115    1.8689    0.1590 C   0  0  0  0  0  0  0  0  0  0  0  0
    3.3594    1.4762   -0.6699 C   0  0  0  0  0  0  0  0  0  0  0  0
   -2.7067    1.1472    0.2652 C   0  0  0  0  0  0  0  0  0  0  0  0
   -2.7003    0.9625    1.8102 C   0  0  0  0  0  0  0  0  0  0  0  0
   -2.5418   -0.3248    2.2201 C   0  0  0  0  0  0  0  0  0  0  0  0
   -2.3986   -1.3536    1.0615 C   0  0  0  0  0  0  0  0  0  0  0  0
   -3.7170   -1.2001    0.2352 C   0  0  0  0  0  0  0  0  0  0  0  0
   -3.8017   -0.8628   -1.2391 C   0  0  0  0  0  0  0  0  0  0  0  0
   -3.8973    0.2636   -0.2309 C   0  0  0  0  0  0  0  0  0  0  0  0
   -0.0001   -3.0343    0.3930 H   0  0  0  0  0  0  0  0  0  0  0  0
   -0.6972    2.6250   -1.4090 H   0  0  0  0  0  0  0  0  0  0  0  0
    1.9739   -1.3172   -1.9917 H   0  0  0  0  0  0  0  0  0  0  0  0
    1.7696    0.3417   -2.5199 H   0  0  0  0  0  0  0  0  0  0  0  0
    3.3405   -1.8547    0.0376 H   0  0  0  0  0  0  0  0  0  0  0  0
    5.2063   -1.1520    1.4973 H   0  0  0  0  0  0  0  0  0  0  0  0
    5.8960    1.2300    1.5823 H   0  0  0  0  0  0  0  0  0  0  0  0
    4.7055    2.9141    0.2025 H   0  0  0  0  0  0  0  0  0  0  0  0
    2.8379    2.2259   -1.2617 H   0  0  0  0  0  0  0  0  0  0  0  0
   -2.8149    2.1930   -0.0312 H   0  0  0  0  0  0  0  0  0  0  0  0
   -2.8004    1.8051    2.4801 H   0  0  0  0  0  0  0  0  0  0  0  0
   -2.5003   -0.6313    3.2560 H   0  0  0  0  0  0  0  0  0  0  0  0
   -2.2523   -2.3739    1.4231 H   0  0  0  0  0  0  0  0  0  0  0  0
   -4.5627   -1.6837    0.7082 H   0  0  0  0  0  0  0  0  0  0  0  0
   -4.7106   -1.1418   -1.7634 H   0  0  0  0  0  0  0  0  0  0  0  0
   -2.9219   -0.9538   -1.8650 H   0  0  0  0  0  0  0  0  0  0  0  0
   -4.8600    0.7294   -0.0602 H   0  0  0  0  0  0  0  0  0  0  0  0
  1  2  1  0
  2  3  2  0
  3  4  1  0
  4  5  2  0
  5  6  1  0
  5  7  1  0
  7  8  1  0
  8  9  1  0
  9 10  2  0
 10 11  1  0
 11 12  2  0
 12 13  1  0
 13 14  2  0
  4 15  1  0
 15 16  1  0
 16 17  2  0
 17 18  1  0
 18 19  1  0
 19 20  1  0
 20 21  1  0
  7  2  1  0
 14  9  1  0
 21 15  1  0
 18  3  1  0
 21 19  1  0
  1 22  1  0
  6 23  1  0
  8 24  1  0
  8 25  1  0
 10 26  1  0
 11 27  1  0
 12 28  1  0
 13 29  1  0
 14 30  1  0
 15 31  1  0
 16 32  1  0
 17 33  1  0
 18 34  1  0
 19 35  1  0
 20 36  1  0
 20 37  1  0
 21 38  1  0
M  END
$$$$
