
     RDKit          3D

 52 55  0  0  0  0  0  0  0  0999 V2000
    5.5560   -2.2416   -0.7994 C   0  0  0  0  0  0  0  0  0  0  0  0
    6.2349   -0.8881   -0.9632 C   0  0  0  0  0  0  0  0  0  0  0  0
    5.4560    0.2596   -0.2873 C   0  0  0  0  0  0  0  0  0  0  0  0
    6.2093    1.5939   -0.3506 C   0  0  0  0  0  0  0  0  0  0  0  0
    4.0215    0.3751   -0.7034 N   0  0  0  0  0  0  0  0  0  0  0  0
    3.0997    0.1278    0.3302 C   0  0  0  0  0  0  0  0  0  0  0  0
    3.4394   -0.1515    1.4819 O   0  0  0  0  0  0  0  0  0  0  0  0
    1.6505    0.2109   -0.0075 C   0  0  0  0  0  0  0  0  0  0  0  0
    0.7788   -0.0417    0.9913 C   0  0  0  0  0  0  0  0  0  0  0  0
   -0.6841   -0.0286    0.9219 C   0  0  0  0  0  0  0  0  0  0  0  0
   -1.3917    1.1224    1.2675 C   0  0  0  0  0  0  0  0  0  0  0  0
   -2.7966    1.1316    1.2423 C   0  0  0  0  0  0  0  0  0  0  0  0
   -3.5158   -0.0127    0.8416 C   0  0  0  0  0  0  0  0  0  0  0  0
   -2.7876   -1.1637    0.4788 C   0  0  0  0  0  0  0  0  0  0  0  0
   -1.3837   -1.1719    0.5367 C   0  0  0  0  0  0  0  0  0  0  0  0
   -3.5094   -2.4139    0.0464 C   0  0  0  0  0  0  0  0  0  0  0  0
   -4.8879   -2.0822   -0.5061 C   0  0  0  0  0  0  0  0  0  0  0  0
   -5.6448   -1.2215    0.4929 C   0  0  0  0  0  0  0  0  0  0  0  0
   -4.9044   -0.0073    0.8101 N   0  0  0  0  0  0  0  0  0  0  0  0
   -5.6380    1.2351    1.0100 C   0  0  0  0  0  0  0  0  0  0  0  0
   -4.9526    2.1057    2.0513 C   0  0  0  0  0  0  0  0  0  0  0  0
   -3.5249    2.3983    1.6134 C   0  0  0  0  0  0  0  0  0  0  0  0
    1.2383    0.5570   -1.3758 C   0  0  0  0  0  0  0  0  0  0  0  0
    0.0857    0.6618   -1.7728 O   0  0  0  0  0  0  0  0  0  0  0  0
    2.2756    0.7693   -2.2338 N   0  0  0  0  0  0  0  0  0  0  0  0
    3.6222    0.7035   -1.9983 C   0  0  0  0  0  0  0  0  0  0  0  0
    4.5680    1.0376   -3.3422 S   0  0  0  0  0  0  0  0  0  0  0  0
    5.3903   -2.4726    0.2577 H   0  0  0  0  0  0  0  0  0  0  0  0
    4.5917   -2.2709   -1.3157 H   0  0  0  0  0  0  0  0  0  0  0  0
    6.1851   -3.0310   -1.2230 H   0  0  0  0  0  0  0  0  0  0  0  0
    7.2326   -0.9479   -0.5093 H   0  0  0  0  0  0  0  0  0  0  0  0
    6.4049   -0.7007   -2.0258 H   0  0  0  0  0  0  0  0  0  0  0  0
    5.4815    0.0052    0.7788 H   0  0  0  0  0  0  0  0  0  0  0  0
    5.6195    2.3948    0.1078 H   0  0  0  0  0  0  0  0  0  0  0  0
    7.1548    1.5190    0.1984 H   0  0  0  0  0  0  0  0  0  0  0  0
    6.4609    1.8973   -1.3683 H   0  0  0  0  0  0  0  0  0  0  0  0
    1.1415   -0.2891    1.9890 H   0  0  0  0  0  0  0  0  0  0  0  0
   -0.8556    2.0204    1.5653 H   0  0  0  0  0  0  0  0  0  0  0  0
   -0.8419   -2.0749    0.2662 H   0  0  0  0  0  0  0  0  0  0  0  0
   -3.5979   -3.0845    0.9097 H   0  0  0  0  0  0  0  0  0  0  0  0
   -2.9343   -2.9365   -0.7270 H   0  0  0  0  0  0  0  0  0  0  0  0
   -4.7890   -1.5437   -1.4578 H   0  0  0  0  0  0  0  0  0  0  0  0
   -5.4428   -3.0045   -0.7101 H   0  0  0  0  0  0  0  0  0  0  0  0
   -6.6256   -0.9715    0.0709 H   0  0  0  0  0  0  0  0  0  0  0  0
   -5.8271   -1.7822    1.4178 H   0  0  0  0  0  0  0  0  0  0  0  0
   -5.7168    1.7685    0.0547 H   0  0  0  0  0  0  0  0  0  0  0  0
   -6.6599    1.0230    1.3462 H   0  0  0  0  0  0  0  0  0  0  0  0
   -4.9465    1.5881    3.0196 H   0  0  0  0  0  0  0  0  0  0  0  0
   -5.5035    3.0429    2.1866 H   0  0  0  0  0  0  0  0  0  0  0  0
   -3.0022    2.9113    2.4292 H   0  0  0  0  0  0  0  0  0  0  0  0
   -3.5272    3.0668    0.7439 H   0  0  0  0  0  0  0  0  0  0  0  0
    1.9928    1.0082   -3.1764 H   0  0  0  0  0  0  0  0  0  0  0  0
  1  2  1  0
  2  3  1  0
  3  4  1  0
  3  5  1  0
  5  6  1  0
  6  7  2  0
  6  8  1  0
  8  9  2  3
  9 10  1  0
 10 11  2  0
 11 12  1  0
 12 13  2  0
 13 14  1  0
 14 15  2  0
 14 16  1  0
 16 17  1  0
 17 18  1  0
 18 19  1  0
 19 20  1  0
 20 21  1  0
 21 22  1  0
  8 23  1  0
 23 24  2  0
 23 25  1  0
 25 26  1  0
 26 27  2  0
 26  5  1  0
 15 10  1  0
 22 12  1  0
 19 13  1  0
  1 28  1  0
  1 29  1  0
  1 30  1  0
  2 31  1  0
  2 32  1  0
  3 33  1  0
  4 34  1  0
  4 35  1  0
  4 36  1  0
  9 37  1  0
 11 38  1  0
 15 39  1  0
 16 40  1  0
 16 41  1  0
 17 42  1  0
 17 43  1  0
 18 44  1  0
 18 45  1  0
 20 46  1  0
 20 47  1  0
 21 48  1  0
 21 49  1  0
 22 50  1  0
 22 51  1  0
 25 52  1  0
M  END
$$$$
