
     RDKit          3D

 51 55  0  0  0  0  0  0  0  0999 V2000
    3.3650   -2.5176   -1.5485 C   0  0  0  0  0  0  0  0  0  0  0  0
    2.9945   -2.0871   -0.1377 C   0  0  0  0  0  0  0  0  0  0  0  0
    2.5973   -0.6848   -0.1041 N   0  0  0  0  0  0  0  0  0  0  0  0
    1.2999   -0.1877   -0.2688 C   0  0  0  0  0  0  0  0  0  0  0  0
    0.1869   -0.9162   -0.4882 C   0  0  0  0  0  0  0  0  0  0  0  0
   -1.1654   -0.3741   -0.6865 C   0  0  0  0  0  0  0  0  0  0  0  0
   -1.5350   -0.0315   -1.9872 C   0  0  0  0  0  0  0  0  0  0  0  0
   -2.7954    0.4746   -2.2384 C   0  0  0  0  0  0  0  0  0  0  0  0
   -3.6923    0.6249   -1.1884 C   0  0  0  0  0  0  0  0  0  0  0  0
   -4.9768    1.1300   -1.4449 C   0  0  0  0  0  0  0  0  0  0  0  0
   -5.9076    1.2925   -0.4157 C   0  0  0  0  0  0  0  0  0  0  0  0
   -7.2888    1.8039   -0.7108 C   0  0  0  0  0  0  0  0  0  0  0  0
   -5.5530    0.9155    0.8776 C   0  0  0  0  0  0  0  0  0  0  0  0
   -4.2744    0.4125    1.1477 C   0  0  0  0  0  0  0  0  0  0  0  0
   -3.3092    0.2634    0.1325 C   0  0  0  0  0  0  0  0  0  0  0  0
   -2.0386   -0.2214    0.3549 N   0  0  0  0  0  4  0  0  0  0  0  0
   -1.5915   -0.5605    1.7398 C   0  0  0  0  0  0  0  0  0  0  0  0
   -1.9630   -1.9960    2.0618 C   0  0  0  0  0  0  0  0  0  0  0  0
    1.1788    1.5798   -0.1408 S   0  0  0  0  0  0  0  0  0  0  0  0
    2.9541    1.6510    0.0787 C   0  0  0  0  0  0  0  0  0  0  0  0
    3.6437    2.8358    0.2434 C   0  0  0  0  0  0  0  0  0  0  0  0
    5.0210    2.7847    0.3960 C   0  0  0  0  0  0  0  0  0  0  0  0
    5.6775    1.5349    0.3628 C   0  0  0  0  0  0  0  0  0  0  0  0
    7.3821    1.3196    0.5259 S   0  0  0  0  0  0  0  0  0  0  0  0
    7.2597   -0.3605    0.3414 C   0  0  0  0  0  0  0  0  0  0  0  0
    5.9561   -0.7625    0.1675 C   0  0  0  0  0  0  0  0  0  0  0  0
    4.9954    0.3162    0.1893 C   0  0  0  0  0  0  0  0  0  0  0  0
    3.5716    0.3624    0.0577 C   0  0  0  0  0  0  0  0  0  0  0  0
    2.5102   -2.4167   -2.2258 H   0  0  0  0  0  0  0  0  0  0  0  0
    4.1812   -1.9152   -1.9580 H   0  0  0  0  0  0  0  0  0  0  0  0
    3.6781   -3.5663   -1.5541 H   0  0  0  0  0  0  0  0  0  0  0  0
    2.1707   -2.7209    0.2123 H   0  0  0  0  0  0  0  0  0  0  0  0
    3.7947   -2.2952    0.5762 H   0  0  0  0  0  0  0  0  0  0  0  0
    0.2420   -1.9965   -0.5755 H   0  0  0  0  0  0  0  0  0  0  0  0
   -0.8334   -0.1478   -2.8126 H   0  0  0  0  0  0  0  0  0  0  0  0
   -3.0678    0.7467   -3.2579 H   0  0  0  0  0  0  0  0  0  0  0  0
   -5.2656    1.4039   -2.4608 H   0  0  0  0  0  0  0  0  0  0  0  0
   -7.9477    0.9704   -0.9729 H   0  0  0  0  0  0  0  0  0  0  0  0
   -7.2709    2.5175   -1.5413 H   0  0  0  0  0  0  0  0  0  0  0  0
   -7.7059    2.3260    0.1567 H   0  0  0  0  0  0  0  0  0  0  0  0
   -6.2741    1.0111    1.6897 H   0  0  0  0  0  0  0  0  0  0  0  0
   -4.0856    0.1372    2.1805 H   0  0  0  0  0  0  0  0  0  0  0  0
   -0.5140   -0.4110    1.8330 H   0  0  0  0  0  0  0  0  0  0  0  0
   -2.0321    0.1508    2.4433 H   0  0  0  0  0  0  0  0  0  0  0  0
   -3.0430   -2.1576    1.9974 H   0  0  0  0  0  0  0  0  0  0  0  0
   -1.6413   -2.2509    3.0761 H   0  0  0  0  0  0  0  0  0  0  0  0
   -1.4841   -2.6939    1.3680 H   0  0  0  0  0  0  0  0  0  0  0  0
    3.1303    3.7924    0.2537 H   0  0  0  0  0  0  0  0  0  0  0  0
    5.5917    3.7013    0.5293 H   0  0  0  0  0  0  0  0  0  0  0  0
    8.1464   -0.9802    0.3633 H   0  0  0  0  0  0  0  0  0  0  0  0
    5.7277   -1.8070    0.0214 H   0  0  0  0  0  0  0  0  0  0  0  0
  1  2  1  0
  2  3  1  0
  3  4  1  0
  4  5  2  3
  5  6  1  0
  6  7  2  0
  7  8  1  0
  8  9  2  0
  9 10  1  0
 10 11  2  0
 11 12  1  0
 11 13  1  0
 13 14  2  0
 14 15  1  0
 15 16  2  0
 16 17  1  0
 17 18  1  0
  4 19  1  0
 19 20  1  0
 20 21  2  0
 21 22  1  0
 22 23  2  0
 23 24  1  0
 24 25  1  0
 25 26  2  0
 26 27  1  0
 27 28  2  0
 28  3  1  0
 16  6  1  0
 28 20  1  0
 15  9  1  0
 27 23  1  0
  1 29  1  0
  1 30  1  0
  1 31  1  0
  2 32  1  0
  2 33  1  0
  5 34  1  0
  7 35  1  0
  8 36  1  0
 10 37  1  0
 12 38  1  0
 12 39  1  0
 12 40  1  0
 13 41  1  0
 14 42  1  0
 17 43  1  0
 17 44  1  0
 18 45  1  0
 18 46  1  0
 18 47  1  0
 21 48  1  0
 22 49  1  0
 25 50  1  0
 26 51  1  0
M  CHG  1  16   1
M  END
$$$$
