
     RDKit          3D

 52 56  0  0  0  0  0  0  0  0999 V2000
    8.1781    0.4342    0.1552 C   0  0  0  0  0  0  0  0  0  0  0  0
    7.5902   -0.3173   -1.0264 C   0  0  0  0  0  0  0  0  0  0  0  0
    6.2994    0.1900   -1.3619 O   0  0  0  0  0  0  0  0  0  0  0  0
    5.2023   -0.3185   -0.7289 C   0  0  0  0  0  0  0  0  0  0  0  0
    5.1950   -1.2718    0.2827 C   0  0  0  0  0  0  0  0  0  0  0  0
    3.9797   -1.6933    0.8397 C   0  0  0  0  0  0  0  0  0  0  0  0
    2.7612   -1.1856    0.4125 C   0  0  0  0  0  0  0  0  0  0  0  0
    1.6273   -1.6207    0.9779 N   0  0  0  0  0  0  0  0  0  0  0  0
    0.4535   -1.0976    0.5509 C   0  0  0  0  0  0  0  0  0  0  0  0
   -0.8729   -1.7764    1.4105 Cl  0  0  0  0  0  0  0  0  0  0  0  0
    0.3273   -0.1541   -0.4627 C   0  0  0  0  0  0  0  0  0  0  0  0
   -0.9720    0.4260   -0.9802 C   0  0  0  0  0  0  0  0  0  0  0  0
   -1.9334   -0.6070   -1.5598 C   0  0  0  0  0  0  0  0  0  0  0  0
   -3.1139   -0.4175   -0.6433 C   0  0  0  0  0  0  0  0  0  0  0  0
   -4.3096   -1.2885   -0.7249 C   0  0  0  0  0  0  0  0  0  0  0  0
   -5.3221   -1.1418    0.2315 C   0  0  0  0  0  0  0  0  0  0  0  0
   -6.4600   -1.9490    0.1805 C   0  0  0  0  0  0  0  0  0  0  0  0
   -6.5917   -2.9047   -0.8252 C   0  0  0  0  0  0  0  0  0  0  0  0
   -5.5866   -3.0558   -1.7798 C   0  0  0  0  0  0  0  0  0  0  0  0
   -4.4455   -2.2505   -1.7321 C   0  0  0  0  0  0  0  0  0  0  0  0
   -3.0084    0.5665    0.1996 N   0  0  0  0  0  0  0  0  0  0  0  0
   -1.7697    1.1273    0.0212 N   0  0  0  0  0  0  0  0  0  0  0  0
   -1.3360    2.3174    0.6215 C   0  0  0  0  0  0  0  0  0  0  0  0
   -0.2308    2.7742    0.3070 O   0  0  0  0  0  0  0  0  0  0  0  0
   -2.2016    2.9806    1.5987 C   0  0  0  0  0  0  0  0  0  0  0  0
   -3.5740    2.9575    1.7830 C   0  0  0  0  0  0  0  0  0  0  0  0
   -4.0067    3.7721    2.8714 C   0  0  0  0  0  0  0  0  0  0  0  0
   -2.9549    4.4092    3.4853 C   0  0  0  0  0  0  0  0  0  0  0  0
   -1.4611    4.0300    2.7508 S   0  0  0  0  0  0  0  0  0  0  0  0
    1.5318    0.2850   -1.0369 C   0  0  0  0  0  0  0  0  0  0  0  0
    2.7669   -0.2224   -0.6086 C   0  0  0  0  0  0  0  0  0  0  0  0
    3.9846    0.2050   -1.1683 C   0  0  0  0  0  0  0  0  0  0  0  0
    9.1966    0.0930    0.3617 H   0  0  0  0  0  0  0  0  0  0  0  0
    7.5759    0.2967    1.0581 H   0  0  0  0  0  0  0  0  0  0  0  0
    8.2019    1.5098   -0.0491 H   0  0  0  0  0  0  0  0  0  0  0  0
    8.2280   -0.1384   -1.8996 H   0  0  0  0  0  0  0  0  0  0  0  0
    7.5886   -1.4022   -0.8751 H   0  0  0  0  0  0  0  0  0  0  0  0
    6.1074   -1.7064    0.6755 H   0  0  0  0  0  0  0  0  0  0  0  0
    3.9867   -2.4367    1.6340 H   0  0  0  0  0  0  0  0  0  0  0  0
   -0.7429    1.1610   -1.7638 H   0  0  0  0  0  0  0  0  0  0  0  0
   -1.5610   -1.6344   -1.5443 H   0  0  0  0  0  0  0  0  0  0  0  0
   -2.2273   -0.3389   -2.5804 H   0  0  0  0  0  0  0  0  0  0  0  0
   -5.2296   -0.4052    1.0269 H   0  0  0  0  0  0  0  0  0  0  0  0
   -7.2406   -1.8336    0.9284 H   0  0  0  0  0  0  0  0  0  0  0  0
   -7.4775   -3.5344   -0.8631 H   0  0  0  0  0  0  0  0  0  0  0  0
   -5.6921   -3.8043   -2.5617 H   0  0  0  0  0  0  0  0  0  0  0  0
   -3.6825   -2.3929   -2.4910 H   0  0  0  0  0  0  0  0  0  0  0  0
   -4.2559    2.3898    1.1635 H   0  0  0  0  0  0  0  0  0  0  0  0
   -5.0383    3.8862    3.1809 H   0  0  0  0  0  0  0  0  0  0  0  0
   -2.9892    5.0848    4.3289 H   0  0  0  0  0  0  0  0  0  0  0  0
    1.5145    1.0464   -1.8158 H   0  0  0  0  0  0  0  0  0  0  0  0
    3.9911    0.9573   -1.9546 H   0  0  0  0  0  0  0  0  0  0  0  0
  1  2  1  0
  2  3  1  0
  3  4  1  0
  4  5  2  0
  5  6  1  0
  6  7  2  0
  7  8  1  0
  8  9  2  0
  9 10  1  0
  9 11  1  0
 11 12  1  0
 12 13  1  0
 13 14  1  0
 14 15  1  0
 15 16  2  0
 16 17  1  0
 17 18  2  0
 18 19  1  0
 19 20  2  0
 14 21  2  0
 21 22  1  0
 22 23  1  0
 23 24  2  0
 23 25  1  0
 25 26  2  0
 26 27  1  0
 27 28  2  0
 28 29  1  0
 11 30  2  0
 30 31  1  0
 31 32  2  0
 32  4  1  0
 31  7  1  0
 22 12  1  0
 29 25  1  0
 20 15  1  0
  1 33  1  0
  1 34  1  0
  1 35  1  0
  2 36  1  0
  2 37  1  0
  5 38  1  0
  6 39  1  0
 12 40  1  0
 13 41  1  0
 13 42  1  0
 16 43  1  0
 17 44  1  0
 18 45  1  0
 19 46  1  0
 20 47  1  0
 26 48  1  0
 27 49  1  0
 28 50  1  0
 30 51  1  0
 32 52  1  0
M  END
$$$$
