
     RDKit          3D

 46 48  0  0  0  0  0  0  0  0999 V2000
   -7.3351   -0.5105    2.1279 C   0  0  0  0  0  0  0  0  0  0  0  0
   -7.1679   -0.4447    0.6159 C   0  0  0  0  0  0  0  0  0  0  0  0
   -5.7248   -0.2055    0.1701 C   0  0  0  0  0  0  0  0  0  0  0  0
   -4.6640   -1.6603    0.4783 S   0  0  0  0  0  0  0  0  0  0  0  0
   -3.0684   -1.0128   -0.0095 C   0  0  0  0  0  0  0  0  0  0  0  0
   -3.0884    0.0493   -0.8551 N   0  0  0  0  0  0  0  0  0  0  0  0
   -1.9131    0.5980   -1.2694 C   0  0  0  0  0  0  0  0  0  0  0  0
   -2.0659    1.8226   -2.1245 C   0  0  0  0  0  0  0  0  0  0  0  0
   -0.6725    0.0684   -0.9024 C   0  0  0  0  0  0  0  0  0  0  0  0
    0.6130    0.6063   -1.3204 C   0  0  0  0  0  0  0  0  0  0  0  0
    0.9480    0.9396   -2.6153 C   0  0  0  0  0  0  0  0  0  0  0  0
    2.5494    1.5431   -2.6731 S   0  0  0  0  0  0  0  0  0  0  0  0
    2.7179    1.2560   -0.9697 C   0  0  0  0  0  0  0  0  0  0  0  0
    3.9536    1.5587   -0.3245 C   0  0  0  0  0  0  0  0  0  0  0  0
    4.2797    2.9305   -0.0888 C   0  0  0  0  0  0  0  0  0  0  0  0
    4.5566    4.0417    0.1071 N   0  0  0  0  0  0  0  0  0  0  0  0
    4.7732    0.5598    0.0698 C   0  0  0  0  0  0  0  0  0  0  0  0
    6.1048    0.7648    0.7626 C   0  0  0  0  0  0  0  0  0  0  0  0
    6.5361   -0.6476    1.1501 C   0  0  0  0  0  0  0  0  0  0  0  0
    5.9211   -1.5322    0.0734 C   0  0  0  0  0  0  0  0  0  0  0  0
    4.5376   -0.9268   -0.1390 C   0  0  0  0  0  0  0  0  0  0  0  0
    1.6390    0.7506   -0.3993 N   0  0  0  0  0  0  0  0  0  0  0  0
   -0.6745   -1.0313   -0.0321 C   0  0  0  0  0  0  0  0  0  0  0  0
   -1.8770   -1.5838    0.4242 C   0  0  0  0  0  0  0  0  0  0  0  0
   -1.8337   -2.7017    1.3158 C   0  0  0  0  0  0  0  0  0  0  0  0
   -1.7564   -3.6047    2.0426 N   0  0  0  0  0  0  0  0  0  0  0  0
   -8.3977   -0.6065    2.3793 H   0  0  0  0  0  0  0  0  0  0  0  0
   -6.8128   -1.3712    2.5576 H   0  0  0  0  0  0  0  0  0  0  0  0
   -6.9558    0.3982    2.6067 H   0  0  0  0  0  0  0  0  0  0  0  0
   -7.7818    0.3873    0.2452 H   0  0  0  0  0  0  0  0  0  0  0  0
   -7.5718   -1.3537    0.1549 H   0  0  0  0  0  0  0  0  0  0  0  0
   -5.3143    0.6628    0.6938 H   0  0  0  0  0  0  0  0  0  0  0  0
   -5.7228    0.0072   -0.9038 H   0  0  0  0  0  0  0  0  0  0  0  0
   -3.0948    2.2012   -2.0756 H   0  0  0  0  0  0  0  0  0  0  0  0
   -1.8476    1.5912   -3.1725 H   0  0  0  0  0  0  0  0  0  0  0  0
   -1.4141    2.6279   -1.7782 H   0  0  0  0  0  0  0  0  0  0  0  0
    0.3565    0.8654   -3.5175 H   0  0  0  0  0  0  0  0  0  0  0  0
    6.8310    1.1993    0.0591 H   0  0  0  0  0  0  0  0  0  0  0  0
    6.0309    1.4076    1.6481 H   0  0  0  0  0  0  0  0  0  0  0  0
    6.1286   -0.9124    2.1357 H   0  0  0  0  0  0  0  0  0  0  0  0
    7.6275   -0.7415    1.1953 H   0  0  0  0  0  0  0  0  0  0  0  0
    6.5129   -1.4718   -0.8509 H   0  0  0  0  0  0  0  0  0  0  0  0
    5.8700   -2.5840    0.3759 H   0  0  0  0  0  0  0  0  0  0  0  0
    4.1571   -1.1760   -1.1367 H   0  0  0  0  0  0  0  0  0  0  0  0
    3.8368   -1.3072    0.6213 H   0  0  0  0  0  0  0  0  0  0  0  0
    0.2740   -1.4513    0.3037 H   0  0  0  0  0  0  0  0  0  0  0  0
  1  2  1  0
  2  3  1  0
  3  4  1  0
  4  5  1  0
  5  6  2  0
  6  7  1  0
  7  8  1  0
  7  9  2  0
  9 10  1  0
 10 11  2  0
 11 12  1  0
 12 13  1  0
 13 14  1  0
 14 15  1  0
 15 16  3  0
 14 17  2  3
 17 18  1  0
 18 19  1  0
 19 20  1  0
 20 21  1  0
 13 22  2  0
  9 23  1  0
 23 24  2  0
 24 25  1  0
 25 26  3  0
 24  5  1  0
 22 10  1  0
 21 17  1  0
  1 27  1  0
  1 28  1  0
  1 29  1  0
  2 30  1  0
  2 31  1  0
  3 32  1  0
  3 33  1  0
  8 34  1  0
  8 35  1  0
  8 36  1  0
 11 37  1  0
 18 38  1  0
 18 39  1  0
 19 40  1  0
 19 41  1  0
 20 42  1  0
 20 43  1  0
 21 44  1  0
 21 45  1  0
 23 46  1  0
M  END
$$$$
