
     RDKit          3D

 96102  0  0  0  0  0  0  0  0999 V2000
   -5.4034    2.5258   -1.0907 C   0  0  0  0  0  0  0  0  0  0  0  0
   -4.1734    2.3574   -1.9743 C   0  0  0  0  0  0  0  0  0  0  0  0
   -3.0308    1.6059   -1.3135 C   0  0  0  0  0  0  0  0  0  0  0  0
   -2.0436    2.2513   -0.6413 C   0  0  0  0  0  0  0  0  0  0  0  0
   -2.0160    3.6540   -0.5670 O   0  0  0  0  0  0  0  0  0  0  0  0
   -2.6242    4.1720    0.5483 C   0  0  0  0  0  0  0  0  0  0  0  0
   -3.1391    3.4954    1.4349 O   0  0  0  0  0  0  0  0  0  0  0  0
   -2.6365    5.5655    0.5624 N   0  0  0  0  0  0  0  0  0  0  0  0
   -1.9974    6.3731   -0.4762 C   0  0  0  0  0  0  0  0  0  0  0  0
   -0.5774    6.7836   -0.1285 C   0  0  0  0  0  0  0  0  0  0  0  0
   -3.2021    6.2402    1.7260 C   0  0  0  0  0  0  0  0  0  0  0  0
   -2.2819    6.2215    2.9382 C   0  0  0  0  0  0  0  0  0  0  0  0
   -0.9439    1.5699   -0.1356 N   0  0  0  0  0  0  0  0  0  0  0  0
    0.2696    2.1397    0.1639 C   0  0  0  0  0  0  0  0  0  0  0  0
    0.5408    3.3243    0.2832 O   0  0  0  0  0  0  0  0  0  0  0  0
    1.2082    1.1678    0.2372 O   0  0  0  0  0  0  0  0  0  0  0  0
    0.6223   -0.0335    0.0247 C   0  0  0  0  0  0  0  0  0  0  0  0
    1.2683   -1.1462    0.0600 N   0  0  0  0  0  0  0  0  0  0  0  0
    2.7299   -1.0786    0.1717 C   0  0  0  0  0  0  0  0  0  0  0  0
    3.1706   -1.2780    1.6213 C   0  0  0  0  0  0  0  0  0  0  0  0
    4.6589   -1.3733    1.7503 C   0  0  0  0  0  0  0  0  0  0  0  0
    5.5129   -0.3682    2.1622 C   0  0  0  0  0  0  0  0  0  0  0  0
    6.7919   -0.8538    2.1351 N   0  0  0  0  0  0  0  0  0  0  0  0
    6.7987   -2.1603    1.7057 C   0  0  0  0  0  0  0  0  0  0  0  0
    7.8688   -3.0431    1.5156 C   0  0  0  0  0  0  0  0  0  0  0  0
    7.5724   -4.3314    1.0616 C   0  0  0  0  0  0  0  0  0  0  0  0
    6.2583   -4.7215    0.8142 C   0  0  0  0  0  0  0  0  0  0  0  0
    5.2010   -3.8262    1.0113 C   0  0  0  0  0  0  0  0  0  0  0  0
    5.4726   -2.5178    1.4635 C   0  0  0  0  0  0  0  0  0  0  0  0
   -0.8776    0.1044   -0.1509 C   0  0  0  0  0  0  0  0  0  0  0  0
   -1.5995   -0.5565    1.0646 C   0  0  0  0  0  0  0  0  0  0  0  0
   -1.0634   -0.2350    2.4457 C   0  0  0  0  0  0  0  0  0  0  0  0
   -0.1837   -1.1168    3.0885 C   0  0  0  0  0  0  0  0  0  0  0  0
    0.3253   -0.8171    4.3530 C   0  0  0  0  0  0  0  0  0  0  0  0
   -0.0458    0.3637    4.9923 C   0  0  0  0  0  0  0  0  0  0  0  0
   -0.9289    1.2417    4.3684 C   0  0  0  0  0  0  0  0  0  0  0  0
   -1.4379    0.9419    3.1041 C   0  0  0  0  0  0  0  0  0  0  0  0
   -1.4458   -0.3533   -1.5204 C   0  0  0  0  0  0  0  0  0  0  0  0
   -2.9144    0.1521   -1.5486 C   0  0  0  0  0  0  0  0  0  0  0  0
   -3.9774   -0.6732   -1.6764 C   0  0  0  0  0  0  0  0  0  0  0  0
   -3.9059   -2.1783   -1.7815 C   0  0  0  0  0  0  0  0  0  0  0  0
   -2.5098   -2.6710   -1.9351 C   0  0  0  0  0  0  0  0  0  0  0  0
   -1.3695   -1.8179   -1.8496 C   0  0  0  0  0  0  0  0  0  0  0  0
   -0.2916   -2.5510   -2.3019 C   0  0  0  0  0  0  0  0  0  0  0  0
    0.9241   -2.1283   -2.6308 O   0  0  0  0  0  0  0  0  0  0  0  0
   -0.6887   -3.8693   -2.3671 N   0  0  0  0  0  0  0  0  0  0  0  0
    0.1812   -5.0228   -2.5038 C   0  0  0  0  0  0  0  0  0  0  0  0
    0.5409   -5.3086   -3.9336 C   0  0  0  0  0  0  0  0  0  0  0  0
    0.2262   -6.3205   -4.5467 O   0  0  0  0  0  0  0  0  0  0  0  0
    1.3237   -4.3061   -4.4391 O   0  0  0  0  0  0  0  0  0  0  0  0
    1.7094   -4.5064   -5.7999 C   0  0  0  0  0  0  0  0  0  0  0  0
   -2.0546   -3.9415   -2.2190 C   0  0  0  0  0  0  0  0  0  0  0  0
   -2.6905   -5.0958   -2.3678 O   0  0  0  0  0  0  0  0  0  0  0  0
   -5.8426    1.5663   -0.8041 H   0  0  0  0  0  0  0  0  0  0  0  0
   -5.1689    3.0709   -0.1724 H   0  0  0  0  0  0  0  0  0  0  0  0
   -6.1707    3.0953   -1.6267 H   0  0  0  0  0  0  0  0  0  0  0  0
   -3.8338    3.3538   -2.2861 H   0  0  0  0  0  0  0  0  0  0  0  0
   -4.4619    1.8590   -2.9081 H   0  0  0  0  0  0  0  0  0  0  0  0
   -1.9855    5.8161   -1.4192 H   0  0  0  0  0  0  0  0  0  0  0  0
   -2.6164    7.2604   -0.6507 H   0  0  0  0  0  0  0  0  0  0  0  0
   -0.5604    7.4574    0.7317 H   0  0  0  0  0  0  0  0  0  0  0  0
    0.0416    5.9151    0.1086 H   0  0  0  0  0  0  0  0  0  0  0  0
   -0.1204    7.3111   -0.9717 H   0  0  0  0  0  0  0  0  0  0  0  0
   -4.1408    5.7377    1.9895 H   0  0  0  0  0  0  0  0  0  0  0  0
   -3.4564    7.2710    1.4563 H   0  0  0  0  0  0  0  0  0  0  0  0
   -1.3449    6.7487    2.7414 H   0  0  0  0  0  0  0  0  0  0  0  0
   -2.0296    5.1985    3.2356 H   0  0  0  0  0  0  0  0  0  0  0  0
   -2.7716    6.7088    3.7873 H   0  0  0  0  0  0  0  0  0  0  0  0
    3.1476   -0.1504   -0.2389 H   0  0  0  0  0  0  0  0  0  0  0  0
    3.1393   -1.8795   -0.4563 H   0  0  0  0  0  0  0  0  0  0  0  0
    2.7994   -0.4485    2.2359 H   0  0  0  0  0  0  0  0  0  0  0  0
    2.7140   -2.1892    2.0277 H   0  0  0  0  0  0  0  0  0  0  0  0
    5.3152    0.6509    2.4707 H   0  0  0  0  0  0  0  0  0  0  0  0
    7.6181   -0.3293    2.3857 H   0  0  0  0  0  0  0  0  0  0  0  0
    8.8936   -2.7439    1.7094 H   0  0  0  0  0  0  0  0  0  0  0  0
    8.3817   -5.0404    0.9020 H   0  0  0  0  0  0  0  0  0  0  0  0
    6.0506   -5.7291    0.4636 H   0  0  0  0  0  0  0  0  0  0  0  0
    4.1798   -4.1367    0.8140 H   0  0  0  0  0  0  0  0  0  0  0  0
   -2.6644   -0.2912    1.0732 H   0  0  0  0  0  0  0  0  0  0  0  0
   -1.5759   -1.6484    0.9477 H   0  0  0  0  0  0  0  0  0  0  0  0
    0.1193   -2.0430    2.6033 H   0  0  0  0  0  0  0  0  0  0  0  0
    1.0137   -1.5049    4.8371 H   0  0  0  0  0  0  0  0  0  0  0  0
    0.3504    0.5985    5.9763 H   0  0  0  0  0  0  0  0  0  0  0  0
   -1.2265    2.1618    4.8645 H   0  0  0  0  0  0  0  0  0  0  0  0
   -2.1370    1.6347    2.6423 H   0  0  0  0  0  0  0  0  0  0  0  0
   -0.9067    0.1644   -2.3308 H   0  0  0  0  0  0  0  0  0  0  0  0
   -4.9899   -0.2836   -1.6558 H   0  0  0  0  0  0  0  0  0  0  0  0
   -4.4981   -2.4949   -2.6486 H   0  0  0  0  0  0  0  0  0  0  0  0
   -4.3589   -2.6229   -0.8878 H   0  0  0  0  0  0  0  0  0  0  0  0
    1.3799   -2.8040   -3.1641 H   0  0  0  0  0  0  0  0  0  0  0  0
    1.0911   -4.8453   -1.9213 H   0  0  0  0  0  0  0  0  0  0  0  0
   -0.3123   -5.8973   -2.0680 H   0  0  0  0  0  0  0  0  0  0  0  0
    2.2808   -3.6314   -6.1219 H   0  0  0  0  0  0  0  0  0  0  0  0
    2.3497   -5.3892   -5.8851 H   0  0  0  0  0  0  0  0  0  0  0  0
    0.8285   -4.6003   -6.4442 H   0  0  0  0  0  0  0  0  0  0  0  0
   -3.6421   -4.9271   -2.2512 H   0  0  0  0  0  0  0  0  0  0  0  0
  1  2  1  0
  2  3  1  0
  3  4  2  0
  4  5  1  0
  5  6  1  0
  6  7  2  0
  6  8  1  0
  8  9  1  0
  9 10  1  0
  8 11  1  0
 11 12  1  0
  4 13  1  0
 13 14  1  0
 14 15  2  0
 14 16  1  0
 16 17  1  0
 17 18  2  3
 18 19  1  0
 19 20  1  0
 20 21  1  0
 21 22  2  0
 22 23  1  0
 23 24  1  0
 24 25  2  0
 25 26  1  0
 26 27  2  0
 27 28  1  0
 28 29  2  0
 17 30  1  0
 30 31  1  0
 31 32  1  0
 32 33  2  0
 33 34  1  0
 34 35  2  0
 35 36  1  0
 36 37  2  0
 30 38  1  0
 38 39  1  0
 39 40  2  0
 40 41  1  0
 41 42  1  0
 42 43  1  0
 43 44  2  0
 44 45  1  0
 44 46  1  0
 46 47  1  0
 47 48  1  0
 48 49  2  0
 48 50  1  0
 50 51  1  0
 46 52  1  0
 52 53  1  0
 39  3  1  0
 52 42  2  0
 30 13  1  0
 37 32  1  0
 43 38  1  0
 29 21  1  0
 29 24  1  0
  1 54  1  0
  1 55  1  0
  1 56  1  0
  2 57  1  0
  2 58  1  0
  9 59  1  0
  9 60  1  0
 10 61  1  0
 10 62  1  0
 10 63  1  0
 11 64  1  0
 11 65  1  0
 12 66  1  0
 12 67  1  0
 12 68  1  0
 19 69  1  0
 19 70  1  0
 20 71  1  0
 20 72  1  0
 22 73  1  0
 23 74  1  0
 25 75  1  0
 26 76  1  0
 27 77  1  0
 28 78  1  0
 31 79  1  0
 31 80  1  0
 33 81  1  0
 34 82  1  0
 35 83  1  0
 36 84  1  0
 37 85  1  0
 38 86  1  0
 40 87  1  0
 41 88  1  0
 41 89  1  0
 45 90  1  0
 47 91  1  0
 47 92  1  0
 51 93  1  0
 51 94  1  0
 51 95  1  0
 53 96  1  0
M  END
$$$$
