
     RDKit          3D

 42 45  0  0  0  0  0  0  0  0999 V2000
    1.3591    1.5028    2.3247 O   0  0  0  0  0  0  0  0  0  0  0  0
    0.4108    1.5373    1.5509 C   0  0  0  0  0  0  0  0  0  0  0  0
   -0.7889    2.0310    1.9694 N   0  0  0  0  0  0  0  0  0  0  0  0
   -2.0096    1.7923    1.4136 C   0  0  0  0  0  0  0  0  0  0  0  0
   -3.0168    2.1184    2.0395 O   0  0  0  0  0  0  0  0  0  0  0  0
   -2.0189    1.1990    0.1676 N   0  0  0  0  0  0  0  0  0  0  0  0
   -3.3168    0.8817   -0.4329 C   0  0  0  0  0  0  0  0  0  0  0  0
   -3.6621   -0.6072   -0.2933 C   0  0  0  0  0  0  0  0  0  0  0  0
   -5.0208   -0.9572   -0.8798 C   0  0  0  0  0  0  0  0  0  0  0  0
   -5.3909   -2.1825   -0.0823 C   0  0  0  0  0  0  0  0  0  0  0  0
   -4.8644   -1.8305    1.2923 C   0  0  0  0  0  0  0  0  0  0  0  0
   -3.7161   -0.9929    1.0950 O   0  0  0  0  0  0  0  0  0  0  0  0
   -0.8842    0.8184   -0.5314 C   0  0  0  0  0  0  0  0  0  0  0  0
   -0.9410    0.3236   -1.6580 O   0  0  0  0  0  0  0  0  0  0  0  0
    0.4186    1.0398    0.1586 C   0  0  0  0  0  0  0  0  0  0  0  0
    1.5272    0.7433   -0.5511 C   0  0  0  0  0  0  0  0  0  0  0  0
    2.9047    0.8904   -0.2057 C   0  0  0  0  0  0  0  0  0  0  0  0
    3.4827    1.9978    0.3727 C   0  0  0  0  0  0  0  0  0  0  0  0
    4.8223    1.7470    0.5157 N   0  0  0  0  0  0  0  0  0  0  0  0
    5.1380    0.5173   -0.0152 C   0  0  0  0  0  0  0  0  0  0  0  0
    6.3747   -0.1317   -0.1135 C   0  0  0  0  0  0  0  0  0  0  0  0
    6.3981   -1.3952   -0.7111 C   0  0  0  0  0  0  0  0  0  0  0  0
    5.2302   -1.9847   -1.1886 C   0  0  0  0  0  0  0  0  0  0  0  0
    4.0014   -1.3232   -1.0802 C   0  0  0  0  0  0  0  0  0  0  0  0
    3.9488   -0.0456   -0.4826 C   0  0  0  0  0  0  0  0  0  0  0  0
   -0.8163    2.3532    2.9264 H   0  0  0  0  0  0  0  0  0  0  0  0
   -4.0964    1.4889    0.0405 H   0  0  0  0  0  0  0  0  0  0  0  0
   -3.2897    1.1556   -1.4945 H   0  0  0  0  0  0  0  0  0  0  0  0
   -2.8881   -1.2297   -0.7579 H   0  0  0  0  0  0  0  0  0  0  0  0
   -5.7500   -0.1607   -0.6883 H   0  0  0  0  0  0  0  0  0  0  0  0
   -4.9839   -1.1354   -1.9581 H   0  0  0  0  0  0  0  0  0  0  0  0
   -6.4613   -2.4036   -0.0858 H   0  0  0  0  0  0  0  0  0  0  0  0
   -4.8578   -3.0564   -0.4752 H   0  0  0  0  0  0  0  0  0  0  0  0
   -5.6010   -1.2560    1.8639 H   0  0  0  0  0  0  0  0  0  0  0  0
   -4.5820   -2.7129    1.8732 H   0  0  0  0  0  0  0  0  0  0  0  0
    1.3893    0.3237   -1.5487 H   0  0  0  0  0  0  0  0  0  0  0  0
    3.0654    2.9339    0.7179 H   0  0  0  0  0  0  0  0  0  0  0  0
    5.4893    2.3770    0.9384 H   0  0  0  0  0  0  0  0  0  0  0  0
    7.2863    0.3237    0.2592 H   0  0  0  0  0  0  0  0  0  0  0  0
    7.3431   -1.9257   -0.8022 H   0  0  0  0  0  0  0  0  0  0  0  0
    5.2703   -2.9693   -1.6476 H   0  0  0  0  0  0  0  0  0  0  0  0
    3.0967   -1.7958   -1.4509 H   0  0  0  0  0  0  0  0  0  0  0  0
  1  2  2  0
  2  3  1  0
  3  4  1  0
  4  5  2  0
  4  6  1  0
  6  7  1  0
  7  8  1  0
  8  9  1  0
  9 10  1  0
 10 11  1  0
 11 12  1  0
  6 13  1  0
 13 14  2  0
 13 15  1  0
 15 16  2  3
 16 17  1  0
 17 18  2  0
 18 19  1  0
 19 20  1  0
 20 21  2  0
 21 22  1  0
 22 23  2  0
 23 24  1  0
 24 25  2  0
 15  2  1  0
 25 17  1  0
 12  8  1  0
 25 20  1  0
  3 26  1  0
  7 27  1  0
  7 28  1  0
  8 29  1  0
  9 30  1  0
  9 31  1  0
 10 32  1  0
 10 33  1  0
 11 34  1  0
 11 35  1  0
 16 36  1  0
 18 37  1  0
 19 38  1  0
 21 39  1  0
 22 40  1  0
 23 41  1  0
 24 42  1  0
M  END
$$$$
