
     RDKit          3D

 58 62  0  0  0  0  0  0  0  0999 V2000
   -3.1393   -0.9981   -0.2248 O   0  0  0  0  0  0  0  0  0  0  0  0
   -2.9670    0.3323    0.0838 C   0  0  0  0  0  0  0  0  0  0  0  0
   -2.0396    0.7025    1.0665 C   0  0  0  0  0  0  0  0  0  0  0  0
   -1.1571   -0.2903    1.8378 C   0  0  0  0  0  0  0  0  0  0  0  0
   -1.9060   -1.4932    2.4763 C   0  0  0  0  0  0  0  0  0  0  0  0
   -3.1318   -1.2873    3.1215 C   0  0  0  0  0  0  0  0  0  0  0  0
   -3.7712   -2.3584    3.7426 C   0  0  0  0  0  0  0  0  0  0  0  0
   -3.1728   -3.6099    3.7269 C   0  0  0  0  0  0  0  0  0  0  0  0
   -1.9497   -3.7370    3.0954 C   0  0  0  0  0  0  0  0  0  0  0  0
   -1.3059   -2.7168    2.4901 N   0  0  0  0  0  0  0  0  0  0  0  0
    0.1258   -0.6324    1.1575 N   0  0  0  0  0  0  0  0  0  0  0  0
   -0.0385   -1.3595   -0.1033 C   0  0  0  0  0  0  0  0  0  0  0  0
    1.3085   -1.9052   -0.5845 C   0  0  0  0  0  0  0  0  0  0  0  0
    2.3494   -0.7863   -0.7401 C   0  0  0  0  0  0  0  0  0  0  0  0
    3.7111   -1.3845   -1.1387 C   0  0  0  0  0  0  0  0  0  0  0  0
    4.7404   -0.3464   -1.5186 C   0  0  0  0  0  0  0  0  0  0  0  0
    4.6449    0.3362   -2.7390 C   0  0  0  0  0  0  0  0  0  0  0  0
    5.5918    1.3007   -3.0870 C   0  0  0  0  0  0  0  0  0  0  0  0
    6.6427    1.5919   -2.2195 C   0  0  0  0  0  0  0  0  0  0  0  0
    6.7477    0.9189   -1.0037 C   0  0  0  0  0  0  0  0  0  0  0  0
    5.8017   -0.0461   -0.6543 C   0  0  0  0  0  0  0  0  0  0  0  0
    2.4279    0.0191    0.5659 C   0  0  0  0  0  0  0  0  0  0  0  0
    1.0449    0.4956    1.0168 C   0  0  0  0  0  0  0  0  0  0  0  0
   -1.9194    2.0739    1.3407 C   0  0  0  0  0  0  0  0  0  0  0  0
   -2.6910    3.0175    0.6545 C   0  0  0  0  0  0  0  0  0  0  0  0
   -2.4557    4.6814    1.0742 Cl  0  0  0  0  0  0  0  0  0  0  0  0
   -3.6200    2.6220   -0.3356 C   0  0  0  0  0  0  0  0  0  0  0  0
   -4.4391    3.5035   -1.0762 C   0  0  0  0  0  0  0  0  0  0  0  0
   -5.3251    3.0142   -2.0295 C   0  0  0  0  0  0  0  0  0  0  0  0
   -5.3757    1.6499   -2.2238 C   0  0  0  0  0  0  0  0  0  0  0  0
   -4.6145    0.7678   -1.5414 N   0  0  0  0  0  0  0  0  0  0  0  0
   -3.7538    1.2499   -0.6181 C   0  0  0  0  0  0  0  0  0  0  0  0
   -3.8290   -1.0043   -0.9231 H   0  0  0  0  0  0  0  0  0  0  0  0
   -0.8466    0.2408    2.7519 H   0  0  0  0  0  0  0  0  0  0  0  0
   -3.5942   -0.3061    3.1426 H   0  0  0  0  0  0  0  0  0  0  0  0
   -4.7282   -2.2134    4.2348 H   0  0  0  0  0  0  0  0  0  0  0  0
   -3.6439   -4.4643    4.1983 H   0  0  0  0  0  0  0  0  0  0  0  0
   -1.4336   -4.6916    3.0590 H   0  0  0  0  0  0  0  0  0  0  0  0
   -0.4547   -0.7105   -0.8833 H   0  0  0  0  0  0  0  0  0  0  0  0
   -0.7156   -2.2122    0.0082 H   0  0  0  0  0  0  0  0  0  0  0  0
    1.6708   -2.6589    0.1273 H   0  0  0  0  0  0  0  0  0  0  0  0
    1.1670   -2.4171   -1.5440 H   0  0  0  0  0  0  0  0  0  0  0  0
    2.0041   -0.1133   -1.5370 H   0  0  0  0  0  0  0  0  0  0  0  0
    4.0978   -2.0132   -0.3259 H   0  0  0  0  0  0  0  0  0  0  0  0
    3.5836   -2.0585   -1.9965 H   0  0  0  0  0  0  0  0  0  0  0  0
    3.8306    0.1178   -3.4260 H   0  0  0  0  0  0  0  0  0  0  0  0
    5.5094    1.8239   -4.0358 H   0  0  0  0  0  0  0  0  0  0  0  0
    7.3800    2.3425   -2.4909 H   0  0  0  0  0  0  0  0  0  0  0  0
    7.5668    1.1450   -0.3263 H   0  0  0  0  0  0  0  0  0  0  0  0
    5.8955   -0.5607    0.2994 H   0  0  0  0  0  0  0  0  0  0  0  0
    3.0749    0.8942    0.4362 H   0  0  0  0  0  0  0  0  0  0  0  0
    2.8767   -0.5951    1.3577 H   0  0  0  0  0  0  0  0  0  0  0  0
    0.6667    1.2316    0.2968 H   0  0  0  0  0  0  0  0  0  0  0  0
    1.1670    1.0094    1.9779 H   0  0  0  0  0  0  0  0  0  0  0  0
   -1.2097    2.4136    2.0939 H   0  0  0  0  0  0  0  0  0  0  0  0
   -4.3920    4.5782   -0.9156 H   0  0  0  0  0  0  0  0  0  0  0  0
   -5.9571    3.6828   -2.6033 H   0  0  0  0  0  0  0  0  0  0  0  0
   -6.0499    1.2134   -2.9558 H   0  0  0  0  0  0  0  0  0  0  0  0
  1  2  1  0
  2  3  2  0
  3  4  1  0
  4  5  1  0
  5  6  2  0
  6  7  1  0
  7  8  2  0
  8  9  1  0
  9 10  2  0
  4 11  1  0
 11 12  1  0
 12 13  1  0
 13 14  1  0
 14 15  1  0
 15 16  1  0
 16 17  2  0
 17 18  1  0
 18 19  2  0
 19 20  1  0
 20 21  2  0
 14 22  1  0
 22 23  1  0
  3 24  1  0
 24 25  2  0
 25 26  1  0
 25 27  1  0
 27 28  2  0
 28 29  1  0
 29 30  2  0
 30 31  1  0
 31 32  2  0
 32  2  1  0
 10  5  1  0
 23 11  1  0
 32 27  1  0
 21 16  1  0
  1 33  1  0
  4 34  1  0
  6 35  1  0
  7 36  1  0
  8 37  1  0
  9 38  1  0
 12 39  1  0
 12 40  1  0
 13 41  1  0
 13 42  1  0
 14 43  1  0
 15 44  1  0
 15 45  1  0
 17 46  1  0
 18 47  1  0
 19 48  1  0
 20 49  1  0
 21 50  1  0
 22 51  1  0
 22 52  1  0
 23 53  1  0
 23 54  1  0
 24 55  1  0
 28 56  1  0
 29 57  1  0
 30 58  1  0
M  END
$$$$
