
     RDKit          3D

 37 38  0  0  0  0  0  0  0  0999 V2000
   -2.8226   -1.6376   -1.5920 C   0  0  0  0  0  0  0  0  0  0  0  0
   -3.6831   -0.9775   -0.5162 C   0  0  0  0  0  0  0  0  0  0  0  0
   -3.7671   -1.8954    0.7080 C   0  0  0  0  0  0  0  0  0  0  0  0
   -3.2885    0.4708   -0.1147 C   0  0  0  0  0  0  0  0  0  0  0  0
   -3.4361    1.4886   -1.2535 C   0  0  0  0  0  0  0  0  0  0  0  0
   -4.2405    1.4308   -2.1712 O   0  0  0  0  0  0  0  0  0  0  0  0
   -2.6636    2.5879   -1.1106 O   0  0  0  0  0  0  0  0  0  0  0  0
   -2.0159    0.6216    0.6265 N   0  0  0  0  0  0  0  0  0  0  0  0
   -0.8135    0.4732   -0.0497 C   0  0  0  0  0  0  0  0  0  0  0  0
   -0.7000    0.2770   -1.2516 O   0  0  0  0  0  0  0  0  0  0  0  0
    0.3430    0.6431    0.8760 C   0  0  0  0  0  0  0  0  0  0  0  0
    1.6536    0.5051    0.6183 C   0  0  0  0  0  0  0  0  0  0  0  0
    2.2705    0.1512   -0.6454 C   0  0  0  0  0  0  0  0  0  0  0  0
    3.5699   -0.0344   -0.9319 C   0  0  0  0  0  0  0  0  0  0  0  0
    4.6701    0.0540   -0.0317 C   0  0  0  0  0  0  0  0  0  0  0  0
    6.0257   -0.0226   -0.3433 C   0  0  0  0  0  0  0  0  0  0  0  0
    6.7649    0.1046    0.8561 C   0  0  0  0  0  0  0  0  0  0  0  0
    5.8339    0.2492    1.8504 C   0  0  0  0  0  0  0  0  0  0  0  0
    4.5834    0.2180    1.3331 O   0  0  0  0  0  0  0  0  0  0  0  0
   -0.2390    1.0718    2.4424 S   0  0  0  0  0  0  0  0  0  0  0  0
   -1.9239    1.0023    1.9501 C   0  0  0  0  0  0  0  0  0  0  0  0
   -3.1501    1.3482    3.0295 S   0  0  0  0  0  0  0  0  0  0  0  0
   -1.8401   -1.9277   -1.2083 H   0  0  0  0  0  0  0  0  0  0  0  0
   -2.6913   -0.9856   -2.4604 H   0  0  0  0  0  0  0  0  0  0  0  0
   -3.3051   -2.5553   -1.9480 H   0  0  0  0  0  0  0  0  0  0  0  0
   -4.6970   -0.9199   -0.9373 H   0  0  0  0  0  0  0  0  0  0  0  0
   -4.1436   -2.8843    0.4246 H   0  0  0  0  0  0  0  0  0  0  0  0
   -4.4520   -1.4860    1.4574 H   0  0  0  0  0  0  0  0  0  0  0  0
   -2.7869   -2.0333    1.1762 H   0  0  0  0  0  0  0  0  0  0  0  0
   -4.0899    0.7926    0.5608 H   0  0  0  0  0  0  0  0  0  0  0  0
   -2.8753    3.1315   -1.8993 H   0  0  0  0  0  0  0  0  0  0  0  0
    2.3384    0.6805    1.4444 H   0  0  0  0  0  0  0  0  0  0  0  0
    1.5919    0.0258   -1.4884 H   0  0  0  0  0  0  0  0  0  0  0  0
    3.8173   -0.2809   -1.9629 H   0  0  0  0  0  0  0  0  0  0  0  0
    6.4300   -0.1554   -1.3377 H   0  0  0  0  0  0  0  0  0  0  0  0
    7.8385    0.0910    0.9783 H   0  0  0  0  0  0  0  0  0  0  0  0
    5.8938    0.3769    2.9221 H   0  0  0  0  0  0  0  0  0  0  0  0
  1  2  1  0
  2  3  1  0
  2  4  1  0
  4  5  1  0
  5  6  2  0
  5  7  1  0
  4  8  1  0
  8  9  1  0
  9 10  2  0
  9 11  1  0
 11 12  2  3
 12 13  1  0
 13 14  2  3
 14 15  1  0
 15 16  2  0
 16 17  1  0
 17 18  2  0
 18 19  1  0
 11 20  1  0
 20 21  1  0
 21 22  2  0
 21  8  1  0
 19 15  1  0
  1 23  1  0
  1 24  1  0
  1 25  1  0
  2 26  1  0
  3 27  1  0
  3 28  1  0
  3 29  1  0
  4 30  1  0
  7 31  1  0
 12 32  1  0
 13 33  1  0
 14 34  1  0
 16 35  1  0
 17 36  1  0
 18 37  1  0
M  END
$$$$
