
     RDKit          3D

 40 40  0  0  0  0  0  0  0  0999 V2000
   -5.8766    0.2543   -1.3402 C   0  0  0  0  0  0  0  0  0  0  0  0
   -5.2802   -0.0166    0.0499 C   0  0  0  0  0  0  0  0  0  0  0  0
   -5.3233    1.2632    0.8990 C   0  0  0  0  0  0  0  0  0  0  0  0
   -6.1324   -1.0936    0.7443 C   0  0  0  0  0  0  0  0  0  0  0  0
   -3.9080   -0.5207   -0.0603 N   0  0  0  0  0  0  0  0  0  0  0  0
   -2.8515    0.1547   -0.6306 C   0  0  0  0  0  0  0  0  0  0  0  0
   -2.8786    1.2600   -1.1495 O   0  0  0  0  0  0  0  0  0  0  0  0
   -1.5239   -0.6262   -0.5657 C   0  0  0  0  0  0  0  0  0  0  0  0
   -1.4632   -1.7182   -0.0117 O   0  0  0  0  0  0  0  0  0  0  0  0
   -0.4656    0.0248   -1.1633 N   0  0  0  0  0  0  0  0  0  0  0  0
    0.8322   -0.4603   -0.9211 N   0  0  0  0  0  0  0  0  0  0  0  0
    1.8047    0.4768   -0.5969 C   0  0  0  0  0  0  0  0  0  0  0  0
    1.6080    1.6857   -0.7003 O   0  0  0  0  0  0  0  0  0  0  0  0
    3.1121   -0.1611   -0.1267 C   0  0  0  0  0  0  0  0  0  0  0  0
    4.0525    0.8274    0.2617 O   0  0  0  0  0  0  0  0  0  0  0  0
    5.2700    0.3922    0.7056 C   0  0  0  0  0  0  0  0  0  0  0  0
    6.1483    1.4114    1.0832 C   0  0  0  0  0  0  0  0  0  0  0  0
    7.4265    1.1111    1.5564 C   0  0  0  0  0  0  0  0  0  0  0  0
    7.8351   -0.2163    1.6547 C   0  0  0  0  0  0  0  0  0  0  0  0
    6.9651   -1.2388    1.2795 C   0  0  0  0  0  0  0  0  0  0  0  0
    5.6842   -0.9370    0.8053 C   0  0  0  0  0  0  0  0  0  0  0  0
   -5.8225   -0.6397   -1.9722 H   0  0  0  0  0  0  0  0  0  0  0  0
   -5.3455    1.0560   -1.8635 H   0  0  0  0  0  0  0  0  0  0  0  0
   -6.9286    0.5527   -1.2682 H   0  0  0  0  0  0  0  0  0  0  0  0
   -4.7737    2.0843    0.4271 H   0  0  0  0  0  0  0  0  0  0  0  0
   -4.8757    1.0958    1.8854 H   0  0  0  0  0  0  0  0  0  0  0  0
   -6.3539    1.6035    1.0502 H   0  0  0  0  0  0  0  0  0  0  0  0
   -7.1739   -0.7715    0.8547 H   0  0  0  0  0  0  0  0  0  0  0  0
   -5.7431   -1.3216    1.7436 H   0  0  0  0  0  0  0  0  0  0  0  0
   -6.1281   -2.0294    0.1730 H   0  0  0  0  0  0  0  0  0  0  0  0
   -3.6778   -1.4252    0.3453 H   0  0  0  0  0  0  0  0  0  0  0  0
   -0.5594    1.0209   -1.3843 H   0  0  0  0  0  0  0  0  0  0  0  0
    0.8800   -1.4095   -0.5522 H   0  0  0  0  0  0  0  0  0  0  0  0
    3.5051   -0.7506   -0.9639 H   0  0  0  0  0  0  0  0  0  0  0  0
    2.8742   -0.8094    0.7255 H   0  0  0  0  0  0  0  0  0  0  0  0
    5.8320    2.4494    1.0072 H   0  0  0  0  0  0  0  0  0  0  0  0
    8.0995    1.9136    1.8466 H   0  0  0  0  0  0  0  0  0  0  0  0
    8.8299   -0.4537    2.0225 H   0  0  0  0  0  0  0  0  0  0  0  0
    7.2850   -2.2750    1.3558 H   0  0  0  0  0  0  0  0  0  0  0  0
    5.0413   -1.7633    0.5238 H   0  0  0  0  0  0  0  0  0  0  0  0
  1  2  1  0
  2  3  1  0
  2  4  1  0
  2  5  1  0
  5  6  1  0
  6  7  2  0
  6  8  1  0
  8  9  2  0
  8 10  1  0
 10 11  1  0
 11 12  1  0
 12 13  2  0
 12 14  1  0
 14 15  1  0
 15 16  1  0
 16 17  2  0
 17 18  1  0
 18 19  2  0
 19 20  1  0
 20 21  2  0
 21 16  1  0
  1 22  1  0
  1 23  1  0
  1 24  1  0
  3 25  1  0
  3 26  1  0
  3 27  1  0
  4 28  1  0
  4 29  1  0
  4 30  1  0
  5 31  1  0
 10 32  1  0
 11 33  1  0
 14 34  1  0
 14 35  1  0
 17 36  1  0
 18 37  1  0
 19 38  1  0
 20 39  1  0
 21 40  1  0
M  END
$$$$
