
     RDKit          3D

 52 55  0  0  0  0  0  0  0  0999 V2000
   -2.8454    2.8304   -0.4006 C   0  0  0  0  0  0  0  0  0  0  0  0
   -3.0861    1.7516    0.6199 C   0  0  0  0  0  0  0  0  0  0  0  0
   -2.3910    1.8409    1.8414 C   0  0  0  0  0  0  0  0  0  0  0  0
   -2.5606    0.8853    2.8459 C   0  0  0  0  0  0  0  0  0  0  0  0
   -3.4410   -0.1792    2.6397 C   0  0  0  0  0  0  0  0  0  0  0  0
   -3.6107   -1.1938    3.6858 N   0  0  0  0  0  4  0  0  0  0  0  0
   -4.2064   -2.2370    3.3820 O   0  0  0  0  0  0  0  0  0  0  0  0
   -3.1352   -0.9531    4.8043 O   0  0  0  0  0  1  0  0  0  0  0  0
   -4.1516   -0.2920    1.4409 C   0  0  0  0  0  0  0  0  0  0  0  0
   -3.9710    0.6698    0.4302 C   0  0  0  0  0  0  0  0  0  0  0  0
   -4.9296    0.4305   -1.0622 S   0  0  0  0  0  6  0  0  0  0  0  0
   -4.9015    1.6153   -1.8883 O   0  0  0  0  0  0  0  0  0  0  0  0
   -6.1962   -0.1458   -0.6591 O   0  0  0  0  0  0  0  0  0  0  0  0
   -4.0840   -0.8176   -1.8401 N   0  0  0  0  0  0  0  0  0  0  0  0
   -2.8499   -0.4859   -2.4651 C   0  0  0  0  0  0  0  0  0  0  0  0
   -2.8306    0.0542   -3.7466 C   0  0  0  0  0  0  0  0  0  0  0  0
   -1.6162    0.4372   -4.3091 C   0  0  0  0  0  0  0  0  0  0  0  0
   -0.4295    0.2807   -3.5861 C   0  0  0  0  0  0  0  0  0  0  0  0
   -0.4248   -0.2696   -2.2907 C   0  0  0  0  0  0  0  0  0  0  0  0
    0.8316   -0.4184   -1.5380 C   0  0  0  0  0  0  0  0  0  0  0  0
    1.0915   -1.4586   -0.6604 C   0  0  0  0  0  0  0  0  0  0  0  0
    2.3180   -1.5039    0.0106 C   0  0  0  0  0  0  0  0  0  0  0  0
    3.2741   -0.5197   -0.1954 C   0  0  0  0  0  0  0  0  0  0  0  0
    4.4839   -0.5236    0.4457 N   0  0  0  0  0  0  0  0  0  0  0  0
    4.9878   -1.5627    1.3258 C   0  0  0  0  0  0  0  0  0  0  0  0
    6.3020   -0.9813    1.8430 C   0  0  0  0  0  0  0  0  0  0  0  0
    6.7896   -0.1417    0.6722 C   0  0  0  0  0  0  0  0  0  0  0  0
    5.5027    0.4652    0.1134 C   0  0  0  0  0  0  0  0  0  0  0  0
    2.9794    0.4757   -1.0580 N   0  0  0  0  0  0  0  0  0  0  0  0
    1.7671    0.5299   -1.7334 N   0  0  0  0  0  0  0  0  0  0  0  0
   -1.6636   -0.6484   -1.7447 C   0  0  0  0  0  0  0  0  0  0  0  0
   -2.5526    2.4042   -1.3633 H   0  0  0  0  0  0  0  0  0  0  0  0
   -3.7375    3.4538   -0.5118 H   0  0  0  0  0  0  0  0  0  0  0  0
   -2.0260    3.4910   -0.0960 H   0  0  0  0  0  0  0  0  0  0  0  0
   -1.7013    2.6668    2.0198 H   0  0  0  0  0  0  0  0  0  0  0  0
   -2.0009    0.9878    3.7740 H   0  0  0  0  0  0  0  0  0  0  0  0
   -4.8428   -1.1200    1.2836 H   0  0  0  0  0  0  0  0  0  0  0  0
   -4.7341   -1.3902   -2.3791 H   0  0  0  0  0  0  0  0  0  0  0  0
   -3.7518    0.2080   -4.3019 H   0  0  0  0  0  0  0  0  0  0  0  0
   -1.5897    0.8735   -5.3047 H   0  0  0  0  0  0  0  0  0  0  0  0
    0.5077    0.5978   -4.0444 H   0  0  0  0  0  0  0  0  0  0  0  0
    0.3687   -2.2502   -0.4956 H   0  0  0  0  0  0  0  0  0  0  0  0
    2.5061   -2.3269    0.6906 H   0  0  0  0  0  0  0  0  0  0  0  0
    4.3097   -1.7770    2.1585 H   0  0  0  0  0  0  0  0  0  0  0  0
    5.1716   -2.4844    0.7610 H   0  0  0  0  0  0  0  0  0  0  0  0
    6.1137   -0.3370    2.7107 H   0  0  0  0  0  0  0  0  0  0  0  0
    7.0154   -1.7559    2.1388 H   0  0  0  0  0  0  0  0  0  0  0  0
    7.5171    0.6195    0.9673 H   0  0  0  0  0  0  0  0  0  0  0  0
    7.2566   -0.7889   -0.0806 H   0  0  0  0  0  0  0  0  0  0  0  0
    5.2767    1.4161    0.6091 H   0  0  0  0  0  0  0  0  0  0  0  0
    5.6043    0.6360   -0.9642 H   0  0  0  0  0  0  0  0  0  0  0  0
   -1.7136   -1.0582   -0.7391 H   0  0  0  0  0  0  0  0  0  0  0  0
  1  2  1  0
  2  3  2  0
  3  4  1  0
  4  5  2  0
  5  6  1  0
  6  7  2  0
  6  8  1  0
  5  9  1  0
  9 10  2  0
 10 11  1  0
 11 12  2  0
 11 13  2  0
 11 14  1  0
 14 15  1  0
 15 16  2  0
 16 17  1  0
 17 18  2  0
 18 19  1  0
 19 20  1  0
 20 21  2  0
 21 22  1  0
 22 23  2  0
 23 24  1  0
 24 25  1  0
 25 26  1  0
 26 27  1  0
 27 28  1  0
 23 29  1  0
 29 30  2  0
 19 31  2  0
 10  2  1  0
 31 15  1  0
 30 20  1  0
 28 24  1  0
  1 32  1  0
  1 33  1  0
  1 34  1  0
  3 35  1  0
  4 36  1  0
  9 37  1  0
 14 38  1  0
 16 39  1  0
 17 40  1  0
 18 41  1  0
 21 42  1  0
 22 43  1  0
 25 44  1  0
 25 45  1  0
 26 46  1  0
 26 47  1  0
 27 48  1  0
 27 49  1  0
 28 50  1  0
 28 51  1  0
 31 52  1  0
M  CHG  2   6   1   8  -1
M  END
$$$$
