
     RDKit          3D

 59 60  0  0  0  0  0  0  0  0999 V2000
    7.0892    0.0514   -2.1539 C   0  0  0  0  0  0  0  0  0  0  0  0
    5.7962   -0.7635   -2.0702 C   0  0  0  0  0  0  0  0  0  0  0  0
    5.7527   -1.7820   -3.2100 C   0  0  0  0  0  0  0  0  0  0  0  0
    4.5820    0.1818   -2.0817 C   0  0  0  0  0  0  0  0  0  0  0  0
    3.2513   -0.5347   -1.8645 C   0  0  0  0  0  0  0  0  0  0  0  0
    2.1587    0.4108   -1.7710 N   0  0  0  0  0  0  0  0  0  0  0  0
    0.9187    0.0263   -1.2923 C   0  0  0  0  0  0  0  0  0  0  0  0
    0.7349   -1.0731   -0.7783 O   0  0  0  0  0  0  0  0  0  0  0  0
   -0.1125    1.0240   -1.4409 C   0  0  0  0  0  0  0  0  0  0  0  0
    0.2445    2.2962   -1.7762 O   0  0  0  0  0  0  0  0  0  0  0  0
   -0.8735    3.1035   -1.8154 N   0  0  0  0  0  0  0  0  0  0  0  0
   -1.9104    2.3112   -1.5007 C   0  0  0  0  0  0  0  0  0  0  0  0
   -3.2872    2.8850   -1.4807 C   0  0  0  0  0  0  0  0  0  0  0  0
   -4.1139    2.9198    0.1436 S   0  0  0  0  0  0  0  0  0  0  0  0
   -2.7442    3.3327    1.1936 C   0  0  0  0  0  0  0  0  0  0  0  0
   -2.3531    4.6509    1.3810 C   0  0  0  0  0  0  0  0  0  0  0  0
   -1.2612    4.9061    2.2060 C   0  0  0  0  0  0  0  0  0  0  0  0
   -0.6031    3.8436    2.8152 C   0  0  0  0  0  0  0  0  0  0  0  0
   -1.0670    2.5614    2.5753 C   0  0  0  0  0  0  0  0  0  0  0  0
   -2.1238    2.2800    1.7810 N   0  0  0  0  0  0  0  0  0  0  0  0
   -1.4794    0.9772   -1.2722 C   0  0  0  0  0  0  0  0  0  0  0  0
   -2.2356   -0.2056   -0.9547 C   0  0  0  0  0  0  0  0  0  0  0  0
   -2.3439   -1.1331   -1.7465 O   0  0  0  0  0  0  0  0  0  0  0  0
   -2.8101   -0.1761    0.2908 N   0  0  0  0  0  0  0  0  0  0  0  0
   -3.5004   -1.3165    0.8496 C   0  0  0  0  0  0  0  0  0  0  0  0
   -2.5228   -2.2755    1.5289 C   0  0  0  0  0  0  0  0  0  0  0  0
   -3.1892   -3.5590    2.0550 C   0  0  0  0  0  0  0  0  0  0  0  0
   -4.2282   -3.2744    3.1404 C   0  0  0  0  0  0  0  0  0  0  0  0
   -2.1221   -4.5125    2.5982 C   0  0  0  0  0  0  0  0  0  0  0  0
    7.1402    0.6213   -3.0881 H   0  0  0  0  0  0  0  0  0  0  0  0
    7.1581    0.7587   -1.3208 H   0  0  0  0  0  0  0  0  0  0  0  0
    7.9660   -0.6031   -2.1076 H   0  0  0  0  0  0  0  0  0  0  0  0
    5.8059   -1.3122   -1.1197 H   0  0  0  0  0  0  0  0  0  0  0  0
    5.6757   -1.2854   -4.1833 H   0  0  0  0  0  0  0  0  0  0  0  0
    4.9013   -2.4613   -3.1051 H   0  0  0  0  0  0  0  0  0  0  0  0
    6.6588   -2.3976   -3.2155 H   0  0  0  0  0  0  0  0  0  0  0  0
    4.7079    0.9349   -1.2923 H   0  0  0  0  0  0  0  0  0  0  0  0
    4.5475    0.7363   -3.0288 H   0  0  0  0  0  0  0  0  0  0  0  0
    3.2800   -1.1337   -0.9474 H   0  0  0  0  0  0  0  0  0  0  0  0
    3.0200   -1.2050   -2.6986 H   0  0  0  0  0  0  0  0  0  0  0  0
    2.1930    1.2553   -2.3303 H   0  0  0  0  0  0  0  0  0  0  0  0
   -3.2712    3.9143   -1.8582 H   0  0  0  0  0  0  0  0  0  0  0  0
   -3.9252    2.3136   -2.1640 H   0  0  0  0  0  0  0  0  0  0  0  0
   -2.8768    5.4677    0.8962 H   0  0  0  0  0  0  0  0  0  0  0  0
   -0.9253    5.9265    2.3695 H   0  0  0  0  0  0  0  0  0  0  0  0
    0.2516    4.0114    3.4613 H   0  0  0  0  0  0  0  0  0  0  0  0
   -0.5852    1.6999    3.0304 H   0  0  0  0  0  0  0  0  0  0  0  0
   -2.6054    0.6131    0.9068 H   0  0  0  0  0  0  0  0  0  0  0  0
   -4.0478   -1.8294    0.0514 H   0  0  0  0  0  0  0  0  0  0  0  0
   -4.2252   -0.9197    1.5664 H   0  0  0  0  0  0  0  0  0  0  0  0
   -2.0136   -1.7531    2.3496 H   0  0  0  0  0  0  0  0  0  0  0  0
   -1.7380   -2.5514    0.8122 H   0  0  0  0  0  0  0  0  0  0  0  0
   -3.6940   -4.0607    1.2195 H   0  0  0  0  0  0  0  0  0  0  0  0
   -3.7911   -2.7079    3.9695 H   0  0  0  0  0  0  0  0  0  0  0  0
   -5.0723   -2.7023    2.7432 H   0  0  0  0  0  0  0  0  0  0  0  0
   -4.6327   -4.2080    3.5458 H   0  0  0  0  0  0  0  0  0  0  0  0
   -2.5745   -5.4494    2.9402 H   0  0  0  0  0  0  0  0  0  0  0  0
   -1.5841   -4.0678    3.4425 H   0  0  0  0  0  0  0  0  0  0  0  0
   -1.3902   -4.7608    1.8222 H   0  0  0  0  0  0  0  0  0  0  0  0
  1  2  1  0
  2  3  1  0
  2  4  1  0
  4  5  1  0
  5  6  1  0
  6  7  1  0
  7  8  2  0
  7  9  1  0
  9 10  1  0
 10 11  1  0
 11 12  2  0
 12 13  1  0
 13 14  1  0
 14 15  1  0
 15 16  2  0
 16 17  1  0
 17 18  2  0
 18 19  1  0
 19 20  2  0
 12 21  1  0
 21 22  1  0
 22 23  2  0
 22 24  1  0
 24 25  1  0
 25 26  1  0
 26 27  1  0
 27 28  1  0
 27 29  1  0
 21  9  2  0
 20 15  1  0
  1 30  1  0
  1 31  1  0
  1 32  1  0
  2 33  1  0
  3 34  1  0
  3 35  1  0
  3 36  1  0
  4 37  1  0
  4 38  1  0
  5 39  1  0
  5 40  1  0
  6 41  1  0
 13 42  1  0
 13 43  1  0
 16 44  1  0
 17 45  1  0
 18 46  1  0
 19 47  1  0
 24 48  1  0
 25 49  1  0
 25 50  1  0
 26 51  1  0
 26 52  1  0
 27 53  1  0
 28 54  1  0
 28 55  1  0
 28 56  1  0
 29 57  1  0
 29 58  1  0
 29 59  1  0
M  END
$$$$
