
     RDKit          3D

 50 52  0  0  0  0  0  0  0  0999 V2000
   -1.6411   -2.6331   -1.2368 C   0  0  0  0  0  0  0  0  0  0  0  0
   -2.7554   -2.0158   -0.3968 C   0  0  0  0  0  0  0  0  0  0  0  0
   -2.7902   -0.4734   -0.3846 C   0  0  0  0  0  0  0  0  0  0  0  0
   -3.9467    0.0438    0.4807 C   0  0  0  0  0  0  0  0  0  0  0  0
   -3.9425   -0.1810    1.8712 C   0  0  0  0  0  0  0  0  0  0  0  0
   -4.9881    0.2672    2.6819 C   0  0  0  0  0  0  0  0  0  0  0  0
   -6.0632    0.9475    2.1202 C   0  0  0  0  0  0  0  0  0  0  0  0
   -6.0924    1.1800    0.7487 C   0  0  0  0  0  0  0  0  0  0  0  0
   -5.0463    0.7321   -0.0638 C   0  0  0  0  0  0  0  0  0  0  0  0
   -2.8328    0.0637   -1.7306 N   0  0  0  0  0  0  0  0  0  0  0  0
   -1.7665    0.8795   -2.0154 C   0  0  0  0  0  0  0  0  0  0  0  0
   -1.6059    1.4379   -3.0878 O   0  0  0  0  0  0  0  0  0  0  0  0
   -0.9621    0.9415   -0.9250 N   0  0  0  0  0  0  0  0  0  0  0  0
    0.3142    1.6167   -0.8938 C   0  0  0  0  0  0  0  0  0  0  0  0
    1.4212    0.6680   -1.3730 C   0  0  0  0  0  0  0  0  0  0  0  0
    1.1623   -0.4694   -1.7754 O   0  0  0  0  0  0  0  0  0  0  0  0
    2.7279    1.1551   -1.3340 N   0  0  0  0  0  0  0  0  0  0  0  0
    3.0956    2.4361   -0.7465 C   0  0  0  0  0  0  0  0  0  0  0  0
    3.8199    0.2251   -1.6219 C   0  0  0  0  0  0  0  0  0  0  0  0
    4.4692   -0.3106   -0.3664 C   0  0  0  0  0  0  0  0  0  0  0  0
    3.7952   -1.2397    0.4398 C   0  0  0  0  0  0  0  0  0  0  0  0
    4.3849   -1.7243    1.6080 C   0  0  0  0  0  0  0  0  0  0  0  0
    5.6537   -1.2868    1.9824 C   0  0  0  0  0  0  0  0  0  0  0  0
    6.3340   -0.3642    1.1897 C   0  0  0  0  0  0  0  0  0  0  0  0
    5.7454    0.1231    0.0212 C   0  0  0  0  0  0  0  0  0  0  0  0
   -1.4341    0.1323    0.0710 C   0  0  0  0  0  0  0  0  0  0  0  0
   -0.8747   -0.0733    1.1422 O   0  0  0  0  0  0  0  0  0  0  0  0
   -1.7061   -2.3253   -2.2846 H   0  0  0  0  0  0  0  0  0  0  0  0
   -1.7162   -3.7252   -1.2073 H   0  0  0  0  0  0  0  0  0  0  0  0
   -0.6543   -2.3610   -0.8519 H   0  0  0  0  0  0  0  0  0  0  0  0
   -3.7137   -2.3958   -0.7755 H   0  0  0  0  0  0  0  0  0  0  0  0
   -2.6514   -2.4011    0.6253 H   0  0  0  0  0  0  0  0  0  0  0  0
   -3.1139   -0.7071    2.3449 H   0  0  0  0  0  0  0  0  0  0  0  0
   -4.9589    0.0849    3.7533 H   0  0  0  0  0  0  0  0  0  0  0  0
   -6.8764    1.2974    2.7505 H   0  0  0  0  0  0  0  0  0  0  0  0
   -6.9309    1.7130    0.3073 H   0  0  0  0  0  0  0  0  0  0  0  0
   -5.1111    0.9390   -1.1291 H   0  0  0  0  0  0  0  0  0  0  0  0
   -3.5292   -0.1494   -2.4300 H   0  0  0  0  0  0  0  0  0  0  0  0
    0.5240    1.9262    0.1346 H   0  0  0  0  0  0  0  0  0  0  0  0
    0.2737    2.4827   -1.5614 H   0  0  0  0  0  0  0  0  0  0  0  0
    3.2631    2.2991    0.3256 H   0  0  0  0  0  0  0  0  0  0  0  0
    4.0077    2.8095   -1.2212 H   0  0  0  0  0  0  0  0  0  0  0  0
    2.3092    3.1799   -0.8883 H   0  0  0  0  0  0  0  0  0  0  0  0
    4.5537    0.7546   -2.2419 H   0  0  0  0  0  0  0  0  0  0  0  0
    3.4684   -0.6187   -2.2271 H   0  0  0  0  0  0  0  0  0  0  0  0
    2.8029   -1.5900    0.1589 H   0  0  0  0  0  0  0  0  0  0  0  0
    3.8515   -2.4431    2.2247 H   0  0  0  0  0  0  0  0  0  0  0  0
    6.1118   -1.6659    2.8920 H   0  0  0  0  0  0  0  0  0  0  0  0
    7.3242   -0.0246    1.4821 H   0  0  0  0  0  0  0  0  0  0  0  0
    6.2904    0.8432   -0.5845 H   0  0  0  0  0  0  0  0  0  0  0  0
  1  2  1  0
  2  3  1  0
  3  4  1  0
  4  5  2  0
  5  6  1  0
  6  7  2  0
  7  8  1  0
  8  9  2  0
  3 10  1  0
 10 11  1  0
 11 12  2  0
 11 13  1  0
 13 14  1  0
 14 15  1  0
 15 16  2  0
 15 17  1  0
 17 18  1  0
 17 19  1  0
 19 20  1  0
 20 21  2  0
 21 22  1  0
 22 23  2  0
 23 24  1  0
 24 25  2  0
 13 26  1  0
 26 27  2  0
 26  3  1  0
  9  4  1  0
 25 20  1  0
  1 28  1  0
  1 29  1  0
  1 30  1  0
  2 31  1  0
  2 32  1  0
  5 33  1  0
  6 34  1  0
  7 35  1  0
  8 36  1  0
  9 37  1  0
 10 38  1  0
 14 39  1  0
 14 40  1  0
 18 41  1  0
 18 42  1  0
 18 43  1  0
 19 44  1  0
 19 45  1  0
 21 46  1  0
 22 47  1  0
 23 48  1  0
 24 49  1  0
 25 50  1  0
M  END
$$$$
