
     RDKit          3D

 37 40  0  0  0  0  0  0  0  0999 V2000
    6.0221    0.0831   -0.1226 C   0  0  0  0  0  0  0  0  0  0  0  0
    4.7651   -0.5305    0.1316 O   0  0  0  0  0  0  0  0  0  0  0  0
    3.6454    0.2016   -0.1628 C   0  0  0  0  0  0  0  0  0  0  0  0
    3.6286    1.4914   -0.6847 C   0  0  0  0  0  0  0  0  0  0  0  0
    2.4191    2.1485   -0.9347 C   0  0  0  0  0  0  0  0  0  0  0  0
    1.2311    1.4654   -0.6505 C   0  0  0  0  0  0  0  0  0  0  0  0
   -0.0679    1.8767   -0.7819 N   0  0  0  0  0  0  0  0  0  0  0  0
   -0.9551    0.9077   -0.3649 C   0  0  0  0  0  0  0  0  0  0  0  0
   -2.3625    0.9602   -0.3037 C   0  0  0  0  0  0  0  0  0  0  0  0
   -3.1308    2.1874   -0.7271 C   0  0  0  0  0  0  0  0  0  0  0  0
   -3.0328   -0.1875    0.2030 C   0  0  0  0  0  0  0  0  0  0  0  0
   -4.4361   -0.2192    0.3508 C   0  0  0  0  0  0  0  0  0  0  0  0
   -5.0629   -1.3441    0.8576 C   0  0  0  0  0  0  0  0  0  0  0  0
   -4.4038   -2.4460    1.2350 N   0  0  0  0  0  0  0  0  0  0  0  0
   -3.0578   -2.4108    1.0871 C   0  0  0  0  0  0  0  0  0  0  0  0
   -2.2998   -1.3381    0.5757 C   0  0  0  0  0  0  0  0  0  0  0  0
   -0.8727   -1.3802    0.4335 C   0  0  0  0  0  0  0  0  0  0  0  0
   -0.1214   -2.6477    0.7659 C   0  0  0  0  0  0  0  0  0  0  0  0
   -0.1959   -0.2026    0.0058 C   0  0  0  0  0  0  0  0  0  0  0  0
    1.1952    0.1694   -0.1455 C   0  0  0  0  0  0  0  0  0  0  0  0
    2.4369   -0.4575    0.1097 C   0  0  0  0  0  0  0  0  0  0  0  0
    6.1457    0.3036   -1.1880 H   0  0  0  0  0  0  0  0  0  0  0  0
    6.1522    0.9839    0.4864 H   0  0  0  0  0  0  0  0  0  0  0  0
    6.8044   -0.6268    0.1628 H   0  0  0  0  0  0  0  0  0  0  0  0
    4.5459    2.0271   -0.9061 H   0  0  0  0  0  0  0  0  0  0  0  0
    2.4111    3.1585   -1.3323 H   0  0  0  0  0  0  0  0  0  0  0  0
   -0.3352    2.7887   -1.1184 H   0  0  0  0  0  0  0  0  0  0  0  0
   -2.4792    2.9682   -1.1283 H   0  0  0  0  0  0  0  0  0  0  0  0
   -3.6625    2.6153    0.1290 H   0  0  0  0  0  0  0  0  0  0  0  0
   -3.8476    1.9340   -1.5151 H   0  0  0  0  0  0  0  0  0  0  0  0
   -5.0587    0.6268    0.0805 H   0  0  0  0  0  0  0  0  0  0  0  0
   -6.1415   -1.3795    0.9770 H   0  0  0  0  0  0  0  0  0  0  0  0
   -2.5839   -3.3277    1.4265 H   0  0  0  0  0  0  0  0  0  0  0  0
    0.0907   -2.6909    1.8380 H   0  0  0  0  0  0  0  0  0  0  0  0
   -0.6798   -3.5400    0.4672 H   0  0  0  0  0  0  0  0  0  0  0  0
    0.8147   -2.7138    0.2092 H   0  0  0  0  0  0  0  0  0  0  0  0
    2.4799   -1.4545    0.5342 H   0  0  0  0  0  0  0  0  0  0  0  0
  1  2  1  0
  2  3  1  0
  3  4  2  0
  4  5  1  0
  5  6  2  0
  6  7  1  0
  7  8  1  0
  8  9  2  0
  9 10  1  0
  9 11  1  0
 11 12  2  0
 12 13  1  0
 13 14  2  0
 14 15  1  0
 15 16  2  0
 16 17  1  0
 17 18  1  0
 17 19  2  0
 19 20  1  0
 20 21  2  0
 21  3  1  0
 20  6  1  0
 19  8  1  0
 16 11  1  0
  1 22  1  0
  1 23  1  0
  1 24  1  0
  4 25  1  0
  5 26  1  0
  7 27  1  0
 10 28  1  0
 10 29  1  0
 10 30  1  0
 12 31  1  0
 13 32  1  0
 15 33  1  0
 18 34  1  0
 18 35  1  0
 18 36  1  0
 21 37  1  0
M  END
$$$$
