
     RDKit          3D

 69 71  0  0  0  0  0  0  0  0999 V2000
   -7.0840    0.7091    1.1997 C   0  0  0  0  0  0  0  0  0  0  0  0
   -7.1008    1.1401   -0.2578 C   0  0  0  0  0  0  0  0  0  0  0  0
   -6.3994    2.4776   -0.5240 C   0  0  0  0  0  0  0  0  0  0  0  0
   -4.9488    2.4698   -0.2754 N   0  0  0  0  0  0  0  0  0  0  0  0
   -4.0789    2.3664   -1.4545 C   0  0  0  0  0  0  0  0  0  0  0  0
   -4.2191    1.0680   -2.2522 C   0  0  0  0  0  0  0  0  0  0  0  0
   -3.7820   -0.1677   -1.4791 C   0  0  0  0  0  0  0  0  0  0  0  0
   -4.5164    2.9175    0.9745 C   0  0  0  0  0  0  0  0  0  0  0  0
   -5.3226    3.2595    1.8501 O   0  0  0  0  0  0  0  0  0  0  0  0
   -3.0158    3.0241    1.2909 C   0  0  0  0  0  0  0  0  0  0  0  0
   -2.2862    1.7534    1.3678 N   0  0  0  0  0  0  0  0  0  0  0  0
   -1.1725    1.5804    0.5384 C   0  0  0  0  0  0  0  0  0  0  0  0
   -0.8117    2.4656   -0.2437 O   0  0  0  0  0  0  0  0  0  0  0  0
   -0.4812    0.3640    0.6162 N   0  0  0  0  0  0  0  0  0  0  0  0
    0.6490    0.1824   -0.2930 C   0  0  0  0  0  0  0  0  0  0  0  0
    1.9150    0.9125    0.1772 C   0  0  0  0  0  0  0  0  0  0  0  0
    2.6449    0.2394    1.3442 C   0  0  0  0  0  0  0  0  0  0  0  0
    3.4042   -1.0405    0.9755 C   0  0  0  0  0  0  0  0  0  0  0  0
    4.6008   -0.7720    0.0608 C   0  0  0  0  0  0  0  0  0  0  0  0
    5.4453   -2.0109   -0.2051 C   0  0  0  0  0  0  0  0  0  0  0  0
    5.0975   -3.1296    0.1508 O   0  0  0  0  0  0  0  0  0  0  0  0
    6.5981   -1.6838   -0.9011 N   0  0  0  0  0  0  0  0  0  0  0  0
    7.6194   -2.5506   -1.3425 C   0  0  0  0  0  0  0  0  0  0  0  0
    8.6962   -1.9703   -2.0285 C   0  0  0  0  0  0  0  0  0  0  0  0
    9.7488   -2.7584   -2.5030 C   0  0  0  0  0  0  0  0  0  0  0  0
    9.7349   -4.1357   -2.2968 C   0  0  0  0  0  0  0  0  0  0  0  0
    8.6698   -4.7208   -1.6152 C   0  0  0  0  0  0  0  0  0  0  0  0
    7.6163   -3.9316   -1.1391 C   0  0  0  0  0  0  0  0  0  0  0  0
   -0.7982   -0.6898    1.4823 C   0  0  0  0  0  0  0  0  0  0  0  0
   -0.1825   -1.7539    1.4897 O   0  0  0  0  0  0  0  0  0  0  0  0
   -1.9004   -0.3959    2.3532 C   0  0  0  0  0  0  0  0  0  0  0  0
   -2.4537   -1.4741    3.5436 S   0  0  0  0  0  0  0  0  0  0  0  0
   -3.6483   -0.3629    4.0573 C   0  0  0  0  0  0  0  0  0  0  0  0
   -3.6184    0.8030    3.3186 C   0  0  0  0  0  0  0  0  0  0  0  0
   -2.6100    0.7749    2.3114 C   0  0  0  0  0  0  0  0  0  0  0  0
   -7.6899   -0.1925    1.3337 H   0  0  0  0  0  0  0  0  0  0  0  0
   -6.0677    0.4754    1.5298 H   0  0  0  0  0  0  0  0  0  0  0  0
   -7.4913    1.4935    1.8462 H   0  0  0  0  0  0  0  0  0  0  0  0
   -6.6598    0.3485   -0.8675 H   0  0  0  0  0  0  0  0  0  0  0  0
   -8.1465    1.2360   -0.5782 H   0  0  0  0  0  0  0  0  0  0  0  0
   -6.8735    3.2626    0.0772 H   0  0  0  0  0  0  0  0  0  0  0  0
   -6.5653    2.7671   -1.5683 H   0  0  0  0  0  0  0  0  0  0  0  0
   -4.3370    3.2143   -2.1017 H   0  0  0  0  0  0  0  0  0  0  0  0
   -3.0368    2.5130   -1.1918 H   0  0  0  0  0  0  0  0  0  0  0  0
   -3.6034    1.1494   -3.1557 H   0  0  0  0  0  0  0  0  0  0  0  0
   -5.2520    0.9371   -2.5948 H   0  0  0  0  0  0  0  0  0  0  0  0
   -2.7119   -0.1328   -1.2501 H   0  0  0  0  0  0  0  0  0  0  0  0
   -3.9606   -1.0670   -2.0777 H   0  0  0  0  0  0  0  0  0  0  0  0
   -4.3319   -0.2743   -0.5399 H   0  0  0  0  0  0  0  0  0  0  0  0
   -2.9133    3.5085    2.2709 H   0  0  0  0  0  0  0  0  0  0  0  0
   -2.5616    3.7253    0.5807 H   0  0  0  0  0  0  0  0  0  0  0  0
    0.8494   -0.8810   -0.4556 H   0  0  0  0  0  0  0  0  0  0  0  0
    0.3606    0.5881   -1.2716 H   0  0  0  0  0  0  0  0  0  0  0  0
    2.5923    1.0141   -0.6748 H   0  0  0  0  0  0  0  0  0  0  0  0
    1.6631    1.9342    0.4793 H   0  0  0  0  0  0  0  0  0  0  0  0
    1.9359    0.0188    2.1494 H   0  0  0  0  0  0  0  0  0  0  0  0
    3.3606    0.9574    1.7628 H   0  0  0  0  0  0  0  0  0  0  0  0
    3.7653   -1.5010    1.9035 H   0  0  0  0  0  0  0  0  0  0  0  0
    2.7312   -1.7712    0.5137 H   0  0  0  0  0  0  0  0  0  0  0  0
    5.2441   -0.0088    0.5159 H   0  0  0  0  0  0  0  0  0  0  0  0
    4.2594   -0.4023   -0.9120 H   0  0  0  0  0  0  0  0  0  0  0  0
    6.7307   -0.7049   -1.1208 H   0  0  0  0  0  0  0  0  0  0  0  0
    8.7332   -0.8979   -2.2043 H   0  0  0  0  0  0  0  0  0  0  0  0
   10.5774   -2.2957   -3.0324 H   0  0  0  0  0  0  0  0  0  0  0  0
   10.5499   -4.7536   -2.6655 H   0  0  0  0  0  0  0  0  0  0  0  0
    8.6506   -5.7960   -1.4516 H   0  0  0  0  0  0  0  0  0  0  0  0
    6.8059   -4.4295   -0.6152 H   0  0  0  0  0  0  0  0  0  0  0  0
   -4.3135   -0.6135    4.8729 H   0  0  0  0  0  0  0  0  0  0  0  0
   -4.3031    1.6201    3.5103 H   0  0  0  0  0  0  0  0  0  0  0  0
  1  2  1  0
  2  3  1  0
  3  4  1  0
  4  5  1  0
  5  6  1  0
  6  7  1  0
  4  8  1  0
  8  9  2  0
  8 10  1  0
 10 11  1  0
 11 12  1  0
 12 13  2  0
 12 14  1  0
 14 15  1  0
 15 16  1  0
 16 17  1  0
 17 18  1  0
 18 19  1  0
 19 20  1  0
 20 21  2  0
 20 22  1  0
 22 23  1  0
 23 24  2  0
 24 25  1  0
 25 26  2  0
 26 27  1  0
 27 28  2  0
 14 29  1  0
 29 30  2  0
 29 31  1  0
 31 32  1  0
 32 33  1  0
 33 34  2  0
 34 35  1  0
 35 11  1  0
 28 23  1  0
 35 31  2  0
  1 36  1  0
  1 37  1  0
  1 38  1  0
  2 39  1  0
  2 40  1  0
  3 41  1  0
  3 42  1  0
  5 43  1  0
  5 44  1  0
  6 45  1  0
  6 46  1  0
  7 47  1  0
  7 48  1  0
  7 49  1  0
 10 50  1  0
 10 51  1  0
 15 52  1  0
 15 53  1  0
 16 54  1  0
 16 55  1  0
 17 56  1  0
 17 57  1  0
 18 58  1  0
 18 59  1  0
 19 60  1  0
 19 61  1  0
 22 62  1  0
 24 63  1  0
 25 64  1  0
 26 65  1  0
 27 66  1  0
 28 67  1  0
 33 68  1  0
 34 69  1  0
M  END
$$$$
