
     RDKit          3D

 50 50  0  0  0  0  0  0  0  0999 V2000
    7.9972    1.7691    2.2544 C   0  0  0  0  0  0  0  0  0  0  0  0
    6.7932    2.3033    1.9850 C   0  0  0  0  0  0  0  0  0  0  0  0
    6.3099    3.5403    2.6923 C   0  0  0  0  0  0  0  0  0  0  0  0
    5.8843    1.7304    0.9228 C   0  0  0  0  0  0  0  0  0  0  0  0
    4.5466    0.7781    1.6941 S   0  0  0  0  0  0  0  0  0  0  0  0
    3.6642    0.2922    0.2811 C   0  0  0  0  0  0  0  0  0  0  0  0
    3.9956    0.5836   -0.9611 N   0  0  0  0  0  0  0  0  0  0  0  0
    3.0373    0.0152   -1.7739 N   0  0  0  0  0  0  0  0  0  0  0  0
    2.1838   -0.5842   -0.9715 C   0  0  0  0  0  0  0  0  0  0  0  0
    0.9565   -1.3607   -1.2756 C   0  0  0  0  0  0  0  0  0  0  0  0
    0.6620   -1.4217   -2.7748 C   0  0  0  0  0  0  0  0  0  0  0  0
   -0.5103   -2.3360   -3.1533 C   0  0  0  0  0  0  0  0  0  0  0  0
   -1.8595   -1.9078   -2.5690 C   0  0  0  0  0  0  0  0  0  0  0  0
   -2.2390   -2.7029   -1.3194 C   0  0  0  0  0  0  0  0  0  0  0  0
   -3.4380   -2.1855   -0.7063 N   0  0  0  0  0  0  0  0  0  0  0  0
   -3.4257   -1.1142    0.1350 C   0  0  0  0  0  0  0  0  0  0  0  0
   -2.4197   -0.5283    0.5012 O   0  0  0  0  0  0  0  0  0  0  0  0
   -4.6991   -0.8154    0.4754 O   0  0  0  0  0  0  0  0  0  0  0  0
   -4.9854    0.2952    1.3643 C   0  0  0  0  0  0  0  0  0  0  0  0
   -4.5494    1.6286    0.7467 C   0  0  0  0  0  0  0  0  0  0  0  0
   -6.5153    0.2971    1.5060 C   0  0  0  0  0  0  0  0  0  0  0  0
   -4.3664    0.0760    2.7494 C   0  0  0  0  0  0  0  0  0  0  0  0
    2.5187   -0.4572    0.3488 O   0  0  0  0  0  0  0  0  0  0  0  0
    8.3566    0.8849    1.7358 H   0  0  0  0  0  0  0  0  0  0  0  0
    8.6538    2.1955    3.0072 H   0  0  0  0  0  0  0  0  0  0  0  0
    5.3919    3.3367    3.2520 H   0  0  0  0  0  0  0  0  0  0  0  0
    6.1069    4.3359    1.9678 H   0  0  0  0  0  0  0  0  0  0  0  0
    7.0513    3.9220    3.4024 H   0  0  0  0  0  0  0  0  0  0  0  0
    6.4478    1.0721    0.2516 H   0  0  0  0  0  0  0  0  0  0  0  0
    5.4716    2.5426    0.3140 H   0  0  0  0  0  0  0  0  0  0  0  0
    1.0760   -2.3764   -0.8810 H   0  0  0  0  0  0  0  0  0  0  0  0
    0.1173   -0.8954   -0.7481 H   0  0  0  0  0  0  0  0  0  0  0  0
    1.5522   -1.7806   -3.3082 H   0  0  0  0  0  0  0  0  0  0  0  0
    0.4674   -0.4093   -3.1526 H   0  0  0  0  0  0  0  0  0  0  0  0
   -0.5930   -2.3147   -4.2477 H   0  0  0  0  0  0  0  0  0  0  0  0
   -0.2795   -3.3734   -2.8833 H   0  0  0  0  0  0  0  0  0  0  0  0
   -2.6394   -2.0765   -3.3233 H   0  0  0  0  0  0  0  0  0  0  0  0
   -1.8654   -0.8301   -2.3672 H   0  0  0  0  0  0  0  0  0  0  0  0
   -2.4318   -3.7495   -1.5778 H   0  0  0  0  0  0  0  0  0  0  0  0
   -1.4351   -2.6824   -0.5776 H   0  0  0  0  0  0  0  0  0  0  0  0
   -4.3496   -2.5188   -0.9867 H   0  0  0  0  0  0  0  0  0  0  0  0
   -4.9374    1.7298   -0.2731 H   0  0  0  0  0  0  0  0  0  0  0  0
   -4.9039    2.4778    1.3406 H   0  0  0  0  0  0  0  0  0  0  0  0
   -3.4605    1.7105    0.6769 H   0  0  0  0  0  0  0  0  0  0  0  0
   -6.9969    0.4186    0.5288 H   0  0  0  0  0  0  0  0  0  0  0  0
   -6.8623    1.1004    2.1643 H   0  0  0  0  0  0  0  0  0  0  0  0
   -6.8706   -0.6587    1.9089 H   0  0  0  0  0  0  0  0  0  0  0  0
   -4.7184    0.8258    3.4663 H   0  0  0  0  0  0  0  0  0  0  0  0
   -4.6164   -0.9192    3.1345 H   0  0  0  0  0  0  0  0  0  0  0  0
   -3.2742    0.1370    2.7239 H   0  0  0  0  0  0  0  0  0  0  0  0
  1  2  2  0
  2  3  1  0
  2  4  1  0
  4  5  1  0
  5  6  1  0
  6  7  2  0
  7  8  1  0
  8  9  2  0
  9 10  1  0
 10 11  1  0
 11 12  1  0
 12 13  1  0
 13 14  1  0
 14 15  1  0
 15 16  1  0
 16 17  2  0
 16 18  1  0
 18 19  1  0
 19 20  1  0
 19 21  1  0
 19 22  1  0
  9 23  1  0
 23  6  1  0
  1 24  1  0
  1 25  1  0
  3 26  1  0
  3 27  1  0
  3 28  1  0
  4 29  1  0
  4 30  1  0
 10 31  1  0
 10 32  1  0
 11 33  1  0
 11 34  1  0
 12 35  1  0
 12 36  1  0
 13 37  1  0
 13 38  1  0
 14 39  1  0
 14 40  1  0
 15 41  1  0
 20 42  1  0
 20 43  1  0
 20 44  1  0
 21 45  1  0
 21 46  1  0
 21 47  1  0
 22 48  1  0
 22 49  1  0
 22 50  1  0
M  END
$$$$
