
     RDKit          3D

 47 50  0  0  0  0  0  0  0  0999 V2000
   -5.5208    1.2037    1.1183 C   0  0  0  0  0  0  0  0  0  0  0  0
   -4.2700    1.4101    0.3948 N   0  0  0  0  0  0  0  0  0  0  0  0
   -3.8128    0.1638   -0.2442 C   0  0  0  0  0  0  0  0  0  0  0  0
   -2.4410    0.3280   -0.9421 C   0  0  0  0  0  0  0  0  0  0  0  0
   -1.3664    0.8688   -0.0825 N   0  0  0  0  0  0  0  0  0  0  0  0
   -0.8840   -0.0925    0.9177 C   0  0  0  0  0  0  0  0  0  0  0  0
   -0.0825   -1.2245    0.3146 C   0  0  0  0  0  0  0  0  0  0  0  0
   -0.5885   -2.5247    0.3169 C   0  0  0  0  0  0  0  0  0  0  0  0
    0.1523   -3.5713   -0.2410 C   0  0  0  0  0  0  0  0  0  0  0  0
   -0.5694   -5.1474   -0.1906 Cl  0  0  0  0  0  0  0  0  0  0  0  0
    1.4263   -3.3498   -0.8230 C   0  0  0  0  0  0  0  0  0  0  0  0
    2.2206   -4.3629   -1.4072 C   0  0  0  0  0  0  0  0  0  0  0  0
    3.4589   -4.0655   -1.9626 C   0  0  0  0  0  0  0  0  0  0  0  0
    3.8806   -2.7554   -1.9246 C   0  0  0  0  0  0  0  0  0  0  0  0
    3.1587   -1.7557   -1.3792 N   0  0  0  0  0  0  0  0  0  0  0  0
    1.9536   -2.0415   -0.8333 C   0  0  0  0  0  0  0  0  0  0  0  0
    1.1865   -1.0216   -0.2534 C   0  0  0  0  0  0  0  0  0  0  0  0
    1.7015    0.2879   -0.2933 O   0  0  0  0  0  0  0  0  0  0  0  0
    2.6227    0.5365    0.7168 C   0  0  0  0  0  0  0  0  0  0  0  0
    2.8480   -0.2151    1.6629 O   0  0  0  0  0  0  0  0  0  0  0  0
    3.2534    1.8370    0.5447 C   0  0  0  0  0  0  0  0  0  0  0  0
    4.2232    2.3924    1.3628 C   0  0  0  0  0  0  0  0  0  0  0  0
    4.6377    3.6847    0.9296 C   0  0  0  0  0  0  0  0  0  0  0  0
    3.9714    4.0807   -0.2073 C   0  0  0  0  0  0  0  0  0  0  0  0
    2.8572    2.8998   -0.7412 S   0  0  0  0  0  0  0  0  0  0  0  0
   -1.8650    2.1040    0.5594 C   0  0  0  0  0  0  0  0  0  0  0  0
   -3.2259    1.9533    1.2807 C   0  0  0  0  0  0  0  0  0  0  0  0
   -6.3035    0.8486    0.4390 H   0  0  0  0  0  0  0  0  0  0  0  0
   -5.8782    2.1474    1.5449 H   0  0  0  0  0  0  0  0  0  0  0  0
   -5.4144    0.4766    1.9314 H   0  0  0  0  0  0  0  0  0  0  0  0
   -3.7528   -0.6484    0.4915 H   0  0  0  0  0  0  0  0  0  0  0  0
   -4.5447   -0.1425   -1.0015 H   0  0  0  0  0  0  0  0  0  0  0  0
   -2.1422   -0.6259   -1.3913 H   0  0  0  0  0  0  0  0  0  0  0  0
   -2.5654    1.0141   -1.7912 H   0  0  0  0  0  0  0  0  0  0  0  0
   -1.7028   -0.4964    1.5254 H   0  0  0  0  0  0  0  0  0  0  0  0
   -0.2216    0.4135    1.6330 H   0  0  0  0  0  0  0  0  0  0  0  0
   -1.5651   -2.7277    0.7512 H   0  0  0  0  0  0  0  0  0  0  0  0
    1.8795   -5.3951   -1.4338 H   0  0  0  0  0  0  0  0  0  0  0  0
    4.0740   -4.8368   -2.4115 H   0  0  0  0  0  0  0  0  0  0  0  0
    4.8386   -2.4600   -2.3427 H   0  0  0  0  0  0  0  0  0  0  0  0
    4.6167    1.8829    2.2357 H   0  0  0  0  0  0  0  0  0  0  0  0
    5.3863    4.2905    1.4255 H   0  0  0  0  0  0  0  0  0  0  0  0
    4.0841    5.0072   -0.7537 H   0  0  0  0  0  0  0  0  0  0  0  0
   -1.1177    2.4954    1.2609 H   0  0  0  0  0  0  0  0  0  0  0  0
   -1.9638    2.8736   -0.2181 H   0  0  0  0  0  0  0  0  0  0  0  0
   -3.1002    1.3165    2.1658 H   0  0  0  0  0  0  0  0  0  0  0  0
   -3.5334    2.9439    1.6373 H   0  0  0  0  0  0  0  0  0  0  0  0
  1  2  1  0
  2  3  1  0
  3  4  1  0
  4  5  1  0
  5  6  1  0
  6  7  1  0
  7  8  2  0
  8  9  1  0
  9 10  1  0
  9 11  2  0
 11 12  1  0
 12 13  2  0
 13 14  1  0
 14 15  2  0
 15 16  1  0
 16 17  2  0
 17 18  1  0
 18 19  1  0
 19 20  2  0
 19 21  1  0
 21 22  2  0
 22 23  1  0
 23 24  2  0
 24 25  1  0
  5 26  1  0
 26 27  1  0
 27  2  1  0
 17  7  1  0
 25 21  1  0
 16 11  1  0
  1 28  1  0
  1 29  1  0
  1 30  1  0
  3 31  1  0
  3 32  1  0
  4 33  1  0
  4 34  1  0
  6 35  1  0
  6 36  1  0
  8 37  1  0
 12 38  1  0
 13 39  1  0
 14 40  1  0
 22 41  1  0
 23 42  1  0
 24 43  1  0
 26 44  1  0
 26 45  1  0
 27 46  1  0
 27 47  1  0
M  END
$$$$
