
     RDKit          3D

 53 56  0  0  0  0  0  0  0  0999 V2000
    8.4770   -1.0727    1.8776 C   0  0  0  0  0  0  0  0  0  0  0  0
    7.2103   -1.0875    1.0409 C   0  0  0  0  0  0  0  0  0  0  0  0
    6.2937   -0.1569    1.6142 O   0  0  0  0  0  0  0  0  0  0  0  0
    5.0857   -0.0113    0.9917 C   0  0  0  0  0  0  0  0  0  0  0  0
    4.6519   -0.7033   -0.1350 C   0  0  0  0  0  0  0  0  0  0  0  0
    3.3802   -0.4513   -0.6690 C   0  0  0  0  0  0  0  0  0  0  0  0
    2.5057    0.4899   -0.0947 C   0  0  0  0  0  0  0  0  0  0  0  0
    1.1669    0.7295   -0.6750 C   0  0  0  0  0  0  0  0  0  0  0  0
    0.0756    1.1210    0.0804 C   0  0  0  0  0  0  0  0  0  0  0  0
   -1.1439    1.3093   -0.5681 C   0  0  0  0  0  0  0  0  0  0  0  0
   -2.2854    1.7081    0.2758 C   0  0  0  0  0  0  0  0  0  0  0  0
   -2.2702    2.8418    0.7470 O   0  0  0  0  0  0  0  0  0  0  0  0
   -3.3041    0.7826    0.5012 N   0  0  0  0  0  0  0  0  0  0  0  0
   -3.1227   -0.6662    0.3345 C   0  0  0  0  0  0  0  0  0  0  0  0
   -4.4592   -1.4148    0.1659 C   0  0  0  0  0  0  0  0  0  0  0  0
   -5.4910   -1.0896    1.1697 N   0  0  0  0  0  0  0  0  0  0  0  0
   -5.1782   -1.6605    2.4780 C   0  0  0  0  0  0  0  0  0  0  0  0
   -5.6603    0.3763    1.2377 C   0  0  0  0  0  0  0  0  0  0  0  0
   -4.3591    1.1754    1.4375 C   0  0  0  0  0  0  0  0  0  0  0  0
   -1.2710    1.1520   -1.9620 C   0  0  0  0  0  0  0  0  0  0  0  0
   -2.4618    1.3775   -2.6975 C   0  0  0  0  0  0  0  0  0  0  0  0
   -2.4985    1.1827   -4.0761 C   0  0  0  0  0  0  0  0  0  0  0  0
   -1.3512    0.7659   -4.7360 C   0  0  0  0  0  0  0  0  0  0  0  0
   -0.1748    0.5522   -4.0129 C   0  0  0  0  0  0  0  0  0  0  0  0
   -0.1108    0.7412   -2.6385 C   0  0  0  0  0  0  0  0  0  0  0  0
    1.0594    0.5220   -2.0127 N   0  0  0  0  0  0  0  0  0  0  0  0
    2.9694    1.1832    1.0360 C   0  0  0  0  0  0  0  0  0  0  0  0
    4.2390    0.9327    1.5714 C   0  0  0  0  0  0  0  0  0  0  0  0
    9.2162   -1.7730    1.4786 H   0  0  0  0  0  0  0  0  0  0  0  0
    8.9148   -0.0691    1.8966 H   0  0  0  0  0  0  0  0  0  0  0  0
    8.2568   -1.3440    2.9154 H   0  0  0  0  0  0  0  0  0  0  0  0
    6.7849   -2.0976    1.0543 H   0  0  0  0  0  0  0  0  0  0  0  0
    7.4570   -0.7957    0.0135 H   0  0  0  0  0  0  0  0  0  0  0  0
    5.2715   -1.4438   -0.6290 H   0  0  0  0  0  0  0  0  0  0  0  0
    3.0686   -1.0057   -1.5538 H   0  0  0  0  0  0  0  0  0  0  0  0
    0.1459    1.2666    1.1529 H   0  0  0  0  0  0  0  0  0  0  0  0
   -2.5882   -1.0260    1.2218 H   0  0  0  0  0  0  0  0  0  0  0  0
   -2.4867   -0.8819   -0.5273 H   0  0  0  0  0  0  0  0  0  0  0  0
   -4.2770   -2.4962    0.1462 H   0  0  0  0  0  0  0  0  0  0  0  0
   -4.8692   -1.1665   -0.8222 H   0  0  0  0  0  0  0  0  0  0  0  0
   -4.2420   -1.2857    2.9035 H   0  0  0  0  0  0  0  0  0  0  0  0
   -5.9842   -1.4463    3.1886 H   0  0  0  0  0  0  0  0  0  0  0  0
   -5.1069   -2.7517    2.4089 H   0  0  0  0  0  0  0  0  0  0  0  0
   -6.1207    0.6990    0.2944 H   0  0  0  0  0  0  0  0  0  0  0  0
   -6.3805    0.6391    2.0221 H   0  0  0  0  0  0  0  0  0  0  0  0
   -4.5730    2.2443    1.3237 H   0  0  0  0  0  0  0  0  0  0  0  0
   -3.9667    1.0299    2.4511 H   0  0  0  0  0  0  0  0  0  0  0  0
   -3.3679    1.7140   -2.1965 H   0  0  0  0  0  0  0  0  0  0  0  0
   -3.4167    1.3610   -4.6300 H   0  0  0  0  0  0  0  0  0  0  0  0
   -1.3620    0.6127   -5.8121 H   0  0  0  0  0  0  0  0  0  0  0  0
    0.7225    0.2341   -4.5396 H   0  0  0  0  0  0  0  0  0  0  0  0
    2.3592    1.9480    1.5113 H   0  0  0  0  0  0  0  0  0  0  0  0
    4.5719    1.4874    2.4456 H   0  0  0  0  0  0  0  0  0  0  0  0
  1  2  1  0
  2  3  1  0
  3  4  1  0
  4  5  2  0
  5  6  1  0
  6  7  2  0
  7  8  1  0
  8  9  2  0
  9 10  1  0
 10 11  1  0
 11 12  2  0
 11 13  1  0
 13 14  1  0
 14 15  1  0
 15 16  1  0
 16 17  1  0
 16 18  1  0
 18 19  1  0
 10 20  2  0
 20 21  1  0
 21 22  2  0
 22 23  1  0
 23 24  2  0
 24 25  1  0
 25 26  2  0
  7 27  1  0
 27 28  2  0
 28  4  1  0
 26  8  1  0
 19 13  1  0
 25 20  1  0
  1 29  1  0
  1 30  1  0
  1 31  1  0
  2 32  1  0
  2 33  1  0
  5 34  1  0
  6 35  1  0
  9 36  1  0
 14 37  1  0
 14 38  1  0
 15 39  1  0
 15 40  1  0
 17 41  1  0
 17 42  1  0
 17 43  1  0
 18 44  1  0
 18 45  1  0
 19 46  1  0
 19 47  1  0
 21 48  1  0
 22 49  1  0
 23 50  1  0
 24 51  1  0
 27 52  1  0
 28 53  1  0
M  END
$$$$
