
     RDKit          3D

 56 59  0  0  0  0  0  0  0  0999 V2000
    1.7523    2.7700   -1.0640 C   0  0  0  0  0  0  0  0  0  0  0  0
    2.3732    1.3960   -0.8050 C   0  0  0  0  0  0  0  0  0  0  0  0
    3.8470    1.5358   -0.3963 C   0  0  0  0  0  0  0  0  0  0  0  0
    4.5441    0.1768   -0.3050 C   0  0  0  0  0  0  0  0  0  0  0  0
    6.0252    0.3214   -0.0602 C   0  0  0  0  0  0  0  0  0  0  0  0
    6.9205    0.3729   -1.1392 C   0  0  0  0  0  0  0  0  0  0  0  0
    8.2897    0.5013   -0.9149 C   0  0  0  0  0  0  0  0  0  0  0  0
    8.7784    0.5846    0.3876 C   0  0  0  0  0  0  0  0  0  0  0  0
    7.8955    0.5464    1.4665 C   0  0  0  0  0  0  0  0  0  0  0  0
    6.5254    0.4198    1.2444 C   0  0  0  0  0  0  0  0  0  0  0  0
    1.6107    0.7007    0.2281 N   0  0  0  0  0  0  0  0  0  0  0  0
    0.5272   -0.0950   -0.0966 C   0  0  0  0  0  0  0  0  0  0  0  0
    0.2258   -0.3816   -1.2530 O   0  0  0  0  0  0  0  0  0  0  0  0
   -0.2378   -0.6287    1.1162 C   0  0  0  0  0  0  0  0  0  0  0  0
   -1.5848   -0.9912    0.8273 O   0  0  0  0  0  0  0  0  0  0  0  0
   -2.4164    0.0685    0.6708 C   0  0  0  0  0  0  0  0  0  0  0  0
   -2.1374    1.2472    0.8057 O   0  0  0  0  0  0  0  0  0  0  0  0
   -3.7534   -0.4579    0.3478 C   0  0  0  0  0  0  0  0  0  0  0  0
   -4.0541   -0.7839   -1.0034 C   0  0  0  0  0  0  0  0  0  0  0  0
   -3.1718   -0.5854   -2.0934 C   0  0  0  0  0  0  0  0  0  0  0  0
   -3.5256   -0.9310   -3.3995 C   0  0  0  0  0  0  0  0  0  0  0  0
   -4.7709   -1.4846   -3.6521 C   0  0  0  0  0  0  0  0  0  0  0  0
   -5.6618   -1.6900   -2.5978 C   0  0  0  0  0  0  0  0  0  0  0  0
   -5.3181   -1.3461   -1.2785 C   0  0  0  0  0  0  0  0  0  0  0  0
   -6.2250   -1.5651   -0.2310 C   0  0  0  0  0  0  0  0  0  0  0  0
   -5.9258   -1.2253    1.0972 C   0  0  0  0  0  0  0  0  0  0  0  0
   -6.8644   -1.4652    2.1172 C   0  0  0  0  0  0  0  0  0  0  0  0
   -6.5902   -1.1277    3.4412 C   0  0  0  0  0  0  0  0  0  0  0  0
   -5.3734   -0.5394    3.7624 C   0  0  0  0  0  0  0  0  0  0  0  0
   -4.4257   -0.3034    2.7597 C   0  0  0  0  0  0  0  0  0  0  0  0
   -4.6758   -0.6474    1.4090 C   0  0  0  0  0  0  0  0  0  0  0  0
    2.2867    3.2991   -1.8624 H   0  0  0  0  0  0  0  0  0  0  0  0
    0.7055    2.6768   -1.3651 H   0  0  0  0  0  0  0  0  0  0  0  0
    1.7801    3.3934   -0.1610 H   0  0  0  0  0  0  0  0  0  0  0  0
    2.3176    0.8180   -1.7363 H   0  0  0  0  0  0  0  0  0  0  0  0
    3.9274    2.0538    0.5664 H   0  0  0  0  0  0  0  0  0  0  0  0
    4.3632    2.1614   -1.1331 H   0  0  0  0  0  0  0  0  0  0  0  0
    4.3853   -0.3949   -1.2279 H   0  0  0  0  0  0  0  0  0  0  0  0
    4.1047   -0.4248    0.4984 H   0  0  0  0  0  0  0  0  0  0  0  0
    6.5536    0.3061   -2.1614 H   0  0  0  0  0  0  0  0  0  0  0  0
    8.9756    0.5335   -1.7574 H   0  0  0  0  0  0  0  0  0  0  0  0
    9.8471    0.6807    0.5612 H   0  0  0  0  0  0  0  0  0  0  0  0
    8.2774    0.6130    2.4816 H   0  0  0  0  0  0  0  0  0  0  0  0
    5.8497    0.3915    2.0964 H   0  0  0  0  0  0  0  0  0  0  0  0
    1.6330    1.1031    1.1591 H   0  0  0  0  0  0  0  0  0  0  0  0
    0.2826   -1.5322    1.4463 H   0  0  0  0  0  0  0  0  0  0  0  0
   -0.2073    0.0831    1.9506 H   0  0  0  0  0  0  0  0  0  0  0  0
   -2.1873   -0.1488   -1.9405 H   0  0  0  0  0  0  0  0  0  0  0  0
   -2.8213   -0.7678   -4.2155 H   0  0  0  0  0  0  0  0  0  0  0  0
   -5.0521   -1.7562   -4.6675 H   0  0  0  0  0  0  0  0  0  0  0  0
   -6.6353   -2.1241   -2.8183 H   0  0  0  0  0  0  0  0  0  0  0  0
   -7.1934   -2.0112   -0.4567 H   0  0  0  0  0  0  0  0  0  0  0  0
   -7.8255   -1.9224    1.8868 H   0  0  0  0  0  0  0  0  0  0  0  0
   -7.3254   -1.3270    4.2179 H   0  0  0  0  0  0  0  0  0  0  0  0
   -5.1600   -0.2626    4.7906 H   0  0  0  0  0  0  0  0  0  0  0  0
   -3.4846    0.1657    3.0480 H   0  0  0  0  0  0  0  0  0  0  0  0
  1  2  1  0
  2  3  1  0
  3  4  1  0
  4  5  1  0
  5  6  2  0
  6  7  1  0
  7  8  2  0
  8  9  1  0
  9 10  2  0
  2 11  1  0
 11 12  1  0
 12 13  2  0
 12 14  1  0
 14 15  1  0
 15 16  1  0
 16 17  2  0
 16 18  1  0
 18 19  1  0
 19 20  2  0
 20 21  1  0
 21 22  2  0
 22 23  1  0
 23 24  2  0
 24 25  1  0
 25 26  2  0
 26 27  1  0
 27 28  2  0
 28 29  1  0
 29 30  2  0
 30 31  1  0
 10  5  1  0
 31 18  2  0
 24 19  1  0
 31 26  1  0
  1 32  1  0
  1 33  1  0
  1 34  1  0
  2 35  1  0
  3 36  1  0
  3 37  1  0
  4 38  1  0
  4 39  1  0
  6 40  1  0
  7 41  1  0
  8 42  1  0
  9 43  1  0
 10 44  1  0
 11 45  1  0
 14 46  1  0
 14 47  1  0
 20 48  1  0
 21 49  1  0
 22 50  1  0
 23 51  1  0
 25 52  1  0
 27 53  1  0
 28 54  1  0
 29 55  1  0
 30 56  1  0
M  END
$$$$
