
     RDKit          3D

 32 34  0  0  0  0  0  0  0  0999 V2000
    4.6798   -0.5226    1.4191 C   0  0  0  0  0  0  0  0  0  0  0  0
    3.6835   -0.2203    0.3372 C   0  0  0  0  0  0  0  0  0  0  0  0
    4.0879    0.4497   -0.8276 C   0  0  0  0  0  0  0  0  0  0  0  0
    3.1813    0.7727   -1.8458 C   0  0  0  0  0  0  0  0  0  0  0  0
    1.8518    0.4058   -1.6373 C   0  0  0  0  0  0  0  0  0  0  0  0
    0.7212    0.5544   -2.3991 N   0  0  0  0  0  0  0  0  0  0  0  0
   -0.3534    0.0200   -1.7114 C   0  0  0  0  0  0  0  0  0  0  0  0
   -1.6507    0.0490   -2.3086 C   0  0  0  0  0  0  0  0  0  0  0  0
   -1.7584    0.0386   -3.7367 C   0  0  0  0  0  0  0  0  0  0  0  0
   -1.8013    0.0724   -4.8957 N   0  0  0  0  0  0  0  0  0  0  0  0
   -2.8032    0.0396   -1.6082 C   0  0  0  0  0  0  0  0  0  0  0  0
   -2.9791    0.0915   -0.1959 C   0  0  0  0  0  0  0  0  0  0  0  0
   -2.2724    0.7436    0.8148 C   0  0  0  0  0  0  0  0  0  0  0  0
   -2.9050    0.4752    2.0549 C   0  0  0  0  0  0  0  0  0  0  0  0
   -3.9843   -0.3040    1.7364 C   0  0  0  0  0  0  0  0  0  0  0  0
   -5.0083   -0.8872    2.5426 N   0  0  0  0  0  4  0  0  0  0  0  0
   -5.8896   -1.5454    1.9752 O   0  0  0  0  0  0  0  0  0  0  0  0
   -4.9325   -0.6770    3.7613 O   0  0  0  0  0  1  0  0  0  0  0  0
   -4.0625   -0.5274    0.4019 O   0  0  0  0  0  0  0  0  0  0  0  0
    0.0595   -0.4730   -0.5576 N   0  0  0  0  0  0  0  0  0  0  0  0
    1.4111   -0.2439   -0.4949 C   0  0  0  0  0  0  0  0  0  0  0  0
    2.3308   -0.5610    0.5149 C   0  0  0  0  0  0  0  0  0  0  0  0
    4.7462    0.3216    2.1123 H   0  0  0  0  0  0  0  0  0  0  0  0
    4.3898   -1.4182    1.9785 H   0  0  0  0  0  0  0  0  0  0  0  0
    5.6712   -0.7122    0.9944 H   0  0  0  0  0  0  0  0  0  0  0  0
    5.1338    0.7271   -0.9542 H   0  0  0  0  0  0  0  0  0  0  0  0
    3.5065    1.2832   -2.7459 H   0  0  0  0  0  0  0  0  0  0  0  0
    0.6943    0.9870   -3.3122 H   0  0  0  0  0  0  0  0  0  0  0  0
   -3.7415   -0.0250   -2.1600 H   0  0  0  0  0  0  0  0  0  0  0  0
   -1.3817    1.3422    0.6738 H   0  0  0  0  0  0  0  0  0  0  0  0
   -2.6117    0.8092    3.0404 H   0  0  0  0  0  0  0  0  0  0  0  0
    1.9868   -1.0655    1.4115 H   0  0  0  0  0  0  0  0  0  0  0  0
  1  2  1  0
  2  3  2  0
  3  4  1  0
  4  5  2  0
  5  6  1  0
  6  7  1  0
  7  8  1  0
  8  9  1  0
  9 10  3  0
  8 11  2  3
 11 12  1  0
 12 13  2  0
 13 14  1  0
 14 15  2  0
 15 16  1  0
 16 17  2  0
 16 18  1  0
 15 19  1  0
  7 20  2  0
 20 21  1  0
 21 22  2  0
 22  2  1  0
 21  5  1  0
 19 12  1  0
  1 23  1  0
  1 24  1  0
  1 25  1  0
  3 26  1  0
  4 27  1  0
  6 28  1  0
 11 29  1  0
 13 30  1  0
 14 31  1  0
 22 32  1  0
M  CHG  2  16   1  18  -1
M  END
$$$$
