
     RDKit          3D

 47 49  0  0  0  0  0  0  0  0999 V2000
   -7.6701    2.7854   -0.0234 C   0  0  0  0  0  0  0  0  0  0  0  0
   -7.0501    1.8094   -0.8477 O   0  0  0  0  0  0  0  0  0  0  0  0
   -5.8973    1.2239   -0.3861 C   0  0  0  0  0  0  0  0  0  0  0  0
   -5.2928    1.5258    0.8381 C   0  0  0  0  0  0  0  0  0  0  0  0
   -4.1161    0.8782    1.2245 C   0  0  0  0  0  0  0  0  0  0  0  0
   -3.5267   -0.0745    0.3909 C   0  0  0  0  0  0  0  0  0  0  0  0
   -2.3042   -0.7532    0.8365 C   0  0  0  0  0  0  0  0  0  0  0  0
   -1.1105   -0.7190    0.2285 C   0  0  0  0  0  0  0  0  0  0  0  0
   -0.6692    0.1190   -1.2028 S   0  0  0  0  0  0  0  0  0  0  0  0
    1.0013   -0.4272   -1.1224 C   0  0  0  0  0  0  0  0  0  0  0  0
    2.1420    0.0495   -2.2424 S   0  0  0  0  0  0  0  0  0  0  0  0
    1.1707   -1.2544   -0.0312 N   0  0  0  0  0  0  0  0  0  0  0  0
    2.4404   -1.8788    0.3557 C   0  0  0  0  0  0  0  0  0  0  0  0
    3.2348   -0.9966    1.3114 C   0  0  0  0  0  0  0  0  0  0  0  0
    4.5940   -1.6039    1.5787 C   0  0  0  0  0  0  0  0  0  0  0  0
    4.8009   -2.8099    1.4979 O   0  0  0  0  0  0  0  0  0  0  0  0
    5.5349   -0.6969    1.9896 N   0  0  0  0  0  0  0  0  0  0  0  0
    6.3894   -0.2860    1.1158 C   0  0  0  0  0  0  0  0  0  0  0  0
    7.3869    0.5975    1.4099 N   0  0  0  0  0  0  0  0  0  0  0  0
    7.9922    1.2580    0.2737 C   0  0  0  0  0  0  0  0  0  0  0  0
    7.9634    0.2470   -0.8679 C   0  0  0  0  0  0  0  0  0  0  0  0
    6.4212   -0.6851   -0.5992 S   0  0  0  0  0  0  0  0  0  0  0  0
    0.0680   -1.4334    0.7862 C   0  0  0  0  0  0  0  0  0  0  0  0
    0.0442   -2.0630    1.8348 O   0  0  0  0  0  0  0  0  0  0  0  0
   -4.1363   -0.3905   -0.8300 C   0  0  0  0  0  0  0  0  0  0  0  0
   -5.3117    0.2583   -1.2297 C   0  0  0  0  0  0  0  0  0  0  0  0
   -5.9688    0.0118   -2.4107 O   0  0  0  0  0  0  0  0  0  0  0  0
   -5.3357   -0.8450   -3.3500 C   0  0  0  0  0  0  0  0  0  0  0  0
   -7.0127    3.6472    0.1315 H   0  0  0  0  0  0  0  0  0  0  0  0
   -8.5661    3.1406   -0.5417 H   0  0  0  0  0  0  0  0  0  0  0  0
   -7.9883    2.3526    0.9307 H   0  0  0  0  0  0  0  0  0  0  0  0
   -5.7118    2.2609    1.5168 H   0  0  0  0  0  0  0  0  0  0  0  0
   -3.6648    1.1296    2.1820 H   0  0  0  0  0  0  0  0  0  0  0  0
   -2.4145   -1.3105    1.7665 H   0  0  0  0  0  0  0  0  0  0  0  0
    3.0271   -2.1034   -0.5416 H   0  0  0  0  0  0  0  0  0  0  0  0
    2.2222   -2.8419    0.8341 H   0  0  0  0  0  0  0  0  0  0  0  0
    2.7123   -0.8841    2.2677 H   0  0  0  0  0  0  0  0  0  0  0  0
    3.3652    0.0042    0.8848 H   0  0  0  0  0  0  0  0  0  0  0  0
    7.2779    1.1099    2.2766 H   0  0  0  0  0  0  0  0  0  0  0  0
    9.0161    1.5711    0.4994 H   0  0  0  0  0  0  0  0  0  0  0  0
    7.4131    2.1523    0.0151 H   0  0  0  0  0  0  0  0  0  0  0  0
    7.9813    0.7281   -1.8491 H   0  0  0  0  0  0  0  0  0  0  0  0
    8.8052   -0.4487   -0.7927 H   0  0  0  0  0  0  0  0  0  0  0  0
   -3.6827   -1.1534   -1.4539 H   0  0  0  0  0  0  0  0  0  0  0  0
   -4.3480   -0.4656   -3.6327 H   0  0  0  0  0  0  0  0  0  0  0  0
   -5.9538   -0.8664   -4.2527 H   0  0  0  0  0  0  0  0  0  0  0  0
   -5.2726   -1.8688   -2.9671 H   0  0  0  0  0  0  0  0  0  0  0  0
  1  2  1  0
  2  3  1  0
  3  4  2  0
  4  5  1  0
  5  6  2  0
  6  7  1  0
  7  8  2  3
  8  9  1  0
  9 10  1  0
 10 11  2  0
 10 12  1  0
 12 13  1  0
 13 14  1  0
 14 15  1  0
 15 16  2  0
 15 17  1  0
 17 18  2  3
 18 19  1  0
 19 20  1  0
 20 21  1  0
 21 22  1  0
 12 23  1  0
 23 24  2  0
  6 25  1  0
 25 26  2  0
 26 27  1  0
 27 28  1  0
 26  3  1  0
 23  8  1  0
 22 18  1  0
  1 29  1  0
  1 30  1  0
  1 31  1  0
  4 32  1  0
  5 33  1  0
  7 34  1  0
 13 35  1  0
 13 36  1  0
 14 37  1  0
 14 38  1  0
 19 39  1  0
 20 40  1  0
 20 41  1  0
 21 42  1  0
 21 43  1  0
 25 44  1  0
 28 45  1  0
 28 46  1  0
 28 47  1  0
M  END
$$$$
