
     RDKit          3D

 61 66  0  0  0  0  0  0  0  0999 V2000
   -2.0753    0.7367    1.2761 O   0  0  0  0  0  0  0  0  0  0  0  0
   -2.6335    0.3661    0.2403 C   0  0  0  0  0  0  0  0  0  0  0  0
   -1.8055   -0.1022   -0.9427 C   0  0  0  0  0  0  0  0  0  0  0  0
   -0.4957   -0.5506   -0.5211 N   0  0  0  0  0  0  0  0  0  0  0  0
   -0.2722   -1.8360   -0.1901 N   0  0  0  0  0  0  0  0  0  0  0  0
    1.0431   -1.9261   -0.0613 N   0  0  0  0  0  0  0  0  0  0  0  0
    1.5621   -0.6853   -0.3583 C   0  0  0  0  0  0  0  0  0  0  0  0
    2.9892   -0.3989   -0.3333 C   0  0  0  0  0  0  0  0  0  0  0  0
    3.4619    0.9176   -0.3628 C   0  0  0  0  0  0  0  0  0  0  0  0
    4.8371    1.1816   -0.3338 C   0  0  0  0  0  0  0  0  0  0  0  0
    5.7844    0.1458   -0.2907 C   0  0  0  0  0  0  0  0  0  0  0  0
    7.1470    0.4732   -0.2525 N   0  0  0  0  0  0  0  0  0  0  0  0
    7.5320    1.1186    1.0290 C   0  0  0  0  0  0  0  0  0  0  0  0
    9.0601    1.1006    1.2051 C   0  0  0  0  0  0  0  0  0  0  0  0
    9.6196   -0.2269    1.2289 O   0  0  0  0  0  0  0  0  0  0  0  0
    8.8814   -1.1633    0.4312 C   0  0  0  0  0  0  0  0  0  0  0  0
    8.1413   -0.5069   -0.7436 C   0  0  0  0  0  0  0  0  0  0  0  0
    5.2995   -1.1683   -0.2669 C   0  0  0  0  0  0  0  0  0  0  0  0
    3.9234   -1.4395   -0.2832 C   0  0  0  0  0  0  0  0  0  0  0  0
    0.6098    0.2011   -0.7036 N   0  0  0  0  0  0  0  0  0  0  0  0
   -4.0378    0.2842    0.0898 N   0  0  0  0  0  0  0  0  0  0  0  0
   -4.9432    0.6701    1.1446 C   0  0  0  0  0  0  0  0  0  0  0  0
   -4.5995    1.7727    1.9538 C   0  0  0  0  0  0  0  0  0  0  0  0
   -5.4399    2.2481    2.9623 C   0  0  0  0  0  0  0  0  0  0  0  0
   -6.6577    1.6342    3.1894 C   0  0  0  0  0  0  0  0  0  0  0  0
   -7.0225    0.5406    2.4135 C   0  0  0  0  0  0  0  0  0  0  0  0
   -6.1808    0.0323    1.3944 C   0  0  0  0  0  0  0  0  0  0  0  0
   -6.7090   -1.2138    0.7096 C   0  0  0  0  0  0  0  0  0  0  0  0
   -5.7922   -1.9401   -0.2655 C   0  0  0  0  0  0  0  0  0  0  0  0
   -5.4661   -1.0264   -1.4098 C   0  0  0  0  0  0  0  0  0  0  0  0
   -5.9975   -1.2495   -2.6879 C   0  0  0  0  0  0  0  0  0  0  0  0
   -5.7158   -0.3687   -3.7322 C   0  0  0  0  0  0  0  0  0  0  0  0
   -4.9139    0.7469   -3.5062 C   0  0  0  0  0  0  0  0  0  0  0  0
   -4.3814    0.9747   -2.2371 C   0  0  0  0  0  0  0  0  0  0  0  0
   -4.6429    0.0831   -1.1855 C   0  0  0  0  0  0  0  0  0  0  0  0
   -1.6596    0.7251   -1.6433 H   0  0  0  0  0  0  0  0  0  0  0  0
   -2.2695   -0.9495   -1.4564 H   0  0  0  0  0  0  0  0  0  0  0  0
    2.7639    1.7521   -0.4003 H   0  0  0  0  0  0  0  0  0  0  0  0
    5.1715    2.2169   -0.3693 H   0  0  0  0  0  0  0  0  0  0  0  0
    7.0805    0.5765    1.8698 H   0  0  0  0  0  0  0  0  0  0  0  0
    7.1801    2.1554    1.0487 H   0  0  0  0  0  0  0  0  0  0  0  0
    9.5458    1.6541    0.3906 H   0  0  0  0  0  0  0  0  0  0  0  0
    9.3387    1.5920    2.1456 H   0  0  0  0  0  0  0  0  0  0  0  0
    8.1783   -1.6786    1.0933 H   0  0  0  0  0  0  0  0  0  0  0  0
    9.5895   -1.9108    0.0631 H   0  0  0  0  0  0  0  0  0  0  0  0
    8.8667    0.0472   -1.3506 H   0  0  0  0  0  0  0  0  0  0  0  0
    7.7033   -1.2570   -1.4088 H   0  0  0  0  0  0  0  0  0  0  0  0
    5.9770   -2.0161   -0.2151 H   0  0  0  0  0  0  0  0  0  0  0  0
    3.5916   -2.4761   -0.2569 H   0  0  0  0  0  0  0  0  0  0  0  0
   -3.6745    2.3187    1.7902 H   0  0  0  0  0  0  0  0  0  0  0  0
   -5.1388    3.1041    3.5572 H   0  0  0  0  0  0  0  0  0  0  0  0
   -7.3195    1.9995    3.9684 H   0  0  0  0  0  0  0  0  0  0  0  0
   -7.9792    0.0613    2.6151 H   0  0  0  0  0  0  0  0  0  0  0  0
   -7.6395   -0.9400    0.1936 H   0  0  0  0  0  0  0  0  0  0  0  0
   -6.9762   -1.9335    1.4926 H   0  0  0  0  0  0  0  0  0  0  0  0
   -4.8720   -2.2832    0.2255 H   0  0  0  0  0  0  0  0  0  0  0  0
   -6.2943   -2.8440   -0.6325 H   0  0  0  0  0  0  0  0  0  0  0  0
   -6.6421   -2.1067   -2.8767 H   0  0  0  0  0  0  0  0  0  0  0  0
   -6.1352   -0.5458   -4.7199 H   0  0  0  0  0  0  0  0  0  0  0  0
   -4.7122    1.4446   -4.3157 H   0  0  0  0  0  0  0  0  0  0  0  0
   -3.7839    1.8681   -2.0707 H   0  0  0  0  0  0  0  0  0  0  0  0
  1  2  2  0
  2  3  1  0
  3  4  1  0
  4  5  1  0
  5  6  2  0
  6  7  1  0
  7  8  1  0
  8  9  2  0
  9 10  1  0
 10 11  2  0
 11 12  1  0
 12 13  1  0
 13 14  1  0
 14 15  1  0
 15 16  1  0
 16 17  1  0
 11 18  1  0
 18 19  2  0
  7 20  2  0
  2 21  1  0
 21 22  1  0
 22 23  2  0
 23 24  1  0
 24 25  2  0
 25 26  1  0
 26 27  2  0
 27 28  1  0
 28 29  1  0
 29 30  1  0
 30 31  2  0
 31 32  1  0
 32 33  2  0
 33 34  1  0
 34 35  2  0
 20  4  1  0
 35 21  1  0
 19  8  1  0
 27 22  1  0
 35 30  1  0
 17 12  1  0
  3 36  1  0
  3 37  1  0
  9 38  1  0
 10 39  1  0
 13 40  1  0
 13 41  1  0
 14 42  1  0
 14 43  1  0
 16 44  1  0
 16 45  1  0
 17 46  1  0
 17 47  1  0
 18 48  1  0
 19 49  1  0
 23 50  1  0
 24 51  1  0
 25 52  1  0
 26 53  1  0
 28 54  1  0
 28 55  1  0
 29 56  1  0
 29 57  1  0
 31 58  1  0
 32 59  1  0
 33 60  1  0
 34 61  1  0
M  END
$$$$
