
     RDKit          3D

 40 42  0  0  0  0  0  0  0  0999 V2000
    2.2859    4.7722    2.3859 C   0  0  0  0  0  0  0  0  0  0  0  0
    1.9186    3.5031    1.6367 C   0  0  0  0  0  0  0  0  0  0  0  0
    0.1394    3.1625    1.8349 S   0  0  0  0  0  0  0  0  0  0  0  0
   -0.0232    1.6667    0.8688 C   0  0  0  0  0  0  0  0  0  0  0  0
   -1.2736    1.1041    0.7353 C   0  0  0  0  0  0  0  0  0  0  0  0
   -1.3727   -0.0543   -0.0098 C   0  0  0  0  0  0  0  0  0  0  0  0
   -2.6317   -0.6617   -0.1933 N   0  0  0  0  0  0  0  0  0  0  0  0
   -3.2706   -1.0833    1.0751 C   0  0  0  0  0  0  0  0  0  0  0  0
   -4.6663   -1.6629    0.7884 C   0  0  0  0  0  0  0  0  0  0  0  0
   -4.6069   -2.7510   -0.1466 O   0  0  0  0  0  0  0  0  0  0  0  0
   -4.0347   -2.3044   -1.3871 C   0  0  0  0  0  0  0  0  0  0  0  0
   -2.6112   -1.7638   -1.1831 C   0  0  0  0  0  0  0  0  0  0  0  0
   -0.2867   -0.5809   -0.5989 N   0  0  0  0  0  0  0  0  0  0  0  0
    0.8989    0.0294   -0.4167 C   0  0  0  0  0  0  0  0  0  0  0  0
    2.0876   -0.5704   -1.0597 C   0  0  0  0  0  0  0  0  0  0  0  0
    3.3663    0.0094   -0.9310 C   0  0  0  0  0  0  0  0  0  0  0  0
    4.4934   -0.5565   -1.5391 C   0  0  0  0  0  0  0  0  0  0  0  0
    4.3623   -1.7190   -2.2910 C   0  0  0  0  0  0  0  0  0  0  0  0
    5.7444   -2.4167   -3.0396 Cl  0  0  0  0  0  0  0  0  0  0  0  0
    3.1163   -2.3187   -2.4392 C   0  0  0  0  0  0  0  0  0  0  0  0
    1.9929   -1.7481   -1.8289 C   0  0  0  0  0  0  0  0  0  0  0  0
    1.0757    1.1429    0.3095 N   0  0  0  0  0  0  0  0  0  0  0  0
    2.0832    4.6797    3.4584 H   0  0  0  0  0  0  0  0  0  0  0  0
    3.3553    4.9770    2.2684 H   0  0  0  0  0  0  0  0  0  0  0  0
    1.7389    5.6396    2.0007 H   0  0  0  0  0  0  0  0  0  0  0  0
    2.5007    2.6647    2.0326 H   0  0  0  0  0  0  0  0  0  0  0  0
    2.1544    3.6252    0.5746 H   0  0  0  0  0  0  0  0  0  0  0  0
   -2.1458    1.5681    1.1755 H   0  0  0  0  0  0  0  0  0  0  0  0
   -2.6514   -1.8514    1.5568 H   0  0  0  0  0  0  0  0  0  0  0  0
   -3.3857   -0.2450    1.7705 H   0  0  0  0  0  0  0  0  0  0  0  0
   -5.3382   -0.8913    0.3937 H   0  0  0  0  0  0  0  0  0  0  0  0
   -5.1059   -2.0459    1.7148 H   0  0  0  0  0  0  0  0  0  0  0  0
   -4.0133   -3.1603   -2.0689 H   0  0  0  0  0  0  0  0  0  0  0  0
   -4.6882   -1.5414   -1.8268 H   0  0  0  0  0  0  0  0  0  0  0  0
   -1.9719   -2.5804   -0.8221 H   0  0  0  0  0  0  0  0  0  0  0  0
   -2.2299   -1.4112   -2.1490 H   0  0  0  0  0  0  0  0  0  0  0  0
    3.4946    0.9201   -0.3474 H   0  0  0  0  0  0  0  0  0  0  0  0
    5.4641   -0.0829   -1.4193 H   0  0  0  0  0  0  0  0  0  0  0  0
    3.0068   -3.2273   -3.0252 H   0  0  0  0  0  0  0  0  0  0  0  0
    1.0276   -2.2360   -1.9591 H   0  0  0  0  0  0  0  0  0  0  0  0
  1  2  1  0
  2  3  1  0
  3  4  1  0
  4  5  2  0
  5  6  1  0
  6  7  1  0
  7  8  1  0
  8  9  1  0
  9 10  1  0
 10 11  1  0
 11 12  1  0
  6 13  2  0
 13 14  1  0
 14 15  1  0
 15 16  2  0
 16 17  1  0
 17 18  2  0
 18 19  1  0
 18 20  1  0
 20 21  2  0
 14 22  2  0
 22  4  1  0
 12  7  1  0
 21 15  1  0
  1 23  1  0
  1 24  1  0
  1 25  1  0
  2 26  1  0
  2 27  1  0
  5 28  1  0
  8 29  1  0
  8 30  1  0
  9 31  1  0
  9 32  1  0
 11 33  1  0
 11 34  1  0
 12 35  1  0
 12 36  1  0
 16 37  1  0
 17 38  1  0
 20 39  1  0
 21 40  1  0
M  END
$$$$
