
     RDKit          3D

 50 53  0  0  0  0  0  0  0  0999 V2000
    0.8028   -3.7139    1.4205 O   0  0  0  0  0  0  0  0  0  0  0  0
    0.3718   -2.6043    1.1658 C   0  0  0  0  0  0  0  0  0  0  0  0
   -1.1058   -2.2531    1.0585 C   0  0  0  0  0  0  0  0  0  0  0  0
   -2.0113   -3.0456    1.2063 O   0  0  0  0  0  0  0  0  0  0  0  0
   -1.1766   -0.8822    0.8486 N   0  0  0  0  0  0  0  0  0  0  0  0
   -2.4238   -0.1693    1.1291 C   0  0  0  0  0  0  0  0  0  0  0  0
   -3.4370   -0.2043   -0.0231 C   0  0  0  0  0  0  0  0  0  0  0  0
   -4.2409   -1.4877   -0.1500 C   0  0  0  0  0  0  0  0  0  0  0  0
   -5.4892   -1.0009   -0.8427 C   0  0  0  0  0  0  0  0  0  0  0  0
   -5.7034    0.3462   -0.1897 C   0  0  0  0  0  0  0  0  0  0  0  0
   -4.4069    0.8506    0.1633 O   0  0  0  0  0  0  0  0  0  0  0  0
    0.1296   -0.2720    1.1054 C   0  0  0  0  0  0  0  0  0  0  0  0
    0.3836    1.0230    0.3446 C   0  0  0  0  0  0  0  0  0  0  0  0
   -0.0707    1.1593   -0.9819 C   0  0  0  0  0  0  0  0  0  0  0  0
    0.1310    2.3372   -1.7084 C   0  0  0  0  0  0  0  0  0  0  0  0
    0.7954    3.4155   -1.1319 C   0  0  0  0  0  0  0  0  0  0  0  0
    1.2702    3.3156    0.1721 C   0  0  0  0  0  0  0  0  0  0  0  0
    1.0706    2.1279    0.8952 C   0  0  0  0  0  0  0  0  0  0  0  0
    1.6300    2.0801    2.2410 N   0  0  0  0  0  4  0  0  0  0  0  0
    1.4141    3.0455    2.9836 O   0  0  0  0  0  0  0  0  0  0  0  0
    2.2808    1.0707    2.5444 O   0  0  0  0  0  1  0  0  0  0  0  0
    1.1903   -1.3818    0.9144 C   0  0  0  0  0  0  0  0  0  0  0  0
    1.7912   -1.4206   -0.4705 C   0  0  0  0  0  0  0  0  0  0  0  0
    1.1275   -1.7255   -1.4595 O   0  0  0  0  0  0  0  0  0  0  0  0
    3.2040   -0.9954   -0.6466 C   0  0  0  0  0  0  0  0  0  0  0  0
    3.5329   -0.2379   -1.7766 C   0  0  0  0  0  0  0  0  0  0  0  0
    4.8423    0.2082   -1.9614 C   0  0  0  0  0  0  0  0  0  0  0  0
    5.8255   -0.1118   -1.0258 C   0  0  0  0  0  0  0  0  0  0  0  0
    5.5047   -0.8870    0.0886 C   0  0  0  0  0  0  0  0  0  0  0  0
    4.1951   -1.3330    0.2804 C   0  0  0  0  0  0  0  0  0  0  0  0
   -2.1829    0.8758    1.3558 H   0  0  0  0  0  0  0  0  0  0  0  0
   -2.8683   -0.5795    2.0444 H   0  0  0  0  0  0  0  0  0  0  0  0
   -2.9324    0.0092   -0.9728 H   0  0  0  0  0  0  0  0  0  0  0  0
   -3.7192   -2.2651   -0.7142 H   0  0  0  0  0  0  0  0  0  0  0  0
   -4.5041   -1.8883    0.8363 H   0  0  0  0  0  0  0  0  0  0  0  0
   -6.3457   -1.6698   -0.7281 H   0  0  0  0  0  0  0  0  0  0  0  0
   -5.2945   -0.8719   -1.9137 H   0  0  0  0  0  0  0  0  0  0  0  0
   -6.2087    1.0574   -0.8490 H   0  0  0  0  0  0  0  0  0  0  0  0
   -6.2850    0.2511    0.7332 H   0  0  0  0  0  0  0  0  0  0  0  0
    0.0772   -0.0427    2.1798 H   0  0  0  0  0  0  0  0  0  0  0  0
   -0.5877    0.3361   -1.4768 H   0  0  0  0  0  0  0  0  0  0  0  0
   -0.2382    2.4090   -2.7302 H   0  0  0  0  0  0  0  0  0  0  0  0
    0.9435    4.3310   -1.7002 H   0  0  0  0  0  0  0  0  0  0  0  0
    1.7940    4.1609    0.6156 H   0  0  0  0  0  0  0  0  0  0  0  0
    1.9503   -1.3082    1.6943 H   0  0  0  0  0  0  0  0  0  0  0  0
    2.7712    0.0100   -2.5135 H   0  0  0  0  0  0  0  0  0  0  0  0
    5.0965    0.8027   -2.8352 H   0  0  0  0  0  0  0  0  0  0  0  0
    6.8467    0.2347   -1.1705 H   0  0  0  0  0  0  0  0  0  0  0  0
    6.2787   -1.1487    0.8069 H   0  0  0  0  0  0  0  0  0  0  0  0
    3.9811   -1.9571    1.1437 H   0  0  0  0  0  0  0  0  0  0  0  0
  1  2  2  0
  2  3  1  0
  3  4  2  0
  3  5  1  0
  5  6  1  0
  6  7  1  0
  7  8  1  0
  8  9  1  0
  9 10  1  0
 10 11  1  0
  5 12  1  0
 12 13  1  0
 13 14  2  0
 14 15  1  0
 15 16  2  0
 16 17  1  0
 17 18  2  0
 18 19  1  0
 19 20  2  0
 19 21  1  0
 12 22  1  0
 22 23  1  0
 23 24  2  0
 23 25  1  0
 25 26  2  0
 26 27  1  0
 27 28  2  0
 28 29  1  0
 29 30  2  0
 22  2  1  0
 30 25  1  0
 11  7  1  0
 18 13  1  0
  6 31  1  0
  6 32  1  0
  7 33  1  0
  8 34  1  0
  8 35  1  0
  9 36  1  0
  9 37  1  0
 10 38  1  0
 10 39  1  0
 12 40  1  0
 14 41  1  0
 15 42  1  0
 16 43  1  0
 17 44  1  0
 22 45  1  0
 26 46  1  0
 27 47  1  0
 28 48  1  0
 29 49  1  0
 30 50  1  0
M  CHG  2  19   1  21  -1
M  END
$$$$
