
     RDKit          3D

 57 60  0  0  0  0  0  0  0  0999 V2000
    8.9079    0.8055   -0.7659 C   0  0  0  0  0  0  0  0  0  0  0  0
    8.1994    0.0974    0.3735 C   0  0  0  0  0  0  0  0  0  0  0  0
    6.9260    0.7120    0.6217 O   0  0  0  0  0  0  0  0  0  0  0  0
    5.8831    0.2414   -0.1191 C   0  0  0  0  0  0  0  0  0  0  0  0
    5.9734   -0.6158   -0.9871 O   0  0  0  0  0  0  0  0  0  0  0  0
    4.6079    0.9898    0.2318 C   0  0  0  0  0  0  0  0  0  0  0  0
    3.4118    0.3923   -0.5196 C   0  0  0  0  0  0  0  0  0  0  0  0
    2.1012    1.0593   -0.1256 C   0  0  0  0  0  0  0  0  0  0  0  0
    1.9002    1.0692    1.3431 N   0  0  0  0  0  0  0  0  0  0  0  0
    1.1932   -0.3001    2.0706 S   0  0  0  0  0  6  0  0  0  0  0  0
    1.9482   -1.4620    1.6527 O   0  0  0  0  0  0  0  0  0  0  0  0
    0.9799   -0.0139    3.4730 O   0  0  0  0  0  0  0  0  0  0  0  0
   -0.4094   -0.3700    1.3068 C   0  0  0  0  0  0  0  0  0  0  0  0
   -1.2971    0.7026    1.4970 C   0  0  0  0  0  0  0  0  0  0  0  0
   -2.5618    0.6808    0.9000 C   0  0  0  0  0  0  0  0  0  0  0  0
   -2.9159   -0.4169    0.1301 C   0  0  0  0  0  0  0  0  0  0  0  0
   -2.0287   -1.4829   -0.0437 C   0  0  0  0  0  0  0  0  0  0  0  0
   -0.7681   -1.4797    0.5366 C   0  0  0  0  0  0  0  0  0  0  0  0
   -2.6208   -2.5538   -0.9007 C   0  0  0  0  0  0  0  0  0  0  0  0
   -4.0132   -1.9887   -1.2064 C   0  0  0  0  0  0  0  0  0  0  0  0
   -4.1162   -0.6700   -0.5606 N   0  0  0  0  0  0  0  0  0  0  0  0
   -5.2242    0.1714   -0.6145 C   0  0  0  0  0  0  0  0  0  0  0  0
   -5.2559    1.2792   -0.0658 O   0  0  0  0  0  0  0  0  0  0  0  0
   -6.4394   -0.3658   -1.4260 C   0  0  0  0  0  0  0  0  0  0  0  0
   -7.4120   -1.3383   -0.6998 C   0  0  0  0  0  0  0  0  0  0  0  0
   -8.5610   -0.6757   -1.4810 C   0  0  0  0  0  0  0  0  0  0  0  0
   -7.6707    0.5752   -1.5882 C   0  0  0  0  0  0  0  0  0  0  0  0
    3.0368    1.6748    2.0751 C   0  0  0  0  0  0  0  0  0  0  0  0
    4.3457    0.9736    1.7415 C   0  0  0  0  0  0  0  0  0  0  0  0
    9.0069    1.8747   -0.5517 H   0  0  0  0  0  0  0  0  0  0  0  0
    8.3389    0.7188   -1.6970 H   0  0  0  0  0  0  0  0  0  0  0  0
    9.9042    0.3835   -0.9250 H   0  0  0  0  0  0  0  0  0  0  0  0
    8.0931   -0.9754    0.1760 H   0  0  0  0  0  0  0  0  0  0  0  0
    8.7871    0.1984    1.2917 H   0  0  0  0  0  0  0  0  0  0  0  0
    4.7460    2.0256   -0.1061 H   0  0  0  0  0  0  0  0  0  0  0  0
    3.3549   -0.6866   -0.3335 H   0  0  0  0  0  0  0  0  0  0  0  0
    3.5591    0.5037   -1.6012 H   0  0  0  0  0  0  0  0  0  0  0  0
    2.0946    2.1005   -0.4721 H   0  0  0  0  0  0  0  0  0  0  0  0
    1.2641    0.5720   -0.6339 H   0  0  0  0  0  0  0  0  0  0  0  0
   -1.0058    1.5535    2.1099 H   0  0  0  0  0  0  0  0  0  0  0  0
   -3.2374    1.5153    1.0556 H   0  0  0  0  0  0  0  0  0  0  0  0
   -0.0871   -2.3142    0.3961 H   0  0  0  0  0  0  0  0  0  0  0  0
   -2.6896   -3.5045   -0.3631 H   0  0  0  0  0  0  0  0  0  0  0  0
   -2.0411   -2.6910   -1.8189 H   0  0  0  0  0  0  0  0  0  0  0  0
   -4.1655   -1.8772   -2.2853 H   0  0  0  0  0  0  0  0  0  0  0  0
   -4.8000   -2.6415   -0.8139 H   0  0  0  0  0  0  0  0  0  0  0  0
   -6.1335   -0.7467   -2.4112 H   0  0  0  0  0  0  0  0  0  0  0  0
   -7.2650   -2.4018   -0.9046 H   0  0  0  0  0  0  0  0  0  0  0  0
   -7.4690   -1.1898    0.3849 H   0  0  0  0  0  0  0  0  0  0  0  0
   -8.7707   -1.1519   -2.4456 H   0  0  0  0  0  0  0  0  0  0  0  0
   -9.4982   -0.5487   -0.9337 H   0  0  0  0  0  0  0  0  0  0  0  0
   -7.7320    1.1142   -2.5375 H   0  0  0  0  0  0  0  0  0  0  0  0
   -7.8181    1.2864   -0.7672 H   0  0  0  0  0  0  0  0  0  0  0  0
    2.8596    1.6587    3.1553 H   0  0  0  0  0  0  0  0  0  0  0  0
    3.0953    2.7351    1.7988 H   0  0  0  0  0  0  0  0  0  0  0  0
    5.1603    1.4762    2.2764 H   0  0  0  0  0  0  0  0  0  0  0  0
    4.3288   -0.0606    2.1074 H   0  0  0  0  0  0  0  0  0  0  0  0
  1  2  1  0
  2  3  1  0
  3  4  1  0
  4  5  2  0
  4  6  1  0
  6  7  1  0
  7  8  1  0
  8  9  1  0
  9 10  1  0
 10 11  2  0
 10 12  2  0
 10 13  1  0
 13 14  2  0
 14 15  1  0
 15 16  2  0
 16 17  1  0
 17 18  2  0
 17 19  1  0
 19 20  1  0
 20 21  1  0
 21 22  1  0
 22 23  2  0
 22 24  1  0
 24 25  1  0
 25 26  1  0
 26 27  1  0
  9 28  1  0
 28 29  1  0
 29  6  1  0
 18 13  1  0
 27 24  1  0
 21 16  1  0
  1 30  1  0
  1 31  1  0
  1 32  1  0
  2 33  1  0
  2 34  1  0
  6 35  1  0
  7 36  1  0
  7 37  1  0
  8 38  1  0
  8 39  1  0
 14 40  1  0
 15 41  1  0
 18 42  1  0
 19 43  1  0
 19 44  1  0
 20 45  1  0
 20 46  1  0
 24 47  1  0
 25 48  1  0
 25 49  1  0
 26 50  1  0
 26 51  1  0
 27 52  1  0
 27 53  1  0
 28 54  1  0
 28 55  1  0
 29 56  1  0
 29 57  1  0
M  END
$$$$
