
     RDKit          3D

 50 52  0  0  0  0  0  0  0  0999 V2000
    6.9886   -0.5964   -1.7499 C   0  0  0  0  0  0  0  0  0  0  0  0
    5.5309   -0.9447   -1.8027 C   0  0  0  0  0  0  0  0  0  0  0  0
    4.7360   -0.5111   -2.8687 C   0  0  0  0  0  0  0  0  0  0  0  0
    3.3834   -0.8580   -2.9296 C   0  0  0  0  0  0  0  0  0  0  0  0
    2.8056   -1.6433   -1.9275 C   0  0  0  0  0  0  0  0  0  0  0  0
    1.0783   -2.0686   -2.0650 S   0  0  0  0  0  0  0  0  0  0  0  0
    0.4468   -1.5863   -0.4180 C   0  0  0  0  0  0  0  0  0  0  0  0
    0.7267   -0.1198   -0.1110 C   0  0  0  0  0  0  0  0  0  0  0  0
    1.6350    0.1557    0.6788 O   0  0  0  0  0  0  0  0  0  0  0  0
   -0.0418    0.8708   -0.7265 N   0  0  0  0  0  0  0  0  0  0  0  0
   -1.2649    0.5844   -1.4904 C   0  0  0  0  0  0  0  0  0  0  0  0
   -2.4500    0.6001   -0.5946 C   0  0  0  0  0  0  0  0  0  0  0  0
   -2.8082   -0.2485    0.3425 N   0  0  0  0  0  0  0  0  0  0  0  0
   -3.9713    0.3155    0.8279 C   0  0  0  0  0  0  0  0  0  0  0  0
   -4.7362   -0.2898    1.9135 C   0  0  0  0  0  0  0  0  0  0  0  0
   -4.2855   -1.4708    2.5226 C   0  0  0  0  0  0  0  0  0  0  0  0
   -5.0104   -2.0582    3.5629 C   0  0  0  0  0  0  0  0  0  0  0  0
   -6.1941   -1.4716    4.0058 C   0  0  0  0  0  0  0  0  0  0  0  0
   -6.6542   -0.2986    3.4110 C   0  0  0  0  0  0  0  0  0  0  0  0
   -5.9298    0.2897    2.3705 C   0  0  0  0  0  0  0  0  0  0  0  0
   -4.3192    1.4553    0.2054 N   0  0  0  0  0  0  0  0  0  0  0  0
   -3.3108    1.6458   -0.7342 O   0  0  0  0  0  0  0  0  0  0  0  0
    0.2390    2.2960   -0.4492 C   0  0  0  0  0  0  0  0  0  0  0  0
    1.6279    2.7158   -0.9380 C   0  0  0  0  0  0  0  0  0  0  0  0
    0.0151    2.6811    1.0148 C   0  0  0  0  0  0  0  0  0  0  0  0
    3.6058   -2.1038   -0.8797 C   0  0  0  0  0  0  0  0  0  0  0  0
    4.9588   -1.7563   -0.8172 C   0  0  0  0  0  0  0  0  0  0  0  0
    7.1704    0.3881   -2.1940 H   0  0  0  0  0  0  0  0  0  0  0  0
    7.3442   -0.5558   -0.7148 H   0  0  0  0  0  0  0  0  0  0  0  0
    7.5721   -1.3446   -2.2951 H   0  0  0  0  0  0  0  0  0  0  0  0
    5.1636    0.1014   -3.6590 H   0  0  0  0  0  0  0  0  0  0  0  0
    2.7866   -0.5058   -3.7673 H   0  0  0  0  0  0  0  0  0  0  0  0
    0.9179   -2.2049    0.3530 H   0  0  0  0  0  0  0  0  0  0  0  0
   -0.6235   -1.7966   -0.3584 H   0  0  0  0  0  0  0  0  0  0  0  0
   -1.2097   -0.3900   -1.9765 H   0  0  0  0  0  0  0  0  0  0  0  0
   -1.3591    1.3230   -2.2944 H   0  0  0  0  0  0  0  0  0  0  0  0
   -3.3626   -1.9428    2.1912 H   0  0  0  0  0  0  0  0  0  0  0  0
   -4.6495   -2.9728    4.0265 H   0  0  0  0  0  0  0  0  0  0  0  0
   -6.7578   -1.9282    4.8155 H   0  0  0  0  0  0  0  0  0  0  0  0
   -7.5772    0.1607    3.7560 H   0  0  0  0  0  0  0  0  0  0  0  0
   -6.3076    1.2061    1.9208 H   0  0  0  0  0  0  0  0  0  0  0  0
   -0.4770    2.8831   -1.0390 H   0  0  0  0  0  0  0  0  0  0  0  0
    1.7701    2.4320   -1.9865 H   0  0  0  0  0  0  0  0  0  0  0  0
    2.4325    2.2558   -0.3572 H   0  0  0  0  0  0  0  0  0  0  0  0
    1.7481    3.8018   -0.8629 H   0  0  0  0  0  0  0  0  0  0  0  0
    0.0944    3.7664    1.1396 H   0  0  0  0  0  0  0  0  0  0  0  0
    0.7477    2.2217    1.6843 H   0  0  0  0  0  0  0  0  0  0  0  0
   -0.9807    2.3771    1.3529 H   0  0  0  0  0  0  0  0  0  0  0  0
    3.1943   -2.7377   -0.0996 H   0  0  0  0  0  0  0  0  0  0  0  0
    5.5613   -2.1224    0.0112 H   0  0  0  0  0  0  0  0  0  0  0  0
  1  2  1  0
  2  3  2  0
  3  4  1  0
  4  5  2  0
  5  6  1  0
  6  7  1  0
  7  8  1  0
  8  9  2  0
  8 10  1  0
 10 11  1  0
 11 12  1  0
 12 13  2  0
 13 14  1  0
 14 15  1  0
 15 16  2  0
 16 17  1  0
 17 18  2  0
 18 19  1  0
 19 20  2  0
 14 21  2  0
 21 22  1  0
 10 23  1  0
 23 24  1  0
 23 25  1  0
  5 26  1  0
 26 27  2  0
 27  2  1  0
 22 12  1  0
 20 15  1  0
  1 28  1  0
  1 29  1  0
  1 30  1  0
  3 31  1  0
  4 32  1  0
  7 33  1  0
  7 34  1  0
 11 35  1  0
 11 36  1  0
 16 37  1  0
 17 38  1  0
 18 39  1  0
 19 40  1  0
 20 41  1  0
 23 42  1  0
 24 43  1  0
 24 44  1  0
 24 45  1  0
 25 46  1  0
 25 47  1  0
 25 48  1  0
 26 49  1  0
 27 50  1  0
M  END
$$$$
