
     RDKit          3D

 56 58  0  0  0  0  0  0  0  0999 V2000
   -7.7633    1.7856    0.0277 C   0  0  0  0  0  0  0  0  0  0  0  0
   -6.5786    1.6935   -0.9138 C   0  0  0  0  0  0  0  0  0  0  0  0
   -5.3964    1.5129   -0.1262 O   0  0  0  0  0  0  0  0  0  0  0  0
   -4.2528    1.3878   -0.8571 C   0  0  0  0  0  0  0  0  0  0  0  0
   -4.1924    1.4159   -2.0804 O   0  0  0  0  0  0  0  0  0  0  0  0
   -3.0689    1.1598    0.0517 C   0  0  0  0  0  0  0  0  0  0  0  0
   -2.0642    2.2793   -0.1093 C   0  0  0  0  0  0  0  0  0  0  0  0
   -2.3980    3.4497   -0.2899 O   0  0  0  0  0  0  0  0  0  0  0  0
   -0.6199    1.9834    0.0527 C   0  0  0  0  0  0  0  0  0  0  0  0
   -0.1880    0.7459    0.3403 C   0  0  0  0  0  0  0  0  0  0  0  0
    1.2167    0.4477    0.5678 C   0  0  0  0  0  0  0  0  0  0  0  0
    2.2221    0.8856   -0.2075 C   0  0  0  0  0  0  0  0  0  0  0  0
    3.6365    0.5698    0.0314 C   0  0  0  0  0  0  0  0  0  0  0  0
    4.6020    1.5449   -0.2117 C   0  0  0  0  0  0  0  0  0  0  0  0
    5.9656    1.2697   -0.0192 C   0  0  0  0  0  0  0  0  0  0  0  0
    6.4283    0.0104    0.3997 C   0  0  0  0  0  0  0  0  0  0  0  0
    7.7875   -0.2533    0.6070 N   0  0  0  0  0  0  0  0  0  0  0  0
    8.2268   -1.6393    0.7581 C   0  0  0  0  0  0  0  0  0  0  0  0
    8.7796    0.6656    0.0513 C   0  0  0  0  0  0  0  0  0  0  0  0
    5.4333   -0.9540    0.6360 C   0  0  0  0  0  0  0  0  0  0  0  0
    4.0669   -0.6890    0.4477 C   0  0  0  0  0  0  0  0  0  0  0  0
   -1.1302   -0.4211    0.4963 C   0  0  0  0  0  0  0  0  0  0  0  0
   -2.4476   -0.2099   -0.2731 C   0  0  0  0  0  0  0  0  0  0  0  0
   -3.4092   -1.3645   -0.0191 C   0  0  0  0  0  0  0  0  0  0  0  0
   -3.8190   -2.1720   -1.0913 C   0  0  0  0  0  0  0  0  0  0  0  0
   -4.7106   -3.2266   -0.8887 C   0  0  0  0  0  0  0  0  0  0  0  0
   -5.2053   -3.4874    0.3865 C   0  0  0  0  0  0  0  0  0  0  0  0
   -4.8103   -2.6928    1.4598 C   0  0  0  0  0  0  0  0  0  0  0  0
   -3.9188   -1.6370    1.2599 C   0  0  0  0  0  0  0  0  0  0  0  0
   -7.6382    2.6213    0.7243 H   0  0  0  0  0  0  0  0  0  0  0  0
   -8.6941    1.9257   -0.5288 H   0  0  0  0  0  0  0  0  0  0  0  0
   -7.8460    0.8766    0.6327 H   0  0  0  0  0  0  0  0  0  0  0  0
   -6.4956    2.6172   -1.4973 H   0  0  0  0  0  0  0  0  0  0  0  0
   -6.7089    0.8399   -1.5886 H   0  0  0  0  0  0  0  0  0  0  0  0
   -3.3997    1.1956    1.0980 H   0  0  0  0  0  0  0  0  0  0  0  0
    0.0437    2.8368   -0.0388 H   0  0  0  0  0  0  0  0  0  0  0  0
    1.4257   -0.1892    1.4264 H   0  0  0  0  0  0  0  0  0  0  0  0
    2.0261    1.5238   -1.0661 H   0  0  0  0  0  0  0  0  0  0  0  0
    4.3118    2.5400   -0.5414 H   0  0  0  0  0  0  0  0  0  0  0  0
    6.6571    2.0850   -0.2078 H   0  0  0  0  0  0  0  0  0  0  0  0
    7.9876   -2.2280   -0.1345 H   0  0  0  0  0  0  0  0  0  0  0  0
    9.3102   -1.6982    0.9122 H   0  0  0  0  0  0  0  0  0  0  0  0
    7.7739   -2.1052    1.6398 H   0  0  0  0  0  0  0  0  0  0  0  0
    8.6862    1.6639    0.4920 H   0  0  0  0  0  0  0  0  0  0  0  0
    8.6875    0.7329   -1.0384 H   0  0  0  0  0  0  0  0  0  0  0  0
    9.7995    0.3336    0.2763 H   0  0  0  0  0  0  0  0  0  0  0  0
    5.6921   -1.9523    0.9748 H   0  0  0  0  0  0  0  0  0  0  0  0
    3.3542   -1.4899    0.6262 H   0  0  0  0  0  0  0  0  0  0  0  0
   -1.3125   -0.5756    1.5677 H   0  0  0  0  0  0  0  0  0  0  0  0
   -0.6556   -1.3395    0.1236 H   0  0  0  0  0  0  0  0  0  0  0  0
   -2.1879   -0.2180   -1.3433 H   0  0  0  0  0  0  0  0  0  0  0  0
   -3.4538   -1.9818   -2.0992 H   0  0  0  0  0  0  0  0  0  0  0  0
   -5.0214   -3.8424   -1.7289 H   0  0  0  0  0  0  0  0  0  0  0  0
   -5.9007   -4.3079    0.5429 H   0  0  0  0  0  0  0  0  0  0  0  0
   -5.1995   -2.8940    2.4548 H   0  0  0  0  0  0  0  0  0  0  0  0
   -3.6336   -1.0310    2.1168 H   0  0  0  0  0  0  0  0  0  0  0  0
  1  2  1  0
  2  3  1  0
  3  4  1  0
  4  5  2  0
  4  6  1  0
  6  7  1  0
  7  8  2  0
  7  9  1  0
  9 10  2  0
 10 11  1  0
 11 12  2  3
 12 13  1  0
 13 14  2  0
 14 15  1  0
 15 16  2  0
 16 17  1  0
 17 18  1  0
 17 19  1  0
 16 20  1  0
 20 21  2  0
 10 22  1  0
 22 23  1  0
 23 24  1  0
 24 25  2  0
 25 26  1  0
 26 27  2  0
 27 28  1  0
 28 29  2  0
 23  6  1  0
 29 24  1  0
 21 13  1  0
  1 30  1  0
  1 31  1  0
  1 32  1  0
  2 33  1  0
  2 34  1  0
  6 35  1  0
  9 36  1  0
 11 37  1  0
 12 38  1  0
 14 39  1  0
 15 40  1  0
 18 41  1  0
 18 42  1  0
 18 43  1  0
 19 44  1  0
 19 45  1  0
 19 46  1  0
 20 47  1  0
 21 48  1  0
 22 49  1  0
 22 50  1  0
 23 51  1  0
 25 52  1  0
 26 53  1  0
 27 54  1  0
 28 55  1  0
 29 56  1  0
M  END
$$$$
