
     RDKit          3D

 51 54  0  0  0  0  0  0  0  0999 V2000
   -6.6744   -0.6088   -1.0327 C   0  0  0  0  0  0  0  0  0  0  0  0
   -5.6313   -1.6668   -0.6736 C   0  0  0  0  0  0  0  0  0  0  0  0
   -6.1374   -2.6485    0.3832 C   0  0  0  0  0  0  0  0  0  0  0  0
   -4.3332   -1.0851   -0.3272 N   0  0  0  0  0  0  0  0  0  0  0  0
   -3.1996   -1.3059   -1.0723 C   0  0  0  0  0  0  0  0  0  0  0  0
   -2.1443   -0.6230   -0.4996 C   0  0  0  0  0  0  0  0  0  0  0  0
   -0.7961   -0.6445   -1.0404 C   0  0  0  0  0  0  0  0  0  0  0  0
    0.1442   -0.0018   -0.4299 N   0  0  0  0  0  0  0  0  0  0  0  0
    1.4146    0.0011   -0.9476 N   0  0  0  0  0  0  0  0  0  0  0  0
    1.7938   -0.2121   -2.2673 C   0  0  0  0  0  0  0  0  0  0  0  0
    1.0562   -0.5458   -3.1928 O   0  0  0  0  0  0  0  0  0  0  0  0
    3.2973   -0.0379   -2.4707 C   0  0  0  0  0  0  0  0  0  0  0  0
    3.6959    1.2905   -2.1284 O   0  0  0  0  0  0  0  0  0  0  0  0
    4.8555    1.3061   -1.3863 C   0  0  0  0  0  0  0  0  0  0  0  0
    5.9866    1.8307   -2.0179 C   0  0  0  0  0  0  0  0  0  0  0  0
    7.1858    1.9156   -1.3218 C   0  0  0  0  0  0  0  0  0  0  0  0
    7.2421    1.4932    0.0049 C   0  0  0  0  0  0  0  0  0  0  0  0
    6.0950    0.9910    0.6469 C   0  0  0  0  0  0  0  0  0  0  0  0
    6.1337    0.5800    1.9863 C   0  0  0  0  0  0  0  0  0  0  0  0
    4.9840    0.0996    2.6001 C   0  0  0  0  0  0  0  0  0  0  0  0
    3.8264    0.0443    1.8512 C   0  0  0  0  0  0  0  0  0  0  0  0
    3.7490    0.4260    0.5556 N   0  0  0  0  0  0  0  0  0  0  0  0
    4.8689    0.8956   -0.0461 C   0  0  0  0  0  0  0  0  0  0  0  0
   -2.6687    0.0463    0.6521 C   0  0  0  0  0  0  0  0  0  0  0  0
   -2.1020    0.8913    1.6333 C   0  0  0  0  0  0  0  0  0  0  0  0
   -2.8935    1.4021    2.6652 C   0  0  0  0  0  0  0  0  0  0  0  0
   -4.2427    1.0841    2.7354 C   0  0  0  0  0  0  0  0  0  0  0  0
   -4.8337    0.2528    1.7797 C   0  0  0  0  0  0  0  0  0  0  0  0
   -4.0352   -0.2599    0.7409 C   0  0  0  0  0  0  0  0  0  0  0  0
   -6.2879    0.0785   -1.7933 H   0  0  0  0  0  0  0  0  0  0  0  0
   -7.5761   -1.0825   -1.4356 H   0  0  0  0  0  0  0  0  0  0  0  0
   -6.9760   -0.0116   -0.1678 H   0  0  0  0  0  0  0  0  0  0  0  0
   -5.4578   -2.2542   -1.5858 H   0  0  0  0  0  0  0  0  0  0  0  0
   -7.0278   -3.1740    0.0215 H   0  0  0  0  0  0  0  0  0  0  0  0
   -6.4072   -2.1504    1.3184 H   0  0  0  0  0  0  0  0  0  0  0  0
   -5.3748   -3.4002    0.6145 H   0  0  0  0  0  0  0  0  0  0  0  0
   -3.2280   -1.9299   -1.9567 H   0  0  0  0  0  0  0  0  0  0  0  0
   -0.6521   -1.2549   -1.9448 H   0  0  0  0  0  0  0  0  0  0  0  0
    2.1214    0.4147   -0.3282 H   0  0  0  0  0  0  0  0  0  0  0  0
    3.8183   -0.8261   -1.9118 H   0  0  0  0  0  0  0  0  0  0  0  0
    3.5166   -0.1850   -3.5344 H   0  0  0  0  0  0  0  0  0  0  0  0
    5.9253    2.1704   -3.0484 H   0  0  0  0  0  0  0  0  0  0  0  0
    8.0722    2.3161   -1.8074 H   0  0  0  0  0  0  0  0  0  0  0  0
    8.1857    1.5680    0.5418 H   0  0  0  0  0  0  0  0  0  0  0  0
    7.0568    0.6371    2.5581 H   0  0  0  0  0  0  0  0  0  0  0  0
    4.9913   -0.2193    3.6362 H   0  0  0  0  0  0  0  0  0  0  0  0
    2.8969   -0.3196    2.2827 H   0  0  0  0  0  0  0  0  0  0  0  0
   -1.0475    1.1500    1.5860 H   0  0  0  0  0  0  0  0  0  0  0  0
   -2.4467    2.0525    3.4121 H   0  0  0  0  0  0  0  0  0  0  0  0
   -4.8494    1.4883    3.5421 H   0  0  0  0  0  0  0  0  0  0  0  0
   -5.8901    0.0221    1.8559 H   0  0  0  0  0  0  0  0  0  0  0  0
  1  2  1  0
  2  3  1  0
  2  4  1  0
  4  5  1  0
  5  6  2  0
  6  7  1  0
  7  8  2  3
  8  9  1  0
  9 10  1  0
 10 11  2  0
 10 12  1  0
 12 13  1  0
 13 14  1  0
 14 15  2  0
 15 16  1  0
 16 17  2  0
 17 18  1  0
 18 19  2  0
 19 20  1  0
 20 21  2  0
 21 22  1  0
 22 23  2  0
  6 24  1  0
 24 25  2  0
 25 26  1  0
 26 27  2  0
 27 28  1  0
 28 29  2  0
 29  4  1  0
 23 14  1  0
 29 24  1  0
 23 18  1  0
  1 30  1  0
  1 31  1  0
  1 32  1  0
  2 33  1  0
  3 34  1  0
  3 35  1  0
  3 36  1  0
  5 37  1  0
  7 38  1  0
  9 39  1  0
 12 40  1  0
 12 41  1  0
 15 42  1  0
 16 43  1  0
 17 44  1  0
 19 45  1  0
 20 46  1  0
 21 47  1  0
 25 48  1  0
 26 49  1  0
 27 50  1  0
 28 51  1  0
M  END
$$$$
