
     RDKit          3D

 38 39  0  0  0  0  0  0  0  0999 V2000
    6.0098    1.3711   -1.2677 C   0  0  0  0  0  0  0  0  0  0  0  0
    4.8738    0.6738   -0.5817 C   0  0  0  0  0  0  0  0  0  0  0  0
    5.0697    0.0233    0.6375 C   0  0  0  0  0  0  0  0  0  0  0  0
    3.9979   -0.5991    1.2873 C   0  0  0  0  0  0  0  0  0  0  0  0
    2.7030   -0.5882    0.7443 C   0  0  0  0  0  0  0  0  0  0  0  0
    1.6742   -1.2095    1.4619 N   0  0  0  0  0  0  0  0  0  0  0  0
    0.2969   -1.3192    1.2812 C   0  0  0  0  0  0  0  0  0  0  0  0
   -0.3169   -2.1070    2.1484 N   0  0  0  0  0  0  0  0  0  0  0  0
   -1.6244   -2.1854    1.9587 C   0  0  0  0  0  0  0  0  0  0  0  0
   -2.4780   -3.1853    3.0517 Cl  0  0  0  0  0  0  0  0  0  0  0  0
   -2.3550   -1.5773    1.0410 N   0  0  0  0  0  0  0  0  0  0  0  0
   -1.6539   -0.8141    0.2296 C   0  0  0  0  0  0  0  0  0  0  0  0
   -2.2536   -0.1139   -0.7975 N   0  0  0  0  0  0  0  0  0  0  0  0
   -3.6329    0.3784   -0.7238 C   0  0  0  0  0  0  0  0  0  0  0  0
   -4.6469   -0.7730   -0.7891 C   0  0  0  0  0  0  0  0  0  0  0  0
   -3.8569    1.2434    0.5250 C   0  0  0  0  0  0  0  0  0  0  0  0
   -3.8478    1.2642   -1.9696 C   0  0  0  0  0  0  0  0  0  0  0  0
   -0.3387   -0.6574    0.3178 N   0  0  0  0  0  0  0  0  0  0  0  0
    2.5170    0.0887   -0.4638 C   0  0  0  0  0  0  0  0  0  0  0  0
    3.5858    0.7130   -1.1203 C   0  0  0  0  0  0  0  0  0  0  0  0
    6.0765    2.4073   -0.9221 H   0  0  0  0  0  0  0  0  0  0  0  0
    5.8710    1.3683   -2.3539 H   0  0  0  0  0  0  0  0  0  0  0  0
    6.9597    0.8670   -1.0608 H   0  0  0  0  0  0  0  0  0  0  0  0
    6.0564   -0.0045    1.0941 H   0  0  0  0  0  0  0  0  0  0  0  0
    4.1887   -1.0942    2.2366 H   0  0  0  0  0  0  0  0  0  0  0  0
    1.9578   -1.7841    2.2429 H   0  0  0  0  0  0  0  0  0  0  0  0
   -1.5702    0.5675   -1.1138 H   0  0  0  0  0  0  0  0  0  0  0  0
   -4.4304   -1.4440   -1.6283 H   0  0  0  0  0  0  0  0  0  0  0  0
   -4.6537   -1.3769    0.1228 H   0  0  0  0  0  0  0  0  0  0  0  0
   -5.6662   -0.3911   -0.9198 H   0  0  0  0  0  0  0  0  0  0  0  0
   -3.1148    2.0477    0.5878 H   0  0  0  0  0  0  0  0  0  0  0  0
   -4.8511    1.7044    0.5108 H   0  0  0  0  0  0  0  0  0  0  0  0
   -3.7855    0.6593    1.4483 H   0  0  0  0  0  0  0  0  0  0  0  0
   -3.1495    2.1096   -1.9810 H   0  0  0  0  0  0  0  0  0  0  0  0
   -3.6842    0.6950   -2.8924 H   0  0  0  0  0  0  0  0  0  0  0  0
   -4.8648    1.6713   -2.0009 H   0  0  0  0  0  0  0  0  0  0  0  0
    1.5392    0.1412   -0.9313 H   0  0  0  0  0  0  0  0  0  0  0  0
    3.3981    1.2295   -2.0591 H   0  0  0  0  0  0  0  0  0  0  0  0
  1  2  1  0
  2  3  2  0
  3  4  1  0
  4  5  2  0
  5  6  1  0
  6  7  1  0
  7  8  2  0
  8  9  1  0
  9 10  1  0
  9 11  2  0
 11 12  1  0
 12 13  1  0
 13 14  1  0
 14 15  1  0
 14 16  1  0
 14 17  1  0
 12 18  2  0
  5 19  1  0
 19 20  2  0
 20  2  1  0
 18  7  1  0
  1 21  1  0
  1 22  1  0
  1 23  1  0
  3 24  1  0
  4 25  1  0
  6 26  1  0
 13 27  1  0
 15 28  1  0
 15 29  1  0
 15 30  1  0
 16 31  1  0
 16 32  1  0
 16 33  1  0
 17 34  1  0
 17 35  1  0
 17 36  1  0
 19 37  1  0
 20 38  1  0
M  END
$$$$
