
     RDKit          3D

 56 59  0  0  0  0  0  0  0  0999 V2000
   -2.5216    1.0520   -3.0026 O   0  0  0  0  0  0  0  0  0  0  0  0
   -2.4406    0.1889   -2.1269 C   0  0  0  0  0  0  0  0  0  0  0  0
   -1.3687   -0.9224   -2.2000 C   0  0  0  0  0  0  0  0  0  0  0  0
   -0.0451   -0.4019   -1.8119 N   0  0  0  0  0  0  0  0  0  0  0  0
    1.0326   -1.3096   -2.2168 C   0  0  0  0  0  0  0  0  0  0  0  0
    2.4430   -0.7462   -1.8968 C   0  0  0  0  0  0  0  0  0  0  0  0
    2.5263    0.1252   -0.7039 N   0  0  0  0  0  0  0  0  0  0  0  0
    3.8766    0.0953   -0.1259 C   0  0  0  0  0  0  0  0  0  0  0  0
    4.1483    1.2182    0.8916 C   0  0  0  0  0  0  0  0  0  0  0  0
    5.5252    1.2423    1.2926 O   0  0  0  0  0  0  0  0  0  0  0  0
    5.8252    0.2898    2.3212 C   0  0  0  0  0  0  0  0  0  0  0  0
    7.3112    0.4046    2.6454 C   0  0  0  0  0  0  0  0  0  0  0  0
    8.0779    0.0922    1.4839 O   0  0  0  0  0  0  0  0  0  0  0  0
    1.4670   -0.2170    0.2517 C   0  0  0  0  0  0  0  0  0  0  0  0
    0.0456   -0.1039   -0.3674 C   0  0  0  0  0  0  0  0  0  0  0  0
   -3.2426    0.1407   -0.9719 N   0  0  0  0  0  0  0  0  0  0  0  0
   -4.0577   -1.0252   -0.7255 C   0  0  0  0  0  0  0  0  0  0  0  0
   -4.3336   -1.9164   -1.7891 C   0  0  0  0  0  0  0  0  0  0  0  0
   -5.1120   -3.0637   -1.6110 C   0  0  0  0  0  0  0  0  0  0  0  0
   -5.6440   -3.3483   -0.3639 C   0  0  0  0  0  0  0  0  0  0  0  0
   -5.4114   -2.4727    0.6928 C   0  0  0  0  0  0  0  0  0  0  0  0
   -4.6363   -1.3117    0.5172 C   0  0  0  0  0  0  0  0  0  0  0  0
   -4.4136   -0.2882    1.9395 S   0  0  0  0  0  0  0  0  0  0  0  0
   -3.9626    1.2374    1.1568 C   0  0  0  0  0  0  0  0  0  0  0  0
   -4.0990    2.3934    1.9494 C   0  0  0  0  0  0  0  0  0  0  0  0
   -3.6732    3.6330    1.4849 C   0  0  0  0  0  0  0  0  0  0  0  0
   -3.0919    3.7156    0.2314 C   0  0  0  0  0  0  0  0  0  0  0  0
   -2.5387    5.2388   -0.3478 Cl  0  0  0  0  0  0  0  0  0  0  0  0
   -2.9475    2.5730   -0.5610 C   0  0  0  0  0  0  0  0  0  0  0  0
   -3.4039    1.3072   -0.1332 C   0  0  0  0  0  0  0  0  0  0  0  0
   -1.6275   -1.7961   -1.5937 H   0  0  0  0  0  0  0  0  0  0  0  0
   -1.3569   -1.2530   -3.2473 H   0  0  0  0  0  0  0  0  0  0  0  0
    0.9826   -1.5049   -3.2942 H   0  0  0  0  0  0  0  0  0  0  0  0
    0.9139   -2.2753   -1.7082 H   0  0  0  0  0  0  0  0  0  0  0  0
    2.7873   -0.1548   -2.7559 H   0  0  0  0  0  0  0  0  0  0  0  0
    3.1214   -1.6067   -1.8051 H   0  0  0  0  0  0  0  0  0  0  0  0
    4.0772   -0.8832    0.3273 H   0  0  0  0  0  0  0  0  0  0  0  0
    4.6191    0.2079   -0.9280 H   0  0  0  0  0  0  0  0  0  0  0  0
    3.9455    2.1873    0.4209 H   0  0  0  0  0  0  0  0  0  0  0  0
    3.5071    1.1440    1.7767 H   0  0  0  0  0  0  0  0  0  0  0  0
    5.2275    0.5040    3.2134 H   0  0  0  0  0  0  0  0  0  0  0  0
    5.6036   -0.7193    1.9600 H   0  0  0  0  0  0  0  0  0  0  0  0
    7.5924   -0.2897    3.4429 H   0  0  0  0  0  0  0  0  0  0  0  0
    7.5696    1.4235    2.9478 H   0  0  0  0  0  0  0  0  0  0  0  0
    7.7009    0.6499    0.7744 H   0  0  0  0  0  0  0  0  0  0  0  0
    1.4951    0.4434    1.1252 H   0  0  0  0  0  0  0  0  0  0  0  0
    1.6157   -1.2423    0.6184 H   0  0  0  0  0  0  0  0  0  0  0  0
   -0.6096   -0.7640    0.2161 H   0  0  0  0  0  0  0  0  0  0  0  0
   -0.3098    0.9224   -0.2200 H   0  0  0  0  0  0  0  0  0  0  0  0
   -3.9829   -1.7156   -2.8006 H   0  0  0  0  0  0  0  0  0  0  0  0
   -5.3157   -3.7200   -2.4538 H   0  0  0  0  0  0  0  0  0  0  0  0
   -6.2522   -4.2368   -0.2145 H   0  0  0  0  0  0  0  0  0  0  0  0
   -5.8481   -2.7000    1.6627 H   0  0  0  0  0  0  0  0  0  0  0  0
   -4.5251    2.3302    2.9485 H   0  0  0  0  0  0  0  0  0  0  0  0
   -3.7848    4.5164    2.1071 H   0  0  0  0  0  0  0  0  0  0  0  0
   -2.4813    2.7127   -1.5313 H   0  0  0  0  0  0  0  0  0  0  0  0
  1  2  2  0
  2  3  1  0
  3  4  1  0
  4  5  1  0
  5  6  1  0
  6  7  1  0
  7  8  1  0
  8  9  1  0
  9 10  1  0
 10 11  1  0
 11 12  1  0
 12 13  1  0
  7 14  1  0
 14 15  1  0
  2 16  1  0
 16 17  1  0
 17 18  2  0
 18 19  1  0
 19 20  2  0
 20 21  1  0
 21 22  2  0
 22 23  1  0
 23 24  1  0
 24 25  2  0
 25 26  1  0
 26 27  2  0
 27 28  1  0
 27 29  1  0
 29 30  2  0
 15  4  1  0
 30 16  1  0
 22 17  1  0
 30 24  1  0
  3 31  1  0
  3 32  1  0
  5 33  1  0
  5 34  1  0
  6 35  1  0
  6 36  1  0
  8 37  1  0
  8 38  1  0
  9 39  1  0
  9 40  1  0
 11 41  1  0
 11 42  1  0
 12 43  1  0
 12 44  1  0
 13 45  1  0
 14 46  1  0
 14 47  1  0
 15 48  1  0
 15 49  1  0
 18 50  1  0
 19 51  1  0
 20 52  1  0
 21 53  1  0
 25 54  1  0
 26 55  1  0
 29 56  1  0
M  END
$$$$
