
     RDKit          3D

 70 72  0  0  0  0  0  0  0  0999 V2000
   -3.1742    1.0730    3.2428 C   0  0  0  0  0  0  0  0  0  0  0  0
   -3.4554   -0.1887    2.3836 C   0  0  0  0  0  0  0  0  0  0  0  0
   -3.3381   -1.3939    3.3416 C   0  0  0  0  0  0  0  0  0  0  0  0
   -4.9143   -0.0481    1.8923 C   0  0  0  0  0  0  0  0  0  0  0  0
   -2.4894   -0.3513    1.1840 C   0  0  0  0  0  0  0  0  0  0  0  0
   -1.4349    0.5566    0.9823 C   0  0  0  0  0  0  0  0  0  0  0  0
   -0.5590    0.4546   -0.1098 C   0  0  0  0  0  0  0  0  0  0  0  0
    0.5663    1.4871   -0.2881 C   0  0  0  0  0  0  0  0  0  0  0  0
    0.1921    2.4446   -1.4182 C   0  0  0  0  0  0  0  0  0  0  0  0
    0.5174    2.2104   -2.7607 C   0  0  0  0  0  0  0  0  0  0  0  0
    0.1267    3.1185   -3.7405 C   0  0  0  0  0  0  0  0  0  0  0  0
   -0.5854    4.2391   -3.3490 C   0  0  0  0  0  0  0  0  0  0  0  0
   -0.9266    4.5025   -2.0701 N   0  0  0  0  0  0  0  0  0  0  0  0
   -0.5415    3.5971   -1.1411 C   0  0  0  0  0  0  0  0  0  0  0  0
    1.9159    0.8692   -0.4553 N   0  0  0  0  0  0  0  0  0  0  0  0
    3.0029    1.8809   -0.4868 C   0  0  0  0  0  0  0  0  0  0  0  0
    3.8016    2.0238    0.8287 C   0  0  0  0  0  0  0  0  0  0  0  0
    4.4317    0.7742    1.3061 N   0  0  0  0  0  0  0  0  0  0  0  0
    5.8647    0.7206    0.9404 C   0  0  0  0  0  0  0  0  0  0  0  0
    6.5936   -0.4434    1.6302 C   0  0  0  0  0  0  0  0  0  0  0  0
    6.3498   -0.4022    3.0351 O   0  0  0  0  0  0  0  0  0  0  0  0
    3.6987   -0.4074    0.7952 C   0  0  0  0  0  0  0  0  0  0  0  0
    2.1907   -0.1360    0.6029 C   0  0  0  0  0  0  0  0  0  0  0  0
   -0.7555   -0.5787   -1.0399 C   0  0  0  0  0  0  0  0  0  0  0  0
   -1.7871   -1.5235   -0.9077 C   0  0  0  0  0  0  0  0  0  0  0  0
   -1.9886   -2.6260   -1.9755 C   0  0  0  0  0  0  0  0  0  0  0  0
   -1.7405   -4.0225   -1.3658 C   0  0  0  0  0  0  0  0  0  0  0  0
   -3.4144   -2.5574   -2.5686 C   0  0  0  0  0  0  0  0  0  0  0  0
   -1.0216   -2.5052   -3.1838 C   0  0  0  0  0  0  0  0  0  0  0  0
   -2.6180   -1.3908    0.2305 C   0  0  0  0  0  0  0  0  0  0  0  0
   -3.5927   -2.3296    0.4305 O   0  0  0  0  0  0  0  0  0  0  0  0
   -2.1765    1.0405    3.6960 H   0  0  0  0  0  0  0  0  0  0  0  0
   -3.8927    1.1595    4.0673 H   0  0  0  0  0  0  0  0  0  0  0  0
   -3.2562    1.9919    2.6505 H   0  0  0  0  0  0  0  0  0  0  0  0
   -3.9338   -1.2359    4.2487 H   0  0  0  0  0  0  0  0  0  0  0  0
   -2.2981   -1.5522    3.6504 H   0  0  0  0  0  0  0  0  0  0  0  0
   -3.6962   -2.3263    2.8979 H   0  0  0  0  0  0  0  0  0  0  0  0
   -5.2914   -0.9529    1.4080 H   0  0  0  0  0  0  0  0  0  0  0  0
   -5.0092    0.7746    1.1736 H   0  0  0  0  0  0  0  0  0  0  0  0
   -5.5933    0.1605    2.7278 H   0  0  0  0  0  0  0  0  0  0  0  0
   -1.2723    1.3765    1.6758 H   0  0  0  0  0  0  0  0  0  0  0  0
    0.6188    2.0837    0.6352 H   0  0  0  0  0  0  0  0  0  0  0  0
    1.0769    1.3222   -3.0436 H   0  0  0  0  0  0  0  0  0  0  0  0
    0.3700    2.9538   -4.7839 H   0  0  0  0  0  0  0  0  0  0  0  0
   -0.9130    4.9760   -4.0765 H   0  0  0  0  0  0  0  0  0  0  0  0
   -0.8532    3.8379   -0.1281 H   0  0  0  0  0  0  0  0  0  0  0  0
    3.6992    1.5800   -1.2807 H   0  0  0  0  0  0  0  0  0  0  0  0
    2.6452    2.8738   -0.7803 H   0  0  0  0  0  0  0  0  0  0  0  0
    3.1138    2.3649    1.6137 H   0  0  0  0  0  0  0  0  0  0  0  0
    4.5386    2.8293    0.7219 H   0  0  0  0  0  0  0  0  0  0  0  0
    6.3416    1.6438    1.2935 H   0  0  0  0  0  0  0  0  0  0  0  0
    6.0053    0.6688   -0.1457 H   0  0  0  0  0  0  0  0  0  0  0  0
    7.6730   -0.3689    1.4674 H   0  0  0  0  0  0  0  0  0  0  0  0
    6.2580   -1.4131    1.2503 H   0  0  0  0  0  0  0  0  0  0  0  0
    5.4397   -0.0523    3.1214 H   0  0  0  0  0  0  0  0  0  0  0  0
    3.8174   -1.2314    1.5081 H   0  0  0  0  0  0  0  0  0  0  0  0
    4.1119   -0.7465   -0.1646 H   0  0  0  0  0  0  0  0  0  0  0  0
    1.7747    0.1808    1.5693 H   0  0  0  0  0  0  0  0  0  0  0  0
    1.7119   -1.0841    0.3340 H   0  0  0  0  0  0  0  0  0  0  0  0
   -0.0646   -0.6214   -1.8770 H   0  0  0  0  0  0  0  0  0  0  0  0
   -0.7585   -4.0721   -0.8809 H   0  0  0  0  0  0  0  0  0  0  0  0
   -1.7694   -4.8006   -2.1381 H   0  0  0  0  0  0  0  0  0  0  0  0
   -2.4909   -4.3006   -0.6215 H   0  0  0  0  0  0  0  0  0  0  0  0
   -3.5340   -3.2717   -3.3919 H   0  0  0  0  0  0  0  0  0  0  0  0
   -4.1927   -2.7966   -1.8389 H   0  0  0  0  0  0  0  0  0  0  0  0
   -3.6281   -1.5569   -2.9630 H   0  0  0  0  0  0  0  0  0  0  0  0
   -1.2153   -3.2890   -3.9264 H   0  0  0  0  0  0  0  0  0  0  0  0
   -1.1349   -1.5431   -3.6975 H   0  0  0  0  0  0  0  0  0  0  0  0
    0.0256   -2.6132   -2.8776 H   0  0  0  0  0  0  0  0  0  0  0  0
   -3.1625   -3.0374    0.9401 H   0  0  0  0  0  0  0  0  0  0  0  0
  1  2  1  0
  2  3  1  0
  2  4  1  0
  2  5  1  0
  5  6  2  0
  6  7  1  0
  7  8  1  0
  8  9  1  0
  9 10  2  0
 10 11  1  0
 11 12  2  0
 12 13  1  0
 13 14  2  0
  8 15  1  0
 15 16  1  0
 16 17  1  0
 17 18  1  0
 18 19  1  0
 19 20  1  0
 20 21  1  0
 18 22  1  0
 22 23  1  0
  7 24  2  0
 24 25  1  0
 25 26  1  0
 26 27  1  0
 26 28  1  0
 26 29  1  0
 25 30  2  0
 30 31  1  0
 30  5  1  0
 14  9  1  0
 23 15  1  0
  1 32  1  0
  1 33  1  0
  1 34  1  0
  3 35  1  0
  3 36  1  0
  3 37  1  0
  4 38  1  0
  4 39  1  0
  4 40  1  0
  6 41  1  0
  8 42  1  0
 10 43  1  0
 11 44  1  0
 12 45  1  0
 14 46  1  0
 16 47  1  0
 16 48  1  0
 17 49  1  0
 17 50  1  0
 19 51  1  0
 19 52  1  0
 20 53  1  0
 20 54  1  0
 21 55  1  0
 22 56  1  0
 22 57  1  0
 23 58  1  0
 23 59  1  0
 24 60  1  0
 27 61  1  0
 27 62  1  0
 27 63  1  0
 28 64  1  0
 28 65  1  0
 28 66  1  0
 29 67  1  0
 29 68  1  0
 29 69  1  0
 31 70  1  0
M  END
$$$$
