
     RDKit          3D

 48 49  0  0  0  0  0  0  0  0999 V2000
   -5.3398   -2.8940   -1.1354 C   0  0  0  0  0  0  0  0  0  0  0  0
   -4.2908   -1.8249   -1.0591 C   0  0  0  0  0  0  0  0  0  0  0  0
   -3.4178   -1.6098   -2.1307 C   0  0  0  0  0  0  0  0  0  0  0  0
   -2.4182   -0.6376   -2.0470 C   0  0  0  0  0  0  0  0  0  0  0  0
   -2.2683    0.1304   -0.8857 C   0  0  0  0  0  0  0  0  0  0  0  0
   -1.1803    1.1743   -0.7914 C   0  0  0  0  0  0  0  0  0  0  0  0
   -0.0048    0.7494    0.1006 C   0  0  0  0  0  0  0  0  0  0  0  0
    0.7285   -0.3879   -0.4495 N   0  0  0  0  0  0  0  0  0  0  0  0
    1.4240   -1.2252    0.3991 C   0  0  0  0  0  0  0  0  0  0  0  0
    1.3746   -1.1350    1.6210 O   0  0  0  0  0  0  0  0  0  0  0  0
    2.2971   -2.2404   -0.2517 C   0  0  0  0  0  0  0  0  0  0  0  0
    2.0215   -2.7377   -1.5324 C   0  0  0  0  0  0  0  0  0  0  0  0
    2.8641   -3.6925   -2.1065 C   0  0  0  0  0  0  0  0  0  0  0  0
    3.9758   -4.1573   -1.4034 C   0  0  0  0  0  0  0  0  0  0  0  0
    4.2451   -3.6762   -0.1224 C   0  0  0  0  0  0  0  0  0  0  0  0
    3.4051   -2.7228    0.4555 C   0  0  0  0  0  0  0  0  0  0  0  0
    0.9737    1.9331    0.1907 C   0  0  0  0  0  0  0  0  0  0  0  0
    1.8455    2.1335   -0.6543 O   0  0  0  0  0  0  0  0  0  0  0  0
    0.7433    2.7866    1.2459 N   0  0  0  0  0  0  0  0  0  0  0  0
    1.6461    3.9014    1.5358 C   0  0  0  0  0  0  0  0  0  0  0  0
    1.3280    5.1024    0.6553 C   0  0  0  0  0  0  0  0  0  0  0  0
    1.5444    4.3019    3.0108 C   0  0  0  0  0  0  0  0  0  0  0  0
    2.1450    5.2102    3.5621 O   0  0  0  0  0  0  0  0  0  0  0  0
    0.6877    3.5286    3.7209 O   0  0  0  0  0  0  0  0  0  0  0  0
   -3.1341   -0.0954    0.1916 C   0  0  0  0  0  0  0  0  0  0  0  0
   -4.1326   -1.0686    0.1071 C   0  0  0  0  0  0  0  0  0  0  0  0
   -4.9322   -3.8443   -0.7772 H   0  0  0  0  0  0  0  0  0  0  0  0
   -6.2113   -2.6305   -0.5268 H   0  0  0  0  0  0  0  0  0  0  0  0
   -5.6905   -3.0243   -2.1646 H   0  0  0  0  0  0  0  0  0  0  0  0
   -3.5103   -2.1997   -3.0397 H   0  0  0  0  0  0  0  0  0  0  0  0
   -1.7550   -0.4889   -2.8957 H   0  0  0  0  0  0  0  0  0  0  0  0
   -1.6273    2.1027   -0.4109 H   0  0  0  0  0  0  0  0  0  0  0  0
   -0.8183    1.4192   -1.7993 H   0  0  0  0  0  0  0  0  0  0  0  0
   -0.3583    0.4950    1.1067 H   0  0  0  0  0  0  0  0  0  0  0  0
    1.1292   -0.2468   -1.3693 H   0  0  0  0  0  0  0  0  0  0  0  0
    1.1429   -2.4119   -2.0822 H   0  0  0  0  0  0  0  0  0  0  0  0
    2.6490   -4.0811   -3.0989 H   0  0  0  0  0  0  0  0  0  0  0  0
    4.6293   -4.9022   -1.8512 H   0  0  0  0  0  0  0  0  0  0  0  0
    5.1067   -4.0447    0.4285 H   0  0  0  0  0  0  0  0  0  0  0  0
    3.6167   -2.3538    1.4570 H   0  0  0  0  0  0  0  0  0  0  0  0
    0.2322    2.4270    2.0489 H   0  0  0  0  0  0  0  0  0  0  0  0
    2.6725    3.5577    1.3633 H   0  0  0  0  0  0  0  0  0  0  0  0
    0.3050    5.4565    0.8272 H   0  0  0  0  0  0  0  0  0  0  0  0
    1.4190    4.8537   -0.4070 H   0  0  0  0  0  0  0  0  0  0  0  0
    2.0067    5.9355    0.8671 H   0  0  0  0  0  0  0  0  0  0  0  0
    0.7537    3.8885    4.6320 H   0  0  0  0  0  0  0  0  0  0  0  0
   -3.0361    0.4800    1.1092 H   0  0  0  0  0  0  0  0  0  0  0  0
   -4.7864   -1.2338    0.9605 H   0  0  0  0  0  0  0  0  0  0  0  0
  1  2  1  0
  2  3  2  0
  3  4  1  0
  4  5  2  0
  5  6  1  0
  6  7  1  0
  7  8  1  0
  8  9  1  0
  9 10  2  0
  9 11  1  0
 11 12  2  0
 12 13  1  0
 13 14  2  0
 14 15  1  0
 15 16  2  0
  7 17  1  0
 17 18  2  0
 17 19  1  0
 19 20  1  0
 20 21  1  0
 20 22  1  0
 22 23  2  0
 22 24  1  0
  5 25  1  0
 25 26  2  0
 26  2  1  0
 16 11  1  0
  1 27  1  0
  1 28  1  0
  1 29  1  0
  3 30  1  0
  4 31  1  0
  6 32  1  0
  6 33  1  0
  7 34  1  0
  8 35  1  0
 12 36  1  0
 13 37  1  0
 14 38  1  0
 15 39  1  0
 16 40  1  0
 19 41  1  0
 20 42  1  0
 21 43  1  0
 21 44  1  0
 21 45  1  0
 24 46  1  0
 25 47  1  0
 26 48  1  0
M  END
$$$$
