
     RDKit          3D

 33 35  0  0  0  0  0  0  0  0999 V2000
   -4.1007   -0.5612    3.7517 C   0  0  0  0  0  0  0  0  0  0  0  0
   -2.9945   -0.3678    2.7264 C   0  0  0  0  0  0  0  0  0  0  0  0
   -3.3654   -0.8755    1.3777 C   0  0  0  0  0  0  0  0  0  0  0  0
   -4.4948   -1.4528    1.0078 N   0  0  0  0  0  0  0  0  0  0  0  0
   -4.4102   -1.7380   -0.3369 N   0  0  0  0  0  0  0  0  0  0  0  0
   -3.2297   -1.3399   -0.7394 C   0  0  0  0  0  0  0  0  0  0  0  0
   -2.5102   -0.8036    0.2969 N   0  0  0  0  0  0  0  0  0  0  0  0
   -1.2606   -0.2512    0.3008 N   0  0  0  0  0  0  0  0  0  0  0  0
   -0.5069   -0.4766   -0.7405 C   0  0  0  0  0  0  0  0  0  0  0  0
    0.8431    0.1736   -0.7626 C   0  0  0  0  0  0  0  0  0  0  0  0
    1.9414   -0.4303   -1.3850 C   0  0  0  0  0  0  0  0  0  0  0  0
    3.1912    0.2040   -1.3848 C   0  0  0  0  0  0  0  0  0  0  0  0
    3.3536    1.4407   -0.7597 C   0  0  0  0  0  0  0  0  0  0  0  0
    4.5127    2.1611   -0.6888 O   0  0  0  0  0  0  0  0  0  0  0  0
    5.6613    1.6021   -1.3138 C   0  0  0  0  0  0  0  0  0  0  0  0
    2.2582    2.0354   -0.1299 C   0  0  0  0  0  0  0  0  0  0  0  0
    1.0102    1.4076   -0.1255 C   0  0  0  0  0  0  0  0  0  0  0  0
   -0.8422   -1.4070   -1.9016 C   0  0  0  0  0  0  0  0  0  0  0  0
   -2.5918   -1.3757   -2.3345 S   0  0  0  0  0  0  0  0  0  0  0  0
   -5.0130   -0.0323    3.4556 H   0  0  0  0  0  0  0  0  0  0  0  0
   -4.3489   -1.6213    3.8722 H   0  0  0  0  0  0  0  0  0  0  0  0
   -3.7859   -0.1742    4.7261 H   0  0  0  0  0  0  0  0  0  0  0  0
   -2.0927   -0.8852    3.0742 H   0  0  0  0  0  0  0  0  0  0  0  0
   -2.7547    0.6999    2.6595 H   0  0  0  0  0  0  0  0  0  0  0  0
    1.8613   -1.4034   -1.8616 H   0  0  0  0  0  0  0  0  0  0  0  0
    4.0187   -0.2977   -1.8766 H   0  0  0  0  0  0  0  0  0  0  0  0
    5.5071    1.4866   -2.3917 H   0  0  0  0  0  0  0  0  0  0  0  0
    5.9388    0.6501   -0.8494 H   0  0  0  0  0  0  0  0  0  0  0  0
    6.4930    2.2983   -1.1690 H   0  0  0  0  0  0  0  0  0  0  0  0
    2.3781    2.9971    0.3644 H   0  0  0  0  0  0  0  0  0  0  0  0
    0.1749    1.8934    0.3742 H   0  0  0  0  0  0  0  0  0  0  0  0
   -0.2804   -1.1307   -2.7978 H   0  0  0  0  0  0  0  0  0  0  0  0
   -0.5613   -2.4259   -1.6141 H   0  0  0  0  0  0  0  0  0  0  0  0
  1  2  1  0
  2  3  1  0
  3  4  2  0
  4  5  1  0
  5  6  2  0
  6  7  1  0
  7  8  1  0
  8  9  2  0
  9 10  1  0
 10 11  2  0
 11 12  1  0
 12 13  2  0
 13 14  1  0
 14 15  1  0
 13 16  1  0
 16 17  2  0
  9 18  1  0
 18 19  1  0
  7  3  1  0
 17 10  1  0
 19  6  1  0
  1 20  1  0
  1 21  1  0
  1 22  1  0
  2 23  1  0
  2 24  1  0
 11 25  1  0
 12 26  1  0
 15 27  1  0
 15 28  1  0
 15 29  1  0
 16 30  1  0
 17 31  1  0
 18 32  1  0
 18 33  1  0
M  END
$$$$
