
     RDKit          3D

 44 46  0  0  0  0  0  0  0  0999 V2000
    8.7619   -0.5568   -0.4167 C   0  0  0  0  0  0  0  0  0  0  0  0
    7.9488    0.5643   -0.0906 O   0  0  0  0  0  0  0  0  0  0  0  0
    6.5987    0.3573   -0.0387 C   0  0  0  0  0  0  0  0  0  0  0  0
    5.8477    1.4885    0.2868 C   0  0  0  0  0  0  0  0  0  0  0  0
    4.4523    1.4280    0.3771 C   0  0  0  0  0  0  0  0  0  0  0  0
    3.7857    0.2241    0.1414 C   0  0  0  0  0  0  0  0  0  0  0  0
    2.4277    0.0585    0.2028 O   0  0  0  0  0  0  0  0  0  0  0  0
    1.6340    1.1822    0.5752 C   0  0  0  0  0  0  0  0  0  0  0  0
    0.2253    0.7262    0.6053 C   0  0  0  0  0  0  0  0  0  0  0  0
   -0.4006   -0.4773    0.8156 C   0  0  0  0  0  0  0  0  0  0  0  0
   -1.7905   -0.1957    0.7101 C   0  0  0  0  0  0  0  0  0  0  0  0
   -2.8796   -1.1689    0.9072 C   0  0  0  0  0  0  0  0  0  0  0  0
   -2.6529   -2.1797    1.5766 O   0  0  0  0  0  0  0  0  0  0  0  0
   -4.1512   -0.9562    0.3327 N   0  0  0  0  0  0  0  0  0  0  0  0
   -5.2478   -1.7686    0.8479 C   0  0  0  0  0  0  0  0  0  0  0  0
   -4.4535    0.1182   -0.6448 C   0  0  0  0  0  0  0  0  0  0  0  0
   -5.5055   -0.2208   -1.6874 C   0  0  0  0  0  0  0  0  0  0  0  0
   -6.8042    0.2846   -1.0951 C   0  0  0  0  0  0  0  0  0  0  0  0
   -6.4832    1.2565   -0.0951 O   0  0  0  0  0  0  0  0  0  0  0  0
   -5.0528    1.3634    0.0064 C   0  0  0  0  0  0  0  0  0  0  0  0
   -1.9759    1.1183    0.4915 N   0  0  0  0  0  0  0  0  0  0  0  0
   -0.7195    1.6827    0.4097 O   0  0  0  0  0  0  0  0  0  0  0  0
    4.5462   -0.9105   -0.1870 C   0  0  0  0  0  0  0  0  0  0  0  0
    3.7876   -2.4372   -0.4931 Cl  0  0  0  0  0  0  0  0  0  0  0  0
    5.9424   -0.8472   -0.2766 C   0  0  0  0  0  0  0  0  0  0  0  0
    9.8047   -0.2251   -0.4147 H   0  0  0  0  0  0  0  0  0  0  0  0
    8.6622   -1.3480    0.3337 H   0  0  0  0  0  0  0  0  0  0  0  0
    8.5330   -0.9313   -1.4200 H   0  0  0  0  0  0  0  0  0  0  0  0
    6.3568    2.4325    0.4726 H   0  0  0  0  0  0  0  0  0  0  0  0
    3.9270    2.3425    0.6318 H   0  0  0  0  0  0  0  0  0  0  0  0
    1.9146    1.5383    1.5731 H   0  0  0  0  0  0  0  0  0  0  0  0
    1.7465    1.9849   -0.1627 H   0  0  0  0  0  0  0  0  0  0  0  0
    0.0654   -1.4317    1.0164 H   0  0  0  0  0  0  0  0  0  0  0  0
   -5.9920   -1.1129    1.3076 H   0  0  0  0  0  0  0  0  0  0  0  0
   -4.9214   -2.4802    1.6108 H   0  0  0  0  0  0  0  0  0  0  0  0
   -5.6978   -2.3370    0.0306 H   0  0  0  0  0  0  0  0  0  0  0  0
   -3.5254    0.3547   -1.1709 H   0  0  0  0  0  0  0  0  0  0  0  0
   -5.2983    0.3555   -2.5987 H   0  0  0  0  0  0  0  0  0  0  0  0
   -5.5455   -1.2730   -1.9821 H   0  0  0  0  0  0  0  0  0  0  0  0
   -7.3735   -0.5188   -0.6181 H   0  0  0  0  0  0  0  0  0  0  0  0
   -7.4466    0.7446   -1.8523 H   0  0  0  0  0  0  0  0  0  0  0  0
   -4.7784    1.4906    1.0576 H   0  0  0  0  0  0  0  0  0  0  0  0
   -4.7597    2.2648   -0.5432 H   0  0  0  0  0  0  0  0  0  0  0  0
    6.4870   -1.7494   -0.5325 H   0  0  0  0  0  0  0  0  0  0  0  0
  1  2  1  0
  2  3  1  0
  3  4  2  0
  4  5  1  0
  5  6  2  0
  6  7  1  0
  7  8  1  0
  8  9  1  0
  9 10  2  0
 10 11  1  0
 11 12  1  0
 12 13  2  0
 12 14  1  0
 14 15  1  0
 14 16  1  0
 16 17  1  0
 17 18  1  0
 18 19  1  0
 19 20  1  0
 11 21  2  0
 21 22  1  0
  6 23  1  0
 23 24  1  0
 23 25  2  0
 25  3  1  0
 22  9  1  0
 20 16  1  0
  1 26  1  0
  1 27  1  0
  1 28  1  0
  4 29  1  0
  5 30  1  0
  8 31  1  0
  8 32  1  0
 10 33  1  0
 15 34  1  0
 15 35  1  0
 15 36  1  0
 16 37  1  0
 17 38  1  0
 17 39  1  0
 18 40  1  0
 18 41  1  0
 20 42  1  0
 20 43  1  0
 25 44  1  0
M  END
$$$$
