
     RDKit          3D

 53 55  0  0  0  0  0  0  0  0999 V2000
   -7.1914    0.6161   -2.2933 C   0  0  0  0  0  0  0  0  0  0  0  0
   -6.6397    1.9228   -2.2355 O   0  0  0  0  0  0  0  0  0  0  0  0
   -5.2713    2.0361   -2.2533 C   0  0  0  0  0  0  0  0  0  0  0  0
   -4.3890    0.9542   -2.3273 C   0  0  0  0  0  0  0  0  0  0  0  0
   -3.0073    1.1671   -2.3441 C   0  0  0  0  0  0  0  0  0  0  0  0
   -2.4882    2.4624   -2.2787 C   0  0  0  0  0  0  0  0  0  0  0  0
   -1.0440    2.7171   -2.3499 C   0  0  0  0  0  0  0  0  0  0  0  0
   -0.0821    2.1915   -1.5746 C   0  0  0  0  0  0  0  0  0  0  0  0
   -0.3116    1.2868   -0.4132 C   0  0  0  0  0  0  0  0  0  0  0  0
   -1.2586    1.4467    0.3417 O   0  0  0  0  0  0  0  0  0  0  0  0
    0.6727    0.3218   -0.3341 N   0  0  0  0  0  0  0  0  0  0  0  0
    0.7818   -0.7095    0.6224 C   0  0  0  0  0  0  0  0  0  0  0  0
   -0.1360   -0.9197    1.6558 C   0  0  0  0  0  0  0  0  0  0  0  0
    0.0328   -1.9743    2.5619 C   0  0  0  0  0  0  0  0  0  0  0  0
    1.1263   -2.8285    2.4496 C   0  0  0  0  0  0  0  0  0  0  0  0
    2.0499   -2.6120    1.4280 C   0  0  0  0  0  0  0  0  0  0  0  0
    3.4574   -3.6758    1.2526 S   0  0  0  0  0  6  0  0  0  0  0  0
    3.5981   -3.9782   -0.1560 O   0  0  0  0  0  0  0  0  0  0  0  0
    3.3744   -4.7278    2.2434 O   0  0  0  0  0  0  0  0  0  0  0  0
    4.7355   -2.6508    1.6967 N   0  0  0  0  0  0  0  0  0  0  0  0
    4.7551   -2.1507    3.0996 C   0  0  0  0  0  0  0  0  0  0  0  0
    6.1492   -2.4690    3.6243 C   0  0  0  0  0  0  0  0  0  0  0  0
    6.9994   -2.4735    2.3706 C   0  0  0  0  0  0  0  0  0  0  0  0
    6.0896   -3.1684    1.3705 C   0  0  0  0  0  0  0  0  0  0  0  0
    1.8802   -1.5677    0.5109 C   0  0  0  0  0  0  0  0  0  0  0  0
   -3.3699    3.5490   -2.2138 C   0  0  0  0  0  0  0  0  0  0  0  0
   -4.7562    3.3459   -2.1890 C   0  0  0  0  0  0  0  0  0  0  0  0
   -5.6832    4.3585   -2.1282 O   0  0  0  0  0  0  0  0  0  0  0  0
   -5.2115    5.6532   -1.7848 C   0  0  0  0  0  0  0  0  0  0  0  0
   -8.2812    0.7119   -2.2706 H   0  0  0  0  0  0  0  0  0  0  0  0
   -6.9223    0.1145   -3.2285 H   0  0  0  0  0  0  0  0  0  0  0  0
   -6.8925    0.0214   -1.4239 H   0  0  0  0  0  0  0  0  0  0  0  0
   -4.7415   -0.0704   -2.3713 H   0  0  0  0  0  0  0  0  0  0  0  0
   -2.3449    0.3072   -2.4064 H   0  0  0  0  0  0  0  0  0  0  0  0
   -0.7525    3.4122   -3.1353 H   0  0  0  0  0  0  0  0  0  0  0  0
    0.9511    2.4657   -1.7594 H   0  0  0  0  0  0  0  0  0  0  0  0
    1.3847    0.3307   -1.0529 H   0  0  0  0  0  0  0  0  0  0  0  0
   -1.0075   -0.2831    1.7818 H   0  0  0  0  0  0  0  0  0  0  0  0
   -0.6995   -2.1250    3.3523 H   0  0  0  0  0  0  0  0  0  0  0  0
    1.2475   -3.6491    3.1527 H   0  0  0  0  0  0  0  0  0  0  0  0
    3.9902   -2.6023    3.7363 H   0  0  0  0  0  0  0  0  0  0  0  0
    4.5865   -1.0684    3.0753 H   0  0  0  0  0  0  0  0  0  0  0  0
    6.1576   -3.4631    4.0875 H   0  0  0  0  0  0  0  0  0  0  0  0
    6.4907   -1.7440    4.3684 H   0  0  0  0  0  0  0  0  0  0  0  0
    7.9516   -2.9940    2.5035 H   0  0  0  0  0  0  0  0  0  0  0  0
    7.2067   -1.4459    2.0490 H   0  0  0  0  0  0  0  0  0  0  0  0
    6.3623   -2.9189    0.3414 H   0  0  0  0  0  0  0  0  0  0  0  0
    6.1370   -4.2545    1.5086 H   0  0  0  0  0  0  0  0  0  0  0  0
    2.6142   -1.4364   -0.2809 H   0  0  0  0  0  0  0  0  0  0  0  0
   -2.9536    4.5503   -2.1820 H   0  0  0  0  0  0  0  0  0  0  0  0
   -6.0828    6.2995   -1.6421 H   0  0  0  0  0  0  0  0  0  0  0  0
   -4.6131    6.0787   -2.5967 H   0  0  0  0  0  0  0  0  0  0  0  0
   -4.6506    5.6396   -0.8441 H   0  0  0  0  0  0  0  0  0  0  0  0
  1  2  1  0
  2  3  1  0
  3  4  2  0
  4  5  1  0
  5  6  2  0
  6  7  1  0
  7  8  2  3
  8  9  1  0
  9 10  2  0
  9 11  1  0
 11 12  1  0
 12 13  2  0
 13 14  1  0
 14 15  2  0
 15 16  1  0
 16 17  1  0
 17 18  2  0
 17 19  2  0
 17 20  1  0
 20 21  1  0
 21 22  1  0
 22 23  1  0
 23 24  1  0
 16 25  2  0
  6 26  1  0
 26 27  2  0
 27 28  1  0
 28 29  1  0
 27  3  1  0
 25 12  1  0
 24 20  1  0
  1 30  1  0
  1 31  1  0
  1 32  1  0
  4 33  1  0
  5 34  1  0
  7 35  1  0
  8 36  1  0
 11 37  1  0
 13 38  1  0
 14 39  1  0
 15 40  1  0
 21 41  1  0
 21 42  1  0
 22 43  1  0
 22 44  1  0
 23 45  1  0
 23 46  1  0
 24 47  1  0
 24 48  1  0
 25 49  1  0
 26 50  1  0
 29 51  1  0
 29 52  1  0
 29 53  1  0
M  END
$$$$
