
     RDKit          3D

 44 45  0  0  0  0  0  0  0  0999 V2000
   -3.3564   -3.0106   -2.7263 C   0  0  0  0  0  0  0  0  0  0  0  0
   -2.3874   -2.4436   -1.8513 O   0  0  0  0  0  0  0  0  0  0  0  0
   -2.8267   -1.5227   -0.9301 C   0  0  0  0  0  0  0  0  0  0  0  0
   -4.1743   -1.2697   -0.6479 C   0  0  0  0  0  0  0  0  0  0  0  0
   -4.5379   -0.3113    0.3063 C   0  0  0  0  0  0  0  0  0  0  0  0
   -5.8377   -0.0224    0.6454 O   0  0  0  0  0  0  0  0  0  0  0  0
   -6.8542   -0.3968   -0.2761 C   0  0  0  0  0  0  0  0  0  0  0  0
   -3.5438    0.3923    1.0123 C   0  0  0  0  0  0  0  0  0  0  0  0
   -3.9891    1.3045    1.9350 O   0  0  0  0  0  0  0  0  0  0  0  0
   -3.0294    1.8896    2.8049 C   0  0  0  0  0  0  0  0  0  0  0  0
   -2.1986    0.1440    0.7345 C   0  0  0  0  0  0  0  0  0  0  0  0
   -1.8434   -0.8123   -0.2275 C   0  0  0  0  0  0  0  0  0  0  0  0
   -0.4102   -1.0669   -0.4975 C   0  0  0  0  0  0  0  0  0  0  0  0
    0.5273   -0.3554    0.0525 N   0  0  0  0  0  0  0  0  0  0  0  0
    1.8048   -0.6935   -0.2728 N   0  0  0  0  0  0  0  0  0  0  0  0
    2.8424    0.0855    0.2264 C   0  0  0  0  0  0  0  0  0  0  0  0
    2.7120    1.0598    0.9656 O   0  0  0  0  0  0  0  0  0  0  0  0
    4.2140   -0.3736   -0.2148 C   0  0  0  0  0  0  0  0  0  0  0  0
    5.2417    0.6066    0.2047 N   0  0  0  0  0  4  0  0  0  0  0  0
    5.8302    0.4828    1.4173 C   0  0  0  0  0  0  0  0  0  0  0  0
    6.7824    1.4017    1.8417 C   0  0  0  0  0  0  0  0  0  0  0  0
    7.1134    2.4688    1.0172 C   0  0  0  0  0  0  0  0  0  0  0  0
    6.4838    2.6001   -0.2130 C   0  0  0  0  0  0  0  0  0  0  0  0
    5.5434    1.6523   -0.6030 C   0  0  0  0  0  0  0  0  0  0  0  0
   -3.9291   -2.2356   -3.2490 H   0  0  0  0  0  0  0  0  0  0  0  0
   -2.8196   -3.5897   -3.4827 H   0  0  0  0  0  0  0  0  0  0  0  0
   -4.0162   -3.6972   -2.1868 H   0  0  0  0  0  0  0  0  0  0  0  0
   -4.9482   -1.8303   -1.1541 H   0  0  0  0  0  0  0  0  0  0  0  0
   -7.7909    0.0673    0.0501 H   0  0  0  0  0  0  0  0  0  0  0  0
   -7.0017   -1.4840   -0.2731 H   0  0  0  0  0  0  0  0  0  0  0  0
   -6.6336   -0.0325   -1.2868 H   0  0  0  0  0  0  0  0  0  0  0  0
   -2.3682    2.5727    2.2601 H   0  0  0  0  0  0  0  0  0  0  0  0
   -2.4554    1.1244    3.3402 H   0  0  0  0  0  0  0  0  0  0  0  0
   -3.5729    2.4774    3.5535 H   0  0  0  0  0  0  0  0  0  0  0  0
   -1.4121    0.6827    1.2552 H   0  0  0  0  0  0  0  0  0  0  0  0
   -0.1660   -1.8910   -1.1905 H   0  0  0  0  0  0  0  0  0  0  0  0
    1.9486   -1.4997   -0.8753 H   0  0  0  0  0  0  0  0  0  0  0  0
    4.2585   -0.4772   -1.3023 H   0  0  0  0  0  0  0  0  0  0  0  0
    4.4535   -1.3384    0.2448 H   0  0  0  0  0  0  0  0  0  0  0  0
    5.5216   -0.3462    2.0516 H   0  0  0  0  0  0  0  0  0  0  0  0
    7.2494    1.3006    2.8206 H   0  0  0  0  0  0  0  0  0  0  0  0
    7.8457    3.2061    1.3436 H   0  0  0  0  0  0  0  0  0  0  0  0
    6.7160    3.4474   -0.8567 H   0  0  0  0  0  0  0  0  0  0  0  0
    5.0146    1.7341   -1.5482 H   0  0  0  0  0  0  0  0  0  0  0  0
  1  2  1  0
  2  3  1  0
  3  4  2  0
  4  5  1  0
  5  6  1  0
  6  7  1  0
  5  8  2  0
  8  9  1  0
  9 10  1  0
  8 11  1  0
 11 12  2  0
 12 13  1  0
 13 14  2  3
 14 15  1  0
 15 16  1  0
 16 17  2  0
 16 18  1  0
 18 19  1  0
 19 20  2  0
 20 21  1  0
 21 22  2  0
 22 23  1  0
 23 24  2  0
 12  3  1  0
 24 19  1  0
  1 25  1  0
  1 26  1  0
  1 27  1  0
  4 28  1  0
  7 29  1  0
  7 30  1  0
  7 31  1  0
 10 32  1  0
 10 33  1  0
 10 34  1  0
 11 35  1  0
 13 36  1  0
 15 37  1  0
 18 38  1  0
 18 39  1  0
 20 40  1  0
 21 41  1  0
 22 42  1  0
 23 43  1  0
 24 44  1  0
M  CHG  1  19   1
M  END
$$$$
