
     RDKit          3D

 55 57  0  0  0  0  0  0  0  0999 V2000
   -4.6517   -2.9067   -1.0019 C   0  0  0  0  0  0  0  0  0  0  0  0
   -3.4527   -1.9820   -1.1773 C   0  0  0  0  0  0  0  0  0  0  0  0
   -2.5881   -1.7122    0.0885 C   0  0  0  0  0  0  0  0  0  0  0  0
   -1.9822   -3.0272    0.6067 C   0  0  0  0  0  0  0  0  0  0  0  0
   -3.4513   -1.0624    1.1861 C   0  0  0  0  0  0  0  0  0  0  0  0
   -1.5122   -0.7905   -0.3363 N   0  0  0  0  0  0  0  0  0  0  0  0
   -0.5435   -0.2555    0.5001 C   0  0  0  0  0  0  0  0  0  0  0  0
   -0.5218   -0.4623    1.7112 O   0  0  0  0  0  0  0  0  0  0  0  0
    0.4875    0.6509   -0.2381 C   0  0  0  0  0  0  0  0  0  0  0  0
    0.1949    2.1497   -0.1016 C   0  0  0  0  0  0  0  0  0  0  0  0
   -0.7039    2.6868    0.8353 C   0  0  0  0  0  0  0  0  0  0  0  0
   -0.9293    4.0656    0.9004 C   0  0  0  0  0  0  0  0  0  0  0  0
   -0.2692    4.9284    0.0282 C   0  0  0  0  0  0  0  0  0  0  0  0
    0.6156    4.4133   -0.9139 C   0  0  0  0  0  0  0  0  0  0  0  0
    0.8373    3.0401   -0.9732 C   0  0  0  0  0  0  0  0  0  0  0  0
    1.6797    2.5700   -1.9051 F   0  0  0  0  0  0  0  0  0  0  0  0
    1.8763    0.2204    0.0670 N   0  0  0  0  0  0  0  0  0  0  0  0
    2.4961   -0.8955   -0.5582 C   0  0  0  0  0  0  0  0  0  0  0  0
    3.6370   -1.2541   -0.2499 O   0  0  0  0  0  0  0  0  0  0  0  0
    1.8009   -1.7263   -1.5885 C   0  0  0  0  0  0  0  0  0  0  0  0
    2.3924   -2.8868   -2.1841 C   0  0  0  0  0  0  0  0  0  0  0  0
    1.4791   -3.3697   -3.0842 C   0  0  0  0  0  0  0  0  0  0  0  0
    0.4194   -2.5271   -3.0084 N   0  0  0  0  0  0  0  0  0  0  0  0
    0.5643   -1.5452   -2.0980 N   0  0  0  0  0  0  0  0  0  0  0  0
    2.6359    0.9622    1.0455 C   0  0  0  0  0  0  0  0  0  0  0  0
    2.0736    1.3789    2.2584 C   0  0  0  0  0  0  0  0  0  0  0  0
    2.8132    2.1283    3.1797 C   0  0  0  0  0  0  0  0  0  0  0  0
    4.1309    2.4751    2.9020 C   0  0  0  0  0  0  0  0  0  0  0  0
    4.7113    2.0654    1.7070 C   0  0  0  0  0  0  0  0  0  0  0  0
    3.9708    1.3147    0.7894 C   0  0  0  0  0  0  0  0  0  0  0  0
   -5.3974   -2.4807   -0.3254 H   0  0  0  0  0  0  0  0  0  0  0  0
   -4.3563   -3.8885   -0.6260 H   0  0  0  0  0  0  0  0  0  0  0  0
   -5.1403   -3.0661   -1.9688 H   0  0  0  0  0  0  0  0  0  0  0  0
   -3.8155   -1.0261   -1.5795 H   0  0  0  0  0  0  0  0  0  0  0  0
   -2.8122   -2.4090   -1.9604 H   0  0  0  0  0  0  0  0  0  0  0  0
   -2.7552   -3.7187    0.9597 H   0  0  0  0  0  0  0  0  0  0  0  0
   -1.2984   -2.8629    1.4456 H   0  0  0  0  0  0  0  0  0  0  0  0
   -1.4067   -3.5316   -0.1791 H   0  0  0  0  0  0  0  0  0  0  0  0
   -3.8380   -0.0877    0.8572 H   0  0  0  0  0  0  0  0  0  0  0  0
   -4.3018   -1.6931    1.4641 H   0  0  0  0  0  0  0  0  0  0  0  0
   -2.8827   -0.8926    2.1075 H   0  0  0  0  0  0  0  0  0  0  0  0
   -1.1366   -0.9627   -1.2672 H   0  0  0  0  0  0  0  0  0  0  0  0
    0.3407    0.5122   -1.3108 H   0  0  0  0  0  0  0  0  0  0  0  0
   -1.2336    2.0482    1.5397 H   0  0  0  0  0  0  0  0  0  0  0  0
   -1.6197    4.4647    1.6408 H   0  0  0  0  0  0  0  0  0  0  0  0
   -0.4434    5.9993    0.0856 H   0  0  0  0  0  0  0  0  0  0  0  0
    1.1375    5.0701   -1.6027 H   0  0  0  0  0  0  0  0  0  0  0  0
    3.3723   -3.2924   -1.9686 H   0  0  0  0  0  0  0  0  0  0  0  0
    1.4994   -4.2132   -3.7617 H   0  0  0  0  0  0  0  0  0  0  0  0
   -0.4378   -2.5672   -3.5460 H   0  0  0  0  0  0  0  0  0  0  0  0
    1.0628    1.1025    2.5371 H   0  0  0  0  0  0  0  0  0  0  0  0
    2.3564    2.4299    4.1191 H   0  0  0  0  0  0  0  0  0  0  0  0
    4.7045    3.0565    3.6175 H   0  0  0  0  0  0  0  0  0  0  0  0
    5.7419    2.3282    1.4814 H   0  0  0  0  0  0  0  0  0  0  0  0
    4.4497    1.0348   -0.1457 H   0  0  0  0  0  0  0  0  0  0  0  0
  1  2  1  0
  2  3  1  0
  3  4  1  0
  3  5  1  0
  3  6  1  0
  6  7  1  0
  7  8  2  0
  7  9  1  0
  9 10  1  0
 10 11  2  0
 11 12  1  0
 12 13  2  0
 13 14  1  0
 14 15  2  0
 15 16  1  0
  9 17  1  0
 17 18  1  0
 18 19  2  0
 18 20  1  0
 20 21  1  0
 21 22  2  0
 22 23  1  0
 23 24  1  0
 17 25  1  0
 25 26  2  0
 26 27  1  0
 27 28  2  0
 28 29  1  0
 29 30  2  0
 15 10  1  0
 24 20  2  0
 30 25  1  0
  1 31  1  0
  1 32  1  0
  1 33  1  0
  2 34  1  0
  2 35  1  0
  4 36  1  0
  4 37  1  0
  4 38  1  0
  5 39  1  0
  5 40  1  0
  5 41  1  0
  6 42  1  0
  9 43  1  0
 11 44  1  0
 12 45  1  0
 13 46  1  0
 14 47  1  0
 21 48  1  0
 22 49  1  0
 23 50  1  0
 26 51  1  0
 27 52  1  0
 28 53  1  0
 29 54  1  0
 30 55  1  0
M  END
$$$$
