
     RDKit          3D

 52 55  0  0  0  0  0  0  0  0999 V2000
    8.3807   -0.7230    1.5418 C   0  0  0  0  0  0  0  0  0  0  0  0
    7.6383   -1.5004    0.4724 C   0  0  0  0  0  0  0  0  0  0  0  0
    6.2469   -1.1771    0.5739 O   0  0  0  0  0  0  0  0  0  0  0  0
    5.4524   -1.7972   -0.3463 C   0  0  0  0  0  0  0  0  0  0  0  0
    5.8789   -2.5742   -1.1937 O   0  0  0  0  0  0  0  0  0  0  0  0
    4.0588   -1.4212   -0.1463 C   0  0  0  0  0  0  0  0  0  0  0  0
    2.8679   -2.4365   -0.8549 S   0  0  0  0  0  0  0  0  0  0  0  0
    1.5901   -1.5330   -0.2024 C   0  0  0  0  0  0  0  0  0  0  0  0
    0.3077   -1.8959   -0.4191 N   0  0  0  0  0  0  0  0  0  0  0  0
   -0.6000   -1.1284    0.1137 C   0  0  0  0  0  0  0  0  0  0  0  0
   -2.0717   -1.4400   -0.0776 C   0  0  0  0  0  0  0  0  0  0  0  0
   -2.5132   -2.8644   -0.9627 S   0  0  0  0  0  0  0  0  0  0  0  0
   -2.7074   -2.1836   -2.6350 C   0  0  0  0  0  0  0  0  0  0  0  0
   -1.4545   -1.5004   -3.1143 C   0  0  0  0  0  0  0  0  0  0  0  0
   -1.1767   -0.3230   -2.9339 O   0  0  0  0  0  0  0  0  0  0  0  0
   -0.6055   -2.3268   -3.7528 O   0  0  0  0  0  0  0  0  0  0  0  0
   -3.0012   -0.6331    0.4513 C   0  0  0  0  0  0  0  0  0  0  0  0
   -2.6219    0.5479    1.1852 C   0  0  0  0  0  0  0  0  0  0  0  0
   -3.6173    1.4824    1.7819 C   0  0  0  0  0  0  0  0  0  0  0  0
   -3.5002    1.8804    2.9398 O   0  0  0  0  0  0  0  0  0  0  0  0
   -4.7941    1.9115    0.9829 C   0  0  0  0  0  0  0  0  0  0  0  0
   -4.7440    1.9871   -0.4174 C   0  0  0  0  0  0  0  0  0  0  0  0
   -5.8737    2.3821   -1.1394 C   0  0  0  0  0  0  0  0  0  0  0  0
   -7.0520    2.7126   -0.4708 C   0  0  0  0  0  0  0  0  0  0  0  0
   -7.1014    2.6655    0.9218 C   0  0  0  0  0  0  0  0  0  0  0  0
   -5.9744    2.2807    1.6442 C   0  0  0  0  0  0  0  0  0  0  0  0
   -6.0960    2.2878    3.0082 O   0  0  0  0  0  0  0  0  0  0  0  0
   -1.3260    0.8122    1.4006 C   0  0  0  0  0  0  0  0  0  0  0  0
   -0.3055    0.0157    0.8806 N   0  0  0  0  0  0  0  0  0  0  0  0
    1.0260    0.3983    1.1349 C   0  0  0  0  0  0  0  0  0  0  0  0
    1.3346    1.3708    1.8214 O   0  0  0  0  0  0  0  0  0  0  0  0
    2.0342   -0.4538    0.5191 C   0  0  0  0  0  0  0  0  0  0  0  0
    3.4785   -0.3480    0.5321 C   0  0  0  0  0  0  0  0  0  0  0  0
    4.2333    0.7649    1.1962 C   0  0  0  0  0  0  0  0  0  0  0  0
    8.2288    0.3535    1.4106 H   0  0  0  0  0  0  0  0  0  0  0  0
    8.0020   -0.9787    2.5369 H   0  0  0  0  0  0  0  0  0  0  0  0
    9.4527   -0.9356    1.5060 H   0  0  0  0  0  0  0  0  0  0  0  0
    8.0137   -1.2174   -0.5173 H   0  0  0  0  0  0  0  0  0  0  0  0
    7.7807   -2.5753    0.6299 H   0  0  0  0  0  0  0  0  0  0  0  0
   -2.9699   -2.9882   -3.3292 H   0  0  0  0  0  0  0  0  0  0  0  0
   -3.5316   -1.4629   -2.6603 H   0  0  0  0  0  0  0  0  0  0  0  0
    0.2170   -1.8072   -3.8723 H   0  0  0  0  0  0  0  0  0  0  0  0
   -4.0592   -0.8631    0.3573 H   0  0  0  0  0  0  0  0  0  0  0  0
   -3.8335    1.7621   -0.9672 H   0  0  0  0  0  0  0  0  0  0  0  0
   -5.8335    2.4412   -2.2250 H   0  0  0  0  0  0  0  0  0  0  0  0
   -7.9303    3.0216   -1.0328 H   0  0  0  0  0  0  0  0  0  0  0  0
   -8.0133    2.9391    1.4465 H   0  0  0  0  0  0  0  0  0  0  0  0
   -5.1960    2.2066    3.3961 H   0  0  0  0  0  0  0  0  0  0  0  0
   -1.0183    1.6810    1.9822 H   0  0  0  0  0  0  0  0  0  0  0  0
    4.5138    0.4773    2.2140 H   0  0  0  0  0  0  0  0  0  0  0  0
    5.1384    1.0205    0.6365 H   0  0  0  0  0  0  0  0  0  0  0  0
    3.6466    1.6854    1.2434 H   0  0  0  0  0  0  0  0  0  0  0  0
  1  2  1  0
  2  3  1  0
  3  4  1  0
  4  5  2  0
  4  6  1  0
  6  7  1  0
  7  8  1  0
  8  9  1  0
  9 10  2  0
 10 11  1  0
 11 12  1  0
 12 13  1  0
 13 14  1  0
 14 15  2  0
 14 16  1  0
 11 17  2  0
 17 18  1  0
 18 19  1  0
 19 20  2  0
 19 21  1  0
 21 22  2  0
 22 23  1  0
 23 24  2  0
 24 25  1  0
 25 26  2  0
 26 27  1  0
 18 28  2  0
 28 29  1  0
 29 30  1  0
 30 31  2  0
 30 32  1  0
 32 33  1  0
 33 34  1  0
 33  6  2  0
 32  8  2  0
 29 10  1  0
 26 21  1  0
  1 35  1  0
  1 36  1  0
  1 37  1  0
  2 38  1  0
  2 39  1  0
 13 40  1  0
 13 41  1  0
 16 42  1  0
 17 43  1  0
 22 44  1  0
 23 45  1  0
 24 46  1  0
 25 47  1  0
 27 48  1  0
 28 49  1  0
 34 50  1  0
 34 51  1  0
 34 52  1  0
M  END
$$$$
