
     RDKit          3D

 53 56  0  0  0  0  0  0  0  0999 V2000
    7.6915    1.1969    1.1451 C   0  0  0  0  0  0  0  0  0  0  0  0
    7.3810    1.2130   -0.2432 O   0  0  0  0  0  0  0  0  0  0  0  0
    6.0625    1.3333   -0.5824 C   0  0  0  0  0  0  0  0  0  0  0  0
    5.8162    1.3619   -1.9564 C   0  0  0  0  0  0  0  0  0  0  0  0
    4.5127    1.4654   -2.4488 C   0  0  0  0  0  0  0  0  0  0  0  0
    3.4324    1.5260   -1.5646 C   0  0  0  0  0  0  0  0  0  0  0  0
    2.1375    1.6654   -1.9927 O   0  0  0  0  0  0  0  0  0  0  0  0
    1.8064    0.9096   -3.1526 C   0  0  0  0  0  0  0  0  0  0  0  0
    3.6719    1.5161   -0.1796 C   0  0  0  0  0  0  0  0  0  0  0  0
    2.5769    1.5543    0.7745 C   0  0  0  0  0  0  0  0  0  0  0  0
    2.3782    2.5960    1.6579 C   0  0  0  0  0  0  0  0  0  0  0  0
    1.0175    2.2541    2.6440 S   0  0  0  0  0  0  0  0  0  0  0  0
    0.8025    0.7775    1.8237 C   0  0  0  0  0  0  0  0  0  0  0  0
   -0.2029   -0.1035    2.1165 N   0  0  0  0  0  0  0  0  0  0  0  0
   -1.2118    0.0338    3.0441 C   0  0  0  0  0  0  0  0  0  0  0  0
   -1.3628    0.9691    3.8248 O   0  0  0  0  0  0  0  0  0  0  0  0
   -2.1473   -1.1622    3.0714 C   0  0  0  0  0  0  0  0  0  0  0  0
   -2.9562   -1.2603    1.8664 N   0  0  0  0  0  0  0  0  0  0  0  0
   -2.5158   -1.7628    0.6627 C   0  0  0  0  0  0  0  0  0  0  0  0
   -1.2677   -2.1967    0.5222 O   0  0  0  0  0  0  0  0  0  0  0  0
   -3.5605   -1.6813   -0.2317 C   0  0  0  0  0  0  0  0  0  0  0  0
   -4.6791   -1.1372    0.4682 C   0  0  0  0  0  0  0  0  0  0  0  0
   -4.2752   -0.8893    1.7623 C   0  0  0  0  0  0  0  0  0  0  0  0
   -4.9244   -0.3866    2.8032 O   0  0  0  0  0  0  0  0  0  0  0  0
   -6.0008   -0.8905   -0.1804 C   0  0  0  0  0  0  0  0  0  0  0  0
   -6.1173   -1.6295   -1.5228 C   0  0  0  0  0  0  0  0  0  0  0  0
   -4.8454   -1.4809   -2.3714 C   0  0  0  0  0  0  0  0  0  0  0  0
   -3.6184   -2.0829   -1.6686 C   0  0  0  0  0  0  0  0  0  0  0  0
    1.6752    0.5102    0.8802 N   0  0  0  0  0  0  0  0  0  0  0  0
    4.9897    1.4160    0.3046 C   0  0  0  0  0  0  0  0  0  0  0  0
    8.7768    1.0997    1.2436 H   0  0  0  0  0  0  0  0  0  0  0  0
    7.3982    2.1362    1.6261 H   0  0  0  0  0  0  0  0  0  0  0  0
    7.2346    0.3358    1.6446 H   0  0  0  0  0  0  0  0  0  0  0  0
    6.6489    1.3050   -2.6528 H   0  0  0  0  0  0  0  0  0  0  0  0
    4.3670    1.5099   -3.5236 H   0  0  0  0  0  0  0  0  0  0  0  0
    2.2233   -0.1029   -3.1141 H   0  0  0  0  0  0  0  0  0  0  0  0
    2.1331    1.4303   -4.0582 H   0  0  0  0  0  0  0  0  0  0  0  0
    0.7152    0.8205   -3.1943 H   0  0  0  0  0  0  0  0  0  0  0  0
    2.9421    3.5106    1.7703 H   0  0  0  0  0  0  0  0  0  0  0  0
   -0.2264   -0.9039    1.4896 H   0  0  0  0  0  0  0  0  0  0  0  0
   -1.5707   -2.0883    3.1737 H   0  0  0  0  0  0  0  0  0  0  0  0
   -2.8091   -1.0901    3.9408 H   0  0  0  0  0  0  0  0  0  0  0  0
   -1.1837   -2.5231   -0.3929 H   0  0  0  0  0  0  0  0  0  0  0  0
   -5.8217   -0.1618    2.5036 H   0  0  0  0  0  0  0  0  0  0  0  0
   -6.8152   -1.2071    0.4807 H   0  0  0  0  0  0  0  0  0  0  0  0
   -6.1135    0.1875   -0.3475 H   0  0  0  0  0  0  0  0  0  0  0  0
   -6.9820   -1.2478   -2.0755 H   0  0  0  0  0  0  0  0  0  0  0  0
   -6.3005   -2.6961   -1.3387 H   0  0  0  0  0  0  0  0  0  0  0  0
   -4.6703   -0.4158   -2.5715 H   0  0  0  0  0  0  0  0  0  0  0  0
   -4.9822   -1.9703   -3.3416 H   0  0  0  0  0  0  0  0  0  0  0  0
   -3.6665   -3.1788   -1.7249 H   0  0  0  0  0  0  0  0  0  0  0  0
   -2.7090   -1.7672   -2.1930 H   0  0  0  0  0  0  0  0  0  0  0  0
    5.1453    1.3830    1.3792 H   0  0  0  0  0  0  0  0  0  0  0  0
  1  2  1  0
  2  3  1  0
  3  4  2  0
  4  5  1  0
  5  6  2  0
  6  7  1  0
  7  8  1  0
  6  9  1  0
  9 10  1  0
 10 11  2  0
 11 12  1  0
 12 13  1  0
 13 14  1  0
 14 15  1  0
 15 16  2  0
 15 17  1  0
 17 18  1  0
 18 19  1  0
 19 20  1  0
 19 21  2  0
 21 22  1  0
 22 23  2  0
 23 24  1  0
 22 25  1  0
 25 26  1  0
 26 27  1  0
 27 28  1  0
 13 29  2  0
  9 30  2  0
 30  3  1  0
 29 10  1  0
 23 18  1  0
 28 21  1  0
  1 31  1  0
  1 32  1  0
  1 33  1  0
  4 34  1  0
  5 35  1  0
  8 36  1  0
  8 37  1  0
  8 38  1  0
 11 39  1  0
 14 40  1  0
 17 41  1  0
 17 42  1  0
 20 43  1  0
 24 44  1  0
 25 45  1  0
 25 46  1  0
 26 47  1  0
 26 48  1  0
 27 49  1  0
 27 50  1  0
 28 51  1  0
 28 52  1  0
 30 53  1  0
M  END
$$$$
