
     RDKit          3D

 41 44  0  0  0  0  0  0  0  0999 V2000
    3.8472   -4.6913    2.4423 C   0  0  0  0  0  0  0  0  0  0  0  0
    2.8443   -3.6821    2.4555 O   0  0  0  0  0  0  0  0  0  0  0  0
    2.6212   -3.0126    1.2820 C   0  0  0  0  0  0  0  0  0  0  0  0
    3.2790   -3.2352    0.0769 C   0  0  0  0  0  0  0  0  0  0  0  0
    2.9549   -2.4942   -1.0646 C   0  0  0  0  0  0  0  0  0  0  0  0
    1.9561   -1.5203   -0.9525 C   0  0  0  0  0  0  0  0  0  0  0  0
    1.4418   -0.6818   -1.9045 N   0  0  0  0  0  0  0  0  0  0  0  0
    0.4403    0.1171   -1.3917 C   0  0  0  0  0  0  0  0  0  0  0  0
   -0.3606    1.0700   -2.0508 C   0  0  0  0  0  0  0  0  0  0  0  0
   -0.1960    1.3540   -3.5246 C   0  0  0  0  0  0  0  0  0  0  0  0
   -1.3509    1.7290   -1.2725 C   0  0  0  0  0  0  0  0  0  0  0  0
   -2.2361    2.6555   -1.8528 C   0  0  0  0  0  0  0  0  0  0  0  0
   -3.2106    3.2869   -1.0956 C   0  0  0  0  0  0  0  0  0  0  0  0
   -3.3246    3.0190    0.2152 N   0  0  0  0  0  4  0  0  0  0  0  0
   -4.3701    3.6761    1.0182 C   0  0  0  0  0  0  0  0  0  0  0  0
   -2.4946    2.1370    0.8119 C   0  0  0  0  0  0  0  0  0  0  0  0
   -1.4737    1.4670    0.1134 C   0  0  0  0  0  0  0  0  0  0  0  0
   -0.5871    0.5476    0.7626 C   0  0  0  0  0  0  0  0  0  0  0  0
   -0.6595    0.3339    2.2580 C   0  0  0  0  0  0  0  0  0  0  0  0
    0.3427   -0.1809   -0.0331 C   0  0  0  0  0  0  0  0  0  0  0  0
    1.2834   -1.2477    0.2340 C   0  0  0  0  0  0  0  0  0  0  0  0
    1.6254   -2.0272    1.3629 C   0  0  0  0  0  0  0  0  0  0  0  0
    4.8294   -4.2683    2.2068 H   0  0  0  0  0  0  0  0  0  0  0  0
    3.9019   -5.1209    3.4472 H   0  0  0  0  0  0  0  0  0  0  0  0
    3.5861   -5.4976    1.7490 H   0  0  0  0  0  0  0  0  0  0  0  0
    4.0537   -3.9900   -0.0172 H   0  0  0  0  0  0  0  0  0  0  0  0
    3.4654   -2.6803   -2.0049 H   0  0  0  0  0  0  0  0  0  0  0  0
    1.7477   -0.6784   -2.8663 H   0  0  0  0  0  0  0  0  0  0  0  0
    0.6362    0.7990   -3.9656 H   0  0  0  0  0  0  0  0  0  0  0  0
    0.0095    2.4174   -3.6855 H   0  0  0  0  0  0  0  0  0  0  0  0
   -1.1027    1.0687   -4.0680 H   0  0  0  0  0  0  0  0  0  0  0  0
   -2.1863    2.8979   -2.9125 H   0  0  0  0  0  0  0  0  0  0  0  0
   -3.9022    3.9996   -1.5356 H   0  0  0  0  0  0  0  0  0  0  0  0
   -4.8414    4.4732    0.4383 H   0  0  0  0  0  0  0  0  0  0  0  0
   -5.1074    2.9153    1.2869 H   0  0  0  0  0  0  0  0  0  0  0  0
   -3.8994    4.0999    1.9094 H   0  0  0  0  0  0  0  0  0  0  0  0
   -2.6832    1.9738    1.8675 H   0  0  0  0  0  0  0  0  0  0  0  0
    0.3098    0.0388    2.6639 H   0  0  0  0  0  0  0  0  0  0  0  0
   -1.4029   -0.4327    2.4942 H   0  0  0  0  0  0  0  0  0  0  0  0
   -0.9054    1.2577    2.7900 H   0  0  0  0  0  0  0  0  0  0  0  0
    1.1187   -1.8928    2.3122 H   0  0  0  0  0  0  0  0  0  0  0  0
  1  2  1  0
  2  3  1  0
  3  4  2  0
  4  5  1  0
  5  6  2  0
  6  7  1  0
  7  8  1  0
  8  9  2  0
  9 10  1  0
  9 11  1  0
 11 12  2  0
 12 13  1  0
 13 14  2  0
 14 15  1  0
 14 16  1  0
 16 17  2  0
 17 18  1  0
 18 19  1  0
 18 20  2  0
 20 21  1  0
 21 22  2  0
 22  3  1  0
 21  6  1  0
 20  8  1  0
 17 11  1  0
  1 23  1  0
  1 24  1  0
  1 25  1  0
  4 26  1  0
  5 27  1  0
  7 28  1  0
 10 29  1  0
 10 30  1  0
 10 31  1  0
 12 32  1  0
 13 33  1  0
 15 34  1  0
 15 35  1  0
 15 36  1  0
 16 37  1  0
 19 38  1  0
 19 39  1  0
 19 40  1  0
 22 41  1  0
M  CHG  1  14   1
M  END
$$$$
