
     RDKit          3D

 43 45  0  0  0  0  0  0  0  0999 V2000
    6.8986    0.7121   -1.2290 C   0  0  0  0  0  0  0  0  0  0  0  0
    5.8647    1.7900   -0.9421 C   0  0  0  0  0  0  0  0  0  0  0  0
    4.6502    1.2790   -0.1648 C   0  0  0  0  0  0  0  0  0  0  0  0
    3.8024    0.2802   -0.9575 C   0  0  0  0  0  0  0  0  0  0  0  0
    2.6093   -0.1445   -0.2282 N   0  0  0  0  0  0  0  0  0  0  0  0
    1.4655    0.7527   -0.2256 C   0  0  0  0  0  0  0  0  0  0  0  0
    0.2316    0.1342    0.3382 C   0  0  0  0  0  0  0  0  0  0  0  0
   -1.0434    0.6666    0.1306 C   0  0  0  0  0  0  0  0  0  0  0  0
   -2.1410    0.0722    0.7549 C   0  0  0  0  0  0  0  0  0  0  0  0
   -3.4882    0.6397    0.5555 C   0  0  0  0  0  0  0  0  0  0  0  0
   -3.6075    1.8622    0.4768 O   0  0  0  0  0  0  0  0  0  0  0  0
   -4.7093   -0.1996    0.4635 C   0  0  0  0  0  0  0  0  0  0  0  0
   -4.6593   -1.5121   -0.0189 C   0  0  0  0  0  0  0  0  0  0  0  0
   -5.8306   -2.2625   -0.0819 C   0  0  0  0  0  0  0  0  0  0  0  0
   -5.7762   -3.5202   -0.5382 F   0  0  0  0  0  0  0  0  0  0  0  0
   -7.0533   -1.7328    0.3152 C   0  0  0  0  0  0  0  0  0  0  0  0
   -7.1146   -0.4179    0.7714 C   0  0  0  0  0  0  0  0  0  0  0  0
   -5.9503    0.3470    0.8310 C   0  0  0  0  0  0  0  0  0  0  0  0
   -6.0953    1.6388    1.2605 O   0  0  0  0  0  0  0  0  0  0  0  0
   -1.9072   -0.9984    1.6071 C   0  0  0  0  0  0  0  0  0  0  0  0
   -0.6811   -1.5314    1.8239 N   0  0  0  0  0  0  0  0  0  0  0  0
    0.3555   -0.9577    1.1790 C   0  0  0  0  0  0  0  0  0  0  0  0
    1.6067   -1.5032    1.3831 N   0  0  0  0  0  0  0  0  0  0  0  0
    2.7324   -1.1581    0.7034 C   0  0  0  0  0  0  0  0  0  0  0  0
    3.7815   -1.7644    0.9111 O   0  0  0  0  0  0  0  0  0  0  0  0
    7.2155    0.2156   -0.3064 H   0  0  0  0  0  0  0  0  0  0  0  0
    7.7838    1.1561   -1.6958 H   0  0  0  0  0  0  0  0  0  0  0  0
    6.5090   -0.0460   -1.9145 H   0  0  0  0  0  0  0  0  0  0  0  0
    6.3434    2.5831   -0.3553 H   0  0  0  0  0  0  0  0  0  0  0  0
    5.5403    2.2455   -1.8848 H   0  0  0  0  0  0  0  0  0  0  0  0
    4.9792    0.8273    0.7790 H   0  0  0  0  0  0  0  0  0  0  0  0
    4.0328    2.1432    0.1085 H   0  0  0  0  0  0  0  0  0  0  0  0
    3.4847    0.7124   -1.9133 H   0  0  0  0  0  0  0  0  0  0  0  0
    4.3947   -0.6117   -1.1897 H   0  0  0  0  0  0  0  0  0  0  0  0
    1.2800    1.0603   -1.2610 H   0  0  0  0  0  0  0  0  0  0  0  0
    1.7267    1.6364    0.3674 H   0  0  0  0  0  0  0  0  0  0  0  0
   -1.1820    1.5409   -0.5021 H   0  0  0  0  0  0  0  0  0  0  0  0
   -3.7392   -1.9708   -0.3665 H   0  0  0  0  0  0  0  0  0  0  0  0
   -7.9506   -2.3411    0.2558 H   0  0  0  0  0  0  0  0  0  0  0  0
   -8.0657    0.0161    1.0697 H   0  0  0  0  0  0  0  0  0  0  0  0
   -5.2607    2.1209    1.0620 H   0  0  0  0  0  0  0  0  0  0  0  0
   -2.7049   -1.4717    2.1732 H   0  0  0  0  0  0  0  0  0  0  0  0
    1.6717   -2.2886    2.0129 H   0  0  0  0  0  0  0  0  0  0  0  0
  1  2  1  0
  2  3  1  0
  3  4  1  0
  4  5  1  0
  5  6  1  0
  6  7  1  0
  7  8  2  0
  8  9  1  0
  9 10  1  0
 10 11  2  0
 10 12  1  0
 12 13  2  0
 13 14  1  0
 14 15  1  0
 14 16  2  0
 16 17  1  0
 17 18  2  0
 18 19  1  0
  9 20  2  0
 20 21  1  0
 21 22  2  0
 22 23  1  0
 23 24  1  0
 24 25  2  0
 24  5  1  0
 22  7  1  0
 18 12  1  0
  1 26  1  0
  1 27  1  0
  1 28  1  0
  2 29  1  0
  2 30  1  0
  3 31  1  0
  3 32  1  0
  4 33  1  0
  4 34  1  0
  6 35  1  0
  6 36  1  0
  8 37  1  0
 13 38  1  0
 16 39  1  0
 17 40  1  0
 19 41  1  0
 20 42  1  0
 23 43  1  0
M  END
$$$$
