
     RDKit          3D

 40 40  0  0  0  0  0  0  0  0999 V2000
   -5.0700   -0.0026    0.5985 C   0  0  0  0  0  0  0  0  0  0  0  0
   -3.9714    0.8246   -0.0872 C   0  0  0  0  0  0  0  0  0  0  0  0
   -3.9093    0.4785   -1.5829 C   0  0  0  0  0  0  0  0  0  0  0  0
   -4.3232    2.3159    0.0564 C   0  0  0  0  0  0  0  0  0  0  0  0
   -2.6721    0.5982    0.5517 N   0  0  0  0  0  0  0  0  0  0  0  0
   -2.0219   -0.6132    0.6375 C   0  0  0  0  0  0  0  0  0  0  0  0
   -2.4185   -1.6926    0.2253 O   0  0  0  0  0  0  0  0  0  0  0  0
   -0.6495   -0.5182    1.3327 C   0  0  0  0  0  0  0  0  0  0  0  0
   -0.2108    0.5650    1.7011 O   0  0  0  0  0  0  0  0  0  0  0  0
   -0.0135   -1.7338    1.4665 N   0  0  0  0  0  0  0  0  0  0  0  0
    1.3435   -1.7414    1.8287 N   0  0  0  0  0  0  0  0  0  0  0  0
    2.1733   -2.6159    1.1492 C   0  0  0  0  0  0  0  0  0  0  0  0
    1.7551   -3.5261    0.4354 O   0  0  0  0  0  0  0  0  0  0  0  0
    3.6598   -2.3802    1.4067 C   0  0  0  0  0  0  0  0  0  0  0  0
    4.0029   -1.0170    1.6202 O   0  0  0  0  0  0  0  0  0  0  0  0
    4.0686   -0.1922    0.5304 C   0  0  0  0  0  0  0  0  0  0  0  0
    4.4158    1.1290    0.8266 C   0  0  0  0  0  0  0  0  0  0  0  0
    4.5082    2.0855   -0.1857 C   0  0  0  0  0  0  0  0  0  0  0  0
    4.2521    1.7247   -1.5056 C   0  0  0  0  0  0  0  0  0  0  0  0
    3.9050    0.4096   -1.8090 C   0  0  0  0  0  0  0  0  0  0  0  0
    3.8128   -0.5489   -0.7945 C   0  0  0  0  0  0  0  0  0  0  0  0
   -6.0566    0.2247    0.1790 H   0  0  0  0  0  0  0  0  0  0  0  0
   -4.9056   -1.0785    0.4798 H   0  0  0  0  0  0  0  0  0  0  0  0
   -5.1052    0.2054    1.6741 H   0  0  0  0  0  0  0  0  0  0  0  0
   -3.7110   -0.5858   -1.7470 H   0  0  0  0  0  0  0  0  0  0  0  0
   -3.1118    1.0396   -2.0835 H   0  0  0  0  0  0  0  0  0  0  0  0
   -4.8544    0.7166   -2.0840 H   0  0  0  0  0  0  0  0  0  0  0  0
   -5.2901    2.5461   -0.4047 H   0  0  0  0  0  0  0  0  0  0  0  0
   -3.5645    2.9482   -0.4196 H   0  0  0  0  0  0  0  0  0  0  0  0
   -4.3748    2.6093    1.1115 H   0  0  0  0  0  0  0  0  0  0  0  0
   -2.1563    1.3925    0.9252 H   0  0  0  0  0  0  0  0  0  0  0  0
   -0.3680   -2.5401    0.9453 H   0  0  0  0  0  0  0  0  0  0  0  0
    1.7316   -0.8425    2.1251 H   0  0  0  0  0  0  0  0  0  0  0  0
    3.9086   -2.9222    2.3263 H   0  0  0  0  0  0  0  0  0  0  0  0
    4.2632   -2.8259    0.6077 H   0  0  0  0  0  0  0  0  0  0  0  0
    4.6160    1.4184    1.8555 H   0  0  0  0  0  0  0  0  0  0  0  0
    4.7785    3.1095    0.0577 H   0  0  0  0  0  0  0  0  0  0  0  0
    4.3223    2.4665   -2.2970 H   0  0  0  0  0  0  0  0  0  0  0  0
    3.7041    0.1271   -2.8398 H   0  0  0  0  0  0  0  0  0  0  0  0
    3.5371   -1.5580   -1.0838 H   0  0  0  0  0  0  0  0  0  0  0  0
  1  2  1  0
  2  3  1  0
  2  4  1  0
  2  5  1  0
  5  6  1  0
  6  7  2  0
  6  8  1  0
  8  9  2  0
  8 10  1  0
 10 11  1  0
 11 12  1  0
 12 13  2  0
 12 14  1  0
 14 15  1  0
 15 16  1  0
 16 17  2  0
 17 18  1  0
 18 19  2  0
 19 20  1  0
 20 21  2  0
 21 16  1  0
  1 22  1  0
  1 23  1  0
  1 24  1  0
  3 25  1  0
  3 26  1  0
  3 27  1  0
  4 28  1  0
  4 29  1  0
  4 30  1  0
  5 31  1  0
 10 32  1  0
 11 33  1  0
 14 34  1  0
 14 35  1  0
 17 36  1  0
 18 37  1  0
 19 38  1  0
 20 39  1  0
 21 40  1  0
M  END
$$$$
