
     RDKit          3D

 30 32  0  0  0  0  0  0  0  0999 V2000
    4.0273    1.2810   -2.7837 O   0  0  0  0  0  0  0  0  0  0  0  0
    4.5400    0.7746   -1.7759 N   0  0  0  0  0  4  0  0  0  0  0  0
    5.7589    0.6408   -1.5986 O   0  0  0  0  0  1  0  0  0  0  0  0
    3.6390    0.3006   -0.7172 C   0  0  0  0  0  0  0  0  0  0  0  0
    4.1790   -0.1999    0.4750 C   0  0  0  0  0  0  0  0  0  0  0  0
    3.3230   -0.6443    1.4810 C   0  0  0  0  0  0  0  0  0  0  0  0
    1.9395   -0.5929    1.2938 C   0  0  0  0  0  0  0  0  0  0  0  0
    1.3943   -0.1025    0.0963 C   0  0  0  0  0  0  0  0  0  0  0  0
   -0.0938   -0.0528   -0.0545 C   0  0  0  0  0  0  0  0  0  0  0  0
   -0.8357   -0.0972    1.0213 N   0  0  0  0  0  0  0  0  0  0  0  0
   -2.2256    0.1064    0.9167 C   0  0  0  0  0  0  0  0  0  0  0  0
   -3.0514   -0.3699    1.9360 C   0  0  0  0  0  0  0  0  0  0  0  0
   -4.4266   -0.1261    1.9068 C   0  0  0  0  0  0  0  0  0  0  0  0
   -4.9850    0.6086    0.8606 C   0  0  0  0  0  0  0  0  0  0  0  0
   -4.1711    1.0984   -0.1614 C   0  0  0  0  0  0  0  0  0  0  0  0
   -2.7975    0.8461   -0.1332 C   0  0  0  0  0  0  0  0  0  0  0  0
   -1.7325    1.4183   -1.4440 S   0  0  0  0  0  0  0  0  0  0  0  0
   -0.6800    0.0444   -1.4435 C   0  0  0  0  0  0  0  0  0  0  0  0
   -0.4977   -0.7297   -2.4633 N   0  0  0  0  0  0  0  0  0  0  0  0
    0.3432   -1.8054   -2.1538 O   0  0  0  0  0  0  0  0  0  0  0  0
    2.2504    0.3574   -0.9123 C   0  0  0  0  0  0  0  0  0  0  0  0
    5.2547   -0.2461    0.6351 H   0  0  0  0  0  0  0  0  0  0  0  0
    3.7295   -1.0309    2.4134 H   0  0  0  0  0  0  0  0  0  0  0  0
    1.2857   -0.9438    2.0915 H   0  0  0  0  0  0  0  0  0  0  0  0
   -2.6165   -0.9261    2.7621 H   0  0  0  0  0  0  0  0  0  0  0  0
   -5.0600   -0.5030    2.7061 H   0  0  0  0  0  0  0  0  0  0  0  0
   -6.0552    0.8004    0.8419 H   0  0  0  0  0  0  0  0  0  0  0  0
   -4.6138    1.6668   -0.9753 H   0  0  0  0  0  0  0  0  0  0  0  0
    0.3290   -2.3282   -2.9794 H   0  0  0  0  0  0  0  0  0  0  0  0
    1.8488    0.7551   -1.8415 H   0  0  0  0  0  0  0  0  0  0  0  0
  1  2  2  0
  2  3  1  0
  2  4  1  0
  4  5  2  0
  5  6  1  0
  6  7  2  0
  7  8  1  0
  8  9  1  0
  9 10  2  0
 10 11  1  0
 11 12  2  0
 12 13  1  0
 13 14  2  0
 14 15  1  0
 15 16  2  0
 16 17  1  0
 17 18  1  0
 18 19  2  3
 19 20  1  0
  8 21  2  0
 21  4  1  0
 18  9  1  0
 16 11  1  0
  5 22  1  0
  6 23  1  0
  7 24  1  0
 12 25  1  0
 13 26  1  0
 14 27  1  0
 15 28  1  0
 20 29  1  0
 21 30  1  0
M  CHG  2   2   1   3  -1
M  END
$$$$
