
     RDKit          3D

 52 55  0  0  0  0  0  0  0  0999 V2000
   -3.6692    0.7797   -1.6705 C   0  0  0  0  0  0  0  0  0  0  0  0
   -3.3753    0.8599   -0.2779 O   0  0  0  0  0  0  0  0  0  0  0  0
   -4.4735    1.1547    0.5086 C   0  0  0  0  0  0  0  0  0  0  0  0
   -5.6531    1.3972   -0.1205 N   0  0  0  0  0  0  0  0  0  0  0  0
   -6.7186    1.6990    0.6514 C   0  0  0  0  0  0  0  0  0  0  0  0
   -6.6680    1.7754    2.0302 C   0  0  0  0  0  0  0  0  0  0  0  0
   -5.4500    1.5253    2.6561 C   0  0  0  0  0  0  0  0  0  0  0  0
   -4.3164    1.2044    1.8948 C   0  0  0  0  0  0  0  0  0  0  0  0
   -3.0433    0.9474    2.6284 C   0  0  0  0  0  0  0  0  0  0  0  0
   -2.9938    1.1166    3.8440 O   0  0  0  0  0  0  0  0  0  0  0  0
   -1.9560    0.5216    1.9053 N   0  0  0  0  0  0  0  0  0  0  0  0
   -0.6494    0.3366    2.5047 C   0  0  0  0  0  0  0  0  0  0  0  0
    0.0842    1.6870    2.6748 C   0  0  0  0  0  0  0  0  0  0  0  0
    0.6084    2.2314    1.3321 C   0  0  0  0  0  0  0  0  0  0  0  0
    1.6118    1.2729    0.6600 C   0  0  0  0  0  0  0  0  0  0  0  0
    1.1442   -0.1392    0.7595 C   0  0  0  0  0  0  0  0  0  0  0  0
    0.1226   -0.5571    1.5958 C   0  0  0  0  0  0  0  0  0  0  0  0
   -0.0130   -1.9237    1.3418 C   0  0  0  0  0  0  0  0  0  0  0  0
    0.8379   -2.3505    0.4127 N   0  0  0  0  0  0  0  0  0  0  0  0
    1.5998   -1.2639    0.0803 N   0  0  0  0  0  0  0  0  0  0  0  0
    2.6728   -1.4349   -0.8516 C   0  0  0  0  0  0  0  0  0  0  0  0
    2.7743   -2.6553   -1.5457 C   0  0  0  0  0  0  0  0  0  0  0  0
    3.8077   -2.8874   -2.4642 C   0  0  0  0  0  0  0  0  0  0  0  0
    3.8743   -4.1845   -3.2151 C   0  0  0  0  0  0  0  0  0  0  0  0
    4.7405   -1.8761   -2.7081 C   0  0  0  0  0  0  0  0  0  0  0  0
    4.6619   -0.6553   -2.0289 C   0  0  0  0  0  0  0  0  0  0  0  0
    5.7055    0.4008   -2.2533 C   0  0  0  0  0  0  0  0  0  0  0  0
    3.6374   -0.4495   -1.0893 C   0  0  0  0  0  0  0  0  0  0  0  0
   -4.3983   -0.0111   -1.8781 H   0  0  0  0  0  0  0  0  0  0  0  0
   -2.7415    0.5206   -2.1899 H   0  0  0  0  0  0  0  0  0  0  0  0
   -4.0093    1.7454   -2.0599 H   0  0  0  0  0  0  0  0  0  0  0  0
   -7.6442    1.8849    0.1134 H   0  0  0  0  0  0  0  0  0  0  0  0
   -7.5523    2.0230    2.6074 H   0  0  0  0  0  0  0  0  0  0  0  0
   -5.3861    1.5796    3.7414 H   0  0  0  0  0  0  0  0  0  0  0  0
   -2.0270    0.4847    0.8928 H   0  0  0  0  0  0  0  0  0  0  0  0
   -0.7777   -0.1311    3.4879 H   0  0  0  0  0  0  0  0  0  0  0  0
    0.9387    1.5501    3.3505 H   0  0  0  0  0  0  0  0  0  0  0  0
   -0.5743    2.4303    3.1388 H   0  0  0  0  0  0  0  0  0  0  0  0
    1.0881    3.2046    1.4881 H   0  0  0  0  0  0  0  0  0  0  0  0
   -0.2397    2.4035    0.6569 H   0  0  0  0  0  0  0  0  0  0  0  0
    1.7312    1.5798   -0.3840 H   0  0  0  0  0  0  0  0  0  0  0  0
    2.5766    1.3692    1.1713 H   0  0  0  0  0  0  0  0  0  0  0  0
   -0.7117   -2.6265    1.7781 H   0  0  0  0  0  0  0  0  0  0  0  0
    2.0400   -3.4432   -1.3790 H   0  0  0  0  0  0  0  0  0  0  0  0
    3.5094   -5.0118   -2.5974 H   0  0  0  0  0  0  0  0  0  0  0  0
    3.2653   -4.1231   -4.1222 H   0  0  0  0  0  0  0  0  0  0  0  0
    4.9055   -4.4214   -3.4973 H   0  0  0  0  0  0  0  0  0  0  0  0
    5.5404   -2.0436   -3.4270 H   0  0  0  0  0  0  0  0  0  0  0  0
    5.2802    1.4020   -2.1267 H   0  0  0  0  0  0  0  0  0  0  0  0
    6.1063    0.3456   -3.2709 H   0  0  0  0  0  0  0  0  0  0  0  0
    6.5269    0.2715   -1.5419 H   0  0  0  0  0  0  0  0  0  0  0  0
    3.6498    0.4844   -0.5447 H   0  0  0  0  0  0  0  0  0  0  0  0
  1  2  1  0
  2  3  1  0
  3  4  2  0
  4  5  1  0
  5  6  2  0
  6  7  1  0
  7  8  2  0
  8  9  1  0
  9 10  2  0
  9 11  1  0
 11 12  1  0
 12 13  1  0
 13 14  1  0
 14 15  1  0
 15 16  1  0
 16 17  2  0
 17 18  1  0
 18 19  2  0
 19 20  1  0
 20 21  1  0
 21 22  2  0
 22 23  1  0
 23 24  1  0
 23 25  2  0
 25 26  1  0
 26 27  1  0
 26 28  2  0
  8  3  1  0
 17 12  1  0
 28 21  1  0
 20 16  1  0
  1 29  1  0
  1 30  1  0
  1 31  1  0
  5 32  1  0
  6 33  1  0
  7 34  1  0
 11 35  1  0
 12 36  1  0
 13 37  1  0
 13 38  1  0
 14 39  1  0
 14 40  1  0
 15 41  1  0
 15 42  1  0
 18 43  1  0
 22 44  1  0
 24 45  1  0
 24 46  1  0
 24 47  1  0
 25 48  1  0
 27 49  1  0
 27 50  1  0
 27 51  1  0
 28 52  1  0
M  END
$$$$
