
     RDKit          3D

 37 38  0  0  0  0  0  0  0  0999 V2000
   -2.5821    1.5492    1.9187 C   0  0  0  0  0  0  0  0  0  0  0  0
   -2.9747    0.5393    0.8825 C   0  0  0  0  0  0  0  0  0  0  0  0
   -4.2881    0.4572    0.4436 C   0  0  0  0  0  0  0  0  0  0  0  0
   -4.6263   -0.5143   -0.5032 C   0  0  0  0  0  0  0  0  0  0  0  0
   -6.0488   -0.6515   -0.9697 C   0  0  0  0  0  0  0  0  0  0  0  0
   -6.8766   -1.0869    0.0202 F   0  0  0  0  0  0  0  0  0  0  0  0
   -6.2037   -1.5249   -2.0020 F   0  0  0  0  0  0  0  0  0  0  0  0
   -6.5710    0.5301   -1.4002 F   0  0  0  0  0  0  0  0  0  0  0  0
   -3.6210   -1.3643   -0.9763 C   0  0  0  0  0  0  0  0  0  0  0  0
   -2.3205   -1.2108   -0.5095 C   0  0  0  0  0  0  0  0  0  0  0  0
   -1.3256   -2.1107   -0.9683 N   0  0  0  0  0  0  0  0  0  0  0  0
   -0.0280   -1.7277   -0.5158 N   0  0  0  0  0  0  0  0  0  0  0  0
    0.8515   -1.3280   -1.4931 C   0  0  0  0  0  0  0  0  0  0  0  0
    0.6461   -1.4992   -2.6962 O   0  0  0  0  0  0  0  0  0  0  0  0
    2.0185   -0.7449   -1.0713 N   0  0  0  0  0  0  0  0  0  0  0  0
    2.3155   -0.2698    0.1924 C   0  0  0  0  0  0  0  0  0  0  0  0
    1.5258   -0.2598    1.1309 O   0  0  0  0  0  0  0  0  0  0  0  0
    3.6759    0.3122    0.3679 C   0  0  0  0  0  0  0  0  0  0  0  0
    4.7766   -0.1205   -0.3865 C   0  0  0  0  0  0  0  0  0  0  0  0
    6.0344    0.4573   -0.1819 C   0  0  0  0  0  0  0  0  0  0  0  0
    6.1952    1.4530    0.7816 C   0  0  0  0  0  0  0  0  0  0  0  0
    7.7443    2.1566    1.0301 Cl  0  0  0  0  0  0  0  0  0  0  0  0
    5.1109    1.8746    1.5491 C   0  0  0  0  0  0  0  0  0  0  0  0
    3.8526    1.3027    1.3445 C   0  0  0  0  0  0  0  0  0  0  0  0
   -2.0036   -0.2785    0.4182 N   0  0  0  0  0  0  0  0  0  0  0  0
   -1.5086    1.4958    2.1275 H   0  0  0  0  0  0  0  0  0  0  0  0
   -2.8121    2.5608    1.5725 H   0  0  0  0  0  0  0  0  0  0  0  0
   -3.1194    1.3574    2.8524 H   0  0  0  0  0  0  0  0  0  0  0  0
   -5.0446    1.1278    0.8432 H   0  0  0  0  0  0  0  0  0  0  0  0
   -3.8503   -2.1434   -1.6976 H   0  0  0  0  0  0  0  0  0  0  0  0
   -1.3392   -2.1481   -1.9924 H   0  0  0  0  0  0  0  0  0  0  0  0
   -0.0477   -1.1596    0.3413 H   0  0  0  0  0  0  0  0  0  0  0  0
    2.6251   -0.5107   -1.8415 H   0  0  0  0  0  0  0  0  0  0  0  0
    4.6876   -0.9181   -1.1190 H   0  0  0  0  0  0  0  0  0  0  0  0
    6.8865    0.1190   -0.7674 H   0  0  0  0  0  0  0  0  0  0  0  0
    5.2363    2.6427    2.3085 H   0  0  0  0  0  0  0  0  0  0  0  0
    3.0090    1.6362    1.9471 H   0  0  0  0  0  0  0  0  0  0  0  0
  1  2  1  0
  2  3  2  0
  3  4  1  0
  4  5  1  0
  5  6  1  0
  5  7  1  0
  5  8  1  0
  4  9  2  0
  9 10  1  0
 10 11  1  0
 11 12  1  0
 12 13  1  0
 13 14  2  0
 13 15  1  0
 15 16  1  0
 16 17  2  0
 16 18  1  0
 18 19  2  0
 19 20  1  0
 20 21  2  0
 21 22  1  0
 21 23  1  0
 23 24  2  0
 10 25  2  0
 25  2  1  0
 24 18  1  0
  1 26  1  0
  1 27  1  0
  1 28  1  0
  3 29  1  0
  9 30  1  0
 11 31  1  0
 12 32  1  0
 15 33  1  0
 19 34  1  0
 20 35  1  0
 23 36  1  0
 24 37  1  0
M  END
$$$$
