
     RDKit          3D

 46 48  0  0  0  0  0  0  0  0999 V2000
   -2.1035   -3.0452   -0.3957 C   0  0  0  0  0  0  0  0  0  0  0  0
   -3.0626   -1.9368   -0.7493 C   0  0  0  0  0  0  0  0  0  0  0  0
   -4.2099   -2.2598   -1.3843 C   0  0  0  0  0  0  0  0  0  0  0  0
   -5.2771   -1.3351   -1.7849 C   0  0  0  0  0  0  0  0  0  0  0  0
   -6.5394   -1.4374   -1.1912 C   0  0  0  0  0  0  0  0  0  0  0  0
   -7.5652   -0.5676   -1.5667 C   0  0  0  0  0  0  0  0  0  0  0  0
   -7.3360    0.4036   -2.5406 C   0  0  0  0  0  0  0  0  0  0  0  0
   -6.0824    0.5052   -3.1424 C   0  0  0  0  0  0  0  0  0  0  0  0
   -5.0556   -0.3634   -2.7679 C   0  0  0  0  0  0  0  0  0  0  0  0
   -2.7962   -0.5841   -0.2693 C   0  0  0  0  0  0  0  0  0  0  0  0
   -1.6460    0.0949   -0.1317 C   0  0  0  0  0  0  0  0  0  0  0  0
   -1.6394    1.6993    0.5554 S   0  0  0  0  0  0  0  0  0  0  0  0
    0.1024    1.8496    0.4692 C   0  0  0  0  0  0  0  0  0  0  0  0
    0.9613    3.1755    1.0029 S   0  0  0  0  0  0  0  0  0  0  0  0
    0.6161    0.7230   -0.1279 N   0  0  0  0  0  0  0  0  0  0  0  0
    2.1133    0.5221   -0.2757 N   0  0  0  0  0  0  0  0  0  0  0  0
    2.7626   -0.5594    0.8783 S   0  0  0  0  0  6  0  0  0  0  0  0
    3.1582   -1.7773    0.2097 O   0  0  0  0  0  0  0  0  0  0  0  0
    1.8729   -0.5657    2.0221 O   0  0  0  0  0  0  0  0  0  0  0  0
    4.2421    0.3084    1.3408 C   0  0  0  0  0  0  0  0  0  0  0  0
    5.3996    0.1404    0.5768 C   0  0  0  0  0  0  0  0  0  0  0  0
    6.5622    0.8246    0.9337 C   0  0  0  0  0  0  0  0  0  0  0  0
    6.5716    1.6769    2.0465 C   0  0  0  0  0  0  0  0  0  0  0  0
    7.8340    2.3827    2.4488 C   0  0  0  0  0  0  0  0  0  0  0  0
    5.4095    1.8126    2.8187 C   0  0  0  0  0  0  0  0  0  0  0  0
    4.2431    1.1306    2.4694 C   0  0  0  0  0  0  0  0  0  0  0  0
   -0.2519   -0.2885   -0.5157 C   0  0  0  0  0  0  0  0  0  0  0  0
    0.0657   -1.3054   -1.1117 O   0  0  0  0  0  0  0  0  0  0  0  0
   -2.6366   -3.9877   -0.2217 H   0  0  0  0  0  0  0  0  0  0  0  0
   -1.3947   -3.2214   -1.2095 H   0  0  0  0  0  0  0  0  0  0  0  0
   -1.5542   -2.8292    0.5268 H   0  0  0  0  0  0  0  0  0  0  0  0
   -4.4016   -3.2952   -1.6622 H   0  0  0  0  0  0  0  0  0  0  0  0
   -6.7300   -2.1899   -0.4297 H   0  0  0  0  0  0  0  0  0  0  0  0
   -8.5434   -0.6489   -1.0997 H   0  0  0  0  0  0  0  0  0  0  0  0
   -8.1357    1.0790   -2.8333 H   0  0  0  0  0  0  0  0  0  0  0  0
   -5.9049    1.2578   -3.9060 H   0  0  0  0  0  0  0  0  0  0  0  0
   -4.0838   -0.2815   -3.2492 H   0  0  0  0  0  0  0  0  0  0  0  0
   -3.7090   -0.0602    0.0266 H   0  0  0  0  0  0  0  0  0  0  0  0
    2.6395    1.3989   -0.3284 H   0  0  0  0  0  0  0  0  0  0  0  0
    5.4080   -0.5232   -0.2860 H   0  0  0  0  0  0  0  0  0  0  0  0
    7.4653    0.6850    0.3422 H   0  0  0  0  0  0  0  0  0  0  0  0
    8.4496    2.6112    1.5724 H   0  0  0  0  0  0  0  0  0  0  0  0
    7.6088    3.3332    2.9438 H   0  0  0  0  0  0  0  0  0  0  0  0
    8.4116    1.7545    3.1337 H   0  0  0  0  0  0  0  0  0  0  0  0
    5.4094    2.4491    3.7019 H   0  0  0  0  0  0  0  0  0  0  0  0
    3.3520    1.2447    3.0830 H   0  0  0  0  0  0  0  0  0  0  0  0
  1  2  1  0
  2  3  2  3
  3  4  1  0
  4  5  2  0
  5  6  1  0
  6  7  2  0
  7  8  1  0
  8  9  2  0
  2 10  1  0
 10 11  2  3
 11 12  1  0
 12 13  1  0
 13 14  2  0
 13 15  1  0
 15 16  1  0
 16 17  1  0
 17 18  2  0
 17 19  2  0
 17 20  1  0
 20 21  2  0
 21 22  1  0
 22 23  2  0
 23 24  1  0
 23 25  1  0
 25 26  2  0
 15 27  1  0
 27 28  2  0
  9  4  1  0
 27 11  1  0
 26 20  1  0
  1 29  1  0
  1 30  1  0
  1 31  1  0
  3 32  1  0
  5 33  1  0
  6 34  1  0
  7 35  1  0
  8 36  1  0
  9 37  1  0
 10 38  1  0
 16 39  1  0
 21 40  1  0
 22 41  1  0
 24 42  1  0
 24 43  1  0
 24 44  1  0
 25 45  1  0
 26 46  1  0
M  END
$$$$
