
     RDKit          3D

 34 35  0  0  0  0  0  0  0  0999 V2000
   -4.0817   -2.9891    0.1187 O   0  0  0  0  0  0  0  0  0  0  0  0
   -3.0672   -2.5500   -0.4431 N   0  0  0  0  0  4  0  0  0  0  0  0
   -2.2653   -3.2396   -1.0933 O   0  0  0  0  0  1  0  0  0  0  0  0
   -2.8191   -1.1088   -0.3561 C   0  0  0  0  0  0  0  0  0  0  0  0
   -3.9492   -0.2658   -0.3384 C   0  0  0  0  0  0  0  0  0  0  0  0
   -3.7922    1.1220   -0.2516 C   0  0  0  0  0  0  0  0  0  0  0  0
   -4.9942    2.0342   -0.2091 C   0  0  0  0  0  0  0  0  0  0  0  0
   -4.7302    3.2892   -0.6661 F   0  0  0  0  0  0  0  0  0  0  0  0
   -5.4817    2.1864    1.0516 F   0  0  0  0  0  0  0  0  0  0  0  0
   -6.0313    1.5743   -0.9618 F   0  0  0  0  0  0  0  0  0  0  0  0
   -2.4952    1.6367   -0.1583 C   0  0  0  0  0  0  0  0  0  0  0  0
   -1.3774    0.7880   -0.1738 C   0  0  0  0  0  0  0  0  0  0  0  0
   -1.4980   -0.6057   -0.3032 C   0  0  0  0  0  0  0  0  0  0  0  0
   -0.3832   -1.4524   -0.2262 N   0  0  0  0  0  0  0  0  0  0  0  0
    0.9792   -0.9633   -0.4635 C   0  0  0  0  0  0  0  0  0  0  0  0
    1.6599   -0.5910    0.8543 C   0  0  0  0  0  0  0  0  0  0  0  0
    3.0596   -0.0931    0.6123 C   0  0  0  0  0  0  0  0  0  0  0  0
    4.1622   -0.8437    1.0121 C   0  0  0  0  0  0  0  0  0  0  0  0
    5.4385   -0.3448    0.7666 C   0  0  0  0  0  0  0  0  0  0  0  0
    5.5804    0.8834    0.1333 C   0  0  0  0  0  0  0  0  0  0  0  0
    4.4330    1.5659   -0.2311 C   0  0  0  0  0  0  0  0  0  0  0  0
    3.1816    1.1063   -0.0082 N   0  0  0  0  0  0  0  0  0  0  0  0
   -4.9531   -0.6889   -0.3900 H   0  0  0  0  0  0  0  0  0  0  0  0
   -2.3373    2.7115   -0.0637 H   0  0  0  0  0  0  0  0  0  0  0  0
   -0.4011    1.2590   -0.0780 H   0  0  0  0  0  0  0  0  0  0  0  0
   -0.5526   -2.3486   -0.6980 H   0  0  0  0  0  0  0  0  0  0  0  0
    1.5467   -1.7789   -0.9309 H   0  0  0  0  0  0  0  0  0  0  0  0
    0.9935   -0.1441   -1.1927 H   0  0  0  0  0  0  0  0  0  0  0  0
    1.1006    0.1904    1.3815 H   0  0  0  0  0  0  0  0  0  0  0  0
    1.6708   -1.4585    1.5261 H   0  0  0  0  0  0  0  0  0  0  0  0
    4.0381   -1.8009    1.5084 H   0  0  0  0  0  0  0  0  0  0  0  0
    6.3152   -0.9103    1.0695 H   0  0  0  0  0  0  0  0  0  0  0  0
    6.5605    1.2995   -0.0701 H   0  0  0  0  0  0  0  0  0  0  0  0
    4.4902    2.5306   -0.7272 H   0  0  0  0  0  0  0  0  0  0  0  0
  1  2  2  0
  2  3  1  0
  2  4  1  0
  4  5  2  0
  5  6  1  0
  6  7  1  0
  7  8  1  0
  7  9  1  0
  7 10  1  0
  6 11  2  0
 11 12  1  0
 12 13  2  0
 13 14  1  0
 14 15  1  0
 15 16  1  0
 16 17  1  0
 17 18  2  0
 18 19  1  0
 19 20  2  0
 20 21  1  0
 21 22  2  0
 13  4  1  0
 22 17  1  0
  5 23  1  0
 11 24  1  0
 12 25  1  0
 14 26  1  0
 15 27  1  0
 15 28  1  0
 16 29  1  0
 16 30  1  0
 18 31  1  0
 19 32  1  0
 20 33  1  0
 21 34  1  0
M  CHG  2   2   1   3  -1
M  END
$$$$
