
     RDKit          3D

 70 72  0  0  0  0  0  0  0  0999 V2000
    7.7957   -2.8889   -2.4372 C   0  0  0  0  0  0  0  0  0  0  0  0
    6.6033   -2.1411   -1.8604 C   0  0  0  0  0  0  0  0  0  0  0  0
    6.6581   -0.6530   -2.2079 C   0  0  0  0  0  0  0  0  0  0  0  0
    5.4266    0.1263   -1.7384 C   0  0  0  0  0  0  0  0  0  0  0  0
    5.3110    0.2200   -0.2152 C   0  0  0  0  0  0  0  0  0  0  0  0
    4.1162    1.0849    0.1960 C   0  0  0  0  0  0  0  0  0  0  0  0
    4.0029    1.1877    1.7182 C   0  0  0  0  0  0  0  0  0  0  0  0
    2.8748    2.1138    2.1851 C   0  0  0  0  0  0  0  0  0  0  0  0
    1.4609    1.7312    1.7252 C   0  0  0  0  0  0  0  0  0  0  0  0
    1.0264    0.3586    2.2448 C   0  0  0  0  0  0  0  0  0  0  0  0
   -0.3915   -0.0804    1.7739 N   0  0  0  0  0  4  0  0  0  0  0  0
   -0.4304   -0.1635    0.2524 C   0  0  0  0  0  0  0  0  0  0  0  0
   -0.6067   -1.4879    2.3466 C   0  0  0  0  0  0  0  0  0  0  0  0
   -1.4566    0.8903    2.3353 C   0  0  0  0  0  0  0  0  0  0  0  0
   -2.9266    0.5519    2.0062 C   0  0  0  0  0  0  0  0  0  0  0  0
   -3.3729    0.9810    0.6286 C   0  0  0  0  0  0  0  0  0  0  0  0
   -4.2700    0.3967   -0.2001 C   0  0  0  0  0  0  0  0  0  0  0  0
   -5.0259   -0.8319    0.1545 C   0  0  0  0  0  0  0  0  0  0  0  0
   -4.3911   -2.0395    0.4728 C   0  0  0  0  0  0  0  0  0  0  0  0
   -5.1407   -3.1736    0.7937 C   0  0  0  0  0  0  0  0  0  0  0  0
   -6.5322   -3.1176    0.7774 C   0  0  0  0  0  0  0  0  0  0  0  0
   -7.1778   -1.9368    0.4118 C   0  0  0  0  0  0  0  0  0  0  0  0
   -6.4332   -0.7992    0.0782 C   0  0  0  0  0  0  0  0  0  0  0  0
   -7.3129    0.6588   -0.4870 S   0  0  0  0  0  0  0  0  0  0  0  0
   -6.0931    1.3713   -1.5935 C   0  0  0  0  0  0  0  0  0  0  0  0
   -6.5384    2.1261   -2.6855 C   0  0  0  0  0  0  0  0  0  0  0  0
   -5.6185    2.6906   -3.5727 C   0  0  0  0  0  0  0  0  0  0  0  0
   -4.2544    2.4958   -3.3713 C   0  0  0  0  0  0  0  0  0  0  0  0
   -3.1184    3.1799   -4.4672 Cl  0  0  0  0  0  0  0  0  0  0  0  0
   -3.7950    1.7504   -2.2854 C   0  0  0  0  0  0  0  0  0  0  0  0
   -4.7100    1.1949   -1.3792 C   0  0  0  0  0  0  0  0  0  0  0  0
    7.8176   -2.8101   -3.5288 H   0  0  0  0  0  0  0  0  0  0  0  0
    8.7362   -2.4899   -2.0442 H   0  0  0  0  0  0  0  0  0  0  0  0
    7.7404   -3.9499   -2.1744 H   0  0  0  0  0  0  0  0  0  0  0  0
    6.5957   -2.2803   -0.7745 H   0  0  0  0  0  0  0  0  0  0  0  0
    5.6798   -2.5816   -2.2526 H   0  0  0  0  0  0  0  0  0  0  0  0
    6.7365   -0.5437   -3.2967 H   0  0  0  0  0  0  0  0  0  0  0  0
    7.5630   -0.2045   -1.7808 H   0  0  0  0  0  0  0  0  0  0  0  0
    4.5207   -0.3330   -2.1525 H   0  0  0  0  0  0  0  0  0  0  0  0
    5.4845    1.1399   -2.1542 H   0  0  0  0  0  0  0  0  0  0  0  0
    6.2330    0.6457    0.1980 H   0  0  0  0  0  0  0  0  0  0  0  0
    5.1920   -0.7799    0.2159 H   0  0  0  0  0  0  0  0  0  0  0  0
    4.2231    2.0886   -0.2318 H   0  0  0  0  0  0  0  0  0  0  0  0
    3.2027    0.6477   -0.2218 H   0  0  0  0  0  0  0  0  0  0  0  0
    3.8747    0.1892    2.1504 H   0  0  0  0  0  0  0  0  0  0  0  0
    4.9470    1.5749    2.1218 H   0  0  0  0  0  0  0  0  0  0  0  0
    2.8922    2.1567    3.2812 H   0  0  0  0  0  0  0  0  0  0  0  0
    3.0873    3.1316    1.8347 H   0  0  0  0  0  0  0  0  0  0  0  0
    1.4126    1.7756    0.6334 H   0  0  0  0  0  0  0  0  0  0  0  0
    0.7856    2.5071    2.0997 H   0  0  0  0  0  0  0  0  0  0  0  0
    1.7140   -0.4207    1.8992 H   0  0  0  0  0  0  0  0  0  0  0  0
    1.0120    0.3486    3.3413 H   0  0  0  0  0  0  0  0  0  0  0  0
    0.4661   -0.6903   -0.0881 H   0  0  0  0  0  0  0  0  0  0  0  0
   -1.3162   -0.7261   -0.0502 H   0  0  0  0  0  0  0  0  0  0  0  0
   -0.4622    0.8488   -0.1578 H   0  0  0  0  0  0  0  0  0  0  0  0
    0.2210   -2.1247    2.0195 H   0  0  0  0  0  0  0  0  0  0  0  0
   -1.5450   -1.8926    1.9660 H   0  0  0  0  0  0  0  0  0  0  0  0
   -0.6297   -1.4179    3.4379 H   0  0  0  0  0  0  0  0  0  0  0  0
   -1.2185    1.8893    1.9588 H   0  0  0  0  0  0  0  0  0  0  0  0
   -1.3197    0.8923    3.4232 H   0  0  0  0  0  0  0  0  0  0  0  0
   -3.1489   -0.4914    2.2273 H   0  0  0  0  0  0  0  0  0  0  0  0
   -3.5390    1.1354    2.7078 H   0  0  0  0  0  0  0  0  0  0  0  0
   -2.9945    1.9656    0.3443 H   0  0  0  0  0  0  0  0  0  0  0  0
   -3.3108   -2.1188    0.4483 H   0  0  0  0  0  0  0  0  0  0  0  0
   -4.6437   -4.1085    1.0431 H   0  0  0  0  0  0  0  0  0  0  0  0
   -7.1182   -4.0009    1.0230 H   0  0  0  0  0  0  0  0  0  0  0  0
   -8.2650   -1.9178    0.3685 H   0  0  0  0  0  0  0  0  0  0  0  0
   -7.6030    2.2755   -2.8582 H   0  0  0  0  0  0  0  0  0  0  0  0
   -5.9757    3.2719   -4.4198 H   0  0  0  0  0  0  0  0  0  0  0  0
   -2.7275    1.6013   -2.1568 H   0  0  0  0  0  0  0  0  0  0  0  0
  1  2  1  0
  2  3  1  0
  3  4  1  0
  4  5  1  0
  5  6  1  0
  6  7  1  0
  7  8  1  0
  8  9  1  0
  9 10  1  0
 10 11  1  0
 11 12  1  0
 11 13  1  0
 11 14  1  0
 14 15  1  0
 15 16  1  0
 16 17  2  3
 17 18  1  0
 18 19  2  0
 19 20  1  0
 20 21  2  0
 21 22  1  0
 22 23  2  0
 23 24  1  0
 24 25  1  0
 25 26  2  0
 26 27  1  0
 27 28  2  0
 28 29  1  0
 28 30  1  0
 30 31  2  0
 31 17  1  0
 23 18  1  0
 31 25  1  0
  1 32  1  0
  1 33  1  0
  1 34  1  0
  2 35  1  0
  2 36  1  0
  3 37  1  0
  3 38  1  0
  4 39  1  0
  4 40  1  0
  5 41  1  0
  5 42  1  0
  6 43  1  0
  6 44  1  0
  7 45  1  0
  7 46  1  0
  8 47  1  0
  8 48  1  0
  9 49  1  0
  9 50  1  0
 10 51  1  0
 10 52  1  0
 12 53  1  0
 12 54  1  0
 12 55  1  0
 13 56  1  0
 13 57  1  0
 13 58  1  0
 14 59  1  0
 14 60  1  0
 15 61  1  0
 15 62  1  0
 16 63  1  0
 19 64  1  0
 20 65  1  0
 21 66  1  0
 22 67  1  0
 26 68  1  0
 27 69  1  0
 30 70  1  0
M  CHG  1  11   1
M  END
$$$$
