
     RDKit          3D

 41 42  0  0  0  0  0  0  0  0999 V2000
   -6.2943    1.4635    1.0007 C   0  0  0  0  0  0  0  0  0  0  0  0
   -5.2353    0.8724    1.9122 C   0  0  0  0  0  0  0  0  0  0  0  0
   -3.9897    0.7509    1.2109 O   0  0  0  0  0  0  0  0  0  0  0  0
   -3.8150   -0.3936    0.4959 C   0  0  0  0  0  0  0  0  0  0  0  0
   -4.6524   -1.2855    0.4229 O   0  0  0  0  0  0  0  0  0  0  0  0
   -2.5903   -0.4328   -0.1485 N   0  0  0  0  0  0  0  0  0  0  0  0
   -1.5064    0.4973    0.1867 C   0  0  0  0  0  0  0  0  0  0  0  0
   -0.5245    0.6700   -0.9767 C   0  0  0  0  0  0  0  0  0  0  0  0
   -0.0538   -0.6220   -1.5058 N   0  0  0  0  0  0  0  0  0  0  0  0
    1.1665   -0.6708   -2.1461 C   0  0  0  0  0  0  0  0  0  0  0  0
    1.4295   -1.2532   -3.6987 S   0  0  0  0  0  0  0  0  0  0  0  0
    2.2854   -0.2285   -1.4721 N   0  0  0  0  0  0  0  0  0  0  0  0
    2.5213   -0.0983   -0.1044 C   0  0  0  0  0  0  0  0  0  0  0  0
    1.6771   -0.0187    0.7793 O   0  0  0  0  0  0  0  0  0  0  0  0
    3.9541    0.0311    0.2820 C   0  0  0  0  0  0  0  0  0  0  0  0
    4.2807    0.8731    1.3584 C   0  0  0  0  0  0  0  0  0  0  0  0
    5.6105    1.0180    1.7624 C   0  0  0  0  0  0  0  0  0  0  0  0
    6.6071    0.3129    1.0975 C   0  0  0  0  0  0  0  0  0  0  0  0
    7.8818    0.4522    1.4849 F   0  0  0  0  0  0  0  0  0  0  0  0
    6.2840   -0.5358    0.0442 C   0  0  0  0  0  0  0  0  0  0  0  0
    7.2464   -1.2244   -0.5842 F   0  0  0  0  0  0  0  0  0  0  0  0
    4.9630   -0.6889   -0.3697 C   0  0  0  0  0  0  0  0  0  0  0  0
   -1.1662   -1.5071   -1.8933 C   0  0  0  0  0  0  0  0  0  0  0  0
   -2.1714   -1.6976   -0.7496 C   0  0  0  0  0  0  0  0  0  0  0  0
   -5.9597    2.4242    0.5955 H   0  0  0  0  0  0  0  0  0  0  0  0
   -7.2315    1.6165    1.5433 H   0  0  0  0  0  0  0  0  0  0  0  0
   -6.4885    0.8079    0.1461 H   0  0  0  0  0  0  0  0  0  0  0  0
   -5.0609    1.5465    2.7572 H   0  0  0  0  0  0  0  0  0  0  0  0
   -5.5550   -0.0889    2.3306 H   0  0  0  0  0  0  0  0  0  0  0  0
   -1.9096    1.4760    0.4646 H   0  0  0  0  0  0  0  0  0  0  0  0
   -0.9971    0.0861    1.0657 H   0  0  0  0  0  0  0  0  0  0  0  0
   -1.0334    1.1743   -1.8096 H   0  0  0  0  0  0  0  0  0  0  0  0
    0.3042    1.3265   -0.6999 H   0  0  0  0  0  0  0  0  0  0  0  0
    3.0984   -0.2623   -2.0713 H   0  0  0  0  0  0  0  0  0  0  0  0
    3.4973    1.4168    1.8852 H   0  0  0  0  0  0  0  0  0  0  0  0
    5.8718    1.6693    2.5912 H   0  0  0  0  0  0  0  0  0  0  0  0
    4.7516   -1.3911   -1.1696 H   0  0  0  0  0  0  0  0  0  0  0  0
   -0.7760   -2.4851   -2.1946 H   0  0  0  0  0  0  0  0  0  0  0  0
   -1.6634   -1.0556   -2.7609 H   0  0  0  0  0  0  0  0  0  0  0  0
   -1.7149   -2.2914    0.0522 H   0  0  0  0  0  0  0  0  0  0  0  0
   -3.0414   -2.2539   -1.1147 H   0  0  0  0  0  0  0  0  0  0  0  0
  1  2  1  0
  2  3  1  0
  3  4  1  0
  4  5  2  0
  4  6  1  0
  6  7  1  0
  7  8  1  0
  8  9  1  0
  9 10  1  0
 10 11  2  0
 10 12  1  0
 12 13  1  0
 13 14  2  0
 13 15  1  0
 15 16  2  0
 16 17  1  0
 17 18  2  0
 18 19  1  0
 18 20  1  0
 20 21  1  0
 20 22  2  0
  9 23  1  0
 23 24  1  0
 24  6  1  0
 22 15  1  0
  1 25  1  0
  1 26  1  0
  1 27  1  0
  2 28  1  0
  2 29  1  0
  7 30  1  0
  7 31  1  0
  8 32  1  0
  8 33  1  0
 12 34  1  0
 16 35  1  0
 17 36  1  0
 22 37  1  0
 23 38  1  0
 23 39  1  0
 24 40  1  0
 24 41  1  0
M  END
$$$$
