
     RDKit          3D

 71 76  0  0  0  0  0  0  0  0999 V2000
    9.7629   -2.6037    0.2581 C   0  0  0  0  0  0  0  0  0  0  0  0
   10.1468   -1.3049   -0.1748 O   0  0  0  0  0  0  0  0  0  0  0  0
    9.1462   -0.3865   -0.3518 C   0  0  0  0  0  0  0  0  0  0  0  0
    9.5773    0.8521   -0.8194 C   0  0  0  0  0  0  0  0  0  0  0  0
    8.6569    1.8674   -1.0478 C   0  0  0  0  0  0  0  0  0  0  0  0
    7.2976    1.6421   -0.8098 C   0  0  0  0  0  0  0  0  0  0  0  0
    6.8185    0.4088   -0.3356 C   0  0  0  0  0  0  0  0  0  0  0  0
    5.4647    0.1958   -0.1144 N   0  0  0  0  0  0  0  0  0  0  0  0
    4.9034   -1.1595    0.0225 C   0  0  0  0  0  0  0  0  0  0  0  0
    3.4152   -1.2059   -0.3720 C   0  0  0  0  0  0  0  0  0  0  0  0
    2.5804   -0.2088    0.3081 N   0  0  0  0  0  0  0  0  0  0  0  0
    1.2133   -0.4572    0.3902 C   0  0  0  0  0  0  0  0  0  0  0  0
    0.7420   -1.5029   -0.0584 O   0  0  0  0  0  0  0  0  0  0  0  0
    0.3221    0.6261    1.0078 C   0  0  0  0  0  0  0  0  0  0  0  0
    0.1169    1.7957    0.0416 C   0  0  0  0  0  0  0  0  0  0  0  0
   -0.8690    1.4367   -1.0592 C   0  0  0  0  0  0  0  0  0  0  0  0
   -2.2167    1.0104   -0.4906 C   0  0  0  0  0  0  0  0  0  0  0  0
   -2.0621   -0.0627    0.4883 N   0  0  0  0  0  0  0  0  0  0  0  0
   -3.2669   -0.6098    0.9926 C   0  0  0  0  0  0  0  0  0  0  0  0
   -3.2183   -1.3237    2.1644 N   0  0  0  0  0  0  0  0  0  0  0  0
   -4.3362   -1.8865    2.6647 C   0  0  0  0  0  0  0  0  0  0  0  0
   -5.5824   -1.8413    2.1699 N   0  0  0  0  0  0  0  0  0  0  0  0
   -5.6143   -1.1324    1.0303 C   0  0  0  0  0  0  0  0  0  0  0  0
   -4.5543   -0.5049    0.3898 C   0  0  0  0  0  0  0  0  0  0  0  0
   -5.0153    0.1289   -0.7541 N   0  0  0  0  0  0  0  0  0  0  0  0
   -6.3061   -0.1299   -0.8237 C   0  0  0  0  0  0  0  0  0  0  0  0
   -6.7112   -0.8816    0.2515 N   0  0  0  0  0  0  0  0  0  0  0  0
   -8.0601   -1.3327    0.5134 C   0  0  0  0  0  0  0  0  0  0  0  0
   -9.0589   -0.1862    0.6555 C   0  0  0  0  0  0  0  0  0  0  0  0
   -9.4675    0.4473   -0.6752 C   0  0  0  0  0  0  0  0  0  0  0  0
   -8.3509    1.2063   -1.3969 C   0  0  0  0  0  0  0  0  0  0  0  0
   -7.2260    0.3107   -1.9091 C   0  0  0  0  0  0  0  0  0  0  0  0
   -1.0161    0.0667    1.5159 C   0  0  0  0  0  0  0  0  0  0  0  0
    3.3034    0.9125    0.9189 C   0  0  0  0  0  0  0  0  0  0  0  0
    4.5496    1.3270    0.1142 C   0  0  0  0  0  0  0  0  0  0  0  0
    7.7811   -0.5951   -0.1110 C   0  0  0  0  0  0  0  0  0  0  0  0
    9.0599   -3.0680   -0.4427 H   0  0  0  0  0  0  0  0  0  0  0  0
    9.3515   -2.5714    1.2741 H   0  0  0  0  0  0  0  0  0  0  0  0
   10.6651   -3.2252    0.2819 H   0  0  0  0  0  0  0  0  0  0  0  0
   10.6336    1.0233   -1.0084 H   0  0  0  0  0  0  0  0  0  0  0  0
    8.9931    2.8313   -1.4212 H   0  0  0  0  0  0  0  0  0  0  0  0
    6.6118    2.4549   -1.0324 H   0  0  0  0  0  0  0  0  0  0  0  0
    5.0186   -1.4908    1.0626 H   0  0  0  0  0  0  0  0  0  0  0  0
    5.4303   -1.8712   -0.6234 H   0  0  0  0  0  0  0  0  0  0  0  0
    3.3139   -1.0086   -1.4468 H   0  0  0  0  0  0  0  0  0  0  0  0
    3.0235   -2.2126   -0.1854 H   0  0  0  0  0  0  0  0  0  0  0  0
    0.8494    0.9852    1.9008 H   0  0  0  0  0  0  0  0  0  0  0  0
    1.0575    2.1063   -0.4246 H   0  0  0  0  0  0  0  0  0  0  0  0
   -0.2620    2.6609    0.5987 H   0  0  0  0  0  0  0  0  0  0  0  0
   -0.4558    0.6303   -1.6773 H   0  0  0  0  0  0  0  0  0  0  0  0
   -1.0113    2.2993   -1.7199 H   0  0  0  0  0  0  0  0  0  0  0  0
   -2.7160    1.8751   -0.0348 H   0  0  0  0  0  0  0  0  0  0  0  0
   -2.8060    0.6761   -1.3500 H   0  0  0  0  0  0  0  0  0  0  0  0
   -4.2084   -2.4412    3.5887 H   0  0  0  0  0  0  0  0  0  0  0  0
   -8.3415   -2.0196   -0.2920 H   0  0  0  0  0  0  0  0  0  0  0  0
   -8.0492   -1.9102    1.4441 H   0  0  0  0  0  0  0  0  0  0  0  0
   -8.6657    0.5850    1.3284 H   0  0  0  0  0  0  0  0  0  0  0  0
   -9.9670   -0.5840    1.1254 H   0  0  0  0  0  0  0  0  0  0  0  0
  -10.2824    1.1545   -0.4772 H   0  0  0  0  0  0  0  0  0  0  0  0
   -9.8809   -0.3225   -1.3379 H   0  0  0  0  0  0  0  0  0  0  0  0
   -8.8012    1.7138   -2.2598 H   0  0  0  0  0  0  0  0  0  0  0  0
   -7.9523    1.9922   -0.7424 H   0  0  0  0  0  0  0  0  0  0  0  0
   -6.6405    0.8714   -2.6473 H   0  0  0  0  0  0  0  0  0  0  0  0
   -7.6321   -0.5630   -2.4301 H   0  0  0  0  0  0  0  0  0  0  0  0
   -0.8212   -0.9023    1.9949 H   0  0  0  0  0  0  0  0  0  0  0  0
   -1.3838    0.7482    2.2969 H   0  0  0  0  0  0  0  0  0  0  0  0
    3.6017    0.5778    1.9209 H   0  0  0  0  0  0  0  0  0  0  0  0
    2.6574    1.7816    1.0520 H   0  0  0  0  0  0  0  0  0  0  0  0
    5.0502    2.1233    0.6767 H   0  0  0  0  0  0  0  0  0  0  0  0
    4.2375    1.7331   -0.8560 H   0  0  0  0  0  0  0  0  0  0  0  0
    7.4557   -1.5513    0.2816 H   0  0  0  0  0  0  0  0  0  0  0  0
  1  2  1  0
  2  3  1  0
  3  4  2  0
  4  5  1  0
  5  6  2  0
  6  7  1  0
  7  8  1  0
  8  9  1  0
  9 10  1  0
 10 11  1  0
 11 12  1  0
 12 13  2  0
 12 14  1  0
 14 15  1  0
 15 16  1  0
 16 17  1  0
 17 18  1  0
 18 19  1  0
 19 20  2  0
 20 21  1  0
 21 22  2  0
 22 23  1  0
 23 24  2  0
 24 25  1  0
 25 26  2  0
 26 27  1  0
 27 28  1  0
 28 29  1  0
 29 30  1  0
 30 31  1  0
 31 32  1  0
 18 33  1  0
 11 34  1  0
 34 35  1  0
  7 36  2  0
 36  3  1  0
 35  8  1  0
 33 14  1  0
 24 19  1  0
 32 26  1  0
 27 23  1  0
  1 37  1  0
  1 38  1  0
  1 39  1  0
  4 40  1  0
  5 41  1  0
  6 42  1  0
  9 43  1  0
  9 44  1  0
 10 45  1  0
 10 46  1  0
 14 47  1  0
 15 48  1  0
 15 49  1  0
 16 50  1  0
 16 51  1  0
 17 52  1  0
 17 53  1  0
 21 54  1  0
 28 55  1  0
 28 56  1  0
 29 57  1  0
 29 58  1  0
 30 59  1  0
 30 60  1  0
 31 61  1  0
 31 62  1  0
 32 63  1  0
 32 64  1  0
 33 65  1  0
 33 66  1  0
 34 67  1  0
 34 68  1  0
 35 69  1  0
 35 70  1  0
 36 71  1  0
M  END
$$$$
