
     RDKit          3D

 52 54  0  0  0  0  0  0  0  0999 V2000
   -4.1727    2.8814    2.6168 C   0  0  0  0  0  0  0  0  0  0  0  0
   -3.6482    1.4694    2.4106 C   0  0  0  0  0  0  0  0  0  0  0  0
   -3.6557    1.0789    0.9312 C   0  0  0  0  0  0  0  0  0  0  0  0
   -3.1335   -0.3488    0.7337 C   0  0  0  0  0  0  0  0  0  0  0  0
   -2.9362   -0.7515   -0.7481 C   0  0  0  0  0  0  0  0  0  0  0  0
   -4.2730   -0.6976   -1.5231 C   0  0  0  0  0  0  0  0  0  0  0  0
   -4.1514   -1.0320   -3.0044 C   0  0  0  0  0  0  0  0  0  0  0  0
   -2.2881   -2.1573   -0.8564 C   0  0  0  0  0  0  0  0  0  0  0  0
   -0.9773   -2.2564   -0.2052 N   0  0  0  0  0  0  0  0  0  0  0  0
    0.1079   -1.6481   -0.8148 C   0  0  0  0  0  0  0  0  0  0  0  0
    0.0845   -1.0261   -1.8684 O   0  0  0  0  0  0  0  0  0  0  0  0
    1.3422   -1.8555   -0.0114 C   0  0  0  0  0  0  0  0  0  0  0  0
    2.5108   -1.3158   -0.3874 C   0  0  0  0  0  0  0  0  0  0  0  0
    3.7854   -1.3916    0.2544 C   0  0  0  0  0  0  0  0  0  0  0  0
    4.3267   -2.4927    0.8761 C   0  0  0  0  0  0  0  0  0  0  0  0
    5.5732   -2.1215    1.2780 N   0  0  0  0  0  0  0  0  0  0  0  0
    5.8990   -0.8686    0.9368 N   0  0  0  0  0  0  0  0  0  0  0  0
    4.8059   -0.3884    0.3179 C   0  0  0  0  0  0  0  0  0  0  0  0
    4.7839    0.9859   -0.1878 C   0  0  0  0  0  0  0  0  0  0  0  0
    5.9060    1.5080   -0.8468 C   0  0  0  0  0  0  0  0  0  0  0  0
    5.8960    2.8141   -1.3417 C   0  0  0  0  0  0  0  0  0  0  0  0
    4.7664    3.6131   -1.1760 C   0  0  0  0  0  0  0  0  0  0  0  0
    3.6498    3.1106   -0.5100 C   0  0  0  0  0  0  0  0  0  0  0  0
    3.6590    1.8040   -0.0143 C   0  0  0  0  0  0  0  0  0  0  0  0
    0.9824   -2.7897    1.3813 S   0  0  0  0  0  0  0  0  0  0  0  0
   -0.7189   -2.9460    0.9616 C   0  0  0  0  0  0  0  0  0  0  0  0
   -1.7765   -3.8252    1.9062 S   0  0  0  0  0  0  0  0  0  0  0  0
   -3.5568    3.6107    2.0809 H   0  0  0  0  0  0  0  0  0  0  0  0
   -4.1574    3.1399    3.6802 H   0  0  0  0  0  0  0  0  0  0  0  0
   -5.2034    2.9732    2.2596 H   0  0  0  0  0  0  0  0  0  0  0  0
   -4.2662    0.7682    2.9835 H   0  0  0  0  0  0  0  0  0  0  0  0
   -2.6288    1.4040    2.8087 H   0  0  0  0  0  0  0  0  0  0  0  0
   -4.6791    1.1639    0.5505 H   0  0  0  0  0  0  0  0  0  0  0  0
   -3.0334    1.7810    0.3637 H   0  0  0  0  0  0  0  0  0  0  0  0
   -2.1736   -0.4254    1.2573 H   0  0  0  0  0  0  0  0  0  0  0  0
   -3.8192   -1.0542    1.2194 H   0  0  0  0  0  0  0  0  0  0  0  0
   -2.2568   -0.0184   -1.2018 H   0  0  0  0  0  0  0  0  0  0  0  0
   -5.0011   -1.3754   -1.0612 H   0  0  0  0  0  0  0  0  0  0  0  0
   -4.6939    0.3114   -1.4583 H   0  0  0  0  0  0  0  0  0  0  0  0
   -5.0972   -0.8197   -3.5138 H   0  0  0  0  0  0  0  0  0  0  0  0
   -3.9292   -2.0910   -3.1627 H   0  0  0  0  0  0  0  0  0  0  0  0
   -3.3687   -0.4334   -3.4806 H   0  0  0  0  0  0  0  0  0  0  0  0
   -2.9745   -2.9128   -0.4630 H   0  0  0  0  0  0  0  0  0  0  0  0
   -2.1202   -2.4039   -1.9109 H   0  0  0  0  0  0  0  0  0  0  0  0
    2.5014   -0.7109   -1.2962 H   0  0  0  0  0  0  0  0  0  0  0  0
    3.9613   -3.4935    1.0553 H   0  0  0  0  0  0  0  0  0  0  0  0
    6.2624   -2.6768    1.7741 H   0  0  0  0  0  0  0  0  0  0  0  0
    6.7952    0.8940   -0.9755 H   0  0  0  0  0  0  0  0  0  0  0  0
    6.7718    3.2061   -1.8519 H   0  0  0  0  0  0  0  0  0  0  0  0
    4.7597    4.6304   -1.5588 H   0  0  0  0  0  0  0  0  0  0  0  0
    2.7734    3.7381   -0.3699 H   0  0  0  0  0  0  0  0  0  0  0  0
    2.7868    1.4414    0.5230 H   0  0  0  0  0  0  0  0  0  0  0  0
  1  2  1  0
  2  3  1  0
  3  4  1  0
  4  5  1  0
  5  6  1  0
  6  7  1  0
  5  8  1  0
  8  9  1  0
  9 10  1  0
 10 11  2  0
 10 12  1  0
 12 13  2  3
 13 14  1  0
 14 15  2  0
 15 16  1  0
 16 17  1  0
 17 18  2  0
 18 19  1  0
 19 20  2  0
 20 21  1  0
 21 22  2  0
 22 23  1  0
 23 24  2  0
 12 25  1  0
 25 26  1  0
 26 27  2  0
 26  9  1  0
 18 14  1  0
 24 19  1  0
  1 28  1  0
  1 29  1  0
  1 30  1  0
  2 31  1  0
  2 32  1  0
  3 33  1  0
  3 34  1  0
  4 35  1  0
  4 36  1  0
  5 37  1  0
  6 38  1  0
  6 39  1  0
  7 40  1  0
  7 41  1  0
  7 42  1  0
  8 43  1  0
  8 44  1  0
 13 45  1  0
 15 46  1  0
 16 47  1  0
 20 48  1  0
 21 49  1  0
 22 50  1  0
 23 51  1  0
 24 52  1  0
M  END
$$$$
