
     RDKit          3D

 48 49  0  0  0  0  0  0  0  0999 V2000
   -4.9820   -3.6851   -0.0117 C   0  0  0  0  0  0  0  0  0  0  0  0
   -4.0890   -2.4868    0.1152 C   0  0  0  0  0  0  0  0  0  0  0  0
   -4.4629   -1.2622   -0.4507 C   0  0  0  0  0  0  0  0  0  0  0  0
   -3.6224   -0.1506   -0.3570 C   0  0  0  0  0  0  0  0  0  0  0  0
   -2.3897   -0.2472    0.3009 C   0  0  0  0  0  0  0  0  0  0  0  0
   -1.4660    0.9480    0.3819 C   0  0  0  0  0  0  0  0  0  0  0  0
   -0.5704    1.0860   -0.8617 C   0  0  0  0  0  0  0  0  0  0  0  0
    0.3851   -0.0035   -1.0752 N   0  0  0  0  0  0  0  0  0  0  0  0
    1.3105   -0.4025   -0.1424 C   0  0  0  0  0  0  0  0  0  0  0  0
    1.4653    0.1611    0.9356 O   0  0  0  0  0  0  0  0  0  0  0  0
    2.1694   -1.5568   -0.5187 C   0  0  0  0  0  0  0  0  0  0  0  0
    3.4609   -1.6303    0.0193 C   0  0  0  0  0  0  0  0  0  0  0  0
    4.2933   -2.7032   -0.3021 C   0  0  0  0  0  0  0  0  0  0  0  0
    3.8346   -3.7093   -1.1527 C   0  0  0  0  0  0  0  0  0  0  0  0
    2.5430   -3.6494   -1.6770 C   0  0  0  0  0  0  0  0  0  0  0  0
    1.7065   -2.5772   -1.3591 C   0  0  0  0  0  0  0  0  0  0  0  0
    0.1461    2.4479   -0.9264 C   0  0  0  0  0  0  0  0  0  0  0  0
    0.1316    3.1327   -1.9493 O   0  0  0  0  0  0  0  0  0  0  0  0
    0.8468    2.8104    0.2005 N   0  0  0  0  0  0  0  0  0  0  0  0
    1.7010    3.9973    0.2210 C   0  0  0  0  0  0  0  0  0  0  0  0
    0.8717    5.2753    0.3166 C   0  0  0  0  0  0  0  0  0  0  0  0
    2.6888    3.9582    1.3898 C   0  0  0  0  0  0  0  0  0  0  0  0
    3.5188    4.8117    1.6629 O   0  0  0  0  0  0  0  0  0  0  0  0
    2.5784    2.8544    2.1594 O   0  0  0  0  0  0  0  0  0  0  0  0
   -2.0108   -1.4764    0.8552 C   0  0  0  0  0  0  0  0  0  0  0  0
   -2.8501   -2.5881    0.7565 C   0  0  0  0  0  0  0  0  0  0  0  0
   -6.0355   -3.3891    0.0277 H   0  0  0  0  0  0  0  0  0  0  0  0
   -4.7918   -4.1964   -0.9595 H   0  0  0  0  0  0  0  0  0  0  0  0
   -4.8135   -4.3891    0.8107 H   0  0  0  0  0  0  0  0  0  0  0  0
   -5.4157   -1.1646   -0.9661 H   0  0  0  0  0  0  0  0  0  0  0  0
   -3.9395    0.7915   -0.8001 H   0  0  0  0  0  0  0  0  0  0  0  0
   -2.0769    1.8542    0.4950 H   0  0  0  0  0  0  0  0  0  0  0  0
   -0.8816    0.8864    1.3075 H   0  0  0  0  0  0  0  0  0  0  0  0
   -1.2210    1.0600   -1.7466 H   0  0  0  0  0  0  0  0  0  0  0  0
    0.4408   -0.3732   -2.0149 H   0  0  0  0  0  0  0  0  0  0  0  0
    3.8204   -0.8496    0.6867 H   0  0  0  0  0  0  0  0  0  0  0  0
    5.2962   -2.7568    0.1152 H   0  0  0  0  0  0  0  0  0  0  0  0
    4.4825   -4.5476   -1.3976 H   0  0  0  0  0  0  0  0  0  0  0  0
    2.1839   -4.4446   -2.3268 H   0  0  0  0  0  0  0  0  0  0  0  0
    0.6925   -2.5688   -1.7485 H   0  0  0  0  0  0  0  0  0  0  0  0
    1.1223    2.0501    0.8332 H   0  0  0  0  0  0  0  0  0  0  0  0
    2.2923    3.9925   -0.7012 H   0  0  0  0  0  0  0  0  0  0  0  0
    0.1772    5.3705   -0.5222 H   0  0  0  0  0  0  0  0  0  0  0  0
    0.2842    5.2908    1.2411 H   0  0  0  0  0  0  0  0  0  0  0  0
    1.5127    6.1628    0.3181 H   0  0  0  0  0  0  0  0  0  0  0  0
    3.2483    2.9763    2.8650 H   0  0  0  0  0  0  0  0  0  0  0  0
   -1.0558   -1.5759    1.3682 H   0  0  0  0  0  0  0  0  0  0  0  0
   -2.5304   -3.5336    1.1891 H   0  0  0  0  0  0  0  0  0  0  0  0
  1  2  1  0
  2  3  2  0
  3  4  1  0
  4  5  2  0
  5  6  1  0
  6  7  1  0
  7  8  1  0
  8  9  1  0
  9 10  2  0
  9 11  1  0
 11 12  2  0
 12 13  1  0
 13 14  2  0
 14 15  1  0
 15 16  2  0
  7 17  1  0
 17 18  2  0
 17 19  1  0
 19 20  1  0
 20 21  1  0
 20 22  1  0
 22 23  2  0
 22 24  1  0
  5 25  1  0
 25 26  2  0
 26  2  1  0
 16 11  1  0
  1 27  1  0
  1 28  1  0
  1 29  1  0
  3 30  1  0
  4 31  1  0
  6 32  1  0
  6 33  1  0
  7 34  1  0
  8 35  1  0
 12 36  1  0
 13 37  1  0
 14 38  1  0
 15 39  1  0
 16 40  1  0
 19 41  1  0
 20 42  1  0
 21 43  1  0
 21 44  1  0
 21 45  1  0
 24 46  1  0
 25 47  1  0
 26 48  1  0
M  END
$$$$
