
     RDKit          3D

 57 59  0  0  0  0  0  0  0  0999 V2000
   -1.6810   -4.0194   -1.5191 C   0  0  0  0  0  0  0  0  0  0  0  0
   -0.7063   -3.6503   -0.4087 C   0  0  0  0  0  0  0  0  0  0  0  0
   -1.1409   -2.3900    0.3410 C   0  0  0  0  0  0  0  0  0  0  0  0
   -1.0663   -1.2824   -0.5620 O   0  0  0  0  0  0  0  0  0  0  0  0
   -1.4426   -0.1159    0.0553 C   0  0  0  0  0  0  0  0  0  0  0  0
   -2.8097    0.1615    0.2104 C   0  0  0  0  0  0  0  0  0  0  0  0
   -3.2733    1.3566    0.7930 C   0  0  0  0  0  0  0  0  0  0  0  0
   -4.6277    1.6359    0.9423 N   0  0  0  0  0  0  0  0  0  0  0  0
   -5.1145    2.8624    1.5856 C   0  0  0  0  0  0  0  0  0  0  0  0
   -5.1629    4.0198    0.5992 C   0  0  0  0  0  0  0  0  0  0  0  0
   -5.6643    0.7925    0.3292 C   0  0  0  0  0  0  0  0  0  0  0  0
   -6.0941   -0.3112    1.2845 C   0  0  0  0  0  0  0  0  0  0  0  0
   -2.2714    2.2479    1.2224 C   0  0  0  0  0  0  0  0  0  0  0  0
   -0.9009    1.9897    1.0505 C   0  0  0  0  0  0  0  0  0  0  0  0
   -0.4732    0.8114    0.4413 C   0  0  0  0  0  0  0  0  0  0  0  0
    0.9676    0.5827    0.2713 C   0  0  0  0  0  0  0  0  0  0  0  0
    1.6170    0.4485   -0.9038 C   0  0  0  0  0  0  0  0  0  0  0  0
    0.9455    0.5584   -2.1621 C   0  0  0  0  0  0  0  0  0  0  0  0
    0.5076    0.6412   -3.2351 N   0  0  0  0  0  0  0  0  0  0  0  0
    3.0282    0.2182   -0.8505 C   0  0  0  0  0  0  0  0  0  0  0  0
    3.8511    0.2062    0.1838 N   0  0  0  0  0  0  0  0  0  0  0  0
    5.0986   -0.0658   -0.3164 C   0  0  0  0  0  0  0  0  0  0  0  0
    6.3275   -0.1877    0.3479 C   0  0  0  0  0  0  0  0  0  0  0  0
    7.4819   -0.4814   -0.3963 C   0  0  0  0  0  0  0  0  0  0  0  0
    8.8131   -0.6045    0.2883 C   0  0  0  0  0  0  0  0  0  0  0  0
    7.3923   -0.6396   -1.7900 C   0  0  0  0  0  0  0  0  0  0  0  0
    6.1729   -0.5201   -2.4692 C   0  0  0  0  0  0  0  0  0  0  0  0
    5.0512   -0.2323   -1.6957 C   0  0  0  0  0  0  0  0  0  0  0  0
    3.7300   -0.0445   -2.0133 N   0  0  0  0  0  0  0  0  0  0  0  0
   -1.3290   -4.9073   -2.0532 H   0  0  0  0  0  0  0  0  0  0  0  0
   -1.7864   -3.2109   -2.2497 H   0  0  0  0  0  0  0  0  0  0  0  0
   -2.6701   -4.2389   -1.1050 H   0  0  0  0  0  0  0  0  0  0  0  0
   -0.6261   -4.4855    0.2975 H   0  0  0  0  0  0  0  0  0  0  0  0
    0.2823   -3.4932   -0.8560 H   0  0  0  0  0  0  0  0  0  0  0  0
   -0.4601   -2.2251    1.1848 H   0  0  0  0  0  0  0  0  0  0  0  0
   -2.1642   -2.5182    0.7221 H   0  0  0  0  0  0  0  0  0  0  0  0
   -3.5033   -0.5940   -0.1456 H   0  0  0  0  0  0  0  0  0  0  0  0
   -4.5201    3.1221    2.4692 H   0  0  0  0  0  0  0  0  0  0  0  0
   -6.1291    2.6940    1.9671 H   0  0  0  0  0  0  0  0  0  0  0  0
   -4.1593    4.3195    0.2854 H   0  0  0  0  0  0  0  0  0  0  0  0
   -5.7199    3.7449   -0.3005 H   0  0  0  0  0  0  0  0  0  0  0  0
   -5.6450    4.8885    1.0566 H   0  0  0  0  0  0  0  0  0  0  0  0
   -5.3430    0.3790   -0.6325 H   0  0  0  0  0  0  0  0  0  0  0  0
   -6.5453    1.4020    0.0885 H   0  0  0  0  0  0  0  0  0  0  0  0
   -6.4828    0.1095    2.2167 H   0  0  0  0  0  0  0  0  0  0  0  0
   -6.8829   -0.9164    0.8302 H   0  0  0  0  0  0  0  0  0  0  0  0
   -5.2614   -0.9738    1.5399 H   0  0  0  0  0  0  0  0  0  0  0  0
   -2.5272    3.1971    1.6926 H   0  0  0  0  0  0  0  0  0  0  0  0
   -0.1815    2.7337    1.3900 H   0  0  0  0  0  0  0  0  0  0  0  0
    1.5192    0.5269    1.2097 H   0  0  0  0  0  0  0  0  0  0  0  0
    6.3630   -0.0504    1.4246 H   0  0  0  0  0  0  0  0  0  0  0  0
    9.4769    0.2071   -0.0300 H   0  0  0  0  0  0  0  0  0  0  0  0
    8.7115   -0.5488    1.3779 H   0  0  0  0  0  0  0  0  0  0  0  0
    9.2759   -1.5673    0.0481 H   0  0  0  0  0  0  0  0  0  0  0  0
    8.2893   -0.8627   -2.3619 H   0  0  0  0  0  0  0  0  0  0  0  0
    6.1157   -0.6424   -3.5484 H   0  0  0  0  0  0  0  0  0  0  0  0
    3.3473   -0.0774   -2.9493 H   0  0  0  0  0  0  0  0  0  0  0  0
  1  2  1  0
  2  3  1  0
  3  4  1  0
  4  5  1  0
  5  6  2  0
  6  7  1  0
  7  8  1  0
  8  9  1  0
  9 10  1  0
  8 11  1  0
 11 12  1  0
  7 13  2  0
 13 14  1  0
 14 15  2  0
 15 16  1  0
 16 17  2  3
 17 18  1  0
 18 19  3  0
 17 20  1  0
 20 21  2  0
 21 22  1  0
 22 23  2  0
 23 24  1  0
 24 25  1  0
 24 26  2  0
 26 27  1  0
 27 28  2  0
 28 29  1  0
 15  5  1  0
 29 20  1  0
 28 22  1  0
  1 30  1  0
  1 31  1  0
  1 32  1  0
  2 33  1  0
  2 34  1  0
  3 35  1  0
  3 36  1  0
  6 37  1  0
  9 38  1  0
  9 39  1  0
 10 40  1  0
 10 41  1  0
 10 42  1  0
 11 43  1  0
 11 44  1  0
 12 45  1  0
 12 46  1  0
 12 47  1  0
 13 48  1  0
 14 49  1  0
 16 50  1  0
 23 51  1  0
 25 52  1  0
 25 53  1  0
 25 54  1  0
 26 55  1  0
 27 56  1  0
 29 57  1  0
M  END
$$$$
