
     RDKit          3D

 48 50  0  0  0  0  0  0  0  0999 V2000
    4.9720    3.1435    0.6103 C   0  0  0  0  0  0  0  0  0  0  0  0
    4.5537    2.5565   -0.6150 O   0  0  0  0  0  0  0  0  0  0  0  0
    3.9100    1.3540   -0.5384 C   0  0  0  0  0  0  0  0  0  0  0  0
    3.5368    0.8099   -1.7692 C   0  0  0  0  0  0  0  0  0  0  0  0
    2.8670   -0.4136   -1.8386 C   0  0  0  0  0  0  0  0  0  0  0  0
    2.5579   -1.1123   -0.6670 C   0  0  0  0  0  0  0  0  0  0  0  0
    1.8170   -2.4277   -0.7300 C   0  0  0  0  0  0  0  0  0  0  0  0
    0.4823   -2.4476    0.0086 C   0  0  0  0  0  0  0  0  0  0  0  0
    0.1282   -3.4589    0.6091 O   0  0  0  0  0  0  0  0  0  0  0  0
   -0.2614   -1.2906   -0.1498 N   0  0  0  0  0  0  0  0  0  0  0  0
   -1.4941   -1.0478    0.4351 C   0  0  0  0  0  0  0  0  0  0  0  0
   -2.2376   -1.7631    1.3475 C   0  0  0  0  0  0  0  0  0  0  0  0
   -3.3985   -1.0259    1.5570 C   0  0  0  0  0  0  0  0  0  0  0  0
   -3.4503    0.0864    0.8404 N   0  0  0  0  0  0  0  0  0  0  0  0
   -2.2589    0.0994    0.1795 N   0  0  0  0  0  0  0  0  0  0  0  0
   -1.9545    1.2613   -0.6862 C   0  0  0  0  0  0  0  0  0  0  0  0
   -3.1084    2.3020   -0.6725 C   0  0  0  0  0  0  0  0  0  0  0  0
   -1.7839    0.8190   -2.1533 C   0  0  0  0  0  0  0  0  0  0  0  0
   -0.6957    1.9953   -0.1828 C   0  0  0  0  0  0  0  0  0  0  0  0
   -4.4047   -1.5361    2.4936 C   0  0  0  0  0  0  0  0  0  0  0  0
   -3.6258   -3.0536    3.2356 S   0  0  0  0  0  3  0  0  0  0  0  0
   -3.1129   -2.6488    4.7639 O   0  0  0  0  0  1  0  0  0  0  0  0
   -2.1248   -3.0124    2.1110 C   0  0  0  0  0  0  0  0  0  0  0  0
    2.9453   -0.5709    0.5650 C   0  0  0  0  0  0  0  0  0  0  0  0
    3.6126    0.6570    0.6295 C   0  0  0  0  0  0  0  0  0  0  0  0
    5.6893    2.5034    1.1336 H   0  0  0  0  0  0  0  0  0  0  0  0
    5.4771    4.0849    0.3762 H   0  0  0  0  0  0  0  0  0  0  0  0
    4.1121    3.3764    1.2454 H   0  0  0  0  0  0  0  0  0  0  0  0
    3.7776    1.3423   -2.6853 H   0  0  0  0  0  0  0  0  0  0  0  0
    2.5995   -0.8129   -2.8153 H   0  0  0  0  0  0  0  0  0  0  0  0
    1.6130   -2.7056   -1.7710 H   0  0  0  0  0  0  0  0  0  0  0  0
    2.4635   -3.2076   -0.3058 H   0  0  0  0  0  0  0  0  0  0  0  0
    0.1376   -0.5797   -0.7463 H   0  0  0  0  0  0  0  0  0  0  0  0
   -2.8720    3.1607   -1.3088 H   0  0  0  0  0  0  0  0  0  0  0  0
   -3.2945    2.6869    0.3361 H   0  0  0  0  0  0  0  0  0  0  0  0
   -4.0437    1.8702   -1.0443 H   0  0  0  0  0  0  0  0  0  0  0  0
   -1.6299    1.6831   -2.8089 H   0  0  0  0  0  0  0  0  0  0  0  0
   -2.6739    0.2874   -2.5065 H   0  0  0  0  0  0  0  0  0  0  0  0
   -0.9312    0.1551   -2.3050 H   0  0  0  0  0  0  0  0  0  0  0  0
   -0.5127    2.9061   -0.7652 H   0  0  0  0  0  0  0  0  0  0  0  0
    0.2097    1.3888   -0.2562 H   0  0  0  0  0  0  0  0  0  0  0  0
   -0.8071    2.2873    0.8676 H   0  0  0  0  0  0  0  0  0  0  0  0
   -5.3166   -1.8531    1.9829 H   0  0  0  0  0  0  0  0  0  0  0  0
   -4.6385   -0.8371    3.2998 H   0  0  0  0  0  0  0  0  0  0  0  0
   -2.2036   -3.8967    1.4731 H   0  0  0  0  0  0  0  0  0  0  0  0
   -1.2412   -3.0549    2.7492 H   0  0  0  0  0  0  0  0  0  0  0  0
    2.7270   -1.0976    1.4933 H   0  0  0  0  0  0  0  0  0  0  0  0
    3.8871    1.0377    1.6068 H   0  0  0  0  0  0  0  0  0  0  0  0
  1  2  1  0
  2  3  1  0
  3  4  2  0
  4  5  1  0
  5  6  2  0
  6  7  1  0
  7  8  1  0
  8  9  2  0
  8 10  1  0
 10 11  1  0
 11 12  2  0
 12 13  1  0
 13 14  2  0
 14 15  1  0
 15 16  1  0
 16 17  1  0
 16 18  1  0
 16 19  1  0
 13 20  1  0
 20 21  1  0
 21 22  1  0
 21 23  1  0
  6 24  1  0
 24 25  2  0
 25  3  1  0
 15 11  1  0
 23 12  1  0
  1 26  1  0
  1 27  1  0
  1 28  1  0
  4 29  1  0
  5 30  1  0
  7 31  1  0
  7 32  1  0
 10 33  1  0
 17 34  1  0
 17 35  1  0
 17 36  1  0
 18 37  1  0
 18 38  1  0
 18 39  1  0
 19 40  1  0
 19 41  1  0
 19 42  1  0
 20 43  1  0
 20 44  1  0
 23 45  1  0
 23 46  1  0
 24 47  1  0
 25 48  1  0
M  CHG  2  21   1  22  -1
M  END
$$$$
