
     RDKit          3D

 35 36  0  0  0  0  0  0  0  0999 V2000
    2.4028    1.7986    0.7085 O   0  0  0  0  0  0  0  0  0  0  0  0
    2.3922    0.5731    0.6790 C   0  0  0  0  0  0  0  0  0  0  0  0
    1.2394   -0.1810    0.7664 N   0  0  0  0  0  0  0  0  0  0  0  0
   -0.0652    0.4423    0.9103 C   0  0  0  0  0  0  0  0  0  0  0  0
   -0.5841    0.9823   -0.4216 C   0  0  0  0  0  0  0  0  0  0  0  0
   -1.9558    1.6363   -0.2809 C   0  0  0  0  0  0  0  0  0  0  0  0
   -3.0148    0.6652   -0.0657 N   0  0  0  0  0  0  0  0  0  0  0  0
   -3.6943    0.0056   -1.1512 C   0  0  0  0  0  0  0  0  0  0  0  0
   -4.4685   -1.0970   -0.4561 C   0  0  0  0  0  0  0  0  0  0  0  0
   -4.7730   -0.5191    0.9213 C   0  0  0  0  0  0  0  0  0  0  0  0
   -3.6166    0.4205    1.1591 C   0  0  0  0  0  0  0  0  0  0  0  0
   -3.2991    0.8962    2.2358 O   0  0  0  0  0  0  0  0  0  0  0  0
    3.6620   -0.1668    0.4963 C   0  0  0  0  0  0  0  0  0  0  0  0
    4.7342    0.4497   -0.1523 C   0  0  0  0  0  0  0  0  0  0  0  0
    5.9283   -0.2478   -0.3208 C   0  0  0  0  0  0  0  0  0  0  0  0
    6.0096   -1.5405    0.1728 C   0  0  0  0  0  0  0  0  0  0  0  0
    4.9977   -2.1630    0.8176 N   0  0  0  0  0  0  0  0  0  0  0  0
    3.8508   -1.4559    0.9760 C   0  0  0  0  0  0  0  0  0  0  0  0
    1.2582   -1.1665    0.5432 H   0  0  0  0  0  0  0  0  0  0  0  0
    0.0132    1.2500    1.6466 H   0  0  0  0  0  0  0  0  0  0  0  0
   -0.7344   -0.3252    1.3111 H   0  0  0  0  0  0  0  0  0  0  0  0
    0.1187    1.7302   -0.8079 H   0  0  0  0  0  0  0  0  0  0  0  0
   -0.6178    0.1742   -1.1625 H   0  0  0  0  0  0  0  0  0  0  0  0
   -1.9479    2.3493    0.5513 H   0  0  0  0  0  0  0  0  0  0  0  0
   -2.2009    2.1961   -1.1905 H   0  0  0  0  0  0  0  0  0  0  0  0
   -2.9786   -0.3868   -1.8787 H   0  0  0  0  0  0  0  0  0  0  0  0
   -4.3603    0.7284   -1.6338 H   0  0  0  0  0  0  0  0  0  0  0  0
   -5.3674   -1.3959   -1.0024 H   0  0  0  0  0  0  0  0  0  0  0  0
   -3.8315   -1.9837   -0.3455 H   0  0  0  0  0  0  0  0  0  0  0  0
   -4.8097   -1.2981    1.6864 H   0  0  0  0  0  0  0  0  0  0  0  0
   -5.7030    0.0572    0.9194 H   0  0  0  0  0  0  0  0  0  0  0  0
    4.6395    1.4677   -0.5235 H   0  0  0  0  0  0  0  0  0  0  0  0
    6.7748    0.2081   -0.8225 H   0  0  0  0  0  0  0  0  0  0  0  0
    6.9194   -2.1247    0.0647 H   0  0  0  0  0  0  0  0  0  0  0  0
    3.0821   -1.9791    1.5361 H   0  0  0  0  0  0  0  0  0  0  0  0
  1  2  2  0
  2  3  1  0
  3  4  1  0
  4  5  1  0
  5  6  1  0
  6  7  1  0
  7  8  1  0
  8  9  1  0
  9 10  1  0
 10 11  1  0
 11 12  2  0
  2 13  1  0
 13 14  2  0
 14 15  1  0
 15 16  2  0
 16 17  1  0
 17 18  2  0
 11  7  1  0
 18 13  1  0
  3 19  1  0
  4 20  1  0
  4 21  1  0
  5 22  1  0
  5 23  1  0
  6 24  1  0
  6 25  1  0
  8 26  1  0
  8 27  1  0
  9 28  1  0
  9 29  1  0
 10 30  1  0
 10 31  1  0
 14 32  1  0
 15 33  1  0
 16 34  1  0
 18 35  1  0
M  END
$$$$
