
     RDKit          3D

 51 53  0  0  0  0  0  0  0  0999 V2000
   -3.1748    5.9477   -0.1366 C   0  0  0  0  0  0  0  0  0  0  0  0
   -1.8842    5.7444   -0.9194 C   0  0  0  0  0  0  0  0  0  0  0  0
   -1.2555    4.3636   -0.7279 C   0  0  0  0  0  0  0  0  0  0  0  0
   -2.2701    3.0398   -1.4719 S   0  0  0  0  0  0  0  0  0  0  0  0
   -1.2846    1.6012   -1.0743 C   0  0  0  0  0  0  0  0  0  0  0  0
   -1.7515    0.3606   -1.4509 C   0  0  0  0  0  0  0  0  0  0  0  0
   -0.9783   -0.7373   -1.1314 C   0  0  0  0  0  0  0  0  0  0  0  0
   -1.3727   -2.0219   -1.4871 N   0  0  0  0  0  0  0  0  0  0  0  0
   -2.7956   -2.3972   -1.4010 C   0  0  0  0  0  0  0  0  0  0  0  0
   -2.9816   -3.7654   -0.7034 C   0  0  0  0  0  0  0  0  0  0  0  0
   -2.2488   -4.8728   -1.3503 N   0  0  0  0  0  0  0  0  0  0  0  0
   -2.1448   -6.0172   -0.4492 C   0  0  0  0  0  0  0  0  0  0  0  0
   -0.9227   -4.4333   -1.8393 C   0  0  0  0  0  0  0  0  0  0  0  0
   -0.4036   -3.1024   -1.2471 C   0  0  0  0  0  0  0  0  0  0  0  0
    0.1989   -0.5744   -0.5040 N   0  0  0  0  0  0  0  0  0  0  0  0
    0.5844    0.6714   -0.1702 C   0  0  0  0  0  0  0  0  0  0  0  0
    1.8779    0.8284    0.5273 C   0  0  0  0  0  0  0  0  0  0  0  0
    2.3623    2.0930    0.9073 C   0  0  0  0  0  0  0  0  0  0  0  0
    3.5890    2.2378    1.5666 C   0  0  0  0  0  0  0  0  0  0  0  0
    4.3718    1.1243    1.8677 C   0  0  0  0  0  0  0  0  0  0  0  0
    5.5447    1.4042    2.5114 O   0  0  0  0  0  0  0  0  0  0  0  0
    6.3790    0.2990    2.8350 C   0  0  0  0  0  0  0  0  0  0  0  0
    3.9154   -0.1392    1.5026 C   0  0  0  0  0  0  0  0  0  0  0  0
    2.6856   -0.2811    0.8423 C   0  0  0  0  0  0  0  0  0  0  0  0
   -0.1259    1.7791   -0.4276 N   0  0  0  0  0  0  0  0  0  0  0  0
   -3.0220    5.7499    0.9294 H   0  0  0  0  0  0  0  0  0  0  0  0
   -3.9764    5.2967   -0.4973 H   0  0  0  0  0  0  0  0  0  0  0  0
   -3.5167    6.9826   -0.2415 H   0  0  0  0  0  0  0  0  0  0  0  0
   -1.1611    6.4968   -0.5805 H   0  0  0  0  0  0  0  0  0  0  0  0
   -2.0613    5.9425   -1.9835 H   0  0  0  0  0  0  0  0  0  0  0  0
   -1.1194    4.1640    0.3408 H   0  0  0  0  0  0  0  0  0  0  0  0
   -0.2705    4.3578   -1.2074 H   0  0  0  0  0  0  0  0  0  0  0  0
   -2.6790    0.2600   -1.9979 H   0  0  0  0  0  0  0  0  0  0  0  0
   -3.3800   -1.6612   -0.8357 H   0  0  0  0  0  0  0  0  0  0  0  0
   -3.2089   -2.4390   -2.4159 H   0  0  0  0  0  0  0  0  0  0  0  0
   -4.0501   -4.0104   -0.6861 H   0  0  0  0  0  0  0  0  0  0  0  0
   -2.6599   -3.6560    0.3419 H   0  0  0  0  0  0  0  0  0  0  0  0
   -1.5428   -5.7910    0.4385 H   0  0  0  0  0  0  0  0  0  0  0  0
   -3.1390   -6.3403   -0.1201 H   0  0  0  0  0  0  0  0  0  0  0  0
   -1.6925   -6.8716   -0.9648 H   0  0  0  0  0  0  0  0  0  0  0  0
   -0.1637   -5.2130   -1.6975 H   0  0  0  0  0  0  0  0  0  0  0  0
   -1.0171   -4.3050   -2.9257 H   0  0  0  0  0  0  0  0  0  0  0  0
   -0.2223   -3.2257   -0.1713 H   0  0  0  0  0  0  0  0  0  0  0  0
    0.5534   -2.8667   -1.7298 H   0  0  0  0  0  0  0  0  0  0  0  0
    1.7824    2.9885    0.6899 H   0  0  0  0  0  0  0  0  0  0  0  0
    3.9340    3.2306    1.8456 H   0  0  0  0  0  0  0  0  0  0  0  0
    6.7102   -0.2239    1.9317 H   0  0  0  0  0  0  0  0  0  0  0  0
    5.8772   -0.3850    3.5274 H   0  0  0  0  0  0  0  0  0  0  0  0
    7.2688    0.6885    3.3389 H   0  0  0  0  0  0  0  0  0  0  0  0
    4.4852   -1.0379    1.7127 H   0  0  0  0  0  0  0  0  0  0  0  0
    2.3571   -1.2834    0.5699 H   0  0  0  0  0  0  0  0  0  0  0  0
  1  2  1  0
  2  3  1  0
  3  4  1  0
  4  5  1  0
  5  6  2  0
  6  7  1  0
  7  8  1  0
  8  9  1  0
  9 10  1  0
 10 11  1  0
 11 12  1  0
 11 13  1  0
 13 14  1  0
  7 15  2  0
 15 16  1  0
 16 17  1  0
 17 18  2  0
 18 19  1  0
 19 20  2  0
 20 21  1  0
 21 22  1  0
 20 23  1  0
 23 24  2  0
 16 25  2  0
 25  5  1  0
 14  8  1  0
 24 17  1  0
  1 26  1  0
  1 27  1  0
  1 28  1  0
  2 29  1  0
  2 30  1  0
  3 31  1  0
  3 32  1  0
  6 33  1  0
  9 34  1  0
  9 35  1  0
 10 36  1  0
 10 37  1  0
 12 38  1  0
 12 39  1  0
 12 40  1  0
 13 41  1  0
 13 42  1  0
 14 43  1  0
 14 44  1  0
 18 45  1  0
 19 46  1  0
 22 47  1  0
 22 48  1  0
 22 49  1  0
 23 50  1  0
 24 51  1  0
M  END
$$$$
