
     RDKit          3D

 46 49  0  0  0  0  0  0  0  0999 V2000
   -2.8109    0.8924    1.4400 O   0  0  0  0  0  0  0  0  0  0  0  0
   -2.2452    0.3474    0.4880 C   0  0  0  0  0  0  0  0  0  0  0  0
   -0.9224    0.6537    0.2831 N   0  0  0  0  0  0  0  0  0  0  0  0
   -0.0611    0.0637   -0.6522 C   0  0  0  0  0  0  0  0  0  0  0  0
    1.1954    0.6485   -0.8380 C   0  0  0  0  0  0  0  0  0  0  0  0
    2.0987    0.0809   -1.7429 C   0  0  0  0  0  0  0  0  0  0  0  0
    3.4180    0.7048   -1.9823 C   0  0  0  0  0  0  0  0  0  0  0  0
    3.7035    1.0119   -3.1363 O   0  0  0  0  0  0  0  0  0  0  0  0
    4.2622    0.9197   -0.9016 N   0  0  0  0  0  0  0  0  0  0  0  0
    5.5301    1.6126   -1.1350 C   0  0  0  0  0  0  0  0  0  0  0  0
    6.0875    2.1887    0.1688 C   0  0  0  0  0  0  0  0  0  0  0  0
    6.2893    1.2110    1.2008 O   0  0  0  0  0  0  0  0  0  0  0  0
    5.4944    0.0280    1.0507 C   0  0  0  0  0  0  0  0  0  0  0  0
    4.1230    0.2966    0.4209 C   0  0  0  0  0  0  0  0  0  0  0  0
    1.7465   -1.0520   -2.4785 C   0  0  0  0  0  0  0  0  0  0  0  0
    0.5022   -1.6493   -2.2718 C   0  0  0  0  0  0  0  0  0  0  0  0
   -0.4059   -1.0982   -1.3583 C   0  0  0  0  0  0  0  0  0  0  0  0
   -1.9314   -1.9613   -1.0606 S   0  0  0  0  0  0  0  0  0  0  0  0
   -2.9638   -0.5447   -0.5545 C   0  0  0  0  0  0  0  0  0  0  0  0
   -4.3031   -1.0089   -0.1480 N   0  0  0  0  0  0  0  0  0  0  0  0
   -5.3433    0.0216   -0.2635 C   0  0  0  0  0  0  0  0  0  0  0  0
   -6.6862   -0.5123    0.2618 C   0  0  0  0  0  0  0  0  0  0  0  0
   -6.6635   -0.9007    1.6408 O   0  0  0  0  0  0  0  0  0  0  0  0
   -5.3404   -1.0798    2.1577 C   0  0  0  0  0  0  0  0  0  0  0  0
   -4.3757   -1.7200    1.1420 C   0  0  0  0  0  0  0  0  0  0  0  0
   -0.5661    1.3675    0.9073 H   0  0  0  0  0  0  0  0  0  0  0  0
    1.4703    1.5556   -0.3062 H   0  0  0  0  0  0  0  0  0  0  0  0
    5.3885    2.4051   -1.8775 H   0  0  0  0  0  0  0  0  0  0  0  0
    6.2243    0.8738   -1.5529 H   0  0  0  0  0  0  0  0  0  0  0  0
    7.0481    2.6809   -0.0125 H   0  0  0  0  0  0  0  0  0  0  0  0
    5.4020    2.9449    0.5689 H   0  0  0  0  0  0  0  0  0  0  0  0
    5.3737   -0.4165    2.0436 H   0  0  0  0  0  0  0  0  0  0  0  0
    6.0637   -0.6828    0.4403 H   0  0  0  0  0  0  0  0  0  0  0  0
    3.5641    1.0050    1.0424 H   0  0  0  0  0  0  0  0  0  0  0  0
    3.5560   -0.6356    0.3460 H   0  0  0  0  0  0  0  0  0  0  0  0
    2.4407   -1.4730   -3.2031 H   0  0  0  0  0  0  0  0  0  0  0  0
    0.2479   -2.5496   -2.8285 H   0  0  0  0  0  0  0  0  0  0  0  0
   -3.0735    0.0703   -1.4573 H   0  0  0  0  0  0  0  0  0  0  0  0
   -5.4643    0.3064   -1.3149 H   0  0  0  0  0  0  0  0  0  0  0  0
   -5.0747    0.9242    0.2968 H   0  0  0  0  0  0  0  0  0  0  0  0
   -7.4624    0.2518    0.1491 H   0  0  0  0  0  0  0  0  0  0  0  0
   -7.0049   -1.3837   -0.3223 H   0  0  0  0  0  0  0  0  0  0  0  0
   -5.4205   -1.7176    3.0442 H   0  0  0  0  0  0  0  0  0  0  0  0
   -4.9718   -0.1061    2.4977 H   0  0  0  0  0  0  0  0  0  0  0  0
   -4.7445   -2.7288    0.9186 H   0  0  0  0  0  0  0  0  0  0  0  0
   -3.3944   -1.8462    1.6133 H   0  0  0  0  0  0  0  0  0  0  0  0
  1  2  2  0
  2  3  1  0
  3  4  1  0
  4  5  2  0
  5  6  1  0
  6  7  1  0
  7  8  2  0
  7  9  1  0
  9 10  1  0
 10 11  1  0
 11 12  1  0
 12 13  1  0
 13 14  1  0
  6 15  2  0
 15 16  1  0
 16 17  2  0
 17 18  1  0
 18 19  1  0
 19 20  1  0
 20 21  1  0
 21 22  1  0
 22 23  1  0
 23 24  1  0
 24 25  1  0
 19  2  1  0
 25 20  1  0
 17  4  1  0
 14  9  1  0
  3 26  1  0
  5 27  1  0
 10 28  1  0
 10 29  1  0
 11 30  1  0
 11 31  1  0
 13 32  1  0
 13 33  1  0
 14 34  1  0
 14 35  1  0
 15 36  1  0
 16 37  1  0
 19 38  1  0
 21 39  1  0
 21 40  1  0
 22 41  1  0
 22 42  1  0
 24 43  1  0
 24 44  1  0
 25 45  1  0
 25 46  1  0
M  END
$$$$
