
     RDKit          3D

 47 49  0  0  0  0  0  0  0  0999 V2000
   -2.7816    5.6332   -0.4645 C   0  0  0  0  0  0  0  0  0  0  0  0
   -2.3554    4.4925   -1.2120 O   0  0  0  0  0  0  0  0  0  0  0  0
   -1.7752    3.5164   -0.4557 C   0  0  0  0  0  0  0  0  0  0  0  0
   -1.5550    3.6022    0.7459 O   0  0  0  0  0  0  0  0  0  0  0  0
   -1.3626    2.3479   -1.3416 C   0  0  0  0  0  0  0  0  0  0  0  0
   -1.4173    1.0693   -0.6321 N   0  0  0  0  0  0  0  0  0  0  0  0
   -0.4548    0.5893    0.2564 C   0  0  0  0  0  0  0  0  0  0  0  0
    0.7942    1.3499    0.5884 C   0  0  0  0  0  0  0  0  0  0  0  0
    2.0100    0.4371    0.7186 C   0  0  0  0  0  0  0  0  0  0  0  0
    2.0839   -0.3516    1.6599 O   0  0  0  0  0  0  0  0  0  0  0  0
    2.9287    0.5828   -0.3048 N   0  0  0  0  0  0  0  0  0  0  0  0
    4.1457   -0.1121   -0.4707 C   0  0  0  0  0  0  0  0  0  0  0  0
    4.8985    0.1853   -1.6158 C   0  0  0  0  0  0  0  0  0  0  0  0
    6.1172   -0.4570   -1.8571 C   0  0  0  0  0  0  0  0  0  0  0  0
    6.5912   -1.4013   -0.9520 C   0  0  0  0  0  0  0  0  0  0  0  0
    8.0894   -2.1925   -1.2450 Cl  0  0  0  0  0  0  0  0  0  0  0  0
    5.8559   -1.7055    0.1893 C   0  0  0  0  0  0  0  0  0  0  0  0
    4.6358   -1.0615    0.4294 C   0  0  0  0  0  0  0  0  0  0  0  0
   -0.8997   -0.5816    0.7580 C   0  0  0  0  0  0  0  0  0  0  0  0
   -0.3239   -1.3701    1.7093 O   0  0  0  0  0  0  0  0  0  0  0  0
   -2.1576   -0.8947    0.2548 N   0  0  0  0  0  0  0  0  0  0  0  0
   -2.9279   -2.0520    0.5798 C   0  0  0  0  0  0  0  0  0  0  0  0
   -2.2955   -3.2874    0.7987 C   0  0  0  0  0  0  0  0  0  0  0  0
   -3.0295   -4.4350    1.1209 C   0  0  0  0  0  0  0  0  0  0  0  0
   -4.4121   -4.3587    1.2393 C   0  0  0  0  0  0  0  0  0  0  0  0
   -5.3193   -5.7645    1.6367 Cl  0  0  0  0  0  0  0  0  0  0  0  0
   -5.0617   -3.1449    1.0448 C   0  0  0  0  0  0  0  0  0  0  0  0
   -4.3217   -2.0002    0.7213 C   0  0  0  0  0  0  0  0  0  0  0  0
   -2.5291    0.1594   -0.6574 C   0  0  0  0  0  0  0  0  0  0  0  0
   -3.8792    0.3188   -1.6287 S   0  0  0  0  0  0  0  0  0  0  0  0
   -1.9208    6.1365   -0.0133 H   0  0  0  0  0  0  0  0  0  0  0  0
   -3.2674    6.3282   -1.1549 H   0  0  0  0  0  0  0  0  0  0  0  0
   -3.5073    5.3421    0.3015 H   0  0  0  0  0  0  0  0  0  0  0  0
   -0.3526    2.5225   -1.7230 H   0  0  0  0  0  0  0  0  0  0  0  0
   -2.0264    2.3140   -2.2097 H   0  0  0  0  0  0  0  0  0  0  0  0
    0.6653    1.8731    1.5434 H   0  0  0  0  0  0  0  0  0  0  0  0
    1.0148    2.1241   -0.1508 H   0  0  0  0  0  0  0  0  0  0  0  0
    2.7044    1.2443   -1.0376 H   0  0  0  0  0  0  0  0  0  0  0  0
    4.5510    0.9185   -2.3393 H   0  0  0  0  0  0  0  0  0  0  0  0
    6.6882   -0.2162   -2.7499 H   0  0  0  0  0  0  0  0  0  0  0  0
    6.2212   -2.4417    0.9008 H   0  0  0  0  0  0  0  0  0  0  0  0
    4.0985   -1.3281    1.3339 H   0  0  0  0  0  0  0  0  0  0  0  0
    0.5707   -1.0349    1.9277 H   0  0  0  0  0  0  0  0  0  0  0  0
   -1.2177   -3.3835    0.6930 H   0  0  0  0  0  0  0  0  0  0  0  0
   -2.5118   -5.3778    1.2746 H   0  0  0  0  0  0  0  0  0  0  0  0
   -6.1406   -3.0727    1.1532 H   0  0  0  0  0  0  0  0  0  0  0  0
   -4.8611   -1.0619    0.6362 H   0  0  0  0  0  0  0  0  0  0  0  0
  1  2  1  0
  2  3  1  0
  3  4  2  0
  3  5  1  0
  5  6  1  0
  6  7  1  0
  7  8  1  0
  8  9  1  0
  9 10  2  0
  9 11  1  0
 11 12  1  0
 12 13  2  0
 13 14  1  0
 14 15  2  0
 15 16  1  0
 15 17  1  0
 17 18  2  0
  7 19  2  0
 19 20  1  0
 19 21  1  0
 21 22  1  0
 22 23  2  0
 23 24  1  0
 24 25  2  0
 25 26  1  0
 25 27  1  0
 27 28  2  0
 21 29  1  0
 29 30  2  0
 29  6  1  0
 18 12  1  0
 28 22  1  0
  1 31  1  0
  1 32  1  0
  1 33  1  0
  5 34  1  0
  5 35  1  0
  8 36  1  0
  8 37  1  0
 11 38  1  0
 13 39  1  0
 14 40  1  0
 17 41  1  0
 18 42  1  0
 20 43  1  0
 23 44  1  0
 24 45  1  0
 27 46  1  0
 28 47  1  0
M  END
$$$$
