
     RDKit          3D

 45 47  0  0  0  0  0  0  0  0999 V2000
    4.7968    0.9016    0.0507 C   0  0  0  0  0  0  0  0  0  0  0  0
    4.1717   -0.2206    0.8312 C   0  0  0  0  0  0  0  0  0  0  0  0
    5.0042   -1.1095    1.5388 C   0  0  0  0  0  0  0  0  0  0  0  0
    4.4754   -2.1589    2.2854 C   0  0  0  0  0  0  0  0  0  0  0  0
    3.0963   -2.3582    2.3595 C   0  0  0  0  0  0  0  0  0  0  0  0
    2.2630   -1.4690    1.6641 C   0  0  0  0  0  0  0  0  0  0  0  0
    0.5462   -1.4472    1.5695 S   0  0  0  0  0  0  0  0  0  0  0  0
    0.6008   -0.0556    0.5693 C   0  0  0  0  0  0  0  0  0  0  0  0
   -0.5980    0.5052    0.1156 N   0  0  0  0  0  0  0  0  0  0  0  0
   -1.8765   -0.2181    0.0893 C   0  0  0  0  0  0  0  0  0  0  0  0
   -1.9832   -1.1826   -1.0972 C   0  0  0  0  0  0  0  0  0  0  0  0
   -3.2391   -2.0612   -1.0319 C   0  0  0  0  0  0  0  0  0  0  0  0
   -4.4994   -1.3167   -0.8890 N   0  0  0  0  0  0  0  0  0  0  0  0
   -5.6087   -2.2452   -0.6521 C   0  0  0  0  0  0  0  0  0  0  0  0
   -4.7893   -0.4978   -2.0709 C   0  0  0  0  0  0  0  0  0  0  0  0
   -0.5445    1.6983   -0.6431 C   0  0  0  0  0  0  0  0  0  0  0  0
   -1.4016    1.9197   -1.5048 O   0  0  0  0  0  0  0  0  0  0  0  0
    0.4530    2.7142   -0.3115 C   0  0  0  0  0  0  0  0  0  0  0  0
    0.9017    3.1434    0.9285 C   0  0  0  0  0  0  0  0  0  0  0  0
    1.8882    4.1697    0.8245 C   0  0  0  0  0  0  0  0  0  0  0  0
    2.1259    4.4909   -0.4859 C   0  0  0  0  0  0  0  0  0  0  0  0
    3.2363    5.6660   -1.0648 Cl  0  0  0  0  0  0  0  0  0  0  0  0
    1.1889    3.6085   -1.5814 S   0  0  0  0  0  0  0  0  0  0  0  0
    1.8087    0.3693    0.2904 N   0  0  0  0  0  0  0  0  0  0  0  0
    2.7706   -0.4129    0.9084 C   0  0  0  0  0  0  0  0  0  0  0  0
    5.5861    0.5156   -0.6024 H   0  0  0  0  0  0  0  0  0  0  0  0
    4.0625    1.4102   -0.5810 H   0  0  0  0  0  0  0  0  0  0  0  0
    5.2281    1.6377    0.7361 H   0  0  0  0  0  0  0  0  0  0  0  0
    6.0848   -0.9786    1.5023 H   0  0  0  0  0  0  0  0  0  0  0  0
    5.1447   -2.8314    2.8181 H   0  0  0  0  0  0  0  0  0  0  0  0
    2.6830   -3.1757    2.9422 H   0  0  0  0  0  0  0  0  0  0  0  0
   -2.0270   -0.7394    1.0406 H   0  0  0  0  0  0  0  0  0  0  0  0
   -2.6832    0.5238    0.0361 H   0  0  0  0  0  0  0  0  0  0  0  0
   -1.1086   -1.8442   -1.1197 H   0  0  0  0  0  0  0  0  0  0  0  0
   -1.9543   -0.6272   -2.0415 H   0  0  0  0  0  0  0  0  0  0  0  0
   -3.1208   -2.7260   -0.1657 H   0  0  0  0  0  0  0  0  0  0  0  0
   -3.2685   -2.7076   -1.9190 H   0  0  0  0  0  0  0  0  0  0  0  0
   -6.5438   -1.6962   -0.4945 H   0  0  0  0  0  0  0  0  0  0  0  0
   -5.4347   -2.8297    0.2583 H   0  0  0  0  0  0  0  0  0  0  0  0
   -5.7520   -2.9401   -1.4875 H   0  0  0  0  0  0  0  0  0  0  0  0
   -5.7435    0.0273   -1.9479 H   0  0  0  0  0  0  0  0  0  0  0  0
   -4.8446   -1.0994   -2.9853 H   0  0  0  0  0  0  0  0  0  0  0  0
   -4.0332    0.2808   -2.2114 H   0  0  0  0  0  0  0  0  0  0  0  0
    0.5506    2.7299    1.8662 H   0  0  0  0  0  0  0  0  0  0  0  0
    2.3869    4.6370    1.6637 H   0  0  0  0  0  0  0  0  0  0  0  0
  1  2  1  0
  2  3  2  0
  3  4  1  0
  4  5  2  0
  5  6  1  0
  6  7  1  0
  7  8  1  0
  8  9  1  0
  9 10  1  0
 10 11  1  0
 11 12  1  0
 12 13  1  0
 13 14  1  0
 13 15  1  0
  9 16  1  0
 16 17  2  0
 16 18  1  0
 18 19  2  0
 19 20  1  0
 20 21  2  0
 21 22  1  0
 21 23  1  0
  8 24  2  0
 24 25  1  0
 25  2  1  0
 25  6  2  0
 23 18  1  0
  1 26  1  0
  1 27  1  0
  1 28  1  0
  3 29  1  0
  4 30  1  0
  5 31  1  0
 10 32  1  0
 10 33  1  0
 11 34  1  0
 11 35  1  0
 12 36  1  0
 12 37  1  0
 14 38  1  0
 14 39  1  0
 14 40  1  0
 15 41  1  0
 15 42  1  0
 15 43  1  0
 19 44  1  0
 20 45  1  0
M  END
$$$$
