
     RDKit          3D

 58 61  0  0  0  0  0  0  0  0999 V2000
    9.1777   -2.0330   -0.8478 C   0  0  0  0  0  0  0  0  0  0  0  0
    8.0784   -1.0488   -0.5768 C   0  0  0  0  0  0  0  0  0  0  0  0
    7.6006   -0.2140   -1.5925 C   0  0  0  0  0  0  0  0  0  0  0  0
    6.5582    0.6822   -1.3444 C   0  0  0  0  0  0  0  0  0  0  0  0
    5.9753    0.7589   -0.0749 C   0  0  0  0  0  0  0  0  0  0  0  0
    4.8371    1.7028    0.1972 C   0  0  0  0  0  0  0  0  0  0  0  0
    3.5702    1.0276    0.0495 N   0  0  0  0  0  0  0  0  0  0  0  0
    2.4178    1.5426    0.5946 C   0  0  0  0  0  0  0  0  0  0  0  0
    2.3941    2.5755    1.2549 O   0  0  0  0  0  0  0  0  0  0  0  0
    1.1779    0.7059    0.2967 C   0  0  0  0  0  0  0  0  0  0  0  0
    0.0245    1.0747    1.2364 C   0  0  0  0  0  0  0  0  0  0  0  0
   -1.2290    0.2569    0.9345 C   0  0  0  0  0  0  0  0  0  0  0  0
   -1.6688    0.3998   -0.5318 C   0  0  0  0  0  0  0  0  0  0  0  0
   -2.8776   -0.5018   -0.8407 C   0  0  0  0  0  0  0  0  0  0  0  0
   -4.0445   -0.0664   -0.0904 N   0  0  0  0  0  0  0  0  0  0  0  0
   -5.2421   -0.7485    0.0689 C   0  0  0  0  0  0  0  0  0  0  0  0
   -5.3289   -2.0541   -0.3440 N   0  0  0  0  0  0  0  0  0  0  0  0
   -6.4380   -2.8521   -0.2579 C   0  0  0  0  0  0  0  0  0  0  0  0
   -6.3124   -4.4275   -0.8268 S   0  0  0  0  0  0  0  0  0  0  0  0
   -7.5804   -2.3288    0.2801 N   0  0  0  0  0  0  0  0  0  0  0  0
   -7.5401   -1.1024    0.6906 C   0  0  0  0  0  0  0  0  0  0  0  0
   -8.7738   -0.5138    1.2844 C   0  0  0  0  0  0  0  0  0  0  0  0
   -8.7864    0.7485    1.7313 C   0  0  0  0  0  0  0  0  0  0  0  0
   -7.6206    1.5942    1.6660 C   0  0  0  0  0  0  0  0  0  0  0  0
   -6.4675    1.1560    1.1464 C   0  0  0  0  0  0  0  0  0  0  0  0
   -6.3457   -0.1947    0.6215 C   0  0  0  0  0  0  0  0  0  0  0  0
   -0.5050    0.0669   -1.4812 C   0  0  0  0  0  0  0  0  0  0  0  0
    0.7497    0.8798   -1.1669 C   0  0  0  0  0  0  0  0  0  0  0  0
    6.4387   -0.0943    0.9341 C   0  0  0  0  0  0  0  0  0  0  0  0
    7.4798   -0.9910    0.6849 C   0  0  0  0  0  0  0  0  0  0  0  0
    9.7827   -1.7237   -1.7061 H   0  0  0  0  0  0  0  0  0  0  0  0
    9.8501   -2.1095    0.0145 H   0  0  0  0  0  0  0  0  0  0  0  0
    8.7537   -3.0197   -1.0582 H   0  0  0  0  0  0  0  0  0  0  0  0
    8.0408   -0.2550   -2.5854 H   0  0  0  0  0  0  0  0  0  0  0  0
    6.2061    1.3207   -2.1500 H   0  0  0  0  0  0  0  0  0  0  0  0
    4.9189    2.1238    1.2041 H   0  0  0  0  0  0  0  0  0  0  0  0
    4.8512    2.5431   -0.5028 H   0  0  0  0  0  0  0  0  0  0  0  0
    3.5278    0.2266   -0.5659 H   0  0  0  0  0  0  0  0  0  0  0  0
    1.4444   -0.3471    0.4705 H   0  0  0  0  0  0  0  0  0  0  0  0
   -0.2131    2.1429    1.1470 H   0  0  0  0  0  0  0  0  0  0  0  0
    0.3257    0.9090    2.2782 H   0  0  0  0  0  0  0  0  0  0  0  0
   -2.0335    0.5828    1.6023 H   0  0  0  0  0  0  0  0  0  0  0  0
   -1.0338   -0.7977    1.1663 H   0  0  0  0  0  0  0  0  0  0  0  0
   -1.9576    1.4468   -0.7028 H   0  0  0  0  0  0  0  0  0  0  0  0
   -3.1109   -0.4618   -1.9114 H   0  0  0  0  0  0  0  0  0  0  0  0
   -2.6249   -1.5398   -0.5910 H   0  0  0  0  0  0  0  0  0  0  0  0
   -4.1281    0.9405   -0.0031 H   0  0  0  0  0  0  0  0  0  0  0  0
   -4.5165   -2.4914   -0.7450 H   0  0  0  0  0  0  0  0  0  0  0  0
   -9.6482   -1.1533    1.3338 H   0  0  0  0  0  0  0  0  0  0  0  0
   -9.6928    1.1696    2.1591 H   0  0  0  0  0  0  0  0  0  0  0  0
   -7.7043    2.6072    2.0543 H   0  0  0  0  0  0  0  0  0  0  0  0
   -5.6118    1.8194    1.1285 H   0  0  0  0  0  0  0  0  0  0  0  0
   -0.2647   -1.0022   -1.4139 H   0  0  0  0  0  0  0  0  0  0  0  0
   -0.8054    0.2588   -2.5195 H   0  0  0  0  0  0  0  0  0  0  0  0
    0.5602    1.9437   -1.3723 H   0  0  0  0  0  0  0  0  0  0  0  0
    1.5557    0.5737   -1.8473 H   0  0  0  0  0  0  0  0  0  0  0  0
    5.9876   -0.0651    1.9232 H   0  0  0  0  0  0  0  0  0  0  0  0
    7.8213   -1.6435    1.4843 H   0  0  0  0  0  0  0  0  0  0  0  0
  1  2  1  0
  2  3  2  0
  3  4  1  0
  4  5  2  0
  5  6  1  0
  6  7  1  0
  7  8  1  0
  8  9  2  0
  8 10  1  0
 10 11  1  0
 11 12  1  0
 12 13  1  0
 13 14  1  0
 14 15  1  0
 15 16  1  0
 16 17  1  0
 17 18  1  0
 18 19  2  0
 18 20  1  0
 20 21  2  0
 21 22  1  0
 22 23  2  0
 23 24  1  0
 24 25  2  0
 25 26  1  0
 13 27  1  0
 27 28  1  0
  5 29  1  0
 29 30  2  0
 30  2  1  0
 28 10  1  0
 26 16  2  0
 26 21  1  0
  1 31  1  0
  1 32  1  0
  1 33  1  0
  3 34  1  0
  4 35  1  0
  6 36  1  0
  6 37  1  0
  7 38  1  0
 10 39  1  0
 11 40  1  0
 11 41  1  0
 12 42  1  0
 12 43  1  0
 13 44  1  0
 14 45  1  0
 14 46  1  0
 15 47  1  0
 17 48  1  0
 22 49  1  0
 23 50  1  0
 24 51  1  0
 25 52  1  0
 27 53  1  0
 27 54  1  0
 28 55  1  0
 28 56  1  0
 29 57  1  0
 30 58  1  0
M  END
$$$$
