
     RDKit          3D

 46 49  0  0  0  0  0  0  0  0999 V2000
   -2.6330   -5.5045   -1.6868 N   0  0  0  0  0  0  0  0  0  0  0  0
   -3.3495   -4.5828   -1.0162 C   0  0  0  0  0  0  0  0  0  0  0  0
   -4.6550   -4.6817   -0.7693 N   0  0  0  0  0  0  0  0  0  0  0  0
   -4.9856   -3.5390   -0.0492 O   0  0  0  0  0  0  0  0  0  0  0  0
   -3.8704   -2.7285    0.1527 N   0  0  0  0  0  0  0  0  0  0  0  0
   -2.8797   -3.3771   -0.4601 C   0  0  0  0  0  0  0  0  0  0  0  0
   -1.5608   -2.8542   -0.4905 N   0  0  0  0  0  0  0  0  0  0  0  0
   -0.5461   -3.5324   -1.1046 N   0  0  0  0  0  0  0  0  0  0  0  0
    0.5744   -2.8449   -0.9844 N   0  0  0  0  0  0  0  0  0  0  0  0
    0.3023   -1.6959   -0.2915 C   0  0  0  0  0  0  0  0  0  0  0  0
    1.3368   -0.7042    0.0019 C   0  0  0  0  0  0  0  0  0  0  0  0
    1.1013    0.3093    0.6526 O   0  0  0  0  0  0  0  0  0  0  0  0
    2.5697   -1.0557   -0.5391 N   0  0  0  0  0  0  0  0  0  0  0  0
    3.6935   -0.2731   -0.5991 N   0  0  0  0  0  0  0  0  0  0  0  0
    3.9263    0.5672    0.3559 C   0  0  0  0  0  0  0  0  0  0  0  0
    5.0780    1.5012    0.3624 C   0  0  0  0  0  0  0  0  0  0  0  0
    5.0210    2.5174    1.3326 C   0  0  0  0  0  0  0  0  0  0  0  0
    6.0432    3.4627    1.4363 C   0  0  0  0  0  0  0  0  0  0  0  0
    7.1332    3.4026    0.5742 C   0  0  0  0  0  0  0  0  0  0  0  0
    7.2011    2.3956   -0.3888 C   0  0  0  0  0  0  0  0  0  0  0  0
    6.1799    1.4408   -0.5019 C   0  0  0  0  0  0  0  0  0  0  0  0
    6.4050    0.2285   -1.7119 Cl  0  0  0  0  0  0  0  0  0  0  0  0
   -1.0459   -1.6705    0.0332 C   0  0  0  0  0  0  0  0  0  0  0  0
   -1.8498   -0.6394    0.7347 C   0  0  0  0  0  0  0  0  0  0  0  0
   -2.5702    0.0419   -0.2872 O   0  0  0  0  0  0  0  0  0  0  0  0
   -3.4483    1.0130    0.1073 C   0  0  0  0  0  0  0  0  0  0  0  0
   -3.6293    1.4774    1.4128 C   0  0  0  0  0  0  0  0  0  0  0  0
   -4.5657    2.4830    1.6730 C   0  0  0  0  0  0  0  0  0  0  0  0
   -5.3131    3.0178    0.6306 C   0  0  0  0  0  0  0  0  0  0  0  0
   -6.2080    3.9807    0.8861 F   0  0  0  0  0  0  0  0  0  0  0  0
   -5.1424    2.5682   -0.6714 C   0  0  0  0  0  0  0  0  0  0  0  0
   -4.2072    1.5656   -0.9312 C   0  0  0  0  0  0  0  0  0  0  0  0
   -1.6864   -5.3104   -2.0094 H   0  0  0  0  0  0  0  0  0  0  0  0
   -3.1183   -6.2277   -2.2075 H   0  0  0  0  0  0  0  0  0  0  0  0
    2.5700   -1.8259   -1.2057 H   0  0  0  0  0  0  0  0  0  0  0  0
    3.2768    0.6298    1.2449 H   0  0  0  0  0  0  0  0  0  0  0  0
    4.1727    2.5905    2.0106 H   0  0  0  0  0  0  0  0  0  0  0  0
    5.9863    4.2468    2.1882 H   0  0  0  0  0  0  0  0  0  0  0  0
    7.9317    4.1369    0.6504 H   0  0  0  0  0  0  0  0  0  0  0  0
    8.0617    2.3563   -1.0534 H   0  0  0  0  0  0  0  0  0  0  0  0
   -2.5192   -1.0957    1.4719 H   0  0  0  0  0  0  0  0  0  0  0  0
   -1.2034    0.0651    1.2658 H   0  0  0  0  0  0  0  0  0  0  0  0
   -3.0590    1.0861    2.2488 H   0  0  0  0  0  0  0  0  0  0  0  0
   -4.7152    2.8529    2.6825 H   0  0  0  0  0  0  0  0  0  0  0  0
   -5.7342    2.9971   -1.4731 H   0  0  0  0  0  0  0  0  0  0  0  0
   -4.0692    1.2092   -1.9493 H   0  0  0  0  0  0  0  0  0  0  0  0
  1  2  1  0
  2  3  2  0
  3  4  1  0
  4  5  1  0
  5  6  2  0
  6  7  1  0
  7  8  1  0
  8  9  2  0
  9 10  1  0
 10 11  1  0
 11 12  2  0
 11 13  1  0
 13 14  1  0
 14 15  2  3
 15 16  1  0
 16 17  2  0
 17 18  1  0
 18 19  2  0
 19 20  1  0
 20 21  2  0
 21 22  1  0
 10 23  2  0
 23 24  1  0
 24 25  1  0
 25 26  1  0
 26 27  2  0
 27 28  1  0
 28 29  2  0
 29 30  1  0
 29 31  1  0
 31 32  2  0
  6  2  1  0
 23  7  1  0
 32 26  1  0
 21 16  1  0
  1 33  1  0
  1 34  1  0
 13 35  1  0
 15 36  1  0
 17 37  1  0
 18 38  1  0
 19 39  1  0
 20 40  1  0
 24 41  1  0
 24 42  1  0
 27 43  1  0
 28 44  1  0
 31 45  1  0
 32 46  1  0
M  END
$$$$
