
     RDKit          3D

 40 43  0  0  0  0  0  0  0  0999 V2000
   -2.6868   -1.1767    4.3607 C   0  0  0  0  0  0  0  0  0  0  0  0
   -2.0061    0.1325    4.2002 C   0  0  0  0  0  0  0  0  0  0  0  0
   -2.3033    1.1236    5.1317 N   0  0  0  0  0  0  0  0  0  0  0  0
   -1.6089    2.2275    4.9214 N   0  0  0  0  0  0  0  0  0  0  0  0
   -0.5763    2.1054    3.6143 S   0  0  0  0  0  0  0  0  0  0  0  0
   -1.0839    0.5101    3.2333 C   0  0  0  0  0  0  0  0  0  0  0  0
   -0.5530   -0.1942    2.1169 C   0  0  0  0  0  0  0  0  0  0  0  0
    0.7376   -0.3433    1.8761 N   0  0  0  0  0  0  0  0  0  0  0  0
    0.8784   -1.1145    0.7422 N   0  0  0  0  0  0  0  0  0  0  0  0
   -0.3280   -1.4020    0.3071 C   0  0  0  0  0  0  0  0  0  0  0  0
   -0.7005   -2.3634   -1.0800 S   0  0  0  0  0  0  0  0  0  0  0  0
    0.7033   -1.9085   -2.1452 C   0  0  0  0  0  0  0  0  0  0  0  0
    0.7050   -0.4219   -2.4694 C   0  0  0  0  0  0  0  0  0  0  0  0
   -0.3155    0.2670   -2.4912 O   0  0  0  0  0  0  0  0  0  0  0  0
    2.0066    0.2290   -2.8047 C   0  0  0  0  0  0  0  0  0  0  0  0
    2.0910    1.6266   -2.7239 C   0  0  0  0  0  0  0  0  0  0  0  0
    3.2862    2.2849   -3.0296 C   0  0  0  0  0  0  0  0  0  0  0  0
    4.4078    1.5512   -3.4249 C   0  0  0  0  0  0  0  0  0  0  0  0
    5.6348    2.2225   -3.7416 C   0  0  0  0  0  0  0  0  0  0  0  0
    6.6292    2.7606   -4.0025 N   0  0  0  0  0  0  0  0  0  0  0  0
    4.3256    0.1571   -3.5153 C   0  0  0  0  0  0  0  0  0  0  0  0
    3.1294   -0.5036   -3.2091 C   0  0  0  0  0  0  0  0  0  0  0  0
   -1.2580   -0.8086    1.1123 N   0  0  0  0  0  0  0  0  0  0  0  0
   -2.7291   -0.8355    0.9370 C   0  0  0  0  0  0  0  0  0  0  0  0
   -3.3989   -0.2545   -0.2892 C   0  0  0  0  0  0  0  0  0  0  0  0
   -3.5979    0.3987    1.0419 C   0  0  0  0  0  0  0  0  0  0  0  0
   -2.1034   -1.9913    3.9210 H   0  0  0  0  0  0  0  0  0  0  0  0
   -3.6707   -1.1532    3.8832 H   0  0  0  0  0  0  0  0  0  0  0  0
   -2.8289   -1.4065    5.4217 H   0  0  0  0  0  0  0  0  0  0  0  0
    0.6234   -2.4658   -3.0833 H   0  0  0  0  0  0  0  0  0  0  0  0
    1.6253   -2.2009   -1.6351 H   0  0  0  0  0  0  0  0  0  0  0  0
    1.2249    2.2115   -2.4162 H   0  0  0  0  0  0  0  0  0  0  0  0
    3.3311    3.3704   -2.9557 H   0  0  0  0  0  0  0  0  0  0  0  0
    5.1924   -0.4244   -3.8274 H   0  0  0  0  0  0  0  0  0  0  0  0
    3.1025   -1.5854   -3.3063 H   0  0  0  0  0  0  0  0  0  0  0  0
   -3.1547   -1.7634    1.3110 H   0  0  0  0  0  0  0  0  0  0  0  0
   -2.7920    0.2685   -1.0223 H   0  0  0  0  0  0  0  0  0  0  0  0
   -4.2294   -0.8014   -0.7217 H   0  0  0  0  0  0  0  0  0  0  0  0
   -3.1403    1.3717    1.1841 H   0  0  0  0  0  0  0  0  0  0  0  0
   -4.5690    0.3003    1.5151 H   0  0  0  0  0  0  0  0  0  0  0  0
  1  2  1  0
  2  3  1  0
  3  4  2  0
  4  5  1  0
  5  6  1  0
  6  7  1  0
  7  8  2  0
  8  9  1  0
  9 10  2  0
 10 11  1  0
 11 12  1  0
 12 13  1  0
 13 14  2  0
 13 15  1  0
 15 16  2  0
 16 17  1  0
 17 18  2  0
 18 19  1  0
 19 20  3  0
 18 21  1  0
 21 22  2  0
 10 23  1  0
 23 24  1  0
 24 25  1  0
 25 26  1  0
  6  2  2  0
 23  7  1  0
 26 24  1  0
 22 15  1  0
  1 27  1  0
  1 28  1  0
  1 29  1  0
 12 30  1  0
 12 31  1  0
 16 32  1  0
 17 33  1  0
 21 34  1  0
 22 35  1  0
 24 36  1  0
 25 37  1  0
 25 38  1  0
 26 39  1  0
 26 40  1  0
M  END
$$$$
