
     RDKit          3D

 55 56  0  0  0  0  0  0  0  0999 V2000
   -1.9384   -0.8258    3.0956 C   0  0  0  0  0  0  0  0  0  0  0  0
   -1.9710   -0.7086    1.6148 C   0  0  0  0  0  0  0  0  0  0  0  0
   -1.4932   -1.6091    0.6837 C   0  0  0  0  0  0  0  0  0  0  0  0
   -1.7363   -1.0300   -0.5774 C   0  0  0  0  0  0  0  0  0  0  0  0
   -1.3976   -1.5737   -1.8949 C   0  0  0  0  0  0  0  0  0  0  0  0
   -0.8370   -2.6541   -2.0729 O   0  0  0  0  0  0  0  0  0  0  0  0
   -1.7473   -0.7243   -2.9317 N   0  0  0  0  0  0  0  0  0  0  0  0
   -1.0061   -0.8726   -4.2510 N   0  0  0  0  0  0  0  0  0  0  0  0
    0.2899    0.2096   -4.5214 S   0  0  0  0  0  6  0  0  0  0  0  0
   -0.2557    1.5471   -4.4801 O   0  0  0  0  0  0  0  0  0  0  0  0
    1.0445   -0.2763   -5.6524 O   0  0  0  0  0  0  0  0  0  0  0  0
    1.2859   -0.0195   -3.0672 C   0  0  0  0  0  0  0  0  0  0  0  0
    2.0208   -1.1950   -2.9236 C   0  0  0  0  0  0  0  0  0  0  0  0
    2.7446   -1.4170   -1.7497 C   0  0  0  0  0  0  0  0  0  0  0  0
    2.7590   -0.4717   -0.7078 C   0  0  0  0  0  0  0  0  0  0  0  0
    3.5272   -0.7043    0.6054 C   0  0  0  0  0  0  0  0  0  0  0  0
    4.1329   -2.1218    0.7238 C   0  0  0  0  0  0  0  0  0  0  0  0
    2.5846   -0.5152    1.8143 C   0  0  0  0  0  0  0  0  0  0  0  0
    4.6873    0.3087    0.7050 C   0  0  0  0  0  0  0  0  0  0  0  0
    2.0427    0.7261   -0.9054 C   0  0  0  0  0  0  0  0  0  0  0  0
    1.3094    0.9550   -2.0714 C   0  0  0  0  0  0  0  0  0  0  0  0
   -2.3136    0.1749   -0.4447 N   0  0  0  0  0  0  0  0  0  0  0  0
   -2.5078    0.3361    0.8885 N   0  0  0  0  0  0  0  0  0  0  0  0
   -3.1631    1.5814    1.3532 C   0  0  0  0  0  0  0  0  0  0  0  0
   -2.0928    2.5597    1.8738 C   0  0  0  0  0  0  0  0  0  0  0  0
   -3.9147    2.2869    0.1906 C   0  0  0  0  0  0  0  0  0  0  0  0
   -4.2150    1.3070    2.4469 C   0  0  0  0  0  0  0  0  0  0  0  0
   -1.2351   -1.6053    3.4020 H   0  0  0  0  0  0  0  0  0  0  0  0
   -2.9243   -1.1050    3.4829 H   0  0  0  0  0  0  0  0  0  0  0  0
   -1.6128    0.0992    3.5710 H   0  0  0  0  0  0  0  0  0  0  0  0
   -1.0072   -2.5535    0.8821 H   0  0  0  0  0  0  0  0  0  0  0  0
   -2.0344    0.2217   -2.6631 H   0  0  0  0  0  0  0  0  0  0  0  0
   -0.7437   -1.8368   -4.4874 H   0  0  0  0  0  0  0  0  0  0  0  0
    2.0190   -1.9526   -3.7052 H   0  0  0  0  0  0  0  0  0  0  0  0
    3.2839   -2.3581   -1.6725 H   0  0  0  0  0  0  0  0  0  0  0  0
    4.6347   -2.2590    1.6877 H   0  0  0  0  0  0  0  0  0  0  0  0
    4.8782   -2.3103   -0.0567 H   0  0  0  0  0  0  0  0  0  0  0  0
    3.3571   -2.8941    0.6453 H   0  0  0  0  0  0  0  0  0  0  0  0
    1.7249   -1.1910    1.7546 H   0  0  0  0  0  0  0  0  0  0  0  0
    2.1971    0.5075    1.8869 H   0  0  0  0  0  0  0  0  0  0  0  0
    3.1069   -0.7214    2.7538 H   0  0  0  0  0  0  0  0  0  0  0  0
    5.3678    0.2117   -0.1490 H   0  0  0  0  0  0  0  0  0  0  0  0
    4.3314    1.3452    0.7248 H   0  0  0  0  0  0  0  0  0  0  0  0
    5.2734    0.1501    1.6190 H   0  0  0  0  0  0  0  0  0  0  0  0
    2.0418    1.5024   -0.1436 H   0  0  0  0  0  0  0  0  0  0  0  0
    0.7546    1.8827   -2.1816 H   0  0  0  0  0  0  0  0  0  0  0  0
   -2.5424    3.5138    2.1758 H   0  0  0  0  0  0  0  0  0  0  0  0
   -1.3408    2.7717    1.1021 H   0  0  0  0  0  0  0  0  0  0  0  0
   -1.5597    2.1623    2.7432 H   0  0  0  0  0  0  0  0  0  0  0  0
   -4.6723    1.6269   -0.2543 H   0  0  0  0  0  0  0  0  0  0  0  0
   -4.4286    3.1896    0.5422 H   0  0  0  0  0  0  0  0  0  0  0  0
   -3.2294    2.5998   -0.6076 H   0  0  0  0  0  0  0  0  0  0  0  0
   -4.8351    2.1918    2.6352 H   0  0  0  0  0  0  0  0  0  0  0  0
   -3.7607    1.0481    3.4068 H   0  0  0  0  0  0  0  0  0  0  0  0
   -4.8831    0.4892    2.1559 H   0  0  0  0  0  0  0  0  0  0  0  0
  1  2  1  0
  2  3  2  0
  3  4  1  0
  4  5  1  0
  5  6  2  0
  5  7  1  0
  7  8  1  0
  8  9  1  0
  9 10  2  0
  9 11  2  0
  9 12  1  0
 12 13  2  0
 13 14  1  0
 14 15  2  0
 15 16  1  0
 16 17  1  0
 16 18  1  0
 16 19  1  0
 15 20  1  0
 20 21  2  0
  4 22  2  0
 22 23  1  0
 23 24  1  0
 24 25  1  0
 24 26  1  0
 24 27  1  0
 23  2  1  0
 21 12  1  0
  1 28  1  0
  1 29  1  0
  1 30  1  0
  3 31  1  0
  7 32  1  0
  8 33  1  0
 13 34  1  0
 14 35  1  0
 17 36  1  0
 17 37  1  0
 17 38  1  0
 18 39  1  0
 18 40  1  0
 18 41  1  0
 19 42  1  0
 19 43  1  0
 19 44  1  0
 20 45  1  0
 21 46  1  0
 25 47  1  0
 25 48  1  0
 25 49  1  0
 26 50  1  0
 26 51  1  0
 26 52  1  0
 27 53  1  0
 27 54  1  0
 27 55  1  0
M  END
$$$$
