
     RDKit          3D

 62 65  0  0  0  0  0  0  0  0999 V2000
    3.6181   -4.2650   -3.0450 C   0  0  0  0  0  0  0  0  0  0  0  0
    2.7903   -3.2554   -2.4760 O   0  0  0  0  0  0  0  0  0  0  0  0
    3.4301   -2.2218   -1.8316 C   0  0  0  0  0  0  0  0  0  0  0  0
    4.8139   -2.1438   -1.6171 C   0  0  0  0  0  0  0  0  0  0  0  0
    5.3577   -1.0548   -0.9302 C   0  0  0  0  0  0  0  0  0  0  0  0
    4.5126   -0.0509   -0.4483 C   0  0  0  0  0  0  0  0  0  0  0  0
    5.1866    1.3463    0.4216 S   0  0  0  0  0  6  0  0  0  0  0  0
    6.6087    1.3675    0.1502 O   0  0  0  0  0  0  0  0  0  0  0  0
    4.3576    2.4893    0.1121 O   0  0  0  0  0  0  0  0  0  0  0  0
    4.9684    0.9504    2.0407 N   0  0  0  0  0  0  0  0  0  0  0  0
    3.6091    0.9750    2.6386 C   0  0  0  0  0  0  0  0  0  0  0  0
    3.0625   -0.4384    2.8890 C   0  0  0  0  0  0  0  0  0  0  0  0
    3.9892   -1.2504    3.6150 O   0  0  0  0  0  0  0  0  0  0  0  0
    5.2233   -1.3646    2.8973 C   0  0  0  0  0  0  0  0  0  0  0  0
    5.8835    0.0032    2.7120 C   0  0  0  0  0  0  0  0  0  0  0  0
    3.1374   -0.0935   -0.6988 C   0  0  0  0  0  0  0  0  0  0  0  0
    2.5856   -1.1885   -1.3625 C   0  0  0  0  0  0  0  0  0  0  0  0
    1.2031   -1.3192   -1.6191 N   0  0  0  0  0  0  0  0  0  0  0  0
    0.1730   -0.4905   -1.1785 C   0  0  0  0  0  0  0  0  0  0  0  0
    0.2868    0.4399   -0.3808 O   0  0  0  0  0  0  0  0  0  0  0  0
   -1.1812   -0.8758   -1.7911 C   0  0  0  0  0  0  0  0  0  0  0  0
   -2.1745    0.1187   -1.5537 O   0  0  0  0  0  0  0  0  0  0  0  0
   -2.7553    0.0522   -0.3236 C   0  0  0  0  0  0  0  0  0  0  0  0
   -2.5981   -0.8563    0.4876 O   0  0  0  0  0  0  0  0  0  0  0  0
   -3.6304    1.2622   -0.0828 C   0  0  0  0  0  0  0  0  0  0  0  0
   -4.9572    1.1546   -0.8222 C   0  0  0  0  0  0  0  0  0  0  0  0
   -5.9841    0.2339   -0.1235 C   0  0  0  0  0  0  0  0  0  0  0  0
   -7.2378    1.1237   -0.0131 C   0  0  0  0  0  0  0  0  0  0  0  0
   -6.9972    2.1716    1.0906 C   0  0  0  0  0  0  0  0  0  0  0  0
   -5.9888    3.1277    0.4360 C   0  0  0  0  0  0  0  0  0  0  0  0
   -5.7446    2.4860   -0.9465 C   0  0  0  0  0  0  0  0  0  0  0  0
   -7.1497    1.9719   -1.2843 C   0  0  0  0  0  0  0  0  0  0  0  0
    2.9767   -4.9582   -3.5964 H   0  0  0  0  0  0  0  0  0  0  0  0
    4.0990   -4.8293   -2.2491 H   0  0  0  0  0  0  0  0  0  0  0  0
    4.3419   -3.8472   -3.7500 H   0  0  0  0  0  0  0  0  0  0  0  0
    5.4957   -2.9135   -1.9651 H   0  0  0  0  0  0  0  0  0  0  0  0
    6.4350   -0.9980   -0.7780 H   0  0  0  0  0  0  0  0  0  0  0  0
    3.6916    1.5066    3.5891 H   0  0  0  0  0  0  0  0  0  0  0  0
    2.9059    1.5376    2.0206 H   0  0  0  0  0  0  0  0  0  0  0  0
    2.1448   -0.3778    3.4818 H   0  0  0  0  0  0  0  0  0  0  0  0
    2.8122   -0.9487    1.9583 H   0  0  0  0  0  0  0  0  0  0  0  0
    5.0349   -1.8584    1.9421 H   0  0  0  0  0  0  0  0  0  0  0  0
    5.8827   -2.0123    3.4787 H   0  0  0  0  0  0  0  0  0  0  0  0
    6.8318   -0.1001    2.1797 H   0  0  0  0  0  0  0  0  0  0  0  0
    6.1169    0.4293    3.6917 H   0  0  0  0  0  0  0  0  0  0  0  0
    2.5222    0.7391   -0.3700 H   0  0  0  0  0  0  0  0  0  0  0  0
    0.9669   -2.1593   -2.1436 H   0  0  0  0  0  0  0  0  0  0  0  0
   -1.4982   -1.8552   -1.4101 H   0  0  0  0  0  0  0  0  0  0  0  0
   -1.0618   -0.9684   -2.8754 H   0  0  0  0  0  0  0  0  0  0  0  0
   -3.7713    1.3605    1.0016 H   0  0  0  0  0  0  0  0  0  0  0  0
   -3.0780    2.1551   -0.4071 H   0  0  0  0  0  0  0  0  0  0  0  0
   -4.7761    0.7656   -1.8327 H   0  0  0  0  0  0  0  0  0  0  0  0
   -6.1939   -0.6415   -0.7462 H   0  0  0  0  0  0  0  0  0  0  0  0
   -5.6544   -0.1148    0.8559 H   0  0  0  0  0  0  0  0  0  0  0  0
   -8.1629    0.5582    0.1164 H   0  0  0  0  0  0  0  0  0  0  0  0
   -7.9225    2.7040    1.3314 H   0  0  0  0  0  0  0  0  0  0  0  0
   -6.6068    1.7327    2.0138 H   0  0  0  0  0  0  0  0  0  0  0  0
   -6.4453    4.1209    0.3266 H   0  0  0  0  0  0  0  0  0  0  0  0
   -5.0723    3.2454    1.0288 H   0  0  0  0  0  0  0  0  0  0  0  0
   -5.3167    3.1780   -1.6768 H   0  0  0  0  0  0  0  0  0  0  0  0
   -7.9048    2.7712   -1.3290 H   0  0  0  0  0  0  0  0  0  0  0  0
   -7.1917    1.3733   -2.2074 H   0  0  0  0  0  0  0  0  0  0  0  0
  1  2  1  0
  2  3  1  0
  3  4  2  0
  4  5  1  0
  5  6  2  0
  6  7  1  0
  7  8  2  0
  7  9  2  0
  7 10  1  0
 10 11  1  0
 11 12  1  0
 12 13  1  0
 13 14  1  0
 14 15  1  0
  6 16  1  0
 16 17  2  0
 17 18  1  0
 18 19  1  0
 19 20  2  0
 19 21  1  0
 21 22  1  0
 22 23  1  0
 23 24  2  0
 23 25  1  0
 25 26  1  0
 26 27  1  0
 27 28  1  0
 28 29  1  0
 29 30  1  0
 30 31  1  0
 31 32  1  0
 17  3  1  0
 31 26  1  0
 15 10  1  0
 32 28  1  0
  1 33  1  0
  1 34  1  0
  1 35  1  0
  4 36  1  0
  5 37  1  0
 11 38  1  0
 11 39  1  0
 12 40  1  0
 12 41  1  0
 14 42  1  0
 14 43  1  0
 15 44  1  0
 15 45  1  0
 16 46  1  0
 18 47  1  0
 21 48  1  0
 21 49  1  0
 25 50  1  0
 25 51  1  0
 26 52  1  0
 27 53  1  0
 27 54  1  0
 28 55  1  0
 29 56  1  0
 29 57  1  0
 30 58  1  0
 30 59  1  0
 31 60  1  0
 32 61  1  0
 32 62  1  0
M  END
$$$$
