
     RDKit          3D

 35 37  0  0  0  0  0  0  0  0999 V2000
   -3.7249    2.1678    1.3892 C   0  0  0  0  0  0  0  0  0  0  0  0
   -3.1144    0.9899    0.6869 C   0  0  0  0  0  0  0  0  0  0  0  0
   -2.4216    1.1677   -0.5186 C   0  0  0  0  0  0  0  0  0  0  0  0
   -1.8816    0.0716   -1.1927 C   0  0  0  0  0  0  0  0  0  0  0  0
   -2.0334   -1.2089   -0.6554 C   0  0  0  0  0  0  0  0  0  0  0  0
   -1.3496   -2.6129   -1.5061 S   0  0  0  0  0  6  0  0  0  0  0  0
   -2.1767   -3.7590   -1.1918 O   0  0  0  0  0  0  0  0  0  0  0  0
   -1.0879   -2.2289   -2.8769 O   0  0  0  0  0  0  0  0  0  0  0  0
    0.1190   -2.8609   -0.7037 N   0  0  0  0  0  0  0  0  0  0  0  0
    1.0486   -1.7899   -0.6141 C   0  0  0  0  0  0  0  0  0  0  0  0
    1.6682   -1.2865   -1.7573 C   0  0  0  0  0  0  0  0  0  0  0  0
    2.5535   -0.2071   -1.6653 C   0  0  0  0  0  0  0  0  0  0  0  0
    2.8184    0.3740   -0.4179 C   0  0  0  0  0  0  0  0  0  0  0  0
    3.7058    1.4708   -0.2978 N   0  0  0  0  0  0  0  0  0  0  0  0
    4.4212    2.1287   -1.2663 C   0  0  0  0  0  0  0  0  0  0  0  0
    5.1184    3.0943   -0.7128 N   0  0  0  0  0  0  0  0  0  0  0  0
    4.8337    3.0375    0.6253 N   0  0  0  0  0  0  0  0  0  0  0  0
    3.9798    2.0589    0.8897 N   0  0  0  0  0  0  0  0  0  0  0  0
    2.1932   -0.1382    0.7301 C   0  0  0  0  0  0  0  0  0  0  0  0
    1.3115   -1.2185    0.6296 C   0  0  0  0  0  0  0  0  0  0  0  0
   -2.7500   -1.4058    0.5280 C   0  0  0  0  0  0  0  0  0  0  0  0
   -3.2886   -0.3048    1.1955 C   0  0  0  0  0  0  0  0  0  0  0  0
   -3.1300    3.0722    1.2235 H   0  0  0  0  0  0  0  0  0  0  0  0
   -3.7651    1.9996    2.4705 H   0  0  0  0  0  0  0  0  0  0  0  0
   -4.7404    2.3386    1.0191 H   0  0  0  0  0  0  0  0  0  0  0  0
   -2.3033    2.1637   -0.9412 H   0  0  0  0  0  0  0  0  0  0  0  0
   -1.3484    0.2242   -2.1283 H   0  0  0  0  0  0  0  0  0  0  0  0
    0.0057   -3.4655    0.1084 H   0  0  0  0  0  0  0  0  0  0  0  0
    1.4721   -1.7348   -2.7297 H   0  0  0  0  0  0  0  0  0  0  0  0
    3.0105    0.1465   -2.5852 H   0  0  0  0  0  0  0  0  0  0  0  0
    4.4048    1.8816   -2.3153 H   0  0  0  0  0  0  0  0  0  0  0  0
    2.3759    0.2926    1.7140 H   0  0  0  0  0  0  0  0  0  0  0  0
    0.8290   -1.5923    1.5288 H   0  0  0  0  0  0  0  0  0  0  0  0
   -2.9010   -2.4049    0.9298 H   0  0  0  0  0  0  0  0  0  0  0  0
   -3.8524   -0.4613    2.1133 H   0  0  0  0  0  0  0  0  0  0  0  0
  1  2  1  0
  2  3  2  0
  3  4  1  0
  4  5  2  0
  5  6  1  0
  6  7  2  0
  6  8  2  0
  6  9  1  0
  9 10  1  0
 10 11  2  0
 11 12  1  0
 12 13  2  0
 13 14  1  0
 14 15  1  0
 15 16  2  0
 16 17  1  0
 17 18  2  0
 13 19  1  0
 19 20  2  0
  5 21  1  0
 21 22  2  0
 22  2  1  0
 20 10  1  0
 18 14  1  0
  1 23  1  0
  1 24  1  0
  1 25  1  0
  3 26  1  0
  4 27  1  0
  9 28  1  0
 11 29  1  0
 12 30  1  0
 15 31  1  0
 19 32  1  0
 20 33  1  0
 21 34  1  0
 22 35  1  0
M  END
$$$$
