
     RDKit          3D

 48 50  0  0  0  0  0  0  0  0999 V2000
   -3.3743   -2.1117   -2.0486 C   0  0  0  0  0  0  0  0  0  0  0  0
   -1.8908   -1.8260   -2.1841 C   0  0  0  0  0  0  0  0  0  0  0  0
   -1.4747   -0.8965   -1.1711 O   0  0  0  0  0  0  0  0  0  0  0  0
   -1.1030   -1.4296    0.0172 C   0  0  0  0  0  0  0  0  0  0  0  0
   -1.1242   -2.6262    0.2843 O   0  0  0  0  0  0  0  0  0  0  0  0
   -0.5769   -0.4037    0.9940 C   0  0  0  0  0  0  0  0  0  0  0  0
    0.9364   -0.3494    1.1088 C   0  0  0  0  0  0  0  0  0  0  0  0
    1.7668   -1.5891    0.8856 C   0  0  0  0  0  0  0  0  0  0  0  0
    2.4172   -1.6196   -0.7619 S   0  0  0  0  0  6  0  0  0  0  0  0
    2.9076   -2.9612   -1.0203 O   0  0  0  0  0  0  0  0  0  0  0  0
    1.4410   -1.0199   -1.6540 O   0  0  0  0  0  0  0  0  0  0  0  0
    3.8352   -0.5504   -0.7128 C   0  0  0  0  0  0  0  0  0  0  0  0
    5.0757   -1.0753   -0.3373 C   0  0  0  0  0  0  0  0  0  0  0  0
    6.1940   -0.2423   -0.3144 C   0  0  0  0  0  0  0  0  0  0  0  0
    6.0719    1.1010   -0.6734 C   0  0  0  0  0  0  0  0  0  0  0  0
    4.8346    1.6145   -1.0658 C   0  0  0  0  0  0  0  0  0  0  0  0
    3.7120    0.7876   -1.0955 C   0  0  0  0  0  0  0  0  0  0  0  0
    1.5818    0.7127    1.4810 N   0  0  0  0  0  0  0  0  0  0  0  0
    0.9423    1.8761    1.7977 C   0  0  0  0  0  0  0  0  0  0  0  0
    1.5215    2.8451    2.2710 O   0  0  0  0  0  0  0  0  0  0  0  0
   -0.3976    1.9452    1.5783 N   0  0  0  0  0  0  0  0  0  0  0  0
   -1.0614    1.0149    0.6990 C   0  0  0  0  0  0  0  0  0  0  0  0
   -2.5646    1.1899    0.8421 C   0  0  0  0  0  0  0  0  0  0  0  0
   -3.2105    0.9964    2.0745 C   0  0  0  0  0  0  0  0  0  0  0  0
   -4.5927    1.1566    2.1863 C   0  0  0  0  0  0  0  0  0  0  0  0
   -5.3465    1.5156    1.0716 C   0  0  0  0  0  0  0  0  0  0  0  0
   -4.7195    1.7196   -0.1550 C   0  0  0  0  0  0  0  0  0  0  0  0
   -3.3374    1.5613   -0.2693 C   0  0  0  0  0  0  0  0  0  0  0  0
   -3.7146   -2.7809   -2.8438 H   0  0  0  0  0  0  0  0  0  0  0  0
   -3.5991   -2.5734   -1.0819 H   0  0  0  0  0  0  0  0  0  0  0  0
   -3.9510   -1.1825   -2.0988 H   0  0  0  0  0  0  0  0  0  0  0  0
   -1.2986   -2.7475   -2.1469 H   0  0  0  0  0  0  0  0  0  0  0  0
   -1.6924   -1.3542   -3.1520 H   0  0  0  0  0  0  0  0  0  0  0  0
   -0.9371   -0.7173    1.9842 H   0  0  0  0  0  0  0  0  0  0  0  0
    2.6069   -1.6222    1.5861 H   0  0  0  0  0  0  0  0  0  0  0  0
    1.1795   -2.4944    1.0424 H   0  0  0  0  0  0  0  0  0  0  0  0
    5.1830   -2.1242   -0.0703 H   0  0  0  0  0  0  0  0  0  0  0  0
    7.1629   -0.6390   -0.0210 H   0  0  0  0  0  0  0  0  0  0  0  0
    6.9445    1.7496   -0.6519 H   0  0  0  0  0  0  0  0  0  0  0  0
    4.7463    2.6611   -1.3476 H   0  0  0  0  0  0  0  0  0  0  0  0
    2.7550    1.1974   -1.4084 H   0  0  0  0  0  0  0  0  0  0  0  0
   -0.7721    2.8794    1.6907 H   0  0  0  0  0  0  0  0  0  0  0  0
   -0.7527    1.3129   -0.3128 H   0  0  0  0  0  0  0  0  0  0  0  0
   -2.6419    0.7291    2.9631 H   0  0  0  0  0  0  0  0  0  0  0  0
   -5.0818    1.0046    3.1454 H   0  0  0  0  0  0  0  0  0  0  0  0
   -6.4228    1.6404    1.1598 H   0  0  0  0  0  0  0  0  0  0  0  0
   -5.3076    2.0026   -1.0246 H   0  0  0  0  0  0  0  0  0  0  0  0
   -2.8703    1.7229   -1.2393 H   0  0  0  0  0  0  0  0  0  0  0  0
  1  2  1  0
  2  3  1  0
  3  4  1  0
  4  5  2  0
  4  6  1  0
  6  7  1  0
  7  8  1  0
  8  9  1  0
  9 10  2  0
  9 11  2  0
  9 12  1  0
 12 13  2  0
 13 14  1  0
 14 15  2  0
 15 16  1  0
 16 17  2  0
  7 18  2  0
 18 19  1  0
 19 20  2  0
 19 21  1  0
 21 22  1  0
 22 23  1  0
 23 24  2  0
 24 25  1  0
 25 26  2  0
 26 27  1  0
 27 28  2  0
 22  6  1  0
 28 23  1  0
 17 12  1  0
  1 29  1  0
  1 30  1  0
  1 31  1  0
  2 32  1  0
  2 33  1  0
  6 34  1  0
  8 35  1  0
  8 36  1  0
 13 37  1  0
 14 38  1  0
 15 39  1  0
 16 40  1  0
 17 41  1  0
 21 42  1  0
 22 43  1  0
 24 44  1  0
 25 45  1  0
 26 46  1  0
 27 47  1  0
 28 48  1  0
M  END
$$$$
