
     RDKit          3D

 52 55  0  0  0  0  0  0  0  0999 V2000
    7.4556   -1.2187    3.0318 C   0  0  0  0  0  0  0  0  0  0  0  0
    6.0744   -0.7909    2.6243 C   0  0  0  0  0  0  0  0  0  0  0  0
    4.9902   -1.0013    3.4898 C   0  0  0  0  0  0  0  0  0  0  0  0
    3.6863   -0.6443    3.1286 C   0  0  0  0  0  0  0  0  0  0  0  0
    3.5228   -0.0826    1.8654 C   0  0  0  0  0  0  0  0  0  0  0  0
    2.3425    0.3243    1.3359 O   0  0  0  0  0  0  0  0  0  0  0  0
    2.5845    0.8087    0.0790 C   0  0  0  0  0  0  0  0  0  0  0  0
    1.5048    1.3391   -0.7549 C   0  0  0  0  0  0  0  0  0  0  0  0
    1.7730    1.9474   -1.7957 O   0  0  0  0  0  0  0  0  0  0  0  0
    0.1571    1.1537   -0.3933 N   0  0  0  0  0  0  0  0  0  0  0  0
   -0.2998    0.4207    0.7856 C   0  0  0  0  0  0  0  0  0  0  0  0
   -1.8239    0.3825    0.9092 C   0  0  0  0  0  0  0  0  0  0  0  0
   -2.4709   -0.1707   -0.3749 C   0  0  0  0  0  0  0  0  0  0  0  0
   -2.1195   -1.5702   -0.4147 O   0  0  0  0  0  0  0  0  0  0  0  0
   -4.0035   -0.1189   -0.4043 C   0  0  0  0  0  0  0  0  0  0  0  0
   -4.7760    0.5189    0.5774 C   0  0  0  0  0  0  0  0  0  0  0  0
   -6.1726    0.5194    0.5081 C   0  0  0  0  0  0  0  0  0  0  0  0
   -6.8263   -0.1183   -0.5433 C   0  0  0  0  0  0  0  0  0  0  0  0
   -6.0905   -0.7607   -1.5457 C   0  0  0  0  0  0  0  0  0  0  0  0
   -6.7818   -1.4747   -2.6815 C   0  0  0  0  0  0  0  0  0  0  0  0
   -6.8468   -2.8199   -2.4813 F   0  0  0  0  0  0  0  0  0  0  0  0
   -6.1516   -1.3028   -3.8771 F   0  0  0  0  0  0  0  0  0  0  0  0
   -8.0657   -1.0635   -2.8770 F   0  0  0  0  0  0  0  0  0  0  0  0
   -4.6877   -0.7613   -1.4593 C   0  0  0  0  0  0  0  0  0  0  0  0
   -1.8638    0.4925   -1.6387 C   0  0  0  0  0  0  0  0  0  0  0  0
   -0.8845    1.6158   -1.3054 C   0  0  0  0  0  0  0  0  0  0  0  0
    3.9512    0.7155   -0.1907 C   0  0  0  0  0  0  0  0  0  0  0  0
    4.6381    1.1362   -1.4405 C   0  0  0  0  0  0  0  0  0  0  0  0
    4.5549    0.1354    0.9669 C   0  0  0  0  0  0  0  0  0  0  0  0
    5.8602   -0.2309    1.3502 C   0  0  0  0  0  0  0  0  0  0  0  0
    8.2188   -0.6263    2.5158 H   0  0  0  0  0  0  0  0  0  0  0  0
    7.6056   -2.2757    2.7895 H   0  0  0  0  0  0  0  0  0  0  0  0
    7.6050   -1.0758    4.1070 H   0  0  0  0  0  0  0  0  0  0  0  0
    5.1558   -1.4527    4.4665 H   0  0  0  0  0  0  0  0  0  0  0  0
    2.8436   -0.7994    3.7915 H   0  0  0  0  0  0  0  0  0  0  0  0
    0.1037    0.9146    1.6753 H   0  0  0  0  0  0  0  0  0  0  0  0
    0.1029   -0.5968    0.7344 H   0  0  0  0  0  0  0  0  0  0  0  0
   -2.0884   -0.2376    1.7752 H   0  0  0  0  0  0  0  0  0  0  0  0
   -2.1757    1.4009    1.1180 H   0  0  0  0  0  0  0  0  0  0  0  0
   -2.8043   -2.0624    0.0732 H   0  0  0  0  0  0  0  0  0  0  0  0
   -4.3180    1.0259    1.4226 H   0  0  0  0  0  0  0  0  0  0  0  0
   -6.7519    1.0168    1.2848 H   0  0  0  0  0  0  0  0  0  0  0  0
   -7.9146   -0.1121   -0.5779 H   0  0  0  0  0  0  0  0  0  0  0  0
   -4.1121   -1.2764   -2.2322 H   0  0  0  0  0  0  0  0  0  0  0  0
   -2.6403    0.9213   -2.2854 H   0  0  0  0  0  0  0  0  0  0  0  0
   -1.3409   -0.2625   -2.2424 H   0  0  0  0  0  0  0  0  0  0  0  0
   -0.4632    2.0076   -2.2364 H   0  0  0  0  0  0  0  0  0  0  0  0
   -1.4023    2.4527   -0.8216 H   0  0  0  0  0  0  0  0  0  0  0  0
    4.5882    2.2240   -1.5570 H   0  0  0  0  0  0  0  0  0  0  0  0
    4.1716    0.6673   -2.3137 H   0  0  0  0  0  0  0  0  0  0  0  0
    5.6944    0.8480   -1.4368 H   0  0  0  0  0  0  0  0  0  0  0  0
    6.6912   -0.0819    0.6663 H   0  0  0  0  0  0  0  0  0  0  0  0
  1  2  1  0
  2  3  2  0
  3  4  1  0
  4  5  2  0
  5  6  1  0
  6  7  1  0
  7  8  1  0
  8  9  2  0
  8 10  1  0
 10 11  1  0
 11 12  1  0
 12 13  1  0
 13 14  1  0
 13 15  1  0
 15 16  2  0
 16 17  1  0
 17 18  2  0
 18 19  1  0
 19 20  1  0
 20 21  1  0
 20 22  1  0
 20 23  1  0
 19 24  2  0
 13 25  1  0
 25 26  1  0
  7 27  2  0
 27 28  1  0
 27 29  1  0
 29 30  2  0
 30  2  1  0
 29  5  1  0
 26 10  1  0
 24 15  1  0
  1 31  1  0
  1 32  1  0
  1 33  1  0
  3 34  1  0
  4 35  1  0
 11 36  1  0
 11 37  1  0
 12 38  1  0
 12 39  1  0
 14 40  1  0
 16 41  1  0
 17 42  1  0
 18 43  1  0
 24 44  1  0
 25 45  1  0
 25 46  1  0
 26 47  1  0
 26 48  1  0
 28 49  1  0
 28 50  1  0
 28 51  1  0
 30 52  1  0
M  END
$$$$
