
     RDKit          3D

 50 52  0  0  0  0  0  0  0  0999 V2000
    5.7995    2.1001   -2.7854 C   0  0  0  0  0  0  0  0  0  0  0  0
    4.5774    1.4353   -2.4773 O   0  0  0  0  0  0  0  0  0  0  0  0
    4.5307    0.0765   -2.6969 C   0  0  0  0  0  0  0  0  0  0  0  0
    5.5740   -0.6855   -3.2325 C   0  0  0  0  0  0  0  0  0  0  0  0
    5.4152   -2.0621   -3.4134 C   0  0  0  0  0  0  0  0  0  0  0  0
    4.2184   -2.6803   -3.0608 C   0  0  0  0  0  0  0  0  0  0  0  0
    3.1706   -1.9267   -2.5244 C   0  0  0  0  0  0  0  0  0  0  0  0
    3.3160   -0.5500   -2.3401 C   0  0  0  0  0  0  0  0  0  0  0  0
    2.3058    0.2822   -1.8079 N   0  0  0  0  0  0  0  0  0  0  0  0
    1.0418   -0.0720   -1.3627 C   0  0  0  0  0  0  0  0  0  0  0  0
    0.5712   -1.2071   -1.3558 O   0  0  0  0  0  0  0  0  0  0  0  0
    0.2684    1.1516   -0.8554 C   0  0  0  0  0  0  0  0  0  0  0  0
   -1.0281    0.8058   -0.3839 O   0  0  0  0  0  0  0  0  0  0  0  0
   -1.6299    1.7832    0.3294 C   0  0  0  0  0  0  0  0  0  0  0  0
   -1.2212    2.9216    0.4972 O   0  0  0  0  0  0  0  0  0  0  0  0
   -2.9436    1.3154    0.8130 C   0  0  0  0  0  0  0  0  0  0  0  0
   -4.0564    2.0947    0.4626 C   0  0  0  0  0  0  0  0  0  0  0  0
   -5.3270    1.6891    0.8772 C   0  0  0  0  0  0  0  0  0  0  0  0
   -6.5025    2.4841    0.5044 N   0  0  0  0  0  4  0  0  0  0  0  0
   -7.5907    2.1724    1.0088 O   0  0  0  0  0  0  0  0  0  0  0  0
   -6.3372    3.4179   -0.2937 O   0  0  0  0  0  1  0  0  0  0  0  0
   -5.4883    0.5291    1.6446 C   0  0  0  0  0  0  0  0  0  0  0  0
   -4.3651   -0.2262    2.0031 C   0  0  0  0  0  0  0  0  0  0  0  0
   -3.0719    0.1468    1.5979 C   0  0  0  0  0  0  0  0  0  0  0  0
   -1.9518   -0.5722    2.0008 N   0  0  0  0  0  0  0  0  0  0  0  0
   -1.9361   -2.0373    1.8835 C   0  0  0  0  0  0  0  0  0  0  0  0
   -1.4381   -2.5261    3.2449 C   0  0  0  0  0  0  0  0  0  0  0  0
   -0.5585   -1.3805    3.7216 C   0  0  0  0  0  0  0  0  0  0  0  0
   -1.3577   -0.1571    3.2823 C   0  0  0  0  0  0  0  0  0  0  0  0
    6.0243    2.0354   -3.8572 H   0  0  0  0  0  0  0  0  0  0  0  0
    6.6250    1.7106   -2.1778 H   0  0  0  0  0  0  0  0  0  0  0  0
    5.6766    3.1606   -2.5357 H   0  0  0  0  0  0  0  0  0  0  0  0
    6.5202   -0.2431   -3.5221 H   0  0  0  0  0  0  0  0  0  0  0  0
    6.2262   -2.6545   -3.8330 H   0  0  0  0  0  0  0  0  0  0  0  0
    4.0938   -3.7537   -3.2063 H   0  0  0  0  0  0  0  0  0  0  0  0
    2.2525   -2.4435   -2.2648 H   0  0  0  0  0  0  0  0  0  0  0  0
    2.5814    1.2568   -1.7509 H   0  0  0  0  0  0  0  0  0  0  0  0
    0.8606    1.6048   -0.0473 H   0  0  0  0  0  0  0  0  0  0  0  0
    0.1653    1.8589   -1.6891 H   0  0  0  0  0  0  0  0  0  0  0  0
   -3.9140    2.9977   -0.1295 H   0  0  0  0  0  0  0  0  0  0  0  0
   -6.4717    0.2034    1.9797 H   0  0  0  0  0  0  0  0  0  0  0  0
   -4.5080   -1.1080    2.6265 H   0  0  0  0  0  0  0  0  0  0  0  0
   -1.2201   -2.3101    1.0969 H   0  0  0  0  0  0  0  0  0  0  0  0
   -2.9035   -2.4873    1.6260 H   0  0  0  0  0  0  0  0  0  0  0  0
   -0.8995   -3.4772    3.1774 H   0  0  0  0  0  0  0  0  0  0  0  0
   -2.2865   -2.6559    3.9317 H   0  0  0  0  0  0  0  0  0  0  0  0
    0.4104   -1.4065    3.2055 H   0  0  0  0  0  0  0  0  0  0  0  0
   -0.3773   -1.3994    4.8016 H   0  0  0  0  0  0  0  0  0  0  0  0
   -0.7089    0.7178    3.1592 H   0  0  0  0  0  0  0  0  0  0  0  0
   -2.1317    0.0706    4.0279 H   0  0  0  0  0  0  0  0  0  0  0  0
  1  2  1  0
  2  3  1  0
  3  4  2  0
  4  5  1  0
  5  6  2  0
  6  7  1  0
  7  8  2  0
  8  9  1  0
  9 10  1  0
 10 11  2  0
 10 12  1  0
 12 13  1  0
 13 14  1  0
 14 15  2  0
 14 16  1  0
 16 17  2  0
 17 18  1  0
 18 19  1  0
 19 20  2  0
 19 21  1  0
 18 22  2  0
 22 23  1  0
 23 24  2  0
 24 25  1  0
 25 26  1  0
 26 27  1  0
 27 28  1  0
 28 29  1  0
  8  3  1  0
 24 16  1  0
 29 25  1  0
  1 30  1  0
  1 31  1  0
  1 32  1  0
  4 33  1  0
  5 34  1  0
  6 35  1  0
  7 36  1  0
  9 37  1  0
 12 38  1  0
 12 39  1  0
 17 40  1  0
 22 41  1  0
 23 42  1  0
 26 43  1  0
 26 44  1  0
 27 45  1  0
 27 46  1  0
 28 47  1  0
 28 48  1  0
 29 49  1  0
 29 50  1  0
M  CHG  2  19   1  21  -1
M  END
$$$$
