
     RDKit          3D

 60 62  0  0  0  0  0  0  0  0999 V2000
   -5.5896   -5.1955    2.2597 C   0  0  0  0  0  0  0  0  0  0  0  0
   -4.9387   -3.9429    1.8653 N   0  0  0  0  0  0  0  0  0  0  0  0
   -4.6216   -3.1542    3.0510 C   0  0  0  0  0  0  0  0  0  0  0  0
   -3.7621   -4.2211    1.0255 C   0  0  0  0  0  0  0  0  0  0  0  0
   -3.1439   -2.9773    0.3634 C   0  0  0  0  0  0  0  0  0  0  0  0
   -1.9006   -2.4651    1.0976 C   0  0  0  0  0  0  0  0  0  0  0  0
   -1.2836   -1.3187    0.4014 N   0  0  0  0  0  0  0  0  0  0  0  0
   -1.8422   -0.0592    0.6905 C   0  0  0  0  0  0  0  0  0  0  0  0
   -2.7215    0.0490    1.5579 O   0  0  0  0  0  0  0  0  0  0  0  0
   -1.3881    1.1813   -0.0961 C   0  0  0  0  0  0  0  0  0  0  0  0
   -2.2122    2.3115    0.1986 O   0  0  0  0  0  0  0  0  0  0  0  0
   -1.9382    3.4658   -0.4830 C   0  0  0  0  0  0  0  0  0  0  0  0
   -2.8231    4.5129   -0.2316 C   0  0  0  0  0  0  0  0  0  0  0  0
   -2.6492    5.7522   -0.8525 C   0  0  0  0  0  0  0  0  0  0  0  0
   -1.5924    5.9438   -1.7388 C   0  0  0  0  0  0  0  0  0  0  0  0
   -0.7078    4.9004   -1.9988 C   0  0  0  0  0  0  0  0  0  0  0  0
   -0.8785    3.6649   -1.3697 C   0  0  0  0  0  0  0  0  0  0  0  0
   -0.2217   -1.4373   -0.5022 C   0  0  0  0  0  0  0  0  0  0  0  0
    0.4638   -0.4585   -1.0527 N   0  0  0  0  0  0  0  0  0  0  0  0
    1.4743   -0.9403   -1.8731 C   0  0  0  0  0  0  0  0  0  0  0  0
    2.3768    0.0264   -2.5624 C   0  0  0  0  0  0  0  0  0  0  0  0
    3.7845   -0.0466   -1.9887 C   0  0  0  0  0  0  0  0  0  0  0  0
    4.5124   -1.0047   -2.2519 O   0  0  0  0  0  0  0  0  0  0  0  0
    4.1049    1.0341   -1.1744 N   0  0  0  0  0  0  0  0  0  0  0  0
    5.3193    1.2596   -0.4925 C   0  0  0  0  0  0  0  0  0  0  0  0
    5.4133    2.4290    0.2766 C   0  0  0  0  0  0  0  0  0  0  0  0
    6.5845    2.7265    0.9815 C   0  0  0  0  0  0  0  0  0  0  0  0
    7.6701    1.8544    0.9193 C   0  0  0  0  0  0  0  0  0  0  0  0
    9.1112    2.2083    1.7874 Cl  0  0  0  0  0  0  0  0  0  0  0  0
    7.5899    0.6948    0.1621 C   0  0  0  0  0  0  0  0  0  0  0  0
    6.4172    0.3979   -0.5444 C   0  0  0  0  0  0  0  0  0  0  0  0
    1.5227   -2.3158   -1.9564 C   0  0  0  0  0  0  0  0  0  0  0  0
    0.2908   -3.0101   -0.9919 S   0  0  0  0  0  0  0  0  0  0  0  0
   -6.4828   -5.0026    2.8589 H   0  0  0  0  0  0  0  0  0  0  0  0
   -4.9234   -5.8494    2.8347 H   0  0  0  0  0  0  0  0  0  0  0  0
   -5.9237   -5.7417    1.3760 H   0  0  0  0  0  0  0  0  0  0  0  0
   -3.8412   -3.6264    3.6628 H   0  0  0  0  0  0  0  0  0  0  0  0
   -4.2951   -2.1489    2.7766 H   0  0  0  0  0  0  0  0  0  0  0  0
   -5.5121   -3.0161    3.6798 H   0  0  0  0  0  0  0  0  0  0  0  0
   -3.0017   -4.7855    1.5795 H   0  0  0  0  0  0  0  0  0  0  0  0
   -4.0885   -4.8749    0.2070 H   0  0  0  0  0  0  0  0  0  0  0  0
   -3.8887   -2.1788    0.2659 H   0  0  0  0  0  0  0  0  0  0  0  0
   -2.8644   -3.2393   -0.6660 H   0  0  0  0  0  0  0  0  0  0  0  0
   -1.1677   -3.2673    1.2355 H   0  0  0  0  0  0  0  0  0  0  0  0
   -2.1565   -2.1563    2.1163 H   0  0  0  0  0  0  0  0  0  0  0  0
   -1.4845    0.9564   -1.1637 H   0  0  0  0  0  0  0  0  0  0  0  0
   -0.3605    1.4115    0.2071 H   0  0  0  0  0  0  0  0  0  0  0  0
   -3.6528    4.3604    0.4539 H   0  0  0  0  0  0  0  0  0  0  0  0
   -3.3405    6.5611   -0.6422 H   0  0  0  0  0  0  0  0  0  0  0  0
   -1.4565    6.9053   -2.2236 H   0  0  0  0  0  0  0  0  0  0  0  0
    0.1143    5.0493   -2.6939 H   0  0  0  0  0  0  0  0  0  0  0  0
   -0.1678    2.8807   -1.5908 H   0  0  0  0  0  0  0  0  0  0  0  0
    2.4332   -0.2040   -3.6324 H   0  0  0  0  0  0  0  0  0  0  0  0
    1.9770    1.0450   -2.4845 H   0  0  0  0  0  0  0  0  0  0  0  0
    3.3846    1.7286   -1.0216 H   0  0  0  0  0  0  0  0  0  0  0  0
    4.5825    3.1284    0.3374 H   0  0  0  0  0  0  0  0  0  0  0  0
    6.6409    3.6352    1.5751 H   0  0  0  0  0  0  0  0  0  0  0  0
    8.4330    0.0051    0.1158 H   0  0  0  0  0  0  0  0  0  0  0  0
    6.4077   -0.5151   -1.1261 H   0  0  0  0  0  0  0  0  0  0  0  0
    2.2141   -2.9262   -2.5144 H   0  0  0  0  0  0  0  0  0  0  0  0
  1  2  1  0
  2  3  1  0
  2  4  1  0
  4  5  1  0
  5  6  1  0
  6  7  1  0
  7  8  1  0
  8  9  2  0
  8 10  1  0
 10 11  1  0
 11 12  1  0
 12 13  2  0
 13 14  1  0
 14 15  2  0
 15 16  1  0
 16 17  2  0
  7 18  1  0
 18 19  2  0
 19 20  1  0
 20 21  1  0
 21 22  1  0
 22 23  2  0
 22 24  1  0
 24 25  1  0
 25 26  2  0
 26 27  1  0
 27 28  2  0
 28 29  1  0
 28 30  1  0
 30 31  2  0
 20 32  2  0
 32 33  1  0
 17 12  1  0
 33 18  1  0
 31 25  1  0
  1 34  1  0
  1 35  1  0
  1 36  1  0
  3 37  1  0
  3 38  1  0
  3 39  1  0
  4 40  1  0
  4 41  1  0
  5 42  1  0
  5 43  1  0
  6 44  1  0
  6 45  1  0
 10 46  1  0
 10 47  1  0
 13 48  1  0
 14 49  1  0
 15 50  1  0
 16 51  1  0
 17 52  1  0
 21 53  1  0
 21 54  1  0
 24 55  1  0
 26 56  1  0
 27 57  1  0
 30 58  1  0
 31 59  1  0
 32 60  1  0
M  END
$$$$
