
     RDKit          3D

 46 49  0  0  0  0  0  0  0  0999 V2000
    6.3411   -0.8972    2.0031 N   0  0  0  0  0  0  0  0  0  0  0  0
    5.9807   -0.8787    0.3620 S   0  0  0  0  0  6  0  0  0  0  0  0
    6.3063   -2.2013   -0.1200 O   0  0  0  0  0  0  0  0  0  0  0  0
    6.5967    0.3150   -0.1682 O   0  0  0  0  0  0  0  0  0  0  0  0
    4.2281   -0.6645    0.3744 C   0  0  0  0  0  0  0  0  0  0  0  0
    3.6920    0.5808    0.6974 C   0  0  0  0  0  0  0  0  0  0  0  0
    2.3024    0.7568    0.7044 C   0  0  0  0  0  0  0  0  0  0  0  0
    1.4232   -0.2910    0.3816 C   0  0  0  0  0  0  0  0  0  0  0  0
    0.0382   -0.1320    0.3769 N   0  0  0  0  0  0  0  0  0  0  0  0
   -0.7833   -1.1811    0.0764 N   0  0  0  0  0  0  0  0  0  0  0  0
   -1.9990   -0.8024    0.3272 C   0  0  0  0  0  0  0  0  0  0  0  0
   -3.1784   -1.6696    0.0955 C   0  0  0  0  0  0  0  0  0  0  0  0
   -4.4707   -1.2593    0.4442 C   0  0  0  0  0  0  0  0  0  0  0  0
   -5.5617   -2.1025    0.2069 C   0  0  0  0  0  0  0  0  0  0  0  0
   -5.3596   -3.3542   -0.3745 C   0  0  0  0  0  0  0  0  0  0  0  0
   -6.8362   -4.4912   -0.6910 Br  0  0  0  0  0  0  0  0  0  0  0  0
   -4.0769   -3.7730   -0.7223 C   0  0  0  0  0  0  0  0  0  0  0  0
   -2.9873   -2.9312   -0.4856 C   0  0  0  0  0  0  0  0  0  0  0  0
   -2.1283    0.5793    0.9058 C   0  0  0  0  0  0  0  0  0  0  0  0
   -0.6933    1.0836    0.7388 C   0  0  0  0  0  0  0  0  0  0  0  0
   -0.6263    2.1763   -0.3217 C   0  0  0  0  0  0  0  0  0  0  0  0
   -0.4949    1.8816   -1.6910 C   0  0  0  0  0  0  0  0  0  0  0  0
   -0.4649    2.9032   -2.6412 C   0  0  0  0  0  0  0  0  0  0  0  0
   -0.5764    4.2234   -2.2292 C   0  0  0  0  0  0  0  0  0  0  0  0
   -0.5497    5.2058   -3.1400 F   0  0  0  0  0  0  0  0  0  0  0  0
   -0.7192    4.5423   -0.8849 C   0  0  0  0  0  0  0  0  0  0  0  0
   -0.7445    3.5228    0.0681 C   0  0  0  0  0  0  0  0  0  0  0  0
    2.0044   -1.5301    0.0489 C   0  0  0  0  0  0  0  0  0  0  0  0
    3.3900   -1.7248    0.0425 C   0  0  0  0  0  0  0  0  0  0  0  0
    6.9620   -0.1193    2.2281 H   0  0  0  0  0  0  0  0  0  0  0  0
    6.7107   -1.8118    2.2664 H   0  0  0  0  0  0  0  0  0  0  0  0
    4.3423    1.4169    0.9433 H   0  0  0  0  0  0  0  0  0  0  0  0
    1.9240    1.7402    0.9650 H   0  0  0  0  0  0  0  0  0  0  0  0
   -4.6580   -0.2904    0.8987 H   0  0  0  0  0  0  0  0  0  0  0  0
   -6.5619   -1.7763    0.4824 H   0  0  0  0  0  0  0  0  0  0  0  0
   -3.9117   -4.7484   -1.1738 H   0  0  0  0  0  0  0  0  0  0  0  0
   -1.9870   -3.2674   -0.7569 H   0  0  0  0  0  0  0  0  0  0  0  0
   -2.3952    0.4932    1.9648 H   0  0  0  0  0  0  0  0  0  0  0  0
   -2.8779    1.1768    0.3807 H   0  0  0  0  0  0  0  0  0  0  0  0
   -0.3315    1.4743    1.6980 H   0  0  0  0  0  0  0  0  0  0  0  0
   -0.4058    0.8495   -2.0268 H   0  0  0  0  0  0  0  0  0  0  0  0
   -0.3538    2.6749   -3.6966 H   0  0  0  0  0  0  0  0  0  0  0  0
   -0.8058    5.5828   -0.5885 H   0  0  0  0  0  0  0  0  0  0  0  0
   -0.8570    3.7870    1.1183 H   0  0  0  0  0  0  0  0  0  0  0  0
    1.3621   -2.3688   -0.2133 H   0  0  0  0  0  0  0  0  0  0  0  0
    3.7921   -2.7000   -0.2222 H   0  0  0  0  0  0  0  0  0  0  0  0
  1  2  1  0
  2  3  2  0
  2  4  2  0
  2  5  1  0
  5  6  2  0
  6  7  1  0
  7  8  2  0
  8  9  1  0
  9 10  1  0
 10 11  2  0
 11 12  1  0
 12 13  2  0
 13 14  1  0
 14 15  2  0
 15 16  1  0
 15 17  1  0
 17 18  2  0
 11 19  1  0
 19 20  1  0
 20 21  1  0
 21 22  2  0
 22 23  1  0
 23 24  2  0
 24 25  1  0
 24 26  1  0
 26 27  2  0
  8 28  1  0
 28 29  2  0
 29  5  1  0
 20  9  1  0
 27 21  1  0
 18 12  1  0
  1 30  1  0
  1 31  1  0
  6 32  1  0
  7 33  1  0
 13 34  1  0
 14 35  1  0
 17 36  1  0
 18 37  1  0
 19 38  1  0
 19 39  1  0
 20 40  1  0
 22 41  1  0
 23 42  1  0
 26 43  1  0
 27 44  1  0
 28 45  1  0
 29 46  1  0
M  END
$$$$
