
     RDKit          3D

 71 76  0  0  0  0  0  0  0  0999 V2000
    7.3200    2.8229   -1.5803 C   0  0  0  0  0  0  0  0  0  0  0  0
    8.3248    1.8943   -1.1949 O   0  0  0  0  0  0  0  0  0  0  0  0
    7.9194    0.6134   -0.9275 C   0  0  0  0  0  0  0  0  0  0  0  0
    8.9521   -0.2571   -0.5851 C   0  0  0  0  0  0  0  0  0  0  0  0
    8.6745   -1.5854   -0.2849 C   0  0  0  0  0  0  0  0  0  0  0  0
    7.3557   -2.0445   -0.3245 C   0  0  0  0  0  0  0  0  0  0  0  0
    6.2845   -1.1958   -0.6563 C   0  0  0  0  0  0  0  0  0  0  0  0
    4.9794   -1.7051   -0.6733 N   0  0  0  0  0  0  0  0  0  0  0  0
    3.8915   -0.9897   -1.3643 C   0  0  0  0  0  0  0  0  0  0  0  0
    2.9889   -0.2526   -0.3604 C   0  0  0  0  0  0  0  0  0  0  0  0
    2.4184   -1.1502    0.6585 N   0  0  0  0  0  0  0  0  0  0  0  0
    1.5029   -0.7702    1.6359 C   0  0  0  0  0  0  0  0  0  0  0  0
    1.2569   -1.5064    2.5943 O   0  0  0  0  0  0  0  0  0  0  0  0
    0.8237    0.5982    1.4910 C   0  0  0  0  0  0  0  0  0  0  0  0
    0.2816    1.1304    2.8238 C   0  0  0  0  0  0  0  0  0  0  0  0
   -1.0525    0.5050    3.2096 C   0  0  0  0  0  0  0  0  0  0  0  0
   -2.0814    0.6507    2.0948 C   0  0  0  0  0  0  0  0  0  0  0  0
   -1.5598    0.0929    0.8466 N   0  0  0  0  0  0  0  0  0  0  0  0
   -2.4855   -0.0035   -0.2196 C   0  0  0  0  0  0  0  0  0  0  0  0
   -2.0206   -0.4553   -1.4296 N   0  0  0  0  0  0  0  0  0  0  0  0
   -2.8672   -0.6018   -2.4685 C   0  0  0  0  0  0  0  0  0  0  0  0
   -4.1793   -0.3264   -2.5136 N   0  0  0  0  0  0  0  0  0  0  0  0
   -4.6128    0.1254   -1.3264 C   0  0  0  0  0  0  0  0  0  0  0  0
   -3.8730    0.3090   -0.1665 C   0  0  0  0  0  0  0  0  0  0  0  0
   -4.6931    0.8050    0.8349 N   0  0  0  0  0  0  0  0  0  0  0  0
   -5.8964    0.9102    0.3046 C   0  0  0  0  0  0  0  0  0  0  0  0
   -5.8877    0.5079   -1.0084 N   0  0  0  0  0  0  0  0  0  0  0  0
   -7.0243    0.5015   -1.9024 C   0  0  0  0  0  0  0  0  0  0  0  0
   -8.1579   -0.4018   -1.4242 C   0  0  0  0  0  0  0  0  0  0  0  0
   -8.9829    0.1972   -0.2833 C   0  0  0  0  0  0  0  0  0  0  0  0
   -8.2333    0.3587    1.0413 C   0  0  0  0  0  0  0  0  0  0  0  0
   -7.1183    1.4024    1.0018 C   0  0  0  0  0  0  0  0  0  0  0  0
   -0.2488    0.5813    0.3937 C   0  0  0  0  0  0  0  0  0  0  0  0
    3.0519   -2.4755    0.7558 C   0  0  0  0  0  0  0  0  0  0  0  0
    4.5810   -2.4121    0.5749 C   0  0  0  0  0  0  0  0  0  0  0  0
    6.5994    0.1402   -0.9623 C   0  0  0  0  0  0  0  0  0  0  0  0
    6.8244    2.5089   -2.5053 H   0  0  0  0  0  0  0  0  0  0  0  0
    7.8092    3.7820   -1.7752 H   0  0  0  0  0  0  0  0  0  0  0  0
    6.5946    2.9758   -0.7740 H   0  0  0  0  0  0  0  0  0  0  0  0
    9.9772    0.1044   -0.5532 H   0  0  0  0  0  0  0  0  0  0  0  0
    9.4810   -2.2660   -0.0263 H   0  0  0  0  0  0  0  0  0  0  0  0
    7.1716   -3.0950   -0.1119 H   0  0  0  0  0  0  0  0  0  0  0  0
    3.2916   -1.7369   -1.8990 H   0  0  0  0  0  0  0  0  0  0  0  0
    4.2537   -0.3076   -2.1413 H   0  0  0  0  0  0  0  0  0  0  0  0
    2.1848    0.2544   -0.8974 H   0  0  0  0  0  0  0  0  0  0  0  0
    3.5653    0.5116    0.1740 H   0  0  0  0  0  0  0  0  0  0  0  0
    1.6125    1.2989    1.1907 H   0  0  0  0  0  0  0  0  0  0  0  0
    0.1455    2.2162    2.7369 H   0  0  0  0  0  0  0  0  0  0  0  0
    1.0090    0.9702    3.6283 H   0  0  0  0  0  0  0  0  0  0  0  0
   -0.9187   -0.5563    3.4460 H   0  0  0  0  0  0  0  0  0  0  0  0
   -1.4317    0.9825    4.1208 H   0  0  0  0  0  0  0  0  0  0  0  0
   -2.9732    0.1045    2.4229 H   0  0  0  0  0  0  0  0  0  0  0  0
   -2.3407    1.7094    1.9672 H   0  0  0  0  0  0  0  0  0  0  0  0
   -2.4292   -0.9940   -3.3829 H   0  0  0  0  0  0  0  0  0  0  0  0
   -7.3561    1.5397   -2.0203 H   0  0  0  0  0  0  0  0  0  0  0  0
   -6.6822    0.1577   -2.8845 H   0  0  0  0  0  0  0  0  0  0  0  0
   -8.8358   -0.5709   -2.2701 H   0  0  0  0  0  0  0  0  0  0  0  0
   -7.7692   -1.3841   -1.1284 H   0  0  0  0  0  0  0  0  0  0  0  0
   -9.3942    1.1658   -0.5956 H   0  0  0  0  0  0  0  0  0  0  0  0
   -9.8440   -0.4602   -0.1069 H   0  0  0  0  0  0  0  0  0  0  0  0
   -7.8432   -0.6131    1.3700 H   0  0  0  0  0  0  0  0  0  0  0  0
   -8.9644    0.6758    1.7962 H   0  0  0  0  0  0  0  0  0  0  0  0
   -6.8449    1.6585    2.0328 H   0  0  0  0  0  0  0  0  0  0  0  0
   -7.4699    2.3290    0.5333 H   0  0  0  0  0  0  0  0  0  0  0  0
   -0.3676    1.6074    0.0176 H   0  0  0  0  0  0  0  0  0  0  0  0
    0.1083   -0.0305   -0.4409 H   0  0  0  0  0  0  0  0  0  0  0  0
    2.6072   -3.0938   -0.0325 H   0  0  0  0  0  0  0  0  0  0  0  0
    2.8208   -2.9597    1.7086 H   0  0  0  0  0  0  0  0  0  0  0  0
    4.9742   -3.4350    0.5620 H   0  0  0  0  0  0  0  0  0  0  0  0
    5.0020   -1.8918    1.4457 H   0  0  0  0  0  0  0  0  0  0  0  0
    5.8004    0.8290   -1.2004 H   0  0  0  0  0  0  0  0  0  0  0  0
  1  2  1  0
  2  3  1  0
  3  4  2  0
  4  5  1  0
  5  6  2  0
  6  7  1  0
  7  8  1  0
  8  9  1  0
  9 10  1  0
 10 11  1  0
 11 12  1  0
 12 13  2  0
 12 14  1  0
 14 15  1  0
 15 16  1  0
 16 17  1  0
 17 18  1  0
 18 19  1  0
 19 20  2  0
 20 21  1  0
 21 22  2  0
 22 23  1  0
 23 24  2  0
 24 25  1  0
 25 26  2  0
 26 27  1  0
 27 28  1  0
 28 29  1  0
 29 30  1  0
 30 31  1  0
 31 32  1  0
 18 33  1  0
 11 34  1  0
 34 35  1  0
  7 36  2  0
 36  3  1  0
 35  8  1  0
 33 14  1  0
 24 19  1  0
 32 26  1  0
 27 23  1  0
  1 37  1  0
  1 38  1  0
  1 39  1  0
  4 40  1  0
  5 41  1  0
  6 42  1  0
  9 43  1  0
  9 44  1  0
 10 45  1  0
 10 46  1  0
 14 47  1  0
 15 48  1  0
 15 49  1  0
 16 50  1  0
 16 51  1  0
 17 52  1  0
 17 53  1  0
 21 54  1  0
 28 55  1  0
 28 56  1  0
 29 57  1  0
 29 58  1  0
 30 59  1  0
 30 60  1  0
 31 61  1  0
 31 62  1  0
 32 63  1  0
 32 64  1  0
 33 65  1  0
 33 66  1  0
 34 67  1  0
 34 68  1  0
 35 69  1  0
 35 70  1  0
 36 71  1  0
M  END
$$$$
