
     RDKit          3D

 52 55  0  0  0  0  0  0  0  0999 V2000
    3.6478   -2.5683   -1.7457 C   0  0  0  0  0  0  0  0  0  0  0  0
    4.4256   -1.2974   -2.0603 C   0  0  0  0  0  0  0  0  0  0  0  0
    3.8080   -0.0358   -1.4223 C   0  0  0  0  0  0  0  0  0  0  0  0
    4.5179    1.2483   -1.8713 C   0  0  0  0  0  0  0  0  0  0  0  0
    3.6152   -0.1165    0.0611 N   0  0  0  0  0  0  0  0  0  0  0  0
    2.2658   -0.2121    0.4590 C   0  0  0  0  0  0  0  0  0  0  0  0
    1.3470   -0.3616   -0.3446 O   0  0  0  0  0  0  0  0  0  0  0  0
    1.9919   -0.1569    1.9202 C   0  0  0  0  0  0  0  0  0  0  0  0
    0.7659   -0.0298    2.4695 C   0  0  0  0  0  0  0  0  0  0  0  0
   -0.5164    0.1194    1.7766 C   0  0  0  0  0  0  0  0  0  0  0  0
   -0.8687    1.3267    1.1733 C   0  0  0  0  0  0  0  0  0  0  0  0
   -2.1125    1.4738    0.5347 C   0  0  0  0  0  0  0  0  0  0  0  0
   -3.0210    0.3952    0.4765 C   0  0  0  0  0  0  0  0  0  0  0  0
   -2.6656   -0.8119    1.1157 C   0  0  0  0  0  0  0  0  0  0  0  0
   -1.4178   -0.9440    1.7498 C   0  0  0  0  0  0  0  0  0  0  0  0
   -3.5843   -2.0075    1.0847 C   0  0  0  0  0  0  0  0  0  0  0  0
   -5.0086   -1.6224    0.7162 C   0  0  0  0  0  0  0  0  0  0  0  0
   -4.9822   -0.6919   -0.4847 C   0  0  0  0  0  0  0  0  0  0  0  0
   -4.2724    0.5400   -0.1451 N   0  0  0  0  0  0  0  0  0  0  0  0
   -4.4137    1.6528   -1.0824 C   0  0  0  0  0  0  0  0  0  0  0  0
   -3.9049    2.9347   -0.4449 C   0  0  0  0  0  0  0  0  0  0  0  0
   -2.4232    2.7884   -0.1358 C   0  0  0  0  0  0  0  0  0  0  0  0
    3.1097   -0.2490    2.8721 C   0  0  0  0  0  0  0  0  0  0  0  0
    2.9834   -0.2823    4.0912 O   0  0  0  0  0  0  0  0  0  0  0  0
    4.3419   -0.2808    2.2957 N   0  0  0  0  0  0  0  0  0  0  0  0
    4.6705   -0.1842    0.9703 C   0  0  0  0  0  0  0  0  0  0  0  0
    6.3214   -0.1704    0.6760 S   0  0  0  0  0  0  0  0  0  0  0  0
    4.0854   -3.4178   -2.2798 H   0  0  0  0  0  0  0  0  0  0  0  0
    2.6026   -2.4767   -2.0573 H   0  0  0  0  0  0  0  0  0  0  0  0
    3.6728   -2.7986   -0.6764 H   0  0  0  0  0  0  0  0  0  0  0  0
    4.4420   -1.1667   -3.1500 H   0  0  0  0  0  0  0  0  0  0  0  0
    5.4674   -1.4372   -1.7618 H   0  0  0  0  0  0  0  0  0  0  0  0
    2.8192    0.0555   -1.8875 H   0  0  0  0  0  0  0  0  0  0  0  0
    5.5953    1.2278   -1.6986 H   0  0  0  0  0  0  0  0  0  0  0  0
    4.3777    1.3974   -2.9481 H   0  0  0  0  0  0  0  0  0  0  0  0
    4.1041    2.1222   -1.3569 H   0  0  0  0  0  0  0  0  0  0  0  0
    0.6512   -0.0203    3.5541 H   0  0  0  0  0  0  0  0  0  0  0  0
   -0.1760    2.1646    1.1910 H   0  0  0  0  0  0  0  0  0  0  0  0
   -1.1544   -1.8893    2.2192 H   0  0  0  0  0  0  0  0  0  0  0  0
   -3.5908   -2.5051    2.0617 H   0  0  0  0  0  0  0  0  0  0  0  0
   -3.1938   -2.7212    0.3486 H   0  0  0  0  0  0  0  0  0  0  0  0
   -5.5942   -2.5213    0.4945 H   0  0  0  0  0  0  0  0  0  0  0  0
   -5.4904   -1.1198    1.5649 H   0  0  0  0  0  0  0  0  0  0  0  0
   -4.5108   -1.1780   -1.3485 H   0  0  0  0  0  0  0  0  0  0  0  0
   -6.0145   -0.4549   -0.7681 H   0  0  0  0  0  0  0  0  0  0  0  0
   -3.8760    1.4368   -2.0146 H   0  0  0  0  0  0  0  0  0  0  0  0
   -5.4713    1.7842   -1.3399 H   0  0  0  0  0  0  0  0  0  0  0  0
   -4.4607    3.1352    0.4803 H   0  0  0  0  0  0  0  0  0  0  0  0
   -4.0657    3.7876   -1.1131 H   0  0  0  0  0  0  0  0  0  0  0  0
   -2.1079    3.6224    0.5023 H   0  0  0  0  0  0  0  0  0  0  0  0
   -1.8457    2.8433   -1.0671 H   0  0  0  0  0  0  0  0  0  0  0  0
    5.1138   -0.3266    2.9495 H   0  0  0  0  0  0  0  0  0  0  0  0
  1  2  1  0
  2  3  1  0
  3  4  1  0
  3  5  1  0
  5  6  1  0
  6  7  2  0
  6  8  1  0
  8  9  2  3
  9 10  1  0
 10 11  2  0
 11 12  1  0
 12 13  2  0
 13 14  1  0
 14 15  2  0
 14 16  1  0
 16 17  1  0
 17 18  1  0
 18 19  1  0
 19 20  1  0
 20 21  1  0
 21 22  1  0
  8 23  1  0
 23 24  2  0
 23 25  1  0
 25 26  1  0
 26 27  2  0
 26  5  1  0
 15 10  1  0
 22 12  1  0
 19 13  1  0
  1 28  1  0
  1 29  1  0
  1 30  1  0
  2 31  1  0
  2 32  1  0
  3 33  1  0
  4 34  1  0
  4 35  1  0
  4 36  1  0
  9 37  1  0
 11 38  1  0
 15 39  1  0
 16 40  1  0
 16 41  1  0
 17 42  1  0
 17 43  1  0
 18 44  1  0
 18 45  1  0
 20 46  1  0
 20 47  1  0
 21 48  1  0
 21 49  1  0
 22 50  1  0
 22 51  1  0
 25 52  1  0
M  END
$$$$
