
     RDKit          3D

 35 37  0  0  0  0  0  0  0  0999 V2000
   -1.6533   -2.6556   -2.0721 C   0  0  0  0  0  0  0  0  0  0  0  0
   -1.0509   -1.5778   -1.2293 C   0  0  0  0  0  0  0  0  0  0  0  0
    0.2369   -1.3750   -1.1556 N   0  0  0  0  0  0  0  0  0  0  0  0
    0.3896   -0.3040   -0.2863 N   0  0  0  0  0  0  0  0  0  0  0  0
    1.6392    0.1778    0.0227 C   0  0  0  0  0  0  0  0  0  0  0  0
    1.9828    1.1686    0.8166 N   0  0  0  0  0  0  0  0  0  0  0  0
    3.3540    1.2280    0.7680 C   0  0  0  0  0  0  0  0  0  0  0  0
    4.2384    2.0969    1.4226 C   0  0  0  0  0  0  0  0  0  0  0  0
    5.6136    1.9473    1.2012 C   0  0  0  0  0  0  0  0  0  0  0  0
    6.0974    0.9533    0.3460 C   0  0  0  0  0  0  0  0  0  0  0  0
    5.2298    0.0764   -0.3164 C   0  0  0  0  0  0  0  0  0  0  0  0
    3.8656    0.2494   -0.0764 C   0  0  0  0  0  0  0  0  0  0  0  0
    2.7529   -0.4012   -0.5347 N   0  0  0  0  0  0  0  0  0  0  0  0
   -0.7963    0.2288    0.2380 C   0  0  0  0  0  0  0  0  0  0  0  0
   -0.9862    1.1474    1.0114 O   0  0  0  0  0  0  0  0  0  0  0  0
   -1.8314   -0.6336   -0.3968 C   0  0  0  0  0  0  0  0  0  0  0  0
   -3.1701   -0.6608   -0.3254 C   0  0  0  0  0  0  0  0  0  0  0  0
   -4.1313    0.0864    0.3486 N   0  0  0  0  0  0  0  0  0  0  0  0
   -5.5528   -0.2642    0.2854 C   0  0  0  0  0  0  0  0  0  0  0  0
   -3.8083    1.1195    1.3357 C   0  0  0  0  0  0  0  0  0  0  0  0
   -0.8655   -3.2146   -2.5851 H   0  0  0  0  0  0  0  0  0  0  0  0
   -2.2196   -3.3470   -1.4424 H   0  0  0  0  0  0  0  0  0  0  0  0
   -2.3147   -2.2144   -2.8225 H   0  0  0  0  0  0  0  0  0  0  0  0
    3.8542    2.8652    2.0842 H   0  0  0  0  0  0  0  0  0  0  0  0
    6.3104    2.6148    1.7027 H   0  0  0  0  0  0  0  0  0  0  0  0
    7.1705    0.8590    0.1917 H   0  0  0  0  0  0  0  0  0  0  0  0
    5.6054   -0.6945   -0.9799 H   0  0  0  0  0  0  0  0  0  0  0  0
    2.7136   -1.1793   -1.1747 H   0  0  0  0  0  0  0  0  0  0  0  0
   -3.6767   -1.4213   -0.9174 H   0  0  0  0  0  0  0  0  0  0  0  0
   -6.1789    0.6342    0.3156 H   0  0  0  0  0  0  0  0  0  0  0  0
   -5.8181   -0.9068    1.1311 H   0  0  0  0  0  0  0  0  0  0  0  0
   -5.7977   -0.7933   -0.6422 H   0  0  0  0  0  0  0  0  0  0  0  0
   -4.7112    1.5226    1.8087 H   0  0  0  0  0  0  0  0  0  0  0  0
   -3.3028    1.9612    0.8534 H   0  0  0  0  0  0  0  0  0  0  0  0
   -3.1886    0.7067    2.1376 H   0  0  0  0  0  0  0  0  0  0  0  0
  1  2  1  0
  2  3  2  0
  3  4  1  0
  4  5  1  0
  5  6  2  0
  6  7  1  0
  7  8  2  0
  8  9  1  0
  9 10  2  0
 10 11  1  0
 11 12  2  0
 12 13  1  0
  4 14  1  0
 14 15  2  0
 14 16  1  0
 16 17  2  3
 17 18  1  0
 18 19  1  0
 18 20  1  0
 16  2  1  0
 13  5  1  0
 12  7  1  0
  1 21  1  0
  1 22  1  0
  1 23  1  0
  8 24  1  0
  9 25  1  0
 10 26  1  0
 11 27  1  0
 13 28  1  0
 17 29  1  0
 19 30  1  0
 19 31  1  0
 19 32  1  0
 20 33  1  0
 20 34  1  0
 20 35  1  0
M  END
$$$$
