
     RDKit          3D

 50 53  0  0  0  0  0  0  0  0999 V2000
    6.3170    0.6187    2.8914 C   0  0  0  0  0  0  0  0  0  0  0  0
    6.0615   -0.4184    1.8071 C   0  0  0  0  0  0  0  0  0  0  0  0
    5.4936    0.2058    0.6043 N   0  0  0  0  0  0  0  0  0  0  0  0
    6.4653    0.6256   -0.4144 C   0  0  0  0  0  0  0  0  0  0  0  0
    6.7076   -0.4822   -1.4298 C   0  0  0  0  0  0  0  0  0  0  0  0
    4.1231    0.3697    0.4334 C   0  0  0  0  0  0  0  0  0  0  0  0
    3.1985    0.0871    1.4544 C   0  0  0  0  0  0  0  0  0  0  0  0
    1.8136    0.2488    1.2896 C   0  0  0  0  0  0  0  0  0  0  0  0
    1.2961    0.6978    0.0782 C   0  0  0  0  0  0  0  0  0  0  0  0
   -0.1422    0.8901   -0.1211 C   0  0  0  0  0  0  0  0  0  0  0  0
   -1.0704   -0.0769   -0.1369 C   0  0  0  0  0  0  0  0  0  0  0  0
   -0.8194   -1.7942    0.0596 S   0  0  0  0  0  0  0  0  0  0  0  0
   -2.5044   -2.0498   -0.1303 C   0  0  0  0  0  0  0  0  0  0  0  0
   -3.2759   -3.0965   -0.1006 N   0  0  0  0  0  0  0  0  0  0  0  0
   -4.5615   -2.6213   -0.3080 N   0  0  0  0  0  0  0  0  0  0  0  0
   -4.5198   -1.3007   -0.4648 C   0  0  0  0  0  0  0  0  0  0  0  0
   -5.6701   -0.4254   -0.6890 C   0  0  0  0  0  0  0  0  0  0  0  0
   -5.6786    0.4456   -1.7917 C   0  0  0  0  0  0  0  0  0  0  0  0
   -6.7729    1.2744   -2.0441 C   0  0  0  0  0  0  0  0  0  0  0  0
   -7.8805    1.2357   -1.2051 C   0  0  0  0  0  0  0  0  0  0  0  0
   -7.8955    0.3688   -0.1134 C   0  0  0  0  0  0  0  0  0  0  0  0
   -6.7970   -0.4644    0.1611 C   0  0  0  0  0  0  0  0  0  0  0  0
   -6.8748   -1.3958    1.3425 C   0  0  0  0  0  0  0  0  0  0  0  0
   -3.2082   -0.9147   -0.3435 N   0  0  0  0  0  0  0  0  0  0  0  0
   -2.5059    0.2654   -0.3640 C   0  0  0  0  0  0  0  0  0  0  0  0
   -3.0208    1.3526   -0.5421 O   0  0  0  0  0  0  0  0  0  0  0  0
    2.1822    0.9989   -0.9513 C   0  0  0  0  0  0  0  0  0  0  0  0
    3.5647    0.8333   -0.7709 C   0  0  0  0  0  0  0  0  0  0  0  0
    6.7584    0.1428    3.7726 H   0  0  0  0  0  0  0  0  0  0  0  0
    7.0093    1.3914    2.5410 H   0  0  0  0  0  0  0  0  0  0  0  0
    5.3941    1.1176    3.2020 H   0  0  0  0  0  0  0  0  0  0  0  0
    5.4302   -1.2317    2.1822 H   0  0  0  0  0  0  0  0  0  0  0  0
    7.0162   -0.8991    1.5577 H   0  0  0  0  0  0  0  0  0  0  0  0
    7.4215    0.8684    0.0668 H   0  0  0  0  0  0  0  0  0  0  0  0
    6.1603    1.5535   -0.9109 H   0  0  0  0  0  0  0  0  0  0  0  0
    7.4485   -0.1613   -2.1687 H   0  0  0  0  0  0  0  0  0  0  0  0
    5.7914   -0.7518   -1.9635 H   0  0  0  0  0  0  0  0  0  0  0  0
    7.0853   -1.3870   -0.9422 H   0  0  0  0  0  0  0  0  0  0  0  0
    3.5302   -0.2603    2.4279 H   0  0  0  0  0  0  0  0  0  0  0  0
    1.1575    0.0212    2.1262 H   0  0  0  0  0  0  0  0  0  0  0  0
   -0.4365    1.9264   -0.2857 H   0  0  0  0  0  0  0  0  0  0  0  0
   -4.8327    0.4869   -2.4743 H   0  0  0  0  0  0  0  0  0  0  0  0
   -6.7603    1.9459   -2.8987 H   0  0  0  0  0  0  0  0  0  0  0  0
   -8.7363    1.8762   -1.4023 H   0  0  0  0  0  0  0  0  0  0  0  0
   -8.7757    0.3450    0.5262 H   0  0  0  0  0  0  0  0  0  0  0  0
   -7.0188   -2.4262    1.0032 H   0  0  0  0  0  0  0  0  0  0  0  0
   -7.7136   -1.1378    1.9982 H   0  0  0  0  0  0  0  0  0  0  0  0
   -5.9664   -1.3305    1.9501 H   0  0  0  0  0  0  0  0  0  0  0  0
    1.8182    1.3592   -1.9106 H   0  0  0  0  0  0  0  0  0  0  0  0
    4.1939    1.0728   -1.6224 H   0  0  0  0  0  0  0  0  0  0  0  0
  1  2  1  0
  2  3  1  0
  3  4  1  0
  4  5  1  0
  3  6  1  0
  6  7  2  0
  7  8  1  0
  8  9  2  0
  9 10  1  0
 10 11  2  3
 11 12  1  0
 12 13  1  0
 13 14  2  0
 14 15  1  0
 15 16  2  0
 16 17  1  0
 17 18  2  0
 18 19  1  0
 19 20  2  0
 20 21  1  0
 21 22  2  0
 22 23  1  0
 16 24  1  0
 24 25  1  0
 25 26  2  0
  9 27  1  0
 27 28  2  0
 28  6  1  0
 25 11  1  0
 24 13  1  0
 22 17  1  0
  1 29  1  0
  1 30  1  0
  1 31  1  0
  2 32  1  0
  2 33  1  0
  4 34  1  0
  4 35  1  0
  5 36  1  0
  5 37  1  0
  5 38  1  0
  7 39  1  0
  8 40  1  0
 10 41  1  0
 18 42  1  0
 19 43  1  0
 20 44  1  0
 21 45  1  0
 23 46  1  0
 23 47  1  0
 23 48  1  0
 27 49  1  0
 28 50  1  0
M  END
$$$$
