
     RDKit          3D

 59 62  0  0  0  0  0  0  0  0999 V2000
   -1.8428   -2.5123   -5.3779 C   0  0  0  0  0  0  0  0  0  0  0  0
   -1.2171   -2.9275   -4.0610 C   0  0  0  0  0  0  0  0  0  0  0  0
   -1.5004   -1.9092   -3.0928 O   0  0  0  0  0  0  0  0  0  0  0  0
   -0.9716   -2.1382   -1.8591 C   0  0  0  0  0  0  0  0  0  0  0  0
   -0.3238   -3.1338   -1.5609 O   0  0  0  0  0  0  0  0  0  0  0  0
   -1.3386   -1.0189   -0.8750 C   0  0  0  0  0  0  0  0  0  0  0  0
   -2.7762   -1.3716   -0.4055 C   0  0  0  0  0  0  0  0  0  0  0  0
   -3.4087   -0.4651    0.6243 C   0  0  0  0  0  0  0  0  0  0  0  0
   -3.2729   -0.7338    1.9925 C   0  0  0  0  0  0  0  0  0  0  0  0
   -3.8573    0.1039    2.9496 C   0  0  0  0  0  0  0  0  0  0  0  0
   -4.5916    1.2196    2.5505 C   0  0  0  0  0  0  0  0  0  0  0  0
   -5.2115    2.1150    3.3777 O   0  0  0  0  0  0  0  0  0  0  0  0
   -5.0792    1.8953    4.7762 C   0  0  0  0  0  0  0  0  0  0  0  0
   -4.7376    1.4853    1.1879 C   0  0  0  0  0  0  0  0  0  0  0  0
   -4.1552    0.6511    0.2307 C   0  0  0  0  0  0  0  0  0  0  0  0
   -0.3279   -1.0263    0.2931 C   0  0  0  0  0  0  0  0  0  0  0  0
    1.0934   -0.6629   -0.1475 C   0  0  0  0  0  0  0  0  0  0  0  0
    1.1357    0.5727   -0.9277 N   0  0  0  0  0  0  0  0  0  0  0  0
    2.1570    1.5281   -0.8640 C   0  0  0  0  0  0  0  0  0  0  0  0
    2.0365    2.6177   -1.4259 O   0  0  0  0  0  0  0  0  0  0  0  0
    3.3655    1.2502   -0.1121 C   0  0  0  0  0  0  0  0  0  0  0  0
    4.1048    0.0978    0.0987 C   0  0  0  0  0  0  0  0  0  0  0  0
    5.2335    0.4220    0.9018 C   0  0  0  0  0  0  0  0  0  0  0  0
    6.2993   -0.3228    1.4419 C   0  0  0  0  0  0  0  0  0  0  0  0
    7.2750    0.3325    2.2024 C   0  0  0  0  0  0  0  0  0  0  0  0
    7.2015    1.7068    2.4210 C   0  0  0  0  0  0  0  0  0  0  0  0
    6.1559    2.4669    1.8879 C   0  0  0  0  0  0  0  0  0  0  0  0
    5.1879    1.7938    1.1341 C   0  0  0  0  0  0  0  0  0  0  0  0
    4.0762    2.2717    0.4843 N   0  0  0  0  0  0  0  0  0  0  0  0
    0.1596    0.6990   -2.0066 C   0  0  0  0  0  0  0  0  0  0  0  0
   -1.2588    0.3681   -1.5477 C   0  0  0  0  0  0  0  0  0  0  0  0
   -2.9244   -2.3813   -5.2664 H   0  0  0  0  0  0  0  0  0  0  0  0
   -1.6555   -3.2610   -6.1525 H   0  0  0  0  0  0  0  0  0  0  0  0
   -1.4385   -1.5503   -5.7103 H   0  0  0  0  0  0  0  0  0  0  0  0
   -1.6465   -3.8796   -3.7301 H   0  0  0  0  0  0  0  0  0  0  0  0
   -0.1331   -3.0317   -4.1824 H   0  0  0  0  0  0  0  0  0  0  0  0
   -2.7884   -2.3975   -0.0089 H   0  0  0  0  0  0  0  0  0  0  0  0
   -3.4474   -1.4123   -1.2757 H   0  0  0  0  0  0  0  0  0  0  0  0
   -2.7082   -1.6013    2.3283 H   0  0  0  0  0  0  0  0  0  0  0  0
   -3.7205   -0.1461    3.9961 H   0  0  0  0  0  0  0  0  0  0  0  0
   -5.5296    0.9416    5.0706 H   0  0  0  0  0  0  0  0  0  0  0  0
   -4.0308    1.9510    5.0874 H   0  0  0  0  0  0  0  0  0  0  0  0
   -5.6223    2.6926    5.2926 H   0  0  0  0  0  0  0  0  0  0  0  0
   -5.3122    2.3514    0.8683 H   0  0  0  0  0  0  0  0  0  0  0  0
   -4.2914    0.8836   -0.8229 H   0  0  0  0  0  0  0  0  0  0  0  0
   -0.6335   -0.2914    1.0481 H   0  0  0  0  0  0  0  0  0  0  0  0
   -0.3104   -2.0025    0.7934 H   0  0  0  0  0  0  0  0  0  0  0  0
    1.5344   -1.4551   -0.7613 H   0  0  0  0  0  0  0  0  0  0  0  0
    1.6956   -0.5619    0.7587 H   0  0  0  0  0  0  0  0  0  0  0  0
    3.8744   -0.8850   -0.2897 H   0  0  0  0  0  0  0  0  0  0  0  0
    6.3661   -1.3933    1.2727 H   0  0  0  0  0  0  0  0  0  0  0  0
    8.0993   -0.2379    2.6234 H   0  0  0  0  0  0  0  0  0  0  0  0
    7.9711    2.1981    3.0121 H   0  0  0  0  0  0  0  0  0  0  0  0
    6.1046    3.5380    2.0533 H   0  0  0  0  0  0  0  0  0  0  0  0
    3.7982    3.2432    0.4397 H   0  0  0  0  0  0  0  0  0  0  0  0
    0.1674    1.7081   -2.4313 H   0  0  0  0  0  0  0  0  0  0  0  0
    0.4806    0.0233   -2.8079 H   0  0  0  0  0  0  0  0  0  0  0  0
   -1.5673    1.1438   -0.8360 H   0  0  0  0  0  0  0  0  0  0  0  0
   -1.9424    0.4384   -2.4020 H   0  0  0  0  0  0  0  0  0  0  0  0
  1  2  1  0
  2  3  1  0
  3  4  1  0
  4  5  2  0
  4  6  1  0
  6  7  1  0
  7  8  1  0
  8  9  2  0
  9 10  1  0
 10 11  2  0
 11 12  1  0
 12 13  1  0
 11 14  1  0
 14 15  2  0
  6 16  1  0
 16 17  1  0
 17 18  1  0
 18 19  1  0
 19 20  2  0
 19 21  1  0
 21 22  2  0
 22 23  1  0
 23 24  2  0
 24 25  1  0
 25 26  2  0
 26 27  1  0
 27 28  2  0
 28 29  1  0
 18 30  1  0
 30 31  1  0
 31  6  1  0
 15  8  1  0
 29 21  1  0
 28 23  1  0
  1 32  1  0
  1 33  1  0
  1 34  1  0
  2 35  1  0
  2 36  1  0
  7 37  1  0
  7 38  1  0
  9 39  1  0
 10 40  1  0
 13 41  1  0
 13 42  1  0
 13 43  1  0
 14 44  1  0
 15 45  1  0
 16 46  1  0
 16 47  1  0
 17 48  1  0
 17 49  1  0
 22 50  1  0
 24 51  1  0
 25 52  1  0
 26 53  1  0
 27 54  1  0
 29 55  1  0
 30 56  1  0
 30 57  1  0
 31 58  1  0
 31 59  1  0
M  END
$$$$
