
     RDKit          3D

 45 46  0  0  0  0  0  0  0  0999 V2000
    7.6840   -0.2304    0.5189 C   0  0  0  0  0  0  0  0  0  0  0  0
    6.6306   -0.9242   -0.3261 C   0  0  0  0  0  0  0  0  0  0  0  0
    5.4247   -0.1267   -0.4641 N   0  0  0  0  0  0  0  0  0  0  0  0
    5.3232    0.6973   -1.5248 N   0  0  0  0  0  0  0  0  0  0  0  0
    4.1155    1.2426   -1.3905 C   0  0  0  0  0  0  0  0  0  0  0  0
    3.4355    0.7908   -0.2395 C   0  0  0  0  0  0  0  0  0  0  0  0
    2.1100    1.1909    0.1815 C   0  0  0  0  0  0  0  0  0  0  0  0
    1.5905    0.6744    1.2492 N   0  0  0  0  0  0  0  0  0  0  0  0
    0.3157    1.0409    1.6062 N   0  0  0  0  0  0  0  0  0  0  0  0
   -0.7187    1.3340    0.7123 C   0  0  0  0  0  0  0  0  0  0  0  0
   -0.5957    1.4271   -0.5055 O   0  0  0  0  0  0  0  0  0  0  0  0
   -2.0559    1.5218    1.4423 C   0  0  0  0  0  0  0  0  0  0  0  0
   -3.1641    1.8734    0.6302 O   0  0  0  0  0  0  0  0  0  0  0  0
   -3.9293    0.8442    0.1542 C   0  0  0  0  0  0  0  0  0  0  0  0
   -3.4703   -0.4451   -0.1181 C   0  0  0  0  0  0  0  0  0  0  0  0
   -4.3467   -1.4210   -0.6152 C   0  0  0  0  0  0  0  0  0  0  0  0
   -3.8387   -2.7924   -0.9521 C   0  0  0  0  0  0  0  0  0  0  0  0
   -5.6828   -1.0815   -0.8646 C   0  0  0  0  0  0  0  0  0  0  0  0
   -6.1533    0.2102   -0.6020 C   0  0  0  0  0  0  0  0  0  0  0  0
   -7.5728    0.5812   -0.9120 C   0  0  0  0  0  0  0  0  0  0  0  0
   -5.2619    1.1703   -0.1081 C   0  0  0  0  0  0  0  0  0  0  0  0
    4.3227   -0.0959    0.3581 C   0  0  0  0  0  0  0  0  0  0  0  0
    4.1940   -0.8917    1.6074 C   0  0  0  0  0  0  0  0  0  0  0  0
    8.5793   -0.8547    0.5974 H   0  0  0  0  0  0  0  0  0  0  0  0
    7.3157   -0.0326    1.5308 H   0  0  0  0  0  0  0  0  0  0  0  0
    7.9740    0.7288    0.0771 H   0  0  0  0  0  0  0  0  0  0  0  0
    7.0177   -1.1177   -1.3332 H   0  0  0  0  0  0  0  0  0  0  0  0
    6.3532   -1.8919    0.1033 H   0  0  0  0  0  0  0  0  0  0  0  0
    3.7762    1.9480   -2.1386 H   0  0  0  0  0  0  0  0  0  0  0  0
    1.6184    1.9596   -0.4371 H   0  0  0  0  0  0  0  0  0  0  0  0
    0.0639    0.7281    2.5398 H   0  0  0  0  0  0  0  0  0  0  0  0
   -1.9136    2.3573    2.1389 H   0  0  0  0  0  0  0  0  0  0  0  0
   -2.2696    0.6391    2.0592 H   0  0  0  0  0  0  0  0  0  0  0  0
   -2.4258   -0.7078    0.0142 H   0  0  0  0  0  0  0  0  0  0  0  0
   -3.4692   -2.8120   -1.9819 H   0  0  0  0  0  0  0  0  0  0  0  0
   -3.0264   -3.0838   -0.2780 H   0  0  0  0  0  0  0  0  0  0  0  0
   -4.6317   -3.5401   -0.8459 H   0  0  0  0  0  0  0  0  0  0  0  0
   -6.3595   -1.8268   -1.2785 H   0  0  0  0  0  0  0  0  0  0  0  0
   -8.2374   -0.2804   -0.7894 H   0  0  0  0  0  0  0  0  0  0  0  0
   -7.9289    1.3642   -0.2341 H   0  0  0  0  0  0  0  0  0  0  0  0
   -7.6487    0.9432   -1.9419 H   0  0  0  0  0  0  0  0  0  0  0  0
   -5.6036    2.1863    0.0768 H   0  0  0  0  0  0  0  0  0  0  0  0
    5.1388   -1.3402    1.9247 H   0  0  0  0  0  0  0  0  0  0  0  0
    3.8535   -0.2580    2.4326 H   0  0  0  0  0  0  0  0  0  0  0  0
    3.4678   -1.6988    1.4675 H   0  0  0  0  0  0  0  0  0  0  0  0
  1  2  1  0
  2  3  1  0
  3  4  1  0
  4  5  2  0
  5  6  1  0
  6  7  1  0
  7  8  2  3
  8  9  1  0
  9 10  1  0
 10 11  2  0
 10 12  1  0
 12 13  1  0
 13 14  1  0
 14 15  2  0
 15 16  1  0
 16 17  1  0
 16 18  2  0
 18 19  1  0
 19 20  1  0
 19 21  2  0
  6 22  2  0
 22 23  1  0
 22  3  1  0
 21 14  1  0
  1 24  1  0
  1 25  1  0
  1 26  1  0
  2 27  1  0
  2 28  1  0
  5 29  1  0
  7 30  1  0
  9 31  1  0
 12 32  1  0
 12 33  1  0
 15 34  1  0
 17 35  1  0
 17 36  1  0
 17 37  1  0
 18 38  1  0
 20 39  1  0
 20 40  1  0
 20 41  1  0
 21 42  1  0
 23 43  1  0
 23 44  1  0
 23 45  1  0
M  END
$$$$
