
     RDKit          3D

 61 63  0  0  0  0  0  0  0  0999 V2000
    7.7187   -2.7176    0.4217 C   0  0  0  0  0  0  0  0  0  0  0  0
    6.9313   -1.6363   -0.1409 N   0  0  0  0  0  0  0  0  0  0  0  0
    5.9848   -1.0286    0.6673 C   0  0  0  0  0  0  0  0  0  0  0  0
    5.7392   -1.3674    1.8223 O   0  0  0  0  0  0  0  0  0  0  0  0
    5.2243    0.0820    0.0757 C   0  0  0  0  0  0  0  0  0  0  0  0
    4.3022    0.7816    0.8680 C   0  0  0  0  0  0  0  0  0  0  0  0
    3.5650    1.8206    0.3029 C   0  0  0  0  0  0  0  0  0  0  0  0
    2.4091    2.7319    1.2946 S   0  0  0  0  0  6  0  0  0  0  0  0
    2.7015    2.4855    2.6875 O   0  0  0  0  0  0  0  0  0  0  0  0
    2.3384    4.0682    0.7493 O   0  0  0  0  0  0  0  0  0  0  0  0
    0.9681    1.9679    0.8989 N   0  0  0  0  0  0  0  0  0  0  0  0
    0.5554    0.8046    1.7008 C   0  0  0  0  0  0  0  0  0  0  0  0
   -0.4771   -0.0185    0.9424 C   0  0  0  0  0  0  0  0  0  0  0  0
   -1.8021    0.6998    0.8066 C   0  0  0  0  0  0  0  0  0  0  0  0
   -1.9684    1.8735    1.1206 O   0  0  0  0  0  0  0  0  0  0  0  0
   -2.7890   -0.0928    0.2566 N   0  0  0  0  0  0  0  0  0  0  0  0
   -4.1742    0.3709    0.1111 C   0  0  0  0  0  0  0  0  0  0  0  0
   -4.9114    0.1909    1.4512 C   0  0  0  0  0  0  0  0  0  0  0  0
   -5.4321   -1.2035    1.7925 C   0  0  0  0  0  0  0  0  0  0  0  0
   -6.4945   -1.8386    0.8924 C   0  0  0  0  0  0  0  0  0  0  0  0
   -7.6188   -0.9428    0.3809 C   0  0  0  0  0  0  0  0  0  0  0  0
   -7.2744    0.2517   -0.5087 C   0  0  0  0  0  0  0  0  0  0  0  0
   -6.1868    0.0752   -1.5622 C   0  0  0  0  0  0  0  0  0  0  0  0
   -4.7693   -0.3051   -1.1291 C   0  0  0  0  0  0  0  0  0  0  0  0
    3.7567    2.1752   -1.0314 C   0  0  0  0  0  0  0  0  0  0  0  0
    4.6827    1.4721   -1.8096 C   0  0  0  0  0  0  0  0  0  0  0  0
    5.4303    0.4146   -1.2637 C   0  0  0  0  0  0  0  0  0  0  0  0
    6.3778   -0.3156   -2.0291 N   0  0  0  0  0  0  0  0  0  0  0  0
    6.5812    0.0196   -3.4338 C   0  0  0  0  0  0  0  0  0  0  0  0
    7.1394   -1.3459   -1.4844 C   0  0  0  0  0  0  0  0  0  0  0  0
    7.9574   -1.9795   -2.1562 O   0  0  0  0  0  0  0  0  0  0  0  0
    7.5797   -2.8174    1.5006 H   0  0  0  0  0  0  0  0  0  0  0  0
    7.4255   -3.6540   -0.0629 H   0  0  0  0  0  0  0  0  0  0  0  0
    8.7792   -2.5389    0.2178 H   0  0  0  0  0  0  0  0  0  0  0  0
    4.1669    0.5145    1.9147 H   0  0  0  0  0  0  0  0  0  0  0  0
    0.2218    2.6470    0.7068 H   0  0  0  0  0  0  0  0  0  0  0  0
    1.4213    0.1662    1.9032 H   0  0  0  0  0  0  0  0  0  0  0  0
    0.1459    1.1520    2.6547 H   0  0  0  0  0  0  0  0  0  0  0  0
   -0.1123   -0.2613   -0.0613 H   0  0  0  0  0  0  0  0  0  0  0  0
   -0.6520   -0.9561    1.4821 H   0  0  0  0  0  0  0  0  0  0  0  0
   -2.6170   -1.0875    0.1758 H   0  0  0  0  0  0  0  0  0  0  0  0
   -4.1260    1.4485   -0.0855 H   0  0  0  0  0  0  0  0  0  0  0  0
   -5.7279    0.9118    1.5373 H   0  0  0  0  0  0  0  0  0  0  0  0
   -4.2318    0.4837    2.2636 H   0  0  0  0  0  0  0  0  0  0  0  0
   -5.8549   -1.1462    2.8045 H   0  0  0  0  0  0  0  0  0  0  0  0
   -4.5843   -1.8960    1.8678 H   0  0  0  0  0  0  0  0  0  0  0  0
   -6.9602   -2.6467    1.4755 H   0  0  0  0  0  0  0  0  0  0  0  0
   -6.0306   -2.3658    0.0550 H   0  0  0  0  0  0  0  0  0  0  0  0
   -8.1979   -0.5773    1.2377 H   0  0  0  0  0  0  0  0  0  0  0  0
   -8.3088   -1.5854   -0.1834 H   0  0  0  0  0  0  0  0  0  0  0  0
   -8.1970    0.5258   -1.0371 H   0  0  0  0  0  0  0  0  0  0  0  0
   -7.0609    1.1361    0.0959 H   0  0  0  0  0  0  0  0  0  0  0  0
   -6.5261   -0.6652   -2.2985 H   0  0  0  0  0  0  0  0  0  0  0  0
   -6.1181    1.0228   -2.1126 H   0  0  0  0  0  0  0  0  0  0  0  0
   -4.1148   -0.0675   -1.9790 H   0  0  0  0  0  0  0  0  0  0  0  0
   -4.6767   -1.3908   -1.0485 H   0  0  0  0  0  0  0  0  0  0  0  0
    3.1931    2.9959   -1.4721 H   0  0  0  0  0  0  0  0  0  0  0  0
    4.8000    1.7822   -2.8443 H   0  0  0  0  0  0  0  0  0  0  0  0
    6.9254    1.0544   -3.5151 H   0  0  0  0  0  0  0  0  0  0  0  0
    5.6410   -0.1127   -3.9775 H   0  0  0  0  0  0  0  0  0  0  0  0
    7.3318   -0.6168   -3.9095 H   0  0  0  0  0  0  0  0  0  0  0  0
  1  2  1  0
  2  3  1  0
  3  4  2  0
  3  5  1  0
  5  6  2  0
  6  7  1  0
  7  8  1  0
  8  9  2  0
  8 10  2  0
  8 11  1  0
 11 12  1  0
 12 13  1  0
 13 14  1  0
 14 15  2  0
 14 16  1  0
 16 17  1  0
 17 18  1  0
 18 19  1  0
 19 20  1  0
 20 21  1  0
 21 22  1  0
 22 23  1  0
 23 24  1  0
  7 25  2  0
 25 26  1  0
 26 27  2  0
 27 28  1  0
 28 29  1  0
 28 30  1  0
 30 31  2  0
 30  2  1  0
 27  5  1  0
 24 17  1  0
  1 32  1  0
  1 33  1  0
  1 34  1  0
  6 35  1  0
 11 36  1  0
 12 37  1  0
 12 38  1  0
 13 39  1  0
 13 40  1  0
 16 41  1  0
 17 42  1  0
 18 43  1  0
 18 44  1  0
 19 45  1  0
 19 46  1  0
 20 47  1  0
 20 48  1  0
 21 49  1  0
 21 50  1  0
 22 51  1  0
 22 52  1  0
 23 53  1  0
 23 54  1  0
 24 55  1  0
 24 56  1  0
 25 57  1  0
 26 58  1  0
 29 59  1  0
 29 60  1  0
 29 61  1  0
M  END
$$$$
