
     RDKit          3D

 63 66  0  0  0  0  0  0  0  0999 V2000
    6.2999   -1.7076    0.1858 C   0  0  0  0  0  0  0  0  0  0  0  0
    6.3409   -0.3900   -0.5996 C   0  0  0  0  0  0  0  0  0  0  0  0
    5.4526    0.6941    0.0460 C   0  0  0  0  0  0  0  0  0  0  0  0
    4.0503    0.3226    0.1322 N   0  0  0  0  0  0  0  0  0  0  0  0
    3.2400    0.3183   -0.9844 C   0  0  0  0  0  0  0  0  0  0  0  0
    3.6230    0.6433   -2.1021 O   0  0  0  0  0  0  0  0  0  0  0  0
    1.8450   -0.1552   -0.7793 C   0  0  0  0  0  0  0  0  0  0  0  0
    1.1618    0.0579    0.4235 C   0  0  0  0  0  0  0  0  0  0  0  0
   -0.1569   -0.3920    0.5757 C   0  0  0  0  0  0  0  0  0  0  0  0
   -0.8014   -1.0510   -0.4714 C   0  0  0  0  0  0  0  0  0  0  0  0
   -2.0773   -1.5369   -0.4655 O   0  0  0  0  0  0  0  0  0  0  0  0
   -2.9270   -1.2927    0.6656 C   0  0  0  0  0  0  0  0  0  0  0  0
   -4.0318   -2.3590    0.6362 C   0  0  0  0  0  0  0  0  0  0  0  0
   -5.2707   -1.8382   -0.0867 C   0  0  0  0  0  0  0  0  0  0  0  0
   -5.8760   -0.7031    0.6280 N   0  0  0  0  0  0  0  0  0  0  0  0
   -6.8197    0.0097   -0.2627 C   0  0  0  0  0  0  0  0  0  0  0  0
   -7.7668    0.9532    0.4619 C   0  0  0  0  0  0  0  0  0  0  0  0
   -8.6178    0.4698    1.4560 C   0  0  0  0  0  0  0  0  0  0  0  0
   -9.4757    1.3568    2.0982 C   0  0  0  0  0  0  0  0  0  0  0  0
   -9.4658    2.6973    1.7339 C   0  0  0  0  0  0  0  0  0  0  0  0
   -8.5934    3.0971    0.7361 C   0  0  0  0  0  0  0  0  0  0  0  0
   -7.7473    2.2611    0.0948 N   0  0  0  0  0  0  0  0  0  0  0  0
   -4.8843    0.2036    1.2305 C   0  0  0  0  0  0  0  0  0  0  0  0
   -3.5093    0.1242    0.5768 C   0  0  0  0  0  0  0  0  0  0  0  0
   -0.1154   -1.2557   -1.6724 C   0  0  0  0  0  0  0  0  0  0  0  0
    1.1971   -0.8052   -1.8330 C   0  0  0  0  0  0  0  0  0  0  0  0
    7.7573    0.1397   -0.7736 C   0  0  0  0  0  0  0  0  0  0  0  0
    8.1521    0.6345   -2.0265 C   0  0  0  0  0  0  0  0  0  0  0  0
    9.4366    1.1472   -2.2197 C   0  0  0  0  0  0  0  0  0  0  0  0
   10.3423    1.1775   -1.1620 C   0  0  0  0  0  0  0  0  0  0  0  0
    9.9625    0.7006    0.0900 C   0  0  0  0  0  0  0  0  0  0  0  0
    8.6768    0.1892    0.2855 C   0  0  0  0  0  0  0  0  0  0  0  0
    6.9941   -2.4395   -0.2421 H   0  0  0  0  0  0  0  0  0  0  0  0
    6.5651   -1.5674    1.2383 H   0  0  0  0  0  0  0  0  0  0  0  0
    5.2978   -2.1485    0.1552 H   0  0  0  0  0  0  0  0  0  0  0  0
    5.9450   -0.6237   -1.5974 H   0  0  0  0  0  0  0  0  0  0  0  0
    5.5151    1.6248   -0.5323 H   0  0  0  0  0  0  0  0  0  0  0  0
    5.7853    0.9193    1.0665 H   0  0  0  0  0  0  0  0  0  0  0  0
    3.7374   -0.1514    0.9699 H   0  0  0  0  0  0  0  0  0  0  0  0
    1.6283    0.6009    1.2412 H   0  0  0  0  0  0  0  0  0  0  0  0
   -0.6496   -0.1982    1.5216 H   0  0  0  0  0  0  0  0  0  0  0  0
   -2.3741   -1.4433    1.5996 H   0  0  0  0  0  0  0  0  0  0  0  0
   -3.6776   -3.2738    0.1468 H   0  0  0  0  0  0  0  0  0  0  0  0
   -4.3082   -2.6301    1.6635 H   0  0  0  0  0  0  0  0  0  0  0  0
   -4.9953   -1.5643   -1.1142 H   0  0  0  0  0  0  0  0  0  0  0  0
   -6.0094   -2.6454   -0.1561 H   0  0  0  0  0  0  0  0  0  0  0  0
   -6.2710    0.5622   -1.0364 H   0  0  0  0  0  0  0  0  0  0  0  0
   -7.4537   -0.7175   -0.7865 H   0  0  0  0  0  0  0  0  0  0  0  0
   -8.6038   -0.5808    1.7295 H   0  0  0  0  0  0  0  0  0  0  0  0
  -10.1428    1.0021    2.8782 H   0  0  0  0  0  0  0  0  0  0  0  0
  -10.1218    3.4133    2.2156 H   0  0  0  0  0  0  0  0  0  0  0  0
   -8.5483    4.1337    0.4153 H   0  0  0  0  0  0  0  0  0  0  0  0
   -5.2207    1.2468    1.2369 H   0  0  0  0  0  0  0  0  0  0  0  0
   -4.7864   -0.0750    2.2873 H   0  0  0  0  0  0  0  0  0  0  0  0
   -2.8306    0.8332    1.0639 H   0  0  0  0  0  0  0  0  0  0  0  0
   -3.5736    0.4506   -0.4695 H   0  0  0  0  0  0  0  0  0  0  0  0
   -0.6121   -1.7626   -2.4973 H   0  0  0  0  0  0  0  0  0  0  0  0
    1.7099   -0.9626   -2.7796 H   0  0  0  0  0  0  0  0  0  0  0  0
    7.4554    0.6254   -2.8636 H   0  0  0  0  0  0  0  0  0  0  0  0
    9.7280    1.5243   -3.1963 H   0  0  0  0  0  0  0  0  0  0  0  0
   11.3422    1.5753   -1.3130 H   0  0  0  0  0  0  0  0  0  0  0  0
   10.6681    0.7279    0.9165 H   0  0  0  0  0  0  0  0  0  0  0  0
    8.4056   -0.1669    1.2756 H   0  0  0  0  0  0  0  0  0  0  0  0
  1  2  1  0
  2  3  1  0
  3  4  1  0
  4  5  1  0
  5  6  2  0
  5  7  1  0
  7  8  2  0
  8  9  1  0
  9 10  2  0
 10 11  1  0
 11 12  1  0
 12 13  1  0
 13 14  1  0
 14 15  1  0
 15 16  1  0
 16 17  1  0
 17 18  2  0
 18 19  1  0
 19 20  2  0
 20 21  1  0
 21 22  2  0
 15 23  1  0
 23 24  1  0
 10 25  1  0
 25 26  2  0
  2 27  1  0
 27 28  2  0
 28 29  1  0
 29 30  2  0
 30 31  1  0
 31 32  2  0
 26  7  1  0
 32 27  1  0
 24 12  1  0
 22 17  1  0
  1 33  1  0
  1 34  1  0
  1 35  1  0
  2 36  1  0
  3 37  1  0
  3 38  1  0
  4 39  1  0
  8 40  1  0
  9 41  1  0
 12 42  1  0
 13 43  1  0
 13 44  1  0
 14 45  1  0
 14 46  1  0
 16 47  1  0
 16 48  1  0
 18 49  1  0
 19 50  1  0
 20 51  1  0
 21 52  1  0
 23 53  1  0
 23 54  1  0
 24 55  1  0
 24 56  1  0
 25 57  1  0
 26 58  1  0
 28 59  1  0
 29 60  1  0
 30 61  1  0
 31 62  1  0
 32 63  1  0
M  END
$$$$
