
     RDKit          3D

 72 74  0  0  0  0  0  0  0  0999 V2000
    9.4605    2.4575   -4.7742 C   0  0  0  0  0  0  0  0  0  0  0  0
    8.4749    1.3043   -4.6660 C   0  0  0  0  0  0  0  0  0  0  0  0
    7.6659    1.3793   -3.3723 C   0  0  0  0  0  0  0  0  0  0  0  0
    6.7192    0.1847   -3.2353 C   0  0  0  0  0  0  0  0  0  0  0  0
    5.8645    0.2969   -1.9703 C   0  0  0  0  0  0  0  0  0  0  0  0
    4.9538   -0.9221   -1.8068 C   0  0  0  0  0  0  0  0  0  0  0  0
    4.1076   -0.8803   -0.5292 C   0  0  0  0  0  0  0  0  0  0  0  0
    2.9970    0.1728   -0.5798 C   0  0  0  0  0  0  0  0  0  0  0  0
    2.1676    0.2481    0.7034 C   0  0  0  0  0  0  0  0  0  0  0  0
    1.3854   -1.0268    1.0065 C   0  0  0  0  0  0  0  0  0  0  0  0
    0.5439   -0.8148    2.1565 O   0  0  0  0  0  0  0  0  0  0  0  0
   -0.7135   -0.3637    1.8995 C   0  0  0  0  0  0  0  0  0  0  0  0
   -1.1804   -0.1226    0.7928 O   0  0  0  0  0  0  0  0  0  0  0  0
   -1.5087   -0.2134    3.1852 C   0  0  0  0  0  0  0  0  0  0  0  0
   -2.6980   -1.0888    3.1779 N   0  0  0  0  0  0  0  0  0  0  0  0
   -3.8756   -0.8104    2.5637 C   0  0  0  0  0  0  0  0  0  0  0  0
   -4.2559    0.4347    1.7681 C   0  0  0  0  0  0  0  0  0  0  0  0
   -4.7517    0.0361    0.4982 O   0  0  0  0  0  0  0  0  0  0  0  0
   -5.2110    1.0241   -0.3263 C   0  0  0  0  0  0  0  0  0  0  0  0
   -5.5600    0.5897   -1.6077 C   0  0  0  0  0  0  0  0  0  0  0  0
   -6.0628    1.4871   -2.5479 C   0  0  0  0  0  0  0  0  0  0  0  0
   -6.2173    2.8299   -2.2121 C   0  0  0  0  0  0  0  0  0  0  0  0
   -5.8615    3.2852   -0.9363 C   0  0  0  0  0  0  0  0  0  0  0  0
   -6.0650    4.7294   -0.5774 C   0  0  0  0  0  0  0  0  0  0  0  0
   -5.3671    2.3717    0.0095 C   0  0  0  0  0  0  0  0  0  0  0  0
   -4.7002   -1.8599    2.8072 N   0  0  0  0  0  4  0  0  0  0  0  0
   -6.0831   -1.9528    2.3346 C   0  0  0  0  0  0  0  0  0  0  0  0
   -4.0150   -2.8691    3.4700 C   0  0  0  0  0  0  0  0  0  0  0  0
   -4.4069   -4.1473    3.8631 C   0  0  0  0  0  0  0  0  0  0  0  0
   -3.4341   -4.9193    4.5113 C   0  0  0  0  0  0  0  0  0  0  0  0
   -2.1378   -4.4266    4.7489 C   0  0  0  0  0  0  0  0  0  0  0  0
   -1.7540   -3.1388    4.3497 C   0  0  0  0  0  0  0  0  0  0  0  0
   -2.7297   -2.3782    3.7064 C   0  0  0  0  0  0  0  0  0  0  0  0
   10.0108    2.3989   -5.7181 H   0  0  0  0  0  0  0  0  0  0  0  0
   10.1873    2.4285   -3.9568 H   0  0  0  0  0  0  0  0  0  0  0  0
    8.9439    3.4210   -4.7402 H   0  0  0  0  0  0  0  0  0  0  0  0
    7.7975    1.3286   -5.5273 H   0  0  0  0  0  0  0  0  0  0  0  0
    9.0236    0.3575   -4.7112 H   0  0  0  0  0  0  0  0  0  0  0  0
    7.0887    2.3120   -3.3572 H   0  0  0  0  0  0  0  0  0  0  0  0
    8.3461    1.4064   -2.5120 H   0  0  0  0  0  0  0  0  0  0  0  0
    7.3052   -0.7434   -3.2048 H   0  0  0  0  0  0  0  0  0  0  0  0
    6.0646    0.1272   -4.1154 H   0  0  0  0  0  0  0  0  0  0  0  0
    5.2662    1.2135   -2.0256 H   0  0  0  0  0  0  0  0  0  0  0  0
    6.5166    0.3857   -1.0921 H   0  0  0  0  0  0  0  0  0  0  0  0
    4.2993   -1.0202   -2.6811 H   0  0  0  0  0  0  0  0  0  0  0  0
    5.5769   -1.8249   -1.7749 H   0  0  0  0  0  0  0  0  0  0  0  0
    4.7539   -0.7011    0.3385 H   0  0  0  0  0  0  0  0  0  0  0  0
    3.6607   -1.8723   -0.3950 H   0  0  0  0  0  0  0  0  0  0  0  0
    2.3343   -0.0324   -1.4291 H   0  0  0  0  0  0  0  0  0  0  0  0
    3.4321    1.1634   -0.7514 H   0  0  0  0  0  0  0  0  0  0  0  0
    2.8141    0.4889    1.5573 H   0  0  0  0  0  0  0  0  0  0  0  0
    1.4684    1.0906    0.6196 H   0  0  0  0  0  0  0  0  0  0  0  0
    2.0656   -1.8435    1.2693 H   0  0  0  0  0  0  0  0  0  0  0  0
    0.7978   -1.3606    0.1432 H   0  0  0  0  0  0  0  0  0  0  0  0
   -0.8868   -0.4525    4.0542 H   0  0  0  0  0  0  0  0  0  0  0  0
   -1.8177    0.8301    3.2985 H   0  0  0  0  0  0  0  0  0  0  0  0
   -3.3671    1.0624    1.6755 H   0  0  0  0  0  0  0  0  0  0  0  0
   -5.0278    0.9156    2.3803 H   0  0  0  0  0  0  0  0  0  0  0  0
   -5.4403   -0.4549   -1.8837 H   0  0  0  0  0  0  0  0  0  0  0  0
   -6.3349    1.1400   -3.5427 H   0  0  0  0  0  0  0  0  0  0  0  0
   -6.6159    3.5205   -2.9536 H   0  0  0  0  0  0  0  0  0  0  0  0
   -5.7969    5.3758   -1.4187 H   0  0  0  0  0  0  0  0  0  0  0  0
   -7.1134    4.9028   -0.3124 H   0  0  0  0  0  0  0  0  0  0  0  0
   -5.4362    5.0193    0.2716 H   0  0  0  0  0  0  0  0  0  0  0  0
   -5.1173    2.7491    0.9961 H   0  0  0  0  0  0  0  0  0  0  0  0
   -6.5431   -0.9627    2.3062 H   0  0  0  0  0  0  0  0  0  0  0  0
   -6.6686   -2.5764    3.0154 H   0  0  0  0  0  0  0  0  0  0  0  0
   -6.0842   -2.3984    1.3378 H   0  0  0  0  0  0  0  0  0  0  0  0
   -5.4033   -4.5266    3.6740 H   0  0  0  0  0  0  0  0  0  0  0  0
   -3.6850   -5.9293    4.8377 H   0  0  0  0  0  0  0  0  0  0  0  0
   -1.4138   -5.0676    5.2541 H   0  0  0  0  0  0  0  0  0  0  0  0
   -0.7526   -2.7676    4.5286 H   0  0  0  0  0  0  0  0  0  0  0  0
  1  2  1  0
  2  3  1  0
  3  4  1  0
  4  5  1  0
  5  6  1  0
  6  7  1  0
  7  8  1  0
  8  9  1  0
  9 10  1  0
 10 11  1  0
 11 12  1  0
 12 13  2  0
 12 14  1  0
 14 15  1  0
 15 16  1  0
 16 17  1  0
 17 18  1  0
 18 19  1  0
 19 20  2  0
 20 21  1  0
 21 22  2  0
 22 23  1  0
 23 24  1  0
 23 25  2  0
 16 26  2  0
 26 27  1  0
 26 28  1  0
 28 29  2  0
 29 30  1  0
 30 31  2  0
 31 32  1  0
 32 33  2  0
 33 15  1  0
 25 19  1  0
 33 28  1  0
  1 34  1  0
  1 35  1  0
  1 36  1  0
  2 37  1  0
  2 38  1  0
  3 39  1  0
  3 40  1  0
  4 41  1  0
  4 42  1  0
  5 43  1  0
  5 44  1  0
  6 45  1  0
  6 46  1  0
  7 47  1  0
  7 48  1  0
  8 49  1  0
  8 50  1  0
  9 51  1  0
  9 52  1  0
 10 53  1  0
 10 54  1  0
 14 55  1  0
 14 56  1  0
 17 57  1  0
 17 58  1  0
 20 59  1  0
 21 60  1  0
 22 61  1  0
 24 62  1  0
 24 63  1  0
 24 64  1  0
 25 65  1  0
 27 66  1  0
 27 67  1  0
 27 68  1  0
 29 69  1  0
 30 70  1  0
 31 71  1  0
 32 72  1  0
M  CHG  1  26   1
M  END
$$$$
