
     RDKit          3D

 55 57  0  0  0  0  0  0  0  0999 V2000
   -2.2607   -3.0748   -0.2223 C   0  0  0  0  0  0  0  0  0  0  0  0
   -0.9935   -2.8432    0.5818 C   0  0  0  0  0  0  0  0  0  0  0  0
   -1.0398   -1.5826    1.2436 O   0  0  0  0  0  0  0  0  0  0  0  0
   -0.5915   -0.4907    0.4387 C   0  0  0  0  0  0  0  0  0  0  0  0
    0.8400   -0.5672    0.3580 O   0  0  0  0  0  0  0  0  0  0  0  0
    1.4935    0.5667   -0.0782 C   0  0  0  0  0  0  0  0  0  0  0  0
    2.9522    0.4299   -0.4483 C   0  0  0  0  0  0  0  0  0  0  0  0
    3.5816    1.3645   -0.9275 O   0  0  0  0  0  0  0  0  0  0  0  0
    3.4157   -0.8407   -0.1729 N   0  0  0  0  0  0  0  0  0  0  0  0
    4.7060   -1.3595   -0.3843 C   0  0  0  0  0  0  0  0  0  0  0  0
    5.7541   -0.6340   -0.9527 C   0  0  0  0  0  0  0  0  0  0  0  0
    7.0093   -1.2250   -1.1312 C   0  0  0  0  0  0  0  0  0  0  0  0
    7.2259   -2.5450   -0.7429 C   0  0  0  0  0  0  0  0  0  0  0  0
    6.1870   -3.2771   -0.1749 C   0  0  0  0  0  0  0  0  0  0  0  0
    4.9330   -2.6868    0.0027 C   0  0  0  0  0  0  0  0  0  0  0  0
    0.9099    1.7703   -0.1790 C   0  0  0  0  0  0  0  0  0  0  0  0
   -0.5171    2.0196    0.2184 C   0  0  0  0  0  0  0  0  0  0  0  0
   -1.3715    2.4110   -0.9855 C   0  0  0  0  0  0  0  0  0  0  0  0
   -2.2320    3.5189   -0.8886 C   0  0  0  0  0  0  0  0  0  0  0  0
   -3.0401    3.8981   -1.9624 C   0  0  0  0  0  0  0  0  0  0  0  0
   -2.9985    3.1797   -3.1536 C   0  0  0  0  0  0  0  0  0  0  0  0
   -2.1458    2.0857   -3.2728 C   0  0  0  0  0  0  0  0  0  0  0  0
   -1.3374    1.7045   -2.1989 C   0  0  0  0  0  0  0  0  0  0  0  0
   -1.0601    0.8350    1.0703 C   0  0  0  0  0  0  0  0  0  0  0  0
   -2.5846    0.9378    1.3172 C   0  0  0  0  0  0  0  0  0  0  0  0
   -3.1003    0.1509    2.5257 C   0  0  0  0  0  0  0  0  0  0  0  0
   -4.5644    0.4696    2.8092 C   0  0  0  0  0  0  0  0  0  0  0  0
   -4.9904   -0.2779    3.9398 O   0  0  0  0  0  0  0  0  0  0  0  0
   -2.2642   -4.0786   -0.6566 H   0  0  0  0  0  0  0  0  0  0  0  0
   -3.1451   -2.9616    0.4134 H   0  0  0  0  0  0  0  0  0  0  0  0
   -2.3574   -2.3476   -1.0340 H   0  0  0  0  0  0  0  0  0  0  0  0
   -0.1005   -2.9327   -0.0466 H   0  0  0  0  0  0  0  0  0  0  0  0
   -0.9245   -3.6102    1.3601 H   0  0  0  0  0  0  0  0  0  0  0  0
   -1.0061   -0.5963   -0.5691 H   0  0  0  0  0  0  0  0  0  0  0  0
    2.7331   -1.4627    0.2470 H   0  0  0  0  0  0  0  0  0  0  0  0
    5.6280    0.3966   -1.2693 H   0  0  0  0  0  0  0  0  0  0  0  0
    7.8167   -0.6480   -1.5750 H   0  0  0  0  0  0  0  0  0  0  0  0
    8.2029   -3.0001   -0.8824 H   0  0  0  0  0  0  0  0  0  0  0  0
    6.3517   -4.3068    0.1314 H   0  0  0  0  0  0  0  0  0  0  0  0
    4.1386   -3.2786    0.4495 H   0  0  0  0  0  0  0  0  0  0  0  0
    1.4788    2.6267   -0.5380 H   0  0  0  0  0  0  0  0  0  0  0  0
   -0.4884    2.8913    0.8891 H   0  0  0  0  0  0  0  0  0  0  0  0
   -2.2808    4.0996    0.0306 H   0  0  0  0  0  0  0  0  0  0  0  0
   -3.6989    4.7577   -1.8693 H   0  0  0  0  0  0  0  0  0  0  0  0
   -3.6234    3.4770   -3.9915 H   0  0  0  0  0  0  0  0  0  0  0  0
   -2.1025    1.5315   -4.2072 H   0  0  0  0  0  0  0  0  0  0  0  0
   -0.6692    0.8583   -2.3365 H   0  0  0  0  0  0  0  0  0  0  0  0
   -0.5706    0.9082    2.0542 H   0  0  0  0  0  0  0  0  0  0  0  0
   -2.8358    1.9913    1.4931 H   0  0  0  0  0  0  0  0  0  0  0  0
   -3.1320    0.6216    0.4207 H   0  0  0  0  0  0  0  0  0  0  0  0
   -3.0117   -0.9277    2.3698 H   0  0  0  0  0  0  0  0  0  0  0  0
   -2.5014    0.3818    3.4151 H   0  0  0  0  0  0  0  0  0  0  0  0
   -4.6980    1.5339    3.0276 H   0  0  0  0  0  0  0  0  0  0  0  0
   -5.1936    0.1992    1.9552 H   0  0  0  0  0  0  0  0  0  0  0  0
   -5.9263   -0.0615    4.0895 H   0  0  0  0  0  0  0  0  0  0  0  0
  1  2  1  0
  2  3  1  0
  3  4  1  0
  4  5  1  0
  5  6  1  0
  6  7  1  0
  7  8  2  0
  7  9  1  0
  9 10  1  0
 10 11  2  0
 11 12  1  0
 12 13  2  0
 13 14  1  0
 14 15  2  0
  6 16  2  0
 16 17  1  0
 17 18  1  0
 18 19  2  0
 19 20  1  0
 20 21  2  0
 21 22  1  0
 22 23  2  0
 17 24  1  0
 24 25  1  0
 25 26  1  0
 26 27  1  0
 27 28  1  0
 24  4  1  0
 15 10  1  0
 23 18  1  0
  1 29  1  0
  1 30  1  0
  1 31  1  0
  2 32  1  0
  2 33  1  0
  4 34  1  0
  9 35  1  0
 11 36  1  0
 12 37  1  0
 13 38  1  0
 14 39  1  0
 15 40  1  0
 16 41  1  0
 17 42  1  0
 19 43  1  0
 20 44  1  0
 21 45  1  0
 22 46  1  0
 23 47  1  0
 24 48  1  0
 25 49  1  0
 25 50  1  0
 26 51  1  0
 26 52  1  0
 27 53  1  0
 27 54  1  0
 28 55  1  0
M  END
$$$$
