
     RDKit          3D

 53 54  0  0  0  0  0  0  0  0999 V2000
    5.6778   -1.8373    2.2641 C   0  0  0  0  0  0  0  0  0  0  0  0
    5.2663   -0.4023    1.9591 C   0  0  0  0  0  0  0  0  0  0  0  0
    3.9293   -0.3279    1.3700 N   0  0  0  0  0  0  0  0  0  0  0  0
    3.6961    0.9733    0.7276 C   0  0  0  0  0  0  0  0  0  0  0  0
    2.2513    1.1011    0.1935 C   0  0  0  0  0  0  0  0  0  0  0  0
    1.1804    0.8549    1.1917 N   0  0  0  0  0  0  0  0  0  0  0  0
    0.3351    2.0566    1.4015 C   0  0  0  0  0  0  0  0  0  0  0  0
   -0.6233    2.2900    0.2215 C   0  0  0  0  0  0  0  0  0  0  0  0
   -1.1257    3.3923    0.0206 O   0  0  0  0  0  0  0  0  0  0  0  0
   -0.8767    1.1338   -0.4853 N   0  0  0  0  0  0  0  0  0  0  0  0
   -1.7158    0.9308   -1.5917 C   0  0  0  0  0  0  0  0  0  0  0  0
   -2.4724    1.9422   -2.1875 C   0  0  0  0  0  0  0  0  0  0  0  0
   -3.2844    1.6686   -3.3041 C   0  0  0  0  0  0  0  0  0  0  0  0
   -4.0718    2.7828   -3.9519 C   0  0  0  0  0  0  0  0  0  0  0  0
   -3.3031    3.5488   -4.7746 F   0  0  0  0  0  0  0  0  0  0  0  0
   -4.6295    3.6355   -3.0499 F   0  0  0  0  0  0  0  0  0  0  0  0
   -5.1043    2.3308   -4.7182 F   0  0  0  0  0  0  0  0  0  0  0  0
   -3.3168    0.3651   -3.8254 C   0  0  0  0  0  0  0  0  0  0  0  0
   -2.5630   -0.6503   -3.2377 C   0  0  0  0  0  0  0  0  0  0  0  0
   -1.7888   -0.3717   -2.1116 C   0  0  0  0  0  0  0  0  0  0  0  0
   -1.0185   -1.3539   -1.5364 O   0  0  0  0  0  0  0  0  0  0  0  0
   -1.8089   -2.3613   -0.8881 C   0  0  0  0  0  0  0  0  0  0  0  0
   -2.1094   -1.9772    0.5636 C   0  0  0  0  0  0  0  0  0  0  0  0
   -2.8040   -3.0099    1.2632 O   0  0  0  0  0  0  0  0  0  0  0  0
   -4.2045   -2.9995    1.0156 C   0  0  0  0  0  0  0  0  0  0  0  0
    1.7479    0.4016    2.4752 C   0  0  0  0  0  0  0  0  0  0  0  0
    2.8483   -0.6753    2.3139 C   0  0  0  0  0  0  0  0  0  0  0  0
    5.0478   -2.2940    3.0352 H   0  0  0  0  0  0  0  0  0  0  0  0
    5.6256   -2.4616    1.3644 H   0  0  0  0  0  0  0  0  0  0  0  0
    6.7121   -1.8586    2.6240 H   0  0  0  0  0  0  0  0  0  0  0  0
    6.0019   -0.0016    1.2483 H   0  0  0  0  0  0  0  0  0  0  0  0
    5.3331    0.2117    2.8642 H   0  0  0  0  0  0  0  0  0  0  0  0
    3.8956    1.7969    1.4266 H   0  0  0  0  0  0  0  0  0  0  0  0
    4.3853    1.0915   -0.1183 H   0  0  0  0  0  0  0  0  0  0  0  0
    2.1436    2.0816   -0.2862 H   0  0  0  0  0  0  0  0  0  0  0  0
    2.1164    0.3608   -0.6056 H   0  0  0  0  0  0  0  0  0  0  0  0
    0.9478    2.9520    1.5560 H   0  0  0  0  0  0  0  0  0  0  0  0
   -0.3074    1.9163    2.2795 H   0  0  0  0  0  0  0  0  0  0  0  0
   -0.3216    0.3316   -0.1854 H   0  0  0  0  0  0  0  0  0  0  0  0
   -2.4424    2.9604   -1.8077 H   0  0  0  0  0  0  0  0  0  0  0  0
   -3.9195    0.1416   -4.7046 H   0  0  0  0  0  0  0  0  0  0  0  0
   -2.5755   -1.6488   -3.6650 H   0  0  0  0  0  0  0  0  0  0  0  0
   -2.7251   -2.5956   -1.4417 H   0  0  0  0  0  0  0  0  0  0  0  0
   -1.2203   -3.2885   -0.8905 H   0  0  0  0  0  0  0  0  0  0  0  0
   -2.6629   -1.0325    0.6241 H   0  0  0  0  0  0  0  0  0  0  0  0
   -1.1615   -1.8100    1.0866 H   0  0  0  0  0  0  0  0  0  0  0  0
   -4.4153   -3.1976   -0.0393 H   0  0  0  0  0  0  0  0  0  0  0  0
   -4.6633   -3.7923    1.6128 H   0  0  0  0  0  0  0  0  0  0  0  0
   -4.6413   -2.0436    1.3188 H   0  0  0  0  0  0  0  0  0  0  0  0
    2.1717    1.2506    3.0278 H   0  0  0  0  0  0  0  0  0  0  0  0
    0.9450   -0.0136    3.0948 H   0  0  0  0  0  0  0  0  0  0  0  0
    2.3829   -1.5992    1.9472 H   0  0  0  0  0  0  0  0  0  0  0  0
    3.2359   -0.8995    3.3150 H   0  0  0  0  0  0  0  0  0  0  0  0
  1  2  1  0
  2  3  1  0
  3  4  1  0
  4  5  1  0
  5  6  1  0
  6  7  1  0
  7  8  1  0
  8  9  2  0
  8 10  1  0
 10 11  1  0
 11 12  2  0
 12 13  1  0
 13 14  1  0
 14 15  1  0
 14 16  1  0
 14 17  1  0
 13 18  2  0
 18 19  1  0
 19 20  2  0
 20 21  1  0
 21 22  1  0
 22 23  1  0
 23 24  1  0
 24 25  1  0
  6 26  1  0
 26 27  1  0
 27  3  1  0
 20 11  1  0
  1 28  1  0
  1 29  1  0
  1 30  1  0
  2 31  1  0
  2 32  1  0
  4 33  1  0
  4 34  1  0
  5 35  1  0
  5 36  1  0
  7 37  1  0
  7 38  1  0
 10 39  1  0
 12 40  1  0
 18 41  1  0
 19 42  1  0
 22 43  1  0
 22 44  1  0
 23 45  1  0
 23 46  1  0
 25 47  1  0
 25 48  1  0
 25 49  1  0
 26 50  1  0
 26 51  1  0
 27 52  1  0
 27 53  1  0
M  END
$$$$
