
     RDKit          3D

 40 42  0  0  0  0  0  0  0  0999 V2000
    4.3602   -3.1154   -1.7917 C   0  0  0  0  0  0  0  0  0  0  0  0
    3.8960   -1.8258   -1.1881 C   0  0  0  0  0  0  0  0  0  0  0  0
    4.5261   -1.1771   -0.3671 O   0  0  0  0  0  0  0  0  0  0  0  0
    2.6671   -1.4979   -1.6708 O   0  0  0  0  0  0  0  0  0  0  0  0
    2.1358   -0.2388   -1.2139 C   0  0  0  0  0  0  0  0  0  0  0  0
    1.6862   -0.3041    0.2511 C   0  0  0  0  0  0  0  0  0  0  0  0
    0.5644    0.6081    0.5111 N   0  0  0  0  0  0  0  0  0  0  0  0
    0.8069    1.9364    0.8393 C   0  0  0  0  0  0  0  0  0  0  0  0
    1.9943    2.4604    0.8673 N   0  0  0  0  0  0  0  0  0  0  0  0
    2.1873    3.7741    1.1934 C   0  0  0  0  0  0  0  0  0  0  0  0
    3.1898    4.3924    0.8529 O   0  0  0  0  0  0  0  0  0  0  0  0
    1.2286    4.4295    1.9088 N   0  0  0  0  0  0  0  0  0  0  0  0
   -0.0916    4.2069    1.6660 C   0  0  0  0  0  0  0  0  0  0  0  0
   -0.9552    5.0616    1.7708 O   0  0  0  0  0  0  0  0  0  0  0  0
   -0.3763    2.8128    1.1755 C   0  0  0  0  0  0  0  0  0  0  0  0
   -1.6008    2.3983    1.0613 N   0  0  0  0  0  0  0  0  0  0  0  0
   -1.8208    1.0865    0.6008 C   0  0  0  0  0  0  0  0  0  0  0  0
   -3.1538    0.6978    0.4247 C   0  0  0  0  0  0  0  0  0  0  0  0
   -3.4912   -0.5805   -0.0362 C   0  0  0  0  0  0  0  0  0  0  0  0
   -4.9402   -0.9433   -0.2091 C   0  0  0  0  0  0  0  0  0  0  0  0
   -2.4612   -1.4870   -0.3323 C   0  0  0  0  0  0  0  0  0  0  0  0
   -2.7626   -2.8719   -0.8404 C   0  0  0  0  0  0  0  0  0  0  0  0
   -1.1198   -1.0950   -0.1516 C   0  0  0  0  0  0  0  0  0  0  0  0
   -0.7694    0.1827    0.3200 C   0  0  0  0  0  0  0  0  0  0  0  0
    3.6896   -3.9255   -1.4949 H   0  0  0  0  0  0  0  0  0  0  0  0
    4.3960   -3.0240   -2.8802 H   0  0  0  0  0  0  0  0  0  0  0  0
    5.3672   -3.3427   -1.4303 H   0  0  0  0  0  0  0  0  0  0  0  0
    1.2880   -0.0177   -1.8717 H   0  0  0  0  0  0  0  0  0  0  0  0
    2.8691    0.5612   -1.3736 H   0  0  0  0  0  0  0  0  0  0  0  0
    2.5330   -0.0420    0.8984 H   0  0  0  0  0  0  0  0  0  0  0  0
    1.4492   -1.3315    0.5507 H   0  0  0  0  0  0  0  0  0  0  0  0
    1.4522    5.4020    2.0644 H   0  0  0  0  0  0  0  0  0  0  0  0
   -3.9352    1.4203    0.6548 H   0  0  0  0  0  0  0  0  0  0  0  0
   -5.1523   -1.1697   -1.2588 H   0  0  0  0  0  0  0  0  0  0  0  0
   -5.1925   -1.8098    0.4102 H   0  0  0  0  0  0  0  0  0  0  0  0
   -5.5996   -0.1221    0.0916 H   0  0  0  0  0  0  0  0  0  0  0  0
   -1.8462   -3.4400   -1.0322 H   0  0  0  0  0  0  0  0  0  0  0  0
   -3.3188   -2.8189   -1.7816 H   0  0  0  0  0  0  0  0  0  0  0  0
   -3.3464   -3.4289   -0.1008 H   0  0  0  0  0  0  0  0  0  0  0  0
   -0.3532   -1.8217   -0.4043 H   0  0  0  0  0  0  0  0  0  0  0  0
  1  2  1  0
  2  3  2  0
  2  4  1  0
  4  5  1  0
  5  6  1  0
  6  7  1  0
  7  8  1  0
  8  9  2  0
  9 10  1  0
 10 11  2  0
 10 12  1  0
 12 13  1  0
 13 14  2  0
 13 15  1  0
 15 16  2  0
 16 17  1  0
 17 18  2  0
 18 19  1  0
 19 20  1  0
 19 21  2  0
 21 22  1  0
 21 23  1  0
 23 24  2  0
 24  7  1  0
 15  8  1  0
 24 17  1  0
  1 25  1  0
  1 26  1  0
  1 27  1  0
  5 28  1  0
  5 29  1  0
  6 30  1  0
  6 31  1  0
 12 32  1  0
 18 33  1  0
 20 34  1  0
 20 35  1  0
 20 36  1  0
 22 37  1  0
 22 38  1  0
 22 39  1  0
 23 40  1  0
M  END
$$$$
