
     RDKit          3D

 43 44  0  0  0  0  0  0  0  0999 V2000
   -5.3226    2.7798   -0.8265 C   0  0  0  0  0  0  0  0  0  0  0  0
   -4.7031    2.6120    0.5482 C   0  0  0  0  0  0  0  0  0  0  0  0
   -3.4979    1.8420    0.4570 O   0  0  0  0  0  0  0  0  0  0  0  0
   -3.6422    0.4835    0.5085 C   0  0  0  0  0  0  0  0  0  0  0  0
   -4.7242   -0.0848    0.6080 O   0  0  0  0  0  0  0  0  0  0  0  0
   -2.3609   -0.2385    0.4269 C   0  0  0  0  0  0  0  0  0  0  0  0
   -1.1887    0.4120    0.4635 N   0  0  0  0  0  0  0  0  0  0  0  0
   -0.2210   -0.5333    0.3809 N   0  0  0  0  0  0  0  0  0  0  0  0
    1.1356   -0.1022    0.2313 C   0  0  0  0  0  0  0  0  0  0  0  0
    1.4544    1.2377    0.5072 C   0  0  0  0  0  0  0  0  0  0  0  0
    2.7664    1.7016    0.3700 C   0  0  0  0  0  0  0  0  0  0  0  0
    3.7821    0.8478   -0.0570 C   0  0  0  0  0  0  0  0  0  0  0  0
    5.0167    1.4265   -0.1482 O   0  0  0  0  0  0  0  0  0  0  0  0
    6.0980    0.5931   -0.5610 C   0  0  0  0  0  0  0  0  0  0  0  0
    7.3616    1.4345   -0.5678 C   0  0  0  0  0  0  0  0  0  0  0  0
    3.4693   -0.4765   -0.3571 C   0  0  0  0  0  0  0  0  0  0  0  0
    2.1540   -0.9484   -0.2197 C   0  0  0  0  0  0  0  0  0  0  0  0
   -0.7709   -1.8081    0.4501 C   0  0  0  0  0  0  0  0  0  0  0  0
    0.0044   -3.0689    0.6146 C   0  0  0  0  0  0  0  0  0  0  0  0
   -2.1523   -1.6435    0.3654 C   0  0  0  0  0  0  0  0  0  0  0  0
   -3.1366   -2.7211    0.2980 C   0  0  0  0  0  0  0  0  0  0  0  0
   -4.2666   -2.6262   -0.6964 C   0  0  0  0  0  0  0  0  0  0  0  0
   -3.0273   -3.7274    0.9988 O   0  0  0  0  0  0  0  0  0  0  0  0
   -4.6044    3.2306   -1.5192 H   0  0  0  0  0  0  0  0  0  0  0  0
   -6.2113    3.4152   -0.7764 H   0  0  0  0  0  0  0  0  0  0  0  0
   -5.6086    1.8118   -1.2499 H   0  0  0  0  0  0  0  0  0  0  0  0
   -5.4104    2.1641    1.2556 H   0  0  0  0  0  0  0  0  0  0  0  0
   -4.4269    3.5928    0.9489 H   0  0  0  0  0  0  0  0  0  0  0  0
    0.6931    1.9391    0.8455 H   0  0  0  0  0  0  0  0  0  0  0  0
    2.9945    2.7400    0.5987 H   0  0  0  0  0  0  0  0  0  0  0  0
    5.9178    0.2102   -1.5721 H   0  0  0  0  0  0  0  0  0  0  0  0
    6.2265   -0.2397    0.1401 H   0  0  0  0  0  0  0  0  0  0  0  0
    7.5565    1.8454    0.4284 H   0  0  0  0  0  0  0  0  0  0  0  0
    7.2544    2.2857   -1.2484 H   0  0  0  0  0  0  0  0  0  0  0  0
    8.2246    0.8395   -0.8795 H   0  0  0  0  0  0  0  0  0  0  0  0
    4.2226   -1.1714   -0.7143 H   0  0  0  0  0  0  0  0  0  0  0  0
    1.9688   -1.9720   -0.5208 H   0  0  0  0  0  0  0  0  0  0  0  0
    0.3100   -3.4632   -0.3591 H   0  0  0  0  0  0  0  0  0  0  0  0
   -0.5871   -3.8439    1.1093 H   0  0  0  0  0  0  0  0  0  0  0  0
    0.8847   -2.9222    1.2474 H   0  0  0  0  0  0  0  0  0  0  0  0
   -4.3038   -3.5544   -1.2749 H   0  0  0  0  0  0  0  0  0  0  0  0
   -5.2131   -2.4957   -0.1667 H   0  0  0  0  0  0  0  0  0  0  0  0
   -4.1159   -1.8035   -1.4000 H   0  0  0  0  0  0  0  0  0  0  0  0
  1  2  1  0
  2  3  1  0
  3  4  1  0
  4  5  2  0
  4  6  1  0
  6  7  2  0
  7  8  1  0
  8  9  1  0
  9 10  2  0
 10 11  1  0
 11 12  2  0
 12 13  1  0
 13 14  1  0
 14 15  1  0
 12 16  1  0
 16 17  2  0
  8 18  1  0
 18 19  1  0
 18 20  2  0
 20 21  1  0
 21 22  1  0
 21 23  2  0
 20  6  1  0
 17  9  1  0
  1 24  1  0
  1 25  1  0
  1 26  1  0
  2 27  1  0
  2 28  1  0
 10 29  1  0
 11 30  1  0
 14 31  1  0
 14 32  1  0
 15 33  1  0
 15 34  1  0
 15 35  1  0
 16 36  1  0
 17 37  1  0
 19 38  1  0
 19 39  1  0
 19 40  1  0
 22 41  1  0
 22 42  1  0
 22 43  1  0
M  END
$$$$
