
     RDKit          3D

 39 40  0  0  0  0  0  0  0  0999 V2000
   -2.7735   -1.6100   -0.8294 C   0  0  0  0  0  0  0  0  0  0  0  0
   -3.2451   -0.6905    0.2864 C   0  0  0  0  0  0  0  0  0  0  0  0
   -2.7491    0.6753    0.1079 N   0  0  0  0  0  0  0  0  0  0  0  0
   -3.6061    1.5993   -0.6408 C   0  0  0  0  0  0  0  0  0  0  0  0
   -4.6284    2.2760    0.2590 C   0  0  0  0  0  0  0  0  0  0  0  0
   -1.4953    0.9990    0.6354 C   0  0  0  0  0  0  0  0  0  0  0  0
   -0.8211    0.1507    1.2291 O   0  0  0  0  0  0  0  0  0  0  0  0
   -1.0123    2.4373    0.4276 C   0  0  0  0  0  0  0  0  0  0  0  0
    0.5538    2.7880    1.2811 S   0  0  0  0  0  0  0  0  0  0  0  0
    1.6219    1.8646    0.2806 C   0  0  0  0  0  0  0  0  0  0  0  0
    1.9681    2.1533   -0.9512 N   0  0  0  0  0  0  0  0  0  0  0  0
    2.7652    1.1249   -1.4035 N   0  0  0  0  0  0  0  0  0  0  0  0
    2.8522    0.2077   -0.4521 C   0  0  0  0  0  0  0  0  0  0  0  0
    3.5634   -1.0603   -0.5663 C   0  0  0  0  0  0  0  0  0  0  0  0
    4.8940   -1.0691   -0.9876 C   0  0  0  0  0  0  0  0  0  0  0  0
    5.5425   -2.2867   -1.0996 C   0  0  0  0  0  0  0  0  0  0  0  0
    4.9580   -3.4740   -0.8327 N   0  0  0  0  0  0  0  0  0  0  0  0
    3.6637   -3.4446   -0.4536 C   0  0  0  0  0  0  0  0  0  0  0  0
    2.9304   -2.2786   -0.3097 C   0  0  0  0  0  0  0  0  0  0  0  0
    2.1678    0.6635    0.6598 N   0  0  0  0  0  0  0  0  0  0  0  0
    2.0072    0.0128    1.9371 N   0  0  0  0  0  0  0  0  0  0  0  0
   -3.1247   -1.2584   -1.8049 H   0  0  0  0  0  0  0  0  0  0  0  0
   -3.1553   -2.6236   -0.6735 H   0  0  0  0  0  0  0  0  0  0  0  0
   -1.6802   -1.6582   -0.8668 H   0  0  0  0  0  0  0  0  0  0  0  0
   -4.3395   -0.6719    0.3273 H   0  0  0  0  0  0  0  0  0  0  0  0
   -2.8956   -1.0822    1.2483 H   0  0  0  0  0  0  0  0  0  0  0  0
   -2.9993    2.3618   -1.1353 H   0  0  0  0  0  0  0  0  0  0  0  0
   -4.1129    1.0387   -1.4343 H   0  0  0  0  0  0  0  0  0  0  0  0
   -4.1413    2.8408    1.0599 H   0  0  0  0  0  0  0  0  0  0  0  0
   -5.2458    2.9681   -0.3218 H   0  0  0  0  0  0  0  0  0  0  0  0
   -5.2908    1.5413    0.7278 H   0  0  0  0  0  0  0  0  0  0  0  0
   -0.8867    2.6320   -0.6414 H   0  0  0  0  0  0  0  0  0  0  0  0
   -1.7589    3.1246    0.8341 H   0  0  0  0  0  0  0  0  0  0  0  0
    5.4159   -0.1472   -1.2253 H   0  0  0  0  0  0  0  0  0  0  0  0
    6.5794   -2.3409   -1.4192 H   0  0  0  0  0  0  0  0  0  0  0  0
    3.2145   -4.4164   -0.2682 H   0  0  0  0  0  0  0  0  0  0  0  0
    1.8844   -2.3312   -0.0260 H   0  0  0  0  0  0  0  0  0  0  0  0
    1.0003   -0.0844    2.1205 H   0  0  0  0  0  0  0  0  0  0  0  0
    2.3792   -0.9318    1.9420 H   0  0  0  0  0  0  0  0  0  0  0  0
  1  2  1  0
  2  3  1  0
  3  4  1  0
  4  5  1  0
  3  6  1  0
  6  7  2  0
  6  8  1  0
  8  9  1  0
  9 10  1  0
 10 11  2  0
 11 12  1  0
 12 13  2  0
 13 14  1  0
 14 15  2  0
 15 16  1  0
 16 17  2  0
 17 18  1  0
 18 19  2  0
 13 20  1  0
 20 21  1  0
 20 10  1  0
 19 14  1  0
  1 22  1  0
  1 23  1  0
  1 24  1  0
  2 25  1  0
  2 26  1  0
  4 27  1  0
  4 28  1  0
  5 29  1  0
  5 30  1  0
  5 31  1  0
  8 32  1  0
  8 33  1  0
 15 34  1  0
 16 35  1  0
 18 36  1  0
 19 37  1  0
 21 38  1  0
 21 39  1  0
M  END
$$$$
