
     RDKit          3D

 52 53  0  0  0  0  0  0  0  0999 V2000
   -7.7455   -0.9212   -0.9353 C   0  0  0  0  0  0  0  0  0  0  0  0
   -6.4253   -0.5864   -0.2547 C   0  0  0  0  0  0  0  0  0  0  0  0
   -5.2045   -0.7293   -1.1863 C   0  0  0  0  0  0  0  0  0  0  0  0
   -5.2330    0.2661   -2.3510 C   0  0  0  0  0  0  0  0  0  0  0  0
   -3.9093   -0.5984   -0.3980 C   0  0  0  0  0  0  0  0  0  0  0  0
   -3.5621    0.5907    0.2563 C   0  0  0  0  0  0  0  0  0  0  0  0
   -2.3681    0.6909    0.9778 C   0  0  0  0  0  0  0  0  0  0  0  0
   -1.4936   -0.3999    1.0748 C   0  0  0  0  0  0  0  0  0  0  0  0
   -0.1684   -0.3282    1.8188 C   0  0  0  0  0  0  0  0  0  0  0  0
   -0.2325    0.5069    3.1024 C   0  0  0  0  0  0  0  0  0  0  0  0
    0.8498    0.1944    0.9025 N   0  0  0  0  0  0  0  0  0  0  0  0
    2.2122   -0.0419    0.9236 C   0  0  0  0  0  0  0  0  0  0  0  0
    2.9766   -1.0417    2.0183 S   0  0  0  0  0  0  0  0  0  0  0  0
    2.8186    0.6680   -0.0957 N   0  0  0  0  0  0  0  0  0  0  0  0
    4.2256    0.7475   -0.5099 C   0  0  0  0  0  0  0  0  0  0  0  0
    5.1510    1.3777    0.5378 C   0  0  0  0  0  0  0  0  0  0  0  0
    6.5694    1.5396   -0.0071 C   0  0  0  0  0  0  0  0  0  0  0  0
    7.1219    0.2208   -0.5420 C   0  0  0  0  0  0  0  0  0  0  0  0
    6.2007   -0.3944   -1.5922 C   0  0  0  0  0  0  0  0  0  0  0  0
    4.7785   -0.5709   -1.0630 C   0  0  0  0  0  0  0  0  0  0  0  0
   -1.8359   -1.5841    0.4049 C   0  0  0  0  0  0  0  0  0  0  0  0
   -3.0292   -1.6843   -0.3161 C   0  0  0  0  0  0  0  0  0  0  0  0
   -7.7185   -1.9226   -1.3768 H   0  0  0  0  0  0  0  0  0  0  0  0
   -7.9849   -0.2003   -1.7222 H   0  0  0  0  0  0  0  0  0  0  0  0
   -8.5604   -0.8943   -0.2043 H   0  0  0  0  0  0  0  0  0  0  0  0
   -6.4856    0.4322    0.1507 H   0  0  0  0  0  0  0  0  0  0  0  0
   -6.3056   -1.2572    0.6071 H   0  0  0  0  0  0  0  0  0  0  0  0
   -5.2364   -1.7357   -1.6251 H   0  0  0  0  0  0  0  0  0  0  0  0
   -5.3243    1.2990   -2.0008 H   0  0  0  0  0  0  0  0  0  0  0  0
   -6.0753    0.0652   -3.0205 H   0  0  0  0  0  0  0  0  0  0  0  0
   -4.3175    0.1961   -2.9487 H   0  0  0  0  0  0  0  0  0  0  0  0
   -4.2199    1.4556    0.2104 H   0  0  0  0  0  0  0  0  0  0  0  0
   -2.1371    1.6368    1.4594 H   0  0  0  0  0  0  0  0  0  0  0  0
    0.1091   -1.3477    2.1114 H   0  0  0  0  0  0  0  0  0  0  0  0
    0.6980    0.4248    3.6731 H   0  0  0  0  0  0  0  0  0  0  0  0
   -0.3765    1.5725    2.8914 H   0  0  0  0  0  0  0  0  0  0  0  0
   -1.0504    0.1716    3.7499 H   0  0  0  0  0  0  0  0  0  0  0  0
    0.5256    0.9414    0.3070 H   0  0  0  0  0  0  0  0  0  0  0  0
    2.1769    1.0230   -0.7892 H   0  0  0  0  0  0  0  0  0  0  0  0
    4.1967    1.4510   -1.3547 H   0  0  0  0  0  0  0  0  0  0  0  0
    5.1975    0.7681    1.4448 H   0  0  0  0  0  0  0  0  0  0  0  0
    4.7613    2.3569    0.8404 H   0  0  0  0  0  0  0  0  0  0  0  0
    6.5689    2.2875   -0.8096 H   0  0  0  0  0  0  0  0  0  0  0  0
    7.2262    1.9204    0.7828 H   0  0  0  0  0  0  0  0  0  0  0  0
    8.1138    0.3875   -0.9765 H   0  0  0  0  0  0  0  0  0  0  0  0
    7.2509   -0.4841    0.2885 H   0  0  0  0  0  0  0  0  0  0  0  0
    6.5987   -1.3649   -1.9084 H   0  0  0  0  0  0  0  0  0  0  0  0
    6.1815    0.2473   -2.4816 H   0  0  0  0  0  0  0  0  0  0  0  0
    4.7881   -1.3489   -0.2934 H   0  0  0  0  0  0  0  0  0  0  0  0
    4.1321   -0.9391   -1.8688 H   0  0  0  0  0  0  0  0  0  0  0  0
   -1.1675   -2.4425    0.4382 H   0  0  0  0  0  0  0  0  0  0  0  0
   -3.2622   -2.6218   -0.8162 H   0  0  0  0  0  0  0  0  0  0  0  0
  1  2  1  0
  2  3  1  0
  3  4  1  0
  3  5  1  0
  5  6  2  0
  6  7  1  0
  7  8  2  0
  8  9  1  0
  9 10  1  0
  9 11  1  0
 11 12  1  0
 12 13  2  0
 12 14  1  0
 14 15  1  0
 15 16  1  0
 16 17  1  0
 17 18  1  0
 18 19  1  0
 19 20  1  0
  8 21  1  0
 21 22  2  0
 22  5  1  0
 20 15  1  0
  1 23  1  0
  1 24  1  0
  1 25  1  0
  2 26  1  0
  2 27  1  0
  3 28  1  0
  4 29  1  0
  4 30  1  0
  4 31  1  0
  6 32  1  0
  7 33  1  0
  9 34  1  0
 10 35  1  0
 10 36  1  0
 10 37  1  0
 11 38  1  0
 14 39  1  0
 15 40  1  0
 16 41  1  0
 16 42  1  0
 17 43  1  0
 17 44  1  0
 18 45  1  0
 18 46  1  0
 19 47  1  0
 19 48  1  0
 20 49  1  0
 20 50  1  0
 21 51  1  0
 22 52  1  0
M  END
$$$$
