
     RDKit          3D

 37 40  0  0  0  0  0  0  0  0999 V2000
    2.9664   -0.6692   -2.3807 C   0  0  0  0  0  0  0  0  0  0  0  0
    3.2385   -0.3066   -0.9644 C   0  0  0  0  0  0  0  0  0  0  0  0
    4.5230   -0.1730   -0.5972 N   0  0  0  0  0  0  0  0  0  0  0  0
    4.4588    0.2456    0.6710 N   0  0  0  0  0  0  0  0  0  0  0  0
    5.6786    0.5009    1.3969 C   0  0  0  0  0  0  0  0  0  0  0  0
    3.1878    0.3928    1.1286 C   0  0  0  0  0  0  0  0  0  0  0  0
    2.3348    0.0202    0.1057 C   0  0  0  0  0  0  0  0  0  0  0  0
    0.9160    0.0150    0.1604 N   0  0  0  0  0  0  0  0  0  0  0  0
    0.2722    0.8599    1.0800 C   0  0  0  0  0  0  0  0  0  0  0  0
    0.8179    1.6296    1.8708 O   0  0  0  0  0  0  0  0  0  0  0  0
   -1.2126    0.8643    1.0766 C   0  0  0  0  0  0  0  0  0  0  0  0
   -1.8882    1.7112    1.9671 C   0  0  0  0  0  0  0  0  0  0  0  0
   -3.2752    1.7573    1.9709 C   0  0  0  0  0  0  0  0  0  0  0  0
   -3.9934    0.9694    1.0731 C   0  0  0  0  0  0  0  0  0  0  0  0
   -3.3470    0.1150    0.1516 C   0  0  0  0  0  0  0  0  0  0  0  0
   -4.0545   -0.6814   -0.7909 C   0  0  0  0  0  0  0  0  0  0  0  0
   -5.4615   -0.7381   -0.8206 N   0  0  0  0  0  0  0  0  0  0  0  0
   -3.3495   -1.5947   -1.5816 C   0  0  0  0  0  0  0  0  0  0  0  0
   -1.9604   -1.6525   -1.5350 C   0  0  0  0  0  0  0  0  0  0  0  0
   -1.2497   -0.8178   -0.6653 C   0  0  0  0  0  0  0  0  0  0  0  0
   -1.9242    0.0594    0.1825 C   0  0  0  0  0  0  0  0  0  0  0  0
    0.2277   -0.9199   -0.6213 C   0  0  0  0  0  0  0  0  0  0  0  0
    0.7311   -1.8650   -1.2261 O   0  0  0  0  0  0  0  0  0  0  0  0
    3.7660   -0.3052   -3.0360 H   0  0  0  0  0  0  0  0  0  0  0  0
    2.9131   -1.7556   -2.4986 H   0  0  0  0  0  0  0  0  0  0  0  0
    2.0361   -0.2175   -2.7376 H   0  0  0  0  0  0  0  0  0  0  0  0
    6.2564   -0.4258    1.4371 H   0  0  0  0  0  0  0  0  0  0  0  0
    6.2365    1.2798    0.8711 H   0  0  0  0  0  0  0  0  0  0  0  0
    5.4379    0.8340    2.4095 H   0  0  0  0  0  0  0  0  0  0  0  0
    3.0007    0.7260    2.1397 H   0  0  0  0  0  0  0  0  0  0  0  0
   -1.3341    2.3380    2.6642 H   0  0  0  0  0  0  0  0  0  0  0  0
   -3.7986    2.4056    2.6696 H   0  0  0  0  0  0  0  0  0  0  0  0
   -5.0785    1.0227    1.1147 H   0  0  0  0  0  0  0  0  0  0  0  0
   -5.8380   -1.1273   -1.6803 H   0  0  0  0  0  0  0  0  0  0  0  0
   -5.9164    0.1372   -0.5850 H   0  0  0  0  0  0  0  0  0  0  0  0
   -3.8802   -2.2707   -2.2482 H   0  0  0  0  0  0  0  0  0  0  0  0
   -1.4373   -2.3638   -2.1724 H   0  0  0  0  0  0  0  0  0  0  0  0
  1  2  1  0
  2  3  2  0
  3  4  1  0
  4  5  1  0
  4  6  1  0
  6  7  2  0
  7  8  1  0
  8  9  1  0
  9 10  2  0
  9 11  1  0
 11 12  2  0
 12 13  1  0
 13 14  2  0
 14 15  1  0
 15 16  2  0
 16 17  1  0
 16 18  1  0
 18 19  2  0
 19 20  1  0
 20 21  2  0
 20 22  1  0
 22 23  2  0
  7  2  1  0
 22  8  1  0
 21 11  1  0
 21 15  1  0
  1 24  1  0
  1 25  1  0
  1 26  1  0
  5 27  1  0
  5 28  1  0
  5 29  1  0
  6 30  1  0
 12 31  1  0
 13 32  1  0
 14 33  1  0
 17 34  1  0
 17 35  1  0
 18 36  1  0
 19 37  1  0
M  END
$$$$
