
     RDKit          3D

 45 46  0  0  0  0  0  0  0  0999 V2000
    7.2028    0.2410    0.4138 C   0  0  0  0  0  0  0  0  0  0  0  0
    6.1452    1.2202    0.8908 C   0  0  0  0  0  0  0  0  0  0  0  0
    4.9089    0.5550    1.2626 N   0  0  0  0  0  0  0  0  0  0  0  0
    4.7428    0.1892    2.5487 N   0  0  0  0  0  0  0  0  0  0  0  0
    3.5275   -0.3554    2.5703 C   0  0  0  0  0  0  0  0  0  0  0  0
    2.9000   -0.3461    1.3065 C   0  0  0  0  0  0  0  0  0  0  0  0
    1.5766   -0.8491    1.0048 C   0  0  0  0  0  0  0  0  0  0  0  0
    1.1059   -0.7364   -0.1947 N   0  0  0  0  0  0  0  0  0  0  0  0
   -0.1356   -1.2435   -0.4779 N   0  0  0  0  0  0  0  0  0  0  0  0
   -0.7621   -2.3137    0.1487 C   0  0  0  0  0  0  0  0  0  0  0  0
   -0.3500   -2.9156    1.1380 O   0  0  0  0  0  0  0  0  0  0  0  0
   -2.0548   -2.7402   -0.5550 C   0  0  0  0  0  0  0  0  0  0  0  0
   -2.5982   -1.7893   -1.4608 O   0  0  0  0  0  0  0  0  0  0  0  0
   -3.3847   -0.7924   -0.9497 C   0  0  0  0  0  0  0  0  0  0  0  0
   -4.0205   -0.0067   -1.9151 C   0  0  0  0  0  0  0  0  0  0  0  0
   -4.8342    1.0713   -1.5466 C   0  0  0  0  0  0  0  0  0  0  0  0
   -5.5341    1.8873   -2.5924 C   0  0  0  0  0  0  0  0  0  0  0  0
   -5.0273    1.3418   -0.1878 C   0  0  0  0  0  0  0  0  0  0  0  0
   -4.4043    0.5592    0.7923 C   0  0  0  0  0  0  0  0  0  0  0  0
   -4.5790    0.8882    2.2466 C   0  0  0  0  0  0  0  0  0  0  0  0
   -3.5690   -0.4988    0.4022 C   0  0  0  0  0  0  0  0  0  0  0  0
    3.8352    0.2407    0.4631 C   0  0  0  0  0  0  0  0  0  0  0  0
    3.7753    0.5166   -0.9969 C   0  0  0  0  0  0  0  0  0  0  0  0
    8.1211    0.7736    0.1479 H   0  0  0  0  0  0  0  0  0  0  0  0
    6.8630   -0.3145   -0.4664 H   0  0  0  0  0  0  0  0  0  0  0  0
    7.4448   -0.4884    1.1942 H   0  0  0  0  0  0  0  0  0  0  0  0
    6.5037    1.7693    1.7692 H   0  0  0  0  0  0  0  0  0  0  0  0
    5.9158    1.9617    0.1193 H   0  0  0  0  0  0  0  0  0  0  0  0
    3.1440   -0.7355    3.5087 H   0  0  0  0  0  0  0  0  0  0  0  0
    1.0213   -1.2762    1.8546 H   0  0  0  0  0  0  0  0  0  0  0  0
   -0.5131   -0.9486   -1.3774 H   0  0  0  0  0  0  0  0  0  0  0  0
   -1.7990   -3.6255   -1.1490 H   0  0  0  0  0  0  0  0  0  0  0  0
   -2.7964   -3.0651    0.1842 H   0  0  0  0  0  0  0  0  0  0  0  0
   -3.8760   -0.2401   -2.9680 H   0  0  0  0  0  0  0  0  0  0  0  0
   -5.6797    2.9177   -2.2514 H   0  0  0  0  0  0  0  0  0  0  0  0
   -4.9437    1.9313   -3.5136 H   0  0  0  0  0  0  0  0  0  0  0  0
   -6.5105    1.4478   -2.8183 H   0  0  0  0  0  0  0  0  0  0  0  0
   -5.6665    2.1710    0.1106 H   0  0  0  0  0  0  0  0  0  0  0  0
   -5.5549    1.3504    2.4291 H   0  0  0  0  0  0  0  0  0  0  0  0
   -3.7944    1.5790    2.5702 H   0  0  0  0  0  0  0  0  0  0  0  0
   -4.5299   -0.0176    2.8601 H   0  0  0  0  0  0  0  0  0  0  0  0
   -3.0752   -1.0700    1.1822 H   0  0  0  0  0  0  0  0  0  0  0  0
    4.7466    0.7890   -1.4174 H   0  0  0  0  0  0  0  0  0  0  0  0
    3.4340   -0.3696   -1.5415 H   0  0  0  0  0  0  0  0  0  0  0  0
    3.0787    1.3369   -1.1975 H   0  0  0  0  0  0  0  0  0  0  0  0
  1  2  1  0
  2  3  1  0
  3  4  1  0
  4  5  2  0
  5  6  1  0
  6  7  1  0
  7  8  2  3
  8  9  1  0
  9 10  1  0
 10 11  2  0
 10 12  1  0
 12 13  1  0
 13 14  1  0
 14 15  2  0
 15 16  1  0
 16 17  1  0
 16 18  2  0
 18 19  1  0
 19 20  1  0
 19 21  2  0
  6 22  2  0
 22 23  1  0
 22  3  1  0
 21 14  1  0
  1 24  1  0
  1 25  1  0
  1 26  1  0
  2 27  1  0
  2 28  1  0
  5 29  1  0
  7 30  1  0
  9 31  1  0
 12 32  1  0
 12 33  1  0
 15 34  1  0
 17 35  1  0
 17 36  1  0
 17 37  1  0
 18 38  1  0
 20 39  1  0
 20 40  1  0
 20 41  1  0
 21 42  1  0
 23 43  1  0
 23 44  1  0
 23 45  1  0
M  END
$$$$
