
     RDKit          3D

 55 57  0  0  0  0  0  0  0  0999 V2000
    1.7042    0.9242   -3.1427 C   0  0  0  0  0  0  0  0  0  0  0  0
    0.1951    0.8304   -3.2789 C   0  0  0  0  0  0  0  0  0  0  0  0
   -0.3683   -0.2159   -2.4919 O   0  0  0  0  0  0  0  0  0  0  0  0
   -0.3853    0.0455   -1.0821 C   0  0  0  0  0  0  0  0  0  0  0  0
    0.8798   -0.3526   -0.5406 O   0  0  0  0  0  0  0  0  0  0  0  0
    0.9386   -0.5425    0.8239 C   0  0  0  0  0  0  0  0  0  0  0  0
    2.3093   -0.6710    1.4470 C   0  0  0  0  0  0  0  0  0  0  0  0
    2.4543   -0.7789    2.6581 O   0  0  0  0  0  0  0  0  0  0  0  0
    3.2953   -0.6451    0.4814 N   0  0  0  0  0  0  0  0  0  0  0  0
    4.6885   -0.7194    0.6598 C   0  0  0  0  0  0  0  0  0  0  0  0
    5.3102   -0.8167    1.9055 C   0  0  0  0  0  0  0  0  0  0  0  0
    6.7044   -0.8818    1.9977 C   0  0  0  0  0  0  0  0  0  0  0  0
    7.4868   -0.8507    0.8458 C   0  0  0  0  0  0  0  0  0  0  0  0
    6.8761   -0.7552   -0.4014 C   0  0  0  0  0  0  0  0  0  0  0  0
    5.4835   -0.6883   -0.4934 C   0  0  0  0  0  0  0  0  0  0  0  0
   -0.1431   -0.6275    1.6130 C   0  0  0  0  0  0  0  0  0  0  0  0
   -1.5488   -0.5640    1.0849 C   0  0  0  0  0  0  0  0  0  0  0  0
   -2.2724    0.6722    1.6162 C   0  0  0  0  0  0  0  0  0  0  0  0
   -3.5183    0.5262    2.2520 C   0  0  0  0  0  0  0  0  0  0  0  0
   -4.2144    1.6354    2.7395 C   0  0  0  0  0  0  0  0  0  0  0  0
   -3.6665    2.9069    2.6062 C   0  0  0  0  0  0  0  0  0  0  0  0
   -4.6049    4.4095    3.2639 Br  0  0  0  0  0  0  0  0  0  0  0  0
   -2.4269    3.0767    1.9979 C   0  0  0  0  0  0  0  0  0  0  0  0
   -1.7328    1.9654    1.5097 C   0  0  0  0  0  0  0  0  0  0  0  0
   -1.5508   -0.7485   -0.4582 C   0  0  0  0  0  0  0  0  0  0  0  0
   -2.9020   -0.4553   -1.1510 C   0  0  0  0  0  0  0  0  0  0  0  0
   -3.9912   -1.4763   -0.7960 C   0  0  0  0  0  0  0  0  0  0  0  0
   -5.3358   -1.1243   -1.4257 C   0  0  0  0  0  0  0  0  0  0  0  0
   -5.2464   -1.1040   -2.8427 O   0  0  0  0  0  0  0  0  0  0  0  0
    2.1151    1.6107   -3.8886 H   0  0  0  0  0  0  0  0  0  0  0  0
    2.1682   -0.0588   -3.2705 H   0  0  0  0  0  0  0  0  0  0  0  0
    1.9907    1.2956   -2.1546 H   0  0  0  0  0  0  0  0  0  0  0  0
   -0.2856    1.7863   -3.0434 H   0  0  0  0  0  0  0  0  0  0  0  0
   -0.0474    0.5990   -4.3213 H   0  0  0  0  0  0  0  0  0  0  0  0
   -0.5240    1.1197   -0.9192 H   0  0  0  0  0  0  0  0  0  0  0  0
    2.9577   -0.5749   -0.4726 H   0  0  0  0  0  0  0  0  0  0  0  0
    4.7379   -0.8433    2.8277 H   0  0  0  0  0  0  0  0  0  0  0  0
    7.1753   -0.9567    2.9747 H   0  0  0  0  0  0  0  0  0  0  0  0
    8.5697   -0.9024    0.9220 H   0  0  0  0  0  0  0  0  0  0  0  0
    7.4824   -0.7316   -1.3030 H   0  0  0  0  0  0  0  0  0  0  0  0
    5.0303   -0.6145   -1.4785 H   0  0  0  0  0  0  0  0  0  0  0  0
   -0.0258   -0.7720    2.6862 H   0  0  0  0  0  0  0  0  0  0  0  0
   -2.0583   -1.4442    1.5025 H   0  0  0  0  0  0  0  0  0  0  0  0
   -3.9609   -0.4594    2.3809 H   0  0  0  0  0  0  0  0  0  0  0  0
   -5.1773    1.4948    3.2237 H   0  0  0  0  0  0  0  0  0  0  0  0
   -1.9867    4.0662    1.9052 H   0  0  0  0  0  0  0  0  0  0  0  0
   -0.7544    2.1307    1.0662 H   0  0  0  0  0  0  0  0  0  0  0  0
   -1.3267   -1.8102   -0.6511 H   0  0  0  0  0  0  0  0  0  0  0  0
   -3.2413    0.5599   -0.9161 H   0  0  0  0  0  0  0  0  0  0  0  0
   -2.7673   -0.4806   -2.2388 H   0  0  0  0  0  0  0  0  0  0  0  0
   -4.1214   -1.5514    0.2862 H   0  0  0  0  0  0  0  0  0  0  0  0
   -3.6726   -2.4631   -1.1540 H   0  0  0  0  0  0  0  0  0  0  0  0
   -6.0952   -1.8593   -1.1401 H   0  0  0  0  0  0  0  0  0  0  0  0
   -5.6756   -0.1395   -1.0905 H   0  0  0  0  0  0  0  0  0  0  0  0
   -4.9249   -1.9757   -3.1308 H   0  0  0  0  0  0  0  0  0  0  0  0
  1  2  1  0
  2  3  1  0
  3  4  1  0
  4  5  1  0
  5  6  1  0
  6  7  1  0
  7  8  2  0
  7  9  1  0
  9 10  1  0
 10 11  2  0
 11 12  1  0
 12 13  2  0
 13 14  1  0
 14 15  2  0
  6 16  2  0
 16 17  1  0
 17 18  1  0
 18 19  2  0
 19 20  1  0
 20 21  2  0
 21 22  1  0
 21 23  1  0
 23 24  2  0
 17 25  1  0
 25 26  1  0
 26 27  1  0
 27 28  1  0
 28 29  1  0
 25  4  1  0
 15 10  1  0
 24 18  1  0
  1 30  1  0
  1 31  1  0
  1 32  1  0
  2 33  1  0
  2 34  1  0
  4 35  1  0
  9 36  1  0
 11 37  1  0
 12 38  1  0
 13 39  1  0
 14 40  1  0
 15 41  1  0
 16 42  1  0
 17 43  1  0
 19 44  1  0
 20 45  1  0
 23 46  1  0
 24 47  1  0
 25 48  1  0
 26 49  1  0
 26 50  1  0
 27 51  1  0
 27 52  1  0
 28 53  1  0
 28 54  1  0
 29 55  1  0
M  END
$$$$
