
     RDKit          3D

 54 57  0  0  0  0  0  0  0  0999 V2000
   -2.2047    5.6201   -1.8521 C   0  0  0  0  0  0  0  0  0  0  0  0
   -2.2102    5.2492   -0.4791 O   0  0  0  0  0  0  0  0  0  0  0  0
   -1.7194    4.0098   -0.1740 C   0  0  0  0  0  0  0  0  0  0  0  0
   -1.8022    3.6651    1.1762 C   0  0  0  0  0  0  0  0  0  0  0  0
   -1.3387    2.4265    1.6277 C   0  0  0  0  0  0  0  0  0  0  0  0
   -0.7829    1.5028    0.7301 C   0  0  0  0  0  0  0  0  0  0  0  0
   -0.2617    0.1721    1.2528 C   0  0  0  0  0  0  0  0  0  0  0  0
    1.2423    0.2453    1.5241 C   0  0  0  0  0  0  0  0  0  0  0  0
    1.7595   -0.6485    0.4305 C   0  0  0  0  0  0  0  0  0  0  0  0
    3.2089   -0.7844    0.1487 C   0  0  0  0  0  0  0  0  0  0  0  0
    3.6117   -1.5825   -0.9289 C   0  0  0  0  0  0  0  0  0  0  0  0
    4.9659   -1.7338   -1.2197 C   0  0  0  0  0  0  0  0  0  0  0  0
    5.9186   -1.0881   -0.4332 C   0  0  0  0  0  0  0  0  0  0  0  0
    5.5303   -0.2884    0.6451 C   0  0  0  0  0  0  0  0  0  0  0  0
    6.5684    0.2822    1.3294 O   0  0  0  0  0  0  0  0  0  0  0  0
    6.2397    1.1491    2.4072 C   0  0  0  0  0  0  0  0  0  0  0  0
    4.1721   -0.1383    0.9372 C   0  0  0  0  0  0  0  0  0  0  0  0
    0.8467   -1.3063   -0.2182 N   0  0  0  0  0  0  0  0  0  0  0  0
   -0.3641   -0.9213    0.2832 N   0  0  0  0  0  0  0  0  0  0  0  0
   -1.5369   -1.5605   -0.1143 C   0  0  0  0  0  0  0  0  0  0  0  0
   -2.7968   -1.2181    0.4056 C   0  0  0  0  0  0  0  0  0  0  0  0
   -3.9655   -1.8724   -0.0041 C   0  0  0  0  0  0  0  0  0  0  0  0
   -3.8868   -2.8957   -0.9468 C   0  0  0  0  0  0  0  0  0  0  0  0
   -5.3620   -3.7277   -1.4638 S   0  0  0  0  0  6  0  0  0  0  0  0
   -5.4327   -4.9965   -0.3565 N   0  0  0  0  0  0  0  0  0  0  0  0
   -6.4917   -2.8635   -1.2176 O   0  0  0  0  0  0  0  0  0  0  0  0
   -5.1195   -4.3448   -2.7475 O   0  0  0  0  0  0  0  0  0  0  0  0
   -2.6592   -3.2532   -1.4968 C   0  0  0  0  0  0  0  0  0  0  0  0
   -1.5021   -2.5902   -1.0746 C   0  0  0  0  0  0  0  0  0  0  0  0
   -0.6925    1.8633   -0.6235 C   0  0  0  0  0  0  0  0  0  0  0  0
   -1.1606    3.1036   -1.0729 C   0  0  0  0  0  0  0  0  0  0  0  0
   -2.6514    6.6160   -1.9308 H   0  0  0  0  0  0  0  0  0  0  0  0
   -1.1822    5.6826   -2.2391 H   0  0  0  0  0  0  0  0  0  0  0  0
   -2.8135    4.9339   -2.4501 H   0  0  0  0  0  0  0  0  0  0  0  0
   -2.2353    4.3692    1.8828 H   0  0  0  0  0  0  0  0  0  0  0  0
   -1.4196    2.1922    2.6869 H   0  0  0  0  0  0  0  0  0  0  0  0
   -0.7850   -0.0933    2.1804 H   0  0  0  0  0  0  0  0  0  0  0  0
    1.6602    1.2540    1.4642 H   0  0  0  0  0  0  0  0  0  0  0  0
    1.4886   -0.2055    2.4915 H   0  0  0  0  0  0  0  0  0  0  0  0
    2.8742   -2.0895   -1.5480 H   0  0  0  0  0  0  0  0  0  0  0  0
    5.2787   -2.3531   -2.0564 H   0  0  0  0  0  0  0  0  0  0  0  0
    6.9755   -1.2081   -0.6616 H   0  0  0  0  0  0  0  0  0  0  0  0
    7.1754    1.5327    2.8251 H   0  0  0  0  0  0  0  0  0  0  0  0
    5.6531    2.0064    2.0604 H   0  0  0  0  0  0  0  0  0  0  0  0
    5.7167    0.6080    3.2030 H   0  0  0  0  0  0  0  0  0  0  0  0
    3.8589    0.4716    1.7752 H   0  0  0  0  0  0  0  0  0  0  0  0
   -2.8989   -0.4215    1.1371 H   0  0  0  0  0  0  0  0  0  0  0  0
   -4.9245   -1.5710    0.4128 H   0  0  0  0  0  0  0  0  0  0  0  0
   -5.3235   -5.8773   -0.8623 H   0  0  0  0  0  0  0  0  0  0  0  0
   -4.7527   -4.9049    0.3975 H   0  0  0  0  0  0  0  0  0  0  0  0
   -2.5845   -4.0334   -2.2505 H   0  0  0  0  0  0  0  0  0  0  0  0
   -0.5486   -2.8798   -1.5132 H   0  0  0  0  0  0  0  0  0  0  0  0
   -0.2631    1.1712   -1.3474 H   0  0  0  0  0  0  0  0  0  0  0  0
   -1.0727    3.3250   -2.1313 H   0  0  0  0  0  0  0  0  0  0  0  0
  1  2  1  0
  2  3  1  0
  3  4  2  0
  4  5  1  0
  5  6  2  0
  6  7  1  0
  7  8  1  0
  8  9  1  0
  9 10  1  0
 10 11  2  0
 11 12  1  0
 12 13  2  0
 13 14  1  0
 14 15  1  0
 15 16  1  0
 14 17  2  0
  9 18  2  0
 18 19  1  0
 19 20  1  0
 20 21  2  0
 21 22  1  0
 22 23  2  0
 23 24  1  0
 24 25  1  0
 24 26  2  0
 24 27  2  0
 23 28  1  0
 28 29  2  0
  6 30  1  0
 30 31  2  0
 31  3  1  0
 19  7  1  0
 29 20  1  0
 17 10  1  0
  1 32  1  0
  1 33  1  0
  1 34  1  0
  4 35  1  0
  5 36  1  0
  7 37  1  0
  8 38  1  0
  8 39  1  0
 11 40  1  0
 12 41  1  0
 13 42  1  0
 16 43  1  0
 16 44  1  0
 16 45  1  0
 17 46  1  0
 21 47  1  0
 22 48  1  0
 25 49  1  0
 25 50  1  0
 28 51  1  0
 29 52  1  0
 30 53  1  0
 31 54  1  0
M  END
$$$$
