
     RDKit          3D

 95 98  0  0  0  0  0  0  0  0999 V2000
   -5.5356   -5.0721    1.9420 C   0  0  0  0  0  0  0  0  0  0  0  0
   -4.7023   -4.1768    1.3999 C   0  0  0  0  0  0  0  0  0  0  0  0
   -3.8902   -3.1878    2.1843 C   0  0  0  0  0  0  0  0  0  0  0  0
   -4.3672   -1.7538    1.9165 C   0  0  0  0  0  0  0  0  0  0  0  0
   -3.5824   -0.7072    2.7311 C   0  0  0  0  0  0  0  0  0  0  0  0
   -4.0874    0.7238    2.4979 C   0  0  0  0  0  0  0  0  0  0  0  0
   -5.4328    0.9931    3.1318 C   0  0  0  0  0  0  0  0  0  0  0  0
   -5.5437    1.1641    4.5220 C   0  0  0  0  0  0  0  0  0  0  0  0
   -6.7907    1.3845    5.1080 C   0  0  0  0  0  0  0  0  0  0  0  0
   -7.9250    1.4364    4.3072 C   0  0  0  0  0  0  0  0  0  0  0  0
   -9.1207    1.6399    4.8777 F   0  0  0  0  0  0  0  0  0  0  0  0
   -7.8383    1.2786    2.9305 C   0  0  0  0  0  0  0  0  0  0  0  0
   -6.5914    1.0568    2.3414 C   0  0  0  0  0  0  0  0  0  0  0  0
   -2.0979   -0.7512    2.4241 C   0  0  0  0  0  0  0  0  0  0  0  0
   -1.2379   -0.8499    3.2876 O   0  0  0  0  0  0  0  0  0  0  0  0
   -1.8602   -0.6880    1.0885 O   0  0  0  0  0  0  0  0  0  0  0  0
   -0.5021   -0.9089    0.6756 C   0  0  0  0  0  0  0  0  0  0  0  0
   -0.1736   -0.0553   -0.5603 C   0  0  0  0  0  0  0  0  0  0  0  0
    0.3087    1.3593   -0.1769 C   0  0  0  0  0  0  0  0  0  0  0  0
   -0.7378    2.2556    0.3989 C   0  0  0  0  0  0  0  0  0  0  0  0
   -0.7967    2.7253    1.6964 C   0  0  0  0  0  0  0  0  0  0  0  0
   -1.8623    3.5792    1.7967 N   0  0  0  0  0  0  0  0  0  0  0  0
   -2.5273    3.6523    0.5935 C   0  0  0  0  0  0  0  0  0  0  0  0
   -3.6708    4.3792    0.2370 C   0  0  0  0  0  0  0  0  0  0  0  0
   -4.1174    4.2734   -1.0840 C   0  0  0  0  0  0  0  0  0  0  0  0
   -3.4433    3.4807   -2.0080 C   0  0  0  0  0  0  0  0  0  0  0  0
   -2.3060    2.7568   -1.6328 C   0  0  0  0  0  0  0  0  0  0  0  0
   -1.8382    2.8396   -0.3055 C   0  0  0  0  0  0  0  0  0  0  0  0
    0.8596   -0.7187   -1.3682 N   0  0  0  0  0  0  0  0  0  0  0  0
    0.9958   -0.4582   -2.7142 C   0  0  0  0  0  0  0  0  0  0  0  0
    0.1627    0.1814   -3.3505 O   0  0  0  0  0  0  0  0  0  0  0  0
    2.2645   -0.9946   -3.3653 C   0  0  0  0  0  0  0  0  0  0  0  0
    2.2416   -2.5291   -3.5064 C   0  0  0  0  0  0  0  0  0  0  0  0
    2.4979   -3.3226   -2.2502 C   0  0  0  0  0  0  0  0  0  0  0  0
    3.6773   -3.8767   -1.9520 C   0  0  0  0  0  0  0  0  0  0  0  0
    3.4854   -0.4149   -2.6351 C   0  0  0  0  0  0  0  0  0  0  0  0
    4.7917   -0.5323   -3.4040 C   0  0  0  0  0  0  0  0  0  0  0  0
    4.8358   -1.0565   -4.5185 O   0  0  0  0  0  0  0  0  0  0  0  0
    5.9387   -0.0352   -2.7795 N   0  0  0  0  0  0  0  0  0  0  0  0
    7.1849   -0.0642   -3.5548 C   0  0  0  0  0  0  0  0  0  0  0  0
    7.2716    1.0669   -4.5869 C   0  0  0  0  0  0  0  0  0  0  0  0
    7.3610    2.3312   -3.9297 O   0  0  0  0  0  0  0  0  0  0  0  0
    5.9101    0.8940   -1.6378 C   0  0  0  0  0  0  0  0  0  0  0  0
    5.5066    0.2502   -0.3293 C   0  0  0  0  0  0  0  0  0  0  0  0
    6.0999   -0.9466    0.0962 C   0  0  0  0  0  0  0  0  0  0  0  0
    5.7179   -1.5386    1.3031 C   0  0  0  0  0  0  0  0  0  0  0  0
    4.7447   -0.9334    2.0987 C   0  0  0  0  0  0  0  0  0  0  0  0
    4.1564    0.2662    1.6960 C   0  0  0  0  0  0  0  0  0  0  0  0
    4.5406    0.8573    0.4920 C   0  0  0  0  0  0  0  0  0  0  0  0
   -6.0924   -5.7622    1.3135 H   0  0  0  0  0  0  0  0  0  0  0  0
   -5.6850   -5.1367    3.0159 H   0  0  0  0  0  0  0  0  0  0  0  0
   -4.5877   -4.1501    0.3167 H   0  0  0  0  0  0  0  0  0  0  0  0
   -3.9373   -3.4047    3.2596 H   0  0  0  0  0  0  0  0  0  0  0  0
   -2.8427   -3.3063    1.8801 H   0  0  0  0  0  0  0  0  0  0  0  0
   -4.2857   -1.5334    0.8442 H   0  0  0  0  0  0  0  0  0  0  0  0
   -5.4341   -1.6849    2.1685 H   0  0  0  0  0  0  0  0  0  0  0  0
   -3.6791   -0.9602    3.7936 H   0  0  0  0  0  0  0  0  0  0  0  0
   -4.1308    0.9376    1.4214 H   0  0  0  0  0  0  0  0  0  0  0  0
   -3.3758    1.4461    2.9166 H   0  0  0  0  0  0  0  0  0  0  0  0
   -4.6619    1.1153    5.1611 H   0  0  0  0  0  0  0  0  0  0  0  0
   -6.8875    1.5093    6.1829 H   0  0  0  0  0  0  0  0  0  0  0  0
   -8.7398    1.3317    2.3268 H   0  0  0  0  0  0  0  0  0  0  0  0
   -6.5312    0.9320    1.2619 H   0  0  0  0  0  0  0  0  0  0  0  0
    0.2277   -0.7343    1.4778 H   0  0  0  0  0  0  0  0  0  0  0  0
   -0.4407   -1.9721    0.4060 H   0  0  0  0  0  0  0  0  0  0  0  0
   -1.0721    0.0250   -1.1833 H   0  0  0  0  0  0  0  0  0  0  0  0
    0.7182    1.8599   -1.0641 H   0  0  0  0  0  0  0  0  0  0  0  0
    1.1502    1.2839    0.5222 H   0  0  0  0  0  0  0  0  0  0  0  0
   -0.1608    2.5413    2.5518 H   0  0  0  0  0  0  0  0  0  0  0  0
   -2.1325    4.0795    2.6317 H   0  0  0  0  0  0  0  0  0  0  0  0
   -4.1896    5.0083    0.9532 H   0  0  0  0  0  0  0  0  0  0  0  0
   -5.0023    4.8265   -1.3960 H   0  0  0  0  0  0  0  0  0  0  0  0
   -3.8025    3.4183   -3.0312 H   0  0  0  0  0  0  0  0  0  0  0  0
   -1.7919    2.1384   -2.3649 H   0  0  0  0  0  0  0  0  0  0  0  0
    1.6506   -1.1193   -0.8756 H   0  0  0  0  0  0  0  0  0  0  0  0
    2.2550   -0.5850   -4.3859 H   0  0  0  0  0  0  0  0  0  0  0  0
    1.2683   -2.8430   -3.9043 H   0  0  0  0  0  0  0  0  0  0  0  0
    2.9746   -2.8228   -4.2673 H   0  0  0  0  0  0  0  0  0  0  0  0
    1.6576   -3.4693   -1.5730 H   0  0  0  0  0  0  0  0  0  0  0  0
    3.8148   -4.4534   -1.0423 H   0  0  0  0  0  0  0  0  0  0  0  0
    4.5326   -3.7748   -2.6136 H   0  0  0  0  0  0  0  0  0  0  0  0
    3.6140   -0.9157   -1.6745 H   0  0  0  0  0  0  0  0  0  0  0  0
    3.3003    0.6489   -2.4467 H   0  0  0  0  0  0  0  0  0  0  0  0
    8.0243   -0.0202   -2.8490 H   0  0  0  0  0  0  0  0  0  0  0  0
    7.2462   -1.0260   -4.0755 H   0  0  0  0  0  0  0  0  0  0  0  0
    8.1695    0.9419   -5.1986 H   0  0  0  0  0  0  0  0  0  0  0  0
    6.3943    1.0851   -5.2432 H   0  0  0  0  0  0  0  0  0  0  0  0
    7.3701    3.0057   -4.6331 H   0  0  0  0  0  0  0  0  0  0  0  0
    6.9058    1.3297   -1.4870 H   0  0  0  0  0  0  0  0  0  0  0  0
    5.2315    1.7137   -1.8971 H   0  0  0  0  0  0  0  0  0  0  0  0
    6.8602   -1.4299   -0.5138 H   0  0  0  0  0  0  0  0  0  0  0  0
    6.1851   -2.4716    1.6214 H   0  0  0  0  0  0  0  0  0  0  0  0
    4.4568   -1.3906    3.0431 H   0  0  0  0  0  0  0  0  0  0  0  0
    3.4073    0.7397    2.3257 H   0  0  0  0  0  0  0  0  0  0  0  0
    4.0743    1.7956    0.1993 H   0  0  0  0  0  0  0  0  0  0  0  0
  1  2  2  0
  2  3  1  0
  3  4  1  0
  4  5  1  0
  5  6  1  0
  6  7  1  0
  7  8  2  0
  8  9  1  0
  9 10  2  0
 10 11  1  0
 10 12  1  0
 12 13  2  0
  5 14  1  0
 14 15  2  0
 14 16  1  0
 16 17  1  0
 17 18  1  0
 18 19  1  0
 19 20  1  0
 20 21  2  0
 21 22  1  0
 22 23  1  0
 23 24  2  0
 24 25  1  0
 25 26  2  0
 26 27  1  0
 27 28  2  0
 18 29  1  0
 29 30  1  0
 30 31  2  0
 30 32  1  0
 32 33  1  0
 33 34  1  0
 34 35  2  0
 32 36  1  0
 36 37  1  0
 37 38  2  0
 37 39  1  0
 39 40  1  0
 40 41  1  0
 41 42  1  0
 39 43  1  0
 43 44  1  0
 44 45  2  0
 45 46  1  0
 46 47  2  0
 47 48  1  0
 48 49  2  0
 13  7  1  0
 28 20  1  0
 49 44  1  0
 28 23  1  0
  1 50  1  0
  1 51  1  0
  2 52  1  0
  3 53  1  0
  3 54  1  0
  4 55  1  0
  4 56  1  0
  5 57  1  0
  6 58  1  0
  6 59  1  0
  8 60  1  0
  9 61  1  0
 12 62  1  0
 13 63  1  0
 17 64  1  0
 17 65  1  0
 18 66  1  0
 19 67  1  0
 19 68  1  0
 21 69  1  0
 22 70  1  0
 24 71  1  0
 25 72  1  0
 26 73  1  0
 27 74  1  0
 29 75  1  0
 32 76  1  0
 33 77  1  0
 33 78  1  0
 34 79  1  0
 35 80  1  0
 35 81  1  0
 36 82  1  0
 36 83  1  0
 40 84  1  0
 40 85  1  0
 41 86  1  0
 41 87  1  0
 42 88  1  0
 43 89  1  0
 43 90  1  0
 45 91  1  0
 46 92  1  0
 47 93  1  0
 48 94  1  0
 49 95  1  0
M  END
$$$$
