
     RDKit          3D

 51 54  0  0  0  0  0  0  0  0999 V2000
   -5.5939   -2.6511    0.2797 C   0  0  0  0  0  0  0  0  0  0  0  0
   -5.5882   -1.1231    0.3376 C   0  0  0  0  0  0  0  0  0  0  0  0
   -6.2657   -0.6097    1.6095 C   0  0  0  0  0  0  0  0  0  0  0  0
   -4.2327   -0.5910    0.1817 N   0  0  0  0  0  0  0  0  0  0  0  0
   -3.2346   -0.7236    1.1147 C   0  0  0  0  0  0  0  0  0  0  0  0
   -2.0988   -0.0903    0.6491 C   0  0  0  0  0  0  0  0  0  0  0  0
   -0.8600   -0.0273    1.4024 C   0  0  0  0  0  0  0  0  0  0  0  0
    0.1571    0.6102    0.9184 N   0  0  0  0  0  0  0  0  0  0  0  0
    1.3229    0.6281    1.6449 N   0  0  0  0  0  0  0  0  0  0  0  0
    1.8139   -0.4382    2.3947 C   0  0  0  0  0  0  0  0  0  0  0  0
    1.2162   -1.4805    2.6546 O   0  0  0  0  0  0  0  0  0  0  0  0
    3.2156   -0.1658    2.9434 C   0  0  0  0  0  0  0  0  0  0  0  0
    4.0521    0.5929    2.0851 O   0  0  0  0  0  0  0  0  0  0  0  0
    4.4823    0.0204    0.9062 C   0  0  0  0  0  0  0  0  0  0  0  0
    4.5149   -1.3628    0.6790 C   0  0  0  0  0  0  0  0  0  0  0  0
    4.9811   -1.8598   -0.5352 C   0  0  0  0  0  0  0  0  0  0  0  0
    5.4204   -0.9809   -1.5211 C   0  0  0  0  0  0  0  0  0  0  0  0
    5.3894    0.4060   -1.3022 C   0  0  0  0  0  0  0  0  0  0  0  0
    5.8236    1.3011   -2.2914 C   0  0  0  0  0  0  0  0  0  0  0  0
    5.7753    2.6694   -2.0603 C   0  0  0  0  0  0  0  0  0  0  0  0
    5.2871    3.0992   -0.8441 C   0  0  0  0  0  0  0  0  0  0  0  0
    4.8597    2.2675    0.1312 N   0  0  0  0  0  0  0  0  0  0  0  0
    4.9144    0.9299   -0.0788 C   0  0  0  0  0  0  0  0  0  0  0  0
   -2.4212    0.4297   -0.6454 C   0  0  0  0  0  0  0  0  0  0  0  0
   -1.6944    1.1468   -1.6229 C   0  0  0  0  0  0  0  0  0  0  0  0
   -2.3058    1.5128   -2.8254 C   0  0  0  0  0  0  0  0  0  0  0  0
   -3.6317    1.1779   -3.0692 C   0  0  0  0  0  0  0  0  0  0  0  0
   -4.3779    0.4698   -2.1234 C   0  0  0  0  0  0  0  0  0  0  0  0
   -3.7573    0.1025   -0.9155 C   0  0  0  0  0  0  0  0  0  0  0  0
   -5.1303   -3.0085   -0.6459 H   0  0  0  0  0  0  0  0  0  0  0  0
   -5.0430   -3.0892    1.1185 H   0  0  0  0  0  0  0  0  0  0  0  0
   -6.6192   -3.0355    0.3134 H   0  0  0  0  0  0  0  0  0  0  0  0
   -6.1784   -0.7551   -0.5075 H   0  0  0  0  0  0  0  0  0  0  0  0
   -5.7789   -0.9921    2.5126 H   0  0  0  0  0  0  0  0  0  0  0  0
   -6.2403    0.4835    1.6536 H   0  0  0  0  0  0  0  0  0  0  0  0
   -7.3149   -0.9234    1.6400 H   0  0  0  0  0  0  0  0  0  0  0  0
   -3.4058   -1.2572    2.0410 H   0  0  0  0  0  0  0  0  0  0  0  0
   -0.8668   -0.5107    2.3933 H   0  0  0  0  0  0  0  0  0  0  0  0
    2.0220    1.2795    1.2821 H   0  0  0  0  0  0  0  0  0  0  0  0
    3.6972   -1.1000    3.2516 H   0  0  0  0  0  0  0  0  0  0  0  0
    3.0793    0.4218    3.8589 H   0  0  0  0  0  0  0  0  0  0  0  0
    4.1930   -2.0827    1.4269 H   0  0  0  0  0  0  0  0  0  0  0  0
    5.0045   -2.9336   -0.7104 H   0  0  0  0  0  0  0  0  0  0  0  0
    5.7833   -1.3842   -2.4644 H   0  0  0  0  0  0  0  0  0  0  0  0
    6.1993    0.9367   -3.2446 H   0  0  0  0  0  0  0  0  0  0  0  0
    6.1081    3.3795   -2.8090 H   0  0  0  0  0  0  0  0  0  0  0  0
    5.2227    4.1580   -0.6085 H   0  0  0  0  0  0  0  0  0  0  0  0
   -0.6551    1.4121   -1.4453 H   0  0  0  0  0  0  0  0  0  0  0  0
   -1.7354    2.0603   -3.5720 H   0  0  0  0  0  0  0  0  0  0  0  0
   -4.0949    1.4671   -4.0096 H   0  0  0  0  0  0  0  0  0  0  0  0
   -5.4104    0.2134   -2.3366 H   0  0  0  0  0  0  0  0  0  0  0  0
  1  2  1  0
  2  3  1  0
  2  4  1  0
  4  5  1  0
  5  6  2  0
  6  7  1  0
  7  8  2  3
  8  9  1  0
  9 10  1  0
 10 11  2  0
 10 12  1  0
 12 13  1  0
 13 14  1  0
 14 15  2  0
 15 16  1  0
 16 17  2  0
 17 18  1  0
 18 19  2  0
 19 20  1  0
 20 21  2  0
 21 22  1  0
 22 23  2  0
  6 24  1  0
 24 25  2  0
 25 26  1  0
 26 27  2  0
 27 28  1  0
 28 29  2  0
 29  4  1  0
 23 14  1  0
 29 24  1  0
 23 18  1  0
  1 30  1  0
  1 31  1  0
  1 32  1  0
  2 33  1  0
  3 34  1  0
  3 35  1  0
  3 36  1  0
  5 37  1  0
  7 38  1  0
  9 39  1  0
 12 40  1  0
 12 41  1  0
 15 42  1  0
 16 43  1  0
 17 44  1  0
 19 45  1  0
 20 46  1  0
 21 47  1  0
 25 48  1  0
 26 49  1  0
 27 50  1  0
 28 51  1  0
M  END
$$$$
