
     RDKit          3D

 66 68  0  0  0  0  0  0  0  0999 V2000
   -6.0586    2.1324    3.9276 C   0  0  0  0  0  0  0  0  0  0  0  0
   -6.7211    1.4926    2.7194 C   0  0  0  0  0  0  0  0  0  0  0  0
   -5.7480    0.6811    2.0653 O   0  0  0  0  0  0  0  0  0  0  0  0
   -6.1636   -0.0701    0.9932 C   0  0  0  0  0  0  0  0  0  0  0  0
   -7.4453   -0.0113    0.4336 C   0  0  0  0  0  0  0  0  0  0  0  0
   -7.7863   -0.8299   -0.6472 C   0  0  0  0  0  0  0  0  0  0  0  0
   -6.8536   -1.7172   -1.1745 C   0  0  0  0  0  0  0  0  0  0  0  0
   -5.5715   -1.7787   -0.6318 C   0  0  0  0  0  0  0  0  0  0  0  0
   -5.2086   -0.9464    0.4387 C   0  0  0  0  0  0  0  0  0  0  0  0
   -3.8546   -1.0483    1.0112 C   0  0  0  0  0  0  0  0  0  0  0  0
   -2.6707   -0.8635    0.4048 C   0  0  0  0  0  0  0  0  0  0  0  0
   -2.4978   -0.4620   -0.9527 C   0  0  0  0  0  0  0  0  0  0  0  0
   -3.4439    0.2330   -1.6753 O   0  0  0  0  0  0  0  0  0  0  0  0
   -3.0043    0.4894   -2.9539 N   0  0  0  0  0  0  0  0  0  0  0  0
   -1.7845   -0.0441   -3.0398 C   0  0  0  0  0  0  0  0  0  0  0  0
   -1.0355    0.0491   -4.3153 C   0  0  0  0  0  0  0  0  0  0  0  0
   -1.4163   -0.6224   -1.8061 C   0  0  0  0  0  0  0  0  0  0  0  0
    0.0623   -1.3837   -1.4204 S   0  0  0  0  0  6  0  0  0  0  0  0
    0.9208   -1.1886   -2.5655 O   0  0  0  0  0  0  0  0  0  0  0  0
   -0.3266   -2.7096   -0.9909 O   0  0  0  0  0  0  0  0  0  0  0  0
    0.7577   -0.5813   -0.0899 N   0  0  0  0  0  0  0  0  0  0  0  0
    1.0443    0.8678   -0.2305 C   0  0  0  0  0  0  0  0  0  0  0  0
    2.4149    1.1283   -0.8399 C   0  0  0  0  0  0  0  0  0  0  0  0
    3.5210    0.3938   -0.0673 C   0  0  0  0  0  0  0  0  0  0  0  0
    4.8831    0.6054   -0.7289 C   0  0  0  0  0  0  0  0  0  0  0  0
    4.9530    0.9343   -1.9142 O   0  0  0  0  0  0  0  0  0  0  0  0
    6.0281    0.3768    0.0313 N   0  0  0  0  0  0  0  0  0  0  0  0
    6.0604    0.1669    1.4810 C   0  0  0  0  0  0  0  0  0  0  0  0
    6.1891    1.4817    2.2370 C   0  0  0  0  0  0  0  0  0  0  0  0
    7.3247    0.4821   -0.6433 C   0  0  0  0  0  0  0  0  0  0  0  0
    7.7546   -0.8565   -1.2240 C   0  0  0  0  0  0  0  0  0  0  0  0
    3.1859   -1.1019   -0.0119 C   0  0  0  0  0  0  0  0  0  0  0  0
    1.8218   -1.3238    0.6267 C   0  0  0  0  0  0  0  0  0  0  0  0
   -5.2063    2.7481    3.6193 H   0  0  0  0  0  0  0  0  0  0  0  0
   -6.7677    2.7602    4.4756 H   0  0  0  0  0  0  0  0  0  0  0  0
   -5.6681    1.3641    4.6053 H   0  0  0  0  0  0  0  0  0  0  0  0
   -7.0738    2.2801    2.0429 H   0  0  0  0  0  0  0  0  0  0  0  0
   -7.5641    0.8801    3.0602 H   0  0  0  0  0  0  0  0  0  0  0  0
   -8.2041    0.6656    0.8100 H   0  0  0  0  0  0  0  0  0  0  0  0
   -8.7837   -0.7749   -1.0756 H   0  0  0  0  0  0  0  0  0  0  0  0
   -7.1195   -2.3596   -2.0088 H   0  0  0  0  0  0  0  0  0  0  0  0
   -4.8515   -2.4758   -1.0565 H   0  0  0  0  0  0  0  0  0  0  0  0
   -3.8538   -1.3125    2.0679 H   0  0  0  0  0  0  0  0  0  0  0  0
   -1.7763   -1.0304    0.9992 H   0  0  0  0  0  0  0  0  0  0  0  0
   -0.7451   -0.9459   -4.6665 H   0  0  0  0  0  0  0  0  0  0  0  0
   -1.6422    0.5104   -5.1024 H   0  0  0  0  0  0  0  0  0  0  0  0
   -0.1357    0.6597   -4.1914 H   0  0  0  0  0  0  0  0  0  0  0  0
    0.2677    1.3611   -0.8240 H   0  0  0  0  0  0  0  0  0  0  0  0
    0.9879    1.3180    0.7686 H   0  0  0  0  0  0  0  0  0  0  0  0
    2.6145    2.2065   -0.8331 H   0  0  0  0  0  0  0  0  0  0  0  0
    2.4150    0.8248   -1.8929 H   0  0  0  0  0  0  0  0  0  0  0  0
    3.5438    0.8163    0.9435 H   0  0  0  0  0  0  0  0  0  0  0  0
    6.9019   -0.4936    1.7194 H   0  0  0  0  0  0  0  0  0  0  0  0
    5.1565   -0.3440    1.8174 H   0  0  0  0  0  0  0  0  0  0  0  0
    7.1190    1.9984    1.9775 H   0  0  0  0  0  0  0  0  0  0  0  0
    5.3580    2.1553    2.0038 H   0  0  0  0  0  0  0  0  0  0  0  0
    6.1907    1.3001    3.3162 H   0  0  0  0  0  0  0  0  0  0  0  0
    8.0741    0.8427    0.0699 H   0  0  0  0  0  0  0  0  0  0  0  0
    7.2682    1.2243   -1.4470 H   0  0  0  0  0  0  0  0  0  0  0  0
    7.0277   -1.2196   -1.9578 H   0  0  0  0  0  0  0  0  0  0  0  0
    8.7253   -0.7616   -1.7204 H   0  0  0  0  0  0  0  0  0  0  0  0
    7.8429   -1.6147   -0.4384 H   0  0  0  0  0  0  0  0  0  0  0  0
    3.9415   -1.6578    0.5540 H   0  0  0  0  0  0  0  0  0  0  0  0
    3.2020   -1.5245   -1.0255 H   0  0  0  0  0  0  0  0  0  0  0  0
    1.5924   -2.3932    0.6645 H   0  0  0  0  0  0  0  0  0  0  0  0
    1.8320   -0.9831    1.6690 H   0  0  0  0  0  0  0  0  0  0  0  0
  1  2  1  0
  2  3  1  0
  3  4  1  0
  4  5  2  0
  5  6  1  0
  6  7  2  0
  7  8  1  0
  8  9  2  0
  9 10  1  0
 10 11  2  3
 11 12  1  0
 12 13  1  0
 13 14  1  0
 14 15  2  0
 15 16  1  0
 15 17  1  0
 17 18  1  0
 18 19  2  0
 18 20  2  0
 18 21  1  0
 21 22  1  0
 22 23  1  0
 23 24  1  0
 24 25  1  0
 25 26  2  0
 25 27  1  0
 27 28  1  0
 28 29  1  0
 27 30  1  0
 30 31  1  0
 24 32  1  0
 32 33  1  0
  9  4  1  0
 17 12  2  0
 33 21  1  0
  1 34  1  0
  1 35  1  0
  1 36  1  0
  2 37  1  0
  2 38  1  0
  5 39  1  0
  6 40  1  0
  7 41  1  0
  8 42  1  0
 10 43  1  0
 11 44  1  0
 16 45  1  0
 16 46  1  0
 16 47  1  0
 22 48  1  0
 22 49  1  0
 23 50  1  0
 23 51  1  0
 24 52  1  0
 28 53  1  0
 28 54  1  0
 29 55  1  0
 29 56  1  0
 29 57  1  0
 30 58  1  0
 30 59  1  0
 31 60  1  0
 31 61  1  0
 31 62  1  0
 32 63  1  0
 32 64  1  0
 33 65  1  0
 33 66  1  0
M  END
$$$$
