
     RDKit          3D

 40 43  0  0  0  0  0  0  0  0999 V2000
    7.3243    1.7110   -1.3186 C   0  0  0  0  0  0  0  0  0  0  0  0
    6.0292    1.0947   -0.9209 C   0  0  0  0  0  0  0  0  0  0  0  0
    5.5119    0.0281   -1.4893 N   0  0  0  0  0  0  0  0  0  0  0  0
    4.3027   -0.2826   -0.8900 C   0  0  0  0  0  0  0  0  0  0  0  0
    3.4618   -1.3553   -1.2353 C   0  0  0  0  0  0  0  0  0  0  0  0
    2.2594   -1.5476   -0.5422 C   0  0  0  0  0  0  0  0  0  0  0  0
    1.8773   -0.6937    0.4958 C   0  0  0  0  0  0  0  0  0  0  0  0
    0.6453   -0.9706    1.1231 N   0  0  0  0  0  0  0  0  0  0  0  0
    0.0588   -0.2839    2.1736 C   0  0  0  0  0  0  0  0  0  0  0  0
    0.5331    0.6760    2.7722 O   0  0  0  0  0  0  0  0  0  0  0  0
   -1.2916   -0.8601    2.5780 C   0  0  0  0  0  0  0  0  0  0  0  0
   -2.3373   -0.7685    1.4922 C   0  0  0  0  0  0  0  0  0  0  0  0
   -3.0387   -1.9101    1.0752 C   0  0  0  0  0  0  0  0  0  0  0  0
   -4.0244   -1.8155    0.0887 C   0  0  0  0  0  0  0  0  0  0  0  0
   -4.3204   -0.5794   -0.4840 C   0  0  0  0  0  0  0  0  0  0  0  0
   -3.6110    0.5590   -0.0932 C   0  0  0  0  0  0  0  0  0  0  0  0
   -2.6406    0.4692    0.9039 C   0  0  0  0  0  0  0  0  0  0  0  0
   -3.8213    1.8021   -0.6376 O   0  0  0  0  0  0  0  0  0  0  0  0
   -4.5748    1.7163   -1.8532 C   0  0  0  0  0  0  0  0  0  0  0  0
   -5.7617    0.7814   -1.6800 C   0  0  0  0  0  0  0  0  0  0  0  0
   -5.3188   -0.5561   -1.4244 O   0  0  0  0  0  0  0  0  0  0  0  0
    2.7065    0.3757    0.8532 C   0  0  0  0  0  0  0  0  0  0  0  0
    3.9101    0.5641    0.1467 C   0  0  0  0  0  0  0  0  0  0  0  0
    5.1083    1.7841    0.3538 S   0  0  0  0  0  0  0  0  0  0  0  0
    7.1620    2.7024   -1.7506 H   0  0  0  0  0  0  0  0  0  0  0  0
    7.9921    1.8076   -0.4593 H   0  0  0  0  0  0  0  0  0  0  0  0
    7.8286    1.0939   -2.0685 H   0  0  0  0  0  0  0  0  0  0  0  0
    3.7524   -2.0232   -2.0388 H   0  0  0  0  0  0  0  0  0  0  0  0
    1.6306   -2.3844   -0.8337 H   0  0  0  0  0  0  0  0  0  0  0  0
    0.1080   -1.7390    0.7280 H   0  0  0  0  0  0  0  0  0  0  0  0
   -1.6553   -0.3208    3.4592 H   0  0  0  0  0  0  0  0  0  0  0  0
   -1.1339   -1.8998    2.8881 H   0  0  0  0  0  0  0  0  0  0  0  0
   -2.8351   -2.8792    1.5214 H   0  0  0  0  0  0  0  0  0  0  0  0
   -4.5713   -2.6992   -0.2255 H   0  0  0  0  0  0  0  0  0  0  0  0
   -2.1174    1.3726    1.2135 H   0  0  0  0  0  0  0  0  0  0  0  0
   -3.9094    1.3736   -2.6541 H   0  0  0  0  0  0  0  0  0  0  0  0
   -4.9194    2.7233   -2.1017 H   0  0  0  0  0  0  0  0  0  0  0  0
   -6.4049    1.1024   -0.8501 H   0  0  0  0  0  0  0  0  0  0  0  0
   -6.3657    0.7627   -2.5925 H   0  0  0  0  0  0  0  0  0  0  0  0
    2.4505    1.0688    1.6440 H   0  0  0  0  0  0  0  0  0  0  0  0
  1  2  1  0
  2  3  2  0
  3  4  1  0
  4  5  2  0
  5  6  1  0
  6  7  2  0
  7  8  1  0
  8  9  1  0
  9 10  2  0
  9 11  1  0
 11 12  1  0
 12 13  2  0
 13 14  1  0
 14 15  2  0
 15 16  1  0
 16 17  2  0
 16 18  1  0
 18 19  1  0
 19 20  1  0
 20 21  1  0
  7 22  1  0
 22 23  2  0
 23 24  1  0
 24  2  1  0
 23  4  1  0
 17 12  1  0
 21 15  1  0
  1 25  1  0
  1 26  1  0
  1 27  1  0
  5 28  1  0
  6 29  1  0
  8 30  1  0
 11 31  1  0
 11 32  1  0
 13 33  1  0
 14 34  1  0
 17 35  1  0
 19 36  1  0
 19 37  1  0
 20 38  1  0
 20 39  1  0
 22 40  1  0
M  END
$$$$
