
     RDKit          3D

 72 76  0  0  0  0  0  0  0  0999 V2000
   10.7670   -0.7882    0.8208 C   0  0  0  0  0  0  0  0  0  0  0  0
    9.7591    0.1061    1.2766 O   0  0  0  0  0  0  0  0  0  0  0  0
    8.4685   -0.1931    0.9361 C   0  0  0  0  0  0  0  0  0  0  0  0
    7.5224    0.7470    1.3505 C   0  0  0  0  0  0  0  0  0  0  0  0
    6.1647    0.5667    1.0688 C   0  0  0  0  0  0  0  0  0  0  0  0
    5.7316   -0.5680    0.3737 C   0  0  0  0  0  0  0  0  0  0  0  0
    4.3085   -0.7699    0.0720 C   0  0  0  0  0  0  0  0  0  0  0  0
    3.9589   -1.1741   -1.1555 N   0  0  0  0  0  0  0  0  0  0  0  0
    2.3152   -1.3105   -1.2473 S   0  0  0  0  0  0  0  0  0  0  0  0
    1.9901   -0.7877    0.3441 C   0  0  0  0  0  0  0  0  0  0  0  0
    0.6403   -0.7192    0.8712 C   0  0  0  0  0  0  0  0  0  0  0  0
    0.3825   -1.2092    1.9754 O   0  0  0  0  0  0  0  0  0  0  0  0
   -0.3715   -0.0962    0.1110 N   0  0  0  0  0  0  0  0  0  0  0  0
   -0.1095    0.9424   -0.8412 C   0  0  0  0  0  0  0  0  0  0  0  0
   -0.8168    1.0236   -2.0493 C   0  0  0  0  0  0  0  0  0  0  0  0
   -0.5578    2.0507   -2.9618 C   0  0  0  0  0  0  0  0  0  0  0  0
    0.4061    3.0049   -2.6677 C   0  0  0  0  0  0  0  0  0  0  0  0
    0.6508    3.9888   -3.5419 F   0  0  0  0  0  0  0  0  0  0  0  0
    1.1164    2.9529   -1.4765 C   0  0  0  0  0  0  0  0  0  0  0  0
    0.8577    1.9262   -0.5645 C   0  0  0  0  0  0  0  0  0  0  0  0
   -1.7699   -0.4307    0.4671 C   0  0  0  0  0  0  0  0  0  0  0  0
   -2.3773   -1.5242   -0.4523 C   0  0  0  0  0  0  0  0  0  0  0  0
   -1.7708   -2.0285   -1.3971 O   0  0  0  0  0  0  0  0  0  0  0  0
   -3.6529   -1.9403   -0.0955 N   0  0  0  0  0  0  0  0  0  0  0  0
   -4.3936   -2.8815   -0.9086 C   0  0  0  0  0  0  0  0  0  0  0  0
   -5.5981   -3.4640   -0.1774 C   0  0  0  0  0  0  0  0  0  0  0  0
   -6.4398   -4.0220   -1.3132 C   0  0  0  0  0  0  0  0  0  0  0  0
   -6.3115   -2.9831   -2.4219 C   0  0  0  0  0  0  0  0  0  0  0  0
   -5.0001   -2.2387   -2.1598 C   0  0  0  0  0  0  0  0  0  0  0  0
   -2.6473    0.7980    0.7271 C   0  0  0  0  0  0  0  0  0  0  0  0
   -2.4776    1.5044    1.9312 C   0  0  0  0  0  0  0  0  0  0  0  0
   -3.2491    2.6359    2.2208 C   0  0  0  0  0  0  0  0  0  0  0  0
   -4.2019    3.0855    1.3094 C   0  0  0  0  0  0  0  0  0  0  0  0
   -5.0230    4.1668    1.4690 O   0  0  0  0  0  0  0  0  0  0  0  0
   -4.8083    4.9714    2.6216 C   0  0  0  0  0  0  0  0  0  0  0  0
   -4.3715    2.3957    0.1079 C   0  0  0  0  0  0  0  0  0  0  0  0
   -3.5998    1.2683   -0.1875 C   0  0  0  0  0  0  0  0  0  0  0  0
    3.1966   -0.5906    0.9876 C   0  0  0  0  0  0  0  0  0  0  0  0
    3.2961   -0.2648    2.3075 N   0  0  0  0  0  0  0  0  0  0  0  0
    6.6851   -1.5038   -0.0500 C   0  0  0  0  0  0  0  0  0  0  0  0
    8.0450   -1.3201    0.2317 C   0  0  0  0  0  0  0  0  0  0  0  0
   10.7767   -0.8533   -0.2724 H   0  0  0  0  0  0  0  0  0  0  0  0
   11.7347   -0.3891    1.1390 H   0  0  0  0  0  0  0  0  0  0  0  0
   10.6494   -1.7763    1.2760 H   0  0  0  0  0  0  0  0  0  0  0  0
    7.8465    1.6337    1.8904 H   0  0  0  0  0  0  0  0  0  0  0  0
    5.4547    1.3270    1.3862 H   0  0  0  0  0  0  0  0  0  0  0  0
   -1.5469    0.2716   -2.3310 H   0  0  0  0  0  0  0  0  0  0  0  0
   -1.0956    2.1031   -3.9036 H   0  0  0  0  0  0  0  0  0  0  0  0
    1.8649    3.7095   -1.2617 H   0  0  0  0  0  0  0  0  0  0  0  0
    1.4040    1.9300    0.3759 H   0  0  0  0  0  0  0  0  0  0  0  0
   -1.7565   -0.9546    1.4342 H   0  0  0  0  0  0  0  0  0  0  0  0
   -4.1651   -1.3897    0.5851 H   0  0  0  0  0  0  0  0  0  0  0  0
   -3.7177   -3.6919   -1.2106 H   0  0  0  0  0  0  0  0  0  0  0  0
   -5.3124   -4.2339    0.5463 H   0  0  0  0  0  0  0  0  0  0  0  0
   -6.1522   -2.6842    0.3605 H   0  0  0  0  0  0  0  0  0  0  0  0
   -6.0248   -4.9788   -1.6510 H   0  0  0  0  0  0  0  0  0  0  0  0
   -7.4802   -4.1892   -1.0210 H   0  0  0  0  0  0  0  0  0  0  0  0
   -7.1496   -2.2780   -2.3821 H   0  0  0  0  0  0  0  0  0  0  0  0
   -6.3239   -3.4530   -3.4113 H   0  0  0  0  0  0  0  0  0  0  0  0
   -4.3178   -2.3122   -3.0143 H   0  0  0  0  0  0  0  0  0  0  0  0
   -5.2080   -1.1723   -2.0066 H   0  0  0  0  0  0  0  0  0  0  0  0
   -1.7338    1.1758    2.6566 H   0  0  0  0  0  0  0  0  0  0  0  0
   -3.0799    3.1405    3.1662 H   0  0  0  0  0  0  0  0  0  0  0  0
   -5.5078    5.8117    2.5769 H   0  0  0  0  0  0  0  0  0  0  0  0
   -5.0183    4.4117    3.5387 H   0  0  0  0  0  0  0  0  0  0  0  0
   -3.7946    5.3848    2.6316 H   0  0  0  0  0  0  0  0  0  0  0  0
   -5.1072    2.7477   -0.6121 H   0  0  0  0  0  0  0  0  0  0  0  0
   -3.7548    0.7767   -1.1454 H   0  0  0  0  0  0  0  0  0  0  0  0
    2.5073   -0.4972    2.9156 H   0  0  0  0  0  0  0  0  0  0  0  0
    4.1793   -0.4349    2.7860 H   0  0  0  0  0  0  0  0  0  0  0  0
    6.3727   -2.3868   -0.6057 H   0  0  0  0  0  0  0  0  0  0  0  0
    8.7421   -2.0751   -0.1171 H   0  0  0  0  0  0  0  0  0  0  0  0
  1  2  1  0
  2  3  1  0
  3  4  2  0
  4  5  1  0
  5  6  2  0
  6  7  1  0
  7  8  2  0
  8  9  1  0
  9 10  1  0
 10 11  1  0
 11 12  2  0
 11 13  1  0
 13 14  1  0
 14 15  2  0
 15 16  1  0
 16 17  2  0
 17 18  1  0
 17 19  1  0
 19 20  2  0
 13 21  1  0
 21 22  1  0
 22 23  2  0
 22 24  1  0
 24 25  1  0
 25 26  1  0
 26 27  1  0
 27 28  1  0
 28 29  1  0
 21 30  1  0
 30 31  2  0
 31 32  1  0
 32 33  2  0
 33 34  1  0
 34 35  1  0
 33 36  1  0
 36 37  2  0
 10 38  2  0
 38 39  1  0
  6 40  1  0
 40 41  2  0
 41  3  1  0
 38  7  1  0
 20 14  1  0
 29 25  1  0
 37 30  1  0
  1 42  1  0
  1 43  1  0
  1 44  1  0
  4 45  1  0
  5 46  1  0
 15 47  1  0
 16 48  1  0
 19 49  1  0
 20 50  1  0
 21 51  1  0
 24 52  1  0
 25 53  1  0
 26 54  1  0
 26 55  1  0
 27 56  1  0
 27 57  1  0
 28 58  1  0
 28 59  1  0
 29 60  1  0
 29 61  1  0
 31 62  1  0
 32 63  1  0
 35 64  1  0
 35 65  1  0
 35 66  1  0
 36 67  1  0
 37 68  1  0
 39 69  1  0
 39 70  1  0
 40 71  1  0
 41 72  1  0
M  END
$$$$
