
     RDKit          3D

 55 58  0  0  0  0  0  0  0  0999 V2000
   -2.7262   -4.5869    3.4475 C   0  0  0  0  0  0  0  0  0  0  0  0
   -3.3881   -3.2833    3.4540 N   0  0  0  0  0  0  0  0  0  0  0  0
   -4.0376   -2.9190    4.7146 C   0  0  0  0  0  0  0  0  0  0  0  0
   -2.8790   -2.2555    2.6519 C   0  0  0  0  0  0  0  0  0  0  0  0
   -1.8592   -2.4633    1.7130 C   0  0  0  0  0  0  0  0  0  0  0  0
   -1.3679   -1.4302    0.8969 C   0  0  0  0  0  0  0  0  0  0  0  0
   -1.8835   -0.1327    0.9613 C   0  0  0  0  0  0  0  0  0  0  0  0
   -1.3882    0.8705    0.1136 N   0  0  0  0  0  0  0  0  0  0  0  0
   -0.0249    1.1962    0.0567 C   0  0  0  0  0  0  0  0  0  0  0  0
    0.9593    0.5153    0.5426 N   0  0  0  0  0  0  0  0  0  0  0  0
    2.2270    1.0226    0.4465 C   0  0  0  0  0  0  0  0  0  0  0  0
    2.6581    1.9051    1.1801 O   0  0  0  0  0  0  0  0  0  0  0  0
    3.0767    0.3328   -0.6008 C   0  0  0  0  0  0  0  0  0  0  0  0
    4.3657    1.1025   -0.8680 C   0  0  0  0  0  0  0  0  0  0  0  0
    5.1724    0.4599   -1.9688 C   0  0  0  0  0  0  0  0  0  0  0  0
    5.0249    0.8823   -3.2966 C   0  0  0  0  0  0  0  0  0  0  0  0
    5.7569    0.2734   -4.3171 C   0  0  0  0  0  0  0  0  0  0  0  0
    6.6384   -0.7644   -4.0205 C   0  0  0  0  0  0  0  0  0  0  0  0
    6.7887   -1.1949   -2.7036 C   0  0  0  0  0  0  0  0  0  0  0  0
    6.0580   -0.5872   -1.6816 C   0  0  0  0  0  0  0  0  0  0  0  0
    0.1812    2.7470   -0.8391 S   0  0  0  0  0  0  0  0  0  0  0  0
   -1.5054    2.6366   -1.4560 C   0  0  0  0  0  0  0  0  0  0  0  0
   -2.3067    3.8651   -1.8053 C   0  0  0  0  0  0  0  0  0  0  0  0
   -3.9854    3.2121   -1.7490 S   0  0  0  0  0  6  0  0  0  0  0  0
   -4.7733    4.0576   -0.8780 O   0  0  0  0  0  0  0  0  0  0  0  0
   -4.3985    2.8818   -3.0953 O   0  0  0  0  0  0  0  0  0  0  0  0
   -3.6136    1.6828   -0.8738 C   0  0  0  0  0  0  0  0  0  0  0  0
   -2.2493    1.9844   -0.2838 C   0  0  0  0  0  0  0  0  0  0  0  0
   -2.9043    0.0867    1.8889 C   0  0  0  0  0  0  0  0  0  0  0  0
   -3.3901   -0.9499    2.7058 C   0  0  0  0  0  0  0  0  0  0  0  0
   -3.2747   -5.3085    4.0634 H   0  0  0  0  0  0  0  0  0  0  0  0
   -1.7082   -4.5139    3.8457 H   0  0  0  0  0  0  0  0  0  0  0  0
   -2.6992   -5.0147    2.4395 H   0  0  0  0  0  0  0  0  0  0  0  0
   -3.3716   -2.3157    5.3420 H   0  0  0  0  0  0  0  0  0  0  0  0
   -4.9706   -2.3736    4.5370 H   0  0  0  0  0  0  0  0  0  0  0  0
   -4.3149   -3.8086    5.2912 H   0  0  0  0  0  0  0  0  0  0  0  0
   -1.4030   -3.4404    1.5860 H   0  0  0  0  0  0  0  0  0  0  0  0
   -0.5742   -1.6684    0.1916 H   0  0  0  0  0  0  0  0  0  0  0  0
    3.2957   -0.6812   -0.2468 H   0  0  0  0  0  0  0  0  0  0  0  0
    2.4903    0.2481   -1.5238 H   0  0  0  0  0  0  0  0  0  0  0  0
    4.9752    1.1599    0.0433 H   0  0  0  0  0  0  0  0  0  0  0  0
    4.1404    2.1428   -1.1376 H   0  0  0  0  0  0  0  0  0  0  0  0
    4.3409    1.6909   -3.5439 H   0  0  0  0  0  0  0  0  0  0  0  0
    5.6404    0.6100   -5.3438 H   0  0  0  0  0  0  0  0  0  0  0  0
    7.2095   -1.2369   -4.8153 H   0  0  0  0  0  0  0  0  0  0  0  0
    7.4765   -2.0038   -2.4716 H   0  0  0  0  0  0  0  0  0  0  0  0
    6.1858   -0.9340   -0.6586 H   0  0  0  0  0  0  0  0  0  0  0  0
   -1.4784    1.9577   -2.3207 H   0  0  0  0  0  0  0  0  0  0  0  0
   -2.0953    4.2511   -2.8044 H   0  0  0  0  0  0  0  0  0  0  0  0
   -2.2241    4.6577   -1.0564 H   0  0  0  0  0  0  0  0  0  0  0  0
   -4.3901    1.5043   -0.1280 H   0  0  0  0  0  0  0  0  0  0  0  0
   -3.5902    0.8630   -1.5978 H   0  0  0  0  0  0  0  0  0  0  0  0
   -2.3523    2.6920    0.5544 H   0  0  0  0  0  0  0  0  0  0  0  0
   -3.3383    1.0721    2.0297 H   0  0  0  0  0  0  0  0  0  0  0  0
   -4.1959   -0.6975    3.3885 H   0  0  0  0  0  0  0  0  0  0  0  0
  1  2  1  0
  2  3  1  0
  2  4  1  0
  4  5  2  0
  5  6  1  0
  6  7  2  0
  7  8  1  0
  8  9  1  0
  9 10  2  3
 10 11  1  0
 11 12  2  0
 11 13  1  0
 13 14  1  0
 14 15  1  0
 15 16  2  0
 16 17  1  0
 17 18  2  0
 18 19  1  0
 19 20  2  0
  9 21  1  0
 21 22  1  0
 22 23  1  0
 23 24  1  0
 24 25  2  0
 24 26  2  0
 24 27  1  0
 27 28  1  0
  7 29  1  0
 29 30  2  0
 30  4  1  0
 28  8  1  0
 20 15  1  0
 28 22  1  0
  1 31  1  0
  1 32  1  0
  1 33  1  0
  3 34  1  0
  3 35  1  0
  3 36  1  0
  5 37  1  0
  6 38  1  0
 13 39  1  0
 13 40  1  0
 14 41  1  0
 14 42  1  0
 16 43  1  0
 17 44  1  0
 18 45  1  0
 19 46  1  0
 20 47  1  0
 22 48  1  0
 23 49  1  0
 23 50  1  0
 27 51  1  0
 27 52  1  0
 28 53  1  0
 29 54  1  0
 30 55  1  0
M  END
$$$$
