
     RDKit          3D

 46 48  0  0  0  0  0  0  0  0999 V2000
   -6.5568   -2.4340    1.9099 C   0  0  0  0  0  0  0  0  0  0  0  0
   -6.1462   -0.9663    1.8952 C   0  0  0  0  0  0  0  0  0  0  0  0
   -4.8241   -0.6981    1.1745 C   0  0  0  0  0  0  0  0  0  0  0  0
   -4.9455   -1.0119   -0.6223 S   0  0  0  0  0  0  0  0  0  0  0  0
   -3.2648   -0.6753   -1.1364 C   0  0  0  0  0  0  0  0  0  0  0  0
   -2.5063    0.0440   -0.2727 N   0  0  0  0  0  0  0  0  0  0  0  0
   -1.2237    0.3564   -0.6102 C   0  0  0  0  0  0  0  0  0  0  0  0
   -0.4705    1.1405    0.4254 C   0  0  0  0  0  0  0  0  0  0  0  0
   -0.6527   -0.0314   -1.8256 C   0  0  0  0  0  0  0  0  0  0  0  0
    0.7179    0.2940   -2.1900 C   0  0  0  0  0  0  0  0  0  0  0  0
    1.0760    0.8017   -3.4206 C   0  0  0  0  0  0  0  0  0  0  0  0
    2.7685    1.0305   -3.4887 S   0  0  0  0  0  0  0  0  0  0  0  0
    2.9278    0.4280   -1.8631 C   0  0  0  0  0  0  0  0  0  0  0  0
    4.2249    0.3372   -1.2537 C   0  0  0  0  0  0  0  0  0  0  0  0
    5.3324   -0.1293   -2.0317 C   0  0  0  0  0  0  0  0  0  0  0  0
    6.2394   -0.4918   -2.6584 N   0  0  0  0  0  0  0  0  0  0  0  0
    4.4028    0.6730    0.0454 C   0  0  0  0  0  0  0  0  0  0  0  0
    5.7281    0.5992    0.7770 C   0  0  0  0  0  0  0  0  0  0  0  0
    5.3663    0.8922    2.2285 C   0  0  0  0  0  0  0  0  0  0  0  0
    4.1716    1.8230    2.1212 C   0  0  0  0  0  0  0  0  0  0  0  0
    3.3539    1.2231    0.9847 C   0  0  0  0  0  0  0  0  0  0  0  0
    1.7682    0.1063   -1.3100 N   0  0  0  0  0  0  0  0  0  0  0  0
   -1.4512   -0.7758   -2.7038 C   0  0  0  0  0  0  0  0  0  0  0  0
   -2.7703   -1.1041   -2.3639 C   0  0  0  0  0  0  0  0  0  0  0  0
   -3.5463   -1.8780   -3.2815 C   0  0  0  0  0  0  0  0  0  0  0  0
   -4.1274   -2.5190   -4.0542 N   0  0  0  0  0  0  0  0  0  0  0  0
   -5.7589   -3.0617    2.3206 H   0  0  0  0  0  0  0  0  0  0  0  0
   -6.8020   -2.7975    0.9067 H   0  0  0  0  0  0  0  0  0  0  0  0
   -7.4453   -2.5672    2.5351 H   0  0  0  0  0  0  0  0  0  0  0  0
   -6.0390   -0.6336    2.9363 H   0  0  0  0  0  0  0  0  0  0  0  0
   -6.9509   -0.3616    1.4580 H   0  0  0  0  0  0  0  0  0  0  0  0
   -4.0356   -1.3286    1.5994 H   0  0  0  0  0  0  0  0  0  0  0  0
   -4.5487    0.3504    1.3318 H   0  0  0  0  0  0  0  0  0  0  0  0
   -1.1560    1.5220    1.1905 H   0  0  0  0  0  0  0  0  0  0  0  0
    0.2613    0.5002    0.9248 H   0  0  0  0  0  0  0  0  0  0  0  0
    0.0311    2.0057   -0.0195 H   0  0  0  0  0  0  0  0  0  0  0  0
    0.4493    1.0485   -4.2661 H   0  0  0  0  0  0  0  0  0  0  0  0
    6.2083   -0.3805    0.6893 H   0  0  0  0  0  0  0  0  0  0  0  0
    6.4055    1.3728    0.3973 H   0  0  0  0  0  0  0  0  0  0  0  0
    6.1968    1.3434    2.7792 H   0  0  0  0  0  0  0  0  0  0  0  0
    5.0812   -0.0331    2.7445 H   0  0  0  0  0  0  0  0  0  0  0  0
    4.5013    2.8370    1.8613 H   0  0  0  0  0  0  0  0  0  0  0  0
    3.6038    1.8806    3.0546 H   0  0  0  0  0  0  0  0  0  0  0  0
    2.7320    0.4060    1.3659 H   0  0  0  0  0  0  0  0  0  0  0  0
    2.7178    1.9846    0.5249 H   0  0  0  0  0  0  0  0  0  0  0  0
   -1.0440   -1.1217   -3.6538 H   0  0  0  0  0  0  0  0  0  0  0  0
  1  2  1  0
  2  3  1  0
  3  4  1  0
  4  5  1  0
  5  6  2  0
  6  7  1  0
  7  8  1  0
  7  9  2  0
  9 10  1  0
 10 11  2  0
 11 12  1  0
 12 13  1  0
 13 14  1  0
 14 15  1  0
 15 16  3  0
 14 17  2  3
 17 18  1  0
 18 19  1  0
 19 20  1  0
 20 21  1  0
 13 22  2  0
  9 23  1  0
 23 24  2  0
 24 25  1  0
 25 26  3  0
 24  5  1  0
 22 10  1  0
 21 17  1  0
  1 27  1  0
  1 28  1  0
  1 29  1  0
  2 30  1  0
  2 31  1  0
  3 32  1  0
  3 33  1  0
  8 34  1  0
  8 35  1  0
  8 36  1  0
 11 37  1  0
 18 38  1  0
 18 39  1  0
 19 40  1  0
 19 41  1  0
 20 42  1  0
 20 43  1  0
 21 44  1  0
 21 45  1  0
 23 46  1  0
M  END
$$$$
