
     RDKit          3D

 55 58  0  0  0  0  0  0  0  0999 V2000
   -7.2181   -0.9656    1.5832 C   0  0  0  0  0  0  0  0  0  0  0  0
   -6.8116   -0.2463    0.4270 O   0  0  0  0  0  0  0  0  0  0  0  0
   -5.4641   -0.1067    0.2056 C   0  0  0  0  0  0  0  0  0  0  0  0
   -4.4698   -0.7198    0.9701 C   0  0  0  0  0  0  0  0  0  0  0  0
   -3.1172   -0.5237    0.6658 C   0  0  0  0  0  0  0  0  0  0  0  0
   -2.7197    0.2870   -0.4084 C   0  0  0  0  0  0  0  0  0  0  0  0
   -1.2970    0.5044   -0.7437 C   0  0  0  0  0  0  0  0  0  0  0  0
   -0.3263   -0.4679   -0.5788 C   0  0  0  0  0  0  0  0  0  0  0  0
    0.9845   -0.1532   -0.9320 C   0  0  0  0  0  0  0  0  0  0  0  0
    1.9958   -1.2061   -0.7469 C   0  0  0  0  0  0  0  0  0  0  0  0
    2.1070   -2.0482   -1.6333 O   0  0  0  0  0  0  0  0  0  0  0  0
    2.7586   -1.2046    0.4193 N   0  0  0  0  0  0  0  0  0  0  0  0
    2.6617   -0.2105    1.4932 C   0  0  0  0  0  0  0  0  0  0  0  0
    4.0489    0.1807    1.9868 C   0  0  0  0  0  0  0  0  0  0  0  0
    4.8600   -1.0230    2.4776 C   0  0  0  0  0  0  0  0  0  0  0  0
    4.3128   -2.3695    1.9768 C   0  0  0  0  0  0  0  0  0  0  0  0
    5.3671   -3.4558    2.0418 C   0  0  0  0  0  0  0  0  0  0  0  0
    4.8571   -4.6521    1.6805 F   0  0  0  0  0  0  0  0  0  0  0  0
    6.4100   -3.1874    1.2279 F   0  0  0  0  0  0  0  0  0  0  0  0
    5.8479   -3.5836    3.2989 F   0  0  0  0  0  0  0  0  0  0  0  0
    3.7770   -2.2500    0.5546 C   0  0  0  0  0  0  0  0  0  0  0  0
    1.3257    1.1006   -1.4737 C   0  0  0  0  0  0  0  0  0  0  0  0
    2.6296    1.4746   -1.8848 C   0  0  0  0  0  0  0  0  0  0  0  0
    2.8799    2.7464   -2.3942 C   0  0  0  0  0  0  0  0  0  0  0  0
    1.8360    3.6544   -2.5026 C   0  0  0  0  0  0  0  0  0  0  0  0
    0.5485    3.2821   -2.1063 C   0  0  0  0  0  0  0  0  0  0  0  0
    0.2717    2.0204   -1.5967 C   0  0  0  0  0  0  0  0  0  0  0  0
   -0.9927    1.7311   -1.2397 N   0  0  0  0  0  0  0  0  0  0  0  0
   -3.7352    0.9023   -1.1664 C   0  0  0  0  0  0  0  0  0  0  0  0
   -5.0937    0.7093   -0.8784 C   0  0  0  0  0  0  0  0  0  0  0  0
   -6.1256    1.2770   -1.5863 O   0  0  0  0  0  0  0  0  0  0  0  0
   -5.7939    2.0219   -2.7511 C   0  0  0  0  0  0  0  0  0  0  0  0
   -6.9267   -2.0191    1.5140 H   0  0  0  0  0  0  0  0  0  0  0  0
   -6.8250   -0.5034    2.4965 H   0  0  0  0  0  0  0  0  0  0  0  0
   -8.3108   -0.9269    1.6357 H   0  0  0  0  0  0  0  0  0  0  0  0
   -4.7112   -1.3582    1.8125 H   0  0  0  0  0  0  0  0  0  0  0  0
   -2.3764   -1.0065    1.2993 H   0  0  0  0  0  0  0  0  0  0  0  0
   -0.5678   -1.4590   -0.2109 H   0  0  0  0  0  0  0  0  0  0  0  0
    2.1230    0.6818    1.1684 H   0  0  0  0  0  0  0  0  0  0  0  0
    2.0769   -0.6628    2.3032 H   0  0  0  0  0  0  0  0  0  0  0  0
    3.9727    0.9286    2.7845 H   0  0  0  0  0  0  0  0  0  0  0  0
    4.5953    0.6572    1.1619 H   0  0  0  0  0  0  0  0  0  0  0  0
    4.8677   -1.0340    3.5754 H   0  0  0  0  0  0  0  0  0  0  0  0
    5.9062   -0.8866    2.1715 H   0  0  0  0  0  0  0  0  0  0  0  0
    3.4842   -2.6636    2.6362 H   0  0  0  0  0  0  0  0  0  0  0  0
    3.3465   -3.2012    0.2231 H   0  0  0  0  0  0  0  0  0  0  0  0
    4.5825   -1.9987   -0.1453 H   0  0  0  0  0  0  0  0  0  0  0  0
    3.4564    0.7696   -1.8162 H   0  0  0  0  0  0  0  0  0  0  0  0
    3.8831    3.0228   -2.7089 H   0  0  0  0  0  0  0  0  0  0  0  0
    2.0141    4.6502   -2.8999 H   0  0  0  0  0  0  0  0  0  0  0  0
   -0.2647    3.9988   -2.2000 H   0  0  0  0  0  0  0  0  0  0  0  0
   -3.4313    1.5376   -1.9936 H   0  0  0  0  0  0  0  0  0  0  0  0
   -6.7293    2.3466   -3.2189 H   0  0  0  0  0  0  0  0  0  0  0  0
   -5.2581    1.4030   -3.4794 H   0  0  0  0  0  0  0  0  0  0  0  0
   -5.2220    2.9215   -2.4948 H   0  0  0  0  0  0  0  0  0  0  0  0
  1  2  1  0
  2  3  1  0
  3  4  2  0
  4  5  1  0
  5  6  2  0
  6  7  1  0
  7  8  2  0
  8  9  1  0
  9 10  1  0
 10 11  2  0
 10 12  1  0
 12 13  1  0
 13 14  1  0
 14 15  1  0
 15 16  1  0
 16 17  1  0
 17 18  1  0
 17 19  1  0
 17 20  1  0
 16 21  1  0
  9 22  2  0
 22 23  1  0
 23 24  2  0
 24 25  1  0
 25 26  2  0
 26 27  1  0
 27 28  2  0
  6 29  1  0
 29 30  2  0
 30 31  1  0
 31 32  1  0
 30  3  1  0
 28  7  1  0
 21 12  1  0
 27 22  1  0
  1 33  1  0
  1 34  1  0
  1 35  1  0
  4 36  1  0
  5 37  1  0
  8 38  1  0
 13 39  1  0
 13 40  1  0
 14 41  1  0
 14 42  1  0
 15 43  1  0
 15 44  1  0
 16 45  1  0
 21 46  1  0
 21 47  1  0
 23 48  1  0
 24 49  1  0
 25 50  1  0
 26 51  1  0
 29 52  1  0
 32 53  1  0
 32 54  1  0
 32 55  1  0
M  END
$$$$
