
     RDKit          3D

 58 61  0  0  0  0  0  0  0  0999 V2000
   -0.0883    3.4270    0.3195 O   0  0  0  0  0  0  0  0  0  0  0  0
   -0.4882    2.5279    1.0575 C   0  0  0  0  0  0  0  0  0  0  0  0
    0.3098    2.1045    2.3002 C   0  0  0  0  0  0  0  0  0  0  0  0
    1.4091    1.1640    2.0162 N   0  0  0  0  0  0  0  0  0  0  0  0
    2.4823    1.7511    1.1937 C   0  0  0  0  0  0  0  0  0  0  0  0
    3.4763    0.6870    0.6890 C   0  0  0  0  0  0  0  0  0  0  0  0
    2.8050   -0.3147   -0.2022 N   0  0  0  0  0  0  0  0  0  0  0  0
    3.6073   -1.8065   -0.3616 S   0  0  0  0  0  6  0  0  0  0  0  0
    2.9165   -2.6115   -1.3455 O   0  0  0  0  0  0  0  0  0  0  0  0
    3.8196   -2.3204    0.9790 O   0  0  0  0  0  0  0  0  0  0  0  0
    5.1752   -1.3619   -1.0325 C   0  0  0  0  0  0  0  0  0  0  0  0
    6.3445   -1.5783   -0.3017 C   0  0  0  0  0  0  0  0  0  0  0  0
    7.5750   -1.2150   -0.8540 C   0  0  0  0  0  0  0  0  0  0  0  0
    7.6317   -0.6432   -2.1275 C   0  0  0  0  0  0  0  0  0  0  0  0
    6.4616   -0.4397   -2.8524 C   0  0  0  0  0  0  0  0  0  0  0  0
    5.2341   -0.8027   -2.3028 C   0  0  0  0  0  0  0  0  0  0  0  0
    4.1283   -0.5871   -3.0219 F   0  0  0  0  0  0  0  0  0  0  0  0
    1.3333   -0.4331    0.0520 C   0  0  0  0  0  0  0  0  0  0  0  0
    0.9844   -0.1587    1.5258 C   0  0  0  0  0  0  0  0  0  0  0  0
   -1.6397    1.7838    0.8800 N   0  0  0  0  0  0  0  0  0  0  0  0
   -2.6070    1.8789   -0.1512 C   0  0  0  0  0  0  0  0  0  0  0  0
   -2.4735    2.7737   -1.2173 C   0  0  0  0  0  0  0  0  0  0  0  0
   -3.4726    2.8856   -2.1947 C   0  0  0  0  0  0  0  0  0  0  0  0
   -4.6237    2.1116   -2.1127 C   0  0  0  0  0  0  0  0  0  0  0  0
   -4.7687    1.1988   -1.0690 C   0  0  0  0  0  0  0  0  0  0  0  0
   -3.7551    1.0498   -0.1035 C   0  0  0  0  0  0  0  0  0  0  0  0
   -3.9152    0.0364    0.9906 C   0  0  0  0  0  0  0  0  0  0  0  0
   -3.2883    0.1574    2.0418 O   0  0  0  0  0  0  0  0  0  0  0  0
   -4.7945   -1.1473    0.8354 C   0  0  0  0  0  0  0  0  0  0  0  0
   -4.7545   -1.9365   -0.3223 C   0  0  0  0  0  0  0  0  0  0  0  0
   -5.5981   -3.0463   -0.4336 C   0  0  0  0  0  0  0  0  0  0  0  0
   -6.4722   -3.3706    0.6077 C   0  0  0  0  0  0  0  0  0  0  0  0
   -6.4919   -2.5989    1.7726 C   0  0  0  0  0  0  0  0  0  0  0  0
   -5.6446   -1.4931    1.8924 C   0  0  0  0  0  0  0  0  0  0  0  0
    0.7073    3.0157    2.7641 H   0  0  0  0  0  0  0  0  0  0  0  0
   -0.3641    1.6682    3.0478 H   0  0  0  0  0  0  0  0  0  0  0  0
    2.0831    2.2690    0.3154 H   0  0  0  0  0  0  0  0  0  0  0  0
    3.0263    2.4923    1.7909 H   0  0  0  0  0  0  0  0  0  0  0  0
    3.9436    0.1951    1.5486 H   0  0  0  0  0  0  0  0  0  0  0  0
    4.2614    1.1868    0.1123 H   0  0  0  0  0  0  0  0  0  0  0  0
    6.3075   -2.0296    0.6896 H   0  0  0  0  0  0  0  0  0  0  0  0
    8.4880   -1.3782   -0.2932 H   0  0  0  0  0  0  0  0  0  0  0  0
    8.5890   -0.3588   -2.5586 H   0  0  0  0  0  0  0  0  0  0  0  0
    6.4947    0.0035   -3.8458 H   0  0  0  0  0  0  0  0  0  0  0  0
    0.9606   -1.4244   -0.2281 H   0  0  0  0  0  0  0  0  0  0  0  0
    0.8254    0.2807   -0.6059 H   0  0  0  0  0  0  0  0  0  0  0  0
    1.5014   -0.9044    2.1423 H   0  0  0  0  0  0  0  0  0  0  0  0
   -0.0840   -0.3351    1.6957 H   0  0  0  0  0  0  0  0  0  0  0  0
   -1.8937    1.1373    1.6292 H   0  0  0  0  0  0  0  0  0  0  0  0
   -1.6040    3.4155   -1.3162 H   0  0  0  0  0  0  0  0  0  0  0  0
   -3.3493    3.5947   -3.0114 H   0  0  0  0  0  0  0  0  0  0  0  0
   -5.4095    2.2239   -2.8578 H   0  0  0  0  0  0  0  0  0  0  0  0
   -5.6890    0.6219   -1.0200 H   0  0  0  0  0  0  0  0  0  0  0  0
   -4.0721   -1.7027   -1.1359 H   0  0  0  0  0  0  0  0  0  0  0  0
   -5.5757   -3.6612   -1.3334 H   0  0  0  0  0  0  0  0  0  0  0  0
   -7.1336   -4.2310    0.5179 H   0  0  0  0  0  0  0  0  0  0  0  0
   -7.1744   -2.8549    2.5851 H   0  0  0  0  0  0  0  0  0  0  0  0
   -5.6569   -0.8967    2.8055 H   0  0  0  0  0  0  0  0  0  0  0  0
  1  2  2  0
  2  3  1  0
  3  4  1  0
  4  5  1  0
  5  6  1  0
  6  7  1  0
  7  8  1  0
  8  9  2  0
  8 10  2  0
  8 11  1  0
 11 12  2  0
 12 13  1  0
 13 14  2  0
 14 15  1  0
 15 16  2  0
 16 17  1  0
  7 18  1  0
 18 19  1  0
  2 20  1  0
 20 21  1  0
 21 22  2  0
 22 23  1  0
 23 24  2  0
 24 25  1  0
 25 26  2  0
 26 27  1  0
 27 28  2  0
 27 29  1  0
 29 30  2  0
 30 31  1  0
 31 32  2  0
 32 33  1  0
 33 34  2  0
 19  4  1  0
 26 21  1  0
 34 29  1  0
 16 11  1  0
  3 35  1  0
  3 36  1  0
  5 37  1  0
  5 38  1  0
  6 39  1  0
  6 40  1  0
 12 41  1  0
 13 42  1  0
 14 43  1  0
 15 44  1  0
 18 45  1  0
 18 46  1  0
 19 47  1  0
 19 48  1  0
 20 49  1  0
 22 50  1  0
 23 51  1  0
 24 52  1  0
 25 53  1  0
 30 54  1  0
 31 55  1  0
 32 56  1  0
 33 57  1  0
 34 58  1  0
M  END
$$$$
