
     RDKit          3D

 67 71  0  0  0  0  0  0  0  0999 V2000
   -5.4674   -2.9950    0.5551 C   0  0  0  0  0  0  0  0  0  0  0  0
   -5.2386   -2.0572    1.6005 O   0  0  0  0  0  0  0  0  0  0  0  0
   -4.5537   -0.8972    1.1198 C   0  0  0  0  0  0  0  0  0  0  0  0
   -4.7668    0.1912    2.1203 C   0  0  0  0  0  0  0  0  0  0  0  0
   -3.8309    0.9943    2.6540 C   0  0  0  0  0  0  0  0  0  0  0  0
   -2.4116    0.9810    2.3437 C   0  0  0  0  0  0  0  0  0  0  0  0
   -1.6390   -0.0062    2.8558 C   0  0  0  0  0  0  0  0  0  0  0  0
   -0.2052   -0.0351    2.5498 C   0  0  0  0  0  0  0  0  0  0  0  0
    0.5636   -1.0214    3.0327 C   0  0  0  0  0  0  0  0  0  0  0  0
    2.0169   -1.0957    2.7524 C   0  0  0  0  0  0  0  0  0  0  0  0
    2.6215   -2.1064    3.1157 O   0  0  0  0  0  0  0  0  0  0  0  0
    2.7216    0.0911    2.0856 C   0  0  0  0  0  0  0  0  0  0  0  0
    3.3807    0.9036    3.2122 C   0  0  0  0  0  0  0  0  0  0  0  0
    3.7986   -0.3446    1.2404 O   0  0  0  0  0  0  0  0  0  0  0  0
    3.4199   -1.0979    0.1742 C   0  0  0  0  0  0  0  0  0  0  0  0
    2.2675   -1.4156   -0.0854 O   0  0  0  0  0  0  0  0  0  0  0  0
    4.5890   -1.4959   -0.6472 C   0  0  0  0  0  0  0  0  0  0  0  0
    4.3911   -2.3701   -1.7013 C   0  0  0  0  0  0  0  0  0  0  0  0
    5.4028   -2.7798   -2.5043 N   0  0  0  0  0  0  0  0  0  0  0  0
    6.6244   -2.2801   -2.2273 C   0  0  0  0  0  0  0  0  0  0  0  0
    7.7077   -2.6501   -3.0136 C   0  0  0  0  0  0  0  0  0  0  0  0
    8.9875   -2.1536   -2.7661 C   0  0  0  0  0  0  0  0  0  0  0  0
    9.1885   -1.2699   -1.7137 C   0  0  0  0  0  0  0  0  0  0  0  0
    8.1083   -0.8911   -0.9151 C   0  0  0  0  0  0  0  0  0  0  0  0
    6.8290   -1.3792   -1.1483 C   0  0  0  0  0  0  0  0  0  0  0  0
    5.8150   -0.9873   -0.3526 N   0  0  0  0  0  0  0  0  0  0  0  0
    1.7897    1.0504    1.3413 C   0  0  0  0  0  0  0  0  0  0  0  0
    2.2103    1.8590    0.5095 O   0  0  0  0  0  0  0  0  0  0  0  0
    0.3484    1.0103    1.7015 C   0  0  0  0  0  0  0  0  0  0  0  0
   -0.4878    1.9543    1.2332 C   0  0  0  0  0  0  0  0  0  0  0  0
   -1.8639    1.9932    1.5145 N   0  0  0  0  0  0  0  0  0  0  0  0
   -2.6985    3.0416    0.8839 C   0  0  0  0  0  0  0  0  0  0  0  0
   -3.4323    2.5826   -0.3640 C   0  0  0  0  0  0  0  0  0  0  0  0
   -2.9897    1.5217   -1.1675 C   0  0  0  0  0  0  0  0  0  0  0  0
   -3.6813    1.1564   -2.3300 C   0  0  0  0  0  0  0  0  0  0  0  0
   -4.8217    1.8567   -2.7178 C   0  0  0  0  0  0  0  0  0  0  0  0
   -5.5862    1.6072   -3.8230 O   0  0  0  0  0  0  0  0  0  0  0  0
   -5.1242    0.5959   -4.7104 C   0  0  0  0  0  0  0  0  0  0  0  0
   -5.2582    2.9298   -1.9384 C   0  0  0  0  0  0  0  0  0  0  0  0
   -4.5690    3.2960   -0.7804 C   0  0  0  0  0  0  0  0  0  0  0  0
   -5.9376   -3.8855    0.9838 H   0  0  0  0  0  0  0  0  0  0  0  0
   -6.1482   -2.5697   -0.1909 H   0  0  0  0  0  0  0  0  0  0  0  0
   -4.5251   -3.2841    0.0789 H   0  0  0  0  0  0  0  0  0  0  0  0
   -3.4981   -1.1542    0.9844 H   0  0  0  0  0  0  0  0  0  0  0  0
   -4.9594   -0.5950    0.1495 H   0  0  0  0  0  0  0  0  0  0  0  0
   -5.7999    0.3440    2.4167 H   0  0  0  0  0  0  0  0  0  0  0  0
   -4.1357    1.7639    3.3620 H   0  0  0  0  0  0  0  0  0  0  0  0
   -2.0656   -0.7805    3.4877 H   0  0  0  0  0  0  0  0  0  0  0  0
    0.1708   -1.8299    3.6413 H   0  0  0  0  0  0  0  0  0  0  0  0
    2.6458    1.2631    3.9388 H   0  0  0  0  0  0  0  0  0  0  0  0
    4.1222    0.3008    3.7503 H   0  0  0  0  0  0  0  0  0  0  0  0
    3.9163    1.7714    2.8124 H   0  0  0  0  0  0  0  0  0  0  0  0
    3.4114   -2.7738   -1.9361 H   0  0  0  0  0  0  0  0  0  0  0  0
    7.5479   -3.3422   -3.8366 H   0  0  0  0  0  0  0  0  0  0  0  0
    9.8210   -2.4582   -3.3929 H   0  0  0  0  0  0  0  0  0  0  0  0
   10.1817   -0.8771   -1.5077 H   0  0  0  0  0  0  0  0  0  0  0  0
    8.2656   -0.1986   -0.0904 H   0  0  0  0  0  0  0  0  0  0  0  0
   -0.1377    2.7544    0.5832 H   0  0  0  0  0  0  0  0  0  0  0  0
   -3.4223    3.4217    1.6177 H   0  0  0  0  0  0  0  0  0  0  0  0
   -2.0759    3.9051    0.6096 H   0  0  0  0  0  0  0  0  0  0  0  0
   -2.0938    0.9660   -0.9029 H   0  0  0  0  0  0  0  0  0  0  0  0
   -3.2980    0.3221   -2.9085 H   0  0  0  0  0  0  0  0  0  0  0  0
   -5.1040   -0.3853   -4.2230 H   0  0  0  0  0  0  0  0  0  0  0  0
   -5.8316    0.5378   -5.5432 H   0  0  0  0  0  0  0  0  0  0  0  0
   -4.1423    0.8547   -5.1233 H   0  0  0  0  0  0  0  0  0  0  0  0
   -6.1333    3.4979   -2.2494 H   0  0  0  0  0  0  0  0  0  0  0  0
   -4.9304    4.1438   -0.2012 H   0  0  0  0  0  0  0  0  0  0  0  0
  1  2  1  0
  2  3  1  0
  3  4  1  0
  4  5  2  3
  5  6  1  0
  6  7  2  0
  7  8  1  0
  8  9  2  0
  9 10  1  0
 10 11  2  0
 10 12  1  0
 12 13  1  0
 12 14  1  0
 14 15  1  0
 15 16  2  0
 15 17  1  0
 17 18  2  0
 18 19  1  0
 19 20  2  0
 20 21  1  0
 21 22  2  0
 22 23  1  0
 23 24  2  0
 24 25  1  0
 25 26  2  0
 12 27  1  0
 27 28  2  0
 27 29  1  0
 29 30  2  0
 30 31  1  0
 31 32  1  0
 32 33  1  0
 33 34  2  0
 34 35  1  0
 35 36  2  0
 36 37  1  0
 37 38  1  0
 36 39  1  0
 39 40  2  0
 31  6  1  0
 40 33  1  0
 29  8  1  0
 26 17  1  0
 25 20  1  0
  1 41  1  0
  1 42  1  0
  1 43  1  0
  3 44  1  0
  3 45  1  0
  4 46  1  0
  5 47  1  0
  7 48  1  0
  9 49  1  0
 13 50  1  0
 13 51  1  0
 13 52  1  0
 18 53  1  0
 21 54  1  0
 22 55  1  0
 23 56  1  0
 24 57  1  0
 30 58  1  0
 32 59  1  0
 32 60  1  0
 34 61  1  0
 35 62  1  0
 38 63  1  0
 38 64  1  0
 38 65  1  0
 39 66  1  0
 40 67  1  0
M  END
$$$$
