
     RDKit          3D

 80 86  0  0  0  0  0  0  0  0999 V2000
   -5.0986   -2.3318    1.5592 C   0  0  0  0  0  0  0  0  0  0  0  0
   -4.0566   -1.2593    1.6946 C   0  0  0  0  0  0  0  0  0  0  0  0
   -4.1070   -0.3451    2.7726 C   0  0  0  0  0  0  0  0  0  0  0  0
   -5.4609   -0.2792    3.8520 Cl  0  0  0  0  0  0  0  0  0  0  0  0
   -3.0582    0.5533    3.0322 C   0  0  0  0  0  0  0  0  0  0  0  0
   -1.9264    0.5658    2.2271 C   0  0  0  0  0  0  0  0  0  0  0  0
   -1.8946   -0.2833    1.1295 C   0  0  0  0  0  0  0  0  0  0  0  0
   -2.9612   -1.1508    0.8308 C   0  0  0  0  0  0  0  0  0  0  0  0
   -2.6673   -1.8284   -0.3798 N   0  0  0  0  0  0  0  0  0  0  0  0
   -3.6401   -2.3274   -1.3319 C   0  0  0  0  0  0  0  0  0  0  0  0
   -4.1844   -1.2047   -2.1971 C   0  0  0  0  0  0  0  0  0  0  0  0
   -5.3252   -0.4827   -1.8196 C   0  0  0  0  0  0  0  0  0  0  0  0
   -5.7734    0.5941   -2.5874 C   0  0  0  0  0  0  0  0  0  0  0  0
   -5.0859    0.9650   -3.7401 C   0  0  0  0  0  0  0  0  0  0  0  0
   -3.9531    0.2563   -4.1300 C   0  0  0  0  0  0  0  0  0  0  0  0
   -3.5058   -0.8216   -3.3652 C   0  0  0  0  0  0  0  0  0  0  0  0
   -1.3666   -1.5143   -0.8437 C   0  0  0  0  0  0  0  0  0  0  0  0
   -0.8248   -1.9756   -1.8401 O   0  0  0  0  0  0  0  0  0  0  0  0
   -0.8062   -0.4527    0.1139 C   0  0  1  0  0  0  0  0  0  0  0  0
   -0.5597    0.8540   -0.5597 C   0  0  0  0  0  0  0  0  0  0  0  0
    0.8223    1.0493   -0.7124 C   0  0  0  0  0  0  0  0  0  0  0  0
    1.0438    2.2800   -1.2574 C   0  0  0  0  0  0  0  0  0  0  0  0
    2.2100    2.8992   -1.4302 O   0  0  0  0  0  0  0  0  0  0  0  0
   -0.2197    2.8252   -1.5702 N   0  0  0  0  0  0  0  0  0  0  0  0
   -0.4529    4.0392   -2.2928 C   0  0  0  0  0  0  0  0  0  0  0  0
    0.4419    4.4471   -3.2943 C   0  0  0  0  0  0  0  0  0  0  0  0
    0.2178    5.6317   -4.0002 C   0  0  0  0  0  0  0  0  0  0  0  0
   -0.8995    6.4139   -3.7165 C   0  0  0  0  0  0  0  0  0  0  0  0
   -1.8004    6.0079   -2.7342 C   0  0  0  0  0  0  0  0  0  0  0  0
   -1.5831    4.8224   -2.0272 C   0  0  0  0  0  0  0  0  0  0  0  0
   -1.2097    1.9402   -1.0908 C   0  0  0  0  0  0  0  0  0  0  0  0
   -2.5106    2.1773   -1.2437 O   0  0  0  0  0  0  0  0  0  0  0  0
    1.5690   -0.1206   -0.2141 C   0  0  1  0  0  0  0  0  0  0  0  0
    2.8461    0.0913    0.5891 C   0  0  0  0  0  0  0  0  0  0  0  0
    3.2947   -1.1750    1.2040 N   0  0  0  0  0  0  0  0  0  0  0  0
    4.6198   -1.2541    1.6038 C   0  0  0  0  0  0  0  0  0  0  0  0
    5.4710   -0.4283    1.2992 O   0  0  0  0  0  0  0  0  0  0  0  0
    4.8554   -2.3488    2.3728 O   0  0  0  0  0  0  0  0  0  0  0  0
    6.1784   -2.6217    2.9013 C   0  0  0  0  0  0  0  0  0  0  0  0
    6.0114   -3.9185    3.7089 C   0  0  0  0  0  0  0  0  0  0  0  0
    7.1871   -2.8733    1.7757 C   0  0  0  0  0  0  0  0  0  0  0  0
    6.6413   -1.5113    3.8513 C   0  0  0  0  0  0  0  0  0  0  0  0
    2.2586   -2.0200    1.8296 C   0  0  0  0  0  0  0  0  0  0  0  0
    0.9194   -2.0784    1.0502 C   0  0  0  0  0  0  0  0  0  0  0  0
    0.5315   -0.7303    0.6797 N   0  0  0  0  0  0  0  0  0  0  0  0
   -5.5346   -2.6079    2.5241 H   0  0  0  0  0  0  0  0  0  0  0  0
   -5.9078   -2.0144    0.8988 H   0  0  0  0  0  0  0  0  0  0  0  0
   -4.6527   -3.2615    1.1922 H   0  0  0  0  0  0  0  0  0  0  0  0
   -3.1159    1.2335    3.8795 H   0  0  0  0  0  0  0  0  0  0  0  0
   -1.0978    1.2367    2.4380 H   0  0  0  0  0  0  0  0  0  0  0  0
   -3.1483   -3.0651   -1.9790 H   0  0  0  0  0  0  0  0  0  0  0  0
   -4.4551   -2.8632   -0.8464 H   0  0  0  0  0  0  0  0  0  0  0  0
   -5.8768   -0.7423   -0.9218 H   0  0  0  0  0  0  0  0  0  0  0  0
   -6.6575    1.1489   -2.2832 H   0  0  0  0  0  0  0  0  0  0  0  0
   -5.4282    1.8093   -4.3324 H   0  0  0  0  0  0  0  0  0  0  0  0
   -3.4093    0.5487   -5.0251 H   0  0  0  0  0  0  0  0  0  0  0  0
   -2.6088   -1.3527   -3.6820 H   0  0  0  0  0  0  0  0  0  0  0  0
    2.0483    3.8592   -1.4800 H   0  0  0  0  0  0  0  0  0  0  0  0
    1.2910    3.8310   -3.5837 H   0  0  0  0  0  0  0  0  0  0  0  0
    0.9080    5.9354   -4.7839 H   0  0  0  0  0  0  0  0  0  0  0  0
   -1.0746    7.3338   -4.2680 H   0  0  0  0  0  0  0  0  0  0  0  0
   -2.6756    6.6144   -2.5147 H   0  0  0  0  0  0  0  0  0  0  0  0
   -2.2949    4.5471   -1.2533 H   0  0  0  0  0  0  0  0  0  0  0  0
   -3.0014    1.3503   -1.0842 H   0  0  0  0  0  0  0  0  0  0  0  0
    1.7722   -0.7905   -1.0619 H   0  0  0  0  0  0  0  0  0  0  0  0
    3.6386    0.4922   -0.0532 H   0  0  0  0  0  0  0  0  0  0  0  0
    2.6949    0.8123    1.4029 H   0  0  0  0  0  0  0  0  0  0  0  0
    6.9557   -4.2449    4.1557 H   0  0  0  0  0  0  0  0  0  0  0  0
    5.6305   -4.7266    3.0740 H   0  0  0  0  0  0  0  0  0  0  0  0
    5.2778   -3.7851    4.5122 H   0  0  0  0  0  0  0  0  0  0  0  0
    7.3999   -1.9634    1.2069 H   0  0  0  0  0  0  0  0  0  0  0  0
    8.1398   -3.2427    2.1692 H   0  0  0  0  0  0  0  0  0  0  0  0
    6.7965   -3.6068    1.0617 H   0  0  0  0  0  0  0  0  0  0  0  0
    7.5482   -1.8019    4.3937 H   0  0  0  0  0  0  0  0  0  0  0  0
    6.8650   -0.5829    3.3176 H   0  0  0  0  0  0  0  0  0  0  0  0
    5.8591   -1.2742    4.5821 H   0  0  0  0  0  0  0  0  0  0  0  0
    2.0836   -1.6066    2.8310 H   0  0  0  0  0  0  0  0  0  0  0  0
    2.6391   -3.0388    1.9579 H   0  0  0  0  0  0  0  0  0  0  0  0
    0.1630   -2.5435    1.6917 H   0  0  0  0  0  0  0  0  0  0  0  0
    1.0402   -2.7139    0.1647 H   0  0  0  0  0  0  0  0  0  0  0  0
  1  2  1  0
  2  3  2  0
  3  4  1  0
  3  5  1  0
  5  6  2  0
  6  7  1  0
  7  8  2  0
  8  9  1  0
  9 10  1  0
 10 11  1  0
 11 12  2  0
 12 13  1  0
 13 14  2  0
 14 15  1  0
 15 16  2  0
  9 17  1  0
 17 18  2  0
 17 19  1  0
 19 20  1  0
 20 21  1  0
 21 22  2  0
 22 23  1  0
 22 24  1  0
 24 25  1  0
 25 26  2  0
 26 27  1  0
 27 28  2  0
 28 29  1  0
 29 30  2  0
 24 31  1  0
 31 32  1  0
 21 33  1  0
 33 34  1  0
 34 35  1  0
 35 36  1  0
 36 37  2  0
 36 38  1  0
 38 39  1  0
 39 40  1  0
 39 41  1  0
 39 42  1  0
 35 43  1  0
 43 44  1  0
 44 45  1  0
  8  2  1  0
 16 11  1  0
 19 45  1  1
 19  7  1  0
 31 20  2  0
 45 33  1  0
 30 25  1  0
  1 46  1  0
  1 47  1  0
  1 48  1  0
  5 49  1  0
  6 50  1  0
 10 51  1  0
 10 52  1  0
 12 53  1  0
 13 54  1  0
 14 55  1  0
 15 56  1  0
 16 57  1  0
 23 58  1  0
 26 59  1  0
 27 60  1  0
 28 61  1  0
 29 62  1  0
 30 63  1  0
 32 64  1  0
 33 65  1  6
 34 66  1  0
 34 67  1  0
 40 68  1  0
 40 69  1  0
 40 70  1  0
 41 71  1  0
 41 72  1  0
 41 73  1  0
 42 74  1  0
 42 75  1  0
 42 76  1  0
 43 77  1  0
 43 78  1  0
 44 79  1  0
 44 80  1  0
M  END
$$$$
