
     RDKit          3D

 40 42  0  0  0  0  0  0  0  0999 V2000
    1.1443    1.5881   -0.9502 O   0  0  0  0  0  0  0  0  0  0  0  0
    0.5780    0.6288   -0.4202 C   0  0  0  0  0  0  0  0  0  0  0  0
    1.2104   -0.4172    0.2322 N   0  0  0  0  0  0  0  0  0  0  0  0
    2.5624   -0.6472    0.2665 N   0  0  0  0  0  0  0  0  0  0  0  0
    3.3627    0.3699    0.3074 C   0  0  0  0  0  0  0  0  0  0  0  0
    4.8301    0.1967    0.2956 C   0  0  0  0  0  0  0  0  0  0  0  0
    5.4054   -1.0788    0.2336 C   0  0  0  0  0  0  0  0  0  0  0  0
    6.7953   -1.2181    0.2239 C   0  0  0  0  0  0  0  0  0  0  0  0
    7.6057   -0.0845    0.2756 C   0  0  0  0  0  0  0  0  0  0  0  0
    7.0209    1.1770    0.3358 C   0  0  0  0  0  0  0  0  0  0  0  0
    7.8041    2.2625    0.3848 F   0  0  0  0  0  0  0  0  0  0  0  0
    5.6395    1.3325    0.3461 C   0  0  0  0  0  0  0  0  0  0  0  0
   -0.9119    0.5381   -0.4694 C   0  0  0  0  0  0  0  0  0  0  0  0
   -1.6348    1.5354   -1.0240 C   0  0  0  0  0  0  0  0  0  0  0  0
   -1.0966    2.6738   -1.5784 O   0  0  0  0  0  0  0  0  0  0  0  0
   -2.9998    1.5002   -1.0818 N   0  0  0  0  0  0  0  0  0  0  0  0
   -3.7605    0.4671   -0.5954 C   0  0  0  0  0  0  0  0  0  0  0  0
   -3.1810   -0.6044   -0.0231 C   0  0  0  0  0  0  0  0  0  0  0  0
   -1.6866   -0.6221    0.0690 C   0  0  0  0  0  0  0  0  0  0  0  0
   -1.1078   -1.5818    0.5784 O   0  0  0  0  0  0  0  0  0  0  0  0
   -3.9346   -1.7855    0.5135 C   0  0  0  0  0  0  0  0  0  0  0  0
   -5.3997   -1.8054    0.0706 C   0  0  0  0  0  0  0  0  0  0  0  0
   -6.0211   -0.4155    0.1572 C   0  0  0  0  0  0  0  0  0  0  0  0
   -5.2609    0.5851   -0.7173 C   0  0  0  0  0  0  0  0  0  0  0  0
    0.6472   -1.2381    0.4783 H   0  0  0  0  0  0  0  0  0  0  0  0
    3.0054    1.4104    0.3860 H   0  0  0  0  0  0  0  0  0  0  0  0
    4.7759   -1.9655    0.1923 H   0  0  0  0  0  0  0  0  0  0  0  0
    7.2423   -2.2080    0.1757 H   0  0  0  0  0  0  0  0  0  0  0  0
    8.6875   -0.1752    0.2686 H   0  0  0  0  0  0  0  0  0  0  0  0
    5.2188    2.3315    0.3909 H   0  0  0  0  0  0  0  0  0  0  0  0
   -0.1163    2.6065   -1.5277 H   0  0  0  0  0  0  0  0  0  0  0  0
   -3.4458    2.3022   -1.5165 H   0  0  0  0  0  0  0  0  0  0  0  0
   -3.8881   -1.7599    1.6092 H   0  0  0  0  0  0  0  0  0  0  0  0
   -3.4628   -2.7211    0.1910 H   0  0  0  0  0  0  0  0  0  0  0  0
   -5.4664   -2.1694   -0.9627 H   0  0  0  0  0  0  0  0  0  0  0  0
   -5.9632   -2.5099    0.6927 H   0  0  0  0  0  0  0  0  0  0  0  0
   -6.0097   -0.0756    1.2007 H   0  0  0  0  0  0  0  0  0  0  0  0
   -7.0712   -0.4527   -0.1541 H   0  0  0  0  0  0  0  0  0  0  0  0
   -5.5812    1.5984   -0.4460 H   0  0  0  0  0  0  0  0  0  0  0  0
   -5.5361    0.4318   -1.7684 H   0  0  0  0  0  0  0  0  0  0  0  0
  1  2  2  0
  2  3  1  0
  3  4  1  0
  4  5  2  3
  5  6  1  0
  6  7  2  0
  7  8  1  0
  8  9  2  0
  9 10  1  0
 10 11  1  0
 10 12  2  0
  2 13  1  0
 13 14  2  0
 14 15  1  0
 14 16  1  0
 16 17  1  0
 17 18  2  0
 18 19  1  0
 19 20  2  0
 18 21  1  0
 21 22  1  0
 22 23  1  0
 23 24  1  0
 12  6  1  0
 19 13  1  0
 24 17  1  0
  3 25  1  0
  5 26  1  0
  7 27  1  0
  8 28  1  0
  9 29  1  0
 12 30  1  0
 15 31  1  0
 16 32  1  0
 21 33  1  0
 21 34  1  0
 22 35  1  0
 22 36  1  0
 23 37  1  0
 23 38  1  0
 24 39  1  0
 24 40  1  0
M  END
$$$$
