
     RDKit          3D

 36 38  0  0  0  0  0  0  0  0999 V2000
   -1.7911    4.0577   -0.0070 N   0  0  0  0  0  0  0  0  0  0  0  0
   -1.4427    2.9569   -0.1397 C   0  0  0  0  0  0  0  0  0  0  0  0
   -1.0449    1.5955   -0.2805 C   0  0  0  0  0  0  0  0  0  0  0  0
    0.0289    1.2514   -1.0733 N   0  0  0  0  0  0  0  0  0  0  0  0
    0.0965   -0.0588   -0.9367 C   0  0  0  0  0  0  0  0  0  0  0  0
    1.0648   -1.0134   -1.5418 C   0  0  0  0  0  0  0  0  0  0  0  0
    2.2262   -1.0252   -0.6971 O   0  0  0  0  0  0  0  0  0  0  0  0
    3.3572   -0.7307   -1.4108 C   0  0  0  0  0  0  0  0  0  0  0  0
    3.8038    0.5924   -1.3984 C   0  0  0  0  0  0  0  0  0  0  0  0
    4.9694    0.9333   -2.0847 C   0  0  0  0  0  0  0  0  0  0  0  0
    5.6871   -0.0524   -2.7651 C   0  0  0  0  0  0  0  0  0  0  0  0
    7.1239    0.3734   -3.6089 Cl  0  0  0  0  0  0  0  0  0  0  0  0
    5.2526   -1.3780   -2.7685 C   0  0  0  0  0  0  0  0  0  0  0  0
    4.0863   -1.7189   -2.0837 C   0  0  0  0  0  0  0  0  0  0  0  0
    3.5696   -3.3646   -2.0959 Cl  0  0  0  0  0  0  0  0  0  0  0  0
   -0.8626   -0.5937   -0.1225 O   0  0  0  0  0  0  0  0  0  0  0  0
   -1.6041    0.4763    0.3121 C   0  0  0  0  0  0  0  0  0  0  0  0
   -2.6398    0.2075    1.1477 N   0  0  0  0  0  0  0  0  0  0  0  0
   -3.5499    1.2527    1.6350 C   0  0  0  0  0  0  0  0  0  0  0  0
   -4.8281    0.6192    2.2097 C   0  0  0  0  0  0  0  0  0  0  0  0
   -4.5905   -0.2937    3.2895 O   0  0  0  0  0  0  0  0  0  0  0  0
   -3.3219   -0.9585    3.2099 C   0  0  0  0  0  0  0  0  0  0  0  0
   -2.7839   -1.1138    1.7781 C   0  0  0  0  0  0  0  0  0  0  0  0
    1.2801   -0.7141   -2.5762 H   0  0  0  0  0  0  0  0  0  0  0  0
    0.6459   -2.0255   -1.5603 H   0  0  0  0  0  0  0  0  0  0  0  0
    3.2431    1.3554   -0.8626 H   0  0  0  0  0  0  0  0  0  0  0  0
    5.3130    1.9654   -2.0827 H   0  0  0  0  0  0  0  0  0  0  0  0
    5.8202   -2.1385   -3.2985 H   0  0  0  0  0  0  0  0  0  0  0  0
   -3.8413    1.9260    0.8216 H   0  0  0  0  0  0  0  0  0  0  0  0
   -3.0420    1.8342    2.4143 H   0  0  0  0  0  0  0  0  0  0  0  0
   -5.3654    0.0720    1.4261 H   0  0  0  0  0  0  0  0  0  0  0  0
   -5.5001    1.3994    2.5806 H   0  0  0  0  0  0  0  0  0  0  0  0
   -3.4363   -1.9413    3.6780 H   0  0  0  0  0  0  0  0  0  0  0  0
   -2.6122   -0.3872    3.8200 H   0  0  0  0  0  0  0  0  0  0  0  0
   -1.8295   -1.6506    1.8275 H   0  0  0  0  0  0  0  0  0  0  0  0
   -3.4820   -1.7100    1.1792 H   0  0  0  0  0  0  0  0  0  0  0  0
  1  2  3  0
  2  3  1  0
  3  4  1  0
  4  5  2  0
  5  6  1  0
  6  7  1  0
  7  8  1  0
  8  9  2  0
  9 10  1  0
 10 11  2  0
 11 12  1  0
 11 13  1  0
 13 14  2  0
 14 15  1  0
  5 16  1  0
 16 17  1  0
 17 18  1  0
 18 19  1  0
 19 20  1  0
 20 21  1  0
 21 22  1  0
 22 23  1  0
 17  3  2  0
 23 18  1  0
 14  8  1  0
  6 24  1  0
  6 25  1  0
  9 26  1  0
 10 27  1  0
 13 28  1  0
 19 29  1  0
 19 30  1  0
 20 31  1  0
 20 32  1  0
 22 33  1  0
 22 34  1  0
 23 35  1  0
 23 36  1  0
M  END
$$$$
