
     RDKit          3D

 45 46  0  0  0  0  0  0  0  0999 V2000
   -8.4091   -0.7336   -0.2241 C   0  0  0  0  0  0  0  0  0  0  0  0
   -7.1767    0.1518   -0.2703 C   0  0  0  0  0  0  0  0  0  0  0  0
   -6.0379   -0.6882   -0.4466 O   0  0  0  0  0  0  0  0  0  0  0  0
   -4.8169   -0.0774   -0.5212 C   0  0  0  0  0  0  0  0  0  0  0  0
   -3.7402   -0.9469   -0.7056 C   0  0  0  0  0  0  0  0  0  0  0  0
   -2.4356   -0.4575   -0.7999 C   0  0  0  0  0  0  0  0  0  0  0  0
   -2.1875    0.9180   -0.7134 C   0  0  0  0  0  0  0  0  0  0  0  0
   -0.7776    1.4424   -0.7904 C   0  0  0  0  0  0  0  0  0  0  0  0
   -0.0961    1.2566    0.4698 N   0  0  0  0  0  0  0  0  0  0  0  0
    0.7993    0.2467    0.6546 C   0  0  0  0  0  0  0  0  0  0  0  0
    1.1977   -0.4872   -0.2340 O   0  0  0  0  0  0  0  0  0  0  0  0
    1.2203    0.1577    1.9687 N   0  0  0  0  0  0  0  0  0  0  0  0
    2.2755   -0.9815    2.5576 S   0  0  0  0  0  6  0  0  0  0  0  0
    2.4834   -0.6215    3.9465 O   0  0  0  0  0  0  0  0  0  0  0  0
    1.8132   -2.3038    2.2017 O   0  0  0  0  0  0  0  0  0  0  0  0
    3.7856   -0.6356    1.6922 C   0  0  0  0  0  0  0  0  0  0  0  0
    4.1153   -1.3673    0.5491 C   0  0  0  0  0  0  0  0  0  0  0  0
    5.3186   -1.1130   -0.1171 C   0  0  0  0  0  0  0  0  0  0  0  0
    6.1968   -0.1404    0.3660 C   0  0  0  0  0  0  0  0  0  0  0  0
    7.3985    0.2044   -0.1889 O   0  0  0  0  0  0  0  0  0  0  0  0
    7.7932   -0.5040   -1.3573 C   0  0  0  0  0  0  0  0  0  0  0  0
    5.8639    0.5732    1.5226 C   0  0  0  0  0  0  0  0  0  0  0  0
    4.6640    0.3272    2.1931 C   0  0  0  0  0  0  0  0  0  0  0  0
   -3.2693    1.7874   -0.5207 C   0  0  0  0  0  0  0  0  0  0  0  0
   -4.5761    1.2931   -0.4283 C   0  0  0  0  0  0  0  0  0  0  0  0
   -9.3144   -0.1350   -0.0894 H   0  0  0  0  0  0  0  0  0  0  0  0
   -8.3357   -1.4539    0.5974 H   0  0  0  0  0  0  0  0  0  0  0  0
   -8.5024   -1.3130   -1.1487 H   0  0  0  0  0  0  0  0  0  0  0  0
   -7.0986    0.7054    0.6725 H   0  0  0  0  0  0  0  0  0  0  0  0
   -7.2689    0.8495   -1.1107 H   0  0  0  0  0  0  0  0  0  0  0  0
   -3.9180   -2.0176   -0.7752 H   0  0  0  0  0  0  0  0  0  0  0  0
   -1.6137   -1.1586   -0.9390 H   0  0  0  0  0  0  0  0  0  0  0  0
   -0.2371    0.9559   -1.6101 H   0  0  0  0  0  0  0  0  0  0  0  0
   -0.7809    2.5181   -0.9981 H   0  0  0  0  0  0  0  0  0  0  0  0
   -0.4997    1.6924    1.2822 H   0  0  0  0  0  0  0  0  0  0  0  0
    0.9319    0.8266    2.6682 H   0  0  0  0  0  0  0  0  0  0  0  0
    3.4359   -2.1258    0.1633 H   0  0  0  0  0  0  0  0  0  0  0  0
    5.5370   -1.6920   -1.0086 H   0  0  0  0  0  0  0  0  0  0  0  0
    7.9090   -1.5732   -1.1509 H   0  0  0  0  0  0  0  0  0  0  0  0
    8.7687   -0.1178   -1.6685 H   0  0  0  0  0  0  0  0  0  0  0  0
    7.0899   -0.3327   -2.1790 H   0  0  0  0  0  0  0  0  0  0  0  0
    6.5520    1.3233    1.9062 H   0  0  0  0  0  0  0  0  0  0  0  0
    4.4312    0.8818    3.0986 H   0  0  0  0  0  0  0  0  0  0  0  0
   -3.1069    2.8604   -0.4439 H   0  0  0  0  0  0  0  0  0  0  0  0
   -5.3815    2.0052   -0.2836 H   0  0  0  0  0  0  0  0  0  0  0  0
  1  2  1  0
  2  3  1  0
  3  4  1  0
  4  5  2  0
  5  6  1  0
  6  7  2  0
  7  8  1  0
  8  9  1  0
  9 10  1  0
 10 11  2  0
 10 12  1  0
 12 13  1  0
 13 14  2  0
 13 15  2  0
 13 16  1  0
 16 17  2  0
 17 18  1  0
 18 19  2  0
 19 20  1  0
 20 21  1  0
 19 22  1  0
 22 23  2  0
  7 24  1  0
 24 25  2  0
 25  4  1  0
 23 16  1  0
  1 26  1  0
  1 27  1  0
  1 28  1  0
  2 29  1  0
  2 30  1  0
  5 31  1  0
  6 32  1  0
  8 33  1  0
  8 34  1  0
  9 35  1  0
 12 36  1  0
 17 37  1  0
 18 38  1  0
 21 39  1  0
 21 40  1  0
 21 41  1  0
 22 42  1  0
 23 43  1  0
 24 44  1  0
 25 45  1  0
M  END
$$$$
