
     RDKit          3D

 56 58  0  0  0  0  0  0  0  0999 V2000
   -3.9744    3.3708   -2.2440 C   0  0  0  0  0  0  0  0  0  0  0  0
   -4.4248    2.0917   -1.5607 C   0  0  0  0  0  0  0  0  0  0  0  0
   -3.2936    1.3925   -1.0229 O   0  0  0  0  0  0  0  0  0  0  0  0
   -2.6100    0.5925   -1.8814 C   0  0  0  0  0  0  0  0  0  0  0  0
   -2.9138    0.4104   -3.0562 O   0  0  0  0  0  0  0  0  0  0  0  0
   -1.4772   -0.1478   -1.2178 C   0  0  0  0  0  0  0  0  0  0  0  0
   -0.7917    0.5770   -0.0823 C   0  0  0  0  0  0  0  0  0  0  0  0
   -0.7559    1.8037    0.0233 O   0  0  0  0  0  0  0  0  0  0  0  0
   -0.0128   -0.2244    0.8957 C   0  0  0  0  0  0  0  0  0  0  0  0
    0.0290   -1.5649    0.8286 C   0  0  0  0  0  0  0  0  0  0  0  0
    0.7858   -2.3639    1.7811 C   0  0  0  0  0  0  0  0  0  0  0  0
    2.0725   -2.2235    2.1444 C   0  0  0  0  0  0  0  0  0  0  0  0
    3.0286   -1.2330    1.6415 C   0  0  0  0  0  0  0  0  0  0  0  0
    3.6284   -0.3430    2.5291 C   0  0  0  0  0  0  0  0  0  0  0  0
    4.5524    0.6079    2.0663 C   0  0  0  0  0  0  0  0  0  0  0  0
    4.9140    0.7117    0.7101 C   0  0  0  0  0  0  0  0  0  0  0  0
    5.8425    1.6675    0.2703 N   0  0  0  0  0  0  0  0  0  0  0  0
    6.1392    1.7654   -1.1585 C   0  0  0  0  0  0  0  0  0  0  0  0
    5.9028    2.9337    1.0059 C   0  0  0  0  0  0  0  0  0  0  0  0
    4.3224   -0.2268   -0.1541 C   0  0  0  0  0  0  0  0  0  0  0  0
    3.3927   -1.1798    0.2982 C   0  0  0  0  0  0  0  0  0  0  0  0
   -0.7685   -2.3584   -0.1798 C   0  0  0  0  0  0  0  0  0  0  0  0
   -1.9176   -1.5772   -0.8501 C   0  0  0  0  0  0  0  0  0  0  0  0
   -3.2356   -1.6664   -0.0757 C   0  0  0  0  0  0  0  0  0  0  0  0
   -4.3971   -2.0718   -0.7619 C   0  0  0  0  0  0  0  0  0  0  0  0
   -5.6292   -2.1534   -0.1083 C   0  0  0  0  0  0  0  0  0  0  0  0
   -5.7240   -1.8322    1.2445 C   0  0  0  0  0  0  0  0  0  0  0  0
   -4.5875   -1.4247    1.9380 C   0  0  0  0  0  0  0  0  0  0  0  0
   -3.3531   -1.3410    1.2844 C   0  0  0  0  0  0  0  0  0  0  0  0
   -3.3962    3.1478   -3.1488 H   0  0  0  0  0  0  0  0  0  0  0  0
   -3.3236    3.9574   -1.5860 H   0  0  0  0  0  0  0  0  0  0  0  0
   -4.8374    3.9822   -2.5262 H   0  0  0  0  0  0  0  0  0  0  0  0
   -5.0840    2.3354   -0.7169 H   0  0  0  0  0  0  0  0  0  0  0  0
   -5.0017    1.4490   -2.2416 H   0  0  0  0  0  0  0  0  0  0  0  0
   -0.6911   -0.2190   -1.9843 H   0  0  0  0  0  0  0  0  0  0  0  0
    0.5243    0.3488    1.6460 H   0  0  0  0  0  0  0  0  0  0  0  0
    0.2243   -3.1802    2.2385 H   0  0  0  0  0  0  0  0  0  0  0  0
    2.4799   -2.9004    2.8933 H   0  0  0  0  0  0  0  0  0  0  0  0
    3.3872   -0.3722    3.5908 H   0  0  0  0  0  0  0  0  0  0  0  0
    4.9989    1.2596    2.8112 H   0  0  0  0  0  0  0  0  0  0  0  0
    5.2465    2.0397   -1.7309 H   0  0  0  0  0  0  0  0  0  0  0  0
    6.9030    2.5315   -1.3454 H   0  0  0  0  0  0  0  0  0  0  0  0
    6.5532    0.8253   -1.5444 H   0  0  0  0  0  0  0  0  0  0  0  0
    6.6027    3.6359    0.5349 H   0  0  0  0  0  0  0  0  0  0  0  0
    4.9201    3.4186    1.0336 H   0  0  0  0  0  0  0  0  0  0  0  0
    6.2717    2.7872    2.0275 H   0  0  0  0  0  0  0  0  0  0  0  0
    4.5604   -0.2400   -1.2153 H   0  0  0  0  0  0  0  0  0  0  0  0
    2.9655   -1.8796   -0.4151 H   0  0  0  0  0  0  0  0  0  0  0  0
   -0.0666   -2.6818   -0.9607 H   0  0  0  0  0  0  0  0  0  0  0  0
   -1.1671   -3.2751    0.2746 H   0  0  0  0  0  0  0  0  0  0  0  0
   -2.0993   -2.1039   -1.8020 H   0  0  0  0  0  0  0  0  0  0  0  0
   -4.3545   -2.3189   -1.8239 H   0  0  0  0  0  0  0  0  0  0  0  0
   -6.5149   -2.4655   -0.6539 H   0  0  0  0  0  0  0  0  0  0  0  0
   -6.6845   -1.8944    1.7550 H   0  0  0  0  0  0  0  0  0  0  0  0
   -4.6619   -1.1679    2.9942 H   0  0  0  0  0  0  0  0  0  0  0  0
   -2.4987   -1.0116    1.8702 H   0  0  0  0  0  0  0  0  0  0  0  0
  1  2  1  0
  2  3  1  0
  3  4  1  0
  4  5  2  0
  4  6  1  0
  6  7  1  0
  7  8  2  0
  7  9  1  0
  9 10  2  0
 10 11  1  0
 11 12  2  3
 12 13  1  0
 13 14  2  0
 14 15  1  0
 15 16  2  0
 16 17  1  0
 17 18  1  0
 17 19  1  0
 16 20  1  0
 20 21  2  0
 10 22  1  0
 22 23  1  0
 23 24  1  0
 24 25  2  0
 25 26  1  0
 26 27  2  0
 27 28  1  0
 28 29  2  0
 23  6  1  0
 29 24  1  0
 21 13  1  0
  1 30  1  0
  1 31  1  0
  1 32  1  0
  2 33  1  0
  2 34  1  0
  6 35  1  0
  9 36  1  0
 11 37  1  0
 12 38  1  0
 14 39  1  0
 15 40  1  0
 18 41  1  0
 18 42  1  0
 18 43  1  0
 19 44  1  0
 19 45  1  0
 19 46  1  0
 20 47  1  0
 21 48  1  0
 22 49  1  0
 22 50  1  0
 23 51  1  0
 25 52  1  0
 26 53  1  0
 27 54  1  0
 28 55  1  0
 29 56  1  0
M  END
$$$$
