
     RDKit          3D

 43 46  0  0  0  0  0  0  0  0999 V2000
    7.6373   -1.4266   -0.3088 C   0  0  0  0  0  0  0  0  0  0  0  0
    6.5228   -0.5263    0.1398 C   0  0  0  0  0  0  0  0  0  0  0  0
    6.8111    0.6921    0.7735 C   0  0  0  0  0  0  0  0  0  0  0  0
    5.7972    1.5432    1.2324 C   0  0  0  0  0  0  0  0  0  0  0  0
    4.4846    1.1128    1.0377 C   0  0  0  0  0  0  0  0  0  0  0  0
    3.2723    1.6724    1.3519 N   0  0  0  0  0  0  0  0  0  0  0  0
    2.2681    0.8173    0.9383 C   0  0  0  0  0  0  0  0  0  0  0  0
    0.8930    1.1633    1.1487 C   0  0  0  0  0  0  0  0  0  0  0  0
    0.5586    2.3836    1.8077 C   0  0  0  0  0  0  0  0  0  0  0  0
    0.3666    3.3876    2.3579 N   0  0  0  0  0  0  0  0  0  0  0  0
   -0.0330    0.3035    0.6784 C   0  0  0  0  0  0  0  0  0  0  0  0
   -1.4497    0.4391    0.7637 C   0  0  0  0  0  0  0  0  0  0  0  0
   -2.2855    1.1152    1.6451 C   0  0  0  0  0  0  0  0  0  0  0  0
   -3.6253    0.8788    1.2477 C   0  0  0  0  0  0  0  0  0  0  0  0
   -3.5673    0.0577    0.1485 C   0  0  0  0  0  0  0  0  0  0  0  0
   -4.5102   -0.4967   -0.6444 N   0  0  0  0  0  0  0  0  0  0  0  0
   -4.1398   -1.3648   -1.7674 C   0  0  0  0  0  0  0  0  0  0  0  0
   -5.3433   -2.2284   -2.1781 C   0  0  0  0  0  0  0  0  0  0  0  0
   -6.5037   -1.4748   -2.5627 O   0  0  0  0  0  0  0  0  0  0  0  0
   -6.5771   -0.1838   -1.9405 C   0  0  0  0  0  0  0  0  0  0  0  0
   -5.9223   -0.1213   -0.5507 C   0  0  0  0  0  0  0  0  0  0  0  0
   -2.2668   -0.2151   -0.1339 O   0  0  0  0  0  0  0  0  0  0  0  0
    2.7977   -0.2567    0.3772 N   0  0  0  0  0  0  0  0  0  0  0  0
    4.1592   -0.0898    0.4290 C   0  0  0  0  0  0  0  0  0  0  0  0
    5.1860   -0.9306   -0.0245 C   0  0  0  0  0  0  0  0  0  0  0  0
    8.5110   -0.8424   -0.6164 H   0  0  0  0  0  0  0  0  0  0  0  0
    7.9276   -2.0966    0.5063 H   0  0  0  0  0  0  0  0  0  0  0  0
    7.3305   -2.0291   -1.1702 H   0  0  0  0  0  0  0  0  0  0  0  0
    7.8481    0.9935    0.9160 H   0  0  0  0  0  0  0  0  0  0  0  0
    6.0310    2.4853    1.7163 H   0  0  0  0  0  0  0  0  0  0  0  0
    3.1515    2.5649    1.8109 H   0  0  0  0  0  0  0  0  0  0  0  0
    0.2979   -0.5853    0.1408 H   0  0  0  0  0  0  0  0  0  0  0  0
   -1.9843    1.7076    2.4976 H   0  0  0  0  0  0  0  0  0  0  0  0
   -4.5193    1.2552    1.7214 H   0  0  0  0  0  0  0  0  0  0  0  0
   -3.8246   -0.7402   -2.6116 H   0  0  0  0  0  0  0  0  0  0  0  0
   -3.3113   -2.0303   -1.4984 H   0  0  0  0  0  0  0  0  0  0  0  0
   -5.6382   -2.8836   -1.3498 H   0  0  0  0  0  0  0  0  0  0  0  0
   -5.0752   -2.8716   -3.0223 H   0  0  0  0  0  0  0  0  0  0  0  0
   -7.6355    0.0864   -1.8700 H   0  0  0  0  0  0  0  0  0  0  0  0
   -6.1013    0.5364   -2.6168 H   0  0  0  0  0  0  0  0  0  0  0  0
   -6.4251   -0.8195    0.1286 H   0  0  0  0  0  0  0  0  0  0  0  0
   -6.0465    0.8928   -0.1545 H   0  0  0  0  0  0  0  0  0  0  0  0
    4.9334   -1.8751   -0.4945 H   0  0  0  0  0  0  0  0  0  0  0  0
  1  2  1  0
  2  3  2  0
  3  4  1  0
  4  5  2  0
  5  6  1  0
  6  7  1  0
  7  8  1  0
  8  9  1  0
  9 10  3  0
  8 11  2  3
 11 12  1  0
 12 13  2  0
 13 14  1  0
 14 15  2  0
 15 16  1  0
 16 17  1  0
 17 18  1  0
 18 19  1  0
 19 20  1  0
 20 21  1  0
 15 22  1  0
  7 23  2  0
 23 24  1  0
 24 25  2  0
 25  2  1  0
 24  5  1  0
 22 12  1  0
 21 16  1  0
  1 26  1  0
  1 27  1  0
  1 28  1  0
  3 29  1  0
  4 30  1  0
  6 31  1  0
 11 32  1  0
 13 33  1  0
 14 34  1  0
 17 35  1  0
 17 36  1  0
 18 37  1  0
 18 38  1  0
 20 39  1  0
 20 40  1  0
 21 41  1  0
 21 42  1  0
 25 43  1  0
M  END
$$$$
