
     RDKit          3D

 49 51  0  0  0  0  0  0  0  0999 V2000
   -5.5427   -0.6887    2.9953 C   0  0  0  0  0  0  0  0  0  0  0  0
   -5.6962   -0.0958    1.6182 C   0  0  0  0  0  0  0  0  0  0  0  0
   -6.3713    0.9195    1.4504 O   0  0  0  0  0  0  0  0  0  0  0  0
   -5.0543   -0.7493    0.5757 N   0  0  0  0  0  0  0  0  0  0  0  0
   -5.1090   -0.1367   -0.7545 C   0  0  0  0  0  0  0  0  0  0  0  0
   -3.8591    0.7324   -0.9966 C   0  0  0  0  0  0  0  0  0  0  0  0
   -2.6232   -0.0718   -0.7941 N   0  0  0  0  0  0  0  0  0  0  0  0
   -1.4011    0.4978   -1.1831 C   0  0  0  0  0  0  0  0  0  0  0  0
   -0.2745   -0.3237   -1.3479 C   0  0  0  0  0  0  0  0  0  0  0  0
    0.9677    0.1887   -1.7474 C   0  0  0  0  0  0  0  0  0  0  0  0
    1.1214    1.5515   -1.9864 C   0  0  0  0  0  0  0  0  0  0  0  0
    2.3280    2.1459   -2.4046 N   0  0  0  0  0  0  0  0  0  0  0  0
    3.6246    1.6901   -2.3634 C   0  0  0  0  0  0  0  0  0  0  0  0
    4.7199    2.4390   -3.3781 S   0  0  0  0  0  0  0  0  0  0  0  0
    3.8885    0.7160   -1.4194 N   0  0  0  0  0  0  0  0  0  0  0  0
    5.0792    0.0435   -1.1542 C   0  0  0  0  0  0  0  0  0  0  0  0
    6.0206   -0.0889   -1.9255 O   0  0  0  0  0  0  0  0  0  0  0  0
    5.1584   -0.6119    0.1819 C   0  0  0  0  0  0  0  0  0  0  0  0
    6.4091   -0.6743    0.8096 C   0  0  0  0  0  0  0  0  0  0  0  0
    6.5359   -1.2718    2.0643 C   0  0  0  0  0  0  0  0  0  0  0  0
    5.4170   -1.8177    2.6919 C   0  0  0  0  0  0  0  0  0  0  0  0
    4.1721   -1.7759    2.0638 C   0  0  0  0  0  0  0  0  0  0  0  0
    4.0396   -1.1782    0.8079 C   0  0  0  0  0  0  0  0  0  0  0  0
    0.0031    2.3774   -1.8759 C   0  0  0  0  0  0  0  0  0  0  0  0
   -1.2361    1.8575   -1.4746 C   0  0  0  0  0  0  0  0  0  0  0  0
   -2.5761   -0.7608    0.5251 C   0  0  0  0  0  0  0  0  0  0  0  0
   -3.8631   -1.5850    0.7591 C   0  0  0  0  0  0  0  0  0  0  0  0
   -6.2738   -0.2309    3.6687 H   0  0  0  0  0  0  0  0  0  0  0  0
   -5.7371   -1.7643    2.9732 H   0  0  0  0  0  0  0  0  0  0  0  0
   -4.5400   -0.4857    3.3798 H   0  0  0  0  0  0  0  0  0  0  0  0
   -6.0163    0.4647   -0.8716 H   0  0  0  0  0  0  0  0  0  0  0  0
   -5.1525   -0.9500   -1.4888 H   0  0  0  0  0  0  0  0  0  0  0  0
   -3.8691    1.5824   -0.3026 H   0  0  0  0  0  0  0  0  0  0  0  0
   -3.9014    1.1129   -2.0241 H   0  0  0  0  0  0  0  0  0  0  0  0
   -0.3691   -1.3994   -1.2168 H   0  0  0  0  0  0  0  0  0  0  0  0
    1.7704   -0.5181   -1.9330 H   0  0  0  0  0  0  0  0  0  0  0  0
    2.2367    3.0256   -2.9056 H   0  0  0  0  0  0  0  0  0  0  0  0
    3.2269    0.7490   -0.6590 H   0  0  0  0  0  0  0  0  0  0  0  0
    7.2875   -0.2562    0.3205 H   0  0  0  0  0  0  0  0  0  0  0  0
    7.5088   -1.3152    2.5481 H   0  0  0  0  0  0  0  0  0  0  0  0
    5.5189   -2.2873    3.6676 H   0  0  0  0  0  0  0  0  0  0  0  0
    3.3073   -2.2210    2.5500 H   0  0  0  0  0  0  0  0  0  0  0  0
    3.0669   -1.1948    0.3262 H   0  0  0  0  0  0  0  0  0  0  0  0
    0.0761    3.4429   -2.0812 H   0  0  0  0  0  0  0  0  0  0  0  0
   -2.0635    2.5554   -1.3857 H   0  0  0  0  0  0  0  0  0  0  0  0
   -2.4718   -0.0095    1.3189 H   0  0  0  0  0  0  0  0  0  0  0  0
   -1.7244   -1.4458    0.5973 H   0  0  0  0  0  0  0  0  0  0  0  0
   -3.8366   -2.0361    1.7534 H   0  0  0  0  0  0  0  0  0  0  0  0
   -3.9225   -2.3997    0.0274 H   0  0  0  0  0  0  0  0  0  0  0  0
  1  2  1  0
  2  3  2  0
  2  4  1  0
  4  5  1  0
  5  6  1  0
  6  7  1  0
  7  8  1  0
  8  9  2  0
  9 10  1  0
 10 11  2  0
 11 12  1  0
 12 13  1  0
 13 14  2  0
 13 15  1  0
 15 16  1  0
 16 17  2  0
 16 18  1  0
 18 19  2  0
 19 20  1  0
 20 21  2  0
 21 22  1  0
 22 23  2  0
 11 24  1  0
 24 25  2  0
  7 26  1  0
 26 27  1  0
 27  4  1  0
 25  8  1  0
 23 18  1  0
  1 28  1  0
  1 29  1  0
  1 30  1  0
  5 31  1  0
  5 32  1  0
  6 33  1  0
  6 34  1  0
  9 35  1  0
 10 36  1  0
 12 37  1  0
 15 38  1  0
 19 39  1  0
 20 40  1  0
 21 41  1  0
 22 42  1  0
 23 43  1  0
 24 44  1  0
 25 45  1  0
 26 46  1  0
 26 47  1  0
 27 48  1  0
 27 49  1  0
M  END
$$$$
