
     RDKit          3D

 53 57  0  0  0  0  0  0  0  0999 V2000
    8.4609    0.4846    0.8053 C   0  0  0  0  0  0  0  0  0  0  0  0
    7.6435    0.9831   -0.2463 O   0  0  0  0  0  0  0  0  0  0  0  0
    6.3045    0.7237   -0.1620 C   0  0  0  0  0  0  0  0  0  0  0  0
    5.6654    0.0137    0.8494 C   0  0  0  0  0  0  0  0  0  0  0  0
    4.2755   -0.1807    0.8144 C   0  0  0  0  0  0  0  0  0  0  0  0
    3.4985    0.3312   -0.2330 C   0  0  0  0  0  0  0  0  0  0  0  0
    2.0739    0.1355   -0.2811 N   0  0  0  0  0  0  0  0  0  0  0  0
    1.2740    0.4211   -1.3781 C   0  0  0  0  0  0  0  0  0  0  0  0
   -0.0361    0.1036   -1.0940 C   0  0  0  0  0  0  0  0  0  0  0  0
   -1.0972    0.2596   -2.0681 C   0  0  0  0  0  0  0  0  0  0  0  0
   -1.7575   -0.8679   -2.5704 C   0  0  0  0  0  0  0  0  0  0  0  0
   -2.8033   -0.7187   -3.4825 C   0  0  0  0  0  0  0  0  0  0  0  0
   -3.1910    0.5551   -3.8966 C   0  0  0  0  0  0  0  0  0  0  0  0
   -2.5334    1.6812   -3.4020 C   0  0  0  0  0  0  0  0  0  0  0  0
   -1.4871    1.5355   -2.4893 C   0  0  0  0  0  0  0  0  0  0  0  0
   -0.0776   -0.3829    0.2414 C   0  0  0  0  0  0  0  0  0  0  0  0
   -1.0886   -0.8360    1.1188 C   0  0  0  0  0  0  0  0  0  0  0  0
   -2.4466   -0.8710    0.7328 N   0  0  0  0  0  0  0  0  0  0  0  0
   -3.4490   -1.0255    1.7146 N   0  0  0  0  0  0  0  0  0  0  0  0
   -4.6150   -1.7221    1.1381 C   0  0  0  0  0  0  0  0  0  0  0  0
   -5.7292   -0.7614    0.7037 C   0  0  0  0  0  0  0  0  0  0  0  0
   -6.2284    0.0509    1.7763 O   0  0  0  0  0  0  0  0  0  0  0  0
   -5.2555    0.2839    2.8064 C   0  0  0  0  0  0  0  0  0  0  0  0
   -3.8192    0.2939    2.2700 C   0  0  0  0  0  0  0  0  0  0  0  0
   -0.7165   -1.2362    2.3604 N   0  0  0  0  0  0  0  0  0  0  0  0
    0.5744   -1.1704    2.7042 C   0  0  0  0  0  0  0  0  0  0  0  0
    1.6004   -0.7441    1.9604 N   0  0  0  0  0  0  0  0  0  0  0  0
    1.2325   -0.3632    0.7204 C   0  0  0  0  0  0  0  0  0  0  0  0
    4.1539    1.0441   -1.2493 C   0  0  0  0  0  0  0  0  0  0  0  0
    5.5408    1.2358   -1.2087 C   0  0  0  0  0  0  0  0  0  0  0  0
    9.4937    0.7773    0.5932 H   0  0  0  0  0  0  0  0  0  0  0  0
    8.1804    0.9268    1.7671 H   0  0  0  0  0  0  0  0  0  0  0  0
    8.4267   -0.6091    0.8472 H   0  0  0  0  0  0  0  0  0  0  0  0
    6.2131   -0.4106    1.6847 H   0  0  0  0  0  0  0  0  0  0  0  0
    3.8465   -0.7616    1.6240 H   0  0  0  0  0  0  0  0  0  0  0  0
    1.6922    0.7932   -2.3018 H   0  0  0  0  0  0  0  0  0  0  0  0
   -1.4631   -1.8671   -2.2547 H   0  0  0  0  0  0  0  0  0  0  0  0
   -3.3127   -1.5965   -3.8727 H   0  0  0  0  0  0  0  0  0  0  0  0
   -4.0041    0.6705   -4.6094 H   0  0  0  0  0  0  0  0  0  0  0  0
   -2.8356    2.6735   -3.7279 H   0  0  0  0  0  0  0  0  0  0  0  0
   -0.9862    2.4217   -2.1061 H   0  0  0  0  0  0  0  0  0  0  0  0
   -2.6460   -0.2793   -0.0709 H   0  0  0  0  0  0  0  0  0  0  0  0
   -4.3256   -2.3729    0.3036 H   0  0  0  0  0  0  0  0  0  0  0  0
   -5.0125   -2.3820    1.9194 H   0  0  0  0  0  0  0  0  0  0  0  0
   -5.3779   -0.0943   -0.0924 H   0  0  0  0  0  0  0  0  0  0  0  0
   -6.5766   -1.3260    0.3017 H   0  0  0  0  0  0  0  0  0  0  0  0
   -5.4927    1.2491    3.2654 H   0  0  0  0  0  0  0  0  0  0  0  0
   -5.3825   -0.4829    3.5798 H   0  0  0  0  0  0  0  0  0  0  0  0
   -3.1241    0.5553    3.0753 H   0  0  0  0  0  0  0  0  0  0  0  0
   -3.7492    1.0733    1.4987 H   0  0  0  0  0  0  0  0  0  0  0  0
    0.8147   -1.5008    3.7098 H   0  0  0  0  0  0  0  0  0  0  0  0
    3.6256    1.4901   -2.0855 H   0  0  0  0  0  0  0  0  0  0  0  0
    6.0286    1.7959   -2.0034 H   0  0  0  0  0  0  0  0  0  0  0  0
  1  2  1  0
  2  3  1  0
  3  4  2  0
  4  5  1  0
  5  6  2  0
  6  7  1  0
  7  8  1  0
  8  9  2  0
  9 10  1  0
 10 11  2  0
 11 12  1  0
 12 13  2  0
 13 14  1  0
 14 15  2  0
  9 16  1  0
 16 17  2  0
 17 18  1  0
 18 19  1  0
 19 20  1  0
 20 21  1  0
 21 22  1  0
 22 23  1  0
 23 24  1  0
 17 25  1  0
 25 26  2  0
 26 27  1  0
 27 28  2  0
  6 29  1  0
 29 30  2  0
 30  3  1  0
 28  7  1  0
 15 10  1  0
 28 16  1  0
 24 19  1  0
  1 31  1  0
  1 32  1  0
  1 33  1  0
  4 34  1  0
  5 35  1  0
  8 36  1  0
 11 37  1  0
 12 38  1  0
 13 39  1  0
 14 40  1  0
 15 41  1  0
 18 42  1  0
 20 43  1  0
 20 44  1  0
 21 45  1  0
 21 46  1  0
 23 47  1  0
 23 48  1  0
 24 49  1  0
 24 50  1  0
 26 51  1  0
 29 52  1  0
 30 53  1  0
M  END
$$$$
