
     RDKit          3D

 43 45  0  0  0  0  0  0  0  0999 V2000
    6.5689    0.8403    2.2162 C   0  0  0  0  0  0  0  0  0  0  0  0
    5.1722    0.9082    1.9610 O   0  0  0  0  0  0  0  0  0  0  0  0
    4.7566    0.6012    0.6935 C   0  0  0  0  0  0  0  0  0  0  0  0
    5.5689    0.1414   -0.3422 C   0  0  0  0  0  0  0  0  0  0  0  0
    5.0084   -0.1638   -1.5830 C   0  0  0  0  0  0  0  0  0  0  0  0
    3.6381   -0.0007   -1.7933 C   0  0  0  0  0  0  0  0  0  0  0  0
    2.8158    0.4886   -0.7728 C   0  0  0  0  0  0  0  0  0  0  0  0
    1.4353    0.5927   -1.0489 N   0  0  0  0  0  0  0  0  0  0  0  0
    0.4462    1.3767   -0.4651 C   0  0  0  0  0  0  0  0  0  0  0  0
    0.7268    2.8255    0.3407 S   0  0  0  0  0  0  0  0  0  0  0  0
   -0.8452    0.8537   -0.7291 N   0  0  0  0  0  0  0  0  0  0  0  0
   -1.0621   -0.6097   -0.6775 C   0  0  0  0  0  0  0  0  0  0  0  0
   -2.2962   -1.0577   -1.4832 C   0  0  0  0  0  0  0  0  0  0  0  0
   -3.5091   -0.3175   -1.0851 N   0  0  0  0  0  0  0  0  0  0  0  0
   -4.1194   -0.7701    0.0953 C   0  0  0  0  0  0  0  0  0  0  0  0
   -4.5551   -2.0938    0.1911 C   0  0  0  0  0  0  0  0  0  0  0  0
   -5.1686   -2.5479    1.3582 C   0  0  0  0  0  0  0  0  0  0  0  0
   -5.3478   -1.6682    2.4128 C   0  0  0  0  0  0  0  0  0  0  0  0
   -4.9121   -0.3687    2.2439 C   0  0  0  0  0  0  0  0  0  0  0  0
   -4.3168    0.0882    1.1188 N   0  0  0  0  0  0  0  0  0  0  0  0
   -3.3139    1.1472   -1.1565 C   0  0  0  0  0  0  0  0  0  0  0  0
   -2.0655    1.6241   -0.3859 C   0  0  0  0  0  0  0  0  0  0  0  0
    3.3825    0.7645    0.4733 C   0  0  0  0  0  0  0  0  0  0  0  0
    6.7352    1.1531    3.2516 H   0  0  0  0  0  0  0  0  0  0  0  0
    6.9377   -0.1857    2.1155 H   0  0  0  0  0  0  0  0  0  0  0  0
    7.1243    1.5261    1.5679 H   0  0  0  0  0  0  0  0  0  0  0  0
    6.6364   -0.0005   -0.2134 H   0  0  0  0  0  0  0  0  0  0  0  0
    5.6408   -0.5299   -2.3878 H   0  0  0  0  0  0  0  0  0  0  0  0
    3.2283   -0.2445   -2.7697 H   0  0  0  0  0  0  0  0  0  0  0  0
    1.1435    0.2104   -1.9385 H   0  0  0  0  0  0  0  0  0  0  0  0
   -0.1883   -1.1575   -1.0400 H   0  0  0  0  0  0  0  0  0  0  0  0
   -1.1787   -0.8726    0.3815 H   0  0  0  0  0  0  0  0  0  0  0  0
   -2.1139   -0.8531   -2.5462 H   0  0  0  0  0  0  0  0  0  0  0  0
   -2.4200   -2.1431   -1.4036 H   0  0  0  0  0  0  0  0  0  0  0  0
   -4.4481   -2.7705   -0.6497 H   0  0  0  0  0  0  0  0  0  0  0  0
   -5.5110   -3.5756    1.4323 H   0  0  0  0  0  0  0  0  0  0  0  0
   -5.8227   -1.9811    3.3351 H   0  0  0  0  0  0  0  0  0  0  0  0
   -5.0334    0.3692    3.0316 H   0  0  0  0  0  0  0  0  0  0  0  0
   -3.1806    1.4043   -2.2158 H   0  0  0  0  0  0  0  0  0  0  0  0
   -4.2074    1.6944   -0.8309 H   0  0  0  0  0  0  0  0  0  0  0  0
   -2.2091    1.5392    0.6970 H   0  0  0  0  0  0  0  0  0  0  0  0
   -1.9109    2.6822   -0.6200 H   0  0  0  0  0  0  0  0  0  0  0  0
    2.7698    1.0809    1.3116 H   0  0  0  0  0  0  0  0  0  0  0  0
  1  2  1  0
  2  3  1  0
  3  4  2  0
  4  5  1  0
  5  6  2  0
  6  7  1  0
  7  8  1  0
  8  9  1  0
  9 10  2  0
  9 11  1  0
 11 12  1  0
 12 13  1  0
 13 14  1  0
 14 15  1  0
 15 16  2  0
 16 17  1  0
 17 18  2  0
 18 19  1  0
 19 20  2  0
 14 21  1  0
 21 22  1  0
  7 23  2  0
 23  3  1  0
 22 11  1  0
 20 15  1  0
  1 24  1  0
  1 25  1  0
  1 26  1  0
  4 27  1  0
  5 28  1  0
  6 29  1  0
  8 30  1  0
 12 31  1  0
 12 32  1  0
 13 33  1  0
 13 34  1  0
 16 35  1  0
 17 36  1  0
 18 37  1  0
 19 38  1  0
 21 39  1  0
 21 40  1  0
 22 41  1  0
 22 42  1  0
 23 43  1  0
M  END
$$$$
