
     RDKit          3D

 44 45  0  0  0  0  0  0  0  0999 V2000
    5.0305   -2.3812    3.1455 C   0  0  0  0  0  0  0  0  0  0  0  0
    4.6161   -1.6542    1.9006 C   0  0  0  0  0  0  0  0  0  0  0  0
    4.3967   -0.2699    1.9298 C   0  0  0  0  0  0  0  0  0  0  0  0
    3.9673    0.4241    0.7871 C   0  0  0  0  0  0  0  0  0  0  0  0
    3.7395   -0.2551   -0.4112 C   0  0  0  0  0  0  0  0  0  0  0  0
    3.3092    0.3158   -1.5777 O   0  0  0  0  0  0  0  0  0  0  0  0
    3.0098    1.7062   -1.5884 C   0  0  0  0  0  0  0  0  0  0  0  0
    1.6860    2.0624   -0.9098 C   0  0  0  0  0  0  0  0  0  0  0  0
    1.5670    3.0921   -0.2510 O   0  0  0  0  0  0  0  0  0  0  0  0
    0.6942    1.1313   -1.1548 N   0  0  0  0  0  0  0  0  0  0  0  0
   -0.5897    1.2185   -0.6582 C   0  0  0  0  0  0  0  0  0  0  0  0
   -1.2228    2.1987    0.1360 C   0  0  0  0  0  0  0  0  0  0  0  0
   -2.4958    1.8903    0.4070 N   0  0  0  0  0  0  0  0  0  0  0  0
   -2.6775    0.7165   -0.2255 N   0  0  0  0  0  0  0  0  0  0  0  0
   -3.9697    0.0547   -0.1512 C   0  0  0  0  0  0  0  0  0  0  0  0
   -5.0630    0.8382   -0.8792 C   0  0  0  0  0  0  0  0  0  0  0  0
   -6.3947    0.0973   -0.8971 C   0  0  0  0  0  0  0  0  0  0  0  0
   -6.9898   -0.0015    0.4781 C   0  0  0  0  0  0  0  0  0  0  0  0
   -6.7763   -0.8918    1.2833 O   0  0  0  0  0  0  0  0  0  0  0  0
   -7.7741    1.0457    0.7872 O   0  0  0  0  0  0  0  0  0  0  0  0
   -1.5611    0.2696   -0.8754 C   0  0  0  0  0  0  0  0  0  0  0  0
    3.9581   -1.6383   -0.4172 C   0  0  0  0  0  0  0  0  0  0  0  0
    3.7162   -2.3847   -1.6300 N   0  0  0  0  0  4  0  0  0  0  0  0
    2.5623   -2.8027   -1.8107 O   0  0  0  0  0  0  0  0  0  0  0  0
    4.6863   -2.5702   -2.3798 O   0  0  0  0  0  1  0  0  0  0  0  0
    4.3836   -2.3491    0.7119 C   0  0  0  0  0  0  0  0  0  0  0  0
    4.1451   -2.6564    3.7310 H   0  0  0  0  0  0  0  0  0  0  0  0
    5.5891   -3.2922    2.8988 H   0  0  0  0  0  0  0  0  0  0  0  0
    5.6840   -1.7532    3.7628 H   0  0  0  0  0  0  0  0  0  0  0  0
    4.5542    0.2878    2.8537 H   0  0  0  0  0  0  0  0  0  0  0  0
    3.8184    1.4964    0.8880 H   0  0  0  0  0  0  0  0  0  0  0  0
    3.8314    2.2973   -1.1686 H   0  0  0  0  0  0  0  0  0  0  0  0
    2.9161    2.0069   -2.6383 H   0  0  0  0  0  0  0  0  0  0  0  0
    0.9334    0.2983   -1.6827 H   0  0  0  0  0  0  0  0  0  0  0  0
   -0.8171    3.1212    0.5288 H   0  0  0  0  0  0  0  0  0  0  0  0
   -3.8552   -0.9417   -0.5882 H   0  0  0  0  0  0  0  0  0  0  0  0
   -4.1974   -0.0648    0.9119 H   0  0  0  0  0  0  0  0  0  0  0  0
   -5.1914    1.8198   -0.4069 H   0  0  0  0  0  0  0  0  0  0  0  0
   -4.7466    1.0272   -1.9125 H   0  0  0  0  0  0  0  0  0  0  0  0
   -6.2840   -0.9151   -1.3001 H   0  0  0  0  0  0  0  0  0  0  0  0
   -7.1081    0.6126   -1.5488 H   0  0  0  0  0  0  0  0  0  0  0  0
   -8.0483    0.8839    1.7138 H   0  0  0  0  0  0  0  0  0  0  0  0
   -1.5568   -0.6644   -1.4183 H   0  0  0  0  0  0  0  0  0  0  0  0
    4.5248   -3.4263    0.6636 H   0  0  0  0  0  0  0  0  0  0  0  0
  1  2  1  0
  2  3  2  0
  3  4  1  0
  4  5  2  0
  5  6  1  0
  6  7  1  0
  7  8  1  0
  8  9  2  0
  8 10  1  0
 10 11  1  0
 11 12  1  0
 12 13  2  0
 13 14  1  0
 14 15  1  0
 15 16  1  0
 16 17  1  0
 17 18  1  0
 18 19  2  0
 18 20  1  0
 14 21  1  0
  5 22  1  0
 22 23  1  0
 23 24  2  0
 23 25  1  0
 22 26  2  0
 26  2  1  0
 21 11  2  0
  1 27  1  0
  1 28  1  0
  1 29  1  0
  3 30  1  0
  4 31  1  0
  7 32  1  0
  7 33  1  0
 10 34  1  0
 12 35  1  0
 15 36  1  0
 15 37  1  0
 16 38  1  0
 16 39  1  0
 17 40  1  0
 17 41  1  0
 20 42  1  0
 21 43  1  0
 26 44  1  0
M  CHG  2  23   1  25  -1
M  END
$$$$
