
     RDKit          3D

 43 46  0  0  0  0  0  0  0  0999 V2000
   -4.4881   -3.0494   -1.2646 C   0  0  0  0  0  0  0  0  0  0  0  0
   -3.9755   -1.6918   -1.3744 N   0  0  0  0  0  0  0  0  0  0  0  0
   -4.6187   -0.8261   -2.2574 C   0  0  0  0  0  0  0  0  0  0  0  0
   -5.5819   -1.1525   -2.9468 O   0  0  0  0  0  0  0  0  0  0  0  0
   -4.0894    0.6082   -2.3717 C   0  0  0  0  0  0  0  0  0  0  0  0
   -4.6484    1.3789   -3.1482 O   0  0  0  0  0  0  0  0  0  0  0  0
   -2.9942    0.9645   -1.5872 N   0  0  0  0  0  0  0  0  0  0  0  0
   -2.5019    2.3307   -1.6918 C   0  0  0  0  0  0  0  0  0  0  0  0
   -2.3708    0.0397   -0.7056 C   0  0  0  0  0  0  0  0  0  0  0  0
   -1.2627    0.4233    0.0693 C   0  0  0  0  0  0  0  0  0  0  0  0
   -0.6462   -0.4892    0.9305 C   0  0  0  0  0  0  0  0  0  0  0  0
    0.7556    0.0493    1.8884 S   0  0  0  0  0  6  0  0  0  0  0  0
    1.2530   -1.0964    2.6228 O   0  0  0  0  0  0  0  0  0  0  0  0
    0.3322    1.2578    2.5636 O   0  0  0  0  0  0  0  0  0  0  0  0
    1.8816    0.4270    0.6599 N   0  0  0  0  0  0  0  0  0  0  0  0
    2.3570   -0.7374   -0.1693 C   0  0  0  0  0  0  0  0  0  0  0  0
    3.8621   -0.8991    0.0962 C   0  0  0  0  0  0  0  0  0  0  0  0
    4.2121    0.3935    0.7509 C   0  0  0  0  0  0  0  0  0  0  0  0
    5.4735    0.8759    1.0629 C   0  0  0  0  0  0  0  0  0  0  0  0
    5.5683    2.0997    1.7291 C   0  0  0  0  0  0  0  0  0  0  0  0
    4.4121    2.8160    2.0752 C   0  0  0  0  0  0  0  0  0  0  0  0
    3.1458    2.3158    1.7613 C   0  0  0  0  0  0  0  0  0  0  0  0
    3.0667    1.0976    1.1102 C   0  0  0  0  0  0  0  0  0  0  0  0
   -1.1239   -1.7875    1.0492 C   0  0  0  0  0  0  0  0  0  0  0  0
   -2.2242   -2.1758    0.2844 C   0  0  0  0  0  0  0  0  0  0  0  0
   -2.8580   -1.2782   -0.5991 C   0  0  0  0  0  0  0  0  0  0  0  0
   -5.3487   -3.2206   -1.9174 H   0  0  0  0  0  0  0  0  0  0  0  0
   -3.7060   -3.7584   -1.5542 H   0  0  0  0  0  0  0  0  0  0  0  0
   -4.8112   -3.2345   -0.2352 H   0  0  0  0  0  0  0  0  0  0  0  0
   -1.4638    2.3179   -2.0391 H   0  0  0  0  0  0  0  0  0  0  0  0
   -2.5733    2.8194   -0.7148 H   0  0  0  0  0  0  0  0  0  0  0  0
   -3.0821    2.9255   -2.4028 H   0  0  0  0  0  0  0  0  0  0  0  0
   -0.8566    1.4309    0.0257 H   0  0  0  0  0  0  0  0  0  0  0  0
    1.8217   -1.6695    0.0330 H   0  0  0  0  0  0  0  0  0  0  0  0
    2.1795   -0.4846   -1.2223 H   0  0  0  0  0  0  0  0  0  0  0  0
    4.0463   -1.7299    0.7854 H   0  0  0  0  0  0  0  0  0  0  0  0
    4.4149   -1.0624   -0.8333 H   0  0  0  0  0  0  0  0  0  0  0  0
    6.3685    0.3185    0.8050 H   0  0  0  0  0  0  0  0  0  0  0  0
    6.5460    2.5014    1.9861 H   0  0  0  0  0  0  0  0  0  0  0  0
    4.5020    3.7686    2.5922 H   0  0  0  0  0  0  0  0  0  0  0  0
    2.2562    2.8800    2.0200 H   0  0  0  0  0  0  0  0  0  0  0  0
   -0.6583   -2.4981    1.7292 H   0  0  0  0  0  0  0  0  0  0  0  0
   -2.5713   -3.1987    0.4043 H   0  0  0  0  0  0  0  0  0  0  0  0
  1  2  1  0
  2  3  1  0
  3  4  2  0
  3  5  1  0
  5  6  2  0
  5  7  1  0
  7  8  1  0
  7  9  1  0
  9 10  2  0
 10 11  1  0
 11 12  1  0
 12 13  2  0
 12 14  2  0
 12 15  1  0
 15 16  1  0
 16 17  1  0
 17 18  1  0
 18 19  2  0
 19 20  1  0
 20 21  2  0
 21 22  1  0
 22 23  2  0
 11 24  2  0
 24 25  1  0
 25 26  2  0
 26  2  1  0
 26  9  1  0
 23 15  1  0
 23 18  1  0
  1 27  1  0
  1 28  1  0
  1 29  1  0
  8 30  1  0
  8 31  1  0
  8 32  1  0
 10 33  1  0
 16 34  1  0
 16 35  1  0
 17 36  1  0
 17 37  1  0
 19 38  1  0
 20 39  1  0
 21 40  1  0
 22 41  1  0
 24 42  1  0
 25 43  1  0
M  END
$$$$
