
     RDKit          3D

 46 47  0  0  0  0  0  0  0  0999 V2000
    0.5350   -0.7508    1.2459 O   0  0  0  0  0  0  0  0  0  0  0  0
    0.6920    0.0681    0.3524 C   0  0  0  0  0  0  0  0  0  0  0  0
   -0.3160    0.5698   -0.4345 N   0  0  0  0  0  0  0  0  0  0  0  0
   -1.7182    0.2110   -0.1923 C   0  0  0  0  0  0  0  0  0  0  0  0
   -2.5082    0.4032   -1.4966 C   0  0  0  0  0  0  0  0  0  0  0  0
   -3.6263   -0.6234   -1.7325 C   0  0  0  0  0  0  0  0  0  0  0  0
   -4.9963   -0.2256   -1.1887 C   0  0  0  0  0  0  0  0  0  0  0  0
   -5.3265   -0.7276    0.2174 C   0  0  0  0  0  0  0  0  0  0  0  0
   -4.3004   -0.4608    1.3167 C   0  0  0  0  0  0  0  0  0  0  0  0
   -3.7363    0.9572    1.3120 C   0  0  0  0  0  0  0  0  0  0  0  0
   -2.2422    1.0342    1.0005 C   0  0  0  0  0  0  0  0  0  0  0  0
    1.9015    0.6132   -0.0039 N   0  0  0  0  0  0  0  0  0  0  0  0
    3.1352    0.1648    0.6286 C   0  0  0  0  0  0  0  0  0  0  0  0
    3.5951   -1.1814    0.0503 C   0  0  0  0  0  0  0  0  0  0  0  0
    4.9264   -1.6274    0.6499 C   0  0  0  0  0  0  0  0  0  0  0  0
    6.0028   -0.5580    0.4917 C   0  0  0  0  0  0  0  0  0  0  0  0
    5.5518    0.7816    1.0655 C   0  0  0  0  0  0  0  0  0  0  0  0
    4.2233    1.2318    0.4641 C   0  0  0  0  0  0  0  0  0  0  0  0
   -0.1444    1.5046   -0.7746 H   0  0  0  0  0  0  0  0  0  0  0  0
   -1.7147   -0.8520    0.0745 H   0  0  0  0  0  0  0  0  0  0  0  0
   -1.8096    0.2805   -2.3370 H   0  0  0  0  0  0  0  0  0  0  0  0
   -2.8847    1.4297   -1.5818 H   0  0  0  0  0  0  0  0  0  0  0  0
   -3.7392   -0.7100   -2.8221 H   0  0  0  0  0  0  0  0  0  0  0  0
   -3.3352   -1.6211   -1.3847 H   0  0  0  0  0  0  0  0  0  0  0  0
   -5.7586   -0.6486   -1.8572 H   0  0  0  0  0  0  0  0  0  0  0  0
   -5.1332    0.8597   -1.2533 H   0  0  0  0  0  0  0  0  0  0  0  0
   -5.5075   -1.8093    0.1759 H   0  0  0  0  0  0  0  0  0  0  0  0
   -6.2824   -0.2776    0.5156 H   0  0  0  0  0  0  0  0  0  0  0  0
   -4.8002   -0.6342    2.2789 H   0  0  0  0  0  0  0  0  0  0  0  0
   -3.5069   -1.2135    1.2728 H   0  0  0  0  0  0  0  0  0  0  0  0
   -4.2905    1.6153    0.6354 H   0  0  0  0  0  0  0  0  0  0  0  0
   -3.8833    1.3919    2.3097 H   0  0  0  0  0  0  0  0  0  0  0  0
   -1.9847    2.0922    0.8542 H   0  0  0  0  0  0  0  0  0  0  0  0
   -1.6929    0.7269    1.9006 H   0  0  0  0  0  0  0  0  0  0  0  0
    1.9625    0.8698   -0.9781 H   0  0  0  0  0  0  0  0  0  0  0  0
    2.9311    0.0334    1.6995 H   0  0  0  0  0  0  0  0  0  0  0  0
    2.8392   -1.9541    0.2338 H   0  0  0  0  0  0  0  0  0  0  0  0
    3.6960   -1.1015   -1.0401 H   0  0  0  0  0  0  0  0  0  0  0  0
    4.7888   -1.8522    1.7148 H   0  0  0  0  0  0  0  0  0  0  0  0
    5.2551   -2.5549    0.1678 H   0  0  0  0  0  0  0  0  0  0  0  0
    6.2430   -0.4370   -0.5718 H   0  0  0  0  0  0  0  0  0  0  0  0
    6.9220   -0.8830    0.9919 H   0  0  0  0  0  0  0  0  0  0  0  0
    5.4492    0.6969    2.1544 H   0  0  0  0  0  0  0  0  0  0  0  0
    6.3187    1.5410    0.8752 H   0  0  0  0  0  0  0  0  0  0  0  0
    4.3655    1.4598   -0.6005 H   0  0  0  0  0  0  0  0  0  0  0  0
    3.9042    2.1670    0.9403 H   0  0  0  0  0  0  0  0  0  0  0  0
  1  2  2  0
  2  3  1  0
  3  4  1  0
  4  5  1  0
  5  6  1  0
  6  7  1  0
  7  8  1  0
  8  9  1  0
  9 10  1  0
 10 11  1  0
  2 12  1  0
 12 13  1  0
 13 14  1  0
 14 15  1  0
 15 16  1  0
 16 17  1  0
 17 18  1  0
 11  4  1  0
 18 13  1  0
  3 19  1  0
  4 20  1  0
  5 21  1  0
  5 22  1  0
  6 23  1  0
  6 24  1  0
  7 25  1  0
  7 26  1  0
  8 27  1  0
  8 28  1  0
  9 29  1  0
  9 30  1  0
 10 31  1  0
 10 32  1  0
 11 33  1  0
 11 34  1  0
 12 35  1  0
 13 36  1  0
 14 37  1  0
 14 38  1  0
 15 39  1  0
 15 40  1  0
 16 41  1  0
 16 42  1  0
 17 43  1  0
 17 44  1  0
 18 45  1  0
 18 46  1  0
M  END
$$$$
