
     RDKit          3D

 57 60  0  0  0  0  0  0  0  0999 V2000
   -1.1776    5.2393    1.0403 C   0  0  0  0  0  0  0  0  0  0  0  0
   -1.7881    4.9699   -0.3391 C   0  0  0  0  0  0  0  0  0  0  0  0
   -0.7403    4.4239   -1.3326 C   0  0  0  0  0  0  0  0  0  0  0  0
   -0.2098    3.0317   -0.9521 C   0  0  0  0  0  0  0  0  0  0  0  0
   -1.3126    2.1076   -0.5208 C   0  0  0  0  0  0  0  0  0  0  0  0
   -2.5693    2.5854   -0.1935 C   0  0  0  0  0  0  0  0  0  0  0  0
   -3.6485    1.3456    0.2360 S   0  0  0  0  0  0  0  0  0  0  0  0
   -2.4614    0.1484   -0.0090 C   0  0  0  0  0  0  0  0  0  0  0  0
   -2.7671   -1.1444    0.1712 N   0  0  0  0  0  0  0  0  0  0  0  0
   -1.7492   -1.9728   -0.0750 C   0  0  0  0  0  0  0  0  0  0  0  0
   -1.9826   -3.4750    0.0909 C   0  0  0  0  0  0  0  0  0  0  0  0
   -3.4691   -3.8069    0.3309 C   0  0  0  0  0  0  0  0  0  0  0  0
   -1.5260   -4.2123   -1.1817 C   0  0  0  0  0  0  0  0  0  0  0  0
   -1.1674   -3.9740    1.2967 C   0  0  0  0  0  0  0  0  0  0  0  0
   -0.5037   -1.5880   -0.4223 N   0  0  0  0  0  0  0  0  0  0  0  0
   -0.2005   -0.2772   -0.5674 C   0  0  0  0  0  0  0  0  0  0  0  0
    1.1129    0.0989   -0.8848 N   0  0  0  0  0  0  0  0  0  0  0  0
    1.8725    0.5115    0.3207 C   0  0  0  0  0  0  0  0  0  0  0  0
    2.4799   -0.6925    1.0767 C   0  0  0  0  0  0  0  0  0  0  0  0
    3.2769   -1.5242    0.1655 N   0  0  0  0  0  0  0  0  0  0  0  0
    4.6557   -1.4236    0.0137 C   0  0  0  0  0  0  0  0  0  0  0  0
    5.2257   -1.8017   -1.0135 O   0  0  0  0  0  0  0  0  0  0  0  0
    5.4710   -0.8758    1.1699 C   0  0  0  0  0  0  0  0  0  0  0  0
    5.5816    0.8893    1.0396 Cl  0  0  0  0  0  0  0  0  0  0  0  0
    2.4881   -2.0272   -0.9652 C   0  0  0  0  0  0  0  0  0  0  0  0
    1.8405   -0.8667   -1.7491 C   0  0  0  0  0  0  0  0  0  0  0  0
   -1.2331    0.6688   -0.3836 C   0  0  0  0  0  0  0  0  0  0  0  0
   -3.0022    4.0201   -0.2443 C   0  0  0  0  0  0  0  0  0  0  0  0
   -0.8427    4.3220    1.5342 H   0  0  0  0  0  0  0  0  0  0  0  0
   -1.9121    5.7192    1.6961 H   0  0  0  0  0  0  0  0  0  0  0  0
   -0.3177    5.9123    0.9566 H   0  0  0  0  0  0  0  0  0  0  0  0
   -2.1474    5.9346   -0.7209 H   0  0  0  0  0  0  0  0  0  0  0  0
    0.1006    5.1220   -1.4216 H   0  0  0  0  0  0  0  0  0  0  0  0
   -1.2034    4.3666   -2.3269 H   0  0  0  0  0  0  0  0  0  0  0  0
    0.3248    2.6127   -1.8118 H   0  0  0  0  0  0  0  0  0  0  0  0
    0.5114    3.1319   -0.1331 H   0  0  0  0  0  0  0  0  0  0  0  0
   -4.0950   -3.4630   -0.5011 H   0  0  0  0  0  0  0  0  0  0  0  0
   -3.8447   -3.3358    1.2469 H   0  0  0  0  0  0  0  0  0  0  0  0
   -3.6209   -4.8877    0.4337 H   0  0  0  0  0  0  0  0  0  0  0  0
   -1.7060   -5.2904   -1.1001 H   0  0  0  0  0  0  0  0  0  0  0  0
   -2.0647   -3.8486   -2.0647 H   0  0  0  0  0  0  0  0  0  0  0  0
   -0.4551   -4.0750   -1.3714 H   0  0  0  0  0  0  0  0  0  0  0  0
   -1.4611   -3.4543    2.2164 H   0  0  0  0  0  0  0  0  0  0  0  0
   -0.0928   -3.8079    1.1567 H   0  0  0  0  0  0  0  0  0  0  0  0
   -1.3157   -5.0479    1.4572 H   0  0  0  0  0  0  0  0  0  0  0  0
    2.6815    1.1708   -0.0156 H   0  0  0  0  0  0  0  0  0  0  0  0
    1.2565    1.1026    1.0090 H   0  0  0  0  0  0  0  0  0  0  0  0
    3.0730   -0.3338    1.9192 H   0  0  0  0  0  0  0  0  0  0  0  0
    1.6863   -1.3277    1.4872 H   0  0  0  0  0  0  0  0  0  0  0  0
    6.4831   -1.2889    1.1200 H   0  0  0  0  0  0  0  0  0  0  0  0
    5.0454   -1.1559    2.1365 H   0  0  0  0  0  0  0  0  0  0  0  0
    1.7333   -2.7034   -0.5525 H   0  0  0  0  0  0  0  0  0  0  0  0
    3.1085   -2.6256   -1.6406 H   0  0  0  0  0  0  0  0  0  0  0  0
    1.1886   -1.2552   -2.5415 H   0  0  0  0  0  0  0  0  0  0  0  0
    2.6357   -0.3046   -2.2555 H   0  0  0  0  0  0  0  0  0  0  0  0
   -3.6257    4.1562   -1.1377 H   0  0  0  0  0  0  0  0  0  0  0  0
   -3.6203    4.2765    0.6242 H   0  0  0  0  0  0  0  0  0  0  0  0
  1  2  1  0
  2  3  1  0
  3  4  1  0
  4  5  1  0
  5  6  2  0
  6  7  1  0
  7  8  1  0
  8  9  2  0
  9 10  1  0
 10 11  1  0
 11 12  1  0
 11 13  1  0
 11 14  1  0
 10 15  2  0
 15 16  1  0
 16 17  1  0
 17 18  1  0
 18 19  1  0
 19 20  1  0
 20 21  1  0
 21 22  2  0
 21 23  1  0
 23 24  1  0
 20 25  1  0
 25 26  1  0
 16 27  2  0
  6 28  1  0
 28  2  1  0
 27  5  1  0
 27  8  1  0
 26 17  1  0
  1 29  1  0
  1 30  1  0
  1 31  1  0
  2 32  1  0
  3 33  1  0
  3 34  1  0
  4 35  1  0
  4 36  1  0
 12 37  1  0
 12 38  1  0
 12 39  1  0
 13 40  1  0
 13 41  1  0
 13 42  1  0
 14 43  1  0
 14 44  1  0
 14 45  1  0
 18 46  1  0
 18 47  1  0
 19 48  1  0
 19 49  1  0
 23 50  1  0
 23 51  1  0
 25 52  1  0
 25 53  1  0
 26 54  1  0
 26 55  1  0
 28 56  1  0
 28 57  1  0
M  END
$$$$
