
     RDKit          3D

 42 44  0  0  0  0  0  0  0  0999 V2000
    1.5560    4.3987    0.7536 C   0  0  0  0  0  0  0  0  0  0  0  0
    0.0139    3.9844   -0.1038 S   0  0  0  0  0  0  0  0  0  0  0  0
    0.0764    2.1932   -0.0478 C   0  0  0  0  0  0  0  0  0  0  0  0
    1.3037    1.6531    0.0822 N   0  0  0  0  0  0  0  0  0  0  0  0
    1.3899    0.3147    0.0476 C   0  0  0  0  0  0  0  0  0  0  0  0
    2.7268   -0.2981    0.1840 C   0  0  0  0  0  0  0  0  0  0  0  0
    3.8924    0.4884    0.2714 C   0  0  0  0  0  0  0  0  0  0  0  0
    5.1591   -0.0910    0.4017 C   0  0  0  0  0  0  0  0  0  0  0  0
    5.2908   -1.4753    0.4485 C   0  0  0  0  0  0  0  0  0  0  0  0
    4.1586   -2.2792    0.3647 C   0  0  0  0  0  0  0  0  0  0  0  0
    2.8938   -1.6963    0.2339 C   0  0  0  0  0  0  0  0  0  0  0  0
    0.3344   -0.5052   -0.1090 N   0  0  0  0  0  0  0  0  0  0  0  0
   -0.8958    0.0338   -0.2156 C   0  0  0  0  0  0  0  0  0  0  0  0
   -1.9823   -0.8388   -0.3773 N   0  0  0  0  0  0  0  0  0  0  0  0
   -1.6336   -2.2103   -0.8034 C   0  0  0  0  0  0  0  0  0  0  0  0
   -2.9100   -3.0639   -0.8449 C   0  0  0  0  0  0  0  0  0  0  0  0
   -3.5516   -3.2005    0.4333 O   0  0  0  0  0  0  0  0  0  0  0  0
   -3.1919   -2.1687    1.3629 C   0  0  0  0  0  0  0  0  0  0  0  0
   -2.9973   -0.7895    0.7084 C   0  0  0  0  0  0  0  0  0  0  0  0
   -1.0564    1.4142   -0.2027 C   0  0  0  0  0  0  0  0  0  0  0  0
   -2.3736    2.0188   -0.4242 C   0  0  0  0  0  0  0  0  0  0  0  0
   -2.8687    2.0899   -1.8428 C   0  0  0  0  0  0  0  0  0  0  0  0
   -3.0272    2.4160    0.5359 O   0  0  0  0  0  0  0  0  0  0  0  0
    1.6093    5.4830    0.8826 H   0  0  0  0  0  0  0  0  0  0  0  0
    1.5858    3.9333    1.7431 H   0  0  0  0  0  0  0  0  0  0  0  0
    2.4242    4.0813    0.1696 H   0  0  0  0  0  0  0  0  0  0  0  0
    3.8213    1.5745    0.2363 H   0  0  0  0  0  0  0  0  0  0  0  0
    6.0403    0.5422    0.4660 H   0  0  0  0  0  0  0  0  0  0  0  0
    6.2740   -1.9266    0.5505 H   0  0  0  0  0  0  0  0  0  0  0  0
    4.2553   -3.3614    0.4017 H   0  0  0  0  0  0  0  0  0  0  0  0
    2.0259   -2.3511    0.1725 H   0  0  0  0  0  0  0  0  0  0  0  0
   -1.1810   -2.1852   -1.8018 H   0  0  0  0  0  0  0  0  0  0  0  0
   -0.9228   -2.6717   -0.1053 H   0  0  0  0  0  0  0  0  0  0  0  0
   -3.6411   -2.6250   -1.5340 H   0  0  0  0  0  0  0  0  0  0  0  0
   -2.6805   -4.0712   -1.2058 H   0  0  0  0  0  0  0  0  0  0  0  0
   -2.2762   -2.4817    1.8787 H   0  0  0  0  0  0  0  0  0  0  0  0
   -3.9843   -2.1155    2.1162 H   0  0  0  0  0  0  0  0  0  0  0  0
   -2.7354   -0.0729    1.4953 H   0  0  0  0  0  0  0  0  0  0  0  0
   -3.9449   -0.4729    0.2571 H   0  0  0  0  0  0  0  0  0  0  0  0
   -3.1336    3.1241   -2.0781 H   0  0  0  0  0  0  0  0  0  0  0  0
   -3.7440    1.4444   -1.9522 H   0  0  0  0  0  0  0  0  0  0  0  0
   -2.0996    1.7635   -2.5490 H   0  0  0  0  0  0  0  0  0  0  0  0
  1  2  1  0
  2  3  1  0
  3  4  2  0
  4  5  1  0
  5  6  1  0
  6  7  2  0
  7  8  1  0
  8  9  2  0
  9 10  1  0
 10 11  2  0
  5 12  2  0
 12 13  1  0
 13 14  1  0
 14 15  1  0
 15 16  1  0
 16 17  1  0
 17 18  1  0
 18 19  1  0
 13 20  2  0
 20 21  1  0
 21 22  1  0
 21 23  2  0
 20  3  1  0
 11  6  1  0
 19 14  1  0
  1 24  1  0
  1 25  1  0
  1 26  1  0
  7 27  1  0
  8 28  1  0
  9 29  1  0
 10 30  1  0
 11 31  1  0
 15 32  1  0
 15 33  1  0
 16 34  1  0
 16 35  1  0
 18 36  1  0
 18 37  1  0
 19 38  1  0
 19 39  1  0
 22 40  1  0
 22 41  1  0
 22 42  1  0
M  END
$$$$
