
     RDKit          3D

 37 39  0  0  0  0  0  0  0  0999 V2000
    0.0765   -0.7404   -3.7080 O   0  0  0  0  0  0  0  0  0  0  0  0
   -0.7243   -0.0384   -3.1136 C   0  0  0  0  0  0  0  0  0  0  0  0
   -1.0145    1.2026   -3.5479 O   0  0  0  0  0  0  0  0  0  0  0  0
   -1.5032   -0.4199   -1.8928 C   0  0  0  0  0  0  0  0  0  0  0  0
   -1.0230    0.3853   -0.6771 C   0  0  0  0  0  0  0  0  0  0  0  0
   -2.0307    0.2937    0.4661 C   0  0  0  0  0  0  0  0  0  0  0  0
   -3.3064    0.8677    0.3102 C   0  0  0  0  0  0  0  0  0  0  0  0
   -4.2516    0.8069    1.3343 C   0  0  0  0  0  0  0  0  0  0  0  0
   -3.9336    0.1834    2.5359 C   0  0  0  0  0  0  0  0  0  0  0  0
   -2.6695   -0.3746    2.7152 C   0  0  0  0  0  0  0  0  0  0  0  0
   -1.7159   -0.3296    1.6864 C   0  0  0  0  0  0  0  0  0  0  0  0
   -0.3395   -0.8848    1.9340 C   0  0  0  0  0  0  0  0  0  0  0  0
    0.3895   -1.2065    0.6368 C   0  0  0  0  0  0  0  0  0  0  0  0
    0.3540   -0.0788   -0.3215 N   0  0  0  0  0  0  0  0  0  0  0  0
    1.5201    1.1382   -0.1605 S   0  0  0  0  0  6  0  0  0  0  0  0
    1.4721    1.6398    1.1959 O   0  0  0  0  0  0  0  0  0  0  0  0
    1.4156    2.0297   -1.2962 O   0  0  0  0  0  0  0  0  0  0  0  0
    3.1325    0.3988   -0.3057 C   0  0  0  0  0  0  0  0  0  0  0  0
    4.2473    0.4388    0.5105 C   0  0  0  0  0  0  0  0  0  0  0  0
    5.3313   -0.3220   -0.0150 C   0  0  0  0  0  0  0  0  0  0  0  0
    5.0077   -0.9151   -1.2153 C   0  0  0  0  0  0  0  0  0  0  0  0
    3.4067   -0.5537   -1.7005 S   0  0  0  0  0  0  0  0  0  0  0  0
   -0.3837    1.3540   -4.2841 H   0  0  0  0  0  0  0  0  0  0  0  0
   -2.5628   -0.2536   -2.1199 H   0  0  0  0  0  0  0  0  0  0  0  0
   -1.3926   -1.4992   -1.7344 H   0  0  0  0  0  0  0  0  0  0  0  0
   -0.9821    1.4479   -0.9488 H   0  0  0  0  0  0  0  0  0  0  0  0
   -3.5709    1.3795   -0.6137 H   0  0  0  0  0  0  0  0  0  0  0  0
   -5.2320    1.2559    1.1973 H   0  0  0  0  0  0  0  0  0  0  0  0
   -4.6645    0.1442    3.3393 H   0  0  0  0  0  0  0  0  0  0  0  0
   -2.4259   -0.8378    3.6691 H   0  0  0  0  0  0  0  0  0  0  0  0
   -0.4103   -1.8032    2.5292 H   0  0  0  0  0  0  0  0  0  0  0  0
    0.2263   -0.1574    2.5258 H   0  0  0  0  0  0  0  0  0  0  0  0
   -0.0703   -2.0780    0.1537 H   0  0  0  0  0  0  0  0  0  0  0  0
    1.4215   -1.5017    0.8514 H   0  0  0  0  0  0  0  0  0  0  0  0
    4.2728    0.9954    1.4404 H   0  0  0  0  0  0  0  0  0  0  0  0
    6.2997   -0.4255    0.4598 H   0  0  0  0  0  0  0  0  0  0  0  0
    5.6338   -1.5417   -1.8363 H   0  0  0  0  0  0  0  0  0  0  0  0
  1  2  2  0
  2  3  1  0
  2  4  1  0
  4  5  1  0
  5  6  1  0
  6  7  2  0
  7  8  1  0
  8  9  2  0
  9 10  1  0
 10 11  2  0
 11 12  1  0
 12 13  1  0
 13 14  1  0
 14 15  1  0
 15 16  2  0
 15 17  2  0
 15 18  1  0
 18 19  2  0
 19 20  1  0
 20 21  2  0
 21 22  1  0
 14  5  1  0
 22 18  1  0
 11  6  1  0
  3 23  1  0
  4 24  1  0
  4 25  1  0
  5 26  1  0
  7 27  1  0
  8 28  1  0
  9 29  1  0
 10 30  1  0
 12 31  1  0
 12 32  1  0
 13 33  1  0
 13 34  1  0
 19 35  1  0
 20 36  1  0
 21 37  1  0
M  END
$$$$
