
     RDKit          3D

 46 48  0  0  0  0  0  0  0  0999 V2000
   -1.7634   -0.5912   -3.0055 N   0  0  0  0  0  0  0  0  0  0  0  0
   -0.6390   -0.2419   -2.3559 C   0  0  0  0  0  0  0  0  0  0  0  0
    0.3168    0.4444   -2.9070 N   0  0  0  0  0  0  0  0  0  0  0  0
    1.3181    0.6155   -1.8118 C   0  0  0  0  0  0  0  0  0  0  0  0
    0.8573   -0.2663   -0.6284 C   0  0  0  0  0  0  0  0  0  0  0  0
    1.7370   -1.5118   -0.4348 C   0  0  0  0  0  0  0  0  0  0  0  0
    3.0703   -1.2005    0.2049 C   0  0  0  0  0  0  0  0  0  0  0  0
    3.1493   -0.8987    1.5731 C   0  0  0  0  0  0  0  0  0  0  0  0
    4.3789   -0.6009    2.1651 C   0  0  0  0  0  0  0  0  0  0  0  0
    5.5315   -0.6061    1.3871 C   0  0  0  0  0  0  0  0  0  0  0  0
    6.7523   -0.3210    1.9230 O   0  0  0  0  0  0  0  0  0  0  0  0
    5.4734   -0.9049    0.0319 C   0  0  0  0  0  0  0  0  0  0  0  0
    4.2451   -1.2031   -0.5597 C   0  0  0  0  0  0  0  0  0  0  0  0
   -0.4743   -0.6581   -1.0776 N   0  0  0  0  0  0  0  0  0  0  0  0
   -1.5063   -1.0063   -0.1191 C   0  0  0  0  0  0  0  0  0  0  0  0
   -2.5059    0.1351    0.1563 C   0  0  0  0  0  0  0  0  0  0  0  0
   -3.6629   -0.3979    1.0293 C   0  0  0  0  0  0  0  0  0  0  0  0
   -4.3990    0.6846    1.8217 C   0  0  0  0  0  0  0  0  0  0  0  0
   -4.3125    2.0438    1.1469 C   0  0  0  0  0  0  0  0  0  0  0  0
   -2.8638    2.5074    1.0055 C   0  0  0  0  0  0  0  0  0  0  0  0
   -1.8630    1.3632    0.8117 C   0  0  0  0  0  0  0  0  0  0  0  0
   -1.6751   -0.3765   -3.9932 H   0  0  0  0  0  0  0  0  0  0  0  0
   -2.0138   -1.5596   -2.8628 H   0  0  0  0  0  0  0  0  0  0  0  0
    1.3309    1.6715   -1.5183 H   0  0  0  0  0  0  0  0  0  0  0  0
    2.3132    0.3546   -2.1827 H   0  0  0  0  0  0  0  0  0  0  0  0
    0.8163    0.3296    0.2901 H   0  0  0  0  0  0  0  0  0  0  0  0
    1.8879   -2.0275   -1.3926 H   0  0  0  0  0  0  0  0  0  0  0  0
    1.2206   -2.2407    0.2042 H   0  0  0  0  0  0  0  0  0  0  0  0
    2.2520   -0.8977    2.1883 H   0  0  0  0  0  0  0  0  0  0  0  0
    4.4167   -0.3711    3.2251 H   0  0  0  0  0  0  0  0  0  0  0  0
    6.6398   -0.1354    2.8694 H   0  0  0  0  0  0  0  0  0  0  0  0
    6.3819   -0.9064   -0.5637 H   0  0  0  0  0  0  0  0  0  0  0  0
    4.2139   -1.4356   -1.6222 H   0  0  0  0  0  0  0  0  0  0  0  0
   -1.0446   -1.3266    0.8235 H   0  0  0  0  0  0  0  0  0  0  0  0
   -2.0501   -1.8807   -0.4981 H   0  0  0  0  0  0  0  0  0  0  0  0
   -2.9380    0.4620   -0.7986 H   0  0  0  0  0  0  0  0  0  0  0  0
   -4.3764   -0.9161    0.3755 H   0  0  0  0  0  0  0  0  0  0  0  0
   -3.3013   -1.1537    1.7381 H   0  0  0  0  0  0  0  0  0  0  0  0
   -3.9636    0.7554    2.8266 H   0  0  0  0  0  0  0  0  0  0  0  0
   -5.4466    0.3927    1.9571 H   0  0  0  0  0  0  0  0  0  0  0  0
   -4.7764    1.9848    0.1543 H   0  0  0  0  0  0  0  0  0  0  0  0
   -4.8832    2.7879    1.7139 H   0  0  0  0  0  0  0  0  0  0  0  0
   -2.5696    3.0825    1.8921 H   0  0  0  0  0  0  0  0  0  0  0  0
   -2.8003    3.2017    0.1587 H   0  0  0  0  0  0  0  0  0  0  0  0
   -1.4461    1.0784    1.7864 H   0  0  0  0  0  0  0  0  0  0  0  0
   -1.0282    1.7414    0.2130 H   0  0  0  0  0  0  0  0  0  0  0  0
  1  2  1  0
  2  3  2  0
  3  4  1  0
  4  5  1  0
  5  6  1  0
  6  7  1  0
  7  8  2  0
  8  9  1  0
  9 10  2  0
 10 11  1  0
 10 12  1  0
 12 13  2  0
  5 14  1  0
 14 15  1  0
 15 16  1  0
 16 17  1  0
 17 18  1  0
 18 19  1  0
 19 20  1  0
 20 21  1  0
 14  2  1  0
 21 16  1  0
 13  7  1  0
  1 22  1  0
  1 23  1  0
  4 24  1  0
  4 25  1  0
  5 26  1  0
  6 27  1  0
  6 28  1  0
  8 29  1  0
  9 30  1  0
 11 31  1  0
 12 32  1  0
 13 33  1  0
 15 34  1  0
 15 35  1  0
 16 36  1  0
 17 37  1  0
 17 38  1  0
 18 39  1  0
 18 40  1  0
 19 41  1  0
 19 42  1  0
 20 43  1  0
 20 44  1  0
 21 45  1  0
 21 46  1  0
M  END
$$$$
