
     RDKit          3D

 37 38  0  0  0  0  0  0  0  0999 V2000
   -4.7117   -1.7064    0.8296 C   0  0  0  0  0  0  0  0  0  0  0  0
   -3.8322   -0.9885   -0.2079 C   0  0  0  0  0  0  0  0  0  0  0  0
   -3.0766   -2.0657   -1.0007 C   0  0  0  0  0  0  0  0  0  0  0  0
   -2.8636    0.0227    0.4665 C   0  0  0  0  0  0  0  0  0  0  0  0
   -3.5513    1.2533    1.0852 C   0  0  0  0  0  0  0  0  0  0  0  0
   -4.6315    1.2785    1.6532 O   0  0  0  0  0  0  0  0  0  0  0  0
   -2.8085    2.3823    1.0446 O   0  0  0  0  0  0  0  0  0  0  0  0
   -1.7172    0.4521   -0.3743 N   0  0  0  0  0  0  0  0  0  0  0  0
   -0.4393    0.2612    0.1291 C   0  0  0  0  0  0  0  0  0  0  0  0
   -0.1616   -0.2634    1.1995 O   0  0  0  0  0  0  0  0  0  0  0  0
    0.5833    0.7823   -0.8174 C   0  0  0  0  0  0  0  0  0  0  0  0
    1.8970    0.6909   -0.5619 C   0  0  0  0  0  0  0  0  0  0  0  0
    2.9755    1.1678   -1.4092 C   0  0  0  0  0  0  0  0  0  0  0  0
    4.3031    1.0739   -1.2262 C   0  0  0  0  0  0  0  0  0  0  0  0
    4.9757    0.4465   -0.1391 C   0  0  0  0  0  0  0  0  0  0  0  0
    6.3432    0.4494    0.1260 C   0  0  0  0  0  0  0  0  0  0  0  0
    6.5689   -0.3052    1.3014 C   0  0  0  0  0  0  0  0  0  0  0  0
    5.3342   -0.7414    1.7032 C   0  0  0  0  0  0  0  0  0  0  0  0
    4.3793   -0.3021    0.8506 O   0  0  0  0  0  0  0  0  0  0  0  0
   -0.1836    1.4634   -2.1910 S   0  0  0  0  0  0  0  0  0  0  0  0
   -1.8001    1.1316   -1.5754 C   0  0  0  0  0  0  0  0  0  0  0  0
   -3.1530    1.6343   -2.4152 S   0  0  0  0  0  0  0  0  0  0  0  0
   -5.3749   -1.0137    1.3528 H   0  0  0  0  0  0  0  0  0  0  0  0
   -5.3520   -2.4517    0.3445 H   0  0  0  0  0  0  0  0  0  0  0  0
   -4.1019   -2.2253    1.5771 H   0  0  0  0  0  0  0  0  0  0  0  0
   -4.5109   -0.4665   -0.8898 H   0  0  0  0  0  0  0  0  0  0  0  0
   -2.5224   -1.6409   -1.8422 H   0  0  0  0  0  0  0  0  0  0  0  0
   -3.7731   -2.8013   -1.4181 H   0  0  0  0  0  0  0  0  0  0  0  0
   -2.3663   -2.6006   -0.3609 H   0  0  0  0  0  0  0  0  0  0  0  0
   -2.4440   -0.4931    1.3405 H   0  0  0  0  0  0  0  0  0  0  0  0
   -3.3630    3.0483    1.5053 H   0  0  0  0  0  0  0  0  0  0  0  0
    2.1854    0.2198    0.3753 H   0  0  0  0  0  0  0  0  0  0  0  0
    2.6659    1.6843   -2.3181 H   0  0  0  0  0  0  0  0  0  0  0  0
    4.9410    1.5217   -1.9858 H   0  0  0  0  0  0  0  0  0  0  0  0
    7.0933    0.9492   -0.4718 H   0  0  0  0  0  0  0  0  0  0  0  0
    7.5113   -0.5053    1.7907 H   0  0  0  0  0  0  0  0  0  0  0  0
    4.9818   -1.3424    2.5298 H   0  0  0  0  0  0  0  0  0  0  0  0
  1  2  1  0
  2  3  1  0
  2  4  1  0
  4  5  1  0
  5  6  2  0
  5  7  1  0
  4  8  1  0
  8  9  1  0
  9 10  2  0
  9 11  1  0
 11 12  2  3
 12 13  1  0
 13 14  2  3
 14 15  1  0
 15 16  2  0
 16 17  1  0
 17 18  2  0
 18 19  1  0
 11 20  1  0
 20 21  1  0
 21 22  2  0
 21  8  1  0
 19 15  1  0
  1 23  1  0
  1 24  1  0
  1 25  1  0
  2 26  1  0
  3 27  1  0
  3 28  1  0
  3 29  1  0
  4 30  1  0
  7 31  1  0
 12 32  1  0
 13 33  1  0
 14 34  1  0
 16 35  1  0
 17 36  1  0
 18 37  1  0
M  END
$$$$
