
     RDKit          3D

 52 54  0  0  0  0  0  0  0  0999 V2000
   -6.7244   -1.0365    1.1136 C   0  0  0  0  0  0  0  0  0  0  0  0
   -5.4938   -1.4473    0.3191 C   0  0  0  0  0  0  0  0  0  0  0  0
   -4.2523   -0.6818    0.7799 C   0  0  0  0  0  0  0  0  0  0  0  0
   -2.9676   -1.1045    0.0518 C   0  0  0  0  0  0  0  0  0  0  0  0
   -2.5240   -0.1560   -1.0857 C   0  0  0  0  0  0  0  0  0  0  0  0
   -3.5486   -0.0258   -2.2326 C   0  0  0  0  0  0  0  0  0  0  0  0
   -3.7981   -1.2995   -3.0295 C   0  0  0  0  0  0  0  0  0  0  0  0
   -1.1353   -0.5582   -1.6478 C   0  0  0  0  0  0  0  0  0  0  0  0
   -0.0393   -0.3619   -0.6931 N   0  0  0  0  0  0  0  0  0  0  0  0
    0.3940    0.9304   -0.4452 C   0  0  0  0  0  0  0  0  0  0  0  0
   -0.0517    1.9506   -0.9539 O   0  0  0  0  0  0  0  0  0  0  0  0
    1.5119    0.9260    0.5319 C   0  0  0  0  0  0  0  0  0  0  0  0
    2.0851    2.0655    0.9449 C   0  0  0  0  0  0  0  0  0  0  0  0
    3.1692    2.2025    1.8598 C   0  0  0  0  0  0  0  0  0  0  0  0
    3.1056    2.9549    3.0084 C   0  0  0  0  0  0  0  0  0  0  0  0
    4.3172    2.8090    3.6117 N   0  0  0  0  0  0  0  0  0  0  0  0
    5.1719    2.0362    2.9282 N   0  0  0  0  0  0  0  0  0  0  0  0
    4.4958    1.6723    1.8235 C   0  0  0  0  0  0  0  0  0  0  0  0
    5.1386    0.8558    0.7930 C   0  0  0  0  0  0  0  0  0  0  0  0
    4.9899    1.1613   -0.5672 C   0  0  0  0  0  0  0  0  0  0  0  0
    5.5930    0.3626   -1.5421 C   0  0  0  0  0  0  0  0  0  0  0  0
    6.3541   -0.7429   -1.1659 C   0  0  0  0  0  0  0  0  0  0  0  0
    6.5207   -1.0474    0.1839 C   0  0  0  0  0  0  0  0  0  0  0  0
    5.9192   -0.2492    1.1593 C   0  0  0  0  0  0  0  0  0  0  0  0
    1.8698   -0.6823    1.0094 S   0  0  0  0  0  0  0  0  0  0  0  0
    0.6435   -1.3727   -0.0458 C   0  0  0  0  0  0  0  0  0  0  0  0
    0.4215   -3.0220   -0.1709 S   0  0  0  0  0  0  0  0  0  0  0  0
   -7.6001   -1.5976    0.7726 H   0  0  0  0  0  0  0  0  0  0  0  0
   -6.5879   -1.2366    2.1811 H   0  0  0  0  0  0  0  0  0  0  0  0
   -6.9342    0.0305    0.9873 H   0  0  0  0  0  0  0  0  0  0  0  0
   -5.3326   -2.5245    0.4429 H   0  0  0  0  0  0  0  0  0  0  0  0
   -5.6882   -1.2701   -0.7420 H   0  0  0  0  0  0  0  0  0  0  0  0
   -4.4117    0.3991    0.6895 H   0  0  0  0  0  0  0  0  0  0  0  0
   -4.1144   -0.8834    1.8504 H   0  0  0  0  0  0  0  0  0  0  0  0
   -3.0460   -2.1365   -0.3084 H   0  0  0  0  0  0  0  0  0  0  0  0
   -2.1741   -1.1079    0.8093 H   0  0  0  0  0  0  0  0  0  0  0  0
   -2.4324    0.8454   -0.6440 H   0  0  0  0  0  0  0  0  0  0  0  0
   -3.2001    0.7485   -2.9285 H   0  0  0  0  0  0  0  0  0  0  0  0
   -4.5006    0.3450   -1.8378 H   0  0  0  0  0  0  0  0  0  0  0  0
   -4.5771   -1.1218   -3.7783 H   0  0  0  0  0  0  0  0  0  0  0  0
   -4.1311   -2.1225   -2.3921 H   0  0  0  0  0  0  0  0  0  0  0  0
   -2.8988   -1.6199   -3.5637 H   0  0  0  0  0  0  0  0  0  0  0  0
   -1.1530   -1.5933   -1.9987 H   0  0  0  0  0  0  0  0  0  0  0  0
   -0.9089    0.0670   -2.5212 H   0  0  0  0  0  0  0  0  0  0  0  0
    1.6775    3.0030    0.5665 H   0  0  0  0  0  0  0  0  0  0  0  0
    2.3213    3.5501    3.4538 H   0  0  0  0  0  0  0  0  0  0  0  0
    4.6321    3.2078    4.4900 H   0  0  0  0  0  0  0  0  0  0  0  0
    4.4181    2.0310   -0.8798 H   0  0  0  0  0  0  0  0  0  0  0  0
    5.4751    0.6079   -2.5943 H   0  0  0  0  0  0  0  0  0  0  0  0
    6.8252   -1.3632   -1.9241 H   0  0  0  0  0  0  0  0  0  0  0  0
    7.1199   -1.9042    0.4805 H   0  0  0  0  0  0  0  0  0  0  0  0
    6.0559   -0.4928    2.2109 H   0  0  0  0  0  0  0  0  0  0  0  0
  1  2  1  0
  2  3  1  0
  3  4  1  0
  4  5  1  0
  5  6  1  0
  6  7  1  0
  5  8  1  0
  8  9  1  0
  9 10  1  0
 10 11  2  0
 10 12  1  0
 12 13  2  3
 13 14  1  0
 14 15  2  0
 15 16  1  0
 16 17  1  0
 17 18  2  0
 18 19  1  0
 19 20  2  0
 20 21  1  0
 21 22  2  0
 22 23  1  0
 23 24  2  0
 12 25  1  0
 25 26  1  0
 26 27  2  0
 26  9  1  0
 18 14  1  0
 24 19  1  0
  1 28  1  0
  1 29  1  0
  1 30  1  0
  2 31  1  0
  2 32  1  0
  3 33  1  0
  3 34  1  0
  4 35  1  0
  4 36  1  0
  5 37  1  0
  6 38  1  0
  6 39  1  0
  7 40  1  0
  7 41  1  0
  7 42  1  0
  8 43  1  0
  8 44  1  0
 13 45  1  0
 15 46  1  0
 16 47  1  0
 20 48  1  0
 21 49  1  0
 22 50  1  0
 23 51  1  0
 24 52  1  0
M  END
$$$$
