
     RDKit          3D

 59 62  0  0  0  0  0  0  0  0999 V2000
    5.7608    3.4755   -4.2712 C   0  0  0  0  0  0  0  0  0  0  0  0
    5.7445    2.1268   -3.6152 C   0  0  0  0  0  0  0  0  0  0  0  0
    6.2728    1.0100   -4.2730 C   0  0  0  0  0  0  0  0  0  0  0  0
    6.2854   -0.2408   -3.6500 C   0  0  0  0  0  0  0  0  0  0  0  0
    5.7857   -0.3918   -2.3503 C   0  0  0  0  0  0  0  0  0  0  0  0
    5.7650   -1.7421   -1.6815 C   0  0  0  0  0  0  0  0  0  0  0  0
    4.4781   -2.3769   -1.8596 N   0  0  0  0  0  0  0  0  0  0  0  0
    3.4862   -2.2621   -0.9106 C   0  0  0  0  0  0  0  0  0  0  0  0
    3.6598   -1.7664    0.1957 O   0  0  0  0  0  0  0  0  0  0  0  0
    2.1619   -2.8397   -1.3697 C   0  0  0  0  0  0  0  0  0  0  0  0
    0.9812   -2.4454   -0.4846 C   0  0  0  0  0  0  0  0  0  0  0  0
    0.6948   -0.9416   -0.5263 C   0  0  0  0  0  0  0  0  0  0  0  0
   -0.6497   -0.6408   -0.0432 N   0  0  0  0  0  0  0  0  0  0  0  0
   -1.6528   -0.6428   -1.0212 N   0  0  0  0  0  0  0  0  0  0  0  0
   -2.8967   -0.4099   -0.7086 C   0  0  0  0  0  0  0  0  0  0  0  0
   -3.9184   -0.4093   -1.8097 C   0  0  0  0  0  0  0  0  0  0  0  0
   -3.2490   -0.1683    0.6685 C   0  0  0  0  0  0  0  0  0  0  0  0
   -4.4438    0.0465    1.3362 C   0  0  0  0  0  0  0  0  0  0  0  0
   -5.8411   -0.0327    0.8383 C   0  0  0  0  0  0  0  0  0  0  0  0
   -4.0840    0.3083    2.6646 N   0  0  0  0  0  0  0  0  0  0  0  0
   -4.8603    0.7958    3.7624 C   0  0  0  0  0  0  0  0  0  0  0  0
   -6.0827    1.4547    3.5860 C   0  0  0  0  0  0  0  0  0  0  0  0
   -6.8026    1.9188    4.6930 C   0  0  0  0  0  0  0  0  0  0  0  0
   -6.3043    1.7414    5.9817 C   0  0  0  0  0  0  0  0  0  0  0  0
   -5.0766    1.1140    6.1682 C   0  0  0  0  0  0  0  0  0  0  0  0
   -4.3538    0.6511    5.0663 C   0  0  0  0  0  0  0  0  0  0  0  0
   -2.7677    0.0352    2.8719 N   0  0  0  0  0  0  0  0  0  0  0  0
   -2.2595   -0.1799    1.6569 C   0  0  0  0  0  0  0  0  0  0  0  0
   -0.8607   -0.4388    1.3373 C   0  0  0  0  0  0  0  0  0  0  0  0
    0.0325   -0.4771    2.1803 O   0  0  0  0  0  0  0  0  0  0  0  0
    5.2646    0.7297   -1.6907 C   0  0  0  0  0  0  0  0  0  0  0  0
    5.2511    1.9787   -2.3145 C   0  0  0  0  0  0  0  0  0  0  0  0
    5.6831    3.3818   -5.3595 H   0  0  0  0  0  0  0  0  0  0  0  0
    6.6898    3.9996   -4.0269 H   0  0  0  0  0  0  0  0  0  0  0  0
    4.9128    4.0824   -3.9368 H   0  0  0  0  0  0  0  0  0  0  0  0
    6.6775    1.1075   -5.2780 H   0  0  0  0  0  0  0  0  0  0  0  0
    6.6931   -1.0945   -4.1863 H   0  0  0  0  0  0  0  0  0  0  0  0
    6.0078   -1.6457   -0.6173 H   0  0  0  0  0  0  0  0  0  0  0  0
    6.5174   -2.4011   -2.1281 H   0  0  0  0  0  0  0  0  0  0  0  0
    4.2204   -2.6348   -2.8021 H   0  0  0  0  0  0  0  0  0  0  0  0
    2.2631   -3.9315   -1.3662 H   0  0  0  0  0  0  0  0  0  0  0  0
    1.9693   -2.5256   -2.4022 H   0  0  0  0  0  0  0  0  0  0  0  0
    1.1540   -2.7587    0.5521 H   0  0  0  0  0  0  0  0  0  0  0  0
    0.0989   -2.9972   -0.8323 H   0  0  0  0  0  0  0  0  0  0  0  0
    1.4218   -0.3944    0.0828 H   0  0  0  0  0  0  0  0  0  0  0  0
    0.7740   -0.5583   -1.5505 H   0  0  0  0  0  0  0  0  0  0  0  0
   -4.5584    0.4737   -1.7335 H   0  0  0  0  0  0  0  0  0  0  0  0
   -3.4245   -0.3952   -2.7860 H   0  0  0  0  0  0  0  0  0  0  0  0
   -4.5271   -1.3149   -1.7430 H   0  0  0  0  0  0  0  0  0  0  0  0
   -5.9249   -0.7517    0.0192 H   0  0  0  0  0  0  0  0  0  0  0  0
   -6.5313   -0.3885    1.6088 H   0  0  0  0  0  0  0  0  0  0  0  0
   -6.1762    0.9402    0.4673 H   0  0  0  0  0  0  0  0  0  0  0  0
   -6.4890    1.6731    2.6061 H   0  0  0  0  0  0  0  0  0  0  0  0
   -7.7497    2.4329    4.5478 H   0  0  0  0  0  0  0  0  0  0  0  0
   -6.8650    2.1050    6.8388 H   0  0  0  0  0  0  0  0  0  0  0  0
   -4.6758    0.9840    7.1704 H   0  0  0  0  0  0  0  0  0  0  0  0
   -3.3948    0.1649    5.2427 H   0  0  0  0  0  0  0  0  0  0  0  0
    4.8635    0.6321   -0.6821 H   0  0  0  0  0  0  0  0  0  0  0  0
    4.8491    2.8345   -1.7765 H   0  0  0  0  0  0  0  0  0  0  0  0
  1  2  1  0
  2  3  2  0
  3  4  1  0
  4  5  2  0
  5  6  1  0
  6  7  1  0
  7  8  1  0
  8  9  2  0
  8 10  1  0
 10 11  1  0
 11 12  1  0
 12 13  1  0
 13 14  1  0
 14 15  2  0
 15 16  1  0
 15 17  1  0
 17 18  2  0
 18 19  1  0
 18 20  1  0
 20 21  1  0
 21 22  2  0
 22 23  1  0
 23 24  2  0
 24 25  1  0
 25 26  2  0
 20 27  1  0
 27 28  2  0
 28 29  1  0
 29 30  2  0
  5 31  1  0
 31 32  2  0
 32  2  1  0
 29 13  1  0
 28 17  1  0
 26 21  1  0
  1 33  1  0
  1 34  1  0
  1 35  1  0
  3 36  1  0
  4 37  1  0
  6 38  1  0
  6 39  1  0
  7 40  1  0
 10 41  1  0
 10 42  1  0
 11 43  1  0
 11 44  1  0
 12 45  1  0
 12 46  1  0
 16 47  1  0
 16 48  1  0
 16 49  1  0
 19 50  1  0
 19 51  1  0
 19 52  1  0
 22 53  1  0
 23 54  1  0
 24 55  1  0
 25 56  1  0
 26 57  1  0
 31 58  1  0
 32 59  1  0
M  END
$$$$
