
     RDKit          3D

 46 47  0  0  0  0  0  0  0  0999 V2000
    1.5194   -3.4886    0.4464 C   0  0  0  0  0  0  0  0  0  0  0  0
    2.1732   -2.5896    1.4774 C   0  0  0  0  0  0  0  0  0  0  0  0
    1.6681   -1.2597    1.3103 O   0  0  0  0  0  0  0  0  0  0  0  0
    2.1266   -0.3805    2.2476 C   0  0  0  0  0  0  0  0  0  0  0  0
    2.9693   -0.6500    3.0955 O   0  0  0  0  0  0  0  0  0  0  0  0
    1.5986    0.9646    2.0524 C   0  0  0  0  0  0  0  0  0  0  0  0
    2.3847    2.1139    2.0630 C   0  0  0  0  0  0  0  0  0  0  0  0
    3.8482    2.2775    2.2801 C   0  0  0  0  0  0  0  0  0  0  0  0
    1.5732    3.1930    1.8234 N   0  0  0  0  0  0  0  0  0  0  0  0
    0.2746    2.7803    1.6637 C   0  0  0  0  0  0  0  0  0  0  0  0
   -0.8169    3.7580    1.4106 C   0  0  0  0  0  0  0  0  0  0  0  0
    0.2522    1.4020    1.8458 C   0  0  0  0  0  0  0  0  0  0  0  0
   -1.1777    0.4106    1.8480 S   0  0  0  0  0  6  0  0  0  0  0  0
   -2.1748    1.2364    2.4927 O   0  0  0  0  0  0  0  0  0  0  0  0
   -0.7870   -0.8681    2.3902 O   0  0  0  0  0  0  0  0  0  0  0  0
   -1.6693    0.2261    0.2564 N   0  0  0  0  0  0  0  0  0  0  0  0
   -0.7817   -0.5238   -0.6303 C   0  0  0  0  0  0  0  0  0  0  0  0
   -1.3462   -0.5796   -2.0340 C   0  0  0  0  0  0  0  0  0  0  0  0
   -0.8386    0.3026   -3.0055 C   0  0  0  0  0  0  0  0  0  0  0  0
   -1.3417    0.3014   -4.3059 C   0  0  0  0  0  0  0  0  0  0  0  0
   -2.3636   -0.5755   -4.6527 C   0  0  0  0  0  0  0  0  0  0  0  0
   -2.8856   -1.4494   -3.6995 C   0  0  0  0  0  0  0  0  0  0  0  0
   -2.3912   -1.4612   -2.3853 C   0  0  0  0  0  0  0  0  0  0  0  0
   -2.9904   -2.4148   -1.3865 C   0  0  0  0  0  0  0  0  0  0  0  0
    1.6885   -3.1055   -0.5653 H   0  0  0  0  0  0  0  0  0  0  0  0
    1.9142   -4.5064    0.5111 H   0  0  0  0  0  0  0  0  0  0  0  0
    0.4360   -3.5243    0.5993 H   0  0  0  0  0  0  0  0  0  0  0  0
    1.9403   -2.9562    2.4837 H   0  0  0  0  0  0  0  0  0  0  0  0
    3.2586   -2.5883    1.3269 H   0  0  0  0  0  0  0  0  0  0  0  0
    4.1809    3.2901    2.0298 H   0  0  0  0  0  0  0  0  0  0  0  0
    4.0992    2.0864    3.3282 H   0  0  0  0  0  0  0  0  0  0  0  0
    4.4102    1.5766    1.6546 H   0  0  0  0  0  0  0  0  0  0  0  0
    1.8859    4.1562    1.7867 H   0  0  0  0  0  0  0  0  0  0  0  0
   -1.5142    3.3770    0.6584 H   0  0  0  0  0  0  0  0  0  0  0  0
   -1.3712    3.9574    2.3329 H   0  0  0  0  0  0  0  0  0  0  0  0
   -0.4209    4.7096    1.0408 H   0  0  0  0  0  0  0  0  0  0  0  0
   -2.0272    1.0957   -0.1332 H   0  0  0  0  0  0  0  0  0  0  0  0
    0.2022   -0.0437   -0.6663 H   0  0  0  0  0  0  0  0  0  0  0  0
   -0.6359   -1.5406   -0.2572 H   0  0  0  0  0  0  0  0  0  0  0  0
   -0.0409    0.9987   -2.7541 H   0  0  0  0  0  0  0  0  0  0  0  0
   -0.9370    0.9847   -5.0479 H   0  0  0  0  0  0  0  0  0  0  0  0
   -2.7584   -0.5790   -5.6653 H   0  0  0  0  0  0  0  0  0  0  0  0
   -3.6886   -2.1240   -3.9899 H   0  0  0  0  0  0  0  0  0  0  0  0
   -2.2306   -3.1147   -1.0249 H   0  0  0  0  0  0  0  0  0  0  0  0
   -3.4186   -1.8674   -0.5414 H   0  0  0  0  0  0  0  0  0  0  0  0
   -3.7961   -3.0081   -1.8323 H   0  0  0  0  0  0  0  0  0  0  0  0
  1  2  1  0
  2  3  1  0
  3  4  1  0
  4  5  2  0
  4  6  1  0
  6  7  2  0
  7  8  1  0
  7  9  1  0
  9 10  1  0
 10 11  1  0
 10 12  2  0
 12 13  1  0
 13 14  2  0
 13 15  2  0
 13 16  1  0
 16 17  1  0
 17 18  1  0
 18 19  2  0
 19 20  1  0
 20 21  2  0
 21 22  1  0
 22 23  2  0
 23 24  1  0
 12  6  1  0
 23 18  1  0
  1 25  1  0
  1 26  1  0
  1 27  1  0
  2 28  1  0
  2 29  1  0
  8 30  1  0
  8 31  1  0
  8 32  1  0
  9 33  1  0
 11 34  1  0
 11 35  1  0
 11 36  1  0
 16 37  1  0
 17 38  1  0
 17 39  1  0
 19 40  1  0
 20 41  1  0
 21 42  1  0
 22 43  1  0
 24 44  1  0
 24 45  1  0
 24 46  1  0
M  END
$$$$
