
     RDKit          3D

 59 63  0  0  0  0  0  0  0  0999 V2000
    4.8547   -4.3465    2.8993 C   0  0  0  0  0  0  0  0  0  0  0  0
    4.9528   -2.9326    3.0126 O   0  0  0  0  0  0  0  0  0  0  0  0
    4.6769   -2.2020    1.8899 C   0  0  0  0  0  0  0  0  0  0  0  0
    4.2926   -2.7146    0.6504 C   0  0  0  0  0  0  0  0  0  0  0  0
    4.0406   -1.8493   -0.4208 C   0  0  0  0  0  0  0  0  0  0  0  0
    4.1722   -0.4647   -0.2633 C   0  0  0  0  0  0  0  0  0  0  0  0
    3.8964    0.4366   -1.3818 C   0  0  0  0  0  0  0  0  0  0  0  0
    5.1862    0.8660   -2.4162 S   0  0  0  0  0  0  0  0  0  0  0  0
    4.1821    1.8547   -3.4011 C   0  0  0  0  0  0  0  0  0  0  0  0
    4.5748    2.5918   -4.5362 C   0  0  0  0  0  0  0  0  0  0  0  0
    3.6188    3.3463   -5.2193 C   0  0  0  0  0  0  0  0  0  0  0  0
    2.3011    3.3707   -4.7871 C   0  0  0  0  0  0  0  0  0  0  0  0
    1.9162    2.6377   -3.6608 C   0  0  0  0  0  0  0  0  0  0  0  0
    2.8623    1.8598   -2.9440 C   0  0  0  0  0  0  0  0  0  0  0  0
    2.7090    1.0316   -1.7705 C   0  0  0  0  0  0  0  0  0  0  0  0
    1.4697    0.8077   -1.0398 C   0  0  0  0  0  0  0  0  0  0  0  0
    1.1385    1.6190    0.0474 C   0  0  0  0  0  0  0  0  0  0  0  0
   -0.0563    1.4018    0.7371 C   0  0  0  0  0  0  0  0  0  0  0  0
   -0.9299    0.3819    0.3493 C   0  0  0  0  0  0  0  0  0  0  0  0
   -2.0588    0.2804    1.1133 O   0  0  0  0  0  0  0  0  0  0  0  0
   -3.0088   -0.7218    0.7488 C   0  0  0  0  0  0  0  0  0  0  0  0
   -4.2005   -0.6836    1.7275 C   0  0  0  0  0  0  0  0  0  0  0  0
   -4.9917    0.5633    1.7011 N   0  0  0  0  0  0  0  0  0  0  0  0
   -5.9361    0.6296    2.8391 C   0  0  0  0  0  0  0  0  0  0  0  0
   -7.1636   -0.2847    2.6844 C   0  0  0  0  0  0  0  0  0  0  0  0
   -7.8654   -0.0181    1.4638 O   0  0  0  0  0  0  0  0  0  0  0  0
   -6.9956   -0.1572    0.3338 C   0  0  0  0  0  0  0  0  0  0  0  0
   -5.7628    0.7556    0.4548 C   0  0  0  0  0  0  0  0  0  0  0  0
   -0.5987   -0.4247   -0.7406 C   0  0  0  0  0  0  0  0  0  0  0  0
    0.5972   -0.2109   -1.4353 C   0  0  0  0  0  0  0  0  0  0  0  0
    4.5542    0.0465    0.9806 C   0  0  0  0  0  0  0  0  0  0  0  0
    4.8044   -0.8197    2.0479 C   0  0  0  0  0  0  0  0  0  0  0  0
    5.1131   -4.7785    3.8710 H   0  0  0  0  0  0  0  0  0  0  0  0
    3.8309   -4.6532    2.6605 H   0  0  0  0  0  0  0  0  0  0  0  0
    5.5665   -4.7343    2.1629 H   0  0  0  0  0  0  0  0  0  0  0  0
    4.1783   -3.7797    0.4815 H   0  0  0  0  0  0  0  0  0  0  0  0
    3.7401   -2.2627   -1.3807 H   0  0  0  0  0  0  0  0  0  0  0  0
    5.6066    2.5753   -4.8756 H   0  0  0  0  0  0  0  0  0  0  0  0
    3.9127    3.9192   -6.0956 H   0  0  0  0  0  0  0  0  0  0  0  0
    1.5628    3.9622   -5.3231 H   0  0  0  0  0  0  0  0  0  0  0  0
    0.8800    2.6676   -3.3310 H   0  0  0  0  0  0  0  0  0  0  0  0
    1.8028    2.4187    0.3648 H   0  0  0  0  0  0  0  0  0  0  0  0
   -0.3111    2.0333    1.5850 H   0  0  0  0  0  0  0  0  0  0  0  0
   -2.5401   -1.7105    0.8327 H   0  0  0  0  0  0  0  0  0  0  0  0
   -3.3488   -0.5773   -0.2821 H   0  0  0  0  0  0  0  0  0  0  0  0
   -4.8330   -1.5592    1.5440 H   0  0  0  0  0  0  0  0  0  0  0  0
   -3.7795   -0.7962    2.7353 H   0  0  0  0  0  0  0  0  0  0  0  0
   -6.2855    1.6678    2.9131 H   0  0  0  0  0  0  0  0  0  0  0  0
   -5.4215    0.4159    3.7833 H   0  0  0  0  0  0  0  0  0  0  0  0
   -6.8855   -1.3442    2.7150 H   0  0  0  0  0  0  0  0  0  0  0  0
   -7.8609   -0.1054    3.5091 H   0  0  0  0  0  0  0  0  0  0  0  0
   -6.7117   -1.2100    0.2259 H   0  0  0  0  0  0  0  0  0  0  0  0
   -7.5698    0.1189   -0.5565 H   0  0  0  0  0  0  0  0  0  0  0  0
   -5.1287    0.6512   -0.4307 H   0  0  0  0  0  0  0  0  0  0  0  0
   -6.1087    1.7979    0.4480 H   0  0  0  0  0  0  0  0  0  0  0  0
   -1.2447   -1.2282   -1.0762 H   0  0  0  0  0  0  0  0  0  0  0  0
    0.8440   -0.8448   -2.2837 H   0  0  0  0  0  0  0  0  0  0  0  0
    4.6580    1.1187    1.1272 H   0  0  0  0  0  0  0  0  0  0  0  0
    5.1010   -0.4131    3.0116 H   0  0  0  0  0  0  0  0  0  0  0  0
  1  2  1  0
  2  3  1  0
  3  4  2  0
  4  5  1  0
  5  6  2  0
  6  7  1  0
  7  8  1  0
  8  9  1  0
  9 10  2  0
 10 11  1  0
 11 12  2  0
 12 13  1  0
 13 14  2  0
 14 15  1  0
 15 16  1  0
 16 17  2  0
 17 18  1  0
 18 19  2  0
 19 20  1  0
 20 21  1  0
 21 22  1  0
 22 23  1  0
 23 24  1  0
 24 25  1  0
 25 26  1  0
 26 27  1  0
 27 28  1  0
 19 29  1  0
 29 30  2  0
  6 31  1  0
 31 32  2  0
 32  3  1  0
 15  7  2  0
 30 16  1  0
 14  9  1  0
 28 23  1  0
  1 33  1  0
  1 34  1  0
  1 35  1  0
  4 36  1  0
  5 37  1  0
 10 38  1  0
 11 39  1  0
 12 40  1  0
 13 41  1  0
 17 42  1  0
 18 43  1  0
 21 44  1  0
 21 45  1  0
 22 46  1  0
 22 47  1  0
 24 48  1  0
 24 49  1  0
 25 50  1  0
 25 51  1  0
 27 52  1  0
 27 53  1  0
 28 54  1  0
 28 55  1  0
 29 56  1  0
 30 57  1  0
 31 58  1  0
 32 59  1  0
M  END
$$$$
