
     RDKit          3D

 41 43  0  0  0  0  0  0  0  0999 V2000
   -7.1506   -0.2170   -0.7790 C   0  0  0  0  0  0  0  0  0  0  0  0
   -6.7399    0.5740    0.4507 C   0  0  0  0  0  0  0  0  0  0  0  0
   -5.6593   -0.0668    1.1266 O   0  0  0  0  0  0  0  0  0  0  0  0
   -4.3788    0.2606    0.7841 C   0  0  0  0  0  0  0  0  0  0  0  0
   -3.9855    1.0665   -0.2809 C   0  0  0  0  0  0  0  0  0  0  0  0
   -2.6257    1.3150   -0.5163 C   0  0  0  0  0  0  0  0  0  0  0  0
   -1.6358    0.7684    0.3131 C   0  0  0  0  0  0  0  0  0  0  0  0
   -0.2340    1.0167    0.0690 N   0  0  0  0  0  0  0  0  0  0  0  0
    0.5915   -0.1198   -0.0152 C   0  0  0  0  0  0  0  0  0  0  0  0
    0.1813   -1.2785    0.0853 O   0  0  0  0  0  0  0  0  0  0  0  0
    2.0468    0.1238   -0.2667 C   0  0  0  0  0  0  0  0  0  0  0  0
    2.8425   -0.9603   -0.1641 C   0  0  0  0  0  0  0  0  0  0  0  0
    4.2567   -1.0180   -0.2966 C   0  0  0  0  0  0  0  0  0  0  0  0
    5.2698   -0.1899    0.1741 C   0  0  0  0  0  0  0  0  0  0  0  0
    6.5127   -0.7503   -0.2064 C   0  0  0  0  0  0  0  0  0  0  0  0
    6.2128   -1.9131   -0.8711 C   0  0  0  0  0  0  0  0  0  0  0  0
    7.0294   -2.9609   -1.5128 C   0  0  0  0  0  0  0  0  0  0  0  0
    4.8671   -2.0898   -0.9137 O   0  0  0  0  0  0  0  0  0  0  0  0
    2.4953    1.4785   -0.6319 C   0  0  0  0  0  0  0  0  0  0  0  0
    3.5943    1.7716   -1.0817 O   0  0  0  0  0  0  0  0  0  0  0  0
    1.5607    2.4535   -0.4458 N   0  0  0  0  0  0  0  0  0  0  0  0
    0.2455    2.3236   -0.0836 C   0  0  0  0  0  0  0  0  0  0  0  0
   -0.5580    3.7804    0.1717 S   0  0  0  0  0  0  0  0  0  0  0  0
   -2.0409   -0.0625    1.3658 C   0  0  0  0  0  0  0  0  0  0  0  0
   -3.3982   -0.3082    1.5979 C   0  0  0  0  0  0  0  0  0  0  0  0
   -6.3401   -0.2676   -1.5120 H   0  0  0  0  0  0  0  0  0  0  0  0
   -8.0239    0.2366   -1.2563 H   0  0  0  0  0  0  0  0  0  0  0  0
   -7.3953   -1.2490   -0.5061 H   0  0  0  0  0  0  0  0  0  0  0  0
   -7.5818    0.5825    1.1525 H   0  0  0  0  0  0  0  0  0  0  0  0
   -6.5305    1.6248    0.2220 H   0  0  0  0  0  0  0  0  0  0  0  0
   -4.7048    1.5084   -0.9619 H   0  0  0  0  0  0  0  0  0  0  0  0
   -2.3600    1.9188   -1.3808 H   0  0  0  0  0  0  0  0  0  0  0  0
    2.3967   -1.9349    0.0311 H   0  0  0  0  0  0  0  0  0  0  0  0
    5.1287    0.7270    0.7292 H   0  0  0  0  0  0  0  0  0  0  0  0
    7.5000   -0.3552   -0.0141 H   0  0  0  0  0  0  0  0  0  0  0  0
    6.7785   -3.0454   -2.5745 H   0  0  0  0  0  0  0  0  0  0  0  0
    6.8516   -3.9301   -1.0368 H   0  0  0  0  0  0  0  0  0  0  0  0
    8.0965   -2.7321   -1.4320 H   0  0  0  0  0  0  0  0  0  0  0  0
    1.8891    3.3942   -0.6291 H   0  0  0  0  0  0  0  0  0  0  0  0
   -1.3122   -0.5229    2.0287 H   0  0  0  0  0  0  0  0  0  0  0  0
   -3.6921   -0.9524    2.4236 H   0  0  0  0  0  0  0  0  0  0  0  0
  1  2  1  0
  2  3  1  0
  3  4  1  0
  4  5  2  0
  5  6  1  0
  6  7  2  0
  7  8  1  0
  8  9  1  0
  9 10  2  0
  9 11  1  0
 11 12  2  3
 12 13  1  0
 13 14  2  0
 14 15  1  0
 15 16  2  0
 16 17  1  0
 16 18  1  0
 11 19  1  0
 19 20  2  0
 19 21  1  0
 21 22  1  0
 22 23  2  0
  7 24  1  0
 24 25  2  0
 25  4  1  0
 22  8  1  0
 18 13  1  0
  1 26  1  0
  1 27  1  0
  1 28  1  0
  2 29  1  0
  2 30  1  0
  5 31  1  0
  6 32  1  0
 12 33  1  0
 14 34  1  0
 15 35  1  0
 17 36  1  0
 17 37  1  0
 17 38  1  0
 21 39  1  0
 24 40  1  0
 25 41  1  0
M  END
$$$$
