
     RDKit          3D

 40 40  0  0  0  0  0  0  0  0999 V2000
   -6.0285    1.1327   -1.2070 C   0  0  0  0  0  0  0  0  0  0  0  0
   -5.1177    0.2331   -0.3527 C   0  0  0  0  0  0  0  0  0  0  0  0
   -5.3124    0.6045    1.1255 C   0  0  0  0  0  0  0  0  0  0  0  0
   -5.5229   -1.2309   -0.5849 C   0  0  0  0  0  0  0  0  0  0  0  0
   -3.7304    0.4618   -0.7678 N   0  0  0  0  0  0  0  0  0  0  0  0
   -2.6233   -0.1618   -0.2358 C   0  0  0  0  0  0  0  0  0  0  0  0
   -2.6066   -1.0045    0.6481 O   0  0  0  0  0  0  0  0  0  0  0  0
   -1.2979    0.3066   -0.8684 C   0  0  0  0  0  0  0  0  0  0  0  0
   -1.2859    1.1770   -1.7315 O   0  0  0  0  0  0  0  0  0  0  0  0
   -0.1843   -0.3297   -0.3618 N   0  0  0  0  0  0  0  0  0  0  0  0
    1.0797    0.2102   -0.6610 N   0  0  0  0  0  0  0  0  0  0  0  0
    1.9728    0.3427    0.3937 C   0  0  0  0  0  0  0  0  0  0  0  0
    1.7626   -0.1542    1.4975 O   0  0  0  0  0  0  0  0  0  0  0  0
    3.2221    1.1465    0.0195 C   0  0  0  0  0  0  0  0  0  0  0  0
    4.2154    1.2564    1.0234 O   0  0  0  0  0  0  0  0  0  0  0  0
    5.1309    0.2467    1.1294 C   0  0  0  0  0  0  0  0  0  0  0  0
    6.2432    0.5507    1.9194 C   0  0  0  0  0  0  0  0  0  0  0  0
    7.2581   -0.3879    2.1130 C   0  0  0  0  0  0  0  0  0  0  0  0
    7.1619   -1.6446    1.5217 C   0  0  0  0  0  0  0  0  0  0  0  0
    6.0495   -1.9603    0.7437 C   0  0  0  0  0  0  0  0  0  0  0  0
    5.0336   -1.0186    0.5492 C   0  0  0  0  0  0  0  0  0  0  0  0
   -5.7746    2.1910   -1.0749 H   0  0  0  0  0  0  0  0  0  0  0  0
   -5.9207    0.9038   -2.2738 H   0  0  0  0  0  0  0  0  0  0  0  0
   -7.0834    1.0041   -0.9403 H   0  0  0  0  0  0  0  0  0  0  0  0
   -6.3632    0.5101    1.4223 H   0  0  0  0  0  0  0  0  0  0  0  0
   -4.7264   -0.0401    1.7887 H   0  0  0  0  0  0  0  0  0  0  0  0
   -5.0003    1.6379    1.3156 H   0  0  0  0  0  0  0  0  0  0  0  0
   -5.3609   -1.5227   -1.6290 H   0  0  0  0  0  0  0  0  0  0  0  0
   -4.9436   -1.9191    0.0394 H   0  0  0  0  0  0  0  0  0  0  0  0
   -6.5816   -1.3903   -0.3511 H   0  0  0  0  0  0  0  0  0  0  0  0
   -3.5360    1.1517   -1.4900 H   0  0  0  0  0  0  0  0  0  0  0  0
   -0.2737   -0.8585    0.5113 H   0  0  0  0  0  0  0  0  0  0  0  0
    1.0992    0.8654   -1.4424 H   0  0  0  0  0  0  0  0  0  0  0  0
    3.6423    0.7764   -0.9243 H   0  0  0  0  0  0  0  0  0  0  0  0
    2.8777    2.1686   -0.1805 H   0  0  0  0  0  0  0  0  0  0  0  0
    6.3194    1.5285    2.3884 H   0  0  0  0  0  0  0  0  0  0  0  0
    8.1177   -0.1381    2.7288 H   0  0  0  0  0  0  0  0  0  0  0  0
    7.9469   -2.3804    1.6750 H   0  0  0  0  0  0  0  0  0  0  0  0
    5.9657   -2.9470    0.2950 H   0  0  0  0  0  0  0  0  0  0  0  0
    4.1754   -1.3175   -0.0418 H   0  0  0  0  0  0  0  0  0  0  0  0
  1  2  1  0
  2  3  1  0
  2  4  1  0
  2  5  1  0
  5  6  1  0
  6  7  2  0
  6  8  1  0
  8  9  2  0
  8 10  1  0
 10 11  1  0
 11 12  1  0
 12 13  2  0
 12 14  1  0
 14 15  1  0
 15 16  1  0
 16 17  2  0
 17 18  1  0
 18 19  2  0
 19 20  1  0
 20 21  2  0
 21 16  1  0
  1 22  1  0
  1 23  1  0
  1 24  1  0
  3 25  1  0
  3 26  1  0
  3 27  1  0
  4 28  1  0
  4 29  1  0
  4 30  1  0
  5 31  1  0
 10 32  1  0
 11 33  1  0
 14 34  1  0
 14 35  1  0
 17 36  1  0
 18 37  1  0
 19 38  1  0
 20 39  1  0
 21 40  1  0
M  END
$$$$
