
     RDKit          3D

 62 63  0  0  0  0  0  0  0  0999 V2000
   -7.0295    0.4373    1.2476 C   0  0  0  0  0  0  0  0  0  0  0  0
   -5.8971   -0.5142    0.8001 C   0  0  0  0  0  0  0  0  0  0  0  0
   -6.4052   -1.3997   -0.3595 C   0  0  0  0  0  0  0  0  0  0  0  0
   -5.5913   -1.4575    1.9863 C   0  0  0  0  0  0  0  0  0  0  0  0
   -4.6873    0.3175    0.3313 C   0  0  0  0  0  0  0  0  0  0  0  0
   -4.8148    1.1825   -0.7744 C   0  0  0  0  0  0  0  0  0  0  0  0
   -3.7440    1.9590   -1.2176 C   0  0  0  0  0  0  0  0  0  0  0  0
   -2.5189    1.8746   -0.5641 C   0  0  0  0  0  0  0  0  0  0  0  0
   -1.4592    2.6481   -0.9697 O   0  0  0  0  0  0  0  0  0  0  0  0
   -0.9863    2.2671   -2.2758 C   0  0  0  0  0  0  0  0  0  0  0  0
    0.5266    2.0654   -2.1903 C   0  0  0  0  0  0  0  0  0  0  0  0
    0.7646    0.8705   -1.4374 O   0  0  0  0  0  0  0  0  0  0  0  0
    2.0661    0.5487   -1.1444 C   0  0  0  0  0  0  0  0  0  0  0  0
    3.1796    1.2881   -1.5380 C   0  0  0  0  0  0  0  0  0  0  0  0
    4.4671    0.8821   -1.1657 C   0  0  0  0  0  0  0  0  0  0  0  0
    4.6769   -0.2732   -0.3986 C   0  0  0  0  0  0  0  0  0  0  0  0
    6.0798   -0.7492    0.0262 C   0  0  0  0  0  0  0  0  0  0  0  0
    7.2175    0.2002   -0.4135 C   0  0  0  0  0  0  0  0  0  0  0  0
    6.1538   -0.8646    1.5659 C   0  0  0  0  0  0  0  0  0  0  0  0
    6.3664   -2.1300   -0.6022 C   0  0  0  0  0  0  0  0  0  0  0  0
    3.5376   -1.0159   -0.0223 C   0  0  0  0  0  0  0  0  0  0  0  0
    2.2447   -0.6202   -0.3824 C   0  0  0  0  0  0  0  0  0  0  0  0
    1.0838   -1.3373   -0.0165 N   0  0  0  0  0  0  0  0  0  0  0  0
    0.9949   -2.4892    0.7272 C   0  0  0  0  0  0  0  0  0  0  0  0
    1.8934   -3.1482    1.2286 O   0  0  0  0  0  0  0  0  0  0  0  0
   -2.3560    1.0457    0.5540 C   0  0  0  0  0  0  0  0  0  0  0  0
   -1.0938    1.0526    1.1838 N   0  0  0  0  0  0  0  0  0  0  0  0
   -0.6716    0.2938    2.2447 C   0  0  0  0  0  0  0  0  0  0  0  0
   -1.2657   -0.6009    2.8270 O   0  0  0  0  0  0  0  0  0  0  0  0
   -3.4383    0.2709    0.9850 C   0  0  0  0  0  0  0  0  0  0  0  0
   -7.8972   -0.1250    1.6093 H   0  0  0  0  0  0  0  0  0  0  0  0
   -6.6958    1.0947    2.0597 H   0  0  0  0  0  0  0  0  0  0  0  0
   -7.3793    1.0769    0.4312 H   0  0  0  0  0  0  0  0  0  0  0  0
   -7.2436   -2.0298   -0.0369 H   0  0  0  0  0  0  0  0  0  0  0  0
   -6.7611   -0.8077   -1.2106 H   0  0  0  0  0  0  0  0  0  0  0  0
   -5.6116   -2.0627   -0.7271 H   0  0  0  0  0  0  0  0  0  0  0  0
   -4.8017   -2.1747    1.7357 H   0  0  0  0  0  0  0  0  0  0  0  0
   -6.4775   -2.0381    2.2683 H   0  0  0  0  0  0  0  0  0  0  0  0
   -5.2782   -0.9012    2.8771 H   0  0  0  0  0  0  0  0  0  0  0  0
   -5.7630    1.2691   -1.3010 H   0  0  0  0  0  0  0  0  0  0  0  0
   -3.8769    2.6318   -2.0591 H   0  0  0  0  0  0  0  0  0  0  0  0
   -1.2193    3.0870   -2.9646 H   0  0  0  0  0  0  0  0  0  0  0  0
   -1.4579    1.3452   -2.6426 H   0  0  0  0  0  0  0  0  0  0  0  0
    0.9378    1.9517   -3.1993 H   0  0  0  0  0  0  0  0  0  0  0  0
    0.9762    2.9261   -1.6803 H   0  0  0  0  0  0  0  0  0  0  0  0
    3.0905    2.1887   -2.1357 H   0  0  0  0  0  0  0  0  0  0  0  0
    5.2990    1.4983   -1.4971 H   0  0  0  0  0  0  0  0  0  0  0  0
    8.1937   -0.1705   -0.0795 H   0  0  0  0  0  0  0  0  0  0  0  0
    7.2667    0.2938   -1.5051 H   0  0  0  0  0  0  0  0  0  0  0  0
    7.0910    1.2036    0.0103 H   0  0  0  0  0  0  0  0  0  0  0  0
    7.1585   -1.1569    1.8926 H   0  0  0  0  0  0  0  0  0  0  0  0
    5.4612   -1.6151    1.9621 H   0  0  0  0  0  0  0  0  0  0  0  0
    5.9121    0.0916    2.0453 H   0  0  0  0  0  0  0  0  0  0  0  0
    5.6617   -2.8960   -0.2594 H   0  0  0  0  0  0  0  0  0  0  0  0
    7.3724   -2.4809   -0.3456 H   0  0  0  0  0  0  0  0  0  0  0  0
    6.2963   -2.0870   -1.6963 H   0  0  0  0  0  0  0  0  0  0  0  0
    3.6792   -1.9204    0.5614 H   0  0  0  0  0  0  0  0  0  0  0  0
    0.2121   -0.9393   -0.3558 H   0  0  0  0  0  0  0  0  0  0  0  0
   -0.0600   -2.7922    0.8422 H   0  0  0  0  0  0  0  0  0  0  0  0
   -0.4228    1.7002    0.7815 H   0  0  0  0  0  0  0  0  0  0  0  0
    0.3584    0.5694    2.5308 H   0  0  0  0  0  0  0  0  0  0  0  0
   -3.3146   -0.3667    1.8530 H   0  0  0  0  0  0  0  0  0  0  0  0
  1  2  1  0
  2  3  1  0
  2  4  1  0
  2  5  1  0
  5  6  2  0
  6  7  1  0
  7  8  2  0
  8  9  1  0
  9 10  1  0
 10 11  1  0
 11 12  1  0
 12 13  1  0
 13 14  2  0
 14 15  1  0
 15 16  2  0
 16 17  1  0
 17 18  1  0
 17 19  1  0
 17 20  1  0
 16 21  1  0
 21 22  2  0
 22 23  1  0
 23 24  1  0
 24 25  2  0
  8 26  1  0
 26 27  1  0
 27 28  1  0
 28 29  2  0
 26 30  2  0
 30  5  1  0
 22 13  1  0
  1 31  1  0
  1 32  1  0
  1 33  1  0
  3 34  1  0
  3 35  1  0
  3 36  1  0
  4 37  1  0
  4 38  1  0
  4 39  1  0
  6 40  1  0
  7 41  1  0
 10 42  1  0
 10 43  1  0
 11 44  1  0
 11 45  1  0
 14 46  1  0
 15 47  1  0
 18 48  1  0
 18 49  1  0
 18 50  1  0
 19 51  1  0
 19 52  1  0
 19 53  1  0
 20 54  1  0
 20 55  1  0
 20 56  1  0
 21 57  1  0
 23 58  1  0
 24 59  1  0
 27 60  1  0
 28 61  1  0
 30 62  1  0
M  END
$$$$
