
     RDKit          3D

 52 54  0  0  0  0  0  0  0  0999 V2000
    2.9347   -1.8777    0.6614 C   0  0  0  0  0  0  0  0  0  0  0  0
    2.4793   -0.4609    0.9923 C   0  0  0  0  0  0  0  0  0  0  0  0
    1.1134   -0.0493    0.5359 N   0  0  0  0  0  0  0  0  0  0  0  0
    0.9807    1.4019    0.8521 C   0  0  0  0  0  0  0  0  0  0  0  0
    1.8753    2.3048    0.0186 C   0  0  0  0  0  0  0  0  0  0  0  0
    1.9689    2.1506   -1.3733 C   0  0  0  0  0  0  0  0  0  0  0  0
    2.7698    3.0062   -2.1312 C   0  0  0  0  0  0  0  0  0  0  0  0
    3.4780    4.0319   -1.5088 C   0  0  0  0  0  0  0  0  0  0  0  0
    3.3844    4.2044   -0.1292 C   0  0  0  0  0  0  0  0  0  0  0  0
    2.5844    3.3490    0.6307 C   0  0  0  0  0  0  0  0  0  0  0  0
    0.0493   -0.8760    1.2081 C   0  0  0  0  0  0  0  0  0  0  0  0
   -0.2579   -2.2183    0.5376 C   0  0  0  0  0  0  0  0  0  0  0  0
    0.1072   -2.5271   -0.7791 C   0  0  0  0  0  0  0  0  0  0  0  0
   -0.2047   -3.7771   -1.2927 C   0  0  0  0  0  0  0  0  0  0  0  0
   -0.8550   -4.7329   -0.5987 N   0  0  0  0  0  0  0  0  0  0  0  0
   -1.1946   -4.4337    0.6713 C   0  0  0  0  0  0  0  0  0  0  0  0
   -0.9215   -3.2152    1.2736 C   0  0  0  0  0  0  0  0  0  0  0  0
   -1.2143   -0.1551    1.6467 C   0  0  0  0  0  0  0  0  0  0  0  0
   -1.4005    0.1712    2.9192 N   0  0  0  0  0  0  0  0  0  0  0  0
   -2.6300    0.7335    3.0183 N   0  0  0  0  0  0  0  0  0  0  0  0
   -3.2180    0.7721    1.8411 N   0  0  0  0  0  0  0  0  0  0  0  0
   -2.3358    0.2605    0.9452 N   0  0  0  0  0  0  0  0  0  0  0  0
   -2.7565    0.2348   -0.4645 C   0  0  0  0  0  0  0  0  0  0  0  0
   -1.6340    0.5876   -1.4511 C   0  0  0  0  0  0  0  0  0  0  0  0
   -3.8661    1.2983   -0.7290 C   0  0  0  0  0  0  0  0  0  0  0  0
   -3.3736   -1.1314   -0.8080 C   0  0  0  0  0  0  0  0  0  0  0  0
    3.9810   -2.0037    0.9620 H   0  0  0  0  0  0  0  0  0  0  0  0
    2.8843   -2.0716   -0.4137 H   0  0  0  0  0  0  0  0  0  0  0  0
    2.3594   -2.6349    1.1996 H   0  0  0  0  0  0  0  0  0  0  0  0
    3.2270    0.1904    0.5247 H   0  0  0  0  0  0  0  0  0  0  0  0
    2.5776   -0.3090    2.0759 H   0  0  0  0  0  0  0  0  0  0  0  0
   -0.0283    1.7665    0.6402 H   0  0  0  0  0  0  0  0  0  0  0  0
    1.1602    1.5737    1.9222 H   0  0  0  0  0  0  0  0  0  0  0  0
    1.4234    1.3530   -1.8715 H   0  0  0  0  0  0  0  0  0  0  0  0
    2.8406    2.8724   -3.2074 H   0  0  0  0  0  0  0  0  0  0  0  0
    4.1010    4.6987   -2.0990 H   0  0  0  0  0  0  0  0  0  0  0  0
    3.9326    5.0081    0.3557 H   0  0  0  0  0  0  0  0  0  0  0  0
    2.5182    3.5044    1.7054 H   0  0  0  0  0  0  0  0  0  0  0  0
    0.4956   -1.1702    2.1730 H   0  0  0  0  0  0  0  0  0  0  0  0
    0.6452   -1.8188   -1.4009 H   0  0  0  0  0  0  0  0  0  0  0  0
    0.0716   -4.0489   -2.3076 H   0  0  0  0  0  0  0  0  0  0  0  0
   -1.7090   -5.2229    1.2126 H   0  0  0  0  0  0  0  0  0  0  0  0
   -1.2249   -3.0495    2.3042 H   0  0  0  0  0  0  0  0  0  0  0  0
   -1.2461    1.5945   -1.2660 H   0  0  0  0  0  0  0  0  0  0  0  0
   -0.7995   -0.1045   -1.4060 H   0  0  0  0  0  0  0  0  0  0  0  0
   -1.9975    0.5676   -2.4858 H   0  0  0  0  0  0  0  0  0  0  0  0
   -4.1498    1.3214   -1.7882 H   0  0  0  0  0  0  0  0  0  0  0  0
   -3.5255    2.3043   -0.4556 H   0  0  0  0  0  0  0  0  0  0  0  0
   -4.7804    1.0873   -0.1615 H   0  0  0  0  0  0  0  0  0  0  0  0
   -2.6472   -1.9400   -0.7522 H   0  0  0  0  0  0  0  0  0  0  0  0
   -4.1907   -1.3823   -0.1213 H   0  0  0  0  0  0  0  0  0  0  0  0
   -3.7815   -1.1379   -1.8255 H   0  0  0  0  0  0  0  0  0  0  0  0
  1  2  1  0
  2  3  1  0
  3  4  1  0
  4  5  1  0
  5  6  2  0
  6  7  1  0
  7  8  2  0
  8  9  1  0
  9 10  2  0
  3 11  1  0
 11 12  1  0
 12 13  2  0
 13 14  1  0
 14 15  2  0
 15 16  1  0
 16 17  2  0
 11 18  1  0
 18 19  2  0
 19 20  1  0
 20 21  2  0
 21 22  1  0
 22 23  1  0
 23 24  1  0
 23 25  1  0
 23 26  1  0
 10  5  1  0
 17 12  1  0
 22 18  1  0
  1 27  1  0
  1 28  1  0
  1 29  1  0
  2 30  1  0
  2 31  1  0
  4 32  1  0
  4 33  1  0
  6 34  1  0
  7 35  1  0
  8 36  1  0
  9 37  1  0
 10 38  1  0
 11 39  1  0
 13 40  1  0
 14 41  1  0
 16 42  1  0
 17 43  1  0
 24 44  1  0
 24 45  1  0
 24 46  1  0
 25 47  1  0
 25 48  1  0
 25 49  1  0
 26 50  1  0
 26 51  1  0
 26 52  1  0
M  END
$$$$
