
     RDKit          3D

 38 40  0  0  0  0  0  0  0  0999 V2000
   -2.9035   -0.4919    2.4600 C   0  0  0  0  0  0  0  0  0  0  0  0
   -3.5205   -0.0580    1.1725 C   0  0  0  0  0  0  0  0  0  0  0  0
   -4.8704    0.0835    0.9136 C   0  0  0  0  0  0  0  0  0  0  0  0
   -5.0186    0.3947   -0.4471 C   0  0  0  0  0  0  0  0  0  0  0  0
   -3.7570    0.4655   -1.0064 C   0  0  0  0  0  0  0  0  0  0  0  0
   -3.4255    0.8717   -2.4029 C   0  0  0  0  0  0  0  0  0  0  0  0
   -2.8202    0.1836   -0.0109 N   0  0  0  0  0  0  0  0  0  0  0  0
   -1.4090    0.1451   -0.1726 C   0  0  0  0  0  0  0  0  0  0  0  0
   -0.8179   -0.4421   -1.2847 C   0  0  0  0  0  0  0  0  0  0  0  0
    0.5754   -0.4532   -1.3897 C   0  0  0  0  0  0  0  0  0  0  0  0
    1.3656    0.1109   -0.3867 C   0  0  0  0  0  0  0  0  0  0  0  0
    2.7524    0.1192   -0.4916 N   0  0  0  0  0  0  0  0  0  0  0  0
    3.4692    0.8838    0.5430 C   0  0  0  0  0  0  0  0  0  0  0  0
    4.9787    0.8252    0.2614 C   0  0  0  0  0  0  0  0  0  0  0  0
    5.5236   -0.5052    0.2674 O   0  0  0  0  0  0  0  0  0  0  0  0
    4.5371   -1.5213    0.0416 C   0  0  0  0  0  0  0  0  0  0  0  0
    3.4358   -1.1039   -0.9484 C   0  0  0  0  0  0  0  0  0  0  0  0
    0.7865    0.7011    0.6815 N   0  0  0  0  0  0  0  0  0  0  0  0
   -0.5671    0.7056    0.7726 C   0  0  0  0  0  0  0  0  0  0  0  0
   -2.0781   -1.1921    2.3004 H   0  0  0  0  0  0  0  0  0  0  0  0
   -3.6435   -1.0080    3.0820 H   0  0  0  0  0  0  0  0  0  0  0  0
   -2.5451    0.3712    3.0285 H   0  0  0  0  0  0  0  0  0  0  0  0
   -5.6666   -0.0508    1.6354 H   0  0  0  0  0  0  0  0  0  0  0  0
   -5.9494    0.5751   -0.9704 H   0  0  0  0  0  0  0  0  0  0  0  0
   -3.2505   -0.0066   -3.0311 H   0  0  0  0  0  0  0  0  0  0  0  0
   -4.2593    1.4282   -2.8456 H   0  0  0  0  0  0  0  0  0  0  0  0
   -2.5505    1.5274   -2.4398 H   0  0  0  0  0  0  0  0  0  0  0  0
   -1.4045   -0.9264   -2.0579 H   0  0  0  0  0  0  0  0  0  0  0  0
    1.0333   -0.8926   -2.2697 H   0  0  0  0  0  0  0  0  0  0  0  0
    3.2707    0.4604    1.5361 H   0  0  0  0  0  0  0  0  0  0  0  0
    3.1485    1.9323    0.5348 H   0  0  0  0  0  0  0  0  0  0  0  0
    5.1985    1.2624   -0.7196 H   0  0  0  0  0  0  0  0  0  0  0  0
    5.5262    1.4070    1.0096 H   0  0  0  0  0  0  0  0  0  0  0  0
    4.1004   -1.7891    1.0112 H   0  0  0  0  0  0  0  0  0  0  0  0
    5.0599   -2.4072   -0.3331 H   0  0  0  0  0  0  0  0  0  0  0  0
    2.7508   -1.9506   -1.0710 H   0  0  0  0  0  0  0  0  0  0  0  0
    3.8873   -0.8890   -1.9239 H   0  0  0  0  0  0  0  0  0  0  0  0
   -0.9430    1.2342    1.6426 H   0  0  0  0  0  0  0  0  0  0  0  0
  1  2  1  0
  2  3  2  0
  3  4  1  0
  4  5  2  0
  5  6  1  0
  5  7  1  0
  7  8  1  0
  8  9  2  0
  9 10  1  0
 10 11  2  0
 11 12  1  0
 12 13  1  0
 13 14  1  0
 14 15  1  0
 15 16  1  0
 16 17  1  0
 11 18  1  0
 18 19  2  0
  7  2  1  0
 19  8  1  0
 17 12  1  0
  1 20  1  0
  1 21  1  0
  1 22  1  0
  3 23  1  0
  4 24  1  0
  6 25  1  0
  6 26  1  0
  6 27  1  0
  9 28  1  0
 10 29  1  0
 13 30  1  0
 13 31  1  0
 14 32  1  0
 14 33  1  0
 16 34  1  0
 16 35  1  0
 17 36  1  0
 17 37  1  0
 19 38  1  0
M  END
$$$$
