
     RDKit          3D

 49 51  0  0  0  0  0  0  0  0999 V2000
   -1.1412    2.2064    1.4586 O   0  0  0  0  0  0  0  0  0  0  0  0
   -0.7187    1.1870    0.9248 C   0  0  0  0  0  0  0  0  0  0  0  0
   -1.6218    0.2302    0.1650 C   0  0  0  0  0  0  0  0  0  0  0  0
   -3.0594    0.7503    0.0970 C   0  0  0  0  0  0  0  0  0  0  0  0
   -3.9404   -0.1168   -0.7075 N   0  0  0  0  0  0  0  0  0  0  0  0
   -5.2343    0.5254   -0.9513 C   0  0  0  0  0  0  0  0  0  0  0  0
   -6.0233   -0.2511   -2.0121 C   0  0  0  0  0  0  0  0  0  0  0  0
   -5.8709   -1.7682   -1.8889 C   0  0  0  0  0  0  0  0  0  0  0  0
   -5.4167   -2.1573   -0.4908 C   0  0  0  0  0  0  0  0  0  0  0  0
   -4.1043   -1.4556   -0.1126 C   0  0  0  0  0  0  0  0  0  0  0  0
    0.5934    0.7493    0.9246 N   0  0  0  0  0  0  0  0  0  0  0  0
    1.7191    1.3220    1.5647 C   0  0  0  0  0  0  0  0  0  0  0  0
    1.6214    2.4527    2.3839 C   0  0  0  0  0  0  0  0  0  0  0  0
    2.7476    2.9682    3.0342 C   0  0  0  0  0  0  0  0  0  0  0  0
    3.9832    2.3508    2.8777 C   0  0  0  0  0  0  0  0  0  0  0  0
    5.4973    3.0368    3.7765 Br  0  0  0  0  0  0  0  0  0  0  0  0
    4.1128    1.2304    2.0624 C   0  0  0  0  0  0  0  0  0  0  0  0
    2.9907    0.7267    1.3839 C   0  0  0  0  0  0  0  0  0  0  0  0
    3.1499   -0.4559    0.4873 C   0  0  0  0  0  0  0  0  0  0  0  0
    2.2190   -1.2506    0.3626 O   0  0  0  0  0  0  0  0  0  0  0  0
    4.3944   -0.6895   -0.2855 C   0  0  0  0  0  0  0  0  0  0  0  0
    4.8472   -2.0045   -0.4396 C   0  0  0  0  0  0  0  0  0  0  0  0
    6.0084   -2.2605   -1.1696 C   0  0  0  0  0  0  0  0  0  0  0  0
    6.7094   -1.2070   -1.7565 C   0  0  0  0  0  0  0  0  0  0  0  0
    6.2471    0.1028   -1.6240 C   0  0  0  0  0  0  0  0  0  0  0  0
    5.0858    0.3647   -0.8948 C   0  0  0  0  0  0  0  0  0  0  0  0
   -1.5817   -0.7390    0.6749 H   0  0  0  0  0  0  0  0  0  0  0  0
   -1.2212    0.1070   -0.8486 H   0  0  0  0  0  0  0  0  0  0  0  0
   -3.4664    0.8822    1.1084 H   0  0  0  0  0  0  0  0  0  0  0  0
   -3.0312    1.7484   -0.3602 H   0  0  0  0  0  0  0  0  0  0  0  0
   -5.8139    0.5982   -0.0215 H   0  0  0  0  0  0  0  0  0  0  0  0
   -5.1002    1.5498   -1.3202 H   0  0  0  0  0  0  0  0  0  0  0  0
   -7.0826    0.0202   -1.9279 H   0  0  0  0  0  0  0  0  0  0  0  0
   -5.7042    0.0539   -3.0166 H   0  0  0  0  0  0  0  0  0  0  0  0
   -6.8160   -2.2626   -2.1397 H   0  0  0  0  0  0  0  0  0  0  0  0
   -5.1304   -2.1189   -2.6188 H   0  0  0  0  0  0  0  0  0  0  0  0
   -6.1988   -1.8847    0.2292 H   0  0  0  0  0  0  0  0  0  0  0  0
   -5.2883   -3.2435   -0.4233 H   0  0  0  0  0  0  0  0  0  0  0  0
   -3.2671   -2.0794   -0.4481 H   0  0  0  0  0  0  0  0  0  0  0  0
   -4.0559   -1.4164    0.9834 H   0  0  0  0  0  0  0  0  0  0  0  0
    0.7807   -0.1370    0.4475 H   0  0  0  0  0  0  0  0  0  0  0  0
    0.6733    2.9549    2.5528 H   0  0  0  0  0  0  0  0  0  0  0  0
    2.6386    3.8444    3.6692 H   0  0  0  0  0  0  0  0  0  0  0  0
    5.0833    0.7499    1.9685 H   0  0  0  0  0  0  0  0  0  0  0  0
    4.2972   -2.8304    0.0070 H   0  0  0  0  0  0  0  0  0  0  0  0
    6.3626   -3.2819   -1.2861 H   0  0  0  0  0  0  0  0  0  0  0  0
    7.6120   -1.4088   -2.3289 H   0  0  0  0  0  0  0  0  0  0  0  0
    6.7878    0.9186   -2.0983 H   0  0  0  0  0  0  0  0  0  0  0  0
    4.7264    1.3883   -0.8268 H   0  0  0  0  0  0  0  0  0  0  0  0
  1  2  2  0
  2  3  1  0
  3  4  1  0
  4  5  1  0
  5  6  1  0
  6  7  1  0
  7  8  1  0
  8  9  1  0
  9 10  1  0
  2 11  1  0
 11 12  1  0
 12 13  2  0
 13 14  1  0
 14 15  2  0
 15 16  1  0
 15 17  1  0
 17 18  2  0
 18 19  1  0
 19 20  2  0
 19 21  1  0
 21 22  2  0
 22 23  1  0
 23 24  2  0
 24 25  1  0
 25 26  2  0
 10  5  1  0
 18 12  1  0
 26 21  1  0
  3 27  1  0
  3 28  1  0
  4 29  1  0
  4 30  1  0
  6 31  1  0
  6 32  1  0
  7 33  1  0
  7 34  1  0
  8 35  1  0
  8 36  1  0
  9 37  1  0
  9 38  1  0
 10 39  1  0
 10 40  1  0
 11 41  1  0
 13 42  1  0
 14 43  1  0
 17 44  1  0
 22 45  1  0
 23 46  1  0
 24 47  1  0
 25 48  1  0
 26 49  1  0
M  END
$$$$
