
     RDKit          3D

 46 49  0  0  0  0  0  0  0  0999 V2000
   -2.5573   -3.3777   -1.8887 C   0  0  0  0  0  0  0  0  0  0  0  0
   -2.4278   -2.6956   -0.6107 N   0  0  0  0  0  0  0  0  0  0  0  0
   -3.6562   -2.5346    0.1525 C   0  0  0  0  0  0  0  0  0  0  0  0
   -1.6117   -1.5373   -0.6469 N   0  0  0  0  0  0  0  0  0  0  0  0
   -2.1254   -0.3256   -1.1421 C   0  0  0  0  0  0  0  0  0  0  0  0
   -3.1670   -0.1485   -1.8950 N   0  0  0  0  0  0  0  0  0  0  0  0
   -1.3924    0.9410   -0.7088 C   0  0  0  0  0  0  0  0  0  0  0  0
   -1.8391    1.2308    0.6672 C   0  0  0  0  0  0  0  0  0  0  0  0
   -2.1825    1.4283    1.7592 N   0  0  0  0  0  0  0  0  0  0  0  0
    0.1328    0.7236   -0.8389 C   0  0  0  0  0  0  0  0  0  0  0  0
    0.8797    1.9709   -0.3549 C   0  0  0  0  0  0  0  0  0  0  0  0
    1.2705    2.9472   -1.3066 C   0  0  0  0  0  0  0  0  0  0  0  0
    1.9358    4.1155   -0.9194 C   0  0  0  0  0  0  0  0  0  0  0  0
    2.1981    4.2896    0.4202 C   0  0  0  0  0  0  0  0  0  0  0  0
    1.8234    3.3564    1.3555 C   0  0  0  0  0  0  0  0  0  0  0  0
    1.1635    2.1961    1.0060 C   0  0  0  0  0  0  0  0  0  0  0  0
    2.1739    3.7181    2.6190 O   0  0  0  0  0  0  0  0  0  0  0  0
    2.8168    4.9846    2.3687 C   0  0  0  0  0  0  0  0  0  0  0  0
    2.8307    5.3576    0.9750 O   0  0  0  0  0  0  0  0  0  0  0  0
    0.5739   -0.6138   -0.2634 C   0  0  0  0  0  0  0  0  0  0  0  0
   -0.2902   -1.6534   -0.1537 C   0  0  0  0  0  0  0  0  0  0  0  0
    0.1380   -2.9940    0.4395 C   0  0  0  0  0  0  0  0  0  0  0  0
    1.6461   -3.1983    0.5553 C   0  0  0  0  0  0  0  0  0  0  0  0
    2.3289   -1.9424    1.0480 C   0  0  0  0  0  0  0  0  0  0  0  0
    2.0100   -0.8316    0.0840 C   0  0  0  0  0  0  0  0  0  0  0  0
    2.8953   -0.1419   -0.4127 O   0  0  0  0  0  0  0  0  0  0  0  0
   -1.5826   -3.4845   -2.3782 H   0  0  0  0  0  0  0  0  0  0  0  0
   -3.2346   -2.8847   -2.5899 H   0  0  0  0  0  0  0  0  0  0  0  0
   -2.9364   -4.3933   -1.7284 H   0  0  0  0  0  0  0  0  0  0  0  0
   -4.4154   -1.9406   -0.3639 H   0  0  0  0  0  0  0  0  0  0  0  0
   -3.4541   -2.0667    1.1228 H   0  0  0  0  0  0  0  0  0  0  0  0
   -4.0939   -3.5163    0.3651 H   0  0  0  0  0  0  0  0  0  0  0  0
   -3.5909   -1.0528   -2.0992 H   0  0  0  0  0  0  0  0  0  0  0  0
   -1.6989    1.7704   -1.3601 H   0  0  0  0  0  0  0  0  0  0  0  0
    0.3504    0.6284   -1.9149 H   0  0  0  0  0  0  0  0  0  0  0  0
    1.0652    2.7962   -2.3652 H   0  0  0  0  0  0  0  0  0  0  0  0
    2.2402    4.8579   -1.6482 H   0  0  0  0  0  0  0  0  0  0  0  0
    0.8837    1.4920    1.7828 H   0  0  0  0  0  0  0  0  0  0  0  0
    3.8513    4.9297    2.7270 H   0  0  0  0  0  0  0  0  0  0  0  0
    2.2905    5.7624    2.9339 H   0  0  0  0  0  0  0  0  0  0  0  0
   -0.2424   -3.8302   -0.1577 H   0  0  0  0  0  0  0  0  0  0  0  0
   -0.3124   -3.0789    1.4371 H   0  0  0  0  0  0  0  0  0  0  0  0
    2.0470   -3.4712   -0.4299 H   0  0  0  0  0  0  0  0  0  0  0  0
    1.8577   -4.0365    1.2286 H   0  0  0  0  0  0  0  0  0  0  0  0
    1.9943   -1.6552    2.0505 H   0  0  0  0  0  0  0  0  0  0  0  0
    3.4134   -2.0913    1.0794 H   0  0  0  0  0  0  0  0  0  0  0  0
  1  2  1  0
  2  3  1  0
  2  4  1  0
  4  5  1  0
  5  6  2  3
  5  7  1  0
  7  8  1  0
  8  9  3  0
  7 10  1  0
 10 11  1  0
 11 12  2  0
 12 13  1  0
 13 14  2  0
 14 15  1  0
 15 16  2  0
 15 17  1  0
 17 18  1  0
 18 19  1  0
 10 20  1  0
 20 21  2  0
 21 22  1  0
 22 23  1  0
 23 24  1  0
 24 25  1  0
 25 26  2  0
 21  4  1  0
 16 11  1  0
 25 20  1  0
 19 14  1  0
  1 27  1  0
  1 28  1  0
  1 29  1  0
  3 30  1  0
  3 31  1  0
  3 32  1  0
  6 33  1  0
  7 34  1  0
 10 35  1  0
 12 36  1  0
 13 37  1  0
 16 38  1  0
 18 39  1  0
 18 40  1  0
 22 41  1  0
 22 42  1  0
 23 43  1  0
 23 44  1  0
 24 45  1  0
 24 46  1  0
M  END
$$$$
