
     RDKit          3D

 47 49  0  0  0  0  0  0  0  0999 V2000
   -8.4951    0.3223    0.0639 C   0  0  0  0  0  0  0  0  0  0  0  0
   -7.5709   -0.1134   -0.9224 O   0  0  0  0  0  0  0  0  0  0  0  0
   -6.2529   -0.2253   -0.5555 C   0  0  0  0  0  0  0  0  0  0  0  0
   -5.7612    0.0534    0.7235 C   0  0  0  0  0  0  0  0  0  0  0  0
   -4.4003   -0.0975    1.0073 C   0  0  0  0  0  0  0  0  0  0  0  0
   -3.5115   -0.5152    0.0143 C   0  0  0  0  0  0  0  0  0  0  0  0
   -2.0859   -0.7306    0.2933 C   0  0  0  0  0  0  0  0  0  0  0  0
   -1.2084    0.1648    0.7665 C   0  0  0  0  0  0  0  0  0  0  0  0
   -1.4687    1.8121    1.1658 S   0  0  0  0  0  0  0  0  0  0  0  0
    0.2096    2.0651    1.6332 C   0  0  0  0  0  0  0  0  0  0  0  0
    0.7719    3.5471    2.1525 S   0  0  0  0  0  0  0  0  0  0  0  0
    0.9150    0.8882    1.4948 N   0  0  0  0  0  0  0  0  0  0  0  0
    2.3455    0.7254    1.7744 C   0  0  0  0  0  0  0  0  0  0  0  0
    3.1964    0.9503    0.5294 C   0  0  0  0  0  0  0  0  0  0  0  0
    4.6610    0.7070    0.8227 C   0  0  0  0  0  0  0  0  0  0  0  0
    5.0584    0.3449    1.9289 O   0  0  0  0  0  0  0  0  0  0  0  0
    5.4615    0.9434   -0.2642 N   0  0  0  0  0  0  0  0  0  0  0  0
    6.6086    0.3709   -0.3023 C   0  0  0  0  0  0  0  0  0  0  0  0
    7.2259   -0.4796    0.5703 N   0  0  0  0  0  0  0  0  0  0  0  0
    8.6595   -0.5936    0.4036 C   0  0  0  0  0  0  0  0  0  0  0  0
    8.9175   -0.4868   -1.0956 C   0  0  0  0  0  0  0  0  0  0  0  0
    7.6622    0.6987   -1.6794 S   0  0  0  0  0  0  0  0  0  0  0  0
    0.2166   -0.1951    0.9901 C   0  0  0  0  0  0  0  0  0  0  0  0
    0.6865   -1.2962    0.7373 O   0  0  0  0  0  0  0  0  0  0  0  0
   -4.0026   -0.8040   -1.2664 C   0  0  0  0  0  0  0  0  0  0  0  0
   -5.3647   -0.6582   -1.5606 C   0  0  0  0  0  0  0  0  0  0  0  0
   -5.9259   -0.9271   -2.7854 O   0  0  0  0  0  0  0  0  0  0  0  0
   -5.0532   -1.2704   -3.8518 C   0  0  0  0  0  0  0  0  0  0  0  0
   -8.2578    1.3339    0.4094 H   0  0  0  0  0  0  0  0  0  0  0  0
   -9.4872    0.3533   -0.3978 H   0  0  0  0  0  0  0  0  0  0  0  0
   -8.5411   -0.3815    0.9013 H   0  0  0  0  0  0  0  0  0  0  0  0
   -6.4113    0.3820    1.5271 H   0  0  0  0  0  0  0  0  0  0  0  0
   -4.0493    0.1050    2.0170 H   0  0  0  0  0  0  0  0  0  0  0  0
   -1.7376   -1.7381    0.0614 H   0  0  0  0  0  0  0  0  0  0  0  0
    2.6487    1.4092    2.5741 H   0  0  0  0  0  0  0  0  0  0  0  0
    2.5061   -0.2905    2.1564 H   0  0  0  0  0  0  0  0  0  0  0  0
    2.8919    0.2639   -0.2689 H   0  0  0  0  0  0  0  0  0  0  0  0
    3.0758    1.9759    0.1615 H   0  0  0  0  0  0  0  0  0  0  0  0
    6.8531   -0.4519    1.5191 H   0  0  0  0  0  0  0  0  0  0  0  0
    9.1621    0.2174    0.9441 H   0  0  0  0  0  0  0  0  0  0  0  0
    9.0265   -1.5442    0.8014 H   0  0  0  0  0  0  0  0  0  0  0  0
    8.7359   -1.4471   -1.5898 H   0  0  0  0  0  0  0  0  0  0  0  0
    9.9331   -0.1519   -1.3214 H   0  0  0  0  0  0  0  0  0  0  0  0
   -3.3034   -1.1462   -2.0226 H   0  0  0  0  0  0  0  0  0  0  0  0
   -5.6610   -1.3994   -4.7528 H   0  0  0  0  0  0  0  0  0  0  0  0
   -4.3334   -0.4695   -4.0494 H   0  0  0  0  0  0  0  0  0  0  0  0
   -4.5460   -2.2208   -3.6559 H   0  0  0  0  0  0  0  0  0  0  0  0
  1  2  1  0
  2  3  1  0
  3  4  2  0
  4  5  1  0
  5  6  2  0
  6  7  1  0
  7  8  2  3
  8  9  1  0
  9 10  1  0
 10 11  2  0
 10 12  1  0
 12 13  1  0
 13 14  1  0
 14 15  1  0
 15 16  2  0
 15 17  1  0
 17 18  2  3
 18 19  1  0
 19 20  1  0
 20 21  1  0
 21 22  1  0
 12 23  1  0
 23 24  2  0
  6 25  1  0
 25 26  2  0
 26 27  1  0
 27 28  1  0
 26  3  1  0
 23  8  1  0
 22 18  1  0
  1 29  1  0
  1 30  1  0
  1 31  1  0
  4 32  1  0
  5 33  1  0
  7 34  1  0
 13 35  1  0
 13 36  1  0
 14 37  1  0
 14 38  1  0
 19 39  1  0
 20 40  1  0
 20 41  1  0
 21 42  1  0
 21 43  1  0
 25 44  1  0
 28 45  1  0
 28 46  1  0
 28 47  1  0
M  END
$$$$
