
     RDKit          3D

 41 44  0  0  0  0  0  0  0  0999 V2000
    0.5481    1.8136   -1.2102 N   0  0  0  0  0  0  0  0  0  0  0  0
    1.1563    0.8494   -0.9951 C   0  0  0  0  0  0  0  0  0  0  0  0
    1.9280   -0.3371   -0.7774 C   0  0  0  0  0  0  0  0  0  0  0  0
    1.5553   -1.3205    0.0687 C   0  0  0  0  0  0  0  0  0  0  0  0
    0.3923   -1.3075    0.8906 C   0  0  0  0  0  0  0  0  0  0  0  0
    0.0285   -2.2294    1.8634 C   0  0  0  0  0  0  0  0  0  0  0  0
   -1.1916   -1.8016    2.4392 C   0  0  0  0  0  0  0  0  0  0  0  0
   -1.5444   -0.6433    1.7847 C   0  0  0  0  0  0  0  0  0  0  0  0
   -2.6693    0.2869    1.8764 C   0  0  0  0  0  0  0  0  0  0  0  0
   -3.6610    0.1079    2.8559 C   0  0  0  0  0  0  0  0  0  0  0  0
   -4.7578    0.9734    2.9381 C   0  0  0  0  0  0  0  0  0  0  0  0
   -4.8721    2.0248    2.0306 C   0  0  0  0  0  0  0  0  0  0  0  0
   -6.2786    3.1023    2.0888 S   0  0  0  0  0  6  0  0  0  0  0  0
   -7.1221    2.6393    0.7014 N   0  0  0  0  0  0  0  0  0  0  0  0
   -5.8249    4.4603    1.9048 O   0  0  0  0  0  0  0  0  0  0  0  0
   -7.1218    2.6935    3.1894 O   0  0  0  0  0  0  0  0  0  0  0  0
   -3.8887    2.2415    1.0627 C   0  0  0  0  0  0  0  0  0  0  0  0
   -2.7965    1.3717    0.9879 C   0  0  0  0  0  0  0  0  0  0  0  0
   -0.5911   -0.3486    0.8547 O   0  0  0  0  0  0  0  0  0  0  0  0
    3.1520   -0.5457   -1.5065 C   0  0  0  0  0  0  0  0  0  0  0  0
    3.6719   -1.7213   -1.8117 N   0  0  0  0  0  0  0  0  0  0  0  0
    4.8716   -1.5860   -2.4876 C   0  0  0  0  0  0  0  0  0  0  0  0
    5.6668   -2.6404   -2.9798 C   0  0  0  0  0  0  0  0  0  0  0  0
    6.8748   -2.3554   -3.6247 C   0  0  0  0  0  0  0  0  0  0  0  0
    7.3012   -1.0373   -3.7727 C   0  0  0  0  0  0  0  0  0  0  0  0
    6.5158    0.0242   -3.3176 C   0  0  0  0  0  0  0  0  0  0  0  0
    5.2997   -0.2744   -2.6788 C   0  0  0  0  0  0  0  0  0  0  0  0
    4.1289    0.7936   -2.0183 S   0  0  0  0  0  0  0  0  0  0  0  0
    2.1929   -2.1987    0.1746 H   0  0  0  0  0  0  0  0  0  0  0  0
    0.5968   -3.1084    2.1385 H   0  0  0  0  0  0  0  0  0  0  0  0
   -1.7425   -2.2864    3.2323 H   0  0  0  0  0  0  0  0  0  0  0  0
   -3.5948   -0.7131    3.5696 H   0  0  0  0  0  0  0  0  0  0  0  0
   -5.5119    0.8114    3.7060 H   0  0  0  0  0  0  0  0  0  0  0  0
   -6.5987    1.9992    0.1032 H   0  0  0  0  0  0  0  0  0  0  0  0
   -8.0250    2.2481    0.9796 H   0  0  0  0  0  0  0  0  0  0  0  0
   -3.9622    3.0769    0.3651 H   0  0  0  0  0  0  0  0  0  0  0  0
   -2.0409    1.5509    0.2227 H   0  0  0  0  0  0  0  0  0  0  0  0
    5.3318   -3.6655   -2.8606 H   0  0  0  0  0  0  0  0  0  0  0  0
    7.4864   -3.1704   -4.0073 H   0  0  0  0  0  0  0  0  0  0  0  0
    8.2508   -0.8279   -4.2654 H   0  0  0  0  0  0  0  0  0  0  0  0
    6.8460    1.0497   -3.4410 H   0  0  0  0  0  0  0  0  0  0  0  0
  1  2  3  0
  2  3  1  0
  3  4  2  3
  4  5  1  0
  5  6  2  0
  6  7  1  0
  7  8  2  0
  8  9  1  0
  9 10  2  0
 10 11  1  0
 11 12  2  0
 12 13  1  0
 13 14  1  0
 13 15  2  0
 13 16  2  0
 12 17  1  0
 17 18  2  0
  8 19  1  0
  3 20  1  0
 20 21  2  0
 21 22  1  0
 22 23  2  0
 23 24  1  0
 24 25  2  0
 25 26  1  0
 26 27  2  0
 27 28  1  0
 19  5  1  0
 28 20  1  0
 18  9  1  0
 27 22  1  0
  4 29  1  0
  6 30  1  0
  7 31  1  0
 10 32  1  0
 11 33  1  0
 14 34  1  0
 14 35  1  0
 17 36  1  0
 18 37  1  0
 23 38  1  0
 24 39  1  0
 25 40  1  0
 26 41  1  0
M  END
$$$$
