
     RDKit          3D

 45 47  0  0  0  0  0  0  0  0999 V2000
    1.2487   -0.1440   -1.8457 O   0  0  0  0  0  0  0  0  0  0  0  0
    1.1554    0.0643   -0.6469 C   0  0  0  0  0  0  0  0  0  0  0  0
    1.9359   -0.4740    0.3440 N   0  0  0  0  0  0  0  0  0  0  0  0
    3.1282   -1.2082   -0.0011 C   0  0  0  0  0  0  0  0  0  0  0  0
    3.5583   -1.9860    1.1833 C   0  0  0  0  0  0  0  0  0  0  0  0
    3.5318   -3.3294    1.4978 C   0  0  0  0  0  0  0  0  0  0  0  0
    4.0873   -3.4467    2.7951 C   0  0  0  0  0  0  0  0  0  0  0  0
    4.4173   -2.1710    3.1881 C   0  0  0  0  0  0  0  0  0  0  0  0
    4.0964   -1.2762    2.2191 O   0  0  0  0  0  0  0  0  0  0  0  0
    0.0646    1.0066   -0.1424 C   0  0  0  0  0  0  0  0  0  0  0  0
   -1.2681    0.3527   -0.0013 C   0  0  0  0  0  0  0  0  0  0  0  0
   -2.3027    0.9929    0.5684 C   0  0  0  0  0  0  0  0  0  0  0  0
   -3.6992    0.4668    0.7731 C   0  0  0  0  0  0  0  0  0  0  0  0
   -3.9832   -0.9076    0.2163 C   0  0  0  0  0  0  0  0  0  0  0  0
   -3.8239   -2.0486    1.0156 C   0  0  0  0  0  0  0  0  0  0  0  0
   -4.0679   -3.3187    0.4906 C   0  0  0  0  0  0  0  0  0  0  0  0
   -4.4679   -3.4612   -0.8370 C   0  0  0  0  0  0  0  0  0  0  0  0
   -4.6228   -2.3346   -1.6427 C   0  0  0  0  0  0  0  0  0  0  0  0
   -4.3806   -1.0637   -1.1201 C   0  0  0  0  0  0  0  0  0  0  0  0
    0.2608    2.2669    0.1075 N   0  0  0  0  0  0  0  0  0  0  0  0
    1.5402    2.7407   -0.0475 C   0  0  0  0  0  0  0  0  0  0  0  0
    2.4893    2.3313    0.6101 O   0  0  0  0  0  0  0  0  0  0  0  0
    1.6018    3.7915   -1.0425 C   0  0  0  0  0  0  0  0  0  0  0  0
    0.6419    4.3689   -1.8575 C   0  0  0  0  0  0  0  0  0  0  0  0
    1.2999    5.3502   -2.6382 C   0  0  0  0  0  0  0  0  0  0  0  0
    2.6205    5.3190   -2.2569 C   0  0  0  0  0  0  0  0  0  0  0  0
    3.9958    6.4239   -2.9675 Br  0  0  0  0  0  0  0  0  0  0  0  0
    2.8138    4.3816   -1.2937 O   0  0  0  0  0  0  0  0  0  0  0  0
    1.9704    0.0365    1.2219 H   0  0  0  0  0  0  0  0  0  0  0  0
    2.9232   -1.8654   -0.8528 H   0  0  0  0  0  0  0  0  0  0  0  0
    3.8980   -0.4898   -0.3020 H   0  0  0  0  0  0  0  0  0  0  0  0
    3.1563   -4.1237    0.8670 H   0  0  0  0  0  0  0  0  0  0  0  0
    4.2317   -4.3492    3.3720 H   0  0  0  0  0  0  0  0  0  0  0  0
    4.8624   -1.7523    4.0802 H   0  0  0  0  0  0  0  0  0  0  0  0
   -1.3479   -0.6606   -0.3829 H   0  0  0  0  0  0  0  0  0  0  0  0
   -2.1566    2.0082    0.9368 H   0  0  0  0  0  0  0  0  0  0  0  0
   -3.9187    0.4712    1.8487 H   0  0  0  0  0  0  0  0  0  0  0  0
   -4.4063    1.1782    0.3268 H   0  0  0  0  0  0  0  0  0  0  0  0
   -3.5072   -1.9537    2.0520 H   0  0  0  0  0  0  0  0  0  0  0  0
   -3.9458   -4.1984    1.1182 H   0  0  0  0  0  0  0  0  0  0  0  0
   -4.6578   -4.4504   -1.2452 H   0  0  0  0  0  0  0  0  0  0  0  0
   -4.9314   -2.4459   -2.6789 H   0  0  0  0  0  0  0  0  0  0  0  0
   -4.4994   -0.1936   -1.7627 H   0  0  0  0  0  0  0  0  0  0  0  0
   -0.4069    4.1046   -1.8807 H   0  0  0  0  0  0  0  0  0  0  0  0
    0.8644    5.9972   -3.3863 H   0  0  0  0  0  0  0  0  0  0  0  0
  1  2  2  0
  2  3  1  0
  3  4  1  0
  4  5  1  0
  5  6  2  0
  6  7  1  0
  7  8  2  0
  8  9  1  0
  2 10  1  0
 10 11  1  0
 11 12  2  3
 12 13  1  0
 13 14  1  0
 14 15  2  0
 15 16  1  0
 16 17  2  0
 17 18  1  0
 18 19  2  0
 10 20  2  3
 20 21  1  0
 21 22  2  0
 21 23  1  0
 23 24  2  0
 24 25  1  0
 25 26  2  0
 26 27  1  0
 26 28  1  0
  9  5  1  0
 19 14  1  0
 28 23  1  0
  3 29  1  0
  4 30  1  0
  4 31  1  0
  6 32  1  0
  7 33  1  0
  8 34  1  0
 11 35  1  0
 12 36  1  0
 13 37  1  0
 13 38  1  0
 15 39  1  0
 16 40  1  0
 17 41  1  0
 18 42  1  0
 19 43  1  0
 24 44  1  0
 25 45  1  0
M  END
$$$$
