
     RDKit          3D

 43 45  0  0  0  0  0  0  0  0999 V2000
   -3.6508   -0.5351    2.8534 C   0  0  0  0  0  0  0  0  0  0  0  0
   -4.4450   -0.4641    1.5805 C   0  0  0  0  0  0  0  0  0  0  0  0
   -5.8111   -0.7732    1.6002 C   0  0  0  0  0  0  0  0  0  0  0  0
   -6.5693   -0.7079    0.4318 C   0  0  0  0  0  0  0  0  0  0  0  0
   -5.9741   -0.3233   -0.7694 C   0  0  0  0  0  0  0  0  0  0  0  0
   -4.6100   -0.0080   -0.8197 C   0  0  0  0  0  0  0  0  0  0  0  0
   -3.9961    0.4113   -2.1247 C   0  0  0  0  0  0  0  0  0  0  0  0
   -3.8473   -0.1305    0.3535 C   0  0  0  0  0  0  0  0  0  0  0  0
   -2.5040    0.1522    0.3175 O   0  0  0  0  0  0  0  0  0  0  0  0
   -1.7560   -1.0364    0.0295 C   0  0  0  0  0  0  0  0  0  0  0  0
   -0.3215   -0.6751    0.0965 C   0  0  0  0  0  0  0  0  0  0  0  0
    0.3988    0.3484    0.6600 C   0  0  0  0  0  0  0  0  0  0  0  0
    1.7578    0.0682    0.3421 C   0  0  0  0  0  0  0  0  0  0  0  0
    2.9134    0.8881    0.7508 C   0  0  0  0  0  0  0  0  0  0  0  0
    2.7391    1.8045    1.5591 O   0  0  0  0  0  0  0  0  0  0  0  0
    4.1980    0.6432    0.2350 N   0  0  0  0  0  0  0  0  0  0  0  0
    5.2553    1.5736    0.6296 C   0  0  0  0  0  0  0  0  0  0  0  0
    6.6399    0.9577    0.4687 C   0  0  0  0  0  0  0  0  0  0  0  0
    6.8462    0.4961   -0.8820 N   0  0  0  0  0  0  0  0  0  0  0  0
    5.8666   -0.1765   -1.5631 C   0  0  0  0  0  0  0  0  0  0  0  0
    6.1410   -0.7604   -2.6096 O   0  0  0  0  0  0  0  0  0  0  0  0
    4.4508   -0.1839   -0.9582 C   0  0  0  0  0  0  0  0  0  0  0  0
    1.8332   -1.0765   -0.3565 N   0  0  0  0  0  0  0  0  0  0  0  0
    0.5403   -1.5304   -0.5126 O   0  0  0  0  0  0  0  0  0  0  0  0
   -4.2983   -0.4097    3.7280 H   0  0  0  0  0  0  0  0  0  0  0  0
   -3.1487   -1.5041    2.9306 H   0  0  0  0  0  0  0  0  0  0  0  0
   -2.9025    0.2630    2.8951 H   0  0  0  0  0  0  0  0  0  0  0  0
   -6.2966   -1.0599    2.5305 H   0  0  0  0  0  0  0  0  0  0  0  0
   -7.6298   -0.9460    0.4595 H   0  0  0  0  0  0  0  0  0  0  0  0
   -6.5854   -0.2630   -1.6673 H   0  0  0  0  0  0  0  0  0  0  0  0
   -3.2201    1.1680   -1.9707 H   0  0  0  0  0  0  0  0  0  0  0  0
   -3.5591   -0.4546   -2.6309 H   0  0  0  0  0  0  0  0  0  0  0  0
   -4.7472    0.8569   -2.7860 H   0  0  0  0  0  0  0  0  0  0  0  0
   -1.9979   -1.4072   -0.9731 H   0  0  0  0  0  0  0  0  0  0  0  0
   -1.9642   -1.8214    0.7660 H   0  0  0  0  0  0  0  0  0  0  0  0
    0.0128    1.1876    1.2211 H   0  0  0  0  0  0  0  0  0  0  0  0
    5.1543    2.4614   -0.0070 H   0  0  0  0  0  0  0  0  0  0  0  0
    5.1146    1.8898    1.6688 H   0  0  0  0  0  0  0  0  0  0  0  0
    6.7583    0.0939    1.1321 H   0  0  0  0  0  0  0  0  0  0  0  0
    7.4213    1.6877    0.6996 H   0  0  0  0  0  0  0  0  0  0  0  0
    7.7820    0.3786   -1.2520 H   0  0  0  0  0  0  0  0  0  0  0  0
    3.7632    0.1420   -1.7463 H   0  0  0  0  0  0  0  0  0  0  0  0
    4.2483   -1.2247   -0.6876 H   0  0  0  0  0  0  0  0  0  0  0  0
  1  2  1  0
  2  3  2  0
  3  4  1  0
  4  5  2  0
  5  6  1  0
  6  7  1  0
  6  8  2  0
  8  9  1  0
  9 10  1  0
 10 11  1  0
 11 12  2  0
 12 13  1  0
 13 14  1  0
 14 15  2  0
 14 16  1  0
 16 17  1  0
 17 18  1  0
 18 19  1  0
 19 20  1  0
 20 21  2  0
 20 22  1  0
 13 23  2  0
 23 24  1  0
  8  2  1  0
 24 11  1  0
 22 16  1  0
  1 25  1  0
  1 26  1  0
  1 27  1  0
  3 28  1  0
  4 29  1  0
  5 30  1  0
  7 31  1  0
  7 32  1  0
  7 33  1  0
 10 34  1  0
 10 35  1  0
 12 36  1  0
 17 37  1  0
 17 38  1  0
 18 39  1  0
 18 40  1  0
 19 41  1  0
 22 42  1  0
 22 43  1  0
M  END
$$$$
