
     RDKit          3D

 48 51  0  0  0  0  0  0  0  0999 V2000
    4.3039    2.7150   -2.4196 C   0  0  0  0  0  0  0  0  0  0  0  0
    4.7906    2.2408   -1.1007 C   0  0  0  0  0  0  0  0  0  0  0  0
    4.9072    2.9913   -0.0254 N   0  0  0  0  0  0  0  0  0  0  0  0
    5.3855    2.2741    1.0557 N   0  0  0  0  0  0  0  0  0  0  0  0
    5.5956    1.0104    0.7559 C   0  0  0  0  0  0  0  0  0  0  0  0
    6.2053   -0.1415    1.9186 S   0  0  0  0  0  0  0  0  0  0  0  0
    4.9993    0.1008    3.2579 C   0  0  0  0  0  0  0  0  0  0  0  0
    3.6945   -0.5977    2.9397 C   0  0  0  0  0  0  0  0  0  0  0  0
    3.3966   -1.7833    3.4912 C   0  0  0  0  0  0  0  0  0  0  0  0
    2.1128   -2.4045    3.1451 C   0  0  0  0  0  0  0  0  0  0  0  0
    1.7818   -3.4867    3.6137 O   0  0  0  0  0  0  0  0  0  0  0  0
    1.3445   -1.6872    2.2821 N   0  0  0  0  0  0  0  0  0  0  0  0
    1.7068   -0.4684    1.7780 C   0  0  0  0  0  0  0  0  0  0  0  0
    0.8742    0.1947    0.9365 N   0  0  0  0  0  0  0  0  0  0  0  0
   -0.3685   -0.1746    0.4556 C   0  0  0  0  0  0  0  0  0  0  0  0
   -0.9116   -1.3487    0.8151 N   0  0  0  0  0  0  0  0  0  0  0  0
   -2.1288   -1.6599    0.3149 C   0  0  0  0  0  0  0  0  0  0  0  0
   -2.6859   -2.9849    0.7520 C   0  0  0  0  0  0  0  0  0  0  0  0
   -2.8282   -0.8122   -0.5504 C   0  0  0  0  0  0  0  0  0  0  0  0
   -4.1036   -1.0765   -1.1090 C   0  0  0  0  0  0  0  0  0  0  0  0
   -4.7274   -0.1630   -1.9698 C   0  0  0  0  0  0  0  0  0  0  0  0
   -6.0831   -0.4823   -2.5373 C   0  0  0  0  0  0  0  0  0  0  0  0
   -4.0669    1.0365   -2.2726 C   0  0  0  0  0  0  0  0  0  0  0  0
   -4.6766    2.0644   -3.1861 C   0  0  0  0  0  0  0  0  0  0  0  0
   -2.8007    1.2797   -1.7102 C   0  0  0  0  0  0  0  0  0  0  0  0
   -2.1716    0.3807   -0.8580 C   0  0  0  0  0  0  0  0  0  0  0  0
   -0.9655    0.6946   -0.3679 N   0  0  0  0  0  0  0  0  0  0  0  0
    2.8456    0.0774    2.0911 N   0  0  0  0  0  0  0  0  0  0  0  0
    5.2613    0.6041   -0.8744 S   0  0  0  0  0  0  0  0  0  0  0  0
    3.4040    2.1698   -2.7215 H   0  0  0  0  0  0  0  0  0  0  0  0
    4.0530    3.7797   -2.3755 H   0  0  0  0  0  0  0  0  0  0  0  0
    5.0706    2.5815   -3.1893 H   0  0  0  0  0  0  0  0  0  0  0  0
    5.4417   -0.3144    4.1707 H   0  0  0  0  0  0  0  0  0  0  0  0
    4.8338    1.1660    3.4542 H   0  0  0  0  0  0  0  0  0  0  0  0
    4.0464   -2.3212    4.1669 H   0  0  0  0  0  0  0  0  0  0  0  0
    0.4461   -2.0709    2.0133 H   0  0  0  0  0  0  0  0  0  0  0  0
    1.1726    1.0992    0.6079 H   0  0  0  0  0  0  0  0  0  0  0  0
   -3.6281   -2.8446    1.2909 H   0  0  0  0  0  0  0  0  0  0  0  0
   -1.9892   -3.4958    1.4254 H   0  0  0  0  0  0  0  0  0  0  0  0
   -2.8504   -3.6348   -0.1130 H   0  0  0  0  0  0  0  0  0  0  0  0
   -4.6161   -2.0062   -0.8692 H   0  0  0  0  0  0  0  0  0  0  0  0
   -6.4254   -1.4754   -2.2272 H   0  0  0  0  0  0  0  0  0  0  0  0
   -6.0502   -0.4746   -3.6314 H   0  0  0  0  0  0  0  0  0  0  0  0
   -6.8214    0.2466   -2.1884 H   0  0  0  0  0  0  0  0  0  0  0  0
   -4.0372    2.9484   -3.2812 H   0  0  0  0  0  0  0  0  0  0  0  0
   -4.8149    1.6467   -4.1883 H   0  0  0  0  0  0  0  0  0  0  0  0
   -5.6418    2.3990   -2.7928 H   0  0  0  0  0  0  0  0  0  0  0  0
   -2.2807    2.2083   -1.9423 H   0  0  0  0  0  0  0  0  0  0  0  0
  1  2  1  0
  2  3  2  0
  3  4  1  0
  4  5  2  0
  5  6  1  0
  6  7  1  0
  7  8  1  0
  8  9  2  0
  9 10  1  0
 10 11  2  0
 10 12  1  0
 12 13  1  0
 13 14  1  0
 14 15  1  0
 15 16  2  0
 16 17  1  0
 17 18  1  0
 17 19  2  0
 19 20  1  0
 20 21  2  0
 21 22  1  0
 21 23  1  0
 23 24  1  0
 23 25  2  0
 25 26  1  0
 26 27  2  0
 13 28  2  0
  5 29  1  0
 29  2  1  0
 28  8  1  0
 27 15  1  0
 26 19  1  0
  1 30  1  0
  1 31  1  0
  1 32  1  0
  7 33  1  0
  7 34  1  0
  9 35  1  0
 12 36  1  0
 14 37  1  0
 18 38  1  0
 18 39  1  0
 18 40  1  0
 20 41  1  0
 22 42  1  0
 22 43  1  0
 22 44  1  0
 24 45  1  0
 24 46  1  0
 24 47  1  0
 25 48  1  0
M  END
$$$$
