
     RDKit          3D

 38 40  0  0  0  0  0  0  0  0999 V2000
   -5.7127    0.2849   -1.3427 C   0  0  0  0  0  0  0  0  0  0  0  0
   -4.3726   -0.3625   -1.1568 C   0  0  0  0  0  0  0  0  0  0  0  0
   -3.9304   -0.7219    0.1204 C   0  0  0  0  0  0  0  0  0  0  0  0
   -2.6688   -1.2949    0.2995 C   0  0  0  0  0  0  0  0  0  0  0  0
   -1.8128   -1.4991   -0.7929 C   0  0  0  0  0  0  0  0  0  0  0  0
   -0.4521   -2.1322   -0.6232 C   0  0  0  0  0  0  0  0  0  0  0  0
    0.3572   -1.2674    0.2938 C   0  0  0  0  0  0  0  0  0  0  0  0
    0.9299   -1.7004    1.5290 C   0  0  0  0  0  0  0  0  0  0  0  0
    1.6415   -0.6523    2.0663 C   0  0  0  0  0  0  0  0  0  0  0  0
    2.3424   -0.5580    3.1897 O   0  0  0  0  0  0  0  0  0  0  0  0
    1.5424    0.4069    1.1956 N   0  0  0  0  0  0  0  0  0  0  0  0
    2.1383    1.7224    1.4001 C   0  0  0  0  0  0  0  0  0  0  0  0
    3.4888    1.8193    0.7860 C   0  0  0  0  0  0  0  0  0  0  0  0
    4.5792    0.9733    0.7204 C   0  0  0  0  0  0  0  0  0  0  0  0
    5.5840    1.6639    0.0022 C   0  0  0  0  0  0  0  0  0  0  0  0
    5.0512    2.8900   -0.3167 C   0  0  0  0  0  0  0  0  0  0  0  0
    3.7852    2.9980    0.1603 O   0  0  0  0  0  0  0  0  0  0  0  0
    0.7461    0.0541    0.1292 C   0  0  0  0  0  0  0  0  0  0  0  0
    0.4741    0.9383   -0.8239 O   0  0  0  0  0  0  0  0  0  0  0  0
   -2.2628   -1.1386   -2.0722 C   0  0  0  0  0  0  0  0  0  0  0  0
   -3.5250   -0.5665   -2.2503 C   0  0  0  0  0  0  0  0  0  0  0  0
   -6.4266   -0.0728   -0.5933 H   0  0  0  0  0  0  0  0  0  0  0  0
   -6.1289    0.0459   -2.3270 H   0  0  0  0  0  0  0  0  0  0  0  0
   -5.6190    1.3714   -1.2521 H   0  0  0  0  0  0  0  0  0  0  0  0
   -4.5656   -0.5581    0.9881 H   0  0  0  0  0  0  0  0  0  0  0  0
   -2.3523   -1.5697    1.3036 H   0  0  0  0  0  0  0  0  0  0  0  0
   -0.5720   -3.1441   -0.2188 H   0  0  0  0  0  0  0  0  0  0  0  0
    0.0664   -2.2247   -1.5848 H   0  0  0  0  0  0  0  0  0  0  0  0
    0.8293   -2.6845    1.9673 H   0  0  0  0  0  0  0  0  0  0  0  0
    2.2673   -1.4134    3.6487 H   0  0  0  0  0  0  0  0  0  0  0  0
    2.1961    1.9064    2.4783 H   0  0  0  0  0  0  0  0  0  0  0  0
    1.4546    2.4689    0.9811 H   0  0  0  0  0  0  0  0  0  0  0  0
    4.6327   -0.0220    1.1401 H   0  0  0  0  0  0  0  0  0  0  0  0
    6.5741    1.3129   -0.2504 H   0  0  0  0  0  0  0  0  0  0  0  0
    5.4238    3.7535   -0.8495 H   0  0  0  0  0  0  0  0  0  0  0  0
   -0.2257    0.5575   -1.3832 H   0  0  0  0  0  0  0  0  0  0  0  0
   -1.6326   -1.3000   -2.9445 H   0  0  0  0  0  0  0  0  0  0  0  0
   -3.8448   -0.2847   -3.2512 H   0  0  0  0  0  0  0  0  0  0  0  0
  1  2  1  0
  2  3  2  0
  3  4  1  0
  4  5  2  0
  5  6  1  0
  6  7  1  0
  7  8  1  0
  8  9  2  0
  9 10  1  0
  9 11  1  0
 11 12  1  0
 12 13  1  0
 13 14  2  0
 14 15  1  0
 15 16  2  0
 16 17  1  0
 11 18  1  0
 18 19  1  0
  5 20  1  0
 20 21  2  0
 21  2  1  0
 18  7  2  0
 17 13  1  0
  1 22  1  0
  1 23  1  0
  1 24  1  0
  3 25  1  0
  4 26  1  0
  6 27  1  0
  6 28  1  0
  8 29  1  0
 10 30  1  0
 12 31  1  0
 12 32  1  0
 14 33  1  0
 15 34  1  0
 16 35  1  0
 19 36  1  0
 20 37  1  0
 21 38  1  0
M  END
$$$$
