
     RDKit          3D

 50 53  0  0  0  0  0  0  0  0999 V2000
    0.2083   -3.6672    1.3654 C   0  0  0  0  0  0  0  0  0  0  0  0
    1.2774   -2.8369    0.7776 C   0  0  0  0  0  0  0  0  0  0  0  0
    2.1999   -3.0517   -0.2236 C   0  0  0  0  0  0  0  0  0  0  0  0
    2.9543   -1.8595   -0.3324 C   0  0  0  0  0  0  0  0  0  0  0  0
    2.4390   -0.9837    0.6018 C   0  0  0  0  0  0  0  0  0  0  0  0
    2.7716    0.4167    0.9754 C   0  0  0  0  0  0  0  0  0  0  0  0
    1.6224    1.2988    0.7465 N   0  0  0  0  0  0  0  0  0  0  0  0
    1.5840    2.0260   -0.5212 C   0  0  0  0  0  0  0  0  0  0  0  0
    1.4352    1.1876   -1.7608 C   0  0  0  0  0  0  0  0  0  0  0  0
    2.2019    1.4604   -2.9007 C   0  0  0  0  0  0  0  0  0  0  0  0
    2.0133    0.7176   -4.0628 C   0  0  0  0  0  0  0  0  0  0  0  0
    1.0483   -0.2735   -4.0568 C   0  0  0  0  0  0  0  0  0  0  0  0
    0.2825   -0.5637   -2.9862 N   0  0  0  0  0  0  0  0  0  0  0  0
    0.4908    0.1703   -1.8669 C   0  0  0  0  0  0  0  0  0  0  0  0
    0.8175    1.5986    1.8402 C   0  0  0  0  0  0  0  0  0  0  0  0
    1.1338    1.2612    2.9875 O   0  0  0  0  0  0  0  0  0  0  0  0
   -0.4750    2.4143    1.6527 C   0  0  0  0  0  0  0  0  0  0  0  0
   -1.5003    1.8069    0.8032 N   0  0  0  0  0  0  0  0  0  0  0  0
   -1.9341    2.4956   -0.3221 C   0  0  0  0  0  0  0  0  0  0  0  0
   -1.4722    3.5831   -0.6736 O   0  0  0  0  0  0  0  0  0  0  0  0
   -3.0990    1.8614   -1.0728 C   0  0  0  0  0  0  0  0  0  0  0  0
   -3.2941    0.4670   -0.9820 O   0  0  0  0  0  0  0  0  0  0  0  0
   -3.0056   -0.0371    0.2555 C   0  0  0  0  0  0  0  0  0  0  0  0
   -3.6041   -1.2647    0.5507 C   0  0  0  0  0  0  0  0  0  0  0  0
   -3.3644   -1.8850    1.7727 C   0  0  0  0  0  0  0  0  0  0  0  0
   -2.5155   -1.2792    2.6925 C   0  0  0  0  0  0  0  0  0  0  0  0
   -1.8997   -0.0595    2.3885 C   0  0  0  0  0  0  0  0  0  0  0  0
   -2.1308    0.5793    1.1626 C   0  0  0  0  0  0  0  0  0  0  0  0
    1.4213   -1.5822    1.2864 O   0  0  0  0  0  0  0  0  0  0  0  0
   -0.6923   -3.6241    0.7446 H   0  0  0  0  0  0  0  0  0  0  0  0
   -0.0478   -3.3251    2.3732 H   0  0  0  0  0  0  0  0  0  0  0  0
    0.5275   -4.7130    1.4376 H   0  0  0  0  0  0  0  0  0  0  0  0
    2.3065   -3.9542   -0.8088 H   0  0  0  0  0  0  0  0  0  0  0  0
    3.7576   -1.6550   -1.0232 H   0  0  0  0  0  0  0  0  0  0  0  0
    3.0805    0.4414    2.0262 H   0  0  0  0  0  0  0  0  0  0  0  0
    3.6242    0.7806    0.3910 H   0  0  0  0  0  0  0  0  0  0  0  0
    0.8043    2.7838   -0.5224 H   0  0  0  0  0  0  0  0  0  0  0  0
    2.5253    2.5899   -0.5679 H   0  0  0  0  0  0  0  0  0  0  0  0
    2.9419    2.2570   -2.8940 H   0  0  0  0  0  0  0  0  0  0  0  0
    2.5964    0.9157   -4.9544 H   0  0  0  0  0  0  0  0  0  0  0  0
    0.8576   -0.8769   -4.9389 H   0  0  0  0  0  0  0  0  0  0  0  0
   -0.1378   -0.1099   -1.0255 H   0  0  0  0  0  0  0  0  0  0  0  0
   -0.9239    2.5904    2.6387 H   0  0  0  0  0  0  0  0  0  0  0  0
   -0.1925    3.4093    1.2929 H   0  0  0  0  0  0  0  0  0  0  0  0
   -4.0173    2.3649   -0.7479 H   0  0  0  0  0  0  0  0  0  0  0  0
   -2.9591    2.0913   -2.1349 H   0  0  0  0  0  0  0  0  0  0  0  0
   -4.2613   -1.7327   -0.1788 H   0  0  0  0  0  0  0  0  0  0  0  0
   -3.8350   -2.8376    2.0020 H   0  0  0  0  0  0  0  0  0  0  0  0
   -2.3171   -1.7574    3.6485 H   0  0  0  0  0  0  0  0  0  0  0  0
   -1.2447    0.3608    3.1447 H   0  0  0  0  0  0  0  0  0  0  0  0
  1  2  1  0
  2  3  2  0
  3  4  1  0
  4  5  2  0
  5  6  1  0
  6  7  1  0
  7  8  1  0
  8  9  1  0
  9 10  2  0
 10 11  1  0
 11 12  2  0
 12 13  1  0
 13 14  2  0
  7 15  1  0
 15 16  2  0
 15 17  1  0
 17 18  1  0
 18 19  1  0
 19 20  2  0
 19 21  1  0
 21 22  1  0
 22 23  1  0
 23 24  2  0
 24 25  1  0
 25 26  2  0
 26 27  1  0
 27 28  2  0
  5 29  1  0
 29  2  1  0
 14  9  1  0
 28 18  1  0
 28 23  1  0
  1 30  1  0
  1 31  1  0
  1 32  1  0
  3 33  1  0
  4 34  1  0
  6 35  1  0
  6 36  1  0
  8 37  1  0
  8 38  1  0
 10 39  1  0
 11 40  1  0
 12 41  1  0
 14 42  1  0
 17 43  1  0
 17 44  1  0
 21 45  1  0
 21 46  1  0
 24 47  1  0
 25 48  1  0
 26 49  1  0
 27 50  1  0
M  END
$$$$
