
     RDKit          3D

 42 44  0  0  0  0  0  0  0  0999 V2000
   -3.7676    1.1311   -1.0065 O   0  0  0  0  0  0  0  0  0  0  0  0
   -2.9816    0.3705   -0.4357 C   0  0  0  0  0  0  0  0  0  0  0  0
   -3.4914   -0.7325    0.5209 C   0  0  0  0  0  0  0  0  0  0  0  0
   -3.4891   -0.2302    1.9645 C   0  0  0  0  0  0  0  0  0  0  0  0
   -4.8437   -0.6378    2.4931 C   0  0  0  0  0  0  0  0  0  0  0  0
   -5.6920   -0.6113    1.2470 C   0  0  0  0  0  0  0  0  0  0  0  0
   -4.8419   -1.1247    0.2195 O   0  0  0  0  0  0  0  0  0  0  0  0
   -1.6063    0.5006   -0.6001 N   0  0  0  0  0  0  0  0  0  0  0  0
   -0.5988   -0.3744    0.0081 C   0  0  0  0  0  0  0  0  0  0  0  0
    0.8044    0.2475   -0.0089 C   0  0  0  0  0  0  0  0  0  0  0  0
    1.2525    0.6060   -1.3918 N   0  0  0  0  0  0  0  0  0  0  0  0
    2.3775   -0.4650   -2.1017 S   0  0  0  0  0  6  0  0  0  0  0  0
    1.8655   -1.8040   -1.8949 O   0  0  0  0  0  0  0  0  0  0  0  0
    2.7010    0.0288   -3.4220 O   0  0  0  0  0  0  0  0  0  0  0  0
    3.8161   -0.2434   -1.0871 C   0  0  0  0  0  0  0  0  0  0  0  0
    4.4001    1.0248   -1.0100 C   0  0  0  0  0  0  0  0  0  0  0  0
    5.5266    1.2122   -0.2101 C   0  0  0  0  0  0  0  0  0  0  0  0
    6.0634    0.1377    0.5020 C   0  0  0  0  0  0  0  0  0  0  0  0
    5.4794   -1.1280    0.4154 C   0  0  0  0  0  0  0  0  0  0  0  0
    4.3522   -1.3244   -0.3823 C   0  0  0  0  0  0  0  0  0  0  0  0
    0.1272    0.9668   -2.3192 C   0  0  0  0  0  0  0  0  0  0  0  0
   -1.0999    1.4867   -1.5616 C   0  0  0  0  0  0  0  0  0  0  0  0
   -2.8822   -1.6336    0.4045 H   0  0  0  0  0  0  0  0  0  0  0  0
   -3.3763    0.8598    2.0100 H   0  0  0  0  0  0  0  0  0  0  0  0
   -2.6750   -0.6625    2.5543 H   0  0  0  0  0  0  0  0  0  0  0  0
   -5.2191    0.0160    3.2843 H   0  0  0  0  0  0  0  0  0  0  0  0
   -4.7886   -1.6601    2.8856 H   0  0  0  0  0  0  0  0  0  0  0  0
   -6.5883   -1.2314    1.3314 H   0  0  0  0  0  0  0  0  0  0  0  0
   -5.9889    0.4088    0.9794 H   0  0  0  0  0  0  0  0  0  0  0  0
   -0.8823   -0.5982    1.0391 H   0  0  0  0  0  0  0  0  0  0  0  0
   -0.6090   -1.3146   -0.5551 H   0  0  0  0  0  0  0  0  0  0  0  0
    0.8119    1.1713    0.5830 H   0  0  0  0  0  0  0  0  0  0  0  0
    1.5103   -0.4329    0.4771 H   0  0  0  0  0  0  0  0  0  0  0  0
    3.9850    1.8589   -1.5714 H   0  0  0  0  0  0  0  0  0  0  0  0
    5.9911    2.1933   -0.1454 H   0  0  0  0  0  0  0  0  0  0  0  0
    6.9454    0.2857    1.1212 H   0  0  0  0  0  0  0  0  0  0  0  0
    5.9085   -1.9620    0.9658 H   0  0  0  0  0  0  0  0  0  0  0  0
    3.9065   -2.3140   -0.4524 H   0  0  0  0  0  0  0  0  0  0  0  0
   -0.1660    0.0870   -2.9052 H   0  0  0  0  0  0  0  0  0  0  0  0
    0.4834    1.7408   -3.0074 H   0  0  0  0  0  0  0  0  0  0  0  0
   -0.8401    2.3841   -0.9874 H   0  0  0  0  0  0  0  0  0  0  0  0
   -1.8797    1.7664   -2.2773 H   0  0  0  0  0  0  0  0  0  0  0  0
  1  2  2  0
  2  3  1  0
  3  4  1  0
  4  5  1  0
  5  6  1  0
  6  7  1  0
  2  8  1  0
  8  9  1  0
  9 10  1  0
 10 11  1  0
 11 12  1  0
 12 13  2  0
 12 14  2  0
 12 15  1  0
 15 16  2  0
 16 17  1  0
 17 18  2  0
 18 19  1  0
 19 20  2  0
 11 21  1  0
 21 22  1  0
  7  3  1  0
 22  8  1  0
 20 15  1  0
  3 23  1  0
  4 24  1  0
  4 25  1  0
  5 26  1  0
  5 27  1  0
  6 28  1  0
  6 29  1  0
  9 30  1  0
  9 31  1  0
 10 32  1  0
 10 33  1  0
 16 34  1  0
 17 35  1  0
 18 36  1  0
 19 37  1  0
 20 38  1  0
 21 39  1  0
 21 40  1  0
 22 41  1  0
 22 42  1  0
M  END
$$$$
