
     RDKit          3D

 46 48  0  0  0  0  0  0  0  0999 V2000
   -5.0018   -0.2811    2.6112 C   0  0  0  0  0  0  0  0  0  0  0  0
   -5.8805   -0.0257    1.4351 C   0  0  0  0  0  0  0  0  0  0  0  0
   -7.2179   -0.1881    1.6854 O   0  0  0  0  0  0  0  0  0  0  0  0
   -7.8883    0.0514    0.5278 C   0  0  0  0  0  0  0  0  0  0  0  0
   -7.0036    0.3738   -0.4700 C   0  0  0  0  0  0  0  0  0  0  0  0
   -5.6846    0.3399    0.1059 C   0  0  0  0  0  0  0  0  0  0  0  0
   -4.4594    0.6207   -0.6346 C   0  0  0  0  0  0  0  0  0  0  0  0
   -4.4879    0.8155   -1.8479 O   0  0  0  0  0  0  0  0  0  0  0  0
   -3.2864    0.6658    0.0859 N   0  0  0  0  0  0  0  0  0  0  0  0
   -2.0233    1.0007   -0.5451 C   0  0  0  0  0  0  0  0  0  0  0  0
   -0.8951    0.1768    0.0268 C   0  0  0  0  0  0  0  0  0  0  0  0
   -0.9783   -1.2227    0.0503 C   0  0  0  0  0  0  0  0  0  0  0  0
    0.0771   -1.9885    0.5478 C   0  0  0  0  0  0  0  0  0  0  0  0
    1.2342   -1.3664    1.0120 C   0  0  0  0  0  0  0  0  0  0  0  0
    1.3497    0.0294    0.9842 C   0  0  0  0  0  0  0  0  0  0  0  0
    2.6346    0.6888    1.4186 C   0  0  0  0  0  0  0  0  0  0  0  0
    3.6303    0.5686    0.3795 N   0  0  0  0  0  0  0  0  0  0  0  0
    4.6226   -0.3841    0.4461 C   0  0  0  0  0  0  0  0  0  0  0  0
    4.8064   -1.0793    1.4401 O   0  0  0  0  0  0  0  0  0  0  0  0
    5.4093   -0.5715   -0.7679 C   0  0  0  0  0  0  0  0  0  0  0  0
    6.1842   -1.7313   -1.0844 C   0  0  0  0  0  0  0  0  0  0  0  0
    6.7601   -1.5084   -2.3135 C   0  0  0  0  0  0  0  0  0  0  0  0
    6.4186   -0.2804   -2.7768 O   0  0  0  0  0  0  0  0  0  0  0  0
    5.6144    0.2981   -1.8323 C   0  0  0  0  0  0  0  0  0  0  0  0
    5.1986    1.6836   -2.1395 C   0  0  0  0  0  0  0  0  0  0  0  0
    0.2797    0.7928    0.4873 C   0  0  0  0  0  0  0  0  0  0  0  0
   -4.5297    0.6486    2.9438 H   0  0  0  0  0  0  0  0  0  0  0  0
   -5.5667   -0.6806    3.4646 H   0  0  0  0  0  0  0  0  0  0  0  0
   -4.2263   -1.0103    2.3679 H   0  0  0  0  0  0  0  0  0  0  0  0
   -8.9681   -0.0488    0.5722 H   0  0  0  0  0  0  0  0  0  0  0  0
   -7.2553    0.6108   -1.5001 H   0  0  0  0  0  0  0  0  0  0  0  0
   -3.2946    0.6284    1.0966 H   0  0  0  0  0  0  0  0  0  0  0  0
   -2.0613    0.8624   -1.6372 H   0  0  0  0  0  0  0  0  0  0  0  0
   -1.8567    2.0738   -0.3471 H   0  0  0  0  0  0  0  0  0  0  0  0
   -1.8680   -1.7240   -0.3311 H   0  0  0  0  0  0  0  0  0  0  0  0
    0.0043   -3.0723    0.5594 H   0  0  0  0  0  0  0  0  0  0  0  0
    2.0589   -1.9768    1.3813 H   0  0  0  0  0  0  0  0  0  0  0  0
    2.4731    1.7582    1.5885 H   0  0  0  0  0  0  0  0  0  0  0  0
    2.9867    0.2573    2.3619 H   0  0  0  0  0  0  0  0  0  0  0  0
    3.3485    0.8780   -0.5396 H   0  0  0  0  0  0  0  0  0  0  0  0
    6.2930   -2.6174   -0.4762 H   0  0  0  0  0  0  0  0  0  0  0  0
    7.4122   -2.0874   -2.9568 H   0  0  0  0  0  0  0  0  0  0  0  0
    4.1485    1.7109   -2.4497 H   0  0  0  0  0  0  0  0  0  0  0  0
    5.3256    2.3331   -1.2664 H   0  0  0  0  0  0  0  0  0  0  0  0
    5.7954    2.1014   -2.9583 H   0  0  0  0  0  0  0  0  0  0  0  0
    0.3676    1.8764    0.4478 H   0  0  0  0  0  0  0  0  0  0  0  0
  1  2  1  0
  2  3  1  0
  3  4  1  0
  4  5  2  0
  5  6  1  0
  6  7  1  0
  7  8  2  0
  7  9  1  0
  9 10  1  0
 10 11  1  0
 11 12  2  0
 12 13  1  0
 13 14  2  0
 14 15  1  0
 15 16  1  0
 16 17  1  0
 17 18  1  0
 18 19  2  0
 18 20  1  0
 20 21  1  0
 21 22  2  0
 22 23  1  0
 23 24  1  0
 24 25  1  0
 15 26  2  0
  6  2  2  0
 26 11  1  0
 24 20  2  0
  1 27  1  0
  1 28  1  0
  1 29  1  0
  4 30  1  0
  5 31  1  0
  9 32  1  0
 10 33  1  0
 10 34  1  0
 12 35  1  0
 13 36  1  0
 14 37  1  0
 16 38  1  0
 16 39  1  0
 17 40  1  0
 21 41  1  0
 22 42  1  0
 25 43  1  0
 25 44  1  0
 25 45  1  0
 26 46  1  0
M  END
$$$$
