
     RDKit          3D

 90 95  0  0  0  0  0  0  0  0999 V2000
    1.0957    4.8748   -1.3989 C   0  0  0  0  0  0  0  0  0  0  0  0
    0.8320    3.7622   -0.3716 C   0  0  0  0  0  0  0  0  0  0  0  0
   -0.6589    3.7915    0.0296 C   0  0  0  0  0  0  0  0  0  0  0  0
   -0.9191    3.3296    1.4089 N   0  0  0  0  0  0  0  0  0  0  0  0
   -0.7190    4.2395    2.5737 C   0  0  0  0  0  0  0  0  0  0  0  0
   -0.8754    5.7316    2.2563 C   0  0  0  0  0  0  0  0  0  0  0  0
    0.6245    3.9700    3.2894 C   0  0  0  0  0  0  0  0  0  0  0  0
    0.7010    4.6518    4.5407 O   0  0  0  0  0  0  0  0  0  0  0  0
   -1.2382    1.9970    1.7154 C   0  0  0  0  0  0  0  0  0  0  0  0
   -1.4722    1.6066    2.8570 O   0  0  0  0  0  0  0  0  0  0  0  0
   -1.3036    0.9891    0.6401 C   0  0  0  0  0  0  0  0  0  0  0  0
   -2.4953    0.2667    0.4773 C   0  0  0  0  0  0  0  0  0  0  0  0
   -2.5756   -0.7445   -0.4785 C   0  0  0  0  0  0  0  0  0  0  0  0
   -3.7228   -1.5317   -0.7023 N   0  0  0  0  0  0  0  0  0  0  0  0
   -5.0065   -1.3243   -0.2082 C   0  0  0  0  0  0  0  0  0  0  0  0
   -5.3583   -0.3304    0.4102 O   0  0  0  0  0  0  0  0  0  0  0  0
   -5.8094   -2.4085   -0.5336 N   0  0  0  0  0  0  0  0  0  0  0  0
   -7.2079   -2.5776   -0.3422 C   0  0  0  0  0  0  0  0  0  0  0  0
   -8.0123   -1.5296    0.1252 C   0  0  0  0  0  0  0  0  0  0  0  0
   -9.3872   -1.6985    0.2883 C   0  0  0  0  0  0  0  0  0  0  0  0
   -9.9833   -2.9136   -0.0260 C   0  0  0  0  0  0  0  0  0  0  0  0
   -9.2130   -3.9839   -0.5026 C   0  0  0  0  0  0  0  0  0  0  0  0
   -9.8511   -5.1916   -0.8251 C   0  0  0  0  0  0  0  0  0  0  0  0
   -9.1307   -6.2816   -1.3042 C   0  0  0  0  0  0  0  0  0  0  0  0
   -7.7595   -6.1753   -1.4680 C   0  0  0  0  0  0  0  0  0  0  0  0
   -7.1127   -4.9775   -1.1549 C   0  0  0  0  0  0  0  0  0  0  0  0
   -7.8098   -3.8394   -0.6679 C   0  0  0  0  0  0  0  0  0  0  0  0
   -1.4442   -1.0418   -1.2513 C   0  0  0  0  0  0  0  0  0  0  0  0
   -0.2542   -0.3271   -1.0865 C   0  0  0  0  0  0  0  0  0  0  0  0
   -0.1893    0.6966   -0.1448 C   0  0  0  0  0  0  0  0  0  0  0  0
    1.0004    1.3386    0.0619 O   0  0  0  0  0  0  0  0  0  0  0  0
    1.2536    2.3656   -0.9180 C   0  0  0  0  0  0  0  0  0  0  0  0
    2.7572    2.2901   -1.3223 C   0  0  0  0  0  0  0  0  0  0  0  0
    3.7092    2.7662   -0.3050 N   0  0  0  0  0  0  0  0  0  0  0  0
    4.9313    3.2897   -0.9124 C   0  0  0  0  0  0  0  0  0  0  0  0
    3.9836    1.8064    0.7821 C   0  0  0  0  0  0  0  0  0  0  0  0
    4.7711    0.5652    0.4093 C   0  0  0  0  0  0  0  0  0  0  0  0
    4.1234   -0.6180    0.0250 C   0  0  0  0  0  0  0  0  0  0  0  0
    4.8577   -1.7494   -0.3421 C   0  0  0  0  0  0  0  0  0  0  0  0
    6.2567   -1.7366   -0.3098 C   0  0  0  0  0  0  0  0  0  0  0  0
    7.0316   -2.9211   -0.7032 C   0  0  0  0  0  0  0  0  0  0  0  0
    7.7828   -3.6382    0.2441 C   0  0  0  0  0  0  0  0  0  0  0  0
    8.5292   -4.7607   -0.1344 C   0  0  0  0  0  0  0  0  0  0  0  0
    8.5453   -5.1737   -1.4688 C   0  0  0  0  0  0  0  0  0  0  0  0
    7.8110   -4.4685   -2.4197 C   0  0  0  0  0  0  0  0  0  0  0  0
    7.0582   -3.3525   -2.0401 C   0  0  0  0  0  0  0  0  0  0  0  0
    6.9042   -0.5610    0.0998 C   0  0  0  0  0  0  0  0  0  0  0  0
    6.1725    0.5770    0.4550 C   0  0  0  0  0  0  0  0  0  0  0  0
    0.7399    5.8447   -1.0291 H   0  0  0  0  0  0  0  0  0  0  0  0
    2.1669    4.9918   -1.6046 H   0  0  0  0  0  0  0  0  0  0  0  0
    0.5849    4.6659   -2.3475 H   0  0  0  0  0  0  0  0  0  0  0  0
    1.4280    3.9979    0.5149 H   0  0  0  0  0  0  0  0  0  0  0  0
   -1.0707    4.8007   -0.0700 H   0  0  0  0  0  0  0  0  0  0  0  0
   -1.2465    3.1961   -0.6775 H   0  0  0  0  0  0  0  0  0  0  0  0
   -1.5200    4.0074    3.2922 H   0  0  0  0  0  0  0  0  0  0  0  0
   -1.8190    5.9205    1.7280 H   0  0  0  0  0  0  0  0  0  0  0  0
   -0.8939    6.3346    3.1726 H   0  0  0  0  0  0  0  0  0  0  0  0
   -0.0516    6.0973    1.6336 H   0  0  0  0  0  0  0  0  0  0  0  0
    0.7496    2.9019    3.4830 H   0  0  0  0  0  0  0  0  0  0  0  0
    1.4730    4.2976    2.6760 H   0  0  0  0  0  0  0  0  0  0  0  0
    1.4922    4.3023    4.9851 H   0  0  0  0  0  0  0  0  0  0  0  0
   -3.3306    0.5016    1.1289 H   0  0  0  0  0  0  0  0  0  0  0  0
   -3.6424   -2.2355   -1.4181 H   0  0  0  0  0  0  0  0  0  0  0  0
   -5.3020   -3.2273   -0.8321 H   0  0  0  0  0  0  0  0  0  0  0  0
   -7.5992   -0.5564    0.3714 H   0  0  0  0  0  0  0  0  0  0  0  0
   -9.9916   -0.8766    0.6613 H   0  0  0  0  0  0  0  0  0  0  0  0
  -11.0573   -3.0198    0.1100 H   0  0  0  0  0  0  0  0  0  0  0  0
  -10.9304   -5.2879   -0.7067 H   0  0  0  0  0  0  0  0  0  0  0  0
   -9.6396   -7.2106   -1.5416 H   0  0  0  0  0  0  0  0  0  0  0  0
   -7.1941   -7.0219   -1.8415 H   0  0  0  0  0  0  0  0  0  0  0  0
   -6.0351   -4.9669   -1.2952 H   0  0  0  0  0  0  0  0  0  0  0  0
   -1.4679   -1.8401   -1.9877 H   0  0  0  0  0  0  0  0  0  0  0  0
    0.6206   -0.5820   -1.6800 H   0  0  0  0  0  0  0  0  0  0  0  0
    0.6827    2.1634   -1.8391 H   0  0  0  0  0  0  0  0  0  0  0  0
    3.0013    1.2727   -1.6355 H   0  0  0  0  0  0  0  0  0  0  0  0
    2.8656    2.9027   -2.2266 H   0  0  0  0  0  0  0  0  0  0  0  0
    4.7043    4.1744   -1.5234 H   0  0  0  0  0  0  0  0  0  0  0  0
    5.6318    3.6290   -0.1381 H   0  0  0  0  0  0  0  0  0  0  0  0
    5.4367    2.5577   -1.5552 H   0  0  0  0  0  0  0  0  0  0  0  0
    3.0548    1.5033    1.2783 H   0  0  0  0  0  0  0  0  0  0  0  0
    4.5224    2.3424    1.5826 H   0  0  0  0  0  0  0  0  0  0  0  0
    3.0370   -0.6632    0.0085 H   0  0  0  0  0  0  0  0  0  0  0  0
    4.3297   -2.6567   -0.6352 H   0  0  0  0  0  0  0  0  0  0  0  0
    7.7842   -3.3333    1.2928 H   0  0  0  0  0  0  0  0  0  0  0  0
    9.1054   -5.3043    0.6135 H   0  0  0  0  0  0  0  0  0  0  0  0
    9.1313   -6.0426   -1.7655 H   0  0  0  0  0  0  0  0  0  0  0  0
    7.8269   -4.7827   -3.4621 H   0  0  0  0  0  0  0  0  0  0  0  0
    6.5014   -2.8065   -2.8006 H   0  0  0  0  0  0  0  0  0  0  0  0
    7.9937   -0.5143    0.1293 H   0  0  0  0  0  0  0  0  0  0  0  0
    6.7050    1.4737    0.7679 H   0  0  0  0  0  0  0  0  0  0  0  0
  1  2  1  0
  2  3  1  0
  3  4  1  0
  4  5  1  0
  5  6  1  0
  5  7  1  0
  7  8  1  0
  4  9  1  0
  9 10  2  0
  9 11  1  0
 11 12  2  0
 12 13  1  0
 13 14  1  0
 14 15  1  0
 15 16  2  0
 15 17  1  0
 17 18  1  0
 18 19  2  0
 19 20  1  0
 20 21  2  0
 21 22  1  0
 22 23  2  0
 23 24  1  0
 24 25  2  0
 25 26  1  0
 26 27  2  0
 13 28  2  0
 28 29  1  0
 29 30  2  0
 30 31  1  0
 31 32  1  0
 32 33  1  0
 33 34  1  0
 34 35  1  0
 34 36  1  0
 36 37  1  0
 37 38  2  0
 38 39  1  0
 39 40  2  0
 40 41  1  0
 41 42  2  0
 42 43  1  0
 43 44  2  0
 44 45  1  0
 45 46  2  0
 40 47  1  0
 47 48  2  0
 32  2  1  0
 48 37  1  0
 30 11  1  0
 46 41  1  0
 27 18  1  0
 27 22  1  0
  1 49  1  0
  1 50  1  0
  1 51  1  0
  2 52  1  0
  3 53  1  0
  3 54  1  0
  5 55  1  0
  6 56  1  0
  6 57  1  0
  6 58  1  0
  7 59  1  0
  7 60  1  0
  8 61  1  0
 12 62  1  0
 14 63  1  0
 17 64  1  0
 19 65  1  0
 20 66  1  0
 21 67  1  0
 23 68  1  0
 24 69  1  0
 25 70  1  0
 26 71  1  0
 28 72  1  0
 29 73  1  0
 32 74  1  0
 33 75  1  0
 33 76  1  0
 35 77  1  0
 35 78  1  0
 35 79  1  0
 36 80  1  0
 36 81  1  0
 38 82  1  0
 39 83  1  0
 42 84  1  0
 43 85  1  0
 44 86  1  0
 45 87  1  0
 46 88  1  0
 47 89  1  0
 48 90  1  0
M  END
$$$$
