
     RDKit          3D

 57 59  0  0  0  0  0  0  0  0999 V2000
    7.2443   -0.3082   -1.6665 C   0  0  0  0  0  0  0  0  0  0  0  0
    7.1013   -0.9776   -0.3784 N   0  0  0  0  0  0  0  0  0  0  0  0
    7.3428   -0.0431    0.7195 C   0  0  0  0  0  0  0  0  0  0  0  0
    5.8388   -1.7245   -0.2325 C   0  0  0  0  0  0  0  0  0  0  0  0
    4.5103   -0.9531   -0.0672 C   0  0  0  0  0  0  0  0  0  0  0  0
    4.1619   -0.2123   -1.2779 N   0  0  0  0  0  0  0  0  0  0  0  0
    3.4872    1.3059   -1.2089 S   0  0  0  0  0  6  0  0  0  0  0  0
    3.2828    1.7298   -2.5759 O   0  0  0  0  0  0  0  0  0  0  0  0
    4.2334    2.1019   -0.2633 O   0  0  0  0  0  0  0  0  0  0  0  0
    1.8909    0.9705   -0.5061 C   0  0  0  0  0  0  0  0  0  0  0  0
    0.8425    0.5681   -1.3385 C   0  0  0  0  0  0  0  0  0  0  0  0
   -0.4217    0.3047   -0.7945 C   0  0  0  0  0  0  0  0  0  0  0  0
   -0.6678    0.4391    0.5824 C   0  0  0  0  0  0  0  0  0  0  0  0
   -1.9240    0.1601    1.1447 N   0  0  0  0  0  0  0  0  0  0  0  0
   -2.8830    1.2908    0.9838 C   0  0  0  0  0  0  0  0  0  0  0  0
   -4.1758    1.0216    1.7920 C   0  0  0  0  0  0  0  0  0  0  0  0
   -4.7924   -0.2752    1.3933 N   0  0  0  0  0  0  0  0  0  0  0  0
   -5.6970   -0.2560    0.3300 C   0  0  0  0  0  0  0  0  0  0  0  0
   -6.7293    0.7040    0.2948 C   0  0  0  0  0  0  0  0  0  0  0  0
   -7.6665    0.7532   -0.7433 C   0  0  0  0  0  0  0  0  0  0  0  0
   -7.5962   -0.1767   -1.7666 C   0  0  0  0  0  0  0  0  0  0  0  0
   -8.4903   -0.1393   -2.7629 F   0  0  0  0  0  0  0  0  0  0  0  0
   -6.6152   -1.1554   -1.7603 C   0  0  0  0  0  0  0  0  0  0  0  0
   -5.6829   -1.1961   -0.7153 C   0  0  0  0  0  0  0  0  0  0  0  0
   -3.8325   -1.3933    1.5607 C   0  0  0  0  0  0  0  0  0  0  0  0
   -2.5253   -1.1460    0.7681 C   0  0  0  0  0  0  0  0  0  0  0  0
    0.4078    0.8820    1.3765 C   0  0  0  0  0  0  0  0  0  0  0  0
    0.2293    1.0364    2.8044 N   0  0  0  0  0  4  0  0  0  0  0  0
   -0.3810    2.0418    3.1975 O   0  0  0  0  0  0  0  0  0  0  0  0
    0.7653    0.1830    3.5266 O   0  0  0  0  0  1  0  0  0  0  0  0
    1.6823    1.1492    0.8595 C   0  0  0  0  0  0  0  0  0  0  0  0
    6.5903    0.5624   -1.7720 H   0  0  0  0  0  0  0  0  0  0  0  0
    8.2758    0.0365   -1.7969 H   0  0  0  0  0  0  0  0  0  0  0  0
    7.0429   -0.9990   -2.4919 H   0  0  0  0  0  0  0  0  0  0  0  0
    7.2758   -0.5559    1.6865 H   0  0  0  0  0  0  0  0  0  0  0  0
    6.6403    0.7954    0.7207 H   0  0  0  0  0  0  0  0  0  0  0  0
    8.3557    0.3666    0.6527 H   0  0  0  0  0  0  0  0  0  0  0  0
    5.7445   -2.4150   -1.0831 H   0  0  0  0  0  0  0  0  0  0  0  0
    5.9467   -2.3741    0.6451 H   0  0  0  0  0  0  0  0  0  0  0  0
    4.5582   -0.2996    0.8080 H   0  0  0  0  0  0  0  0  0  0  0  0
    3.7114   -1.6790    0.1170 H   0  0  0  0  0  0  0  0  0  0  0  0
    4.2388   -0.6449   -2.1943 H   0  0  0  0  0  0  0  0  0  0  0  0
    0.9967    0.4616   -2.4109 H   0  0  0  0  0  0  0  0  0  0  0  0
   -1.2188    0.0048   -1.4710 H   0  0  0  0  0  0  0  0  0  0  0  0
   -2.4353    2.2241    1.3473 H   0  0  0  0  0  0  0  0  0  0  0  0
   -3.1323    1.4262   -0.0772 H   0  0  0  0  0  0  0  0  0  0  0  0
   -4.8536    1.8741    1.6914 H   0  0  0  0  0  0  0  0  0  0  0  0
   -3.9229    0.9597    2.8599 H   0  0  0  0  0  0  0  0  0  0  0  0
   -6.8451    1.4161    1.1095 H   0  0  0  0  0  0  0  0  0  0  0  0
   -8.4533    1.5014   -0.7443 H   0  0  0  0  0  0  0  0  0  0  0  0
   -6.5813   -1.8874   -2.5614 H   0  0  0  0  0  0  0  0  0  0  0  0
   -4.9408   -1.9870   -0.7562 H   0  0  0  0  0  0  0  0  0  0  0  0
   -4.2775   -2.3597    1.2985 H   0  0  0  0  0  0  0  0  0  0  0  0
   -3.5846   -1.4632    2.6284 H   0  0  0  0  0  0  0  0  0  0  0  0
   -2.7391   -1.1786   -0.3056 H   0  0  0  0  0  0  0  0  0  0  0  0
   -1.8203   -1.9526    0.9976 H   0  0  0  0  0  0  0  0  0  0  0  0
    2.4877    1.4822    1.5109 H   0  0  0  0  0  0  0  0  0  0  0  0
  1  2  1  0
  2  3  1  0
  2  4  1  0
  4  5  1  0
  5  6  1  0
  6  7  1  0
  7  8  2  0
  7  9  2  0
  7 10  1  0
 10 11  2  0
 11 12  1  0
 12 13  2  0
 13 14  1  0
 14 15  1  0
 15 16  1  0
 16 17  1  0
 17 18  1  0
 18 19  2  0
 19 20  1  0
 20 21  2  0
 21 22  1  0
 21 23  1  0
 23 24  2  0
 17 25  1  0
 25 26  1  0
 13 27  1  0
 27 28  1  0
 28 29  2  0
 28 30  1  0
 27 31  2  0
 31 10  1  0
 26 14  1  0
 24 18  1  0
  1 32  1  0
  1 33  1  0
  1 34  1  0
  3 35  1  0
  3 36  1  0
  3 37  1  0
  4 38  1  0
  4 39  1  0
  5 40  1  0
  5 41  1  0
  6 42  1  0
 11 43  1  0
 12 44  1  0
 15 45  1  0
 15 46  1  0
 16 47  1  0
 16 48  1  0
 19 49  1  0
 20 50  1  0
 23 51  1  0
 24 52  1  0
 25 53  1  0
 25 54  1  0
 26 55  1  0
 26 56  1  0
 31 57  1  0
M  CHG  2  28   1  30  -1
M  END
$$$$
