
     RDKit          3D

 40 44  0  0  0  0  0  0  0  0999 V2000
    6.2033    0.9006    0.5816 C   0  0  0  0  0  0  0  0  0  0  0  0
    5.3158    1.6858   -0.1500 C   0  0  0  0  0  0  0  0  0  0  0  0
    3.9871    1.2812   -0.3039 C   0  0  0  0  0  0  0  0  0  0  0  0
    3.5230    0.0854    0.2691 C   0  0  0  0  0  0  0  0  0  0  0  0
    2.1227   -0.3403    0.1059 C   0  0  0  0  0  0  0  0  0  0  0  0
    1.8130   -1.5992   -0.4306 C   0  0  0  0  0  0  0  0  0  0  0  0
    0.4921   -2.0333   -0.6026 C   0  0  0  0  0  0  0  0  0  0  0  0
   -0.5353   -1.1676   -0.2116 C   0  0  0  0  0  0  0  0  0  0  0  0
   -0.2749    0.1044    0.3293 C   0  0  0  0  0  0  0  0  0  0  0  0
    1.0664    0.5119    0.4824 C   0  0  0  0  0  0  0  0  0  0  0  0
   -1.5330    0.7214    0.5919 C   0  0  0  0  0  0  0  0  0  0  0  0
   -2.4944   -0.1923    0.2459 C   0  0  0  0  0  0  0  0  0  0  0  0
   -1.8982   -1.2970   -0.2629 N   0  0  0  0  0  0  0  0  0  0  0  0
   -2.7299   -2.3279   -0.8438 C   0  0  0  0  0  0  0  0  0  0  0  0
   -4.1216   -2.3241   -0.1896 C   0  0  0  0  0  0  0  0  0  0  0  0
   -4.7243   -0.9832    0.0497 N   0  0  0  0  0  0  0  0  0  0  0  0
   -3.9080   -0.0175    0.3125 C   0  0  0  0  0  0  0  0  0  0  0  0
   -4.3803    1.3562    0.7617 C   0  0  0  0  0  0  0  0  0  0  0  0
   -3.3110    2.4540    0.5602 C   0  0  0  0  0  0  0  0  0  0  0  0
   -1.9134    2.0669    1.1036 C   0  0  0  0  0  0  0  0  0  0  0  0
    4.4348   -0.6918    1.0027 C   0  0  0  0  0  0  0  0  0  0  0  0
    5.7636   -0.2881    1.1586 C   0  0  0  0  0  0  0  0  0  0  0  0
    7.2366    1.2150    0.7021 H   0  0  0  0  0  0  0  0  0  0  0  0
    5.6560    2.6126   -0.6042 H   0  0  0  0  0  0  0  0  0  0  0  0
    3.3119    1.9032   -0.8882 H   0  0  0  0  0  0  0  0  0  0  0  0
    2.6180   -2.2643   -0.7403 H   0  0  0  0  0  0  0  0  0  0  0  0
    0.2841   -3.0095   -1.0276 H   0  0  0  0  0  0  0  0  0  0  0  0
    1.2790    1.4900    0.9058 H   0  0  0  0  0  0  0  0  0  0  0  0
   -2.8060   -2.1015   -1.9132 H   0  0  0  0  0  0  0  0  0  0  0  0
   -2.2413   -3.2979   -0.7139 H   0  0  0  0  0  0  0  0  0  0  0  0
   -4.0726   -2.8391    0.7782 H   0  0  0  0  0  0  0  0  0  0  0  0
   -4.8092   -2.9013   -0.8177 H   0  0  0  0  0  0  0  0  0  0  0  0
   -5.2948    1.6167    0.2181 H   0  0  0  0  0  0  0  0  0  0  0  0
   -4.6355    1.2829    1.8257 H   0  0  0  0  0  0  0  0  0  0  0  0
   -3.2242    2.6578   -0.5157 H   0  0  0  0  0  0  0  0  0  0  0  0
   -3.6444    3.3839    1.0345 H   0  0  0  0  0  0  0  0  0  0  0  0
   -1.9362    2.0455    2.1994 H   0  0  0  0  0  0  0  0  0  0  0  0
   -1.1796    2.8201    0.7971 H   0  0  0  0  0  0  0  0  0  0  0  0
    4.1079   -1.6181    1.4709 H   0  0  0  0  0  0  0  0  0  0  0  0
    6.4524   -0.9017    1.7331 H   0  0  0  0  0  0  0  0  0  0  0  0
  1  2  2  0
  2  3  1  0
  3  4  2  0
  4  5  1  0
  5  6  2  0
  6  7  1  0
  7  8  2  0
  8  9  1  0
  9 10  2  0
  9 11  1  0
 11 12  2  0
 12 13  1  0
 13 14  1  0
 14 15  1  0
 15 16  1  0
 16 17  2  0
 17 18  1  0
 18 19  1  0
 19 20  1  0
  4 21  1  0
 21 22  2  0
 22  1  1  0
 10  5  1  0
 20 11  1  0
 13  8  1  0
 17 12  1  0
  1 23  1  0
  2 24  1  0
  3 25  1  0
  6 26  1  0
  7 27  1  0
 10 28  1  0
 14 29  1  0
 14 30  1  0
 15 31  1  0
 15 32  1  0
 18 33  1  0
 18 34  1  0
 19 35  1  0
 19 36  1  0
 20 37  1  0
 20 38  1  0
 21 39  1  0
 22 40  1  0
M  END
$$$$
