
     RDKit          3D

 49 52  0  0  0  0  0  0  0  0999 V2000
   -1.4483    5.5742    0.1275 C   0  0  0  0  0  0  0  0  0  0  0  0
   -1.2599    4.1327   -0.2420 C   0  0  0  0  0  0  0  0  0  0  0  0
   -1.1621    3.7486   -1.5831 C   0  0  0  0  0  0  0  0  0  0  0  0
   -0.9571    2.4089   -1.9242 C   0  0  0  0  0  0  0  0  0  0  0  0
   -0.8271    1.4266   -0.9297 C   0  0  0  0  0  0  0  0  0  0  0  0
   -0.6316   -0.0273   -1.3323 C   0  0  0  0  0  0  0  0  0  0  0  0
   -1.9537   -0.7944   -1.2750 C   0  0  0  0  0  0  0  0  0  0  0  0
   -1.6832   -1.7193   -0.1208 C   0  0  0  0  0  0  0  0  0  0  0  0
   -2.7384   -2.5952    0.4410 C   0  0  0  0  0  0  0  0  0  0  0  0
   -2.4346   -3.3987    1.5471 C   0  0  0  0  0  0  0  0  0  0  0  0
   -3.4072   -4.2350    2.0981 C   0  0  0  0  0  0  0  0  0  0  0  0
   -4.6867   -4.2731    1.5468 C   0  0  0  0  0  0  0  0  0  0  0  0
   -4.9953   -3.4763    0.4452 C   0  0  0  0  0  0  0  0  0  0  0  0
   -4.0243   -2.6382   -0.1097 C   0  0  0  0  0  0  0  0  0  0  0  0
   -0.4603   -1.7106    0.3167 N   0  0  0  0  0  0  0  0  0  0  0  0
    0.2236   -0.7758   -0.4074 N   0  0  0  0  0  0  0  0  0  0  0  0
    1.6124   -0.6875   -0.3258 C   0  0  0  0  0  0  0  0  0  0  0  0
    2.3353   -1.5308    0.5401 C   0  0  0  0  0  0  0  0  0  0  0  0
    3.7280   -1.4642    0.6508 C   0  0  0  0  0  0  0  0  0  0  0  0
    4.4273   -0.5291   -0.1076 C   0  0  0  0  0  0  0  0  0  0  0  0
    6.1888   -0.4299    0.0405 S   0  0  0  0  0  6  0  0  0  0  0  0
    6.3545    0.5423    1.4073 N   0  0  0  0  0  0  0  0  0  0  0  0
    6.7013    0.3587   -1.0569 O   0  0  0  0  0  0  0  0  0  0  0  0
    6.6995   -1.7410    0.3602 O   0  0  0  0  0  0  0  0  0  0  0  0
    3.7507    0.3153   -0.9848 C   0  0  0  0  0  0  0  0  0  0  0  0
    2.3561    0.2326   -1.0847 C   0  0  0  0  0  0  0  0  0  0  0  0
   -0.9187    1.8211    0.4140 C   0  0  0  0  0  0  0  0  0  0  0  0
   -1.1245    3.1601    0.7538 C   0  0  0  0  0  0  0  0  0  0  0  0
   -2.0552    5.6671    1.0356 H   0  0  0  0  0  0  0  0  0  0  0  0
   -0.4756    6.0468    0.2995 H   0  0  0  0  0  0  0  0  0  0  0  0
   -1.9693    6.1179   -0.6677 H   0  0  0  0  0  0  0  0  0  0  0  0
   -1.2444    4.4914   -2.3733 H   0  0  0  0  0  0  0  0  0  0  0  0
   -0.8926    2.1410   -2.9766 H   0  0  0  0  0  0  0  0  0  0  0  0
   -0.2281   -0.0821   -2.3516 H   0  0  0  0  0  0  0  0  0  0  0  0
   -2.0988   -1.3938   -2.1802 H   0  0  0  0  0  0  0  0  0  0  0  0
   -2.8307   -0.1649   -1.1007 H   0  0  0  0  0  0  0  0  0  0  0  0
   -1.4392   -3.3784    1.9868 H   0  0  0  0  0  0  0  0  0  0  0  0
   -3.1644   -4.8560    2.9567 H   0  0  0  0  0  0  0  0  0  0  0  0
   -5.4435   -4.9251    1.9762 H   0  0  0  0  0  0  0  0  0  0  0  0
   -5.9941   -3.5091    0.0168 H   0  0  0  0  0  0  0  0  0  0  0  0
   -4.2951   -2.0338   -0.9698 H   0  0  0  0  0  0  0  0  0  0  0  0
    1.8011   -2.2646    1.1414 H   0  0  0  0  0  0  0  0  0  0  0  0
    4.2474   -2.1430    1.3237 H   0  0  0  0  0  0  0  0  0  0  0  0
    5.4724    0.6956    1.8955 H   0  0  0  0  0  0  0  0  0  0  0  0
    6.7951    1.4215    1.1316 H   0  0  0  0  0  0  0  0  0  0  0  0
    4.2886    1.0395   -1.5925 H   0  0  0  0  0  0  0  0  0  0  0  0
    1.8622    0.9144   -1.7709 H   0  0  0  0  0  0  0  0  0  0  0  0
   -0.8214    1.0838    1.2097 H   0  0  0  0  0  0  0  0  0  0  0  0
   -1.1790    3.4370    1.8044 H   0  0  0  0  0  0  0  0  0  0  0  0
  1  2  1  0
  2  3  2  0
  3  4  1  0
  4  5  2  0
  5  6  1  0
  6  7  1  0
  7  8  1  0
  8  9  1  0
  9 10  2  0
 10 11  1  0
 11 12  2  0
 12 13  1  0
 13 14  2  0
  8 15  2  0
 15 16  1  0
 16 17  1  0
 17 18  2  0
 18 19  1  0
 19 20  2  0
 20 21  1  0
 21 22  1  0
 21 23  2  0
 21 24  2  0
 20 25  1  0
 25 26  2  0
  5 27  1  0
 27 28  2  0
 28  2  1  0
 16  6  1  0
 26 17  1  0
 14  9  1  0
  1 29  1  0
  1 30  1  0
  1 31  1  0
  3 32  1  0
  4 33  1  0
  6 34  1  0
  7 35  1  0
  7 36  1  0
 10 37  1  0
 11 38  1  0
 12 39  1  0
 13 40  1  0
 14 41  1  0
 18 42  1  0
 19 43  1  0
 22 44  1  0
 22 45  1  0
 25 46  1  0
 26 47  1  0
 27 48  1  0
 28 49  1  0
M  END
$$$$
