
     RDKit          3D

 43 45  0  0  0  0  0  0  0  0999 V2000
   -5.8068   -1.4743    0.8922 C   0  0  0  0  0  0  0  0  0  0  0  0
   -5.0790   -0.4982    0.0867 N   0  0  0  0  0  0  0  0  0  0  0  0
   -4.2042    0.3366    0.9378 C   0  0  0  0  0  0  0  0  0  0  0  0
   -3.0529    1.0172    0.1638 C   0  0  0  0  0  0  0  0  0  0  0  0
   -2.1758    0.0314   -0.5161 N   0  0  0  0  0  0  0  0  0  0  0  0
   -0.8547   -0.0656   -0.0626 C   0  0  0  0  0  0  0  0  0  0  0  0
   -0.5531   -0.2440    1.2962 C   0  0  0  0  0  0  0  0  0  0  0  0
    0.7723   -0.3398    1.7423 C   0  0  0  0  0  0  0  0  0  0  0  0
    1.8374   -0.2492    0.8385 C   0  0  0  0  0  0  0  0  0  0  0  0
    3.2212   -0.3679    1.3620 C   0  0  0  0  0  0  0  0  0  0  0  0
    3.4298   -1.1006    2.3251 O   0  0  0  0  0  0  0  0  0  0  0  0
    4.3556    0.3701    0.7513 C   0  0  0  0  0  0  0  0  0  0  0  0
    4.2011    1.6609    0.2295 C   0  0  0  0  0  0  0  0  0  0  0  0
    5.2991    2.3239   -0.3263 C   0  0  0  0  0  0  0  0  0  0  0  0
    6.5481    1.7029   -0.3464 C   0  0  0  0  0  0  0  0  0  0  0  0
    8.0303    2.6041   -1.0967 Br  0  0  0  0  0  0  0  0  0  0  0  0
    6.7138    0.4271    0.1904 C   0  0  0  0  0  0  0  0  0  0  0  0
    5.6178   -0.2373    0.7455 C   0  0  0  0  0  0  0  0  0  0  0  0
    1.5749   -0.1020   -0.5224 C   0  0  0  0  0  0  0  0  0  0  0  0
    0.2398   -0.0123   -0.9443 C   0  0  0  0  0  0  0  0  0  0  0  0
    0.0153    0.1816   -2.3600 N   0  0  0  0  0  4  0  0  0  0  0  0
   -0.2541   -0.8231   -3.0336 O   0  0  0  0  0  0  0  0  0  0  0  0
    0.1997    1.3248   -2.8021 O   0  0  0  0  0  1  0  0  0  0  0  0
   -2.8068   -1.2929   -0.7493 C   0  0  0  0  0  0  0  0  0  0  0  0
   -4.3219   -1.1400   -1.0113 C   0  0  0  0  0  0  0  0  0  0  0  0
   -6.3788   -0.9731    1.6810 H   0  0  0  0  0  0  0  0  0  0  0  0
   -6.5321   -2.0165    0.2755 H   0  0  0  0  0  0  0  0  0  0  0  0
   -5.1375   -2.2049    1.3604 H   0  0  0  0  0  0  0  0  0  0  0  0
   -4.8166    1.1093    1.4168 H   0  0  0  0  0  0  0  0  0  0  0  0
   -3.7639   -0.2688    1.7411 H   0  0  0  0  0  0  0  0  0  0  0  0
   -3.4778    1.6703   -0.6090 H   0  0  0  0  0  0  0  0  0  0  0  0
   -2.4877    1.6726    0.8380 H   0  0  0  0  0  0  0  0  0  0  0  0
   -1.3504   -0.3251    2.0310 H   0  0  0  0  0  0  0  0  0  0  0  0
    0.9699   -0.4881    2.8036 H   0  0  0  0  0  0  0  0  0  0  0  0
    3.2430    2.1734    0.2632 H   0  0  0  0  0  0  0  0  0  0  0  0
    5.1731    3.3251   -0.7320 H   0  0  0  0  0  0  0  0  0  0  0  0
    7.6880   -0.0556    0.1875 H   0  0  0  0  0  0  0  0  0  0  0  0
    5.7501   -1.2291    1.1746 H   0  0  0  0  0  0  0  0  0  0  0  0
    2.3782   -0.0690   -1.2541 H   0  0  0  0  0  0  0  0  0  0  0  0
   -2.6564   -1.9550    0.1140 H   0  0  0  0  0  0  0  0  0  0  0  0
   -2.3454   -1.7731   -1.6192 H   0  0  0  0  0  0  0  0  0  0  0  0
   -4.7500   -2.1157   -1.2727 H   0  0  0  0  0  0  0  0  0  0  0  0
   -4.4527   -0.5102   -1.9010 H   0  0  0  0  0  0  0  0  0  0  0  0
  1  2  1  0
  2  3  1  0
  3  4  1  0
  4  5  1  0
  5  6  1  0
  6  7  2  0
  7  8  1  0
  8  9  2  0
  9 10  1  0
 10 11  2  0
 10 12  1  0
 12 13  2  0
 13 14  1  0
 14 15  2  0
 15 16  1  0
 15 17  1  0
 17 18  2  0
  9 19  1  0
 19 20  2  0
 20 21  1  0
 21 22  2  0
 21 23  1  0
  5 24  1  0
 24 25  1  0
 25  2  1  0
 20  6  1  0
 18 12  1  0
  1 26  1  0
  1 27  1  0
  1 28  1  0
  3 29  1  0
  3 30  1  0
  4 31  1  0
  4 32  1  0
  7 33  1  0
  8 34  1  0
 13 35  1  0
 14 36  1  0
 17 37  1  0
 18 38  1  0
 19 39  1  0
 24 40  1  0
 24 41  1  0
 25 42  1  0
 25 43  1  0
M  CHG  2  21   1  23  -1
M  END
$$$$
