
     RDKit          3D

 39 40  0  0  0  0  0  0  0  0999 V2000
   -7.0791   -2.0355    0.1381 N   0  0  0  0  0  0  0  0  0  0  0  0
   -6.6146   -0.7750    1.1546 S   0  0  0  0  0  6  0  0  0  0  0  0
   -6.5968   -1.3344    2.4866 O   0  0  0  0  0  0  0  0  0  0  0  0
   -7.3990    0.3865    0.8097 O   0  0  0  0  0  0  0  0  0  0  0  0
   -4.9427   -0.5010    0.6337 C   0  0  0  0  0  0  0  0  0  0  0  0
   -3.8960   -1.1560    1.2855 C   0  0  0  0  0  0  0  0  0  0  0  0
   -2.5832   -0.9316    0.8694 C   0  0  0  0  0  0  0  0  0  0  0  0
   -2.3117   -0.0509   -0.1891 C   0  0  0  0  0  0  0  0  0  0  0  0
   -0.8855    0.2018   -0.6142 C   0  0  0  0  0  0  0  0  0  0  0  0
   -0.1941    1.2234    0.2939 C   0  0  0  0  0  0  0  0  0  0  0  0
    1.1714    1.5023   -0.1178 N   0  0  0  0  0  0  0  0  0  0  0  0
    2.1758    0.5862    0.1270 C   0  0  0  0  0  0  0  0  0  0  0  0
    1.9752   -0.4676    0.7143 O   0  0  0  0  0  0  0  0  0  0  0  0
    3.3805    1.0418   -0.3616 N   0  0  0  0  0  0  0  0  0  0  0  0
    4.6104    0.3542   -0.3830 C   0  0  0  0  0  0  0  0  0  0  0  0
    5.7440    1.0839   -0.7611 C   0  0  0  0  0  0  0  0  0  0  0  0
    6.9996    0.4718   -0.8162 C   0  0  0  0  0  0  0  0  0  0  0  0
    7.1347   -0.8807   -0.4987 C   0  0  0  0  0  0  0  0  0  0  0  0
    8.7139   -1.5740   -0.5902 Cl  0  0  0  0  0  0  0  0  0  0  0  0
    6.0069   -1.6188   -0.1276 C   0  0  0  0  0  0  0  0  0  0  0  0
    6.0969   -3.2998    0.2683 Cl  0  0  0  0  0  0  0  0  0  0  0  0
    4.7500   -1.0011   -0.0725 C   0  0  0  0  0  0  0  0  0  0  0  0
   -3.3730    0.6118   -0.8221 C   0  0  0  0  0  0  0  0  0  0  0  0
   -4.6884    0.3898   -0.4122 C   0  0  0  0  0  0  0  0  0  0  0  0
   -7.2703   -2.8620    0.7073 H   0  0  0  0  0  0  0  0  0  0  0  0
   -6.3985   -2.2296   -0.5957 H   0  0  0  0  0  0  0  0  0  0  0  0
   -4.0888   -1.8331    2.1150 H   0  0  0  0  0  0  0  0  0  0  0  0
   -1.7668   -1.4426    1.3792 H   0  0  0  0  0  0  0  0  0  0  0  0
   -0.3400   -0.7501   -0.6185 H   0  0  0  0  0  0  0  0  0  0  0  0
   -0.8639    0.5543   -1.6536 H   0  0  0  0  0  0  0  0  0  0  0  0
   -0.7308    2.1785    0.2777 H   0  0  0  0  0  0  0  0  0  0  0  0
   -0.1764    0.8692    1.3315 H   0  0  0  0  0  0  0  0  0  0  0  0
    1.2901    2.0943   -0.9260 H   0  0  0  0  0  0  0  0  0  0  0  0
    3.4059    2.0268   -0.5794 H   0  0  0  0  0  0  0  0  0  0  0  0
    5.6698    2.1390   -1.0140 H   0  0  0  0  0  0  0  0  0  0  0  0
    7.8687    1.0568   -1.1080 H   0  0  0  0  0  0  0  0  0  0  0  0
    3.8917   -1.6035    0.2105 H   0  0  0  0  0  0  0  0  0  0  0  0
   -3.1818    1.3088   -1.6357 H   0  0  0  0  0  0  0  0  0  0  0  0
   -5.5042    0.9153   -0.9052 H   0  0  0  0  0  0  0  0  0  0  0  0
  1  2  1  0
  2  3  2  0
  2  4  2  0
  2  5  1  0
  5  6  2  0
  6  7  1  0
  7  8  2  0
  8  9  1  0
  9 10  1  0
 10 11  1  0
 11 12  1  0
 12 13  2  0
 12 14  1  0
 14 15  1  0
 15 16  2  0
 16 17  1  0
 17 18  2  0
 18 19  1  0
 18 20  1  0
 20 21  1  0
 20 22  2  0
  8 23  1  0
 23 24  2  0
 24  5  1  0
 22 15  1  0
  1 25  1  0
  1 26  1  0
  6 27  1  0
  7 28  1  0
  9 29  1  0
  9 30  1  0
 10 31  1  0
 10 32  1  0
 11 33  1  0
 14 34  1  0
 16 35  1  0
 17 36  1  0
 22 37  1  0
 23 38  1  0
 24 39  1  0
M  END
$$$$
