
     RDKit          3D

 60 65  0  0  0  0  0  0  0  0999 V2000
    0.7232    0.0091   -0.5363 O   0  0  0  0  0  0  0  0  0  0  0  0
    1.2089   -0.4678   -1.5591 C   0  0  0  0  0  0  0  0  0  0  0  0
    0.3491   -1.2402   -2.5598 C   0  0  0  0  0  0  0  0  0  0  0  0
   -0.4710   -2.6545   -1.7641 S   0  0  0  0  0  0  0  0  0  0  0  0
   -1.5192   -1.7494   -0.6709 C   0  0  0  0  0  0  0  0  0  0  0  0
   -2.3435   -0.9440   -1.2552 N   0  0  0  0  0  0  0  0  0  0  0  0
   -3.0836   -0.0812   -0.4567 C   0  0  0  0  0  0  0  0  0  0  0  0
   -3.9159    0.7333   -1.1403 N   0  0  0  0  0  0  0  0  0  0  0  0
   -4.6393    1.6405   -0.4366 C   0  0  0  0  0  0  0  0  0  0  0  0
   -4.5431    1.7746    0.9525 C   0  0  0  0  0  0  0  0  0  0  0  0
   -3.6861    0.9067    1.6343 C   0  0  0  0  0  0  0  0  0  0  0  0
   -2.9439   -0.0270    0.9119 C   0  0  0  0  0  0  0  0  0  0  0  0
   -2.0349   -0.9819    1.5542 C   0  0  0  0  0  0  0  0  0  0  0  0
   -1.9717   -0.9565    2.7833 O   0  0  0  0  0  0  0  0  0  0  0  0
   -1.3642   -1.8736    0.7100 N   0  0  0  0  0  0  0  0  0  0  0  0
   -0.5378   -2.8734    1.3218 C   0  0  0  0  0  0  0  0  0  0  0  0
    0.4036   -2.5171    2.2983 C   0  0  0  0  0  0  0  0  0  0  0  0
    1.2028   -3.4873    2.9074 C   0  0  0  0  0  0  0  0  0  0  0  0
    1.0610   -4.8282    2.5583 C   0  0  0  0  0  0  0  0  0  0  0  0
    0.1168   -5.2008    1.6049 C   0  0  0  0  0  0  0  0  0  0  0  0
   -0.6813   -4.2303    0.9932 C   0  0  0  0  0  0  0  0  0  0  0  0
   -5.3737    2.7680    1.7195 C   0  0  0  0  0  0  0  0  0  0  0  0
   -5.9675    3.8646    0.8365 C   0  0  0  0  0  0  0  0  0  0  0  0
   -6.5843    3.2641   -0.4212 C   0  0  0  0  0  0  0  0  0  0  0  0
   -5.5152    2.5571   -1.2510 C   0  0  0  0  0  0  0  0  0  0  0  0
    2.5355   -0.3644   -1.9552 N   0  0  0  0  0  0  0  0  0  0  0  0
    3.6084    0.2722   -1.2724 C   0  0  0  0  0  0  0  0  0  0  0  0
    3.4481    0.7634    0.0304 C   0  0  0  0  0  0  0  0  0  0  0  0
    4.4978    1.3879    0.6981 C   0  0  0  0  0  0  0  0  0  0  0  0
    5.7289    1.5350    0.0724 C   0  0  0  0  0  0  0  0  0  0  0  0
    5.9354    1.0512   -1.2249 C   0  0  0  0  0  0  0  0  0  0  0  0
    7.1967    1.2143   -1.8225 C   0  0  0  0  0  0  0  0  0  0  0  0
    7.4507    0.7467   -3.1079 C   0  0  0  0  0  0  0  0  0  0  0  0
    6.4430    0.1104   -3.8146 C   0  0  0  0  0  0  0  0  0  0  0  0
    5.1809   -0.0571   -3.2353 C   0  0  0  0  0  0  0  0  0  0  0  0
    4.8804    0.4042   -1.9246 C   0  0  0  0  0  0  0  0  0  0  0  0
    0.9606   -1.6364   -3.3763 H   0  0  0  0  0  0  0  0  0  0  0  0
   -0.3769   -0.5524   -3.0045 H   0  0  0  0  0  0  0  0  0  0  0  0
   -3.5942    0.9556    2.7173 H   0  0  0  0  0  0  0  0  0  0  0  0
    0.5371   -1.4747    2.5814 H   0  0  0  0  0  0  0  0  0  0  0  0
    1.9327   -3.1927    3.6565 H   0  0  0  0  0  0  0  0  0  0  0  0
    1.6801   -5.5830    3.0360 H   0  0  0  0  0  0  0  0  0  0  0  0
   -0.0067   -6.2484    1.3426 H   0  0  0  0  0  0  0  0  0  0  0  0
   -1.4354   -4.5551    0.2804 H   0  0  0  0  0  0  0  0  0  0  0  0
   -6.1871    2.2219    2.2132 H   0  0  0  0  0  0  0  0  0  0  0  0
   -4.7664    3.2361    2.5032 H   0  0  0  0  0  0  0  0  0  0  0  0
   -6.7235    4.4220    1.4008 H   0  0  0  0  0  0  0  0  0  0  0  0
   -5.1852    4.5804    0.5538 H   0  0  0  0  0  0  0  0  0  0  0  0
   -7.3721    2.5531   -0.1410 H   0  0  0  0  0  0  0  0  0  0  0  0
   -7.0573    4.0493   -1.0215 H   0  0  0  0  0  0  0  0  0  0  0  0
   -4.8681    3.3052   -1.7241 H   0  0  0  0  0  0  0  0  0  0  0  0
   -5.9973    1.9875   -2.0533 H   0  0  0  0  0  0  0  0  0  0  0  0
    2.7624   -0.7567   -2.8552 H   0  0  0  0  0  0  0  0  0  0  0  0
    2.5138    0.6621    0.5737 H   0  0  0  0  0  0  0  0  0  0  0  0
    4.3512    1.7564    1.7115 H   0  0  0  0  0  0  0  0  0  0  0  0
    6.5322    2.0295    0.6152 H   0  0  0  0  0  0  0  0  0  0  0  0
    8.0004    1.7123   -1.2831 H   0  0  0  0  0  0  0  0  0  0  0  0
    8.4330    0.8807   -3.5530 H   0  0  0  0  0  0  0  0  0  0  0  0
    6.6347   -0.2611   -4.8179 H   0  0  0  0  0  0  0  0  0  0  0  0
    4.4375   -0.5603   -3.8444 H   0  0  0  0  0  0  0  0  0  0  0  0
  1  2  2  0
  2  3  1  0
  3  4  1  0
  4  5  1  0
  5  6  2  0
  6  7  1  0
  7  8  2  0
  8  9  1  0
  9 10  2  0
 10 11  1  0
 11 12  2  0
 12 13  1  0
 13 14  2  0
 13 15  1  0
 15 16  1  0
 16 17  2  0
 17 18  1  0
 18 19  2  0
 19 20  1  0
 20 21  2  0
 10 22  1  0
 22 23  1  0
 23 24  1  0
 24 25  1  0
  2 26  1  0
 26 27  1  0
 27 28  2  0
 28 29  1  0
 29 30  2  0
 30 31  1  0
 31 32  2  0
 32 33  1  0
 33 34  2  0
 34 35  1  0
 35 36  2  0
 15  5  1  0
 21 16  1  0
 36 27  1  0
 12  7  1  0
 36 31  1  0
 25  9  1  0
  3 37  1  0
  3 38  1  0
 11 39  1  0
 17 40  1  0
 18 41  1  0
 19 42  1  0
 20 43  1  0
 21 44  1  0
 22 45  1  0
 22 46  1  0
 23 47  1  0
 23 48  1  0
 24 49  1  0
 24 50  1  0
 25 51  1  0
 25 52  1  0
 26 53  1  0
 28 54  1  0
 29 55  1  0
 30 56  1  0
 32 57  1  0
 33 58  1  0
 34 59  1  0
 35 60  1  0
M  END
$$$$
