
     RDKit          3D

 42 44  0  0  0  0  0  0  0  0999 V2000
    1.5358    3.9378    2.0946 C   0  0  0  0  0  0  0  0  0  0  0  0
   -0.0731    3.8200    1.2700 S   0  0  0  0  0  0  0  0  0  0  0  0
   -0.0202    2.1260    0.6849 C   0  0  0  0  0  0  0  0  0  0  0  0
    1.2106    1.6041    0.5124 N   0  0  0  0  0  0  0  0  0  0  0  0
    1.2870    0.3649    0.0031 C   0  0  0  0  0  0  0  0  0  0  0  0
    2.6278   -0.2239   -0.1892 C   0  0  0  0  0  0  0  0  0  0  0  0
    3.7998    0.5097    0.0815 C   0  0  0  0  0  0  0  0  0  0  0  0
    5.0706   -0.0463   -0.0996 C   0  0  0  0  0  0  0  0  0  0  0  0
    5.2002   -1.3538   -0.5568 C   0  0  0  0  0  0  0  0  0  0  0  0
    4.0619   -2.1045   -0.8327 C   0  0  0  0  0  0  0  0  0  0  0  0
    2.7928   -1.5448   -0.6508 C   0  0  0  0  0  0  0  0  0  0  0  0
    0.2184   -0.3730   -0.3496 N   0  0  0  0  0  0  0  0  0  0  0  0
   -1.0107    0.1495   -0.1697 C   0  0  0  0  0  0  0  0  0  0  0  0
   -2.1325   -0.6364   -0.5277 N   0  0  0  0  0  0  0  0  0  0  0  0
   -2.7765   -1.2040    0.6932 C   0  0  0  0  0  0  0  0  0  0  0  0
   -3.5441   -2.4920    0.3550 C   0  0  0  0  0  0  0  0  0  0  0  0
   -2.7011   -3.5347   -0.1593 O   0  0  0  0  0  0  0  0  0  0  0  0
   -1.5787   -3.0390   -0.9088 C   0  0  0  0  0  0  0  0  0  0  0  0
   -1.8420   -1.6710   -1.5536 C   0  0  0  0  0  0  0  0  0  0  0  0
   -1.1666    1.4265    0.3551 C   0  0  0  0  0  0  0  0  0  0  0  0
   -2.4997    2.0168    0.5059 C   0  0  0  0  0  0  0  0  0  0  0  0
   -3.2006    2.4722   -0.7446 C   0  0  0  0  0  0  0  0  0  0  0  0
   -3.0020    2.0976    1.6231 O   0  0  0  0  0  0  0  0  0  0  0  0
    1.6087    4.9088    2.5920 H   0  0  0  0  0  0  0  0  0  0  0  0
    2.3511    3.8641    1.3697 H   0  0  0  0  0  0  0  0  0  0  0  0
    1.6421    3.1550    2.8508 H   0  0  0  0  0  0  0  0  0  0  0  0
    3.7306    1.5358    0.4394 H   0  0  0  0  0  0  0  0  0  0  0  0
    5.9566    0.5450    0.1175 H   0  0  0  0  0  0  0  0  0  0  0  0
    6.1869   -1.7873   -0.6973 H   0  0  0  0  0  0  0  0  0  0  0  0
    4.1573   -3.1271   -1.1889 H   0  0  0  0  0  0  0  0  0  0  0  0
    1.9209   -2.1576   -0.8729 H   0  0  0  0  0  0  0  0  0  0  0  0
   -3.4779   -0.4779    1.1150 H   0  0  0  0  0  0  0  0  0  0  0  0
   -2.0199   -1.4424    1.4532 H   0  0  0  0  0  0  0  0  0  0  0  0
   -4.0374   -2.8826    1.2507 H   0  0  0  0  0  0  0  0  0  0  0  0
   -4.3254   -2.2927   -0.3877 H   0  0  0  0  0  0  0  0  0  0  0  0
   -1.3519   -3.7810   -1.6809 H   0  0  0  0  0  0  0  0  0  0  0  0
   -0.7189   -2.9988   -0.2311 H   0  0  0  0  0  0  0  0  0  0  0  0
   -2.7333   -1.7468   -2.1893 H   0  0  0  0  0  0  0  0  0  0  0  0
   -1.0209   -1.3825   -2.2209 H   0  0  0  0  0  0  0  0  0  0  0  0
   -3.5128    3.5125   -0.6198 H   0  0  0  0  0  0  0  0  0  0  0  0
   -4.0730    1.8378   -0.9212 H   0  0  0  0  0  0  0  0  0  0  0  0
   -2.5396    2.4161   -1.6142 H   0  0  0  0  0  0  0  0  0  0  0  0
  1  2  1  0
  2  3  1  0
  3  4  2  0
  4  5  1  0
  5  6  1  0
  6  7  2  0
  7  8  1  0
  8  9  2  0
  9 10  1  0
 10 11  2  0
  5 12  2  0
 12 13  1  0
 13 14  1  0
 14 15  1  0
 15 16  1  0
 16 17  1  0
 17 18  1  0
 18 19  1  0
 13 20  2  0
 20 21  1  0
 21 22  1  0
 21 23  2  0
 20  3  1  0
 11  6  1  0
 19 14  1  0
  1 24  1  0
  1 25  1  0
  1 26  1  0
  7 27  1  0
  8 28  1  0
  9 29  1  0
 10 30  1  0
 11 31  1  0
 15 32  1  0
 15 33  1  0
 16 34  1  0
 16 35  1  0
 18 36  1  0
 18 37  1  0
 19 38  1  0
 19 39  1  0
 22 40  1  0
 22 41  1  0
 22 42  1  0
M  END
$$$$
