
     RDKit          3D

 50 52  0  0  0  0  0  0  0  0999 V2000
    7.2437    1.8299   -1.1346 O   0  0  0  0  0  0  0  0  0  0  0  0
    6.4656    1.2166   -1.8403 C   0  0  0  0  0  0  0  0  0  0  0  0
    6.7238    0.9839   -3.1375 O   0  0  0  0  0  0  0  0  0  0  0  0
    5.1674    0.6508   -1.4044 C   0  0  0  0  0  0  0  0  0  0  0  0
    4.7498    0.8979   -0.0910 C   0  0  0  0  0  0  0  0  0  0  0  0
    3.5397    0.3759    0.3628 C   0  0  0  0  0  0  0  0  0  0  0  0
    3.0953    0.6776    1.6805 N   0  0  0  0  0  0  0  0  0  0  0  0
    2.0628    2.0068    1.8780 S   0  0  0  0  0  6  0  0  0  0  0  0
    2.3647    2.9993    0.8706 O   0  0  0  0  0  0  0  0  0  0  0  0
    2.0814    2.3278    3.2882 O   0  0  0  0  0  0  0  0  0  0  0  0
    0.4706    1.3056    1.5297 C   0  0  0  0  0  0  0  0  0  0  0  0
   -0.2144    1.6676    0.3663 C   0  0  0  0  0  0  0  0  0  0  0  0
   -1.4661    1.1031    0.0903 C   0  0  0  0  0  0  0  0  0  0  0  0
   -2.0613    0.1797    0.9664 C   0  0  0  0  0  0  0  0  0  0  0  0
   -3.2984   -0.4106    0.6748 N   0  0  0  0  0  0  0  0  0  0  0  0
   -3.1815   -1.5983   -0.1916 C   0  0  0  0  0  0  0  0  0  0  0  0
   -4.5703   -2.1215   -0.5428 C   0  0  0  0  0  0  0  0  0  0  0  0
   -5.3849   -1.0814   -1.3136 C   0  0  0  0  0  0  0  0  0  0  0  0
   -4.9398    0.3528   -1.0245 C   0  0  0  0  0  0  0  0  0  0  0  0
   -4.4196    0.5080    0.4013 C   0  0  0  0  0  0  0  0  0  0  0  0
   -1.3405   -0.1437    2.1308 C   0  0  0  0  0  0  0  0  0  0  0  0
   -1.8990   -1.0799    3.0807 N   0  0  0  0  0  4  0  0  0  0  0  0
   -2.6360   -0.6200    3.9636 O   0  0  0  0  0  0  0  0  0  0  0  0
   -1.5335   -2.2605    2.9798 O   0  0  0  0  0  1  0  0  0  0  0  0
   -0.0886    0.4043    2.4335 C   0  0  0  0  0  0  0  0  0  0  0  0
    2.7324   -0.3786   -0.4867 C   0  0  0  0  0  0  0  0  0  0  0  0
    3.1441   -0.6252   -1.8018 C   0  0  0  0  0  0  0  0  0  0  0  0
    2.3221   -1.4254   -2.7398 C   0  0  0  0  0  0  0  0  0  0  0  0
    2.6272   -1.7203   -3.8795 O   0  0  0  0  0  0  0  0  0  0  0  0
    1.1518   -1.8153   -2.2056 O   0  0  0  0  0  0  0  0  0  0  0  0
    4.3639   -0.1120   -2.2605 C   0  0  0  0  0  0  0  0  0  0  0  0
    7.5931    1.4109   -3.2918 H   0  0  0  0  0  0  0  0  0  0  0  0
    5.3652    1.5100    0.5656 H   0  0  0  0  0  0  0  0  0  0  0  0
    3.7917    0.6628    2.4277 H   0  0  0  0  0  0  0  0  0  0  0  0
    0.2167    2.3795   -0.3358 H   0  0  0  0  0  0  0  0  0  0  0  0
   -1.9714    1.3855   -0.8307 H   0  0  0  0  0  0  0  0  0  0  0  0
   -2.6330   -1.3609   -1.1127 H   0  0  0  0  0  0  0  0  0  0  0  0
   -2.6256   -2.3862    0.3299 H   0  0  0  0  0  0  0  0  0  0  0  0
   -5.1030   -2.3806    0.3814 H   0  0  0  0  0  0  0  0  0  0  0  0
   -4.4947   -3.0428   -1.1311 H   0  0  0  0  0  0  0  0  0  0  0  0
   -6.4450   -1.2029   -1.0605 H   0  0  0  0  0  0  0  0  0  0  0  0
   -5.3035   -1.2663   -2.3914 H   0  0  0  0  0  0  0  0  0  0  0  0
   -5.7749    1.0400   -1.2007 H   0  0  0  0  0  0  0  0  0  0  0  0
   -4.1509    0.6321   -1.7340 H   0  0  0  0  0  0  0  0  0  0  0  0
   -5.2252    0.2703    1.1072 H   0  0  0  0  0  0  0  0  0  0  0  0
   -4.1518    1.5552    0.5892 H   0  0  0  0  0  0  0  0  0  0  0  0
    0.4332    0.1326    3.3483 H   0  0  0  0  0  0  0  0  0  0  0  0
    1.7942   -0.7885   -0.1227 H   0  0  0  0  0  0  0  0  0  0  0  0
    0.7317   -2.3372   -2.9222 H   0  0  0  0  0  0  0  0  0  0  0  0
    4.6809   -0.3084   -3.2838 H   0  0  0  0  0  0  0  0  0  0  0  0
  1  2  2  0
  2  3  1  0
  2  4  1  0
  4  5  2  0
  5  6  1  0
  6  7  1  0
  7  8  1  0
  8  9  2  0
  8 10  2  0
  8 11  1  0
 11 12  2  0
 12 13  1  0
 13 14  2  0
 14 15  1  0
 15 16  1  0
 16 17  1  0
 17 18  1  0
 18 19  1  0
 19 20  1  0
 14 21  1  0
 21 22  1  0
 22 23  2  0
 22 24  1  0
 21 25  2  0
  6 26  2  0
 26 27  1  0
 27 28  1  0
 28 29  2  0
 28 30  1  0
 27 31  2  0
 31  4  1  0
 25 11  1  0
 20 15  1  0
  3 32  1  0
  5 33  1  0
  7 34  1  0
 12 35  1  0
 13 36  1  0
 16 37  1  0
 16 38  1  0
 17 39  1  0
 17 40  1  0
 18 41  1  0
 18 42  1  0
 19 43  1  0
 19 44  1  0
 20 45  1  0
 20 46  1  0
 25 47  1  0
 26 48  1  0
 30 49  1  0
 31 50  1  0
M  CHG  2  22   1  24  -1
M  END
$$$$
