
     RDKit          3D

 42 44  0  0  0  0  0  0  0  0999 V2000
    3.8501   -1.0749    4.5031 N   0  0  0  0  0  0  0  0  0  0  0  0
    3.9869   -1.5651    3.4601 C   0  0  0  0  0  0  0  0  0  0  0  0
    4.1352   -2.1751    2.1797 C   0  0  0  0  0  0  0  0  0  0  0  0
    5.2811   -3.0065    2.0070 C   0  0  0  0  0  0  0  0  0  0  0  0
    6.2093   -3.6857    1.8528 N   0  0  0  0  0  0  0  0  0  0  0  0
    3.2324   -1.9964    1.1822 C   0  0  0  0  0  0  0  0  0  0  0  0
    2.0282   -1.1695    1.3319 C   0  0  0  0  0  0  0  0  0  0  0  0
    1.1920   -0.8724    0.3170 C   0  0  0  0  0  0  0  0  0  0  0  0
    0.0082   -0.0526    0.5370 C   0  0  0  0  0  0  0  0  0  0  0  0
   -0.8080    0.4018   -0.4384 C   0  0  0  0  0  0  0  0  0  0  0  0
   -1.9629    1.1733   -0.1960 N   0  0  0  0  0  0  0  0  0  0  0  0
   -3.0314    1.3238   -1.2055 C   0  0  0  0  0  0  0  0  0  0  0  0
   -4.3958    1.4964   -0.5448 C   0  0  0  0  0  0  0  0  0  0  0  0
   -4.4457    2.7443    0.3285 C   0  0  0  0  0  0  0  0  0  0  0  0
   -3.0795    3.0922    0.9121 C   0  0  0  0  0  0  0  0  0  0  0  0
   -2.1964    1.8630    1.0875 C   0  0  0  0  0  0  0  0  0  0  0  0
   -0.4648    0.0930   -1.8906 C   0  0  0  0  0  0  0  0  0  0  0  0
    0.9993   -0.2913   -2.1098 C   0  0  0  0  0  0  0  0  0  0  0  0
    1.4308   -1.3537   -1.0971 C   0  0  0  0  0  0  0  0  0  0  0  0
    2.8966   -1.7444   -1.3152 C   0  0  0  0  0  0  0  0  0  0  0  0
    3.3789   -2.6534   -0.1856 C   0  0  0  0  0  0  0  0  0  0  0  0
    1.8016   -0.7676    2.3200 H   0  0  0  0  0  0  0  0  0  0  0  0
   -0.2257    0.1702    1.5720 H   0  0  0  0  0  0  0  0  0  0  0  0
   -3.0874    0.4360   -1.8442 H   0  0  0  0  0  0  0  0  0  0  0  0
   -2.8041    2.1830   -1.8492 H   0  0  0  0  0  0  0  0  0  0  0  0
   -4.6112    0.6158    0.0735 H   0  0  0  0  0  0  0  0  0  0  0  0
   -5.1827    1.5463   -1.3040 H   0  0  0  0  0  0  0  0  0  0  0  0
   -5.1788    2.5952    1.1327 H   0  0  0  0  0  0  0  0  0  0  0  0
   -4.8044    3.5975   -0.2589 H   0  0  0  0  0  0  0  0  0  0  0  0
   -3.2070    3.6079    1.8700 H   0  0  0  0  0  0  0  0  0  0  0  0
   -2.5755    3.7992    0.2381 H   0  0  0  0  0  0  0  0  0  0  0  0
   -1.2455    2.2046    1.5095 H   0  0  0  0  0  0  0  0  0  0  0  0
   -2.6516    1.1637    1.7990 H   0  0  0  0  0  0  0  0  0  0  0  0
   -0.6772    0.9634   -2.5234 H   0  0  0  0  0  0  0  0  0  0  0  0
   -1.1063   -0.7259   -2.2370 H   0  0  0  0  0  0  0  0  0  0  0  0
    1.1271   -0.6670   -3.1322 H   0  0  0  0  0  0  0  0  0  0  0  0
    1.6293    0.6039   -2.0178 H   0  0  0  0  0  0  0  0  0  0  0  0
    0.8102   -2.2485   -1.2531 H   0  0  0  0  0  0  0  0  0  0  0  0
    3.0033   -2.2641   -2.2754 H   0  0  0  0  0  0  0  0  0  0  0  0
    3.5328   -0.8497   -1.3644 H   0  0  0  0  0  0  0  0  0  0  0  0
    2.7924   -3.5819   -0.1925 H   0  0  0  0  0  0  0  0  0  0  0  0
    4.4164   -2.9290   -0.4015 H   0  0  0  0  0  0  0  0  0  0  0  0
  1  2  3  0
  2  3  1  0
  3  4  1  0
  4  5  3  0
  3  6  2  3
  6  7  1  0
  7  8  2  0
  8  9  1  0
  9 10  2  0
 10 11  1  0
 11 12  1  0
 12 13  1  0
 13 14  1  0
 14 15  1  0
 15 16  1  0
 10 17  1  0
 17 18  1  0
 18 19  1  0
 19 20  1  0
 20 21  1  0
 21  6  1  0
 19  8  1  0
 16 11  1  0
  7 22  1  0
  9 23  1  0
 12 24  1  0
 12 25  1  0
 13 26  1  0
 13 27  1  0
 14 28  1  0
 14 29  1  0
 15 30  1  0
 15 31  1  0
 16 32  1  0
 16 33  1  0
 17 34  1  0
 17 35  1  0
 18 36  1  0
 18 37  1  0
 19 38  1  0
 20 39  1  0
 20 40  1  0
 21 41  1  0
 21 42  1  0
M  END
$$$$
