
     RDKit          3D

 51 54  0  0  0  0  0  0  0  0999 V2000
    3.8148    1.0281    2.3301 C   0  0  0  0  0  0  0  0  0  0  0  0
    2.9474    1.1779    1.0699 C   0  0  0  0  0  0  0  0  0  0  0  0
    1.5791    1.7835    1.4462 C   0  0  0  0  0  0  0  0  0  0  0  0
    0.7352    0.5519    1.5471 C   0  0  0  0  0  0  0  0  0  0  0  0
   -0.5454    0.4528    2.0708 C   0  0  0  0  0  0  0  0  0  0  0  0
   -1.1863   -0.7862    1.9879 C   0  0  0  0  0  0  0  0  0  0  0  0
   -2.8286   -0.9786    2.6394 S   0  0  0  0  0  6  0  0  0  0  0  0
   -3.1899    0.2477    3.3155 O   0  0  0  0  0  0  0  0  0  0  0  0
   -2.8896   -2.2632    3.2988 O   0  0  0  0  0  0  0  0  0  0  0  0
   -3.7583   -1.0964    1.2584 N   0  0  0  0  0  0  0  0  0  0  0  0
   -3.7698    0.0058    0.3066 C   0  0  0  0  0  0  0  0  0  0  0  0
   -4.8794   -0.1684   -0.7008 C   0  0  0  0  0  0  0  0  0  0  0  0
   -6.2152    0.0157   -0.3140 C   0  0  0  0  0  0  0  0  0  0  0  0
   -7.2494   -0.1581   -1.2344 C   0  0  0  0  0  0  0  0  0  0  0  0
   -6.9598   -0.5220   -2.5479 C   0  0  0  0  0  0  0  0  0  0  0  0
   -5.6368   -0.7157   -2.9417 C   0  0  0  0  0  0  0  0  0  0  0  0
   -4.6001   -0.5429   -2.0227 C   0  0  0  0  0  0  0  0  0  0  0  0
   -0.5542   -1.8942    1.3983 C   0  0  0  0  0  0  0  0  0  0  0  0
    0.7325   -1.7671    0.8625 C   0  0  0  0  0  0  0  0  0  0  0  0
    1.3750   -0.5414    0.9506 C   0  0  0  0  0  0  0  0  0  0  0  0
    2.6572   -0.1556    0.4837 N   0  0  0  0  0  0  0  0  0  0  0  0
    3.5022   -0.9659   -0.2742 C   0  0  0  0  0  0  0  0  0  0  0  0
    3.3026   -2.1891   -0.3760 O   0  0  0  0  0  0  0  0  0  0  0  0
    4.6543   -0.3591   -1.0940 C   0  0  0  0  0  0  0  0  0  0  0  0
    5.7853    0.5349   -0.5416 C   0  0  0  0  0  0  0  0  0  0  0  0
    5.8200    1.2300   -1.9193 C   0  0  0  0  0  0  0  0  0  0  0  0
    4.3644    0.7637   -2.1218 C   0  0  0  0  0  0  0  0  0  0  0  0
    4.0996    2.0120    2.7169 H   0  0  0  0  0  0  0  0  0  0  0  0
    4.7270    0.4581    2.1337 H   0  0  0  0  0  0  0  0  0  0  0  0
    3.2801    0.4966    3.1259 H   0  0  0  0  0  0  0  0  0  0  0  0
    3.4554    1.8203    0.3494 H   0  0  0  0  0  0  0  0  0  0  0  0
    1.6037    2.3605    2.3751 H   0  0  0  0  0  0  0  0  0  0  0  0
    1.1998    2.4118    0.6325 H   0  0  0  0  0  0  0  0  0  0  0  0
   -1.0314    1.3132    2.5222 H   0  0  0  0  0  0  0  0  0  0  0  0
   -3.9009   -2.0409    0.9075 H   0  0  0  0  0  0  0  0  0  0  0  0
   -3.9054    0.9654    0.8177 H   0  0  0  0  0  0  0  0  0  0  0  0
   -2.8097    0.0465   -0.2195 H   0  0  0  0  0  0  0  0  0  0  0  0
   -6.4530    0.2900    0.7125 H   0  0  0  0  0  0  0  0  0  0  0  0
   -8.2812   -0.0131   -0.9246 H   0  0  0  0  0  0  0  0  0  0  0  0
   -7.7661   -0.6584   -3.2640 H   0  0  0  0  0  0  0  0  0  0  0  0
   -5.4131   -1.0040   -3.9658 H   0  0  0  0  0  0  0  0  0  0  0  0
   -3.5746   -0.7035   -2.3479 H   0  0  0  0  0  0  0  0  0  0  0  0
   -1.0564   -2.8588    1.3560 H   0  0  0  0  0  0  0  0  0  0  0  0
    1.2029   -2.6330    0.4088 H   0  0  0  0  0  0  0  0  0  0  0  0
    5.1316   -1.2012   -1.6320 H   0  0  0  0  0  0  0  0  0  0  0  0
    6.7042    0.0083   -0.2672 H   0  0  0  0  0  0  0  0  0  0  0  0
    5.5399    1.2293    0.2608 H   0  0  0  0  0  0  0  0  0  0  0  0
    6.5291    0.7784   -2.6226 H   0  0  0  0  0  0  0  0  0  0  0  0
    5.9737    2.3119   -1.9026 H   0  0  0  0  0  0  0  0  0  0  0  0
    4.1239    0.4226   -3.1330 H   0  0  0  0  0  0  0  0  0  0  0  0
    3.6136    1.4997   -1.8195 H   0  0  0  0  0  0  0  0  0  0  0  0
  1  2  1  0
  2  3  1  0
  3  4  1  0
  4  5  2  0
  5  6  1  0
  6  7  1  0
  7  8  2  0
  7  9  2  0
  7 10  1  0
 10 11  1  0
 11 12  1  0
 12 13  2  0
 13 14  1  0
 14 15  2  0
 15 16  1  0
 16 17  2  0
  6 18  2  0
 18 19  1  0
 19 20  2  0
 20 21  1  0
 21 22  1  0
 22 23  2  0
 22 24  1  0
 24 25  1  0
 25 26  1  0
 26 27  1  0
 21  2  1  0
 27 24  1  0
 20  4  1  0
 17 12  1  0
  1 28  1  0
  1 29  1  0
  1 30  1  0
  2 31  1  0
  3 32  1  0
  3 33  1  0
  5 34  1  0
 10 35  1  0
 11 36  1  0
 11 37  1  0
 13 38  1  0
 14 39  1  0
 15 40  1  0
 16 41  1  0
 17 42  1  0
 18 43  1  0
 19 44  1  0
 24 45  1  0
 25 46  1  0
 25 47  1  0
 26 48  1  0
 26 49  1  0
 27 50  1  0
 27 51  1  0
M  END
$$$$
