
     RDKit          3D

 73 76  0  0  0  0  0  0  0  0999 V2000
    6.8633    2.3169   -0.3205 C   0  0  0  0  0  0  0  0  0  0  0  0
    5.5460    2.0408    0.4029 C   0  0  0  0  0  0  0  0  0  0  0  0
    4.4128    2.8820   -0.1996 C   0  0  0  0  0  0  0  0  0  0  0  0
    3.0702    2.5278    0.4535 C   0  0  0  0  0  0  0  0  0  0  0  0
    1.9287    3.3041   -0.2014 C   0  0  0  0  0  0  0  0  0  0  0  0
    2.8185    1.0123    0.3703 C   0  0  0  0  0  0  0  0  0  0  0  0
    3.9168    0.2793    1.0044 N   0  0  0  0  0  0  0  0  0  0  0  0
    3.6488   -1.1436    1.2402 C   0  0  0  0  0  0  0  0  0  0  0  0
    3.6320   -2.1153    0.0469 C   0  0  0  0  0  0  0  0  0  0  0  0
    2.3024   -2.1982   -0.6946 C   0  0  0  0  0  0  0  0  0  0  0  0
    1.2755   -2.8471    0.1003 N   0  0  0  0  0  0  0  0  0  0  0  0
   -0.0602   -2.5274   -0.0675 C   0  0  0  0  0  0  0  0  0  0  0  0
   -0.4398   -1.5734   -0.7447 O   0  0  0  0  0  0  0  0  0  0  0  0
   -1.0204   -3.4313    0.7205 C   0  0  0  0  0  0  0  0  0  0  0  0
   -2.2578   -3.6539   -0.0315 N   0  0  0  0  0  0  0  0  0  0  0  0
   -2.2313   -4.7141   -0.9403 C   0  0  0  0  0  0  0  0  0  0  0  0
   -1.2640   -5.4830   -1.0165 O   0  0  0  0  0  0  0  0  0  0  0  0
   -3.3624   -4.8404   -1.9337 C   0  0  0  0  0  0  0  0  0  0  0  0
   -4.9728   -4.6862   -1.1542 S   0  0  0  0  0  0  0  0  0  0  0  0
   -4.6658   -3.1368   -0.3359 C   0  0  0  0  0  0  0  0  0  0  0  0
   -5.7700   -2.2950   -0.1242 C   0  0  0  0  0  0  0  0  0  0  0  0
   -5.6186   -1.0802    0.5405 C   0  0  0  0  0  0  0  0  0  0  0  0
   -4.3558   -0.7132    0.9998 C   0  0  0  0  0  0  0  0  0  0  0  0
   -4.1448    0.8070    1.9068 S   0  0  0  0  0  6  0  0  0  0  0  0
   -3.1400    0.5634    2.9205 O   0  0  0  0  0  0  0  0  0  0  0  0
   -5.4682    1.2728    2.2654 O   0  0  0  0  0  0  0  0  0  0  0  0
   -3.5100    1.8669    0.7496 N   0  0  0  0  0  0  0  0  0  0  0  0
   -2.0724    1.7602    0.3939 C   0  0  0  0  0  0  0  0  0  0  0  0
   -1.8699    1.7412   -1.1175 C   0  0  0  0  0  0  0  0  0  0  0  0
   -2.4442    3.0004   -1.7663 C   0  0  0  0  0  0  0  0  0  0  0  0
   -3.7513    3.4537   -1.1098 C   0  0  0  0  0  0  0  0  0  0  0  0
   -4.4207    2.3333   -0.3201 C   0  0  0  0  0  0  0  0  0  0  0  0
   -3.2590   -1.5658    0.8288 C   0  0  0  0  0  0  0  0  0  0  0  0
   -3.3867   -2.7836    0.1416 C   0  0  0  0  0  0  0  0  0  0  0  0
    5.2007    0.5421    0.3494 C   0  0  0  0  0  0  0  0  0  0  0  0
    7.1171    3.3799   -0.2771 H   0  0  0  0  0  0  0  0  0  0  0  0
    6.8025    2.0237   -1.3729 H   0  0  0  0  0  0  0  0  0  0  0  0
    7.6846    1.7562    0.1404 H   0  0  0  0  0  0  0  0  0  0  0  0
    5.6722    2.3328    1.4550 H   0  0  0  0  0  0  0  0  0  0  0  0
    4.6267    3.9484   -0.0636 H   0  0  0  0  0  0  0  0  0  0  0  0
    4.3560    2.7054   -1.2817 H   0  0  0  0  0  0  0  0  0  0  0  0
    3.1116    2.8203    1.5126 H   0  0  0  0  0  0  0  0  0  0  0  0
    1.8032    3.0216   -1.2517 H   0  0  0  0  0  0  0  0  0  0  0  0
    2.1162    4.3814   -0.1599 H   0  0  0  0  0  0  0  0  0  0  0  0
    0.9839    3.1101    0.3152 H   0  0  0  0  0  0  0  0  0  0  0  0
    1.8701    0.7857    0.8737 H   0  0  0  0  0  0  0  0  0  0  0  0
    2.7152    0.7238   -0.6829 H   0  0  0  0  0  0  0  0  0  0  0  0
    4.4273   -1.4956    1.9298 H   0  0  0  0  0  0  0  0  0  0  0  0
    2.7171   -1.2396    1.8113 H   0  0  0  0  0  0  0  0  0  0  0  0
    4.4249   -1.8664   -0.6644 H   0  0  0  0  0  0  0  0  0  0  0  0
    3.8815   -3.1140    0.4252 H   0  0  0  0  0  0  0  0  0  0  0  0
    2.4282   -2.8199   -1.5887 H   0  0  0  0  0  0  0  0  0  0  0  0
    1.9567   -1.2227   -1.0391 H   0  0  0  0  0  0  0  0  0  0  0  0
    1.4845   -3.7813    0.4347 H   0  0  0  0  0  0  0  0  0  0  0  0
   -1.2173   -2.9960    1.7051 H   0  0  0  0  0  0  0  0  0  0  0  0
   -0.5352   -4.3959    0.9130 H   0  0  0  0  0  0  0  0  0  0  0  0
   -3.2354   -4.0793   -2.7122 H   0  0  0  0  0  0  0  0  0  0  0  0
   -3.3072   -5.8265   -2.4069 H   0  0  0  0  0  0  0  0  0  0  0  0
   -6.7605   -2.5886   -0.4704 H   0  0  0  0  0  0  0  0  0  0  0  0
   -6.4841   -0.4420    0.7047 H   0  0  0  0  0  0  0  0  0  0  0  0
   -1.5601    2.6279    0.8296 H   0  0  0  0  0  0  0  0  0  0  0  0
   -1.6068    0.8731    0.8319 H   0  0  0  0  0  0  0  0  0  0  0  0
   -0.8033    1.6564   -1.3573 H   0  0  0  0  0  0  0  0  0  0  0  0
   -2.3613    0.8559   -1.5442 H   0  0  0  0  0  0  0  0  0  0  0  0
   -2.5993    2.8176   -2.8388 H   0  0  0  0  0  0  0  0  0  0  0  0
   -1.7141    3.8191   -1.6942 H   0  0  0  0  0  0  0  0  0  0  0  0
   -3.5352    4.2901   -0.4315 H   0  0  0  0  0  0  0  0  0  0  0  0
   -4.4353    3.8413   -1.8730 H   0  0  0  0  0  0  0  0  0  0  0  0
   -5.3434    2.7238    0.1268 H   0  0  0  0  0  0  0  0  0  0  0  0
   -4.6858    1.5051   -0.9875 H   0  0  0  0  0  0  0  0  0  0  0  0
   -2.3048   -1.2401    1.2292 H   0  0  0  0  0  0  0  0  0  0  0  0
    5.9979   -0.0151    0.8572 H   0  0  0  0  0  0  0  0  0  0  0  0
    5.1820    0.2076   -0.6954 H   0  0  0  0  0  0  0  0  0  0  0  0
  1  2  1  0
  2  3  1  0
  3  4  1  0
  4  5  1  0
  4  6  1  0
  6  7  1  0
  7  8  1  0
  8  9  1  0
  9 10  1  0
 10 11  1  0
 11 12  1  0
 12 13  2  0
 12 14  1  0
 14 15  1  0
 15 16  1  0
 16 17  2  0
 16 18  1  0
 18 19  1  0
 19 20  1  0
 20 21  2  0
 21 22  1  0
 22 23  2  0
 23 24  1  0
 24 25  2  0
 24 26  2  0
 24 27  1  0
 27 28  1  0
 28 29  1  0
 29 30  1  0
 30 31  1  0
 31 32  1  0
 23 33  1  0
 33 34  2  0
  7 35  1  0
 35  2  1  0
 34 15  1  0
 34 20  1  0
 32 27  1  0
  1 36  1  0
  1 37  1  0
  1 38  1  0
  2 39  1  0
  3 40  1  0
  3 41  1  0
  4 42  1  0
  5 43  1  0
  5 44  1  0
  5 45  1  0
  6 46  1  0
  6 47  1  0
  8 48  1  0
  8 49  1  0
  9 50  1  0
  9 51  1  0
 10 52  1  0
 10 53  1  0
 11 54  1  0
 14 55  1  0
 14 56  1  0
 18 57  1  0
 18 58  1  0
 21 59  1  0
 22 60  1  0
 28 61  1  0
 28 62  1  0
 29 63  1  0
 29 64  1  0
 30 65  1  0
 30 66  1  0
 31 67  1  0
 31 68  1  0
 32 69  1  0
 32 70  1  0
 33 71  1  0
 35 72  1  0
 35 73  1  0
M  END
$$$$
