
     RDKit          3D

 56 60  0  0  0  0  0  0  0  0999 V2000
    5.3110    2.3887   -2.3597 C   0  0  0  0  0  0  0  0  0  0  0  0
    5.1252    0.9725   -1.9613 C   0  0  0  0  0  0  0  0  0  0  0  0
    4.9574    0.6536   -0.6717 N   0  0  0  0  0  0  0  0  0  0  0  0
    4.7976   -0.6890   -0.6740 N   0  0  0  0  0  0  0  0  0  0  0  0
    4.5942   -1.3709    0.6016 C   0  0  0  0  0  0  0  0  0  0  0  0
    3.1640   -1.8173    0.7892 C   0  0  0  0  0  0  0  0  0  0  0  0
    2.8457   -3.1808    0.8767 C   0  0  0  0  0  0  0  0  0  0  0  0
    1.5245   -3.5926    1.0631 C   0  0  0  0  0  0  0  0  0  0  0  0
    0.5031   -2.6474    1.1628 C   0  0  0  0  0  0  0  0  0  0  0  0
    0.8032   -1.2833    1.0724 C   0  0  0  0  0  0  0  0  0  0  0  0
   -0.2574   -0.2456    1.1882 C   0  0  0  0  0  0  0  0  0  0  0  0
    0.0033    0.8304    1.7102 O   0  0  0  0  0  0  0  0  0  0  0  0
   -1.4829   -0.5855    0.6511 N   0  0  0  0  0  0  0  0  0  0  0  0
   -2.6349    0.3207    0.5788 C   0  0  0  0  0  0  0  0  0  0  0  0
   -3.0817    0.8045    1.9819 C   0  0  0  0  0  0  0  0  0  0  0  0
   -4.3218    1.7097    1.8737 C   0  0  0  0  0  0  0  0  0  0  0  0
   -5.4745    0.9192    1.2359 C   0  0  0  0  0  0  0  0  0  0  0  0
   -5.0684    0.4416   -0.1665 C   0  0  0  0  0  0  0  0  0  0  0  0
   -4.7356    1.6593   -1.0428 C   0  0  0  0  0  0  0  0  0  0  0  0
   -3.5785    2.4550   -0.4184 C   0  0  0  0  0  0  0  0  0  0  0  0
   -3.9868    2.9225    0.9889 C   0  0  0  0  0  0  0  0  0  0  0  0
   -2.3373    1.5511   -0.3126 C   0  0  0  0  0  0  0  0  0  0  0  0
   -3.8240   -0.4531   -0.0535 C   0  0  0  0  0  0  0  0  0  0  0  0
    2.1309   -0.8721    0.9006 C   0  0  0  0  0  0  0  0  0  0  0  0
    4.8986   -1.2479   -1.9289 C   0  0  0  0  0  0  0  0  0  0  0  0
    4.7780   -2.7011   -2.1981 C   0  0  0  0  0  0  0  0  0  0  0  0
    5.0949   -0.1785   -2.7717 C   0  0  0  0  0  0  0  0  0  0  0  0
    5.2895   -0.1981   -4.6352 Br  0  0  0  0  0  0  0  0  0  0  0  0
    5.3000    3.0553   -1.4916 H   0  0  0  0  0  0  0  0  0  0  0  0
    6.2693    2.5209   -2.8716 H   0  0  0  0  0  0  0  0  0  0  0  0
    4.5099    2.7046   -3.0351 H   0  0  0  0  0  0  0  0  0  0  0  0
    4.8817   -0.6860    1.4082 H   0  0  0  0  0  0  0  0  0  0  0  0
    5.2927   -2.2145    0.6316 H   0  0  0  0  0  0  0  0  0  0  0  0
    3.6265   -3.9361    0.8077 H   0  0  0  0  0  0  0  0  0  0  0  0
    1.2928   -4.6524    1.1431 H   0  0  0  0  0  0  0  0  0  0  0  0
   -0.5143   -2.9841    1.3424 H   0  0  0  0  0  0  0  0  0  0  0  0
   -1.5012   -1.3897    0.0378 H   0  0  0  0  0  0  0  0  0  0  0  0
   -2.2815    1.3619    2.4812 H   0  0  0  0  0  0  0  0  0  0  0  0
   -3.3027   -0.0572    2.6250 H   0  0  0  0  0  0  0  0  0  0  0  0
   -4.6170    2.0511    2.8721 H   0  0  0  0  0  0  0  0  0  0  0  0
   -5.7324    0.0588    1.8654 H   0  0  0  0  0  0  0  0  0  0  0  0
   -6.3710    1.5480    1.1732 H   0  0  0  0  0  0  0  0  0  0  0  0
   -5.8916   -0.1241   -0.6169 H   0  0  0  0  0  0  0  0  0  0  0  0
   -4.4625    1.3311   -2.0532 H   0  0  0  0  0  0  0  0  0  0  0  0
   -5.6198    2.3006   -1.1444 H   0  0  0  0  0  0  0  0  0  0  0  0
   -3.3489    3.3245   -1.0443 H   0  0  0  0  0  0  0  0  0  0  0  0
   -3.1736    3.5033    1.4412 H   0  0  0  0  0  0  0  0  0  0  0  0
   -4.8559    3.5888    0.9238 H   0  0  0  0  0  0  0  0  0  0  0  0
   -1.5022    2.1345    0.0931 H   0  0  0  0  0  0  0  0  0  0  0  0
   -2.0261    1.2254   -1.3136 H   0  0  0  0  0  0  0  0  0  0  0  0
   -3.5462   -0.8240   -1.0493 H   0  0  0  0  0  0  0  0  0  0  0  0
   -4.0587   -1.3411    0.5486 H   0  0  0  0  0  0  0  0  0  0  0  0
    2.3581    0.1936    0.8470 H   0  0  0  0  0  0  0  0  0  0  0  0
    5.1428   -2.9543   -3.1983 H   0  0  0  0  0  0  0  0  0  0  0  0
    5.3631   -3.2887   -1.4841 H   0  0  0  0  0  0  0  0  0  0  0  0
    3.7314   -3.0155   -2.1365 H   0  0  0  0  0  0  0  0  0  0  0  0
  1  2  1  0
  2  3  2  0
  3  4  1  0
  4  5  1  0
  5  6  1  0
  6  7  2  0
  7  8  1  0
  8  9  2  0
  9 10  1  0
 10 11  1  0
 11 12  2  0
 11 13  1  0
 13 14  1  0
 14 15  1  0
 15 16  1  0
 16 17  1  0
 17 18  1  0
 18 19  1  0
 19 20  1  0
 20 21  1  0
 20 22  1  0
 18 23  1  0
 10 24  2  0
  4 25  1  0
 25 26  1  0
 25 27  2  0
 27 28  1  0
 27  2  1  0
 24  6  1  0
 22 14  1  0
 23 14  1  0
 21 16  1  0
  1 29  1  0
  1 30  1  0
  1 31  1  0
  5 32  1  0
  5 33  1  0
  7 34  1  0
  8 35  1  0
  9 36  1  0
 13 37  1  0
 15 38  1  0
 15 39  1  0
 16 40  1  0
 17 41  1  0
 17 42  1  0
 18 43  1  0
 19 44  1  0
 19 45  1  0
 20 46  1  0
 21 47  1  0
 21 48  1  0
 22 49  1  0
 22 50  1  0
 23 51  1  0
 23 52  1  0
 24 53  1  0
 26 54  1  0
 26 55  1  0
 26 56  1  0
M  END
$$$$
