
     RDKit          3D

 54 57  0  0  0  0  0  0  0  0999 V2000
    0.0294    0.1316    1.9583 C   0  0  0  0  0  0  0  0  0  0  0  0
   -1.4023    0.6654    2.0705 C   0  0  0  0  0  0  0  0  0  0  0  0
   -1.9103    0.5278    3.5114 C   0  0  0  0  0  0  0  0  0  0  0  0
   -3.2634    1.2155    3.7139 C   0  0  0  0  0  0  0  0  0  0  0  0
   -4.0984    1.3187    2.4390 C   0  0  0  0  0  0  0  0  0  0  0  0
   -3.8723    0.1229    1.5215 C   0  0  0  0  0  0  0  0  0  0  0  0
   -2.3986    0.0074    1.0819 C   0  0  0  0  0  0  0  0  0  0  0  0
   -2.0931   -1.3770    0.7757 N   0  0  0  0  0  0  0  0  0  0  0  0
   -1.9172   -1.5995   -0.5679 C   0  0  0  0  0  0  0  0  0  0  0  0
   -1.6910   -2.6923   -1.0565 O   0  0  0  0  0  0  0  0  0  0  0  0
   -2.0022   -0.4097   -1.2172 N   0  0  0  0  0  0  0  0  0  0  0  0
   -1.8728   -0.2423   -2.6509 C   0  0  0  0  0  0  0  0  0  0  0  0
   -0.4460    0.0555   -3.1198 C   0  0  0  0  0  0  0  0  0  0  0  0
   -0.2138    0.3711   -4.2855 O   0  0  0  0  0  0  0  0  0  0  0  0
    0.5480   -0.0967   -2.1845 N   0  0  0  0  0  0  0  0  0  0  0  0
    1.9572    0.0645   -2.5048 C   0  0  0  0  0  0  0  0  0  0  0  0
    2.5289   -1.2223   -3.1202 C   0  0  0  0  0  0  0  0  0  0  0  0
    2.7197   -2.2998   -2.0565 C   0  0  0  0  0  0  0  0  0  0  0  0
    3.7219   -1.8401   -1.0001 C   0  0  0  0  0  0  0  0  0  0  0  0
    3.4820   -0.4318   -0.5146 C   0  0  0  0  0  0  0  0  0  0  0  0
    4.1159   -0.0030    0.6619 C   0  0  0  0  0  0  0  0  0  0  0  0
    3.9521    1.3036    1.1254 C   0  0  0  0  0  0  0  0  0  0  0  0
    3.1606    2.1997    0.4137 C   0  0  0  0  0  0  0  0  0  0  0  0
    2.5340    1.7899   -0.7625 C   0  0  0  0  0  0  0  0  0  0  0  0
    2.6923    0.4778   -1.2440 C   0  0  0  0  0  0  0  0  0  0  0  0
   -2.2446    0.6071   -0.3353 C   0  0  0  0  0  0  0  0  0  0  0  0
   -2.3545    1.7930   -0.6176 O   0  0  0  0  0  0  0  0  0  0  0  0
    0.3997    0.2180    0.9341 H   0  0  0  0  0  0  0  0  0  0  0  0
    0.0982   -0.9181    2.2633 H   0  0  0  0  0  0  0  0  0  0  0  0
    0.7036    0.7065    2.6015 H   0  0  0  0  0  0  0  0  0  0  0  0
   -1.3481    1.7412    1.8493 H   0  0  0  0  0  0  0  0  0  0  0  0
   -1.1866    0.9490    4.2190 H   0  0  0  0  0  0  0  0  0  0  0  0
   -2.0055   -0.5361    3.7639 H   0  0  0  0  0  0  0  0  0  0  0  0
   -3.8240    0.6649    4.4796 H   0  0  0  0  0  0  0  0  0  0  0  0
   -3.1105    2.2247    4.1148 H   0  0  0  0  0  0  0  0  0  0  0  0
   -3.8405    2.2414    1.9042 H   0  0  0  0  0  0  0  0  0  0  0  0
   -5.1591    1.3987    2.7018 H   0  0  0  0  0  0  0  0  0  0  0  0
   -4.1767   -0.7850    2.0613 H   0  0  0  0  0  0  0  0  0  0  0  0
   -4.5387    0.1995    0.6536 H   0  0  0  0  0  0  0  0  0  0  0  0
   -2.1116   -2.1477    1.4322 H   0  0  0  0  0  0  0  0  0  0  0  0
   -2.2013   -1.1609   -3.1502 H   0  0  0  0  0  0  0  0  0  0  0  0
   -2.5070    0.5941   -2.9650 H   0  0  0  0  0  0  0  0  0  0  0  0
    0.3295   -0.5568   -1.3128 H   0  0  0  0  0  0  0  0  0  0  0  0
    2.0520    0.8625   -3.2527 H   0  0  0  0  0  0  0  0  0  0  0  0
    1.8728   -1.5983   -3.9137 H   0  0  0  0  0  0  0  0  0  0  0  0
    3.5000   -1.0048   -3.5847 H   0  0  0  0  0  0  0  0  0  0  0  0
    3.0761   -3.2272   -2.5194 H   0  0  0  0  0  0  0  0  0  0  0  0
    1.7581   -2.5320   -1.5824 H   0  0  0  0  0  0  0  0  0  0  0  0
    4.7345   -1.8848   -1.4207 H   0  0  0  0  0  0  0  0  0  0  0  0
    3.6856   -2.5354   -0.1528 H   0  0  0  0  0  0  0  0  0  0  0  0
    4.7472   -0.6887    1.2242 H   0  0  0  0  0  0  0  0  0  0  0  0
    4.4476    1.6230    2.0391 H   0  0  0  0  0  0  0  0  0  0  0  0
    3.0317    3.2173    0.7721 H   0  0  0  0  0  0  0  0  0  0  0  0
    1.9115    2.4979   -1.3077 H   0  0  0  0  0  0  0  0  0  0  0  0
  1  2  1  0
  2  3  1  0
  3  4  1  0
  4  5  1  0
  5  6  1  0
  6  7  1  0
  7  8  1  0
  8  9  1  0
  9 10  2  0
  9 11  1  0
 11 12  1  0
 12 13  1  0
 13 14  2  0
 13 15  1  0
 15 16  1  0
 16 17  1  0
 17 18  1  0
 18 19  1  0
 19 20  1  0
 20 21  2  0
 21 22  1  0
 22 23  2  0
 23 24  1  0
 24 25  2  0
 11 26  1  0
 26 27  2  0
  7  2  1  0
 25 16  1  0
 26  7  1  0
 25 20  1  0
  1 28  1  0
  1 29  1  0
  1 30  1  0
  2 31  1  0
  3 32  1  0
  3 33  1  0
  4 34  1  0
  4 35  1  0
  5 36  1  0
  5 37  1  0
  6 38  1  0
  6 39  1  0
  8 40  1  0
 12 41  1  0
 12 42  1  0
 15 43  1  0
 16 44  1  0
 17 45  1  0
 17 46  1  0
 18 47  1  0
 18 48  1  0
 19 49  1  0
 19 50  1  0
 21 51  1  0
 22 52  1  0
 23 53  1  0
 24 54  1  0
M  END
$$$$
