
     RDKit          3D

 72 76  0  0  0  0  0  0  0  0999 V2000
    8.0341    1.4639    0.5421 C   0  0  0  0  0  0  0  0  0  0  0  0
    7.6571    0.7075    1.8209 C   0  0  0  0  0  0  0  0  0  0  0  0
    8.3465   -0.6587    1.9030 C   0  0  0  0  0  0  0  0  0  0  0  0
    8.0885    1.5480    3.0324 C   0  0  0  0  0  0  0  0  0  0  0  0
    6.2180    0.5810    1.9548 O   0  0  0  0  0  0  0  0  0  0  0  0
    5.4988   -0.1077    1.0404 C   0  0  0  0  0  0  0  0  0  0  0  0
    5.9362   -0.6721    0.0512 O   0  0  0  0  0  0  0  0  0  0  0  0
    4.1851   -0.0609    1.3983 N   0  0  0  0  0  0  0  0  0  0  0  0
    3.1307   -0.5998    0.5725 C   0  0  0  0  0  0  0  0  0  0  0  0
    2.6907    0.4008   -0.4943 C   0  0  0  0  0  0  0  0  0  0  0  0
    1.6274   -0.1532   -1.4458 C   0  0  0  0  0  0  0  0  0  0  0  0
    0.3087   -0.5883   -0.7926 C   0  0  0  0  0  0  0  0  0  0  0  0
   -0.4026    0.4968    0.0255 C   0  0  1  0  0  0  0  0  0  0  0  0
   -0.7067    1.6981   -0.8252 N   0  0  0  0  0  0  0  0  0  0  0  0
   -2.1933    1.9198   -0.8639 C   0  0  0  0  0  0  0  0  0  0  0  0
   -2.5638    3.3697   -0.4419 C   0  0  0  0  0  0  0  0  0  0  0  0
   -2.2019    3.9739    0.5571 O   0  0  0  0  0  0  0  0  0  0  0  0
   -3.3682    3.8955   -1.4532 N   0  0  0  0  0  0  0  0  0  0  0  0
   -3.5079    2.9949   -2.5015 C   0  0  0  0  0  0  0  0  0  0  0  0
   -4.1992    3.1965   -3.6777 C   0  0  0  0  0  0  0  0  0  0  0  0
   -4.2032    2.1530   -4.6059 C   0  0  0  0  0  0  0  0  0  0  0  0
   -3.5219    0.9511   -4.3409 C   0  0  0  0  0  0  0  0  0  0  0  0
   -2.8251    0.7707   -3.1422 C   0  0  0  0  0  0  0  0  0  0  0  0
   -2.8272    1.8052   -2.2198 C   0  0  0  0  0  0  0  0  0  0  0  0
   -2.7502    0.8783    0.0088 C   0  0  0  0  0  0  0  0  0  0  0  0
   -1.7291    0.0726    0.5202 C   0  0  0  0  0  0  0  0  0  0  0  0
   -2.2864   -0.8637    1.3507 C   0  0  0  0  0  0  0  0  0  0  0  0
   -1.7554   -1.8297    2.0890 O   0  0  0  0  0  0  0  0  0  0  0  0
   -3.6565   -0.6523    1.3143 N   0  0  0  0  0  0  0  0  0  0  0  0
   -4.6418   -1.4292    2.0557 C   0  0  0  0  0  0  0  0  0  0  0  0
   -5.1344   -2.6144    1.2608 C   0  0  0  0  0  0  0  0  0  0  0  0
   -4.4961   -3.8587    1.3655 C   0  0  0  0  0  0  0  0  0  0  0  0
   -4.9476   -4.9522    0.6248 C   0  0  0  0  0  0  0  0  0  0  0  0
   -6.0381   -4.8129   -0.2315 C   0  0  0  0  0  0  0  0  0  0  0  0
   -6.6756   -3.5796   -0.3514 C   0  0  0  0  0  0  0  0  0  0  0  0
   -6.2254   -2.4853    0.3889 C   0  0  0  0  0  0  0  0  0  0  0  0
   -3.9491    0.4322    0.5020 C   0  0  0  0  0  0  0  0  0  0  0  0
   -5.1977    0.8431    0.3185 O   0  0  0  0  0  0  0  0  0  0  0  0
    7.8176    0.8798   -0.3572 H   0  0  0  0  0  0  0  0  0  0  0  0
    7.4622    2.3946    0.4577 H   0  0  0  0  0  0  0  0  0  0  0  0
    9.1019    1.7078    0.5236 H   0  0  0  0  0  0  0  0  0  0  0  0
    8.1337   -1.2773    1.0256 H   0  0  0  0  0  0  0  0  0  0  0  0
    7.9947   -1.2203    2.7759 H   0  0  0  0  0  0  0  0  0  0  0  0
    9.4346   -0.5523    1.9720 H   0  0  0  0  0  0  0  0  0  0  0  0
    7.5846    2.5218    3.0306 H   0  0  0  0  0  0  0  0  0  0  0  0
    7.8045    1.0552    3.9699 H   0  0  0  0  0  0  0  0  0  0  0  0
    9.1702    1.7182    3.0455 H   0  0  0  0  0  0  0  0  0  0  0  0
    3.9712    0.5228    2.1946 H   0  0  0  0  0  0  0  0  0  0  0  0
    2.3030   -0.8469    1.2439 H   0  0  0  0  0  0  0  0  0  0  0  0
    3.4829   -1.5256    0.1043 H   0  0  0  0  0  0  0  0  0  0  0  0
    2.3330    1.3207   -0.0168 H   0  0  0  0  0  0  0  0  0  0  0  0
    3.5617    0.6974   -1.0930 H   0  0  0  0  0  0  0  0  0  0  0  0
    1.4193    0.6029   -2.2127 H   0  0  0  0  0  0  0  0  0  0  0  0
    2.0463   -1.0154   -1.9802 H   0  0  0  0  0  0  0  0  0  0  0  0
    0.4939   -1.4605   -0.1529 H   0  0  0  0  0  0  0  0  0  0  0  0
   -0.3564   -0.9515   -1.5879 H   0  0  0  0  0  0  0  0  0  0  0  0
    0.2167    0.8072    0.8749 H   0  0  0  0  0  0  0  0  0  0  0  0
   -0.3297    2.5034   -0.3204 H   0  0  0  0  0  0  0  0  0  0  0  0
   -3.7203    4.8410   -1.4358 H   0  0  0  0  0  0  0  0  0  0  0  0
   -4.7190    4.1247   -3.8850 H   0  0  0  0  0  0  0  0  0  0  0  0
   -4.7351    2.2689   -5.5478 H   0  0  0  0  0  0  0  0  0  0  0  0
   -3.5361    0.1512   -5.0786 H   0  0  0  0  0  0  0  0  0  0  0  0
   -2.3014   -0.1583   -2.9397 H   0  0  0  0  0  0  0  0  0  0  0  0
   -0.7945   -1.8159    1.9407 H   0  0  0  0  0  0  0  0  0  0  0  0
   -4.1862   -1.7506    2.9997 H   0  0  0  0  0  0  0  0  0  0  0  0
   -5.4725   -0.7667    2.3257 H   0  0  0  0  0  0  0  0  0  0  0  0
   -3.6367   -3.9782    2.0222 H   0  0  0  0  0  0  0  0  0  0  0  0
   -4.4451   -5.9115    0.7138 H   0  0  0  0  0  0  0  0  0  0  0  0
   -6.3877   -5.6640   -0.8094 H   0  0  0  0  0  0  0  0  0  0  0  0
   -7.5211   -3.4673   -1.0247 H   0  0  0  0  0  0  0  0  0  0  0  0
   -6.7252   -1.5249    0.2782 H   0  0  0  0  0  0  0  0  0  0  0  0
   -5.1823    1.5357   -0.3662 H   0  0  0  0  0  0  0  0  0  0  0  0
  1  2  1  0
  2  3  1  0
  2  4  1  0
  2  5  1  0
  5  6  1  0
  6  7  2  0
  6  8  1  0
  8  9  1  0
  9 10  1  0
 10 11  1  0
 11 12  1  0
 12 13  1  0
 13 14  1  0
 14 15  1  0
 15 16  1  0
 16 17  2  0
 16 18  1  0
 18 19  1  0
 19 20  2  0
 20 21  1  0
 21 22  2  0
 22 23  1  0
 23 24  2  0
 15 25  1  0
 25 26  1  0
 26 27  2  0
 27 28  1  0
 27 29  1  0
 29 30  1  0
 30 31  1  0
 31 32  2  0
 32 33  1  0
 33 34  2  0
 34 35  1  0
 35 36  2  0
 29 37  1  0
 37 38  1  0
 26 13  1  0
 36 31  1  0
 24 15  1  0
 37 25  2  0
 24 19  1  0
  1 39  1  0
  1 40  1  0
  1 41  1  0
  3 42  1  0
  3 43  1  0
  3 44  1  0
  4 45  1  0
  4 46  1  0
  4 47  1  0
  8 48  1  0
  9 49  1  0
  9 50  1  0
 10 51  1  0
 10 52  1  0
 11 53  1  0
 11 54  1  0
 12 55  1  0
 12 56  1  0
 13 57  1  1
 14 58  1  0
 18 59  1  0
 20 60  1  0
 21 61  1  0
 22 62  1  0
 23 63  1  0
 28 64  1  0
 30 65  1  0
 30 66  1  0
 32 67  1  0
 33 68  1  0
 34 69  1  0
 35 70  1  0
 36 71  1  0
 38 72  1  0
M  END
$$$$
