
     RDKit          3D

 80 86  0  0  0  0  0  0  0  0999 V2000
   -5.1984   -1.9410    1.3492 C   0  0  0  0  0  0  0  0  0  0  0  0
   -3.9346   -1.1751    1.6047 C   0  0  0  0  0  0  0  0  0  0  0  0
   -3.8100   -0.3819    2.7729 C   0  0  0  0  0  0  0  0  0  0  0  0
   -5.1036   -0.1965    3.9132 Cl  0  0  0  0  0  0  0  0  0  0  0  0
   -2.6295    0.3134    3.0772 C   0  0  0  0  0  0  0  0  0  0  0  0
   -1.5333    0.2428    2.2309 C   0  0  0  0  0  0  0  0  0  0  0  0
   -1.6423   -0.5132    1.0709 C   0  0  0  0  0  0  0  0  0  0  0  0
   -2.8354   -1.1932    0.7323 C   0  0  0  0  0  0  0  0  0  0  0  0
   -2.6530   -1.8018   -0.5387 N   0  0  0  0  0  0  0  0  0  0  0  0
   -3.6366   -2.4533   -1.3782 C   0  0  0  0  0  0  0  0  0  0  0  0
   -4.5244   -1.4948   -2.1447 C   0  0  0  0  0  0  0  0  0  0  0  0
   -3.9808   -0.4597   -2.9220 C   0  0  0  0  0  0  0  0  0  0  0  0
   -4.8081    0.4109   -3.6342 C   0  0  0  0  0  0  0  0  0  0  0  0
   -6.1896    0.2445   -3.6000 C   0  0  0  0  0  0  0  0  0  0  0  0
   -6.7439   -0.8002   -2.8647 C   0  0  0  0  0  0  0  0  0  0  0  0
   -5.9166   -1.6697   -2.1505 C   0  0  0  0  0  0  0  0  0  0  0  0
   -1.3527   -1.5782   -1.0434 C   0  0  0  0  0  0  0  0  0  0  0  0
   -0.9220   -1.9771   -2.1180 O   0  0  0  0  0  0  0  0  0  0  0  0
   -0.6124   -0.7214   -0.0043 C   0  0  1  0  0  0  0  0  0  0  0  0
   -0.2218    0.6144   -0.5172 C   0  0  0  0  0  0  0  0  0  0  0  0
    1.1491    0.8271   -0.3545 C   0  0  0  0  0  0  0  0  0  0  0  0
    1.4712    2.0568   -0.8627 C   0  0  0  0  0  0  0  0  0  0  0  0
    2.6655    2.6305   -0.9849 O   0  0  0  0  0  0  0  0  0  0  0  0
    0.2749    2.6541   -1.3242 N   0  0  0  0  0  0  0  0  0  0  0  0
    0.1464    3.9575   -1.9217 C   0  0  0  0  0  0  0  0  0  0  0  0
   -0.9362    4.2609   -2.7611 C   0  0  0  0  0  0  0  0  0  0  0  0
   -1.0625    5.5294   -3.3385 C   0  0  0  0  0  0  0  0  0  0  0  0
   -0.1104    6.5121   -3.0866 C   0  0  0  0  0  0  0  0  0  0  0  0
    0.9698    6.2263   -2.2582 C   0  0  0  0  0  0  0  0  0  0  0  0
    1.0987    4.9586   -1.6791 C   0  0  0  0  0  0  0  0  0  0  0  0
   -0.7745    1.7349   -1.0854 C   0  0  0  0  0  0  0  0  0  0  0  0
   -2.0507    2.0170   -1.3383 O   0  0  0  0  0  0  0  0  0  0  0  0
    1.8113   -0.3276    0.2976 C   0  0  1  0  0  0  0  0  0  0  0  0
    2.3918    0.0281    1.6860 C   0  0  0  0  0  0  0  0  0  0  0  0
    2.6044   -1.1820    2.4780 N   0  0  0  0  0  0  0  0  0  0  0  0
    3.8104   -1.8655    2.4586 C   0  0  0  0  0  0  0  0  0  0  0  0
    3.9423   -3.0130    2.8628 O   0  0  0  0  0  0  0  0  0  0  0  0
    4.8112   -1.1172    1.9288 O   0  0  0  0  0  0  0  0  0  0  0  0
    6.1554   -1.6477    1.8007 C   0  0  0  0  0  0  0  0  0  0  0  0
    6.1901   -2.8602    0.8636 C   0  0  0  0  0  0  0  0  0  0  0  0
    6.7641   -1.9611    3.1715 C   0  0  0  0  0  0  0  0  0  0  0  0
    6.9599   -0.5084    1.1554 C   0  0  0  0  0  0  0  0  0  0  0  0
    1.3840   -1.9513    2.6965 C   0  0  0  0  0  0  0  0  0  0  0  0
    0.7817   -2.3841    1.3437 C   0  0  0  0  0  0  0  0  0  0  0  0
    0.6935   -1.3175    0.3548 N   0  0  0  0  0  0  0  0  0  0  0  0
   -5.7898   -1.4456    0.5785 H   0  0  0  0  0  0  0  0  0  0  0  0
   -4.9755   -2.9738    1.0736 H   0  0  0  0  0  0  0  0  0  0  0  0
   -5.8370   -2.0336    2.2312 H   0  0  0  0  0  0  0  0  0  0  0  0
   -2.5670    0.9169    3.9809 H   0  0  0  0  0  0  0  0  0  0  0  0
   -0.6278    0.7922    2.4670 H   0  0  0  0  0  0  0  0  0  0  0  0
   -3.1176   -3.0701   -2.1237 H   0  0  0  0  0  0  0  0  0  0  0  0
   -4.2153   -3.1629   -0.7860 H   0  0  0  0  0  0  0  0  0  0  0  0
   -2.9036   -0.3282   -3.0010 H   0  0  0  0  0  0  0  0  0  0  0  0
   -4.3696    1.2114   -4.2251 H   0  0  0  0  0  0  0  0  0  0  0  0
   -6.8325    0.9194   -4.1588 H   0  0  0  0  0  0  0  0  0  0  0  0
   -7.8216   -0.9419   -2.8525 H   0  0  0  0  0  0  0  0  0  0  0  0
   -6.3731   -2.4873   -1.5966 H   0  0  0  0  0  0  0  0  0  0  0  0
    3.3465    1.9642   -0.7880 H   0  0  0  0  0  0  0  0  0  0  0  0
   -1.6864    3.5197   -3.0175 H   0  0  0  0  0  0  0  0  0  0  0  0
   -1.9057    5.7433   -3.9896 H   0  0  0  0  0  0  0  0  0  0  0  0
   -0.2096    7.4967   -3.5354 H   0  0  0  0  0  0  0  0  0  0  0  0
    1.7146    6.9909   -2.0528 H   0  0  0  0  0  0  0  0  0  0  0  0
    1.9406    4.7985   -1.0138 H   0  0  0  0  0  0  0  0  0  0  0  0
   -2.6100    1.2889   -1.0145 H   0  0  0  0  0  0  0  0  0  0  0  0
    2.6000   -0.7388   -0.3431 H   0  0  0  0  0  0  0  0  0  0  0  0
    3.3178    0.6020    1.5722 H   0  0  0  0  0  0  0  0  0  0  0  0
    1.7036    0.6654    2.2543 H   0  0  0  0  0  0  0  0  0  0  0  0
    5.6984   -3.7327    1.3043 H   0  0  0  0  0  0  0  0  0  0  0  0
    7.2189   -3.1514    0.6270 H   0  0  0  0  0  0  0  0  0  0  0  0
    5.6646   -2.6427   -0.0733 H   0  0  0  0  0  0  0  0  0  0  0  0
    6.2718   -2.8108    3.6541 H   0  0  0  0  0  0  0  0  0  0  0  0
    7.8287   -2.2044    3.0879 H   0  0  0  0  0  0  0  0  0  0  0  0
    6.6540   -1.1076    3.8499 H   0  0  0  0  0  0  0  0  0  0  0  0
    6.5313   -0.2302    0.1853 H   0  0  0  0  0  0  0  0  0  0  0  0
    8.0084   -0.7854    1.0034 H   0  0  0  0  0  0  0  0  0  0  0  0
    6.9261    0.3938    1.7776 H   0  0  0  0  0  0  0  0  0  0  0  0
    1.5854   -2.8327    3.3146 H   0  0  0  0  0  0  0  0  0  0  0  0
    0.6843   -1.3163    3.2489 H   0  0  0  0  0  0  0  0  0  0  0  0
   -0.1826   -2.8787    1.5044 H   0  0  0  0  0  0  0  0  0  0  0  0
    1.4375   -3.1548    0.9187 H   0  0  0  0  0  0  0  0  0  0  0  0
  1  2  1  0
  2  3  2  0
  3  4  1  0
  3  5  1  0
  5  6  2  0
  6  7  1  0
  7  8  2  0
  8  9  1  0
  9 10  1  0
 10 11  1  0
 11 12  2  0
 12 13  1  0
 13 14  2  0
 14 15  1  0
 15 16  2  0
  9 17  1  0
 17 18  2  0
 17 19  1  0
 19 20  1  0
 20 21  1  0
 21 22  2  0
 22 23  1  0
 22 24  1  0
 24 25  1  0
 25 26  2  0
 26 27  1  0
 27 28  2  0
 28 29  1  0
 29 30  2  0
 24 31  1  0
 31 32  1  0
 21 33  1  0
 33 34  1  0
 34 35  1  0
 35 36  1  0
 36 37  2  0
 36 38  1  0
 38 39  1  0
 39 40  1  0
 39 41  1  0
 39 42  1  0
 35 43  1  0
 43 44  1  0
 44 45  1  0
  8  2  1  0
 16 11  1  0
 19 45  1  1
 19  7  1  0
 31 20  2  0
 45 33  1  0
 30 25  1  0
  1 46  1  0
  1 47  1  0
  1 48  1  0
  5 49  1  0
  6 50  1  0
 10 51  1  0
 10 52  1  0
 12 53  1  0
 13 54  1  0
 14 55  1  0
 15 56  1  0
 16 57  1  0
 23 58  1  0
 26 59  1  0
 27 60  1  0
 28 61  1  0
 29 62  1  0
 30 63  1  0
 32 64  1  0
 33 65  1  6
 34 66  1  0
 34 67  1  0
 40 68  1  0
 40 69  1  0
 40 70  1  0
 41 71  1  0
 41 72  1  0
 41 73  1  0
 42 74  1  0
 42 75  1  0
 42 76  1  0
 43 77  1  0
 43 78  1  0
 44 79  1  0
 44 80  1  0
M  END
$$$$
