
     RDKit          3D

 73 75  0  0  0  0  0  0  0  0999 V2000
    9.6305    0.1029   -1.3928 C   0  0  0  0  0  0  0  0  0  0  0  0
    9.9307   -1.3707   -1.1816 C   0  0  0  0  0  0  0  0  0  0  0  0
    8.9107   -2.1061   -0.3067 C   0  0  0  0  0  0  0  0  0  0  0  0
    7.4892   -2.1392   -0.8828 C   0  0  0  0  0  0  0  0  0  0  0  0
    6.5755   -1.0779   -0.2610 C   0  0  0  0  0  0  0  0  0  0  0  0
    5.2247   -0.9396   -0.9730 C   0  0  0  0  0  0  0  0  0  0  0  0
    4.3600   -2.2008   -0.8988 C   0  0  0  0  0  0  0  0  0  0  0  0
    3.0096   -2.0432   -1.6063 C   0  0  0  0  0  0  0  0  0  0  0  0
    2.0334   -1.1342   -0.8538 C   0  0  0  0  0  0  0  0  0  0  0  0
    0.6948   -1.0256   -1.5955 C   0  0  0  0  0  0  0  0  0  0  0  0
   -0.2734   -0.1201   -0.8298 C   0  0  0  0  0  0  0  0  0  0  0  0
   -1.6409    0.0633   -1.5255 N   0  0  0  0  0  4  0  0  0  0  0  0
   -2.3650   -1.2699   -1.7028 C   0  0  0  0  0  0  0  0  0  0  0  0
   -1.4554    0.7034   -2.9086 C   0  0  0  0  0  0  0  0  0  0  0  0
   -2.5125    1.0536   -0.6931 C   0  0  0  0  0  0  0  0  0  0  0  0
   -3.0109    0.4877    0.6444 C   0  0  0  0  0  0  0  0  0  0  0  0
   -3.7363    1.5340    1.4521 C   0  0  0  0  0  0  0  0  0  0  0  0
   -5.0523    1.6086    1.7595 C   0  0  0  0  0  0  0  0  0  0  0  0
   -6.0518    0.6153    1.2825 C   0  0  0  0  0  0  0  0  0  0  0  0
   -6.2109    0.3093   -0.0780 C   0  0  0  0  0  0  0  0  0  0  0  0
   -7.1721   -0.6169   -0.4905 C   0  0  0  0  0  0  0  0  0  0  0  0
   -8.0031   -1.2270    0.4483 C   0  0  0  0  0  0  0  0  0  0  0  0
   -7.8865   -0.8993    1.7989 C   0  0  0  0  0  0  0  0  0  0  0  0
   -6.9300    0.0338    2.2202 C   0  0  0  0  0  0  0  0  0  0  0  0
   -6.8929    0.4867    3.9543 S   0  0  0  0  0  0  0  0  0  0  0  0
   -6.3081    2.1783    3.8407 C   0  0  0  0  0  0  0  0  0  0  0  0
   -6.6962    3.0840    4.8363 C   0  0  0  0  0  0  0  0  0  0  0  0
   -6.2573    4.4089    4.7935 C   0  0  0  0  0  0  0  0  0  0  0  0
   -5.4290    4.8297    3.7554 C   0  0  0  0  0  0  0  0  0  0  0  0
   -4.8684    6.4572    3.7128 Cl  0  0  0  0  0  0  0  0  0  0  0  0
   -5.0333    3.9405    2.7565 C   0  0  0  0  0  0  0  0  0  0  0  0
   -5.4547    2.6015    2.7983 C   0  0  0  0  0  0  0  0  0  0  0  0
    8.7176    0.2461   -1.9804 H   0  0  0  0  0  0  0  0  0  0  0  0
   10.4511    0.5798   -1.9418 H   0  0  0  0  0  0  0  0  0  0  0  0
    9.5183    0.6252   -0.4387 H   0  0  0  0  0  0  0  0  0  0  0  0
   10.9186   -1.4631   -0.7140 H   0  0  0  0  0  0  0  0  0  0  0  0
    9.9997   -1.8659   -2.1572 H   0  0  0  0  0  0  0  0  0  0  0  0
    9.2619   -3.1418   -0.2066 H   0  0  0  0  0  0  0  0  0  0  0  0
    8.9097   -1.6836    0.7058 H   0  0  0  0  0  0  0  0  0  0  0  0
    7.5155   -2.0390   -1.9746 H   0  0  0  0  0  0  0  0  0  0  0  0
    7.0642   -3.1277   -0.6679 H   0  0  0  0  0  0  0  0  0  0  0  0
    7.0674   -0.0991   -0.2865 H   0  0  0  0  0  0  0  0  0  0  0  0
    6.4096   -1.3148    0.7974 H   0  0  0  0  0  0  0  0  0  0  0  0
    5.3941   -0.6685   -2.0217 H   0  0  0  0  0  0  0  0  0  0  0  0
    4.6925   -0.1003   -0.5119 H   0  0  0  0  0  0  0  0  0  0  0  0
    4.8899   -3.0340   -1.3770 H   0  0  0  0  0  0  0  0  0  0  0  0
    4.1999   -2.4838    0.1494 H   0  0  0  0  0  0  0  0  0  0  0  0
    3.1685   -1.6638   -2.6233 H   0  0  0  0  0  0  0  0  0  0  0  0
    2.5565   -3.0378   -1.7063 H   0  0  0  0  0  0  0  0  0  0  0  0
    2.4594   -0.1331   -0.7337 H   0  0  0  0  0  0  0  0  0  0  0  0
    1.8642   -1.5375    0.1512 H   0  0  0  0  0  0  0  0  0  0  0  0
    0.2708   -2.0301   -1.7087 H   0  0  0  0  0  0  0  0  0  0  0  0
    0.8889   -0.6331   -2.5995 H   0  0  0  0  0  0  0  0  0  0  0  0
   -0.4666   -0.5464    0.1590 H   0  0  0  0  0  0  0  0  0  0  0  0
    0.1541    0.8814   -0.7035 H   0  0  0  0  0  0  0  0  0  0  0  0
   -1.8550   -1.8496   -2.4768 H   0  0  0  0  0  0  0  0  0  0  0  0
   -2.3422   -1.8108   -0.7532 H   0  0  0  0  0  0  0  0  0  0  0  0
   -3.3937   -1.0633   -2.0117 H   0  0  0  0  0  0  0  0  0  0  0  0
   -0.8924    1.6333   -2.7846 H   0  0  0  0  0  0  0  0  0  0  0  0
   -2.4457    0.9062   -3.3295 H   0  0  0  0  0  0  0  0  0  0  0  0
   -0.9243    0.0061   -3.5612 H   0  0  0  0  0  0  0  0  0  0  0  0
   -3.3668    1.3269   -1.3249 H   0  0  0  0  0  0  0  0  0  0  0  0
   -1.9031    1.9538   -0.5414 H   0  0  0  0  0  0  0  0  0  0  0  0
   -3.6394   -0.3912    0.4843 H   0  0  0  0  0  0  0  0  0  0  0  0
   -2.1697    0.1457    1.2560 H   0  0  0  0  0  0  0  0  0  0  0  0
   -3.0559    2.2499    1.9208 H   0  0  0  0  0  0  0  0  0  0  0  0
   -5.6174    0.8137   -0.8335 H   0  0  0  0  0  0  0  0  0  0  0  0
   -7.2989   -0.8453   -1.5452 H   0  0  0  0  0  0  0  0  0  0  0  0
   -8.7626   -1.9380    0.1287 H   0  0  0  0  0  0  0  0  0  0  0  0
   -8.5676   -1.3566    2.5161 H   0  0  0  0  0  0  0  0  0  0  0  0
   -7.3378    2.7629    5.6532 H   0  0  0  0  0  0  0  0  0  0  0  0
   -6.5609    5.1026    5.5743 H   0  0  0  0  0  0  0  0  0  0  0  0
   -4.3904    4.2964    1.9530 H   0  0  0  0  0  0  0  0  0  0  0  0
  1  2  1  0
  2  3  1  0
  3  4  1  0
  4  5  1  0
  5  6  1  0
  6  7  1  0
  7  8  1  0
  8  9  1  0
  9 10  1  0
 10 11  1  0
 11 12  1  0
 12 13  1  0
 12 14  1  0
 12 15  1  0
 15 16  1  0
 16 17  1  0
 17 18  2  3
 18 19  1  0
 19 20  2  0
 20 21  1  0
 21 22  2  0
 22 23  1  0
 23 24  2  0
 24 25  1  0
 25 26  1  0
 26 27  2  0
 27 28  1  0
 28 29  2  0
 29 30  1  0
 29 31  1  0
 31 32  2  0
 32 18  1  0
 24 19  1  0
 32 26  1  0
  1 33  1  0
  1 34  1  0
  1 35  1  0
  2 36  1  0
  2 37  1  0
  3 38  1  0
  3 39  1  0
  4 40  1  0
  4 41  1  0
  5 42  1  0
  5 43  1  0
  6 44  1  0
  6 45  1  0
  7 46  1  0
  7 47  1  0
  8 48  1  0
  8 49  1  0
  9 50  1  0
  9 51  1  0
 10 52  1  0
 10 53  1  0
 11 54  1  0
 11 55  1  0
 13 56  1  0
 13 57  1  0
 13 58  1  0
 14 59  1  0
 14 60  1  0
 14 61  1  0
 15 62  1  0
 15 63  1  0
 16 64  1  0
 16 65  1  0
 17 66  1  0
 20 67  1  0
 21 68  1  0
 22 69  1  0
 23 70  1  0
 27 71  1  0
 28 72  1  0
 31 73  1  0
M  CHG  1  12   1
M  END
$$$$
