
     RDKit          3D

 40 43  0  0  0  0  0  0  0  0999 V2000
   -5.3725    0.8928    1.4905 C   0  0  0  0  0  0  0  0  0  0  0  0
   -4.6888    0.4484    2.7322 C   0  0  0  0  0  0  0  0  0  0  0  0
   -5.4760    0.1481    3.8400 N   0  0  0  0  0  0  0  0  0  0  0  0
   -4.7477   -0.2087    4.8824 N   0  0  0  0  0  0  0  0  0  0  0  0
   -3.1101   -0.1764    4.5684 S   0  0  0  0  0  0  0  0  0  0  0  0
   -3.3228    0.2833    2.9290 C   0  0  0  0  0  0  0  0  0  0  0  0
   -2.2540    0.5195    2.0147 C   0  0  0  0  0  0  0  0  0  0  0  0
   -2.2493    1.5162    1.1461 N   0  0  0  0  0  0  0  0  0  0  0  0
   -1.0484    1.5007    0.4729 N   0  0  0  0  0  0  0  0  0  0  0  0
   -0.3548    0.4801    0.9222 C   0  0  0  0  0  0  0  0  0  0  0  0
    1.2456    0.0480    0.4383 S   0  0  0  0  0  0  0  0  0  0  0  0
    1.7567    1.5832   -0.3845 C   0  0  0  0  0  0  0  0  0  0  0  0
    3.1542    1.4141   -0.9397 C   0  0  0  0  0  0  0  0  0  0  0  0
    4.1457    1.6890   -0.2622 O   0  0  0  0  0  0  0  0  0  0  0  0
    3.3487    0.9041   -2.3344 C   0  0  0  0  0  0  0  0  0  0  0  0
    4.6452    0.9327   -2.8716 C   0  0  0  0  0  0  0  0  0  0  0  0
    4.8921    0.4685   -4.1677 C   0  0  0  0  0  0  0  0  0  0  0  0
    3.8437   -0.0335   -4.9423 C   0  0  0  0  0  0  0  0  0  0  0  0
    4.0918   -0.5122   -6.2710 C   0  0  0  0  0  0  0  0  0  0  0  0
    4.2877   -0.9007   -7.3467 N   0  0  0  0  0  0  0  0  0  0  0  0
    2.5499   -0.0694   -4.4119 C   0  0  0  0  0  0  0  0  0  0  0  0
    2.3018    0.3955   -3.1137 C   0  0  0  0  0  0  0  0  0  0  0  0
   -1.0979   -0.2044    1.8449 N   0  0  0  0  0  0  0  0  0  0  0  0
   -0.7185   -1.4659    2.5258 C   0  0  0  0  0  0  0  0  0  0  0  0
   -0.3785   -2.7268    1.7595 C   0  0  0  0  0  0  0  0  0  0  0  0
   -1.6285   -2.6749    2.5780 C   0  0  0  0  0  0  0  0  0  0  0  0
   -5.1667    1.9504    1.2988 H   0  0  0  0  0  0  0  0  0  0  0  0
   -6.4568    0.7689    1.5757 H   0  0  0  0  0  0  0  0  0  0  0  0
   -5.0349    0.3071    0.6297 H   0  0  0  0  0  0  0  0  0  0  0  0
    1.0599    1.8801   -1.1732 H   0  0  0  0  0  0  0  0  0  0  0  0
    1.7793    2.4034    0.3421 H   0  0  0  0  0  0  0  0  0  0  0  0
    5.4759    1.3184   -2.2807 H   0  0  0  0  0  0  0  0  0  0  0  0
    5.9067    0.5019   -4.5618 H   0  0  0  0  0  0  0  0  0  0  0  0
    1.7244   -0.4630   -5.0041 H   0  0  0  0  0  0  0  0  0  0  0  0
    1.2830    0.3351   -2.7411 H   0  0  0  0  0  0  0  0  0  0  0  0
   -0.1148   -1.2722    3.4096 H   0  0  0  0  0  0  0  0  0  0  0  0
   -0.4875   -2.7389    0.6804 H   0  0  0  0  0  0  0  0  0  0  0  0
    0.4453   -3.3323    2.1224 H   0  0  0  0  0  0  0  0  0  0  0  0
   -1.6565   -3.2531    3.4957 H   0  0  0  0  0  0  0  0  0  0  0  0
   -2.5725   -2.6575    2.0440 H   0  0  0  0  0  0  0  0  0  0  0  0
  1  2  1  0
  2  3  1  0
  3  4  2  0
  4  5  1  0
  5  6  1  0
  6  7  1  0
  7  8  2  0
  8  9  1  0
  9 10  2  0
 10 11  1  0
 11 12  1  0
 12 13  1  0
 13 14  2  0
 13 15  1  0
 15 16  2  0
 16 17  1  0
 17 18  2  0
 18 19  1  0
 19 20  3  0
 18 21  1  0
 21 22  2  0
 10 23  1  0
 23 24  1  0
 24 25  1  0
 25 26  1  0
  6  2  2  0
 23  7  1  0
 26 24  1  0
 22 15  1  0
  1 27  1  0
  1 28  1  0
  1 29  1  0
 12 30  1  0
 12 31  1  0
 16 32  1  0
 17 33  1  0
 21 34  1  0
 22 35  1  0
 24 36  1  0
 25 37  1  0
 25 38  1  0
 26 39  1  0
 26 40  1  0
M  END
$$$$
