
     RDKit          3D

 66 68  0  0  0  0  0  0  0  0999 V2000
   -1.4260   -3.8188    2.3232 C   0  0  0  0  0  0  0  0  0  0  0  0
   -2.5982   -3.3702    1.4556 C   0  0  0  0  0  0  0  0  0  0  0  0
   -2.3058   -3.3936    0.0139 N   0  0  0  0  0  0  0  0  0  0  0  0
   -3.5112   -3.1505   -0.7955 C   0  0  0  0  0  0  0  0  0  0  0  0
   -4.4369   -4.3622   -0.8384 C   0  0  0  0  0  0  0  0  0  0  0  0
   -1.1961   -2.5061   -0.3891 C   0  0  0  0  0  0  0  0  0  0  0  0
   -1.4130   -0.9960   -0.1694 C   0  0  0  0  0  0  0  0  0  0  0  0
   -0.2303   -0.1521   -0.7193 C   0  0  0  0  0  0  0  0  0  0  0  0
    1.1142   -0.3134   -0.0124 C   0  0  0  0  0  0  0  0  0  0  0  0
    2.2954   -0.1011   -0.7339 C   0  0  0  0  0  0  0  0  0  0  0  0
    3.5531   -0.2238   -0.1245 C   0  0  0  0  0  0  0  0  0  0  0  0
    3.6929   -0.5758    1.2255 C   0  0  0  0  0  0  0  0  0  0  0  0
    4.9390   -0.6961    1.8635 N   0  0  0  0  0  0  0  0  0  0  0  0
    6.1430   -0.3522    1.1091 C   0  0  0  0  0  0  0  0  0  0  0  0
    5.0833   -1.8626    2.7399 C   0  0  0  0  0  0  0  0  0  0  0  0
    2.4992   -0.7632    1.9404 C   0  0  0  0  0  0  0  0  0  0  0  0
    1.2378   -0.6394    1.3394 C   0  0  0  0  0  0  0  0  0  0  0  0
   -0.6146    1.3225   -0.8887 C   0  0  0  0  0  0  0  0  0  0  0  0
   -1.0022    2.1364    0.1875 C   0  0  0  0  0  0  0  0  0  0  0  0
   -1.0834    1.5869    1.4420 O   0  0  0  0  0  0  0  0  0  0  0  0
   -0.3013    2.2978    2.4039 C   0  0  0  0  0  0  0  0  0  0  0  0
   -1.3736    3.4766   -0.0104 C   0  0  0  0  0  0  0  0  0  0  0  0
   -1.3166    4.0583   -1.2798 C   0  0  0  0  0  0  0  0  0  0  0  0
   -1.6501    5.3619   -1.5509 O   0  0  0  0  0  0  0  0  0  0  0  0
   -1.9695    6.2043   -0.4505 C   0  0  0  0  0  0  0  0  0  0  0  0
   -0.9038    3.2771   -2.3703 C   0  0  0  0  0  0  0  0  0  0  0  0
   -0.8161    3.8118   -3.7283 C   0  0  0  0  0  0  0  0  0  0  0  0
   -0.4146    3.0396   -4.7411 C   0  0  0  0  0  0  0  0  0  0  0  0
   -0.0461    1.6318   -4.5494 C   0  0  0  0  0  0  0  0  0  0  0  0
    0.3297    0.9424   -5.4896 O   0  0  0  0  0  0  0  0  0  0  0  0
   -0.1472    1.1395   -3.2577 O   0  0  0  0  0  0  0  0  0  0  0  0
   -0.5650    1.9334   -2.1577 C   0  0  0  0  0  0  0  0  0  0  0  0
   -1.0308   -4.7826    1.9849 H   0  0  0  0  0  0  0  0  0  0  0  0
   -1.7562   -3.9401    3.3598 H   0  0  0  0  0  0  0  0  0  0  0  0
   -0.6122   -3.0889    2.3228 H   0  0  0  0  0  0  0  0  0  0  0  0
   -2.9394   -2.3806    1.7803 H   0  0  0  0  0  0  0  0  0  0  0  0
   -3.4172   -4.0643    1.6731 H   0  0  0  0  0  0  0  0  0  0  0  0
   -4.0635   -2.2736   -0.4370 H   0  0  0  0  0  0  0  0  0  0  0  0
   -3.2246   -2.9429   -1.8343 H   0  0  0  0  0  0  0  0  0  0  0  0
   -5.2637   -4.1741   -1.5319 H   0  0  0  0  0  0  0  0  0  0  0  0
   -3.9030   -5.2520   -1.1895 H   0  0  0  0  0  0  0  0  0  0  0  0
   -4.8748   -4.5849    0.1391 H   0  0  0  0  0  0  0  0  0  0  0  0
   -0.9948   -2.6839   -1.4541 H   0  0  0  0  0  0  0  0  0  0  0  0
   -0.2791   -2.8319    0.1129 H   0  0  0  0  0  0  0  0  0  0  0  0
   -2.3260   -0.6893   -0.6957 H   0  0  0  0  0  0  0  0  0  0  0  0
   -1.5877   -0.7930    0.8908 H   0  0  0  0  0  0  0  0  0  0  0  0
   -0.0656   -0.5700   -1.7217 H   0  0  0  0  0  0  0  0  0  0  0  0
    2.2524    0.1643   -1.7887 H   0  0  0  0  0  0  0  0  0  0  0  0
    4.4211   -0.0517   -0.7527 H   0  0  0  0  0  0  0  0  0  0  0  0
    6.0752    0.6565    0.6869 H   0  0  0  0  0  0  0  0  0  0  0  0
    7.0177   -0.3482    1.7695 H   0  0  0  0  0  0  0  0  0  0  0  0
    6.3313   -1.0754    0.3080 H   0  0  0  0  0  0  0  0  0  0  0  0
    4.4224   -1.8059    3.6105 H   0  0  0  0  0  0  0  0  0  0  0  0
    4.8851   -2.7925    2.1936 H   0  0  0  0  0  0  0  0  0  0  0  0
    6.1025   -1.9231    3.1391 H   0  0  0  0  0  0  0  0  0  0  0  0
    2.5253   -0.9824    3.0036 H   0  0  0  0  0  0  0  0  0  0  0  0
    0.3597   -0.7853    1.9615 H   0  0  0  0  0  0  0  0  0  0  0  0
   -0.8469    3.1713    2.7743 H   0  0  0  0  0  0  0  0  0  0  0  0
   -0.1287    1.6294    3.2528 H   0  0  0  0  0  0  0  0  0  0  0  0
    0.6743    2.5945    2.0014 H   0  0  0  0  0  0  0  0  0  0  0  0
   -1.7247    4.0429    0.8446 H   0  0  0  0  0  0  0  0  0  0  0  0
   -2.8883    5.8729    0.0437 H   0  0  0  0  0  0  0  0  0  0  0  0
   -1.1367    6.2639    0.2579 H   0  0  0  0  0  0  0  0  0  0  0  0
   -2.1460    7.2114   -0.8409 H   0  0  0  0  0  0  0  0  0  0  0  0
   -1.0819    4.8499   -3.8984 H   0  0  0  0  0  0  0  0  0  0  0  0
   -0.3408    3.4167   -5.7535 H   0  0  0  0  0  0  0  0  0  0  0  0
  1  2  1  0
  2  3  1  0
  3  4  1  0
  4  5  1  0
  3  6  1  0
  6  7  1  0
  7  8  1  0
  8  9  1  0
  9 10  2  0
 10 11  1  0
 11 12  2  0
 12 13  1  0
 13 14  1  0
 13 15  1  0
 12 16  1  0
 16 17  2  0
  8 18  1  0
 18 19  2  0
 19 20  1  0
 20 21  1  0
 19 22  1  0
 22 23  2  0
 23 24  1  0
 24 25  1  0
 23 26  1  0
 26 27  1  0
 27 28  2  0
 28 29  1  0
 29 30  2  0
 29 31  1  0
 31 32  1  0
 17  9  1  0
 32 18  1  0
 32 26  2  0
  1 33  1  0
  1 34  1  0
  1 35  1  0
  2 36  1  0
  2 37  1  0
  4 38  1  0
  4 39  1  0
  5 40  1  0
  5 41  1  0
  5 42  1  0
  6 43  1  0
  6 44  1  0
  7 45  1  0
  7 46  1  0
  8 47  1  0
 10 48  1  0
 11 49  1  0
 14 50  1  0
 14 51  1  0
 14 52  1  0
 15 53  1  0
 15 54  1  0
 15 55  1  0
 16 56  1  0
 17 57  1  0
 21 58  1  0
 21 59  1  0
 21 60  1  0
 22 61  1  0
 25 62  1  0
 25 63  1  0
 25 64  1  0
 27 65  1  0
 28 66  1  0
M  END
$$$$
