
     RDKit          3D

 56 60  0  0  0  0  0  0  0  0999 V2000
    6.8433   -0.9180    2.4170 C   0  0  0  0  0  0  0  0  0  0  0  0
    5.6385   -0.3339    3.1360 C   0  0  0  0  0  0  0  0  0  0  0  0
    4.4031   -0.9344    2.6960 N   0  0  0  0  0  0  0  0  0  0  0  0
    3.8116   -2.0554    3.2693 C   0  0  0  0  0  0  0  0  0  0  0  0
    4.1599   -2.7063    4.2345 O   0  0  0  0  0  0  0  0  0  0  0  0
    2.6203   -2.3311    2.4390 C   0  0  0  0  0  0  0  0  0  0  0  0
    1.6536   -3.3104    2.5307 C   0  0  0  0  0  0  0  0  0  0  0  0
    0.6435   -3.3099    1.5603 C   0  0  0  0  0  0  0  0  0  0  0  0
    0.6199   -2.3396    0.5303 C   0  0  0  0  0  0  0  0  0  0  0  0
    1.6190   -1.3269    0.4417 C   0  0  0  0  0  0  0  0  0  0  0  0
    1.8093   -0.2565   -0.4780 C   0  0  0  0  0  0  0  0  0  0  0  0
    0.6440    0.0079   -1.7989 S   0  0  0  0  0  6  0  0  0  0  0  0
    0.5028   -1.2691   -2.4733 O   0  0  0  0  0  0  0  0  0  0  0  0
    1.0493    1.1828   -2.5457 O   0  0  0  0  0  0  0  0  0  0  0  0
   -0.8211    0.3569   -0.9769 N   0  0  0  0  0  0  0  0  0  0  0  0
   -0.8232    1.3422    0.0578 C   0  0  0  0  0  0  0  0  0  0  0  0
    0.1240    2.0801    0.2935 O   0  0  0  0  0  0  0  0  0  0  0  0
   -2.0212    1.4074    0.9302 C   0  0  0  0  0  0  0  0  0  0  0  0
   -2.8737    0.3250    1.1617 C   0  0  0  0  0  0  0  0  0  0  0  0
   -3.9799    0.4911    1.9935 C   0  0  0  0  0  0  0  0  0  0  0  0
   -4.1914    1.7332    2.5707 C   0  0  0  0  0  0  0  0  0  0  0  0
   -3.3798    2.7954    2.3779 N   0  0  0  0  0  0  0  0  0  0  0  0
   -2.3086    2.6079    1.5679 C   0  0  0  0  0  0  0  0  0  0  0  0
   -1.9304    0.4760   -1.9027 C   0  0  0  0  0  0  0  0  0  0  0  0
   -2.6340   -0.6739   -2.2644 C   0  0  0  0  0  0  0  0  0  0  0  0
   -3.6811   -0.5912   -3.1846 C   0  0  0  0  0  0  0  0  0  0  0  0
   -4.0183    0.6298   -3.7743 C   0  0  0  0  0  0  0  0  0  0  0  0
   -5.0631    0.5688   -4.6533 O   0  0  0  0  0  0  0  0  0  0  0  0
   -5.4154    1.7746   -5.3206 C   0  0  0  0  0  0  0  0  0  0  0  0
   -3.2876    1.7714   -3.4448 C   0  0  0  0  0  0  0  0  0  0  0  0
   -2.2386    1.6931   -2.5216 C   0  0  0  0  0  0  0  0  0  0  0  0
    2.9180    0.6235   -0.3662 C   0  0  0  0  0  0  0  0  0  0  0  0
    3.8560    0.4799    0.6684 C   0  0  0  0  0  0  0  0  0  0  0  0
    3.6624   -0.5448    1.5697 C   0  0  0  0  0  0  0  0  0  0  0  0
    2.5907   -1.3931    1.4384 C   0  0  0  0  0  0  0  0  0  0  0  0
    6.7833   -0.7434    1.3378 H   0  0  0  0  0  0  0  0  0  0  0  0
    6.9093   -1.9994    2.5765 H   0  0  0  0  0  0  0  0  0  0  0  0
    7.7659   -0.4600    2.7864 H   0  0  0  0  0  0  0  0  0  0  0  0
    5.5882    0.7505    2.9921 H   0  0  0  0  0  0  0  0  0  0  0  0
    5.7443   -0.5178    4.2113 H   0  0  0  0  0  0  0  0  0  0  0  0
    1.6861   -4.0536    3.3206 H   0  0  0  0  0  0  0  0  0  0  0  0
   -0.1297   -4.0757    1.5917 H   0  0  0  0  0  0  0  0  0  0  0  0
   -0.1751   -2.3998   -0.2102 H   0  0  0  0  0  0  0  0  0  0  0  0
   -2.6837   -0.6492    0.7221 H   0  0  0  0  0  0  0  0  0  0  0  0
   -4.6602   -0.3307    2.1914 H   0  0  0  0  0  0  0  0  0  0  0  0
   -5.0402    1.9109    3.2258 H   0  0  0  0  0  0  0  0  0  0  0  0
   -1.6763    3.4843    1.4434 H   0  0  0  0  0  0  0  0  0  0  0  0
   -2.3730   -1.6404   -1.8421 H   0  0  0  0  0  0  0  0  0  0  0  0
   -4.2314   -1.4891   -3.4570 H   0  0  0  0  0  0  0  0  0  0  0  0
   -6.2514    1.5535   -5.9911 H   0  0  0  0  0  0  0  0  0  0  0  0
   -4.5860    2.1442   -5.9326 H   0  0  0  0  0  0  0  0  0  0  0  0
   -5.7518    2.5352   -4.6083 H   0  0  0  0  0  0  0  0  0  0  0  0
   -3.4978    2.7356   -3.8964 H   0  0  0  0  0  0  0  0  0  0  0  0
   -1.6589    2.5894   -2.3099 H   0  0  0  0  0  0  0  0  0  0  0  0
    3.0434    1.4384   -1.0788 H   0  0  0  0  0  0  0  0  0  0  0  0
    4.6930    1.1644    0.7480 H   0  0  0  0  0  0  0  0  0  0  0  0
  1  2  1  0
  2  3  1  0
  3  4  1  0
  4  5  2  0
  4  6  1  0
  6  7  2  0
  7  8  1  0
  8  9  2  0
  9 10  1  0
 10 11  2  0
 11 12  1  0
 12 13  2  0
 12 14  2  0
 12 15  1  0
 15 16  1  0
 16 17  2  0
 16 18  1  0
 18 19  2  0
 19 20  1  0
 20 21  2  0
 21 22  1  0
 22 23  2  0
 15 24  1  0
 24 25  2  0
 25 26  1  0
 26 27  2  0
 27 28  1  0
 28 29  1  0
 27 30  1  0
 30 31  2  0
 11 32  1  0
 32 33  2  0
 33 34  1  0
 34 35  2  0
 34  3  1  0
 35  6  1  0
 35 10  1  0
 23 18  1  0
 31 24  1  0
  1 36  1  0
  1 37  1  0
  1 38  1  0
  2 39  1  0
  2 40  1  0
  7 41  1  0
  8 42  1  0
  9 43  1  0
 19 44  1  0
 20 45  1  0
 21 46  1  0
 23 47  1  0
 25 48  1  0
 26 49  1  0
 29 50  1  0
 29 51  1  0
 29 52  1  0
 30 53  1  0
 31 54  1  0
 32 55  1  0
 33 56  1  0
M  END
$$$$
