
     RDKit          3D

 48 50  0  0  0  0  0  0  0  0999 V2000
    8.6920    0.1149    0.5697 C   0  0  0  0  0  0  0  0  0  0  0  0
    7.2060    0.3196    0.3356 C   0  0  0  0  0  0  0  0  0  0  0  0
    6.3755   -0.7865    0.9770 C   0  0  0  0  0  0  0  0  0  0  0  0
    4.9768   -0.5277    0.7788 O   0  0  0  0  0  0  0  0  0  0  0  0
    4.4479   -0.9967   -0.3784 C   0  0  0  0  0  0  0  0  0  0  0  0
    5.0506   -1.6036   -1.2496 O   0  0  0  0  0  0  0  0  0  0  0  0
    2.9988   -0.6679   -0.4634 C   0  0  0  0  0  0  0  0  0  0  0  0
    2.2912   -1.0794   -1.5981 C   0  0  0  0  0  0  0  0  0  0  0  0
    0.9275   -0.7927   -1.7227 C   0  0  0  0  0  0  0  0  0  0  0  0
    0.2481   -0.0950   -0.7163 C   0  0  0  0  0  0  0  0  0  0  0  0
   -1.1239    0.1580   -0.9251 N   0  0  0  0  0  0  0  0  0  0  0  0
   -2.0313    0.6702   -0.0144 C   0  0  0  0  0  0  0  0  0  0  0  0
   -1.7870    0.9501    1.1546 O   0  0  0  0  0  0  0  0  0  0  0  0
   -3.4222    0.9052   -0.6214 C   0  0  0  0  0  0  0  0  0  0  0  0
   -4.3768    1.6104    0.3805 C   0  0  0  0  0  0  0  0  0  0  0  0
   -5.5955    2.1598   -0.3851 C   0  0  0  0  0  0  0  0  0  0  0  0
   -6.3914    0.8918   -0.7273 C   0  0  0  0  0  0  0  0  0  0  0  0
   -5.5127   -0.2323   -0.1469 C   0  0  0  0  0  0  0  0  0  0  0  0
   -4.9933    0.4289    1.1293 C   0  0  0  0  0  0  0  0  0  0  0  0
   -4.2358   -0.3515   -1.0170 C   0  0  0  0  0  0  0  0  0  0  0  0
   -3.4995   -1.6613   -0.8857 C   0  0  0  0  0  0  0  0  0  0  0  0
   -2.6735   -2.0553   -1.6978 O   0  0  0  0  0  0  0  0  0  0  0  0
   -3.7689   -2.3659    0.2197 O   0  0  0  0  0  0  0  0  0  0  0  0
    0.9572    0.3187    0.4126 C   0  0  0  0  0  0  0  0  0  0  0  0
    2.3236    0.0342    0.5413 C   0  0  0  0  0  0  0  0  0  0  0  0
    9.0293   -0.8339    0.1403 H   0  0  0  0  0  0  0  0  0  0  0  0
    9.2645    0.9220    0.1021 H   0  0  0  0  0  0  0  0  0  0  0  0
    8.9237    0.1100    1.6396 H   0  0  0  0  0  0  0  0  0  0  0  0
    6.8956    1.2909    0.7388 H   0  0  0  0  0  0  0  0  0  0  0  0
    7.0057    0.3631   -0.7411 H   0  0  0  0  0  0  0  0  0  0  0  0
    6.6517   -1.7773    0.5964 H   0  0  0  0  0  0  0  0  0  0  0  0
    6.5435   -0.8025    2.0594 H   0  0  0  0  0  0  0  0  0  0  0  0
    2.7966   -1.6272   -2.3915 H   0  0  0  0  0  0  0  0  0  0  0  0
    0.4050   -1.1329   -2.6141 H   0  0  0  0  0  0  0  0  0  0  0  0
   -1.5011   -0.2054   -1.7960 H   0  0  0  0  0  0  0  0  0  0  0  0
   -3.2722    1.5503   -1.4975 H   0  0  0  0  0  0  0  0  0  0  0  0
   -3.8998    2.3603    1.0158 H   0  0  0  0  0  0  0  0  0  0  0  0
   -5.3118    2.7234   -1.2794 H   0  0  0  0  0  0  0  0  0  0  0  0
   -6.1942    2.8168    0.2560 H   0  0  0  0  0  0  0  0  0  0  0  0
   -6.5598    0.7875   -1.8037 H   0  0  0  0  0  0  0  0  0  0  0  0
   -7.3687    0.9158   -0.2317 H   0  0  0  0  0  0  0  0  0  0  0  0
   -6.0566   -1.1676    0.0029 H   0  0  0  0  0  0  0  0  0  0  0  0
   -4.2611   -0.1757    1.6721 H   0  0  0  0  0  0  0  0  0  0  0  0
   -5.7934    0.7261    1.8160 H   0  0  0  0  0  0  0  0  0  0  0  0
   -4.5290   -0.2928   -2.0742 H   0  0  0  0  0  0  0  0  0  0  0  0
   -3.1737   -3.1442    0.1840 H   0  0  0  0  0  0  0  0  0  0  0  0
    0.4797    0.8751    1.2137 H   0  0  0  0  0  0  0  0  0  0  0  0
    2.8427    0.3723    1.4350 H   0  0  0  0  0  0  0  0  0  0  0  0
  1  2  1  0
  2  3  1  0
  3  4  1  0
  4  5  1  0
  5  6  2  0
  5  7  1  0
  7  8  2  0
  8  9  1  0
  9 10  2  0
 10 11  1  0
 11 12  1  0
 12 13  2  0
 12 14  1  0
 14 15  1  0
 15 16  1  0
 16 17  1  0
 17 18  1  0
 18 19  1  0
 18 20  1  0
 20 21  1  0
 21 22  2  0
 21 23  1  0
 10 24  1  0
 24 25  2  0
 25  7  1  0
 20 14  1  0
 19 15  1  0
  1 26  1  0
  1 27  1  0
  1 28  1  0
  2 29  1  0
  2 30  1  0
  3 31  1  0
  3 32  1  0
  8 33  1  0
  9 34  1  0
 11 35  1  0
 14 36  1  0
 15 37  1  0
 16 38  1  0
 16 39  1  0
 17 40  1  0
 17 41  1  0
 18 42  1  0
 19 43  1  0
 19 44  1  0
 20 45  1  0
 23 46  1  0
 24 47  1  0
 25 48  1  0
M  END
$$$$
