
     RDKit          3D

 51 53  0  0  0  0  0  0  0  0999 V2000
    9.7532   -0.8091    0.7714 C   0  0  0  0  0  0  0  0  0  0  0  0
    8.9506    0.0803    0.0063 O   0  0  0  0  0  0  0  0  0  0  0  0
    7.5639   -0.0635    0.3224 C   0  0  0  0  0  0  0  0  0  0  0  0
    6.7521    0.8702   -0.5759 C   0  0  0  0  0  0  0  0  0  0  0  0
    5.3580    0.9673   -0.1946 N   0  0  0  0  0  0  0  0  0  0  0  0
    4.4534   -0.0524   -0.4153 C   0  0  0  0  0  0  0  0  0  0  0  0
    4.8185   -1.1208   -0.9019 O   0  0  0  0  0  0  0  0  0  0  0  0
    3.0673    0.2268   -0.0308 C   0  0  0  0  0  0  0  0  0  0  0  0
    2.6572    1.6980    0.7517 S   0  0  0  0  0  0  0  0  0  0  0  0
    1.0167    1.2806    0.8628 C   0  0  0  0  0  0  0  0  0  0  0  0
    0.1227    2.1283    1.4305 N   0  0  0  0  0  0  0  0  0  0  0  0
   -1.0923    1.6850    1.4465 C   0  0  0  0  0  0  0  0  0  0  0  0
   -1.5051    0.4535    0.9801 N   0  0  0  0  0  0  0  0  0  0  0  0
   -2.9143    0.0928    1.0340 C   0  0  0  0  0  0  0  0  0  0  0  0
   -3.6404    0.5833   -0.2267 C   0  0  0  0  0  0  0  0  0  0  0  0
   -3.0637    1.2853   -1.0604 O   0  0  0  0  0  0  0  0  0  0  0  0
   -4.9876    0.2497   -0.3516 N   0  0  0  0  0  0  0  0  0  0  0  0
   -5.7222   -0.5914    0.5966 C   0  0  0  0  0  0  0  0  0  0  0  0
   -6.9824   -1.1941   -0.0140 C   0  0  0  0  0  0  0  0  0  0  0  0
   -7.9177   -0.1282   -0.5810 C   0  0  0  0  0  0  0  0  0  0  0  0
   -7.1754    1.0922   -1.1250 C   0  0  0  0  0  0  0  0  0  0  0  0
   -5.7334    0.7713   -1.4991 C   0  0  0  0  0  0  0  0  0  0  0  0
   -0.6191   -0.4341    0.3723 C   0  0  0  0  0  0  0  0  0  0  0  0
   -0.9688   -1.5303   -0.0581 O   0  0  0  0  0  0  0  0  0  0  0  0
    0.7596    0.0397    0.3221 C   0  0  0  0  0  0  0  0  0  0  0  0
    1.9473   -0.5852   -0.2151 C   0  0  0  0  0  0  0  0  0  0  0  0
    1.9954   -1.9265   -0.8842 C   0  0  0  0  0  0  0  0  0  0  0  0
   10.8001   -0.6481    0.4998 H   0  0  0  0  0  0  0  0  0  0  0  0
    9.4909   -1.8482    0.5493 H   0  0  0  0  0  0  0  0  0  0  0  0
    9.6341   -0.6101    1.8411 H   0  0  0  0  0  0  0  0  0  0  0  0
    7.2556   -1.1043    0.1746 H   0  0  0  0  0  0  0  0  0  0  0  0
    7.4066    0.1990    1.3753 H   0  0  0  0  0  0  0  0  0  0  0  0
    7.1706    1.8825   -0.5430 H   0  0  0  0  0  0  0  0  0  0  0  0
    6.8139    0.5331   -1.6173 H   0  0  0  0  0  0  0  0  0  0  0  0
    5.0094    1.8397    0.1827 H   0  0  0  0  0  0  0  0  0  0  0  0
   -1.8973    2.3079    1.8691 H   0  0  0  0  0  0  0  0  0  0  0  0
   -3.3766    0.5672    1.9063 H   0  0  0  0  0  0  0  0  0  0  0  0
   -3.0031   -0.9934    1.1159 H   0  0  0  0  0  0  0  0  0  0  0  0
   -5.9760    0.0376    1.4582 H   0  0  0  0  0  0  0  0  0  0  0  0
   -5.0769   -1.3985    0.9539 H   0  0  0  0  0  0  0  0  0  0  0  0
   -7.5145   -1.7988    0.7291 H   0  0  0  0  0  0  0  0  0  0  0  0
   -6.6924   -1.8766   -0.8234 H   0  0  0  0  0  0  0  0  0  0  0  0
   -8.5252   -0.5786   -1.3749 H   0  0  0  0  0  0  0  0  0  0  0  0
   -8.6219    0.2006    0.1926 H   0  0  0  0  0  0  0  0  0  0  0  0
   -7.1763    1.8779   -0.3579 H   0  0  0  0  0  0  0  0  0  0  0  0
   -7.7126    1.4978   -1.9898 H   0  0  0  0  0  0  0  0  0  0  0  0
   -5.6985    0.0082   -2.2857 H   0  0  0  0  0  0  0  0  0  0  0  0
   -5.2493    1.6704   -1.8943 H   0  0  0  0  0  0  0  0  0  0  0  0
    2.4758   -1.8458   -1.8652 H   0  0  0  0  0  0  0  0  0  0  0  0
    1.0066   -2.3546   -1.0544 H   0  0  0  0  0  0  0  0  0  0  0  0
    2.5633   -2.6334   -0.2704 H   0  0  0  0  0  0  0  0  0  0  0  0
  1  2  1  0
  2  3  1  0
  3  4  1  0
  4  5  1  0
  5  6  1  0
  6  7  2  0
  6  8  1  0
  8  9  1  0
  9 10  1  0
 10 11  1  0
 11 12  2  0
 12 13  1  0
 13 14  1  0
 14 15  1  0
 15 16  2  0
 15 17  1  0
 17 18  1  0
 18 19  1  0
 19 20  1  0
 20 21  1  0
 21 22  1  0
 13 23  1  0
 23 24  2  0
 23 25  1  0
 25 26  1  0
 26 27  1  0
 26  8  2  0
 25 10  2  0
 22 17  1  0
  1 28  1  0
  1 29  1  0
  1 30  1  0
  3 31  1  0
  3 32  1  0
  4 33  1  0
  4 34  1  0
  5 35  1  0
 12 36  1  0
 14 37  1  0
 14 38  1  0
 18 39  1  0
 18 40  1  0
 19 41  1  0
 19 42  1  0
 20 43  1  0
 20 44  1  0
 21 45  1  0
 21 46  1  0
 22 47  1  0
 22 48  1  0
 27 49  1  0
 27 50  1  0
 27 51  1  0
M  END
$$$$
