
     RDKit          3D

 46 48  0  0  0  0  0  0  0  0999 V2000
    6.3260    2.2251   -1.5022 C   0  0  0  0  0  0  0  0  0  0  0  0
    5.6914    2.5613   -0.1880 C   0  0  0  0  0  0  0  0  0  0  0  0
    5.7935    3.6407    0.3758 O   0  0  0  0  0  0  0  0  0  0  0  0
    4.9790    1.4956    0.2734 O   0  0  0  0  0  0  0  0  0  0  0  0
    4.3435    1.7203    1.5386 C   0  0  0  0  0  0  0  0  0  0  0  0
    3.5866    0.4623    1.9479 C   0  0  0  0  0  0  0  0  0  0  0  0
    2.4739    0.1200    0.9554 C   0  0  0  0  0  0  0  0  0  0  0  0
    1.7208   -1.0339    1.4493 N   0  0  0  0  0  0  0  0  0  0  0  0
    0.6924   -1.6149    0.6818 C   0  0  0  0  0  0  0  0  0  0  0  0
    0.0693   -0.8945   -0.3807 C   0  0  0  0  0  0  0  0  0  0  0  0
   -1.0142   -1.3772   -1.1577 C   0  0  0  0  0  0  0  0  0  0  0  0
   -1.7296   -0.4533   -2.4801 S   0  0  0  0  0  0  0  0  0  0  0  0
   -3.1444    0.2402   -1.6456 C   0  0  0  0  0  0  0  0  0  0  0  0
   -3.0248    1.4293   -0.9212 C   0  0  0  0  0  0  0  0  0  0  0  0
   -4.1335    1.9678   -0.2624 C   0  0  0  0  0  0  0  0  0  0  0  0
   -5.3785    1.3329   -0.3343 C   0  0  0  0  0  0  0  0  0  0  0  0
   -6.5646    1.8890    0.3970 C   0  0  0  0  0  0  0  0  0  0  0  0
   -5.4931    0.1399   -1.0575 C   0  0  0  0  0  0  0  0  0  0  0  0
   -4.3842   -0.3994   -1.7146 C   0  0  0  0  0  0  0  0  0  0  0  0
   -1.4864   -2.6652   -0.8178 C   0  0  0  0  0  0  0  0  0  0  0  0
   -2.4593   -3.4108   -1.3608 N   0  0  0  0  0  0  0  0  0  0  0  0
   -2.4974   -4.5839   -0.6352 O   0  0  0  0  0  0  0  0  0  0  0  0
   -1.5440   -4.5960    0.3630 N   0  0  0  0  0  0  0  0  0  0  0  0
   -0.9059   -3.4195    0.2868 C   0  0  0  0  0  0  0  0  0  0  0  0
    0.1525   -2.8785    1.0402 C   0  0  0  0  0  0  0  0  0  0  0  0
    0.6646   -3.6572    2.1323 N   0  0  0  0  0  4  0  0  0  0  0  0
   -0.1366   -4.0499    2.9896 O   0  0  0  0  0  0  0  0  0  0  0  0
    1.8909   -3.8462    2.1560 O   0  0  0  0  0  1  0  0  0  0  0  0
    5.5516    2.0468   -2.2520 H   0  0  0  0  0  0  0  0  0  0  0  0
    6.9464    3.0640   -1.8299 H   0  0  0  0  0  0  0  0  0  0  0  0
    6.9653    1.3457   -1.3920 H   0  0  0  0  0  0  0  0  0  0  0  0
    3.6530    2.5685    1.4610 H   0  0  0  0  0  0  0  0  0  0  0  0
    5.1075    1.9434    2.2926 H   0  0  0  0  0  0  0  0  0  0  0  0
    4.2849   -0.3821    2.0060 H   0  0  0  0  0  0  0  0  0  0  0  0
    3.1634    0.6042    2.9494 H   0  0  0  0  0  0  0  0  0  0  0  0
    1.8093    0.9860    0.8585 H   0  0  0  0  0  0  0  0  0  0  0  0
    2.9044   -0.1076   -0.0266 H   0  0  0  0  0  0  0  0  0  0  0  0
    2.3380   -1.7445    1.8608 H   0  0  0  0  0  0  0  0  0  0  0  0
    0.4344    0.1006   -0.6340 H   0  0  0  0  0  0  0  0  0  0  0  0
   -2.0713    1.9474   -0.8614 H   0  0  0  0  0  0  0  0  0  0  0  0
   -4.0190    2.8885    0.3056 H   0  0  0  0  0  0  0  0  0  0  0  0
   -7.4798    1.7509   -0.1886 H   0  0  0  0  0  0  0  0  0  0  0  0
   -6.6790    1.3848    1.3613 H   0  0  0  0  0  0  0  0  0  0  0  0
   -6.4507    2.9630    0.5747 H   0  0  0  0  0  0  0  0  0  0  0  0
   -6.4482   -0.3782   -1.1151 H   0  0  0  0  0  0  0  0  0  0  0  0
   -4.4979   -1.3257   -2.2732 H   0  0  0  0  0  0  0  0  0  0  0  0
  1  2  1  0
  2  3  2  0
  2  4  1  0
  4  5  1  0
  5  6  1  0
  6  7  1  0
  7  8  1  0
  8  9  1  0
  9 10  1  0
 10 11  2  0
 11 12  1  0
 12 13  1  0
 13 14  2  0
 14 15  1  0
 15 16  2  0
 16 17  1  0
 16 18  1  0
 18 19  2  0
 11 20  1  0
 20 21  2  0
 21 22  1  0
 22 23  1  0
 23 24  2  0
 24 25  1  0
 25 26  1  0
 26 27  2  0
 26 28  1  0
 25  9  2  0
 19 13  1  0
 24 20  1  0
  1 29  1  0
  1 30  1  0
  1 31  1  0
  5 32  1  0
  5 33  1  0
  6 34  1  0
  6 35  1  0
  7 36  1  0
  7 37  1  0
  8 38  1  0
 10 39  1  0
 14 40  1  0
 15 41  1  0
 17 42  1  0
 17 43  1  0
 17 44  1  0
 18 45  1  0
 19 46  1  0
M  CHG  2  26   1  28  -1
M  END
$$$$
