
     RDKit          3D

 51 54  0  0  0  0  0  0  0  0999 V2000
   -0.7951    2.5336   -1.6245 O   0  0  0  0  0  0  0  0  0  0  0  0
   -0.9573    1.4683   -1.0257 C   0  0  0  0  0  0  0  0  0  0  0  0
    0.1830    0.5582   -0.8416 C   0  0  0  0  0  0  0  0  0  0  0  0
    1.5560    0.9201   -0.8952 C   0  0  0  0  0  0  0  0  0  0  0  0
    2.2401   -0.2569   -0.7202 C   0  0  0  0  0  0  0  0  0  0  0  0
    3.6725   -0.6288   -0.6718 C   0  0  0  0  0  0  0  0  0  0  0  0
    4.3180    0.3295    0.1667 O   0  0  0  0  0  0  0  0  0  0  0  0
    5.6639    0.1872    0.3585 C   0  0  0  0  0  0  0  0  0  0  0  0
    6.2333    1.1453    1.2002 C   0  0  0  0  0  0  0  0  0  0  0  0
    7.5979    1.1220    1.4866 C   0  0  0  0  0  0  0  0  0  0  0  0
    8.4077    0.1360    0.9272 C   0  0  0  0  0  0  0  0  0  0  0  0
    7.8579   -0.8302    0.0722 C   0  0  0  0  0  0  0  0  0  0  0  0
    8.7297   -1.9126   -0.5163 C   0  0  0  0  0  0  0  0  0  0  0  0
    8.7987   -3.0124    0.2830 F   0  0  0  0  0  0  0  0  0  0  0  0
    8.2828   -2.3565   -1.7251 F   0  0  0  0  0  0  0  0  0  0  0  0
   10.0160   -1.5140   -0.7198 F   0  0  0  0  0  0  0  0  0  0  0  0
    6.4767   -0.8006   -0.2006 C   0  0  0  0  0  0  0  0  0  0  0  0
    1.3451   -1.2718   -0.5932 O   0  0  0  0  0  0  0  0  0  0  0  0
    0.0609   -0.7730   -0.6866 N   0  0  0  0  0  0  0  0  0  0  0  0
   -2.2261    1.0927   -0.5422 N   0  0  0  0  0  0  0  0  0  0  0  0
   -3.3457    1.9494   -0.9217 C   0  0  0  0  0  0  0  0  0  0  0  0
   -4.6712    1.1935   -0.8949 C   0  0  0  0  0  0  0  0  0  0  0  0
   -4.8865    0.5061    0.4617 C   0  0  0  0  0  0  0  0  0  0  0  0
   -6.2007   -0.2506    0.5070 C   0  0  0  0  0  0  0  0  0  0  0  0
   -6.4510   -1.3526   -0.3178 C   0  0  0  0  0  0  0  0  0  0  0  0
   -7.6774   -1.9946   -0.2269 C   0  0  0  0  0  0  0  0  0  0  0  0
   -8.6629   -1.6190    0.6138 N   0  0  0  0  0  0  0  0  0  0  0  0
   -8.4069   -0.5540    1.4019 C   0  0  0  0  0  0  0  0  0  0  0  0
   -7.2118    0.1509    1.3870 C   0  0  0  0  0  0  0  0  0  0  0  0
   -3.6847   -0.3935    0.7925 C   0  0  0  0  0  0  0  0  0  0  0  0
   -2.3843    0.4022    0.7403 C   0  0  0  0  0  0  0  0  0  0  0  0
    1.9732    1.9060   -1.0410 H   0  0  0  0  0  0  0  0  0  0  0  0
    4.0859   -0.5909   -1.6866 H   0  0  0  0  0  0  0  0  0  0  0  0
    3.7868   -1.6359   -0.2535 H   0  0  0  0  0  0  0  0  0  0  0  0
    5.6054    1.9173    1.6407 H   0  0  0  0  0  0  0  0  0  0  0  0
    8.0267    1.8718    2.1466 H   0  0  0  0  0  0  0  0  0  0  0  0
    9.4721    0.1232    1.1589 H   0  0  0  0  0  0  0  0  0  0  0  0
    6.0687   -1.5642   -0.8569 H   0  0  0  0  0  0  0  0  0  0  0  0
   -3.3678    2.7998   -0.2290 H   0  0  0  0  0  0  0  0  0  0  0  0
   -3.1847    2.3509   -1.9286 H   0  0  0  0  0  0  0  0  0  0  0  0
   -4.6693    0.4496   -1.7020 H   0  0  0  0  0  0  0  0  0  0  0  0
   -5.4936    1.8879   -1.1067 H   0  0  0  0  0  0  0  0  0  0  0  0
   -4.9241    1.2950    1.2264 H   0  0  0  0  0  0  0  0  0  0  0  0
   -5.7116   -1.7150   -1.0245 H   0  0  0  0  0  0  0  0  0  0  0  0
   -7.9023   -2.8553   -0.8496 H   0  0  0  0  0  0  0  0  0  0  0  0
   -9.2149   -0.2695    2.0685 H   0  0  0  0  0  0  0  0  0  0  0  0
   -7.0798    0.9973    2.0543 H   0  0  0  0  0  0  0  0  0  0  0  0
   -3.8049   -0.8363    1.7888 H   0  0  0  0  0  0  0  0  0  0  0  0
   -3.6176   -1.2258    0.0805 H   0  0  0  0  0  0  0  0  0  0  0  0
   -1.5457   -0.2550    0.9703 H   0  0  0  0  0  0  0  0  0  0  0  0
   -2.3812    1.1754    1.5201 H   0  0  0  0  0  0  0  0  0  0  0  0
  1  2  2  0
  2  3  1  0
  3  4  1  0
  4  5  2  0
  5  6  1  0
  6  7  1  0
  7  8  1  0
  8  9  2  0
  9 10  1  0
 10 11  2  0
 11 12  1  0
 12 13  1  0
 13 14  1  0
 13 15  1  0
 13 16  1  0
 12 17  2  0
  5 18  1  0
 18 19  1  0
  2 20  1  0
 20 21  1  0
 21 22  1  0
 22 23  1  0
 23 24  1  0
 24 25  2  0
 25 26  1  0
 26 27  2  0
 27 28  1  0
 28 29  2  0
 23 30  1  0
 30 31  1  0
 19  3  2  0
 31 20  1  0
 17  8  1  0
 29 24  1  0
  4 32  1  0
  6 33  1  0
  6 34  1  0
  9 35  1  0
 10 36  1  0
 11 37  1  0
 17 38  1  0
 21 39  1  0
 21 40  1  0
 22 41  1  0
 22 42  1  0
 23 43  1  0
 25 44  1  0
 26 45  1  0
 28 46  1  0
 29 47  1  0
 30 48  1  0
 30 49  1  0
 31 50  1  0
 31 51  1  0
M  END
$$$$
