
     RDKit          3D

 56 60  0  0  0  0  0  0  0  0999 V2000
   -5.9469   -0.1969    3.2090 C   0  0  0  0  0  0  0  0  0  0  0  0
   -5.2351   -0.5433    1.9334 C   0  0  0  0  0  0  0  0  0  0  0  0
   -5.6077    0.0835    0.7353 C   0  0  0  0  0  0  0  0  0  0  0  0
   -4.9518   -0.2219   -0.4583 C   0  0  0  0  0  0  0  0  0  0  0  0
   -3.9087   -1.1515   -0.4486 C   0  0  0  0  0  0  0  0  0  0  0  0
   -3.0593   -1.5532   -1.9661 S   0  0  0  0  0  6  0  0  0  0  0  0
   -3.8280   -0.9721   -3.0534 O   0  0  0  0  0  0  0  0  0  0  0  0
   -2.8299   -2.9881   -1.9321 O   0  0  0  0  0  0  0  0  0  0  0  0
   -1.5722   -0.7028   -1.7763 C   0  0  0  0  0  0  0  0  0  0  0  0
   -1.5398    0.6242   -1.9850 C   0  0  0  0  0  0  0  0  0  0  0  0
   -0.3399    1.4165   -1.7623 C   0  0  0  0  0  0  0  0  0  0  0  0
   -0.3863    2.8915   -1.9711 C   0  0  0  0  0  0  0  0  0  0  0  0
   -1.4423    3.4256   -2.3183 O   0  0  0  0  0  0  0  0  0  0  0  0
    0.7934    3.5755   -1.7401 N   0  0  0  0  0  0  0  0  0  0  0  0
    0.8322    4.9548   -1.9168 C   0  0  0  0  0  0  0  0  0  0  0  0
    1.9470    5.6623   -1.6956 C   0  0  0  0  0  0  0  0  0  0  0  0
    3.1460    4.9935   -1.2677 C   0  0  0  0  0  0  0  0  0  0  0  0
    3.1531    3.6674   -1.0820 C   0  0  0  0  0  0  0  0  0  0  0  0
    1.9110    2.8781   -1.3191 C   0  0  0  0  0  0  0  0  0  0  0  0
    1.9435    1.5997   -1.1195 N   0  0  0  0  0  0  0  0  0  0  0  0
    0.8133    0.8464   -1.3424 C   0  0  0  0  0  0  0  0  0  0  0  0
    0.8339   -0.5536   -1.1272 N   0  0  0  0  0  0  0  0  0  0  0  0
    2.0711   -1.1905   -0.6265 C   0  0  0  0  0  0  0  0  0  0  0  0
    2.0847   -1.1929    0.9055 C   0  0  0  0  0  0  0  0  0  0  0  0
    3.3199   -1.8599    1.4593 C   0  0  0  0  0  0  0  0  0  0  0  0
    3.3376   -3.2438    1.6786 C   0  0  0  0  0  0  0  0  0  0  0  0
    4.4860   -3.8662    2.1708 C   0  0  0  0  0  0  0  0  0  0  0  0
    5.6268   -3.1128    2.4433 C   0  0  0  0  0  0  0  0  0  0  0  0
    5.6208   -1.7364    2.2225 C   0  0  0  0  0  0  0  0  0  0  0  0
    4.4731   -1.1116    1.7310 C   0  0  0  0  0  0  0  0  0  0  0  0
   -0.3073   -1.3526   -1.3117 C   0  0  0  0  0  0  0  0  0  0  0  0
   -0.2368   -2.6296   -1.0716 N   0  0  0  0  0  0  0  0  0  0  0  0
   -3.5313   -1.7919    0.7358 C   0  0  0  0  0  0  0  0  0  0  0  0
   -4.1924   -1.4800    1.9251 C   0  0  0  0  0  0  0  0  0  0  0  0
   -5.6336   -0.8481    4.0320 H   0  0  0  0  0  0  0  0  0  0  0  0
   -7.0279   -0.3163    3.0832 H   0  0  0  0  0  0  0  0  0  0  0  0
   -5.7284    0.8378    3.4915 H   0  0  0  0  0  0  0  0  0  0  0  0
   -6.4184    0.8104    0.7276 H   0  0  0  0  0  0  0  0  0  0  0  0
   -5.2629    0.2658   -1.3797 H   0  0  0  0  0  0  0  0  0  0  0  0
   -2.4293    1.1619   -2.3117 H   0  0  0  0  0  0  0  0  0  0  0  0
   -0.0853    5.4387   -2.2418 H   0  0  0  0  0  0  0  0  0  0  0  0
    1.9679    6.7385   -1.8343 H   0  0  0  0  0  0  0  0  0  0  0  0
    4.0396    5.5866   -1.1025 H   0  0  0  0  0  0  0  0  0  0  0  0
    4.0353    3.1259   -0.7633 H   0  0  0  0  0  0  0  0  0  0  0  0
    2.9576   -0.6729   -1.0141 H   0  0  0  0  0  0  0  0  0  0  0  0
    2.1659   -2.2131   -1.0142 H   0  0  0  0  0  0  0  0  0  0  0  0
    2.0246   -0.1665    1.2884 H   0  0  0  0  0  0  0  0  0  0  0  0
    1.1932   -1.6995    1.2965 H   0  0  0  0  0  0  0  0  0  0  0  0
    2.4558   -3.8446    1.4621 H   0  0  0  0  0  0  0  0  0  0  0  0
    4.4905   -4.9402    2.3396 H   0  0  0  0  0  0  0  0  0  0  0  0
    6.5212   -3.5991    2.8243 H   0  0  0  0  0  0  0  0  0  0  0  0
    6.5116   -1.1499    2.4320 H   0  0  0  0  0  0  0  0  0  0  0  0
    4.4838   -0.0381    1.5597 H   0  0  0  0  0  0  0  0  0  0  0  0
   -1.1125   -3.1325   -1.2960 H   0  0  0  0  0  0  0  0  0  0  0  0
   -2.7338   -2.5328    0.7458 H   0  0  0  0  0  0  0  0  0  0  0  0
   -3.8928   -1.9793    2.8454 H   0  0  0  0  0  0  0  0  0  0  0  0
  1  2  1  0
  2  3  2  0
  3  4  1  0
  4  5  2  0
  5  6  1  0
  6  7  2  0
  6  8  2  0
  6  9  1  0
  9 10  2  0
 10 11  1  0
 11 12  1  0
 12 13  2  0
 12 14  1  0
 14 15  1  0
 15 16  2  0
 16 17  1  0
 17 18  2  0
 18 19  1  0
 19 20  2  0
 20 21  1  0
 21 22  1  0
 22 23  1  0
 23 24  1  0
 24 25  1  0
 25 26  2  0
 26 27  1  0
 27 28  2  0
 28 29  1  0
 29 30  2  0
 22 31  1  0
 31 32  2  3
  5 33  1  0
 33 34  2  0
 34  2  1  0
 31  9  1  0
 21 11  2  0
 30 25  1  0
 19 14  1  0
  1 35  1  0
  1 36  1  0
  1 37  1  0
  3 38  1  0
  4 39  1  0
 10 40  1  0
 15 41  1  0
 16 42  1  0
 17 43  1  0
 18 44  1  0
 23 45  1  0
 23 46  1  0
 24 47  1  0
 24 48  1  0
 26 49  1  0
 27 50  1  0
 28 51  1  0
 29 52  1  0
 30 53  1  0
 32 54  1  0
 33 55  1  0
 34 56  1  0
M  END
$$$$
