
     RDKit          3D

 47 49  0  0  0  0  0  0  0  0999 V2000
    1.6398   -2.0261   -1.7260 O   0  0  0  0  0  0  0  0  0  0  0  0
    1.1051   -0.9309   -1.6000 C   0  0  0  0  0  0  0  0  0  0  0  0
   -0.3928   -0.7350   -1.5430 C   0  0  0  0  0  0  0  0  0  0  0  0
   -1.1185   -2.0781   -1.5518 C   0  0  0  0  0  0  0  0  0  0  0  0
   -2.5744   -1.9106   -1.4873 N   0  0  0  0  0  0  0  0  0  0  0  0
   -3.1630   -1.7470   -0.2421 C   0  0  0  0  0  0  0  0  0  0  0  0
   -2.5550   -1.6986    0.8174 O   0  0  0  0  0  0  0  0  0  0  0  0
   -4.6402   -1.5993   -0.3823 C   0  0  0  0  0  0  0  0  0  0  0  0
   -5.5515   -1.4537    0.5902 C   0  0  0  0  0  0  0  0  0  0  0  0
   -5.2741   -1.4256    2.0274 C   0  0  0  0  0  0  0  0  0  0  0  0
   -4.9396   -2.5995    2.7165 C   0  0  0  0  0  0  0  0  0  0  0  0
   -4.6831   -2.5570    4.0882 C   0  0  0  0  0  0  0  0  0  0  0  0
   -4.7668   -1.3452    4.7643 C   0  0  0  0  0  0  0  0  0  0  0  0
   -4.5179   -1.3043    6.0796 F   0  0  0  0  0  0  0  0  0  0  0  0
   -5.1075   -0.1744    4.0967 C   0  0  0  0  0  0  0  0  0  0  0  0
   -5.3648   -0.2140    2.7252 C   0  0  0  0  0  0  0  0  0  0  0  0
   -5.0689   -1.6168   -2.0538 S   0  0  0  0  0  0  0  0  0  0  0  0
   -3.4062   -1.8281   -2.5833 C   0  0  0  0  0  0  0  0  0  0  0  0
   -2.9948   -1.8930   -4.1981 S   0  0  0  0  0  0  0  0  0  0  0  0
    1.8102    0.2520   -1.5015 N   0  0  0  0  0  0  0  0  0  0  0  0
    3.2506    0.2630   -1.6538 C   0  0  0  0  0  0  0  0  0  0  0  0
    3.8547    1.5615   -1.1378 C   0  0  0  0  0  0  0  0  0  0  0  0
    5.3733    1.5520   -1.2824 C   0  0  0  0  0  0  0  0  0  0  0  0
    5.9683    2.7866   -0.8135 N   0  0  0  0  0  0  0  0  0  0  0  0
    6.3840    3.0515    0.4601 C   0  0  0  0  0  0  0  0  0  0  0  0
    6.8726    4.3365    0.4105 C   0  0  0  0  0  0  0  0  0  0  0  0
    6.7659    4.8492   -0.8566 N   0  0  0  0  0  0  0  0  0  0  0  0
    6.2240    3.8910   -1.5735 C   0  0  0  0  0  0  0  0  0  0  0  0
   -0.6969   -0.1302   -2.4046 H   0  0  0  0  0  0  0  0  0  0  0  0
   -0.6389   -0.1733   -0.6346 H   0  0  0  0  0  0  0  0  0  0  0  0
   -0.7999   -2.6767   -0.6885 H   0  0  0  0  0  0  0  0  0  0  0  0
   -0.8518   -2.6541   -2.4444 H   0  0  0  0  0  0  0  0  0  0  0  0
   -6.6043   -1.3330    0.3407 H   0  0  0  0  0  0  0  0  0  0  0  0
   -4.8641   -3.5492    2.1921 H   0  0  0  0  0  0  0  0  0  0  0  0
   -4.4093   -3.4567    4.6290 H   0  0  0  0  0  0  0  0  0  0  0  0
   -5.1642    0.7603    4.6466 H   0  0  0  0  0  0  0  0  0  0  0  0
   -5.6290    0.7048    2.2080 H   0  0  0  0  0  0  0  0  0  0  0  0
    1.3030    1.1170   -1.6451 H   0  0  0  0  0  0  0  0  0  0  0  0
    3.6694   -0.5966   -1.1178 H   0  0  0  0  0  0  0  0  0  0  0  0
    3.4677    0.1299   -2.7198 H   0  0  0  0  0  0  0  0  0  0  0  0
    3.4291    2.4123   -1.6853 H   0  0  0  0  0  0  0  0  0  0  0  0
    3.5782    1.7067   -0.0854 H   0  0  0  0  0  0  0  0  0  0  0  0
    5.6678    1.4207   -2.3299 H   0  0  0  0  0  0  0  0  0  0  0  0
    5.8182    0.7325   -0.7065 H   0  0  0  0  0  0  0  0  0  0  0  0
    6.3020    2.3380    1.2676 H   0  0  0  0  0  0  0  0  0  0  0  0
    7.2959    4.9189    1.2186 H   0  0  0  0  0  0  0  0  0  0  0  0
    5.9977    3.9485   -2.6301 H   0  0  0  0  0  0  0  0  0  0  0  0
  1  2  2  0
  2  3  1  0
  3  4  1  0
  4  5  1  0
  5  6  1  0
  6  7  2  0
  6  8  1  0
  8  9  2  3
  9 10  1  0
 10 11  2  0
 11 12  1  0
 12 13  2  0
 13 14  1  0
 13 15  1  0
 15 16  2  0
  8 17  1  0
 17 18  1  0
 18 19  2  0
  2 20  1  0
 20 21  1  0
 21 22  1  0
 22 23  1  0
 23 24  1  0
 24 25  1  0
 25 26  2  0
 26 27  1  0
 27 28  2  0
 18  5  1  0
 28 24  1  0
 16 10  1  0
  3 29  1  0
  3 30  1  0
  4 31  1  0
  4 32  1  0
  9 33  1  0
 11 34  1  0
 12 35  1  0
 15 36  1  0
 16 37  1  0
 20 38  1  0
 21 39  1  0
 21 40  1  0
 22 41  1  0
 22 42  1  0
 23 43  1  0
 23 44  1  0
 25 45  1  0
 26 46  1  0
 28 47  1  0
M  END
$$$$
