
     RDKit          3D

 50 52  0  0  0  0  0  0  0  0999 V2000
   -4.5335   -3.1919   -1.8682 C   0  0  0  0  0  0  0  0  0  0  0  0
   -4.7876   -2.3750   -0.7332 O   0  0  0  0  0  0  0  0  0  0  0  0
   -3.9174   -1.3449   -0.4874 C   0  0  0  0  0  0  0  0  0  0  0  0
   -2.7943   -1.0494   -1.2575 C   0  0  0  0  0  0  0  0  0  0  0  0
   -1.9641    0.0176   -0.8942 C   0  0  0  0  0  0  0  0  0  0  0  0
   -0.7824    0.3063   -1.7369 C   0  0  0  0  0  0  0  0  0  0  0  0
   -0.9624    0.4551   -2.9426 O   0  0  0  0  0  0  0  0  0  0  0  0
    0.4658    0.3921   -1.1333 N   0  0  0  0  0  0  0  0  0  0  0  0
    0.7821   -0.1103    0.2141 C   0  0  0  0  0  0  0  0  0  0  0  0
    2.2401   -0.5941    0.3325 C   0  0  0  0  0  0  0  0  0  0  0  0
    3.1763    0.4902   -0.0137 N   0  0  0  0  0  0  0  0  0  0  0  0
    4.5498    0.3349    0.2135 C   0  0  0  0  0  0  0  0  0  0  0  0
    5.1345   -0.9469    0.2357 C   0  0  0  0  0  0  0  0  0  0  0  0
    6.5060   -1.1280    0.4440 C   0  0  0  0  0  0  0  0  0  0  0  0
    7.1650   -2.7185    0.4446 Cl  0  0  0  0  0  0  0  0  0  0  0  0
    7.3424   -0.0388    0.6461 C   0  0  0  0  0  0  0  0  0  0  0  0
    6.7987    1.2418    0.6492 C   0  0  0  0  0  0  0  0  0  0  0  0
    5.4232    1.4293    0.4420 C   0  0  0  0  0  0  0  0  0  0  0  0
    4.8569    3.0642    0.5693 Cl  0  0  0  0  0  0  0  0  0  0  0  0
    2.7745    1.3637   -1.1444 C   0  0  0  0  0  0  0  0  0  0  0  0
    1.6140    0.7683   -1.9636 C   0  0  0  0  0  0  0  0  0  0  0  0
   -2.2615    0.8275    0.2090 C   0  0  0  0  0  0  0  0  0  0  0  0
   -3.3783    0.5434    0.9927 C   0  0  0  0  0  0  0  0  0  0  0  0
   -3.7555    1.2508    2.1043 O   0  0  0  0  0  0  0  0  0  0  0  0
   -2.9113    2.3129    2.5271 C   0  0  0  0  0  0  0  0  0  0  0  0
   -4.2037   -0.5386    0.6310 C   0  0  0  0  0  0  0  0  0  0  0  0
   -5.2809   -0.8557    1.4307 O   0  0  0  0  0  0  0  0  0  0  0  0
   -6.4458   -0.1757    0.9655 C   0  0  0  0  0  0  0  0  0  0  0  0
   -5.3196   -3.9515   -1.9160 H   0  0  0  0  0  0  0  0  0  0  0  0
   -4.5789   -2.6077   -2.7932 H   0  0  0  0  0  0  0  0  0  0  0  0
   -3.5743   -3.7114   -1.7738 H   0  0  0  0  0  0  0  0  0  0  0  0
   -2.5331   -1.6261   -2.1392 H   0  0  0  0  0  0  0  0  0  0  0  0
    0.1028   -0.9275    0.4760 H   0  0  0  0  0  0  0  0  0  0  0  0
    0.6132    0.7187    0.9109 H   0  0  0  0  0  0  0  0  0  0  0  0
    2.4169   -0.9297    1.3612 H   0  0  0  0  0  0  0  0  0  0  0  0
    2.3817   -1.4486   -0.3406 H   0  0  0  0  0  0  0  0  0  0  0  0
    4.5299   -1.8322    0.0639 H   0  0  0  0  0  0  0  0  0  0  0  0
    8.4075   -0.1780    0.8098 H   0  0  0  0  0  0  0  0  0  0  0  0
    7.4474    2.0961    0.8283 H   0  0  0  0  0  0  0  0  0  0  0  0
    3.6129    1.5534   -1.8259 H   0  0  0  0  0  0  0  0  0  0  0  0
    2.4418    2.3239   -0.7338 H   0  0  0  0  0  0  0  0  0  0  0  0
    1.9458   -0.1408   -2.4805 H   0  0  0  0  0  0  0  0  0  0  0  0
    1.2957    1.4833   -2.7306 H   0  0  0  0  0  0  0  0  0  0  0  0
   -1.6146    1.6713    0.4228 H   0  0  0  0  0  0  0  0  0  0  0  0
   -1.9071    1.9486    2.7685 H   0  0  0  0  0  0  0  0  0  0  0  0
   -2.8740    3.1082    1.7756 H   0  0  0  0  0  0  0  0  0  0  0  0
   -3.3397    2.7377    3.4400 H   0  0  0  0  0  0  0  0  0  0  0  0
   -6.7096   -0.4836   -0.0521 H   0  0  0  0  0  0  0  0  0  0  0  0
   -7.2761   -0.4458    1.6249 H   0  0  0  0  0  0  0  0  0  0  0  0
   -6.3192    0.9115    1.0109 H   0  0  0  0  0  0  0  0  0  0  0  0
  1  2  1  0
  2  3  1  0
  3  4  2  0
  4  5  1  0
  5  6  1  0
  6  7  2  0
  6  8  1  0
  8  9  1  0
  9 10  1  0
 10 11  1  0
 11 12  1  0
 12 13  2  0
 13 14  1  0
 14 15  1  0
 14 16  2  0
 16 17  1  0
 17 18  2  0
 18 19  1  0
 11 20  1  0
 20 21  1  0
  5 22  2  0
 22 23  1  0
 23 24  1  0
 24 25  1  0
 23 26  2  0
 26 27  1  0
 27 28  1  0
 26  3  1  0
 21  8  1  0
 18 12  1  0
  1 29  1  0
  1 30  1  0
  1 31  1  0
  4 32  1  0
  9 33  1  0
  9 34  1  0
 10 35  1  0
 10 36  1  0
 13 37  1  0
 16 38  1  0
 17 39  1  0
 20 40  1  0
 20 41  1  0
 21 42  1  0
 21 43  1  0
 22 44  1  0
 25 45  1  0
 25 46  1  0
 25 47  1  0
 28 48  1  0
 28 49  1  0
 28 50  1  0
M  END
$$$$
