
     RDKit          3D

 50 53  0  0  0  0  0  0  0  0999 V2000
   -2.1411   -4.3311   -1.9143 C   0  0  0  0  0  0  0  0  0  0  0  0
   -1.5441   -3.4488   -0.9627 O   0  0  0  0  0  0  0  0  0  0  0  0
   -1.4280   -2.1681   -1.4023 C   0  0  0  0  0  0  0  0  0  0  0  0
   -1.8034   -1.7533   -2.4864 O   0  0  0  0  0  0  0  0  0  0  0  0
   -0.7993   -1.3464   -0.3363 C   0  0  0  0  0  0  0  0  0  0  0  0
   -1.1441   -0.0560   -0.0924 C   0  0  0  0  0  0  0  0  0  0  0  0
   -2.2024    0.6738   -0.8074 C   0  0  0  0  0  0  0  0  0  0  0  0
   -1.8725    1.7230   -1.6738 C   0  0  0  0  0  0  0  0  0  0  0  0
   -2.8728    2.4207   -2.3531 C   0  0  0  0  0  0  0  0  0  0  0  0
   -4.2117    2.0741   -2.1709 C   0  0  0  0  0  0  0  0  0  0  0  0
   -4.5521    1.0270   -1.3086 C   0  0  0  0  0  0  0  0  0  0  0  0
   -5.9267    0.6676   -1.1206 C   0  0  0  0  0  0  0  0  0  0  0  0
   -7.0392    0.3800   -0.9566 N   0  0  0  0  0  0  0  0  0  0  0  0
   -3.5483    0.3307   -0.6253 C   0  0  0  0  0  0  0  0  0  0  0  0
   -0.4106    0.7449    0.9832 C   0  0  0  0  0  0  0  0  0  0  0  0
    0.5694   -0.1353    1.7987 C   0  0  0  0  0  0  0  0  0  0  0  0
   -0.1811   -1.1451    2.6873 C   0  0  0  0  0  0  0  0  0  0  0  0
   -0.2633   -2.4342    1.8449 C   0  0  0  0  0  0  0  0  0  0  0  0
    0.2951   -2.0289    0.4764 C   0  0  0  0  0  0  0  0  0  0  0  0
    1.2614   -1.0075    0.8584 N   0  0  0  0  0  0  0  0  0  0  0  0
    2.2889   -0.6659    0.0117 C   0  0  0  0  0  0  0  0  0  0  0  0
    2.5445   -1.2924   -1.0111 O   0  0  0  0  0  0  0  0  0  0  0  0
    2.9957    0.4393    0.4079 N   0  0  0  0  0  0  0  0  0  0  0  0
    4.1264    0.8760   -0.3775 C   0  0  0  0  0  0  0  0  0  0  0  0
    4.6553    2.2133    0.0454 C   0  0  0  0  0  0  0  0  0  0  0  0
    4.8640    2.5937    1.4921 C   0  0  0  0  0  0  0  0  0  0  0  0
    3.7888    3.2724    0.6844 C   0  0  0  0  0  0  0  0  0  0  0  0
   -2.1776   -5.3305   -1.4723 H   0  0  0  0  0  0  0  0  0  0  0  0
   -1.5376   -4.3778   -2.8263 H   0  0  0  0  0  0  0  0  0  0  0  0
   -3.1642   -4.0149   -2.1405 H   0  0  0  0  0  0  0  0  0  0  0  0
   -0.8309    1.9892   -1.8431 H   0  0  0  0  0  0  0  0  0  0  0  0
   -2.6053    3.2257   -3.0333 H   0  0  0  0  0  0  0  0  0  0  0  0
   -4.9835    2.6193   -2.7110 H   0  0  0  0  0  0  0  0  0  0  0  0
   -3.8163   -0.4842    0.0445 H   0  0  0  0  0  0  0  0  0  0  0  0
   -1.1273    1.2233    1.6617 H   0  0  0  0  0  0  0  0  0  0  0  0
    0.1610    1.5437    0.4932 H   0  0  0  0  0  0  0  0  0  0  0  0
    1.2519    0.4889    2.3821 H   0  0  0  0  0  0  0  0  0  0  0  0
   -1.1690   -0.7874    2.9951 H   0  0  0  0  0  0  0  0  0  0  0  0
    0.3931   -1.3493    3.5988 H   0  0  0  0  0  0  0  0  0  0  0  0
    0.3801   -3.1980    2.2989 H   0  0  0  0  0  0  0  0  0  0  0  0
   -1.2800   -2.8388    1.8070 H   0  0  0  0  0  0  0  0  0  0  0  0
    0.7806   -2.8493   -0.0609 H   0  0  0  0  0  0  0  0  0  0  0  0
    3.1099    0.5008    1.4055 H   0  0  0  0  0  0  0  0  0  0  0  0
    4.9136    0.1189   -0.2882 H   0  0  0  0  0  0  0  0  0  0  0  0
    3.8242    0.9194   -1.4302 H   0  0  0  0  0  0  0  0  0  0  0  0
    5.4101    2.5525   -0.6588 H   0  0  0  0  0  0  0  0  0  0  0  0
    5.7501    3.1698    1.7379 H   0  0  0  0  0  0  0  0  0  0  0  0
    4.5633    1.9100    2.2756 H   0  0  0  0  0  0  0  0  0  0  0  0
    2.7539    3.0430    0.9088 H   0  0  0  0  0  0  0  0  0  0  0  0
    3.9510    4.3024    0.3857 H   0  0  0  0  0  0  0  0  0  0  0  0
  1  2  1  0
  2  3  1  0
  3  4  2  0
  3  5  1  0
  5  6  2  0
  6  7  1  0
  7  8  2  0
  8  9  1  0
  9 10  2  0
 10 11  1  0
 11 12  1  0
 12 13  3  0
 11 14  2  0
  6 15  1  0
 15 16  1  0
 16 17  1  0
 17 18  1  0
 18 19  1  0
 19 20  1  0
 20 21  1  0
 21 22  2  0
 21 23  1  0
 23 24  1  0
 24 25  1  0
 25 26  1  0
 26 27  1  0
 19  5  1  0
 27 25  1  0
 14  7  1  0
 20 16  1  0
  1 28  1  0
  1 29  1  0
  1 30  1  0
  8 31  1  0
  9 32  1  0
 10 33  1  0
 14 34  1  0
 15 35  1  0
 15 36  1  0
 16 37  1  0
 17 38  1  0
 17 39  1  0
 18 40  1  0
 18 41  1  0
 19 42  1  0
 23 43  1  0
 24 44  1  0
 24 45  1  0
 25 46  1  0
 26 47  1  0
 26 48  1  0
 27 49  1  0
 27 50  1  0
M  END
$$$$
