
     RDKit          3D

 45 48  0  0  0  0  0  0  0  0999 V2000
   -3.5540   -2.8017   -0.9099 C   0  0  0  0  0  0  0  0  0  0  0  0
   -3.3172   -1.4273   -0.3944 C   0  0  0  0  0  0  0  0  0  0  0  0
   -4.2043   -0.6572    0.3495 C   0  0  0  0  0  0  0  0  0  0  0  0
   -5.4345   -0.8959    0.7865 O   0  0  0  0  0  0  0  0  0  0  0  0
   -3.5954    0.5330    0.6130 N   0  0  0  0  0  0  0  0  0  0  0  0
   -2.3386    0.5582    0.0679 C   0  0  0  0  0  0  0  0  0  0  0  0
   -1.4322    1.6173    0.1467 C   0  0  0  0  0  0  0  0  0  0  0  0
   -0.2132    1.4318   -0.5048 C   0  0  0  0  0  0  0  0  0  0  0  0
    0.0541    0.2206   -1.1606 C   0  0  0  0  0  0  0  0  0  0  0  0
    1.6309    0.0217   -1.9551 S   0  0  0  0  0  6  0  0  0  0  0  0
    1.7265   -1.3274   -2.4739 O   0  0  0  0  0  0  0  0  0  0  0  0
    1.8271    1.1711   -2.8128 O   0  0  0  0  0  0  0  0  0  0  0  0
    2.7238    0.1371   -0.6454 N   0  0  0  0  0  0  0  0  0  0  0  0
    2.6157   -0.9242    0.3965 C   0  0  0  0  0  0  0  0  0  0  0  0
    3.8382   -1.8318    0.4081 C   0  0  0  0  0  0  0  0  0  0  0  0
    5.1209   -1.0487    0.6785 C   0  0  0  0  0  0  0  0  0  0  0  0
    5.0614    0.3728    0.1232 C   0  0  0  0  0  0  0  0  0  0  0  0
    4.1132    0.4670   -1.0652 C   0  0  0  0  0  0  0  0  0  0  0  0
   -0.8823   -0.8307   -1.2117 C   0  0  0  0  0  0  0  0  0  0  0  0
   -2.1231   -0.6478   -0.5731 C   0  0  0  0  0  0  0  0  0  0  0  0
   -1.8540    2.8700    0.8581 C   0  0  0  0  0  0  0  0  0  0  0  0
   -2.9570    2.5556    1.8958 C   0  0  0  0  0  0  0  0  0  0  0  0
   -4.1042    1.6920    1.3286 C   0  0  0  0  0  0  0  0  0  0  0  0
   -4.5439   -2.8757   -1.3717 H   0  0  0  0  0  0  0  0  0  0  0  0
   -3.4990   -3.5264   -0.0914 H   0  0  0  0  0  0  0  0  0  0  0  0
   -2.8139   -3.0828   -1.6652 H   0  0  0  0  0  0  0  0  0  0  0  0
   -5.6793   -1.7886    0.4870 H   0  0  0  0  0  0  0  0  0  0  0  0
    0.5326    2.2245   -0.5036 H   0  0  0  0  0  0  0  0  0  0  0  0
    2.4997   -0.4281    1.3676 H   0  0  0  0  0  0  0  0  0  0  0  0
    1.7192   -1.5355    0.2542 H   0  0  0  0  0  0  0  0  0  0  0  0
    3.9223   -2.3392   -0.5614 H   0  0  0  0  0  0  0  0  0  0  0  0
    3.7213   -2.6175    1.1629 H   0  0  0  0  0  0  0  0  0  0  0  0
    5.3136   -1.0017    1.7570 H   0  0  0  0  0  0  0  0  0  0  0  0
    5.9666   -1.5897    0.2375 H   0  0  0  0  0  0  0  0  0  0  0  0
    4.7214    1.0542    0.9137 H   0  0  0  0  0  0  0  0  0  0  0  0
    6.0672    0.7001   -0.1631 H   0  0  0  0  0  0  0  0  0  0  0  0
    4.1308    1.4932   -1.4483 H   0  0  0  0  0  0  0  0  0  0  0  0
    4.4420   -0.2065   -1.8653 H   0  0  0  0  0  0  0  0  0  0  0  0
   -0.6585   -1.7562   -1.7335 H   0  0  0  0  0  0  0  0  0  0  0  0
   -2.2313    3.5870    0.1198 H   0  0  0  0  0  0  0  0  0  0  0  0
   -0.9975    3.3243    1.3684 H   0  0  0  0  0  0  0  0  0  0  0  0
   -3.3612    3.4894    2.3021 H   0  0  0  0  0  0  0  0  0  0  0  0
   -2.4997    2.0149    2.7359 H   0  0  0  0  0  0  0  0  0  0  0  0
   -4.7038    2.2649    0.6127 H   0  0  0  0  0  0  0  0  0  0  0  0
   -4.7504    1.3397    2.1388 H   0  0  0  0  0  0  0  0  0  0  0  0
  1  2  1  0
  2  3  2  0
  3  4  1  0
  3  5  1  0
  5  6  1  0
  6  7  2  0
  7  8  1  0
  8  9  2  0
  9 10  1  0
 10 11  2  0
 10 12  2  0
 10 13  1  0
 13 14  1  0
 14 15  1  0
 15 16  1  0
 16 17  1  0
 17 18  1  0
  9 19  1  0
 19 20  2  0
  7 21  1  0
 21 22  1  0
 22 23  1  0
 20  2  1  0
 23  5  1  0
 20  6  1  0
 18 13  1  0
  1 24  1  0
  1 25  1  0
  1 26  1  0
  4 27  1  0
  8 28  1  0
 14 29  1  0
 14 30  1  0
 15 31  1  0
 15 32  1  0
 16 33  1  0
 16 34  1  0
 17 35  1  0
 17 36  1  0
 18 37  1  0
 18 38  1  0
 19 39  1  0
 21 40  1  0
 21 41  1  0
 22 42  1  0
 22 43  1  0
 23 44  1  0
 23 45  1  0
M  END
$$$$
