
     RDKit          3D

 43 44  0  0  0  0  0  0  0  0999 V2000
   -6.2463    1.1109    1.4176 C   0  0  0  0  0  0  0  0  0  0  0  0
   -5.3065    1.9014    0.5266 C   0  0  0  0  0  0  0  0  0  0  0  0
   -4.1994    1.0831    0.1187 O   0  0  0  0  0  0  0  0  0  0  0  0
   -3.1357    1.0485    0.9779 C   0  0  0  0  0  0  0  0  0  0  0  0
   -3.1163    1.6332    2.0555 O   0  0  0  0  0  0  0  0  0  0  0  0
   -2.0157    0.2524    0.4471 C   0  0  0  0  0  0  0  0  0  0  0  0
   -0.7770    0.4221    0.9338 N   0  0  0  0  0  0  0  0  0  0  0  0
    0.0534   -0.2728    0.1185 N   0  0  0  0  0  0  0  0  0  0  0  0
    1.4639   -0.0828    0.2587 C   0  0  0  0  0  0  0  0  0  0  0  0
    1.9514    0.5507    1.4129 C   0  0  0  0  0  0  0  0  0  0  0  0
    3.3237    0.7570    1.5857 C   0  0  0  0  0  0  0  0  0  0  0  0
    4.2356    0.3498    0.6124 C   0  0  0  0  0  0  0  0  0  0  0  0
    5.5410    0.6171    0.9101 O   0  0  0  0  0  0  0  0  0  0  0  0
    6.5624    0.1199    0.0475 C   0  0  0  0  0  0  0  0  0  0  0  0
    6.8835    1.1271   -1.0430 C   0  0  0  0  0  0  0  0  0  0  0  0
    3.7555   -0.2509   -0.5491 C   0  0  0  0  0  0  0  0  0  0  0  0
    2.3789   -0.4629   -0.7283 C   0  0  0  0  0  0  0  0  0  0  0  0
   -0.6744   -1.0860   -0.7401 C   0  0  0  0  0  0  0  0  0  0  0  0
   -0.1098   -2.1616   -1.6011 C   0  0  0  0  0  0  0  0  0  0  0  0
   -2.0120   -0.7353   -0.5749 C   0  0  0  0  0  0  0  0  0  0  0  0
   -3.1207   -1.3271   -1.3155 C   0  0  0  0  0  0  0  0  0  0  0  0
   -4.3584   -1.7628   -0.5723 C   0  0  0  0  0  0  0  0  0  0  0  0
   -3.0334   -1.5270   -2.5273 O   0  0  0  0  0  0  0  0  0  0  0  0
   -6.5904    0.2057    0.9070 H   0  0  0  0  0  0  0  0  0  0  0  0
   -5.7423    0.7872    2.3336 H   0  0  0  0  0  0  0  0  0  0  0  0
   -7.1174    1.7125    1.6921 H   0  0  0  0  0  0  0  0  0  0  0  0
   -4.9643    2.8201    1.0168 H   0  0  0  0  0  0  0  0  0  0  0  0
   -5.8325    2.2025   -0.3853 H   0  0  0  0  0  0  0  0  0  0  0  0
    1.2766    0.8835    2.2004 H   0  0  0  0  0  0  0  0  0  0  0  0
    3.6815    1.2420    2.4911 H   0  0  0  0  0  0  0  0  0  0  0  0
    6.3290   -0.8721   -0.3545 H   0  0  0  0  0  0  0  0  0  0  0  0
    7.4553   -0.0116    0.6694 H   0  0  0  0  0  0  0  0  0  0  0  0
    6.0198    1.3062   -1.6900 H   0  0  0  0  0  0  0  0  0  0  0  0
    7.1557    2.0927   -0.6039 H   0  0  0  0  0  0  0  0  0  0  0  0
    7.7147    0.7756   -1.6610 H   0  0  0  0  0  0  0  0  0  0  0  0
    4.4201   -0.5502   -1.3527 H   0  0  0  0  0  0  0  0  0  0  0  0
    2.0680   -0.8830   -1.6770 H   0  0  0  0  0  0  0  0  0  0  0  0
    0.2088   -1.7578   -2.5666 H   0  0  0  0  0  0  0  0  0  0  0  0
    0.7287   -2.6706   -1.1168 H   0  0  0  0  0  0  0  0  0  0  0  0
   -0.8576   -2.9368   -1.7995 H   0  0  0  0  0  0  0  0  0  0  0  0
   -5.2110   -1.1624   -0.8984 H   0  0  0  0  0  0  0  0  0  0  0  0
   -4.2354   -1.6714    0.5096 H   0  0  0  0  0  0  0  0  0  0  0  0
   -4.5510   -2.8159   -0.7984 H   0  0  0  0  0  0  0  0  0  0  0  0
  1  2  1  0
  2  3  1  0
  3  4  1  0
  4  5  2  0
  4  6  1  0
  6  7  2  0
  7  8  1  0
  8  9  1  0
  9 10  2  0
 10 11  1  0
 11 12  2  0
 12 13  1  0
 13 14  1  0
 14 15  1  0
 12 16  1  0
 16 17  2  0
  8 18  1  0
 18 19  1  0
 18 20  2  0
 20 21  1  0
 21 22  1  0
 21 23  2  0
 20  6  1  0
 17  9  1  0
  1 24  1  0
  1 25  1  0
  1 26  1  0
  2 27  1  0
  2 28  1  0
 10 29  1  0
 11 30  1  0
 14 31  1  0
 14 32  1  0
 15 33  1  0
 15 34  1  0
 15 35  1  0
 16 36  1  0
 17 37  1  0
 19 38  1  0
 19 39  1  0
 19 40  1  0
 22 41  1  0
 22 42  1  0
 22 43  1  0
M  END
$$$$
