
     RDKit          3D

 50 52  0  0  0  0  0  0  0  0999 V2000
    1.9553    2.4230   -3.1496 C   0  0  0  0  0  0  0  0  0  0  0  0
    2.2128    1.5578   -2.0515 O   0  0  0  0  0  0  0  0  0  0  0  0
    2.7325    2.1265   -0.9119 C   0  0  0  0  0  0  0  0  0  0  0  0
    3.1416    3.4587   -0.8010 C   0  0  0  0  0  0  0  0  0  0  0  0
    3.6708    3.9306    0.4013 C   0  0  0  0  0  0  0  0  0  0  0  0
    3.7981    3.0747    1.4919 C   0  0  0  0  0  0  0  0  0  0  0  0
    3.3937    1.7420    1.3900 C   0  0  0  0  0  0  0  0  0  0  0  0
    2.8540    1.2593    0.1960 C   0  0  0  0  0  0  0  0  0  0  0  0
    2.4128   -0.0711    0.0204 N   0  0  0  0  0  0  0  0  0  0  0  0
    2.3911   -1.0965    0.9433 C   0  0  0  0  0  0  0  0  0  0  0  0
    2.7002   -1.0151    2.1294 O   0  0  0  0  0  0  0  0  0  0  0  0
    1.9084   -2.4241    0.3518 C   0  0  0  0  0  0  0  0  0  0  0  0
    0.5118   -2.6415    0.5449 O   0  0  0  0  0  0  0  0  0  0  0  0
   -0.2902   -1.9512   -0.3022 C   0  0  0  0  0  0  0  0  0  0  0  0
    0.0720   -1.2127   -1.2008 O   0  0  0  0  0  0  0  0  0  0  0  0
   -1.6906   -2.2628    0.0463 C   0  0  0  0  0  0  0  0  0  0  0  0
   -2.0789   -3.6104   -0.0740 C   0  0  0  0  0  0  0  0  0  0  0  0
   -3.4025   -3.9752    0.1874 C   0  0  0  0  0  0  0  0  0  0  0  0
   -3.8106   -5.3789    0.0596 N   0  0  0  0  0  4  0  0  0  0  0  0
   -2.9641   -6.1878   -0.3456 O   0  0  0  0  0  0  0  0  0  0  0  0
   -4.9763   -5.6708    0.3604 O   0  0  0  0  0  1  0  0  0  0  0  0
   -4.3403   -3.0106    0.5587 C   0  0  0  0  0  0  0  0  0  0  0  0
   -3.9396   -1.6763    0.6719 C   0  0  0  0  0  0  0  0  0  0  0  0
   -2.6127   -1.2690    0.4305 C   0  0  0  0  0  0  0  0  0  0  0  0
   -2.3568    0.0857    0.5962 N   0  0  0  0  0  0  0  0  0  0  0  0
   -1.3115    0.5275    1.5260 C   0  0  0  0  0  0  0  0  0  0  0  0
   -1.0587    1.9697    1.1033 C   0  0  0  0  0  0  0  0  0  0  0  0
   -1.1833    1.8935   -0.4085 C   0  0  0  0  0  0  0  0  0  0  0  0
   -2.3202    0.8987   -0.6299 C   0  0  0  0  0  0  0  0  0  0  0  0
    1.2468    3.2111   -2.8750 H   0  0  0  0  0  0  0  0  0  0  0  0
    1.4968    1.8257   -3.9435 H   0  0  0  0  0  0  0  0  0  0  0  0
    2.8845    2.8445   -3.5457 H   0  0  0  0  0  0  0  0  0  0  0  0
    3.0693    4.1530   -1.6308 H   0  0  0  0  0  0  0  0  0  0  0  0
    3.9905    4.9662    0.4859 H   0  0  0  0  0  0  0  0  0  0  0  0
    4.2155    3.4405    2.4268 H   0  0  0  0  0  0  0  0  0  0  0  0
    3.5120    1.1064    2.2615 H   0  0  0  0  0  0  0  0  0  0  0  0
    1.9781   -0.2450   -0.8881 H   0  0  0  0  0  0  0  0  0  0  0  0
    2.4441   -3.2303    0.8655 H   0  0  0  0  0  0  0  0  0  0  0  0
    2.1793   -2.5063   -0.7081 H   0  0  0  0  0  0  0  0  0  0  0  0
   -1.3450   -4.3552   -0.3773 H   0  0  0  0  0  0  0  0  0  0  0  0
   -5.3767   -3.2704    0.7637 H   0  0  0  0  0  0  0  0  0  0  0  0
   -4.6744   -0.9276    0.9678 H   0  0  0  0  0  0  0  0  0  0  0  0
   -1.6568    0.4705    2.5633 H   0  0  0  0  0  0  0  0  0  0  0  0
   -0.3897   -0.0517    1.4353 H   0  0  0  0  0  0  0  0  0  0  0  0
   -0.0841    2.3397    1.4326 H   0  0  0  0  0  0  0  0  0  0  0  0
   -1.8352    2.6277    1.5118 H   0  0  0  0  0  0  0  0  0  0  0  0
   -1.3810    2.8655   -0.8691 H   0  0  0  0  0  0  0  0  0  0  0  0
   -0.2596    1.4973   -0.8401 H   0  0  0  0  0  0  0  0  0  0  0  0
   -2.1584    0.3166   -1.5442 H   0  0  0  0  0  0  0  0  0  0  0  0
   -3.2746    1.4280   -0.7271 H   0  0  0  0  0  0  0  0  0  0  0  0
  1  2  1  0
  2  3  1  0
  3  4  2  0
  4  5  1  0
  5  6  2  0
  6  7  1  0
  7  8  2  0
  8  9  1  0
  9 10  1  0
 10 11  2  0
 10 12  1  0
 12 13  1  0
 13 14  1  0
 14 15  2  0
 14 16  1  0
 16 17  2  0
 17 18  1  0
 18 19  1  0
 19 20  2  0
 19 21  1  0
 18 22  2  0
 22 23  1  0
 23 24  2  0
 24 25  1  0
 25 26  1  0
 26 27  1  0
 27 28  1  0
 28 29  1  0
  8  3  1  0
 24 16  1  0
 29 25  1  0
  1 30  1  0
  1 31  1  0
  1 32  1  0
  4 33  1  0
  5 34  1  0
  6 35  1  0
  7 36  1  0
  9 37  1  0
 12 38  1  0
 12 39  1  0
 17 40  1  0
 22 41  1  0
 23 42  1  0
 26 43  1  0
 26 44  1  0
 27 45  1  0
 27 46  1  0
 28 47  1  0
 28 48  1  0
 29 49  1  0
 29 50  1  0
M  CHG  2  19   1  21  -1
M  END
$$$$
