
     RDKit          3D

 59 60  0  0  0  0  0  0  0  0999 V2000
    6.6891   -0.0404   -3.2842 C   0  0  0  0  0  0  0  0  0  0  0  0
    5.6300   -1.0862   -2.9363 C   0  0  0  0  0  0  0  0  0  0  0  0
    6.0573   -1.8943   -1.7112 C   0  0  0  0  0  0  0  0  0  0  0  0
    4.2289   -0.4709   -2.7672 C   0  0  0  0  0  0  0  0  0  0  0  0
    4.1036    0.5727   -1.6557 C   0  0  0  0  0  0  0  0  0  0  0  0
    2.7552    1.0950   -1.5778 N   0  0  0  0  0  0  0  0  0  0  0  0
    1.7541    0.4569   -0.8700 C   0  0  0  0  0  0  0  0  0  0  0  0
    1.9608   -0.5770   -0.2418 O   0  0  0  0  0  0  0  0  0  0  0  0
    0.4598    1.0861   -0.9748 C   0  0  0  0  0  0  0  0  0  0  0  0
    0.2454    1.9662   -1.9933 O   0  0  0  0  0  0  0  0  0  0  0  0
   -1.0649    2.3928   -1.9798 N   0  0  0  0  0  0  0  0  0  0  0  0
   -1.6343    1.8039   -0.9166 C   0  0  0  0  0  0  0  0  0  0  0  0
   -3.0615    2.0958   -0.5761 C   0  0  0  0  0  0  0  0  0  0  0  0
   -3.3399    3.8226   -0.0536 S   0  0  0  0  0  0  0  0  0  0  0  0
   -2.4340    3.8299    1.4777 C   0  0  0  0  0  0  0  0  0  0  0  0
   -1.8178    5.0016    1.9014 C   0  0  0  0  0  0  0  0  0  0  0  0
   -1.0944    4.9854    3.0912 C   0  0  0  0  0  0  0  0  0  0  0  0
   -1.0101    3.8047    3.8183 C   0  0  0  0  0  0  0  0  0  0  0  0
   -1.6643    2.6877    3.3265 C   0  0  0  0  0  0  0  0  0  0  0  0
   -2.3813    2.6780    2.1801 N   0  0  0  0  0  0  0  0  0  0  0  0
   -0.7100    0.9412   -0.2585 C   0  0  0  0  0  0  0  0  0  0  0  0
   -0.8759    0.1120    0.9118 C   0  0  0  0  0  0  0  0  0  0  0  0
   -0.1057    0.1506    1.8636 O   0  0  0  0  0  0  0  0  0  0  0  0
   -1.9641   -0.7344    0.8404 N   0  0  0  0  0  0  0  0  0  0  0  0
   -2.1768   -1.7342    1.8651 C   0  0  0  0  0  0  0  0  0  0  0  0
   -3.6140   -2.2546    1.8881 C   0  0  0  0  0  0  0  0  0  0  0  0
   -4.0784   -2.9822    0.6106 C   0  0  0  0  0  0  0  0  0  0  0  0
   -3.2113   -4.1973    0.2791 C   0  0  0  0  0  0  0  0  0  0  0  0
   -5.5387   -3.4162    0.7675 C   0  0  0  0  0  0  0  0  0  0  0  0
    7.6384   -0.5257   -3.5375 H   0  0  0  0  0  0  0  0  0  0  0  0
    6.8798    0.6398   -2.4483 H   0  0  0  0  0  0  0  0  0  0  0  0
    6.3786    0.5565   -4.1486 H   0  0  0  0  0  0  0  0  0  0  0  0
    5.5694   -1.7836   -3.7824 H   0  0  0  0  0  0  0  0  0  0  0  0
    6.2212   -1.2559   -0.8373 H   0  0  0  0  0  0  0  0  0  0  0  0
    6.9932   -2.4268   -1.9116 H   0  0  0  0  0  0  0  0  0  0  0  0
    5.2981   -2.6400   -1.4528 H   0  0  0  0  0  0  0  0  0  0  0  0
    3.9268   -0.0123   -3.7186 H   0  0  0  0  0  0  0  0  0  0  0  0
    3.5082   -1.2803   -2.5880 H   0  0  0  0  0  0  0  0  0  0  0  0
    4.7576    1.4288   -1.8464 H   0  0  0  0  0  0  0  0  0  0  0  0
    4.3689    0.1462   -0.6832 H   0  0  0  0  0  0  0  0  0  0  0  0
    2.5070    1.9019   -2.1380 H   0  0  0  0  0  0  0  0  0  0  0  0
   -3.6734    1.9303   -1.4704 H   0  0  0  0  0  0  0  0  0  0  0  0
   -3.4514    1.4146    0.1847 H   0  0  0  0  0  0  0  0  0  0  0  0
   -1.8855    5.9122    1.3152 H   0  0  0  0  0  0  0  0  0  0  0  0
   -0.5930    5.8840    3.4402 H   0  0  0  0  0  0  0  0  0  0  0  0
   -0.4432    3.7511    4.7408 H   0  0  0  0  0  0  0  0  0  0  0  0
   -1.6144    1.7358    3.8487 H   0  0  0  0  0  0  0  0  0  0  0  0
   -2.3441   -0.9087   -0.0792 H   0  0  0  0  0  0  0  0  0  0  0  0
   -1.9446   -1.2867    2.8390 H   0  0  0  0  0  0  0  0  0  0  0  0
   -1.4543   -2.5408    1.7056 H   0  0  0  0  0  0  0  0  0  0  0  0
   -3.7184   -2.9319    2.7459 H   0  0  0  0  0  0  0  0  0  0  0  0
   -4.2879   -1.4081    2.0752 H   0  0  0  0  0  0  0  0  0  0  0  0
   -4.0336   -2.2878   -0.2373 H   0  0  0  0  0  0  0  0  0  0  0  0
   -3.6133   -4.7366   -0.5857 H   0  0  0  0  0  0  0  0  0  0  0  0
   -3.1672   -4.8960    1.1219 H   0  0  0  0  0  0  0  0  0  0  0  0
   -2.1889   -3.8998    0.0266 H   0  0  0  0  0  0  0  0  0  0  0  0
   -6.1825   -2.5521    0.9647 H   0  0  0  0  0  0  0  0  0  0  0  0
   -5.9012   -3.8991   -0.1461 H   0  0  0  0  0  0  0  0  0  0  0  0
   -5.6570   -4.1243    1.5948 H   0  0  0  0  0  0  0  0  0  0  0  0
  1  2  1  0
  2  3  1  0
  2  4  1  0
  4  5  1  0
  5  6  1  0
  6  7  1  0
  7  8  2  0
  7  9  1  0
  9 10  1  0
 10 11  1  0
 11 12  2  0
 12 13  1  0
 13 14  1  0
 14 15  1  0
 15 16  2  0
 16 17  1  0
 17 18  2  0
 18 19  1  0
 19 20  2  0
 12 21  1  0
 21 22  1  0
 22 23  2  0
 22 24  1  0
 24 25  1  0
 25 26  1  0
 26 27  1  0
 27 28  1  0
 27 29  1  0
 21  9  2  0
 20 15  1  0
  1 30  1  0
  1 31  1  0
  1 32  1  0
  2 33  1  0
  3 34  1  0
  3 35  1  0
  3 36  1  0
  4 37  1  0
  4 38  1  0
  5 39  1  0
  5 40  1  0
  6 41  1  0
 13 42  1  0
 13 43  1  0
 16 44  1  0
 17 45  1  0
 18 46  1  0
 19 47  1  0
 24 48  1  0
 25 49  1  0
 25 50  1  0
 26 51  1  0
 26 52  1  0
 27 53  1  0
 28 54  1  0
 28 55  1  0
 28 56  1  0
 29 57  1  0
 29 58  1  0
 29 59  1  0
M  END
$$$$
