
     RDKit          3D

 92 93  0  0  0  0  0  0  0  0999 V2000
   12.4679   -0.5360    2.7674 C   0  0  0  0  0  0  0  0  0  0  0  0
   11.9841   -0.9244    1.3808 C   0  0  0  0  0  0  0  0  0  0  0  0
   10.5033   -0.5952    1.1856 C   0  0  0  0  0  0  0  0  0  0  0  0
   10.0366   -0.9803   -0.2206 C   0  0  0  0  0  0  0  0  0  0  0  0
    8.5328   -0.7899   -0.4448 C   0  0  0  0  0  0  0  0  0  0  0  0
    8.0932    0.6767   -0.3937 C   0  0  0  0  0  0  0  0  0  0  0  0
    6.6560    0.8926   -0.8862 C   0  0  0  0  0  0  0  0  0  0  0  0
    5.6077    0.2242    0.0068 C   0  0  0  0  0  0  0  0  0  0  0  0
    4.1655    0.5706   -0.3827 C   0  0  0  0  0  0  0  0  0  0  0  0
    3.7761    0.0622   -1.7713 C   0  0  0  0  0  0  0  0  0  0  0  0
    2.2660   -0.0089   -2.0271 C   0  0  0  0  0  0  0  0  0  0  0  0
    1.5568    1.3260   -2.2690 C   0  0  0  0  0  0  0  0  0  0  0  0
    1.2355    2.1909   -1.0506 C   0  0  0  0  0  0  0  0  0  0  0  0
    0.5061    1.5285    0.1214 C   0  0  0  0  0  0  0  0  0  0  0  0
   -0.9620    1.1489   -0.1284 C   0  0  0  0  0  0  0  0  0  0  0  0
   -1.1241   -0.2170   -0.8007 C   0  0  0  0  0  0  0  0  0  0  0  0
   -2.5562   -0.7979   -0.7132 N   0  0  0  0  0  4  0  0  0  0  0  0
   -2.5890   -2.0343   -1.6135 C   0  0  0  0  0  0  0  0  0  0  0  0
   -3.5754    0.1983   -1.2594 C   0  0  0  0  0  0  0  0  0  0  0  0
   -2.8692   -1.1947    0.7589 C   0  0  0  0  0  0  0  0  0  0  0  0
   -4.1697   -1.9954    1.0065 C   0  0  0  0  0  0  0  0  0  0  0  0
   -5.3721   -1.1776    0.7794 N   0  0  0  0  0  0  0  0  0  0  0  0
   -5.8713   -0.4752    1.9769 C   0  0  0  0  0  0  0  0  0  0  0  0
   -6.8094    0.6596    1.6201 C   0  0  0  0  0  0  0  0  0  0  0  0
   -8.1974    0.5066    1.7714 C   0  0  0  0  0  0  0  0  0  0  0  0
   -9.0766    1.5482    1.4440 C   0  0  0  0  0  0  0  0  0  0  0  0
   -8.5809    2.7601    0.9632 C   0  0  0  0  0  0  0  0  0  0  0  0
   -9.3238    3.8546    0.6137 O   0  0  0  0  0  0  0  0  0  0  0  0
  -10.7253    3.7801    0.8529 C   0  0  0  0  0  0  0  0  0  0  0  0
   -7.2002    2.9174    0.8091 C   0  0  0  0  0  0  0  0  0  0  0  0
   -6.3174    1.8803    1.1357 C   0  0  0  0  0  0  0  0  0  0  0  0
   -6.3508   -2.0118    0.2026 C   0  0  0  0  0  0  0  0  0  0  0  0
   -6.2234   -2.2582   -1.1149 N   0  0  0  0  0  0  0  0  0  0  0  0
   -7.1599   -3.0445   -1.6853 C   0  0  0  0  0  0  0  0  0  0  0  0
   -8.1878   -3.6306   -0.9896 C   0  0  0  0  0  0  0  0  0  0  0  0
   -8.2025   -3.3698    0.3570 C   0  0  0  0  0  0  0  0  0  0  0  0
   -7.2979   -2.5788    0.9689 N   0  0  0  0  0  0  0  0  0  0  0  0
   13.5230   -0.8022    2.8905 H   0  0  0  0  0  0  0  0  0  0  0  0
   12.3687    0.5420    2.9277 H   0  0  0  0  0  0  0  0  0  0  0  0
   11.8930   -1.0510    3.5449 H   0  0  0  0  0  0  0  0  0  0  0  0
   12.1500   -1.9974    1.2311 H   0  0  0  0  0  0  0  0  0  0  0  0
   12.5830   -0.3963    0.6296 H   0  0  0  0  0  0  0  0  0  0  0  0
    9.9056   -1.1313    1.9312 H   0  0  0  0  0  0  0  0  0  0  0  0
   10.3489    0.4750    1.3524 H   0  0  0  0  0  0  0  0  0  0  0  0
   10.2747   -2.0361   -0.3952 H   0  0  0  0  0  0  0  0  0  0  0  0
   10.5975   -0.4035   -0.9686 H   0  0  0  0  0  0  0  0  0  0  0  0
    7.9818   -1.3742    0.3002 H   0  0  0  0  0  0  0  0  0  0  0  0
    8.2802   -1.2062   -1.4285 H   0  0  0  0  0  0  0  0  0  0  0  0
    8.7608    1.2772   -1.0233 H   0  0  0  0  0  0  0  0  0  0  0  0
    8.1862    1.0613    0.6287 H   0  0  0  0  0  0  0  0  0  0  0  0
    6.5689    0.5203   -1.9141 H   0  0  0  0  0  0  0  0  0  0  0  0
    6.4617    1.9717   -0.9248 H   0  0  0  0  0  0  0  0  0  0  0  0
    5.7662    0.5382    1.0464 H   0  0  0  0  0  0  0  0  0  0  0  0
    5.7322   -0.8651   -0.0160 H   0  0  0  0  0  0  0  0  0  0  0  0
    4.0376    1.6558   -0.3315 H   0  0  0  0  0  0  0  0  0  0  0  0
    3.5015    0.1282    0.3683 H   0  0  0  0  0  0  0  0  0  0  0  0
    4.2507    0.6775   -2.5454 H   0  0  0  0  0  0  0  0  0  0  0  0
    4.1714   -0.9558   -1.8933 H   0  0  0  0  0  0  0  0  0  0  0  0
    1.7790   -0.5852   -1.2365 H   0  0  0  0  0  0  0  0  0  0  0  0
    2.1323   -0.6006   -2.9425 H   0  0  0  0  0  0  0  0  0  0  0  0
    0.6203    1.1232   -2.8004 H   0  0  0  0  0  0  0  0  0  0  0  0
    2.1530    1.9261   -2.9673 H   0  0  0  0  0  0  0  0  0  0  0  0
    2.1646    2.6258   -0.6703 H   0  0  0  0  0  0  0  0  0  0  0  0
    0.6414    3.0485   -1.3908 H   0  0  0  0  0  0  0  0  0  0  0  0
    1.0655    0.6671    0.5024 H   0  0  0  0  0  0  0  0  0  0  0  0
    0.5096    2.2603    0.9406 H   0  0  0  0  0  0  0  0  0  0  0  0
   -1.4494    1.9290   -0.7212 H   0  0  0  0  0  0  0  0  0  0  0  0
   -1.4558    1.1510    0.8450 H   0  0  0  0  0  0  0  0  0  0  0  0
   -0.4624   -0.9604   -0.3421 H   0  0  0  0  0  0  0  0  0  0  0  0
   -0.8827   -0.1441   -1.8639 H   0  0  0  0  0  0  0  0  0  0  0  0
   -1.8654   -2.7588   -1.2296 H   0  0  0  0  0  0  0  0  0  0  0  0
   -3.5939   -2.4577   -1.6225 H   0  0  0  0  0  0  0  0  0  0  0  0
   -2.3179   -1.7278   -2.6293 H   0  0  0  0  0  0  0  0  0  0  0  0
   -3.1862    0.5978   -2.1979 H   0  0  0  0  0  0  0  0  0  0  0  0
   -3.7083    1.0014   -0.5325 H   0  0  0  0  0  0  0  0  0  0  0  0
   -4.5150   -0.3124   -1.4608 H   0  0  0  0  0  0  0  0  0  0  0  0
   -2.8946   -0.2711    1.3416 H   0  0  0  0  0  0  0  0  0  0  0  0
   -2.0189   -1.7971    1.0971 H   0  0  0  0  0  0  0  0  0  0  0  0
   -4.1587   -2.3404    2.0487 H   0  0  0  0  0  0  0  0  0  0  0  0
   -4.1472   -2.9115    0.4043 H   0  0  0  0  0  0  0  0  0  0  0  0
   -6.3232   -1.1545    2.7142 H   0  0  0  0  0  0  0  0  0  0  0  0
   -5.0184   -0.0231    2.5015 H   0  0  0  0  0  0  0  0  0  0  0  0
   -8.6080   -0.4305    2.1486 H   0  0  0  0  0  0  0  0  0  0  0  0
  -10.1414    1.3777    1.5862 H   0  0  0  0  0  0  0  0  0  0  0  0
  -10.9352    3.6622    1.9236 H   0  0  0  0  0  0  0  0  0  0  0  0
  -11.1737    4.7241    0.5247 H   0  0  0  0  0  0  0  0  0  0  0  0
  -11.1880    2.9740    0.2693 H   0  0  0  0  0  0  0  0  0  0  0  0
   -6.8094    3.8647    0.4375 H   0  0  0  0  0  0  0  0  0  0  0  0
   -5.2497    2.0433    1.0124 H   0  0  0  0  0  0  0  0  0  0  0  0
   -7.0538   -3.1904   -2.7572 H   0  0  0  0  0  0  0  0  0  0  0  0
   -8.9289   -4.2542   -1.4662 H   0  0  0  0  0  0  0  0  0  0  0  0
   -8.9684   -3.7898    1.0040 H   0  0  0  0  0  0  0  0  0  0  0  0
  1  2  1  0
  2  3  1  0
  3  4  1  0
  4  5  1  0
  5  6  1  0
  6  7  1  0
  7  8  1  0
  8  9  1  0
  9 10  1  0
 10 11  1  0
 11 12  1  0
 12 13  1  0
 13 14  1  0
 14 15  1  0
 15 16  1  0
 16 17  1  0
 17 18  1  0
 17 19  1  0
 17 20  1  0
 20 21  1  0
 21 22  1  0
 22 23  1  0
 23 24  1  0
 24 25  2  0
 25 26  1  0
 26 27  2  0
 27 28  1  0
 28 29  1  0
 27 30  1  0
 30 31  2  0
 22 32  1  0
 32 33  2  0
 33 34  1  0
 34 35  2  0
 35 36  1  0
 36 37  2  0
 31 24  1  0
 37 32  1  0
  1 38  1  0
  1 39  1  0
  1 40  1  0
  2 41  1  0
  2 42  1  0
  3 43  1  0
  3 44  1  0
  4 45  1  0
  4 46  1  0
  5 47  1  0
  5 48  1  0
  6 49  1  0
  6 50  1  0
  7 51  1  0
  7 52  1  0
  8 53  1  0
  8 54  1  0
  9 55  1  0
  9 56  1  0
 10 57  1  0
 10 58  1  0
 11 59  1  0
 11 60  1  0
 12 61  1  0
 12 62  1  0
 13 63  1  0
 13 64  1  0
 14 65  1  0
 14 66  1  0
 15 67  1  0
 15 68  1  0
 16 69  1  0
 16 70  1  0
 18 71  1  0
 18 72  1  0
 18 73  1  0
 19 74  1  0
 19 75  1  0
 19 76  1  0
 20 77  1  0
 20 78  1  0
 21 79  1  0
 21 80  1  0
 23 81  1  0
 23 82  1  0
 25 83  1  0
 26 84  1  0
 29 85  1  0
 29 86  1  0
 29 87  1  0
 30 88  1  0
 31 89  1  0
 34 90  1  0
 35 91  1  0
 36 92  1  0
M  CHG  1  17   1
M  END
$$$$
