
     RDKit          3D

 63 66  0  0  0  0  0  0  0  0999 V2000
    8.7748    2.8654   -1.7001 C   0  0  0  0  0  0  0  0  0  0  0  0
    7.3737    3.0818   -1.6074 O   0  0  0  0  0  0  0  0  0  0  0  0
    6.6314    2.1108   -0.9894 C   0  0  0  0  0  0  0  0  0  0  0  0
    7.1660    1.0944   -0.1925 C   0  0  0  0  0  0  0  0  0  0  0  0
    6.3332    0.1319    0.3974 C   0  0  0  0  0  0  0  0  0  0  0  0
    4.9522    0.1726    0.2035 C   0  0  0  0  0  0  0  0  0  0  0  0
    4.0516   -0.7737    0.7284 N   0  0  0  0  0  0  0  0  0  0  0  0
    4.3348   -1.8684    1.5202 C   0  0  0  0  0  0  0  0  0  0  0  0
    5.4294   -2.1958    1.9632 O   0  0  0  0  0  0  0  0  0  0  0  0
    3.1481   -2.6848    1.8201 C   0  0  0  0  0  0  0  0  0  0  0  0
    3.1029   -3.8401    2.5035 C   0  0  0  0  0  0  0  0  0  0  0  0
    1.8369   -4.3888    2.6005 N   0  0  0  0  0  0  0  0  0  0  0  0
    1.0218   -3.5587    1.8325 N   0  0  0  0  0  0  0  0  0  0  0  0
   -0.2332   -3.8726    1.3916 C   0  0  0  0  0  0  0  0  0  0  0  0
   -0.8471   -4.9083    1.6134 O   0  0  0  0  0  0  0  0  0  0  0  0
   -0.7931   -2.8150    0.5114 C   0  0  0  0  0  0  0  0  0  0  0  0
   -0.0323   -1.7615    0.1465 C   0  0  0  0  0  0  0  0  0  0  0  0
   -0.4899   -0.6568   -0.8149 C   0  0  0  0  0  0  0  0  0  0  0  0
   -0.6120    0.7051   -0.1063 C   0  0  0  0  0  0  0  0  0  0  0  0
   -1.9186    0.8432    0.6653 C   0  0  0  0  0  0  0  0  0  0  0  0
   -3.0700    0.5886   -0.1898 N   0  0  0  0  0  0  0  0  0  0  0  0
   -4.2533    1.2666    0.0900 C   0  0  0  0  0  0  0  0  0  0  0  0
   -4.3366    2.1862    0.8949 O   0  0  0  0  0  0  0  0  0  0  0  0
   -5.2990    0.7881   -0.6331 O   0  0  0  0  0  0  0  0  0  0  0  0
   -6.6213    1.3754   -0.5234 C   0  0  0  0  0  0  0  0  0  0  0  0
   -7.1838    1.2426    0.8965 C   0  0  0  0  0  0  0  0  0  0  0  0
   -6.6231    2.8308   -1.0061 C   0  0  0  0  0  0  0  0  0  0  0  0
   -7.4937    0.5402   -1.4754 C   0  0  0  0  0  0  0  0  0  0  0  0
   -3.0701   -0.6641   -0.9341 C   0  0  0  0  0  0  0  0  0  0  0  0
   -1.7502   -0.9186   -1.6610 C   0  0  0  0  0  0  0  0  0  0  0  0
    1.2981   -1.6180    0.5265 N   0  0  0  0  0  0  0  0  0  0  0  0
    1.7654   -2.5169    1.3255 C   0  0  0  0  0  0  0  0  0  0  0  0
    4.4103    1.2018   -0.5721 C   0  0  0  0  0  0  0  0  0  0  0  0
    5.2414    2.1634   -1.1578 C   0  0  0  0  0  0  0  0  0  0  0  0
    4.4941    3.4021   -2.1077 Cl  0  0  0  0  0  0  0  0  0  0  0  0
    9.2511    2.9557   -0.7198 H   0  0  0  0  0  0  0  0  0  0  0  0
    8.9983    1.8990   -2.1619 H   0  0  0  0  0  0  0  0  0  0  0  0
    9.1908    3.6443   -2.3454 H   0  0  0  0  0  0  0  0  0  0  0  0
    8.2325    1.0184   -0.0090 H   0  0  0  0  0  0  0  0  0  0  0  0
    6.8039   -0.6458    0.9884 H   0  0  0  0  0  0  0  0  0  0  0  0
    3.0741   -0.6436    0.4664 H   0  0  0  0  0  0  0  0  0  0  0  0
    3.9411   -4.3606    2.9537 H   0  0  0  0  0  0  0  0  0  0  0  0
    1.7699   -5.3805    2.3574 H   0  0  0  0  0  0  0  0  0  0  0  0
   -1.8066   -2.9904    0.1842 H   0  0  0  0  0  0  0  0  0  0  0  0
    0.3323   -0.5648   -1.5447 H   0  0  0  0  0  0  0  0  0  0  0  0
    0.2335    0.8836    0.5702 H   0  0  0  0  0  0  0  0  0  0  0  0
   -0.5703    1.4958   -0.8679 H   0  0  0  0  0  0  0  0  0  0  0  0
   -1.9781    1.8499    1.0947 H   0  0  0  0  0  0  0  0  0  0  0  0
   -1.9630    0.1349    1.5012 H   0  0  0  0  0  0  0  0  0  0  0  0
   -8.2461    1.5153    0.9348 H   0  0  0  0  0  0  0  0  0  0  0  0
   -6.6610    1.8893    1.6086 H   0  0  0  0  0  0  0  0  0  0  0  0
   -7.0733    0.2151    1.2626 H   0  0  0  0  0  0  0  0  0  0  0  0
   -6.1269    2.9159   -1.9818 H   0  0  0  0  0  0  0  0  0  0  0  0
   -6.0831    3.4914   -0.3187 H   0  0  0  0  0  0  0  0  0  0  0  0
   -7.6447    3.2171   -1.0975 H   0  0  0  0  0  0  0  0  0  0  0  0
   -7.5024   -0.5111   -1.1661 H   0  0  0  0  0  0  0  0  0  0  0  0
   -8.5280    0.8995   -1.5061 H   0  0  0  0  0  0  0  0  0  0  0  0
   -7.0916    0.5569   -2.4952 H   0  0  0  0  0  0  0  0  0  0  0  0
   -3.2989   -1.4575   -0.2162 H   0  0  0  0  0  0  0  0  0  0  0  0
   -3.8765   -0.6731   -1.6769 H   0  0  0  0  0  0  0  0  0  0  0  0
   -1.7136   -0.2375   -2.5231 H   0  0  0  0  0  0  0  0  0  0  0  0
   -1.7385   -1.9313   -2.0814 H   0  0  0  0  0  0  0  0  0  0  0  0
    3.3362    1.2650   -0.7279 H   0  0  0  0  0  0  0  0  0  0  0  0
  1  2  1  0
  2  3  1  0
  3  4  2  0
  4  5  1  0
  5  6  2  0
  6  7  1  0
  7  8  1  0
  8  9  2  0
  8 10  1  0
 10 11  2  0
 11 12  1  0
 12 13  1  0
 13 14  1  0
 14 15  2  0
 14 16  1  0
 16 17  2  0
 17 18  1  0
 18 19  1  0
 19 20  1  0
 20 21  1  0
 21 22  1  0
 22 23  2  0
 22 24  1  0
 24 25  1  0
 25 26  1  0
 25 27  1  0
 25 28  1  0
 21 29  1  0
 29 30  1  0
 17 31  1  0
 31 32  2  0
  6 33  1  0
 33 34  2  0
 34 35  1  0
 34  3  1  0
 32 10  1  0
 32 13  1  0
 30 18  1  0
  1 36  1  0
  1 37  1  0
  1 38  1  0
  4 39  1  0
  5 40  1  0
  7 41  1  0
 11 42  1  0
 12 43  1  0
 16 44  1  0
 18 45  1  0
 19 46  1  0
 19 47  1  0
 20 48  1  0
 20 49  1  0
 26 50  1  0
 26 51  1  0
 26 52  1  0
 27 53  1  0
 27 54  1  0
 27 55  1  0
 28 56  1  0
 28 57  1  0
 28 58  1  0
 29 59  1  0
 29 60  1  0
 30 61  1  0
 30 62  1  0
 33 63  1  0
M  END
$$$$
