
     RDKit          3D

 35 36  0  0  0  0  0  0  0  0999 V2000
   -5.1310   -2.7268    0.1239 N   0  0  0  0  0  0  0  0  0  0  0  0
   -4.3649   -1.6851   -0.3208 C   0  0  0  0  0  0  0  0  0  0  0  0
   -4.1786   -1.4839   -1.7722 C   0  0  0  0  0  0  0  0  0  0  0  0
   -3.4511   -0.4251   -2.1226 C   0  0  0  0  0  0  0  0  0  0  0  0
   -2.9155    0.4070   -1.1685 N   0  0  0  0  0  0  0  0  0  0  0  0
   -2.0944    1.5445   -1.5711 C   0  0  0  0  0  0  0  0  0  0  0  0
   -0.6204    1.1442   -1.5555 C   0  0  0  0  0  0  0  0  0  0  0  0
   -0.0550    0.6909   -2.5473 O   0  0  0  0  0  0  0  0  0  0  0  0
   -0.0188    1.2771   -0.3180 N   0  0  0  0  0  0  0  0  0  0  0  0
    1.3150    0.7512   -0.0869 C   0  0  0  0  0  0  0  0  0  0  0  0
    1.8838    1.2205    1.2478 C   0  0  0  0  0  0  0  0  0  0  0  0
    3.2357    0.6120    1.5073 C   0  0  0  0  0  0  0  0  0  0  0  0
    3.3481   -0.6046    2.1768 C   0  0  0  0  0  0  0  0  0  0  0  0
    4.6147   -1.1458    2.3787 C   0  0  0  0  0  0  0  0  0  0  0  0
    5.7294   -0.4645    1.9066 C   0  0  0  0  0  0  0  0  0  0  0  0
    5.5295    0.7360    1.2477 C   0  0  0  0  0  0  0  0  0  0  0  0
    4.3131    1.2851    1.0372 N   0  0  0  0  0  0  0  0  0  0  0  0
   -3.0580    0.1456    0.1958 C   0  0  0  0  0  0  0  0  0  0  0  0
   -2.4801    0.8454    1.0288 O   0  0  0  0  0  0  0  0  0  0  0  0
   -3.8392   -0.9155    0.5804 N   0  0  0  0  0  0  0  0  0  0  0  0
   -5.9210   -2.9940   -0.4499 H   0  0  0  0  0  0  0  0  0  0  0  0
   -5.3682   -2.6321    1.1071 H   0  0  0  0  0  0  0  0  0  0  0  0
   -4.6069   -2.1771   -2.4809 H   0  0  0  0  0  0  0  0  0  0  0  0
   -3.2477   -0.1954   -3.1646 H   0  0  0  0  0  0  0  0  0  0  0  0
   -2.3664    1.8826   -2.5774 H   0  0  0  0  0  0  0  0  0  0  0  0
   -2.2561    2.3874   -0.8891 H   0  0  0  0  0  0  0  0  0  0  0  0
   -0.6620    1.2925    0.4763 H   0  0  0  0  0  0  0  0  0  0  0  0
    1.9614    1.0571   -0.9183 H   0  0  0  0  0  0  0  0  0  0  0  0
    1.2405   -0.3425   -0.1194 H   0  0  0  0  0  0  0  0  0  0  0  0
    1.1993    0.9706    2.0682 H   0  0  0  0  0  0  0  0  0  0  0  0
    1.9719    2.3143    1.2512 H   0  0  0  0  0  0  0  0  0  0  0  0
    2.4674   -1.1270    2.5368 H   0  0  0  0  0  0  0  0  0  0  0  0
    4.7293   -2.0923    2.8990 H   0  0  0  0  0  0  0  0  0  0  0  0
    6.7291   -0.8592    2.0469 H   0  0  0  0  0  0  0  0  0  0  0  0
    6.3673    1.3068    0.8577 H   0  0  0  0  0  0  0  0  0  0  0  0
  1  2  1  0
  2  3  1  0
  3  4  2  0
  4  5  1  0
  5  6  1  0
  6  7  1  0
  7  8  2  0
  7  9  1  0
  9 10  1  0
 10 11  1  0
 11 12  1  0
 12 13  2  0
 13 14  1  0
 14 15  2  0
 15 16  1  0
 16 17  2  0
  5 18  1  0
 18 19  2  0
 18 20  1  0
 20  2  2  0
 17 12  1  0
  1 21  1  0
  1 22  1  0
  3 23  1  0
  4 24  1  0
  6 25  1  0
  6 26  1  0
  9 27  1  0
 10 28  1  0
 10 29  1  0
 11 30  1  0
 11 31  1  0
 13 32  1  0
 14 33  1  0
 15 34  1  0
 16 35  1  0
M  END
$$$$
