
     RDKit          3D

 42 44  0  0  0  0  0  0  0  0999 V2000
   -3.1912    3.1409    0.4547 N   0  0  0  0  0  0  0  0  0  0  0  0
   -3.6958    2.1339    0.7338 C   0  0  0  0  0  0  0  0  0  0  0  0
   -4.3344    0.8576    1.0760 C   0  0  0  0  0  0  0  0  0  0  0  0
   -4.6301    0.0088   -0.1712 C   0  0  0  0  0  0  0  0  0  0  0  0
   -3.5747   -0.8657   -0.7078 N   0  0  0  0  0  0  0  0  0  0  0  0
   -3.2301   -1.9924    0.1849 C   0  0  0  0  0  0  0  0  0  0  0  0
   -2.2073   -2.9394   -0.4790 C   0  0  0  0  0  0  0  0  0  0  0  0
   -1.0015   -2.1976   -0.8839 N   0  0  0  0  0  0  0  0  0  0  0  0
    0.1733   -2.1824   -0.1157 C   0  0  0  0  0  0  0  0  0  0  0  0
    0.3997   -2.9902    1.3443 S   0  0  0  0  0  0  0  0  0  0  0  0
    1.3221   -1.4595   -0.6193 C   0  0  0  0  0  0  0  0  0  0  0  0
    2.0054   -1.5417   -1.8185 C   0  0  0  0  0  0  0  0  0  0  0  0
    3.0422   -0.5778   -1.7635 C   0  0  0  0  0  0  0  0  0  0  0  0
    2.9415    0.0471   -0.5359 C   0  0  0  0  0  0  0  0  0  0  0  0
    3.6854    1.1074    0.1406 C   0  0  0  0  0  0  0  0  0  0  0  0
    4.7213    1.7849   -0.5188 C   0  0  0  0  0  0  0  0  0  0  0  0
    5.4382    2.8006    0.1233 C   0  0  0  0  0  0  0  0  0  0  0  0
    5.1308    3.1553    1.4381 C   0  0  0  0  0  0  0  0  0  0  0  0
    6.0571    4.4167    2.1687 Cl  0  0  0  0  0  0  0  0  0  0  0  0
    4.1023    2.4898    2.1101 C   0  0  0  0  0  0  0  0  0  0  0  0
    3.6645    2.8704    3.7383 Cl  0  0  0  0  0  0  0  0  0  0  0  0
    3.3874    1.4743    1.4630 C   0  0  0  0  0  0  0  0  0  0  0  0
    1.8914   -0.4862    0.1559 O   0  0  0  0  0  0  0  0  0  0  0  0
   -1.3341   -1.0970   -1.8056 C   0  0  0  0  0  0  0  0  0  0  0  0
   -2.3633   -0.1457   -1.1511 C   0  0  0  0  0  0  0  0  0  0  0  0
   -5.2865    1.0763    1.5755 H   0  0  0  0  0  0  0  0  0  0  0  0
   -3.7291    0.3080    1.8031 H   0  0  0  0  0  0  0  0  0  0  0  0
   -4.9843    0.6568   -0.9844 H   0  0  0  0  0  0  0  0  0  0  0  0
   -5.4889   -0.6345    0.0636 H   0  0  0  0  0  0  0  0  0  0  0  0
   -2.8159   -1.6235    1.1303 H   0  0  0  0  0  0  0  0  0  0  0  0
   -4.1323   -2.5699    0.4170 H   0  0  0  0  0  0  0  0  0  0  0  0
   -2.6389   -3.3776   -1.3879 H   0  0  0  0  0  0  0  0  0  0  0  0
   -1.9711   -3.7721    0.1877 H   0  0  0  0  0  0  0  0  0  0  0  0
    1.7807   -2.2234   -2.6272 H   0  0  0  0  0  0  0  0  0  0  0  0
    3.7765   -0.3726   -2.5294 H   0  0  0  0  0  0  0  0  0  0  0  0
    4.9857    1.5345   -1.5438 H   0  0  0  0  0  0  0  0  0  0  0  0
    6.2364    3.3110   -0.4108 H   0  0  0  0  0  0  0  0  0  0  0  0
    2.5908    0.9631    2.0017 H   0  0  0  0  0  0  0  0  0  0  0  0
   -1.7523   -1.5426   -2.7163 H   0  0  0  0  0  0  0  0  0  0  0  0
   -0.4568   -0.5169   -2.0957 H   0  0  0  0  0  0  0  0  0  0  0  0
   -2.6356    0.6241   -1.8821 H   0  0  0  0  0  0  0  0  0  0  0  0
   -1.8785    0.3473   -0.3001 H   0  0  0  0  0  0  0  0  0  0  0  0
  1  2  3  0
  2  3  1  0
  3  4  1  0
  4  5  1  0
  5  6  1  0
  6  7  1  0
  7  8  1  0
  8  9  1  0
  9 10  2  0
  9 11  1  0
 11 12  2  0
 12 13  1  0
 13 14  2  0
 14 15  1  0
 15 16  2  0
 16 17  1  0
 17 18  2  0
 18 19  1  0
 18 20  1  0
 20 21  1  0
 20 22  2  0
 14 23  1  0
  8 24  1  0
 24 25  1  0
 25  5  1  0
 23 11  1  0
 22 15  1  0
  3 26  1  0
  3 27  1  0
  4 28  1  0
  4 29  1  0
  6 30  1  0
  6 31  1  0
  7 32  1  0
  7 33  1  0
 12 34  1  0
 13 35  1  0
 16 36  1  0
 17 37  1  0
 22 38  1  0
 24 39  1  0
 24 40  1  0
 25 41  1  0
 25 42  1  0
M  END
$$$$
