
     RDKit          3D

 42 43  0  0  0  0  0  0  0  0999 V2000
   -1.9623    2.8866    1.9849 C   0  0  0  0  0  0  0  0  0  0  0  0
   -0.8407    2.2254    1.2326 C   0  0  0  0  0  0  0  0  0  0  0  0
    0.3614    2.9482    1.0888 C   0  0  0  0  0  0  0  0  0  0  0  0
    1.4663    2.4029    0.4320 C   0  0  0  0  0  0  0  0  0  0  0  0
    1.3874    1.1103   -0.0769 C   0  0  0  0  0  0  0  0  0  0  0  0
    2.7748    0.4027   -0.9337 S   0  0  0  0  0  6  0  0  0  0  0  0
    2.3402    0.2097   -2.3046 O   0  0  0  0  0  0  0  0  0  0  0  0
    3.9358    1.2214   -0.6347 O   0  0  0  0  0  0  0  0  0  0  0  0
    3.0826   -1.1969   -0.2172 C   0  0  0  0  0  0  0  0  0  0  0  0
    2.6045   -2.3480   -0.8522 C   0  0  0  0  0  0  0  0  0  0  0  0
    2.8556   -3.5988   -0.2846 C   0  0  0  0  0  0  0  0  0  0  0  0
    3.5891   -3.6906    0.8990 C   0  0  0  0  0  0  0  0  0  0  0  0
    3.8984   -5.2339    1.5934 Cl  0  0  0  0  0  0  0  0  0  0  0  0
    4.0779   -2.5413    1.5227 C   0  0  0  0  0  0  0  0  0  0  0  0
    3.8284   -1.2865    0.9629 C   0  0  0  0  0  0  0  0  0  0  0  0
    0.2176    0.3636    0.0632 C   0  0  0  0  0  0  0  0  0  0  0  0
   -0.9069    0.9240    0.6943 C   0  0  0  0  0  0  0  0  0  0  0  0
   -2.3525   -0.1382    0.8234 S   0  0  0  0  0  6  0  0  0  0  0  0
   -1.8587   -1.4961    0.9075 O   0  0  0  0  0  0  0  0  0  0  0  0
   -3.2220    0.3796    1.8560 O   0  0  0  0  0  0  0  0  0  0  0  0
   -3.1326    0.0688   -0.6749 N   0  0  0  0  0  0  0  0  0  0  0  0
   -3.7934    1.3634   -0.9071 C   0  0  0  0  0  0  0  0  0  0  0  0
   -2.4831   -0.4750   -1.8944 C   0  0  0  0  0  0  0  0  0  0  0  0
   -2.0732   -1.9262   -1.8294 C   0  0  0  0  0  0  0  0  0  0  0  0
   -0.9365   -2.3505   -1.9797 O   0  0  0  0  0  0  0  0  0  0  0  0
   -3.1037   -2.7621   -1.5924 O   0  0  0  0  0  0  0  0  0  0  0  0
   -2.1178    2.3934    2.9490 H   0  0  0  0  0  0  0  0  0  0  0  0
   -2.8848    2.8840    1.3998 H   0  0  0  0  0  0  0  0  0  0  0  0
   -1.7358    3.9381    2.1952 H   0  0  0  0  0  0  0  0  0  0  0  0
    0.4471    3.9561    1.4952 H   0  0  0  0  0  0  0  0  0  0  0  0
    2.3751    2.9927    0.3265 H   0  0  0  0  0  0  0  0  0  0  0  0
    2.0328   -2.2855   -1.7770 H   0  0  0  0  0  0  0  0  0  0  0  0
    2.4777   -4.4953   -0.7701 H   0  0  0  0  0  0  0  0  0  0  0  0
    4.6559   -2.6184    2.4403 H   0  0  0  0  0  0  0  0  0  0  0  0
    4.2211   -0.3942    1.4460 H   0  0  0  0  0  0  0  0  0  0  0  0
    0.1762   -0.6509   -0.3275 H   0  0  0  0  0  0  0  0  0  0  0  0
   -4.4143    1.6473   -0.0533 H   0  0  0  0  0  0  0  0  0  0  0  0
   -4.4649    1.2906   -1.7690 H   0  0  0  0  0  0  0  0  0  0  0  0
   -3.0584    2.1477   -1.1076 H   0  0  0  0  0  0  0  0  0  0  0  0
   -1.6069    0.1301   -2.1507 H   0  0  0  0  0  0  0  0  0  0  0  0
   -3.1724   -0.3909   -2.7439 H   0  0  0  0  0  0  0  0  0  0  0  0
   -2.6849   -3.6329   -1.4317 H   0  0  0  0  0  0  0  0  0  0  0  0
  1  2  1  0
  2  3  2  0
  3  4  1  0
  4  5  2  0
  5  6  1  0
  6  7  2  0
  6  8  2  0
  6  9  1  0
  9 10  2  0
 10 11  1  0
 11 12  2  0
 12 13  1  0
 12 14  1  0
 14 15  2  0
  5 16  1  0
 16 17  2  0
 17 18  1  0
 18 19  2  0
 18 20  2  0
 18 21  1  0
 21 22  1  0
 21 23  1  0
 23 24  1  0
 24 25  2  0
 24 26  1  0
 17  2  1  0
 15  9  1  0
  1 27  1  0
  1 28  1  0
  1 29  1  0
  3 30  1  0
  4 31  1  0
 10 32  1  0
 11 33  1  0
 14 34  1  0
 15 35  1  0
 16 36  1  0
 22 37  1  0
 22 38  1  0
 22 39  1  0
 23 40  1  0
 23 41  1  0
 26 42  1  0
M  END
$$$$
