
     RDKit          3D

 40 41  0  0  0  0  0  0  0  0999 V2000
    5.1706    1.4359   -1.0264 C   0  0  0  0  0  0  0  0  0  0  0  0
    4.2209    1.9418    0.0430 C   0  0  0  0  0  0  0  0  0  0  0  0
    2.8893    1.4801   -0.2201 O   0  0  0  0  0  0  0  0  0  0  0  0
    2.5721    0.2468    0.2742 C   0  0  0  0  0  0  0  0  0  0  0  0
    3.3553   -0.4455    0.9148 O   0  0  0  0  0  0  0  0  0  0  0  0
    1.1935   -0.1584   -0.0222 C   0  0  0  0  0  0  0  0  0  0  0  0
    0.2925    0.4576   -0.8917 C   0  0  0  0  0  0  0  0  0  0  0  0
    0.4792    1.6486   -1.7766 C   0  0  0  0  0  0  0  0  0  0  0  0
   -0.9114   -0.2207   -0.8046 N   0  0  0  0  0  0  0  0  0  0  0  0
   -2.1478    0.1569   -1.4871 C   0  0  0  0  0  0  0  0  0  0  0  0
   -2.5263    1.4949   -1.1717 O   0  0  0  0  0  0  0  0  0  0  0  0
   -2.8741    1.7446    0.1935 C   0  0  0  0  0  0  0  0  0  0  0  0
   -4.0468    0.9197    0.7297 C   0  0  0  0  0  0  0  0  0  0  0  0
   -5.1967    1.0886   -0.0918 O   0  0  0  0  0  0  0  0  0  0  0  0
   -0.7803   -1.3263    0.0168 C   0  0  0  0  0  0  0  0  0  0  0  0
   -1.6913   -2.3445    0.3592 C   0  0  0  0  0  0  0  0  0  0  0  0
   -1.2801   -3.3414    1.2489 C   0  0  0  0  0  0  0  0  0  0  0  0
    0.0003   -3.3182    1.7782 C   0  0  0  0  0  0  0  0  0  0  0  0
    0.4226   -4.2788    2.6510 O   0  0  0  0  0  0  0  0  0  0  0  0
    0.9049   -2.3153    1.4367 C   0  0  0  0  0  0  0  0  0  0  0  0
    0.5186   -1.2992    0.5324 C   0  0  0  0  0  0  0  0  0  0  0  0
    5.2211    0.3425   -1.0224 H   0  0  0  0  0  0  0  0  0  0  0  0
    4.8234    1.7348   -2.0210 H   0  0  0  0  0  0  0  0  0  0  0  0
    6.1777    1.8324   -0.8700 H   0  0  0  0  0  0  0  0  0  0  0  0
    4.1898    3.0360    0.0177 H   0  0  0  0  0  0  0  0  0  0  0  0
    4.5543    1.6545    1.0467 H   0  0  0  0  0  0  0  0  0  0  0  0
    0.4283    2.5687   -1.1860 H   0  0  0  0  0  0  0  0  0  0  0  0
    1.4504    1.6070   -2.2799 H   0  0  0  0  0  0  0  0  0  0  0  0
   -0.2706    1.7091   -2.5696 H   0  0  0  0  0  0  0  0  0  0  0  0
   -1.9480    0.0925   -2.5618 H   0  0  0  0  0  0  0  0  0  0  0  0
   -2.9524   -0.5441   -1.2602 H   0  0  0  0  0  0  0  0  0  0  0  0
   -3.1476    2.8047    0.2362 H   0  0  0  0  0  0  0  0  0  0  0  0
   -1.9937    1.6171    0.8322 H   0  0  0  0  0  0  0  0  0  0  0  0
   -4.2938    1.2478    1.7445 H   0  0  0  0  0  0  0  0  0  0  0  0
   -3.8089   -0.1458    0.7622 H   0  0  0  0  0  0  0  0  0  0  0  0
   -5.9356    0.6345    0.3478 H   0  0  0  0  0  0  0  0  0  0  0  0
   -2.6954   -2.3768   -0.0511 H   0  0  0  0  0  0  0  0  0  0  0  0
   -1.9794   -4.1286    1.5144 H   0  0  0  0  0  0  0  0  0  0  0  0
   -0.2897   -4.9268    2.7718 H   0  0  0  0  0  0  0  0  0  0  0  0
    1.9051   -2.3268    1.8622 H   0  0  0  0  0  0  0  0  0  0  0  0
  1  2  1  0
  2  3  1  0
  3  4  1  0
  4  5  2  0
  4  6  1  0
  6  7  2  0
  7  8  1  0
  7  9  1  0
  9 10  1  0
 10 11  1  0
 11 12  1  0
 12 13  1  0
 13 14  1  0
  9 15  1  0
 15 16  2  0
 16 17  1  0
 17 18  2  0
 18 19  1  0
 18 20  1  0
 20 21  2  0
 21  6  1  0
 21 15  1  0
  1 22  1  0
  1 23  1  0
  1 24  1  0
  2 25  1  0
  2 26  1  0
  8 27  1  0
  8 28  1  0
  8 29  1  0
 10 30  1  0
 10 31  1  0
 12 32  1  0
 12 33  1  0
 13 34  1  0
 13 35  1  0
 14 36  1  0
 16 37  1  0
 17 38  1  0
 19 39  1  0
 20 40  1  0
M  END
$$$$
