
     RDKit          3D

 57 59  0  0  0  0  0  0  0  0999 V2000
    6.2999   -1.1384   -0.7446 C   0  0  0  0  0  0  0  0  0  0  0  0
    6.6006   -0.6146    0.6626 C   0  0  0  0  0  0  0  0  0  0  0  0
    8.1006   -0.3450    0.8046 C   0  0  0  0  0  0  0  0  0  0  0  0
    6.1418   -1.5986    1.7566 C   0  0  0  0  0  0  0  0  0  0  0  0
    4.6618   -1.7913    1.8098 C   0  0  0  0  0  0  0  0  0  0  0  0
    3.6741   -0.8840    2.2615 C   0  0  0  0  0  0  0  0  0  0  0  0
    2.4901   -1.5704    2.1168 C   0  0  0  0  0  0  0  0  0  0  0  0
    1.0689   -1.2571    2.3798 C   0  0  0  0  0  0  0  0  0  0  0  0
    0.4094   -1.0095    1.1146 N   0  0  0  0  0  0  0  0  0  0  0  0
   -0.8842   -1.4134    0.8876 C   0  0  0  0  0  0  0  0  0  0  0  0
   -1.5742   -1.9445    1.7554 O   0  0  0  0  0  0  0  0  0  0  0  0
   -1.4575   -1.1028   -0.4865 C   0  0  0  0  0  0  0  0  0  0  0  0
   -0.5376   -1.4841   -1.6402 C   0  0  0  0  0  0  0  0  0  0  0  0
   -1.2667   -1.2454   -2.9504 C   0  0  0  0  0  0  0  0  0  0  0  0
   -1.8520    0.1488   -3.0858 C   0  0  0  0  0  0  0  0  0  0  0  0
   -2.0553    0.6180   -4.2058 O   0  0  0  0  0  0  0  0  0  0  0  0
   -2.2211    0.8011   -1.9190 N   0  0  0  0  0  0  0  0  0  0  0  0
   -2.8809    2.1033   -2.0199 C   0  0  0  0  0  0  0  0  0  0  0  0
   -4.3408    2.0208   -1.6350 C   0  0  0  0  0  0  0  0  0  0  0  0
   -5.2473    1.3401   -2.4594 C   0  0  0  0  0  0  0  0  0  0  0  0
   -6.5952    1.2522   -2.1126 C   0  0  0  0  0  0  0  0  0  0  0  0
   -7.0533    1.8434   -0.9357 C   0  0  0  0  0  0  0  0  0  0  0  0
   -6.1657    2.5242   -0.0893 C   0  0  0  0  0  0  0  0  0  0  0  0
   -6.6645    3.1885    1.1717 C   0  0  0  0  0  0  0  0  0  0  0  0
   -5.7280    3.2201    2.1630 F   0  0  0  0  0  0  0  0  0  0  0  0
   -7.7556    2.5746    1.7113 F   0  0  0  0  0  0  0  0  0  0  0  0
   -7.0291    4.4862    0.9654 F   0  0  0  0  0  0  0  0  0  0  0  0
   -4.8105    2.6126   -0.4530 C   0  0  0  0  0  0  0  0  0  0  0  0
   -1.7998    0.3751   -0.5848 C   0  0  0  0  0  0  0  0  0  0  0  0
    2.7510   -2.8078    1.6112 O   0  0  0  0  0  0  0  0  0  0  0  0
    4.1123   -2.9454    1.4105 N   0  0  0  0  0  0  0  0  0  0  0  0
    6.6642   -0.4399   -1.5049 H   0  0  0  0  0  0  0  0  0  0  0  0
    5.2244   -1.2593   -0.9059 H   0  0  0  0  0  0  0  0  0  0  0  0
    6.7784   -2.1086   -0.9220 H   0  0  0  0  0  0  0  0  0  0  0  0
    6.0711    0.3398    0.7860 H   0  0  0  0  0  0  0  0  0  0  0  0
    8.3342    0.0624    1.7942 H   0  0  0  0  0  0  0  0  0  0  0  0
    8.4348    0.3832    0.0589 H   0  0  0  0  0  0  0  0  0  0  0  0
    8.6828   -1.2637    0.6647 H   0  0  0  0  0  0  0  0  0  0  0  0
    6.6433   -2.5665    1.6254 H   0  0  0  0  0  0  0  0  0  0  0  0
    6.4648   -1.2195    2.7351 H   0  0  0  0  0  0  0  0  0  0  0  0
    3.8116    0.1206    2.6401 H   0  0  0  0  0  0  0  0  0  0  0  0
    0.5829   -2.0737    2.9261 H   0  0  0  0  0  0  0  0  0  0  0  0
    0.9761   -0.3425    2.9780 H   0  0  0  0  0  0  0  0  0  0  0  0
    0.9435   -0.5535    0.3880 H   0  0  0  0  0  0  0  0  0  0  0  0
   -2.3807   -1.6917   -0.5809 H   0  0  0  0  0  0  0  0  0  0  0  0
   -0.2339   -2.5361   -1.5624 H   0  0  0  0  0  0  0  0  0  0  0  0
    0.3821   -0.8839   -1.6279 H   0  0  0  0  0  0  0  0  0  0  0  0
   -0.5700   -1.4055   -3.7808 H   0  0  0  0  0  0  0  0  0  0  0  0
   -2.0924   -1.9592   -3.0637 H   0  0  0  0  0  0  0  0  0  0  0  0
   -2.3425    2.8090   -1.3748 H   0  0  0  0  0  0  0  0  0  0  0  0
   -2.8113    2.5071   -3.0364 H   0  0  0  0  0  0  0  0  0  0  0  0
   -4.9005    0.8761   -3.3823 H   0  0  0  0  0  0  0  0  0  0  0  0
   -7.2875    0.7227   -2.7635 H   0  0  0  0  0  0  0  0  0  0  0  0
   -8.1097    1.7716   -0.6795 H   0  0  0  0  0  0  0  0  0  0  0  0
   -4.1187    3.1479    0.1971 H   0  0  0  0  0  0  0  0  0  0  0  0
   -0.9388    0.9996   -0.3150 H   0  0  0  0  0  0  0  0  0  0  0  0
   -2.5996    0.6068    0.1286 H   0  0  0  0  0  0  0  0  0  0  0  0
  1  2  1  0
  2  3  1  0
  2  4  1  0
  4  5  1  0
  5  6  1  0
  6  7  2  0
  7  8  1  0
  8  9  1  0
  9 10  1  0
 10 11  2  0
 10 12  1  0
 12 13  1  0
 13 14  1  0
 14 15  1  0
 15 16  2  0
 15 17  1  0
 17 18  1  0
 18 19  1  0
 19 20  2  0
 20 21  1  0
 21 22  2  0
 22 23  1  0
 23 24  1  0
 24 25  1  0
 24 26  1  0
 24 27  1  0
 23 28  2  0
 17 29  1  0
  7 30  1  0
 30 31  1  0
 31  5  2  0
 29 12  1  0
 28 19  1  0
  1 32  1  0
  1 33  1  0
  1 34  1  0
  2 35  1  0
  3 36  1  0
  3 37  1  0
  3 38  1  0
  4 39  1  0
  4 40  1  0
  6 41  1  0
  8 42  1  0
  8 43  1  0
  9 44  1  0
 12 45  1  0
 13 46  1  0
 13 47  1  0
 14 48  1  0
 14 49  1  0
 18 50  1  0
 18 51  1  0
 20 52  1  0
 21 53  1  0
 22 54  1  0
 28 55  1  0
 29 56  1  0
 29 57  1  0
M  END
$$$$
