
     RDKit          3D

 48 51  0  0  0  0  0  0  0  0999 V2000
    3.2118    1.1685   -4.0328 C   0  0  0  0  0  0  0  0  0  0  0  0
    2.5540    1.3790   -2.7016 C   0  0  0  0  0  0  0  0  0  0  0  0
    1.6733    2.4412   -2.4947 C   0  0  0  0  0  0  0  0  0  0  0  0
    1.0846    2.6334   -1.2411 C   0  0  0  0  0  0  0  0  0  0  0  0
    1.3518    1.7902   -0.1722 C   0  0  0  0  0  0  0  0  0  0  0  0
    0.7410    2.0036    1.0020 N   0  0  0  0  0  0  0  0  0  0  0  0
    1.0068    1.1776    2.0406 C   0  0  0  0  0  0  0  0  0  0  0  0
    0.0819    1.5490    3.5205 S   0  0  0  0  0  0  0  0  0  0  0  0
   -1.3144    0.4051    3.2602 C   0  0  0  0  0  0  0  0  0  0  0  0
   -2.1294    0.8001    2.0396 C   0  0  0  0  0  0  0  0  0  0  0  0
   -2.7920    1.8452    2.0684 O   0  0  0  0  0  0  0  0  0  0  0  0
   -2.0670    0.0340    0.8910 N   0  0  0  0  0  0  0  0  0  0  0  0
   -1.6476   -1.2893    0.6621 C   0  0  0  0  0  0  0  0  0  0  0  0
   -1.4936   -2.3487    1.5398 C   0  0  0  0  0  0  0  0  0  0  0  0
   -1.0665   -3.5847    1.0381 C   0  0  0  0  0  0  0  0  0  0  0  0
   -0.8233   -3.7586   -0.3303 C   0  0  0  0  0  0  0  0  0  0  0  0
   -1.0266   -2.7048   -1.2188 C   0  0  0  0  0  0  0  0  0  0  0  0
   -1.4565   -1.4888   -0.7089 C   0  0  0  0  0  0  0  0  0  0  0  0
   -1.7395   -0.2391   -1.4828 C   0  0  0  0  0  0  0  0  0  0  0  0
   -2.4319    0.6301   -0.4150 C   0  0  0  0  0  0  0  0  0  0  0  0
   -3.9505    0.6534   -0.6154 C   0  0  0  0  0  0  0  0  0  0  0  0
    1.9108    0.1173    1.9583 C   0  0  0  0  0  0  0  0  0  0  0  0
    2.2180   -0.7956    3.1084 C   0  0  0  0  0  0  0  0  0  0  0  0
    2.5243   -0.1052    0.7199 C   0  0  0  0  0  0  0  0  0  0  0  0
    2.2510    0.7290   -0.3703 C   0  0  0  0  0  0  0  0  0  0  0  0
    2.8470    0.5299   -1.6293 C   0  0  0  0  0  0  0  0  0  0  0  0
    3.1408    0.1179   -4.3330 H   0  0  0  0  0  0  0  0  0  0  0  0
    2.7313    1.7673   -4.8141 H   0  0  0  0  0  0  0  0  0  0  0  0
    4.2662    1.4563   -3.9792 H   0  0  0  0  0  0  0  0  0  0  0  0
    1.4338    3.1284   -3.3023 H   0  0  0  0  0  0  0  0  0  0  0  0
    0.3955    3.4618   -1.0930 H   0  0  0  0  0  0  0  0  0  0  0  0
   -0.8978   -0.5920    3.2199 H   0  0  0  0  0  0  0  0  0  0  0  0
   -1.9750    0.4446    4.1323 H   0  0  0  0  0  0  0  0  0  0  0  0
   -1.7477   -2.2843    2.5893 H   0  0  0  0  0  0  0  0  0  0  0  0
   -0.9415   -4.4275    1.7154 H   0  0  0  0  0  0  0  0  0  0  0  0
   -0.4953   -4.7260   -0.7023 H   0  0  0  0  0  0  0  0  0  0  0  0
   -0.8593   -2.8385   -2.2832 H   0  0  0  0  0  0  0  0  0  0  0  0
   -2.3704   -0.4233   -2.3572 H   0  0  0  0  0  0  0  0  0  0  0  0
   -0.7950    0.2094   -1.8023 H   0  0  0  0  0  0  0  0  0  0  0  0
   -2.0588    1.6609   -0.4628 H   0  0  0  0  0  0  0  0  0  0  0  0
   -4.3788   -0.3537   -0.5564 H   0  0  0  0  0  0  0  0  0  0  0  0
   -4.2028    1.0743   -1.5940 H   0  0  0  0  0  0  0  0  0  0  0  0
   -4.4433    1.2639    0.1471 H   0  0  0  0  0  0  0  0  0  0  0  0
    1.3704   -1.4587    3.3066 H   0  0  0  0  0  0  0  0  0  0  0  0
    3.0891   -1.4243    2.8941 H   0  0  0  0  0  0  0  0  0  0  0  0
    2.4575   -0.2239    4.0110 H   0  0  0  0  0  0  0  0  0  0  0  0
    3.2190   -0.9342    0.6021 H   0  0  0  0  0  0  0  0  0  0  0  0
    3.5447   -0.2925   -1.7741 H   0  0  0  0  0  0  0  0  0  0  0  0
  1  2  1  0
  2  3  2  0
  3  4  1  0
  4  5  2  0
  5  6  1  0
  6  7  2  0
  7  8  1  0
  8  9  1  0
  9 10  1  0
 10 11  2  0
 10 12  1  0
 12 13  1  0
 13 14  2  0
 14 15  1  0
 15 16  2  0
 16 17  1  0
 17 18  2  0
 18 19  1  0
 19 20  1  0
 20 21  1  0
  7 22  1  0
 22 23  1  0
 22 24  2  0
 24 25  1  0
 25 26  2  0
 26  2  1  0
 25  5  1  0
 20 12  1  0
 18 13  1  0
  1 27  1  0
  1 28  1  0
  1 29  1  0
  3 30  1  0
  4 31  1  0
  9 32  1  0
  9 33  1  0
 14 34  1  0
 15 35  1  0
 16 36  1  0
 17 37  1  0
 19 38  1  0
 19 39  1  0
 20 40  1  0
 21 41  1  0
 21 42  1  0
 21 43  1  0
 23 44  1  0
 23 45  1  0
 23 46  1  0
 24 47  1  0
 26 48  1  0
M  END
$$$$
