
     RDKit          3D

 38 40  0  0  0  0  0  0  0  0999 V2000
   -0.1773    4.6374   -1.0966 C   0  0  0  0  0  0  0  0  0  0  0  0
    0.1094    3.2508   -1.2720 O   0  0  0  0  0  0  0  0  0  0  0  0
   -0.2783    2.4838   -0.2328 C   0  0  0  0  0  0  0  0  0  0  0  0
   -0.8360    2.8254    0.7939 O   0  0  0  0  0  0  0  0  0  0  0  0
    0.0818    1.0403   -0.5223 C   0  0  0  0  0  0  0  0  0  0  0  0
    1.2881    0.6732   -0.2217 N   0  0  0  0  0  0  0  0  0  0  0  0
    1.6626   -0.6404   -0.4668 N   0  0  0  0  0  0  0  0  0  0  0  0
    3.0243   -0.9289   -0.0832 C   0  0  0  0  0  0  0  0  0  0  0  0
    3.8280    0.0816    0.4840 C   0  0  0  0  0  0  0  0  0  0  0  0
    5.1525   -0.1565    0.8698 C   0  0  0  0  0  0  0  0  0  0  0  0
    5.7102   -1.4165    0.6978 C   0  0  0  0  0  0  0  0  0  0  0  0
    4.9423   -2.4327    0.1416 C   0  0  0  0  0  0  0  0  0  0  0  0
    3.6159   -2.1907   -0.2436 C   0  0  0  0  0  0  0  0  0  0  0  0
    0.7871   -1.5748   -1.0361 C   0  0  0  0  0  0  0  0  0  0  0  0
    1.0060   -2.7538   -1.3055 O   0  0  0  0  0  0  0  0  0  0  0  0
   -0.5731   -1.0848   -1.3578 C   0  0  0  0  0  0  0  0  0  0  0  0
   -0.9532    0.1681   -1.1090 C   0  0  0  0  0  0  0  0  0  0  0  0
   -2.5209    0.7742   -1.4937 S   0  0  0  0  0  0  0  0  0  0  0  0
   -3.4712   -0.0719   -0.2431 C   0  0  0  0  0  0  0  0  0  0  0  0
   -3.4633    0.3706    1.0848 C   0  0  0  0  0  0  0  0  0  0  0  0
   -4.2145   -0.2992    2.0548 C   0  0  0  0  0  0  0  0  0  0  0  0
   -4.9803   -1.4065    1.6962 C   0  0  0  0  0  0  0  0  0  0  0  0
   -5.9055   -2.2298    2.8893 Cl  0  0  0  0  0  0  0  0  0  0  0  0
   -5.0047   -1.8475    0.3746 C   0  0  0  0  0  0  0  0  0  0  0  0
   -4.2536   -1.1778   -0.5954 C   0  0  0  0  0  0  0  0  0  0  0  0
    0.1781    5.1722   -1.9817 H   0  0  0  0  0  0  0  0  0  0  0  0
   -1.2564    4.7970   -1.0053 H   0  0  0  0  0  0  0  0  0  0  0  0
    0.3477    5.0304   -0.2202 H   0  0  0  0  0  0  0  0  0  0  0  0
    3.4348    1.0834    0.6394 H   0  0  0  0  0  0  0  0  0  0  0  0
    5.7417    0.6467    1.3044 H   0  0  0  0  0  0  0  0  0  0  0  0
    6.7375   -1.6070    0.9957 H   0  0  0  0  0  0  0  0  0  0  0  0
    5.3693   -3.4231    0.0031 H   0  0  0  0  0  0  0  0  0  0  0  0
    3.0788   -3.0311   -0.6692 H   0  0  0  0  0  0  0  0  0  0  0  0
   -1.2315   -1.8194   -1.8065 H   0  0  0  0  0  0  0  0  0  0  0  0
   -2.8818    1.2414    1.3813 H   0  0  0  0  0  0  0  0  0  0  0  0
   -4.1997    0.0513    3.0838 H   0  0  0  0  0  0  0  0  0  0  0  0
   -5.6070   -2.7074    0.0926 H   0  0  0  0  0  0  0  0  0  0  0  0
   -4.2880   -1.5280   -1.6248 H   0  0  0  0  0  0  0  0  0  0  0  0
  1  2  1  0
  2  3  1  0
  3  4  2  0
  3  5  1  0
  5  6  2  0
  6  7  1  0
  7  8  1  0
  8  9  2  0
  9 10  1  0
 10 11  2  0
 11 12  1  0
 12 13  2  0
  7 14  1  0
 14 15  2  0
 14 16  1  0
 16 17  2  0
 17 18  1  0
 18 19  1  0
 19 20  2  0
 20 21  1  0
 21 22  2  0
 22 23  1  0
 22 24  1  0
 24 25  2  0
 17  5  1  0
 25 19  1  0
 13  8  1  0
  1 26  1  0
  1 27  1  0
  1 28  1  0
  9 29  1  0
 10 30  1  0
 11 31  1  0
 12 32  1  0
 13 33  1  0
 16 34  1  0
 20 35  1  0
 21 36  1  0
 24 37  1  0
 25 38  1  0
M  END
$$$$
