
     RDKit          3D

 53 56  0  0  0  0  0  0  0  0999 V2000
   -2.9258    0.4452    3.3487 C   0  0  0  0  0  0  0  0  0  0  0  0
   -3.7299    0.7604    2.0930 C   0  0  0  0  0  0  0  0  0  0  0  0
   -3.4026   -0.1120    0.8638 C   0  0  0  0  0  0  0  0  0  0  0  0
   -3.6107   -1.6279    1.0900 C   0  0  0  0  0  0  0  0  0  0  0  0
   -5.0449   -2.0127    1.3674 C   0  0  0  0  0  0  0  0  0  0  0  0
   -5.4409   -2.4423    2.6408 C   0  0  0  0  0  0  0  0  0  0  0  0
   -6.7707   -2.7868    2.8891 C   0  0  0  0  0  0  0  0  0  0  0  0
   -7.7154   -2.7095    1.8674 C   0  0  0  0  0  0  0  0  0  0  0  0
   -7.3312   -2.2904    0.5953 C   0  0  0  0  0  0  0  0  0  0  0  0
   -6.0025   -1.9453    0.3452 C   0  0  0  0  0  0  0  0  0  0  0  0
   -2.0420    0.1595    0.3931 N   0  0  0  0  0  0  0  0  0  0  0  0
   -1.6653   -0.0871   -0.9112 C   0  0  0  0  0  0  0  0  0  0  0  0
   -2.4293   -0.5150   -1.7683 O   0  0  0  0  0  0  0  0  0  0  0  0
   -0.2524    0.2257   -1.2617 C   0  0  0  0  0  0  0  0  0  0  0  0
    0.0289    0.6185   -2.5726 C   0  0  0  0  0  0  0  0  0  0  0  0
    1.3391    0.9232   -2.9595 C   0  0  0  0  0  0  0  0  0  0  0  0
    2.3864    0.8211   -2.0226 C   0  0  0  0  0  0  0  0  0  0  0  0
    3.7190    1.0919   -2.2641 N   0  0  0  0  0  0  0  0  0  0  0  0
    4.4556    0.8862   -1.1934 C   0  0  0  0  0  0  0  0  0  0  0  0
    5.8029    1.0801   -1.1749 N   0  0  0  0  0  0  0  0  0  0  0  0
    6.4599    1.7017   -2.3301 C   0  0  0  0  0  0  0  0  0  0  0  0
    7.6364    2.5696   -1.8552 C   0  0  0  0  0  0  0  0  0  0  0  0
    8.6307    1.8536   -1.1068 O   0  0  0  0  0  0  0  0  0  0  0  0
    8.1183    0.6918   -0.4409 C   0  0  0  0  0  0  0  0  0  0  0  0
    6.6476    0.8183   -0.0092 C   0  0  0  0  0  0  0  0  0  0  0  0
    3.5457    0.3556    0.1811 S   0  0  0  0  0  0  0  0  0  0  0  0
    2.0896    0.4090   -0.7267 C   0  0  0  0  0  0  0  0  0  0  0  0
    0.7790    0.1015   -0.3179 C   0  0  0  0  0  0  0  0  0  0  0  0
   -3.1236   -0.5655    3.7151 H   0  0  0  0  0  0  0  0  0  0  0  0
   -1.8505    0.5464    3.1776 H   0  0  0  0  0  0  0  0  0  0  0  0
   -3.2008    1.1410    4.1482 H   0  0  0  0  0  0  0  0  0  0  0  0
   -3.5586    1.8132    1.8338 H   0  0  0  0  0  0  0  0  0  0  0  0
   -4.7968    0.6743    2.3304 H   0  0  0  0  0  0  0  0  0  0  0  0
   -4.0730    0.2128    0.0567 H   0  0  0  0  0  0  0  0  0  0  0  0
   -2.9564   -1.9864    1.8945 H   0  0  0  0  0  0  0  0  0  0  0  0
   -3.2872   -2.1878    0.2020 H   0  0  0  0  0  0  0  0  0  0  0  0
   -4.7177   -2.5128    3.4498 H   0  0  0  0  0  0  0  0  0  0  0  0
   -7.0694   -3.1185    3.8801 H   0  0  0  0  0  0  0  0  0  0  0  0
   -8.7501   -2.9795    2.0610 H   0  0  0  0  0  0  0  0  0  0  0  0
   -8.0648   -2.2343   -0.2044 H   0  0  0  0  0  0  0  0  0  0  0  0
   -5.7141   -1.6272   -0.6556 H   0  0  0  0  0  0  0  0  0  0  0  0
   -1.3991    0.6251    1.0180 H   0  0  0  0  0  0  0  0  0  0  0  0
   -0.7738    0.6927   -3.3049 H   0  0  0  0  0  0  0  0  0  0  0  0
    1.5577    1.2331   -3.9770 H   0  0  0  0  0  0  0  0  0  0  0  0
    5.7736    2.3383   -2.9008 H   0  0  0  0  0  0  0  0  0  0  0  0
    6.8246    0.9096   -2.9947 H   0  0  0  0  0  0  0  0  0  0  0  0
    7.2714    3.3842   -1.2183 H   0  0  0  0  0  0  0  0  0  0  0  0
    8.1383    3.0274   -2.7138 H   0  0  0  0  0  0  0  0  0  0  0  0
    8.7520    0.5075    0.4325 H   0  0  0  0  0  0  0  0  0  0  0  0
    8.2436   -0.1609   -1.1193 H   0  0  0  0  0  0  0  0  0  0  0  0
    6.3622   -0.1143    0.4906 H   0  0  0  0  0  0  0  0  0  0  0  0
    6.5425    1.6462    0.7021 H   0  0  0  0  0  0  0  0  0  0  0  0
    0.5940   -0.2486    0.6917 H   0  0  0  0  0  0  0  0  0  0  0  0
  1  2  1  0
  2  3  1  0
  3  4  1  0
  4  5  1  0
  5  6  2  0
  6  7  1  0
  7  8  2  0
  8  9  1  0
  9 10  2  0
  3 11  1  0
 11 12  1  0
 12 13  2  0
 12 14  1  0
 14 15  2  0
 15 16  1  0
 16 17  2  0
 17 18  1  0
 18 19  2  0
 19 20  1  0
 20 21  1  0
 21 22  1  0
 22 23  1  0
 23 24  1  0
 24 25  1  0
 19 26  1  0
 26 27  1  0
 27 28  2  0
 10  5  1  0
 28 14  1  0
 27 17  1  0
 25 20  1  0
  1 29  1  0
  1 30  1  0
  1 31  1  0
  2 32  1  0
  2 33  1  0
  3 34  1  0
  4 35  1  0
  4 36  1  0
  6 37  1  0
  7 38  1  0
  8 39  1  0
  9 40  1  0
 10 41  1  0
 11 42  1  0
 15 43  1  0
 16 44  1  0
 21 45  1  0
 21 46  1  0
 22 47  1  0
 22 48  1  0
 24 49  1  0
 24 50  1  0
 25 51  1  0
 25 52  1  0
 28 53  1  0
M  END
$$$$
