
     RDKit          3D

 56 60  0  0  0  0  0  0  0  0999 V2000
    5.3050    2.4071   -2.2891 C   0  0  0  0  0  0  0  0  0  0  0  0
    5.1159    0.9871   -1.9055 C   0  0  0  0  0  0  0  0  0  0  0  0
    4.9604    0.6538   -0.6183 N   0  0  0  0  0  0  0  0  0  0  0  0
    4.7926   -0.6879   -0.6346 N   0  0  0  0  0  0  0  0  0  0  0  0
    4.5909   -1.3827    0.6343 C   0  0  0  0  0  0  0  0  0  0  0  0
    3.1603   -1.8293    0.8192 C   0  0  0  0  0  0  0  0  0  0  0  0
    2.8417   -3.1932    0.9036 C   0  0  0  0  0  0  0  0  0  0  0  0
    1.5198   -3.6055    1.0835 C   0  0  0  0  0  0  0  0  0  0  0  0
    0.4978   -2.6607    1.1801 C   0  0  0  0  0  0  0  0  0  0  0  0
    0.7985   -1.2964    1.0942 C   0  0  0  0  0  0  0  0  0  0  0  0
   -0.2629   -0.2597    1.2049 C   0  0  0  0  0  0  0  0  0  0  0  0
   -0.0094    0.8113    1.7398 O   0  0  0  0  0  0  0  0  0  0  0  0
   -1.4803   -0.5946    0.6463 N   0  0  0  0  0  0  0  0  0  0  0  0
   -2.6285    0.3149    0.5588 C   0  0  0  0  0  0  0  0  0  0  0  0
   -2.3111    1.5505   -0.3188 C   0  0  0  0  0  0  0  0  0  0  0  0
   -3.5477    2.4583   -0.4419 C   0  0  0  0  0  0  0  0  0  0  0  0
   -3.9814    2.9175    0.9607 C   0  0  0  0  0  0  0  0  0  0  0  0
   -4.3359    1.6996    1.8310 C   0  0  0  0  0  0  0  0  0  0  0  0
   -5.4782    0.9163    1.1662 C   0  0  0  0  0  0  0  0  0  0  0  0
   -5.0469    0.4468   -0.2315 C   0  0  0  0  0  0  0  0  0  0  0  0
   -4.6944    1.6693   -1.0934 C   0  0  0  0  0  0  0  0  0  0  0  0
   -3.8072   -0.4520   -0.1007 C   0  0  0  0  0  0  0  0  0  0  0  0
   -3.1002    0.7907    1.9564 C   0  0  0  0  0  0  0  0  0  0  0  0
    2.1267   -0.8843    0.9292 C   0  0  0  0  0  0  0  0  0  0  0  0
    4.8798   -1.2328   -1.8964 C   0  0  0  0  0  0  0  0  0  0  0  0
    4.7482   -2.6820   -2.1804 C   0  0  0  0  0  0  0  0  0  0  0  0
    5.0759   -0.1549   -2.7285 C   0  0  0  0  0  0  0  0  0  0  0  0
    5.2576   -0.1543   -4.5931 Br  0  0  0  0  0  0  0  0  0  0  0  0
    5.2089    3.0736   -1.4252 H   0  0  0  0  0  0  0  0  0  0  0  0
    4.5554    2.7095   -3.0277 H   0  0  0  0  0  0  0  0  0  0  0  0
    6.2993    2.5569   -2.7216 H   0  0  0  0  0  0  0  0  0  0  0  0
    4.8798   -0.7065    1.4476 H   0  0  0  0  0  0  0  0  0  0  0  0
    5.2883   -2.2271    0.6534 H   0  0  0  0  0  0  0  0  0  0  0  0
    3.6229   -3.9482    0.8359 H   0  0  0  0  0  0  0  0  0  0  0  0
    1.2878   -4.6653    1.1599 H   0  0  0  0  0  0  0  0  0  0  0  0
   -0.5206   -2.9972    1.3535 H   0  0  0  0  0  0  0  0  0  0  0  0
   -1.4884   -1.3940    0.0269 H   0  0  0  0  0  0  0  0  0  0  0  0
   -1.9819    1.2306   -1.3161 H   0  0  0  0  0  0  0  0  0  0  0  0
   -1.4824    2.1292    0.1063 H   0  0  0  0  0  0  0  0  0  0  0  0
   -3.3041    3.3313   -1.0576 H   0  0  0  0  0  0  0  0  0  0  0  0
   -3.1757    3.4934    1.4323 H   0  0  0  0  0  0  0  0  0  0  0  0
   -4.8474    3.5863    0.8838 H   0  0  0  0  0  0  0  0  0  0  0  0
   -4.6492    2.0352    2.8259 H   0  0  0  0  0  0  0  0  0  0  0  0
   -6.3718    1.5479    1.0907 H   0  0  0  0  0  0  0  0  0  0  0  0
   -5.7503    0.0524    1.7849 H   0  0  0  0  0  0  0  0  0  0  0  0
   -5.8627   -0.1138   -0.7012 H   0  0  0  0  0  0  0  0  0  0  0  0
   -5.5748    2.3134   -1.2078 H   0  0  0  0  0  0  0  0  0  0  0  0
   -4.4028    1.3470   -2.1005 H   0  0  0  0  0  0  0  0  0  0  0  0
   -4.0555   -1.3431    0.4913 H   0  0  0  0  0  0  0  0  0  0  0  0
   -3.5117   -0.8173   -1.0934 H   0  0  0  0  0  0  0  0  0  0  0  0
   -2.3078    1.3429    2.4740 H   0  0  0  0  0  0  0  0  0  0  0  0
   -3.3351   -0.0746    2.5899 H   0  0  0  0  0  0  0  0  0  0  0  0
    2.3535    0.1816    0.8786 H   0  0  0  0  0  0  0  0  0  0  0  0
    5.0966   -2.9254   -3.1885 H   0  0  0  0  0  0  0  0  0  0  0  0
    3.7016   -2.9919   -2.1062 H   0  0  0  0  0  0  0  0  0  0  0  0
    5.3408   -3.2798   -1.4816 H   0  0  0  0  0  0  0  0  0  0  0  0
  1  2  1  0
  2  3  2  0
  3  4  1  0
  4  5  1  0
  5  6  1  0
  6  7  2  0
  7  8  1  0
  8  9  2  0
  9 10  1  0
 10 11  1  0
 11 12  2  0
 11 13  1  0
 13 14  1  0
 14 15  1  0
 15 16  1  0
 16 17  1  0
 17 18  1  0
 18 19  1  0
 19 20  1  0
 20 21  1  0
 20 22  1  0
 18 23  1  0
 10 24  2  0
  4 25  1  0
 25 26  1  0
 25 27  2  0
 27 28  1  0
 27  2  1  0
 24  6  1  0
 22 14  1  0
 23 14  1  0
 21 16  1  0
  1 29  1  0
  1 30  1  0
  1 31  1  0
  5 32  1  0
  5 33  1  0
  7 34  1  0
  8 35  1  0
  9 36  1  0
 13 37  1  0
 15 38  1  0
 15 39  1  0
 16 40  1  0
 17 41  1  0
 17 42  1  0
 18 43  1  0
 19 44  1  0
 19 45  1  0
 20 46  1  0
 21 47  1  0
 21 48  1  0
 22 49  1  0
 22 50  1  0
 23 51  1  0
 23 52  1  0
 24 53  1  0
 26 54  1  0
 26 55  1  0
 26 56  1  0
M  END
$$$$
