
     RDKit          3D

 39 40  0  0  0  0  0  0  0  0999 V2000
    1.5379   -1.7937    3.1686 C   0  0  0  0  0  0  0  0  0  0  0  0
    1.9190   -1.9172    1.6964 C   0  0  0  0  0  0  0  0  0  0  0  0
    1.1471   -1.0200    0.7107 C   0  0  0  0  0  0  0  0  0  0  0  0
    1.0897    0.7470    1.2221 S   0  0  0  0  0  0  0  0  0  0  0  0
    2.7046    1.2402    0.8697 C   0  0  0  0  0  0  0  0  0  0  0  0
    3.5525    0.6404    0.0673 N   0  0  0  0  0  0  0  0  0  0  0  0
    4.7208    1.3695    0.0732 N   0  0  0  0  0  0  0  0  0  0  0  0
    4.5442    2.3951    0.8751 C   0  0  0  0  0  0  0  0  0  0  0  0
    3.2857    2.3563    1.3968 N   0  0  0  0  0  0  0  0  0  0  0  0
    2.7231    3.3043    2.3199 C   0  0  0  0  0  0  0  0  0  0  0  0
   -0.2960   -1.5068    0.4752 C   0  0  0  0  0  0  0  0  0  0  0  0
   -0.7970   -2.4168    1.1300 O   0  0  0  0  0  0  0  0  0  0  0  0
   -0.9162   -0.8318   -0.5637 N   0  0  0  0  0  0  0  0  0  0  0  0
   -2.2156   -1.0103   -1.0855 C   0  0  0  0  0  0  0  0  0  0  0  0
   -3.1124   -1.9725   -0.6182 C   0  0  0  0  0  0  0  0  0  0  0  0
   -4.3818   -2.0859   -1.1888 C   0  0  0  0  0  0  0  0  0  0  0  0
   -4.7608   -1.2410   -2.2285 C   0  0  0  0  0  0  0  0  0  0  0  0
   -3.8730   -0.2752   -2.7060 C   0  0  0  0  0  0  0  0  0  0  0  0
   -2.6001   -0.1531   -2.1404 C   0  0  0  0  0  0  0  0  0  0  0  0
   -1.6490    0.7621   -2.5319 O   0  0  0  0  0  0  0  0  0  0  0  0
   -1.9911    1.6307   -3.6051 C   0  0  0  0  0  0  0  0  0  0  0  0
    0.4655   -1.9353    3.3268 H   0  0  0  0  0  0  0  0  0  0  0  0
    2.0637   -2.5579    3.7509 H   0  0  0  0  0  0  0  0  0  0  0  0
    1.8238   -0.8218    3.5811 H   0  0  0  0  0  0  0  0  0  0  0  0
    2.9932   -1.7125    1.6058 H   0  0  0  0  0  0  0  0  0  0  0  0
    1.7898   -2.9652    1.3966 H   0  0  0  0  0  0  0  0  0  0  0  0
    1.6421   -1.0917   -0.2666 H   0  0  0  0  0  0  0  0  0  0  0  0
    5.2732    3.1610    1.0993 H   0  0  0  0  0  0  0  0  0  0  0  0
    2.4639    2.7828    3.2447 H   0  0  0  0  0  0  0  0  0  0  0  0
    3.4580    4.0844    2.5361 H   0  0  0  0  0  0  0  0  0  0  0  0
    1.8368    3.7551    1.8667 H   0  0  0  0  0  0  0  0  0  0  0  0
   -0.3999   -0.0765   -1.0077 H   0  0  0  0  0  0  0  0  0  0  0  0
   -2.8528   -2.6505    0.1884 H   0  0  0  0  0  0  0  0  0  0  0  0
   -5.0729   -2.8383   -0.8168 H   0  0  0  0  0  0  0  0  0  0  0  0
   -5.7503   -1.3351   -2.6690 H   0  0  0  0  0  0  0  0  0  0  0  0
   -4.2058    0.3621   -3.5176 H   0  0  0  0  0  0  0  0  0  0  0  0
   -2.1840    1.0664   -4.5235 H   0  0  0  0  0  0  0  0  0  0  0  0
   -2.8425    2.2669   -3.3417 H   0  0  0  0  0  0  0  0  0  0  0  0
   -1.1334    2.2847   -3.7907 H   0  0  0  0  0  0  0  0  0  0  0  0
  1  2  1  0
  2  3  1  0
  3  4  1  0
  4  5  1  0
  5  6  2  0
  6  7  1  0
  7  8  2  0
  8  9  1  0
  9 10  1  0
  3 11  1  0
 11 12  2  0
 11 13  1  0
 13 14  1  0
 14 15  2  0
 15 16  1  0
 16 17  2  0
 17 18  1  0
 18 19  2  0
 19 20  1  0
 20 21  1  0
  9  5  1  0
 19 14  1  0
  1 22  1  0
  1 23  1  0
  1 24  1  0
  2 25  1  0
  2 26  1  0
  3 27  1  0
  8 28  1  0
 10 29  1  0
 10 30  1  0
 10 31  1  0
 13 32  1  0
 15 33  1  0
 16 34  1  0
 17 35  1  0
 18 36  1  0
 21 37  1  0
 21 38  1  0
 21 39  1  0
M  END
$$$$
