
     RDKit          3D

 54 56  0  0  0  0  0  0  0  0999 V2000
   -6.4185    0.5611   -2.8816 C   0  0  0  0  0  0  0  0  0  0  0  0
   -6.3774    1.5114   -1.6946 C   0  0  0  0  0  0  0  0  0  0  0  0
   -6.8167    0.8650   -0.3770 C   0  0  0  0  0  0  0  0  0  0  0  0
   -5.9398   -0.2972    0.0827 C   0  0  0  0  0  0  0  0  0  0  0  0
   -4.5742    0.1177    0.3319 N   0  0  0  0  0  0  0  0  0  0  0  0
   -3.5422   -0.7992    0.3356 C   0  0  0  0  0  0  0  0  0  0  0  0
   -3.6961   -1.9823    0.0504 O   0  0  0  0  0  0  0  0  0  0  0  0
   -2.1919   -0.1988    0.7276 C   0  0  0  0  0  0  0  0  0  0  0  0
   -1.1277   -1.2940    0.8752 C   0  0  0  0  0  0  0  0  0  0  0  0
    0.2463   -0.7170    1.2081 C   0  0  0  0  0  0  0  0  0  0  0  0
    0.6925    0.3203    0.1651 C   0  0  0  0  0  0  0  0  0  0  0  0
    2.0536    0.9407    0.5261 C   0  0  0  0  0  0  0  0  0  0  0  0
    3.1069   -0.0625    0.4749 N   0  0  0  0  0  0  0  0  0  0  0  0
    4.4510    0.1436    0.7559 C   0  0  0  0  0  0  0  0  0  0  0  0
    4.8267    1.2943    1.3976 N   0  0  0  0  0  0  0  0  0  0  0  0
    6.1067    1.6465    1.7321 C   0  0  0  0  0  0  0  0  0  0  0  0
    6.3298    3.1081    2.5229 S   0  0  0  0  0  0  0  0  0  0  0  0
    7.1261    0.7997    1.4025 N   0  0  0  0  0  0  0  0  0  0  0  0
    6.8146   -0.3049    0.8048 C   0  0  0  0  0  0  0  0  0  0  0  0
    7.9111   -1.2445    0.4355 C   0  0  0  0  0  0  0  0  0  0  0  0
    7.6443   -2.4081   -0.1715 C   0  0  0  0  0  0  0  0  0  0  0  0
    6.2982   -2.8147   -0.4890 C   0  0  0  0  0  0  0  0  0  0  0  0
    5.2477   -2.0312   -0.2063 C   0  0  0  0  0  0  0  0  0  0  0  0
    5.4255   -0.7383    0.4343 C   0  0  0  0  0  0  0  0  0  0  0  0
   -0.3691    1.4217    0.0276 C   0  0  0  0  0  0  0  0  0  0  0  0
   -1.7472    0.8505   -0.3000 C   0  0  0  0  0  0  0  0  0  0  0  0
   -6.1928    1.1047   -3.8049 H   0  0  0  0  0  0  0  0  0  0  0  0
   -7.4094    0.1082   -2.9892 H   0  0  0  0  0  0  0  0  0  0  0  0
   -5.6795   -0.2394   -2.7804 H   0  0  0  0  0  0  0  0  0  0  0  0
   -7.0435    2.3576   -1.9029 H   0  0  0  0  0  0  0  0  0  0  0  0
   -5.3677    1.9262   -1.5955 H   0  0  0  0  0  0  0  0  0  0  0  0
   -7.8499    0.5106   -0.4761 H   0  0  0  0  0  0  0  0  0  0  0  0
   -6.8233    1.6399    0.3998 H   0  0  0  0  0  0  0  0  0  0  0  0
   -5.9524   -1.1155   -0.6442 H   0  0  0  0  0  0  0  0  0  0  0  0
   -6.3265   -0.6988    1.0260 H   0  0  0  0  0  0  0  0  0  0  0  0
   -4.4302    0.9893    0.8257 H   0  0  0  0  0  0  0  0  0  0  0  0
   -2.3233    0.2864    1.7044 H   0  0  0  0  0  0  0  0  0  0  0  0
   -1.0558   -1.8775   -0.0523 H   0  0  0  0  0  0  0  0  0  0  0  0
   -1.4254   -1.9986    1.6615 H   0  0  0  0  0  0  0  0  0  0  0  0
    0.9696   -1.5389    1.2619 H   0  0  0  0  0  0  0  0  0  0  0  0
    0.2141   -0.2567    2.2039 H   0  0  0  0  0  0  0  0  0  0  0  0
    0.7853   -0.1867   -0.8055 H   0  0  0  0  0  0  0  0  0  0  0  0
    2.2918    1.7421   -0.1828 H   0  0  0  0  0  0  0  0  0  0  0  0
    2.0017    1.3822    1.5280 H   0  0  0  0  0  0  0  0  0  0  0  0
    2.9480   -0.7843   -0.2214 H   0  0  0  0  0  0  0  0  0  0  0  0
    4.1137    1.9503    1.6755 H   0  0  0  0  0  0  0  0  0  0  0  0
    8.9209   -0.9392    0.6819 H   0  0  0  0  0  0  0  0  0  0  0  0
    8.4517   -3.0855   -0.4345 H   0  0  0  0  0  0  0  0  0  0  0  0
    6.1585   -3.7848   -0.9575 H   0  0  0  0  0  0  0  0  0  0  0  0
    4.2503   -2.3807   -0.4426 H   0  0  0  0  0  0  0  0  0  0  0  0
   -0.0768    2.1256   -0.7607 H   0  0  0  0  0  0  0  0  0  0  0  0
   -0.4312    1.9978    0.9597 H   0  0  0  0  0  0  0  0  0  0  0  0
   -1.7285    0.4030   -1.3026 H   0  0  0  0  0  0  0  0  0  0  0  0
   -2.4693    1.6746   -0.3459 H   0  0  0  0  0  0  0  0  0  0  0  0
  1  2  1  0
  2  3  1  0
  3  4  1  0
  4  5  1  0
  5  6  1  0
  6  7  2  0
  6  8  1  0
  8  9  1  0
  9 10  1  0
 10 11  1  0
 11 12  1  0
 12 13  1  0
 13 14  1  0
 14 15  1  0
 15 16  1  0
 16 17  2  0
 16 18  1  0
 18 19  2  0
 19 20  1  0
 20 21  2  0
 21 22  1  0
 22 23  2  0
 23 24  1  0
 11 25  1  0
 25 26  1  0
 26  8  1  0
 24 14  2  0
 24 19  1  0
  1 27  1  0
  1 28  1  0
  1 29  1  0
  2 30  1  0
  2 31  1  0
  3 32  1  0
  3 33  1  0
  4 34  1  0
  4 35  1  0
  5 36  1  0
  8 37  1  0
  9 38  1  0
  9 39  1  0
 10 40  1  0
 10 41  1  0
 11 42  1  0
 12 43  1  0
 12 44  1  0
 13 45  1  0
 15 46  1  0
 20 47  1  0
 21 48  1  0
 22 49  1  0
 23 50  1  0
 25 51  1  0
 25 52  1  0
 26 53  1  0
 26 54  1  0
M  END
$$$$
