
     RDKit          3D

 34 35  0  0  0  0  0  0  0  0999 V2000
   -1.4577    1.9195   -0.7920 O   0  0  0  0  0  0  0  0  0  0  0  0
   -0.9289    1.4189    0.1971 C   0  0  0  0  0  0  0  0  0  0  0  0
    0.1721    2.1450    0.9721 C   0  0  0  0  0  0  0  0  0  0  0  0
    1.4789    1.9043    0.4463 O   0  0  0  0  0  0  0  0  0  0  0  0
    2.0038    0.7011    0.7717 C   0  0  0  0  0  0  0  0  0  0  0  0
    1.4465   -0.1458    1.4528 O   0  0  0  0  0  0  0  0  0  0  0  0
    3.3467    0.5218    0.1808 C   0  0  0  0  0  0  0  0  0  0  0  0
    4.0291   -0.6829    0.3790 C   0  0  0  0  0  0  0  0  0  0  0  0
    5.2966   -0.8546   -0.1765 C   0  0  0  0  0  0  0  0  0  0  0  0
    5.8320    0.1908   -0.9099 C   0  0  0  0  0  0  0  0  0  0  0  0
    7.3843    0.0625   -1.6240 Cl  0  0  0  0  0  0  0  0  0  0  0  0
    5.2063    1.3670   -1.1235 N   0  0  0  0  0  0  0  0  0  0  0  0
    3.9738    1.5063   -0.5741 C   0  0  0  0  0  0  0  0  0  0  0  0
   -1.2292    0.1592    0.6909 N   0  0  0  0  0  0  0  0  0  0  0  0
   -2.2332   -0.6800    0.1382 C   0  0  0  0  0  0  0  0  0  0  0  0
   -1.9150   -2.0450   -0.0428 C   0  0  0  0  0  0  0  0  0  0  0  0
   -0.3688   -2.6802    0.4120 Cl  0  0  0  0  0  0  0  0  0  0  0  0
   -2.8196   -2.9324   -0.6302 C   0  0  0  0  0  0  0  0  0  0  0  0
   -4.0668   -2.4789   -1.0368 C   0  0  0  0  0  0  0  0  0  0  0  0
   -4.4164   -1.1480   -0.8205 C   0  0  0  0  0  0  0  0  0  0  0  0
   -3.5264   -0.2354   -0.2049 C   0  0  0  0  0  0  0  0  0  0  0  0
   -4.0887    1.1331    0.1155 C   0  0  0  0  0  0  0  0  0  0  0  0
   -4.1546    1.9618   -0.9609 F   0  0  0  0  0  0  0  0  0  0  0  0
   -5.3827    1.0407    0.5607 F   0  0  0  0  0  0  0  0  0  0  0  0
   -3.4455    1.8107    1.1080 F   0  0  0  0  0  0  0  0  0  0  0  0
    0.1227    1.8961    2.0395 H   0  0  0  0  0  0  0  0  0  0  0  0
   -0.0225    3.2206    0.8987 H   0  0  0  0  0  0  0  0  0  0  0  0
    3.5798   -1.4859    0.9601 H   0  0  0  0  0  0  0  0  0  0  0  0
    5.8451   -1.7797   -0.0376 H   0  0  0  0  0  0  0  0  0  0  0  0
    3.5049    2.4666   -0.7738 H   0  0  0  0  0  0  0  0  0  0  0  0
   -0.4264   -0.3242    1.1079 H   0  0  0  0  0  0  0  0  0  0  0  0
   -2.5513   -3.9751   -0.7817 H   0  0  0  0  0  0  0  0  0  0  0  0
   -4.7737   -3.1618   -1.5024 H   0  0  0  0  0  0  0  0  0  0  0  0
   -5.4152   -0.8162   -1.1094 H   0  0  0  0  0  0  0  0  0  0  0  0
  1  2  2  0
  2  3  1  0
  3  4  1  0
  4  5  1  0
  5  6  2  0
  5  7  1  0
  7  8  2  0
  8  9  1  0
  9 10  2  0
 10 11  1  0
 10 12  1  0
 12 13  2  0
  2 14  1  0
 14 15  1  0
 15 16  2  0
 16 17  1  0
 16 18  1  0
 18 19  2  0
 19 20  1  0
 20 21  2  0
 21 22  1  0
 22 23  1  0
 22 24  1  0
 22 25  1  0
 13  7  1  0
 21 15  1  0
  3 26  1  0
  3 27  1  0
  8 28  1  0
  9 29  1  0
 13 30  1  0
 14 31  1  0
 18 32  1  0
 19 33  1  0
 20 34  1  0
M  END
$$$$
