
     RDKit          3D

 72 74  0  0  0  0  0  0  0  0999 V2000
   10.1834   -0.0768   -1.9063 C   0  0  0  0  0  0  0  0  0  0  0  0
    8.7043    0.2736   -1.9695 C   0  0  0  0  0  0  0  0  0  0  0  0
    8.4188    1.6111   -1.2853 C   0  0  0  0  0  0  0  0  0  0  0  0
    6.9703    2.0799   -1.4506 C   0  0  0  0  0  0  0  0  0  0  0  0
    5.9561    1.1872   -0.7311 C   0  0  0  0  0  0  0  0  0  0  0  0
    4.5351    1.7432   -0.8656 C   0  0  0  0  0  0  0  0  0  0  0  0
    3.5213    0.8441   -0.1557 C   0  0  0  0  0  0  0  0  0  0  0  0
    2.0912    1.3922   -0.1794 C   0  0  0  0  0  0  0  0  0  0  0  0
    1.4985    1.4854   -1.5893 C   0  0  0  0  0  0  0  0  0  0  0  0
    0.0201    1.8717   -1.5689 C   0  0  0  0  0  0  0  0  0  0  0  0
   -0.7579    0.8858   -0.8662 O   0  0  0  0  0  0  0  0  0  0  0  0
   -1.1326   -0.2064   -1.5885 C   0  0  0  0  0  0  0  0  0  0  0  0
   -0.9214   -0.3663   -2.7821 O   0  0  0  0  0  0  0  0  0  0  0  0
   -1.8476   -1.2382   -0.7265 C   0  0  0  0  0  0  0  0  0  0  0  0
   -2.3267   -0.6983    0.5690 N   0  0  0  0  0  0  0  0  0  0  0  0
   -3.3751    0.1501    0.7183 C   0  0  0  0  0  0  0  0  0  0  0  0
   -4.3038    0.6537   -0.3772 C   0  0  0  0  0  0  0  0  0  0  0  0
   -5.6590    0.7706    0.0391 O   0  0  0  0  0  0  0  0  0  0  0  0
   -6.4312   -0.3569    0.0534 C   0  0  0  0  0  0  0  0  0  0  0  0
   -7.7929   -0.1186    0.2544 C   0  0  0  0  0  0  0  0  0  0  0  0
   -8.6992   -1.1770    0.3055 C   0  0  0  0  0  0  0  0  0  0  0  0
   -8.2477   -2.4859    0.1560 C   0  0  0  0  0  0  0  0  0  0  0  0
   -6.8880   -2.7432   -0.0522 C   0  0  0  0  0  0  0  0  0  0  0  0
   -6.4044   -4.1597   -0.1794 C   0  0  0  0  0  0  0  0  0  0  0  0
   -5.9811   -1.6712   -0.0881 C   0  0  0  0  0  0  0  0  0  0  0  0
   -3.4312    0.4816    2.0300 N   0  0  0  0  0  4  0  0  0  0  0  0
   -4.4073    1.4036    2.6131 C   0  0  0  0  0  0  0  0  0  0  0  0
   -2.4513   -0.1981    2.7418 C   0  0  0  0  0  0  0  0  0  0  0  0
   -2.1421   -0.2143    4.1001 C   0  0  0  0  0  0  0  0  0  0  0  0
   -1.0499   -1.0063    4.4767 C   0  0  0  0  0  0  0  0  0  0  0  0
   -0.3109   -1.7413    3.5320 C   0  0  0  0  0  0  0  0  0  0  0  0
   -0.6341   -1.7236    2.1685 C   0  0  0  0  0  0  0  0  0  0  0  0
   -1.7271   -0.9378    1.8043 C   0  0  0  0  0  0  0  0  0  0  0  0
   10.3672   -1.0360   -2.4013 H   0  0  0  0  0  0  0  0  0  0  0  0
   10.5238   -0.1581   -0.8689 H   0  0  0  0  0  0  0  0  0  0  0  0
   10.7887    0.6843   -2.4084 H   0  0  0  0  0  0  0  0  0  0  0  0
    8.1343   -0.5282   -1.4894 H   0  0  0  0  0  0  0  0  0  0  0  0
    8.3904    0.3150   -3.0189 H   0  0  0  0  0  0  0  0  0  0  0  0
    8.6655    1.5414   -0.2182 H   0  0  0  0  0  0  0  0  0  0  0  0
    9.0767    2.3790   -1.7124 H   0  0  0  0  0  0  0  0  0  0  0  0
    6.8934    3.0995   -1.0535 H   0  0  0  0  0  0  0  0  0  0  0  0
    6.7233    2.1378   -2.5175 H   0  0  0  0  0  0  0  0  0  0  0  0
    6.2223    1.1099    0.3297 H   0  0  0  0  0  0  0  0  0  0  0  0
    5.9829    0.1744   -1.1474 H   0  0  0  0  0  0  0  0  0  0  0  0
    4.2842    1.8259   -1.9290 H   0  0  0  0  0  0  0  0  0  0  0  0
    4.4928    2.7527   -0.4394 H   0  0  0  0  0  0  0  0  0  0  0  0
    3.8226    0.7237    0.8923 H   0  0  0  0  0  0  0  0  0  0  0  0
    3.5363   -0.1563   -0.6049 H   0  0  0  0  0  0  0  0  0  0  0  0
    2.0680    2.3812    0.2938 H   0  0  0  0  0  0  0  0  0  0  0  0
    1.4704    0.7316    0.4377 H   0  0  0  0  0  0  0  0  0  0  0  0
    2.0435    2.2316   -2.1763 H   0  0  0  0  0  0  0  0  0  0  0  0
    1.6195    0.5179   -2.0891 H   0  0  0  0  0  0  0  0  0  0  0  0
   -0.1157    2.8221   -1.0418 H   0  0  0  0  0  0  0  0  0  0  0  0
   -0.3645    2.0143   -2.5854 H   0  0  0  0  0  0  0  0  0  0  0  0
   -1.1618   -2.0706   -0.5483 H   0  0  0  0  0  0  0  0  0  0  0  0
   -2.7147   -1.6202   -1.2729 H   0  0  0  0  0  0  0  0  0  0  0  0
   -3.9266    1.6553   -0.6053 H   0  0  0  0  0  0  0  0  0  0  0  0
   -4.1942    0.0341   -1.2700 H   0  0  0  0  0  0  0  0  0  0  0  0
   -8.1596    0.8997    0.3647 H   0  0  0  0  0  0  0  0  0  0  0  0
   -9.7585   -0.9819    0.4587 H   0  0  0  0  0  0  0  0  0  0  0  0
   -8.9647   -3.3044    0.2001 H   0  0  0  0  0  0  0  0  0  0  0  0
   -6.2291   -4.5855    0.8131 H   0  0  0  0  0  0  0  0  0  0  0  0
   -7.1408   -4.7755   -0.7066 H   0  0  0  0  0  0  0  0  0  0  0  0
   -5.4717   -4.2062   -0.7517 H   0  0  0  0  0  0  0  0  0  0  0  0
   -4.9340   -1.9095   -0.2245 H   0  0  0  0  0  0  0  0  0  0  0  0
   -4.0051    1.8559    3.5218 H   0  0  0  0  0  0  0  0  0  0  0  0
   -4.6222    2.2124    1.9109 H   0  0  0  0  0  0  0  0  0  0  0  0
   -5.3207    0.8521    2.8493 H   0  0  0  0  0  0  0  0  0  0  0  0
   -2.7110    0.3528    4.8262 H   0  0  0  0  0  0  0  0  0  0  0  0
   -0.7627   -1.0530    5.5278 H   0  0  0  0  0  0  0  0  0  0  0  0
    0.5348   -2.3410    3.8722 H   0  0  0  0  0  0  0  0  0  0  0  0
   -0.0599   -2.2919    1.4479 H   0  0  0  0  0  0  0  0  0  0  0  0
  1  2  1  0
  2  3  1  0
  3  4  1  0
  4  5  1  0
  5  6  1  0
  6  7  1  0
  7  8  1  0
  8  9  1  0
  9 10  1  0
 10 11  1  0
 11 12  1  0
 12 13  2  0
 12 14  1  0
 14 15  1  0
 15 16  1  0
 16 17  1  0
 17 18  1  0
 18 19  1  0
 19 20  2  0
 20 21  1  0
 21 22  2  0
 22 23  1  0
 23 24  1  0
 23 25  2  0
 16 26  2  0
 26 27  1  0
 26 28  1  0
 28 29  2  0
 29 30  1  0
 30 31  2  0
 31 32  1  0
 32 33  2  0
 33 15  1  0
 25 19  1  0
 33 28  1  0
  1 34  1  0
  1 35  1  0
  1 36  1  0
  2 37  1  0
  2 38  1  0
  3 39  1  0
  3 40  1  0
  4 41  1  0
  4 42  1  0
  5 43  1  0
  5 44  1  0
  6 45  1  0
  6 46  1  0
  7 47  1  0
  7 48  1  0
  8 49  1  0
  8 50  1  0
  9 51  1  0
  9 52  1  0
 10 53  1  0
 10 54  1  0
 14 55  1  0
 14 56  1  0
 17 57  1  0
 17 58  1  0
 20 59  1  0
 21 60  1  0
 22 61  1  0
 24 62  1  0
 24 63  1  0
 24 64  1  0
 25 65  1  0
 27 66  1  0
 27 67  1  0
 27 68  1  0
 29 69  1  0
 30 70  1  0
 31 71  1  0
 32 72  1  0
M  CHG  1  26   1
M  END
$$$$
