
     RDKit          3D

 45 47  0  0  0  0  0  0  0  0999 V2000
    2.9334   -2.3545   -0.2314 O   0  0  0  0  0  0  0  0  0  0  0  0
    1.9831   -2.0178    0.4772 C   0  0  0  0  0  0  0  0  0  0  0  0
    2.1746   -1.3387    1.8318 C   0  0  0  0  0  0  0  0  0  0  0  0
    3.7004   -0.3462    1.9119 S   0  0  0  0  0  0  0  0  0  0  0  0
    3.1867    1.0754    0.9666 C   0  0  0  0  0  0  0  0  0  0  0  0
    3.1630    1.0404   -0.4325 C   0  0  0  0  0  0  0  0  0  0  0  0
    2.7874    2.1729   -1.1603 C   0  0  0  0  0  0  0  0  0  0  0  0
    2.4497    3.3456   -0.4871 C   0  0  0  0  0  0  0  0  0  0  0  0
    1.9543    4.8839   -1.4713 Br  0  0  0  0  0  0  0  0  0  0  0  0
    2.4809    3.3955    0.9068 C   0  0  0  0  0  0  0  0  0  0  0  0
    2.8491    2.2593    1.6319 C   0  0  0  0  0  0  0  0  0  0  0  0
    0.6744   -2.2681    0.0816 N   0  0  0  0  0  0  0  0  0  0  0  0
    0.4195   -2.8359   -1.2471 C   0  0  0  0  0  0  0  0  0  0  0  0
   -0.7970   -2.1792   -1.9129 C   0  0  0  0  0  0  0  0  0  0  0  0
   -2.0194   -2.2617   -1.0641 N   0  0  0  0  0  0  0  0  0  0  0  0
   -3.2731   -1.1752   -1.4129 S   0  0  0  0  0  6  0  0  0  0  0  0
   -3.3438   -1.0242   -2.8500 O   0  0  0  0  0  0  0  0  0  0  0  0
   -4.4316   -1.5713   -0.6400 O   0  0  0  0  0  0  0  0  0  0  0  0
   -2.6859    0.3650   -0.7362 C   0  0  0  0  0  0  0  0  0  0  0  0
   -3.0222    0.7185    0.5752 C   0  0  0  0  0  0  0  0  0  0  0  0
   -2.5802    1.9340    1.0949 C   0  0  0  0  0  0  0  0  0  0  0  0
   -1.8201    2.7972    0.3034 C   0  0  0  0  0  0  0  0  0  0  0  0
   -1.5120    2.4542   -1.0134 C   0  0  0  0  0  0  0  0  0  0  0  0
   -1.9502    1.2417   -1.5406 C   0  0  0  0  0  0  0  0  0  0  0  0
   -1.7913   -2.6450    0.3536 C   0  0  0  0  0  0  0  0  0  0  0  0
   -0.5054   -2.0224    0.9158 C   0  0  0  0  0  0  0  0  0  0  0  0
    2.2321   -2.1269    2.5918 H   0  0  0  0  0  0  0  0  0  0  0  0
    1.3365   -0.6834    2.0794 H   0  0  0  0  0  0  0  0  0  0  0  0
    3.4543    0.1385   -0.9666 H   0  0  0  0  0  0  0  0  0  0  0  0
    2.7727    2.1330   -2.2454 H   0  0  0  0  0  0  0  0  0  0  0  0
    2.2343    4.3135    1.4341 H   0  0  0  0  0  0  0  0  0  0  0  0
    2.8941    2.3105    2.7180 H   0  0  0  0  0  0  0  0  0  0  0  0
    0.2514   -3.9103   -1.1121 H   0  0  0  0  0  0  0  0  0  0  0  0
    1.2949   -2.7229   -1.8940 H   0  0  0  0  0  0  0  0  0  0  0  0
   -0.5499   -1.1342   -2.1172 H   0  0  0  0  0  0  0  0  0  0  0  0
   -1.0024   -2.6743   -2.8662 H   0  0  0  0  0  0  0  0  0  0  0  0
   -3.6368    0.0634    1.1888 H   0  0  0  0  0  0  0  0  0  0  0  0
   -2.8412    2.2182    2.1104 H   0  0  0  0  0  0  0  0  0  0  0  0
   -1.4945    3.7550    0.7034 H   0  0  0  0  0  0  0  0  0  0  0  0
   -0.9477    3.1445   -1.6369 H   0  0  0  0  0  0  0  0  0  0  0  0
   -1.7285    0.9927   -2.5769 H   0  0  0  0  0  0  0  0  0  0  0  0
   -1.7243   -3.7400    0.3908 H   0  0  0  0  0  0  0  0  0  0  0  0
   -2.6404   -2.3729    0.9884 H   0  0  0  0  0  0  0  0  0  0  0  0
   -0.3121   -2.4112    1.9219 H   0  0  0  0  0  0  0  0  0  0  0  0
   -0.6169   -0.9362    0.9918 H   0  0  0  0  0  0  0  0  0  0  0  0
  1  2  2  0
  2  3  1  0
  3  4  1  0
  4  5  1  0
  5  6  2  0
  6  7  1  0
  7  8  2  0
  8  9  1  0
  8 10  1  0
 10 11  2  0
  2 12  1  0
 12 13  1  0
 13 14  1  0
 14 15  1  0
 15 16  1  0
 16 17  2  0
 16 18  2  0
 16 19  1  0
 19 20  2  0
 20 21  1  0
 21 22  2  0
 22 23  1  0
 23 24  2  0
 15 25  1  0
 25 26  1  0
 11  5  1  0
 26 12  1  0
 24 19  1  0
  3 27  1  0
  3 28  1  0
  6 29  1  0
  7 30  1  0
 10 31  1  0
 11 32  1  0
 13 33  1  0
 13 34  1  0
 14 35  1  0
 14 36  1  0
 20 37  1  0
 21 38  1  0
 22 39  1  0
 23 40  1  0
 24 41  1  0
 25 42  1  0
 25 43  1  0
 26 44  1  0
 26 45  1  0
M  END
$$$$
