
     RDKit          3D

 39 41  0  0  0  0  0  0  0  0999 V2000
   -3.2748    2.6864    0.9028 C   0  0  0  0  0  0  0  0  0  0  0  0
   -2.6773    1.6612    0.0039 C   0  0  0  0  0  0  0  0  0  0  0  0
   -2.6581    1.8366   -1.3541 N   0  0  0  0  0  0  0  0  0  0  0  0
   -2.0607    0.7659   -1.9709 C   0  0  0  0  0  0  0  0  0  0  0  0
   -1.8334    0.5401   -3.3347 C   0  0  0  0  0  0  0  0  0  0  0  0
   -1.2286   -0.6615   -3.7049 C   0  0  0  0  0  0  0  0  0  0  0  0
   -0.8801   -1.6048   -2.7462 C   0  0  0  0  0  0  0  0  0  0  0  0
   -1.1176   -1.3630   -1.3870 C   0  0  0  0  0  0  0  0  0  0  0  0
   -1.7008   -0.1432   -0.9731 C   0  0  0  0  0  0  0  0  0  0  0  0
   -2.0634    0.4451    0.2916 C   0  0  0  0  0  0  0  0  0  0  0  0
   -1.8666   -0.0598    1.6622 C   0  0  0  0  0  0  0  0  0  0  0  0
   -2.6418    0.2675    2.5640 O   0  0  0  0  0  0  0  0  0  0  0  0
   -0.6764   -0.9870    1.9510 C   0  0  0  0  0  0  0  0  0  0  0  0
   -0.4512   -1.1524    3.4513 C   0  0  0  0  0  0  0  0  0  0  0  0
    0.5050   -0.3985    1.3805 O   0  0  0  0  0  0  0  0  0  0  0  0
    1.4574   -1.2702    0.9466 C   0  0  0  0  0  0  0  0  0  0  0  0
    1.3854   -2.4859    1.0670 O   0  0  0  0  0  0  0  0  0  0  0  0
    2.5291   -0.5359    0.3146 C   0  0  0  0  0  0  0  0  0  0  0  0
    2.7186    0.8171    0.0678 C   0  0  0  0  0  0  0  0  0  0  0  0
    3.9611    0.9518   -0.6027 C   0  0  0  0  0  0  0  0  0  0  0  0
    4.4479   -0.3271   -0.7227 C   0  0  0  0  0  0  0  0  0  0  0  0
    5.6496   -0.8344   -1.3074 N   0  0  0  0  0  4  0  0  0  0  0  0
    6.4133    0.0071   -1.8006 O   0  0  0  0  0  0  0  0  0  0  0  0
    5.8380   -2.0564   -1.2798 O   0  0  0  0  0  1  0  0  0  0  0  0
    3.6027   -1.2396   -0.1761 O   0  0  0  0  0  0  0  0  0  0  0  0
   -3.5354    3.5982    0.3553 H   0  0  0  0  0  0  0  0  0  0  0  0
   -2.5696    2.9628    1.6931 H   0  0  0  0  0  0  0  0  0  0  0  0
   -4.1872    2.2996    1.3674 H   0  0  0  0  0  0  0  0  0  0  0  0
   -3.0372    2.6360   -1.8435 H   0  0  0  0  0  0  0  0  0  0  0  0
   -2.1235    1.2679   -4.0861 H   0  0  0  0  0  0  0  0  0  0  0  0
   -1.0422   -0.8675   -4.7566 H   0  0  0  0  0  0  0  0  0  0  0  0
   -0.4270   -2.5453   -3.0524 H   0  0  0  0  0  0  0  0  0  0  0  0
   -0.8558   -2.1410   -0.6774 H   0  0  0  0  0  0  0  0  0  0  0  0
   -0.9104   -1.9632    1.5127 H   0  0  0  0  0  0  0  0  0  0  0  0
   -1.3287   -1.5858    3.9416 H   0  0  0  0  0  0  0  0  0  0  0  0
   -0.2353   -0.1869    3.9229 H   0  0  0  0  0  0  0  0  0  0  0  0
    0.4095   -1.8002    3.6477 H   0  0  0  0  0  0  0  0  0  0  0  0
    2.0302    1.6083    0.3371 H   0  0  0  0  0  0  0  0  0  0  0  0
    4.4354    1.8580   -0.9549 H   0  0  0  0  0  0  0  0  0  0  0  0
  1  2  1  0
  2  3  1  0
  3  4  1  0
  4  5  2  0
  5  6  1  0
  6  7  2  0
  7  8  1  0
  8  9  2  0
  9 10  1  0
 10 11  1  0
 11 12  2  0
 11 13  1  0
 13 14  1  0
 13 15  1  0
 15 16  1  0
 16 17  2  0
 16 18  1  0
 18 19  2  0
 19 20  1  0
 20 21  2  0
 21 22  1  0
 22 23  2  0
 22 24  1  0
 21 25  1  0
 10  2  2  0
 25 18  1  0
  9  4  1  0
  1 26  1  0
  1 27  1  0
  1 28  1  0
  3 29  1  0
  5 30  1  0
  6 31  1  0
  7 32  1  0
  8 33  1  0
 13 34  1  0
 14 35  1  0
 14 36  1  0
 14 37  1  0
 19 38  1  0
 20 39  1  0
M  CHG  2  22   1  24  -1
M  END
$$$$
