
     RDKit          3D

 42 45  0  0  0  0  0  0  0  0999 V2000
   -2.2647   -0.0658   -2.3778 O   0  0  0  0  0  0  0  0  0  0  0  0
   -1.6349   -0.5250   -1.4329 C   0  0  0  0  0  0  0  0  0  0  0  0
   -0.1979   -0.2359   -1.1798 C   0  0  0  0  0  0  0  0  0  0  0  0
    0.4849    0.5541   -2.0192 C   0  0  0  0  0  0  0  0  0  0  0  0
    1.8573    0.9108   -1.8944 C   0  0  0  0  0  0  0  0  0  0  0  0
    2.6330    1.6377   -2.7898 C   0  0  0  0  0  0  0  0  0  0  0  0
    3.9382    1.7484   -2.2519 C   0  0  0  0  0  0  0  0  0  0  0  0
    3.9159    1.0990   -1.0386 C   0  0  0  0  0  0  0  0  0  0  0  0
    4.8859    0.8278    0.0214 C   0  0  0  0  0  0  0  0  0  0  0  0
    4.8012   -0.3987    0.7104 C   0  0  0  0  0  0  0  0  0  0  0  0
    5.7038   -0.7317    1.7239 C   0  0  0  0  0  0  0  0  0  0  0  0
    6.7127    0.1580    2.0733 C   0  0  0  0  0  0  0  0  0  0  0  0
    6.8131    1.3809    1.4125 C   0  0  0  0  0  0  0  0  0  0  0  0
    5.9078    1.7189    0.3954 C   0  0  0  0  0  0  0  0  0  0  0  0
    6.1052    3.2856   -0.3156 Cl  0  0  0  0  0  0  0  0  0  0  0  0
    2.6671    0.5904   -0.8317 O   0  0  0  0  0  0  0  0  0  0  0  0
    0.3131   -1.0499    0.2415 S   0  0  0  0  0  0  0  0  0  0  0  0
   -1.2703   -1.7608    0.5317 C   0  0  0  0  0  0  0  0  0  0  0  0
   -1.5517   -2.7776    1.8250 S   0  0  0  0  0  0  0  0  0  0  0  0
   -2.1417   -1.3702   -0.4631 N   0  0  0  0  0  0  0  0  0  0  0  0
   -3.5672   -1.7092   -0.5153 C   0  0  0  0  0  0  0  0  0  0  0  0
   -4.4480   -0.5565   -0.0165 C   0  0  0  0  0  0  0  0  0  0  0  0
   -5.9338   -0.8683   -0.0994 C   0  0  0  0  0  0  0  0  0  0  0  0
   -6.4943    0.0376    0.9681 C   0  0  0  0  0  0  0  0  0  0  0  0
   -5.4297   -0.0465    2.0407 C   0  0  0  0  0  0  0  0  0  0  0  0
   -4.1811   -0.2755    1.3711 O   0  0  0  0  0  0  0  0  0  0  0  0
   -0.0369    0.9675   -2.8805 H   0  0  0  0  0  0  0  0  0  0  0  0
    2.2913    2.0388   -3.7345 H   0  0  0  0  0  0  0  0  0  0  0  0
    4.7875    2.2392   -2.7053 H   0  0  0  0  0  0  0  0  0  0  0  0
    4.0201   -1.1140    0.4543 H   0  0  0  0  0  0  0  0  0  0  0  0
    5.6127   -1.6856    2.2379 H   0  0  0  0  0  0  0  0  0  0  0  0
    7.4156   -0.0955    2.8628 H   0  0  0  0  0  0  0  0  0  0  0  0
    7.5982    2.0765    1.7002 H   0  0  0  0  0  0  0  0  0  0  0  0
   -3.7547   -2.6096    0.0765 H   0  0  0  0  0  0  0  0  0  0  0  0
   -3.8247   -1.9389   -1.5563 H   0  0  0  0  0  0  0  0  0  0  0  0
   -4.2313    0.3650   -0.5702 H   0  0  0  0  0  0  0  0  0  0  0  0
   -6.1320   -1.9141    0.1651 H   0  0  0  0  0  0  0  0  0  0  0  0
   -6.3519   -0.6804   -1.0922 H   0  0  0  0  0  0  0  0  0  0  0  0
   -7.4837   -0.2608    1.3243 H   0  0  0  0  0  0  0  0  0  0  0  0
   -6.5617    1.0635    0.5871 H   0  0  0  0  0  0  0  0  0  0  0  0
   -5.3646    0.8654    2.6408 H   0  0  0  0  0  0  0  0  0  0  0  0
   -5.6078   -0.8943    2.7107 H   0  0  0  0  0  0  0  0  0  0  0  0
  1  2  2  0
  2  3  1  0
  3  4  2  3
  4  5  1  0
  5  6  2  0
  6  7  1  0
  7  8  2  0
  8  9  1  0
  9 10  2  0
 10 11  1  0
 11 12  2  0
 12 13  1  0
 13 14  2  0
 14 15  1  0
  8 16  1  0
  3 17  1  0
 17 18  1  0
 18 19  2  0
 18 20  1  0
 20 21  1  0
 21 22  1  0
 22 23  1  0
 23 24  1  0
 24 25  1  0
 25 26  1  0
 20  2  1  0
 26 22  1  0
 16  5  1  0
 14  9  1  0
  4 27  1  0
  6 28  1  0
  7 29  1  0
 10 30  1  0
 11 31  1  0
 12 32  1  0
 13 33  1  0
 21 34  1  0
 21 35  1  0
 22 36  1  0
 23 37  1  0
 23 38  1  0
 24 39  1  0
 24 40  1  0
 25 41  1  0
 25 42  1  0
M  END
$$$$
