
     RDKit          3D

 55 58  0  0  0  0  0  0  0  0999 V2000
    3.0862   -1.3807    0.7987 C   0  0  0  0  0  0  0  0  0  0  0  0
    3.1530   -0.0684    0.2545 O   0  0  0  0  0  0  0  0  0  0  0  0
    4.3070    0.6412    0.4696 C   0  0  0  0  0  0  0  0  0  0  0  0
    5.4741    0.1139    1.0310 C   0  0  0  0  0  0  0  0  0  0  0  0
    6.6106    0.9132    1.1795 C   0  0  0  0  0  0  0  0  0  0  0  0
    6.5933    2.2406    0.7621 C   0  0  0  0  0  0  0  0  0  0  0  0
    5.4361    2.7759    0.2004 C   0  0  0  0  0  0  0  0  0  0  0  0
    4.2815    1.9888    0.0597 C   0  0  0  0  0  0  0  0  0  0  0  0
    3.0399    2.5902   -0.5586 C   0  0  0  0  0  0  0  0  0  0  0  0
    2.9066    2.1855   -1.9601 N   0  0  0  0  0  0  0  0  0  0  0  0
    1.5181    2.6516   -2.7761 S   0  0  0  0  0  6  0  0  0  0  0  0
    1.5869    2.0636   -4.0957 O   0  0  0  0  0  0  0  0  0  0  0  0
    1.3363    4.0726   -2.5796 O   0  0  0  0  0  0  0  0  0  0  0  0
    0.2382    1.7948   -1.8863 C   0  0  0  0  0  0  0  0  0  0  0  0
   -0.6226    2.5076   -1.0352 C   0  0  0  0  0  0  0  0  0  0  0  0
   -1.6318    1.8367   -0.3346 C   0  0  0  0  0  0  0  0  0  0  0  0
   -1.7569    0.4649   -0.4934 C   0  0  0  0  0  0  0  0  0  0  0  0
   -0.9110   -0.2282   -1.3668 C   0  0  0  0  0  0  0  0  0  0  0  0
    0.0889    0.4175   -2.0779 C   0  0  0  0  0  0  0  0  0  0  0  0
   -1.3137   -1.6654   -1.4705 C   0  0  0  0  0  0  0  0  0  0  0  0
   -2.2485   -1.8040   -0.2506 C   0  0  0  0  0  0  0  0  0  0  0  0
   -1.4768   -2.4143    0.9303 C   0  0  0  0  0  0  0  0  0  0  0  0
   -2.6941   -0.4277    0.0828 N   0  0  0  0  0  0  0  0  0  0  0  0
   -3.7260   -0.0487    0.9399 C   0  0  0  0  0  0  0  0  0  0  0  0
   -3.7076    1.0464    1.5275 O   0  0  0  0  0  0  0  0  0  0  0  0
   -4.9684   -0.9422    1.1084 C   0  0  0  0  0  0  0  0  0  0  0  0
   -5.7320   -1.4599   -0.1364 C   0  0  0  0  0  0  0  0  0  0  0  0
   -6.1825   -2.6583    0.7227 C   0  0  0  0  0  0  0  0  0  0  0  0
   -4.9543   -2.3989    1.6203 C   0  0  0  0  0  0  0  0  0  0  0  0
    3.2357   -1.3696    1.8834 H   0  0  0  0  0  0  0  0  0  0  0  0
    2.0822   -1.7705    0.6049 H   0  0  0  0  0  0  0  0  0  0  0  0
    3.8013   -2.0468    0.3053 H   0  0  0  0  0  0  0  0  0  0  0  0
    5.5387   -0.9191    1.3560 H   0  0  0  0  0  0  0  0  0  0  0  0
    7.5148    0.4947    1.6147 H   0  0  0  0  0  0  0  0  0  0  0  0
    7.4817    2.8581    0.8691 H   0  0  0  0  0  0  0  0  0  0  0  0
    5.4376    3.8120   -0.1330 H   0  0  0  0  0  0  0  0  0  0  0  0
    3.0854    3.6836   -0.4961 H   0  0  0  0  0  0  0  0  0  0  0  0
    2.1737    2.2746    0.0317 H   0  0  0  0  0  0  0  0  0  0  0  0
    3.1693    1.2197   -2.1511 H   0  0  0  0  0  0  0  0  0  0  0  0
   -0.5170    3.5840   -0.9133 H   0  0  0  0  0  0  0  0  0  0  0  0
   -2.2895    2.4032    0.3164 H   0  0  0  0  0  0  0  0  0  0  0  0
    0.7234   -0.1262   -2.7715 H   0  0  0  0  0  0  0  0  0  0  0  0
   -0.4603   -2.3490   -1.4400 H   0  0  0  0  0  0  0  0  0  0  0  0
   -1.8721   -1.8151   -2.4013 H   0  0  0  0  0  0  0  0  0  0  0  0
   -3.0979   -2.4419   -0.4991 H   0  0  0  0  0  0  0  0  0  0  0  0
   -2.0634   -2.3989    1.8530 H   0  0  0  0  0  0  0  0  0  0  0  0
   -0.5540   -1.8600    1.1369 H   0  0  0  0  0  0  0  0  0  0  0  0
   -1.2041   -3.4523    0.7136 H   0  0  0  0  0  0  0  0  0  0  0  0
   -5.6818   -0.3736    1.7356 H   0  0  0  0  0  0  0  0  0  0  0  0
   -5.1116   -1.7345   -0.9944 H   0  0  0  0  0  0  0  0  0  0  0  0
   -6.5412   -0.8146   -0.4907 H   0  0  0  0  0  0  0  0  0  0  0  0
   -6.2039   -3.6253    0.2140 H   0  0  0  0  0  0  0  0  0  0  0  0
   -7.1405   -2.4999    1.2312 H   0  0  0  0  0  0  0  0  0  0  0  0
   -5.1331   -2.5180    2.6931 H   0  0  0  0  0  0  0  0  0  0  0  0
   -4.1038   -3.0224    1.3466 H   0  0  0  0  0  0  0  0  0  0  0  0
  1  2  1  0
  2  3  1  0
  3  4  2  0
  4  5  1  0
  5  6  2  0
  6  7  1  0
  7  8  2  0
  8  9  1  0
  9 10  1  0
 10 11  1  0
 11 12  2  0
 11 13  2  0
 11 14  1  0
 14 15  2  0
 15 16  1  0
 16 17  2  0
 17 18  1  0
 18 19  2  0
 18 20  1  0
 20 21  1  0
 21 22  1  0
 21 23  1  0
 23 24  1  0
 24 25  2  0
 24 26  1  0
 26 27  1  0
 27 28  1  0
 28 29  1  0
  8  3  1  0
 19 14  1  0
 29 26  1  0
 23 17  1  0
  1 30  1  0
  1 31  1  0
  1 32  1  0
  4 33  1  0
  5 34  1  0
  6 35  1  0
  7 36  1  0
  9 37  1  0
  9 38  1  0
 10 39  1  0
 15 40  1  0
 16 41  1  0
 19 42  1  0
 20 43  1  0
 20 44  1  0
 21 45  1  0
 22 46  1  0
 22 47  1  0
 22 48  1  0
 26 49  1  0
 27 50  1  0
 27 51  1  0
 28 52  1  0
 28 53  1  0
 29 54  1  0
 29 55  1  0
M  END
$$$$
