
     RDKit          3D

 41 42  0  0  0  0  0  0  0  0999 V2000
   -4.3557   -1.0445    1.2136 C   0  0  0  0  0  0  0  0  0  0  0  0
   -3.7604   -0.3867   -0.0231 C   0  0  0  0  0  0  0  0  0  0  0  0
   -2.5751    0.4179    0.3294 N   0  0  0  0  0  0  0  0  0  0  0  0
   -2.8964    1.8165    0.6802 C   0  0  0  0  0  0  0  0  0  0  0  0
   -2.8407    2.7129   -0.5486 C   0  0  0  0  0  0  0  0  0  0  0  0
   -1.2556   -0.0826    0.2946 C   0  0  0  0  0  0  0  0  0  0  0  0
   -0.1501    0.6768    0.4528 C   0  0  0  0  0  0  0  0  0  0  0  0
    1.1979    0.1499    0.3462 C   0  0  0  0  0  0  0  0  0  0  0  0
    2.1905    0.9097   -0.1548 C   0  0  0  0  0  0  0  0  0  0  0  0
    3.5464    0.4119   -0.4140 C   0  0  0  0  0  0  0  0  0  0  0  0
    4.5403    1.1993   -0.9010 C   0  0  0  0  0  0  0  0  0  0  0  0
    4.3476    2.5819   -1.1935 C   0  0  0  0  0  0  0  0  0  0  0  0
    4.1806    3.7064   -1.4280 N   0  0  0  0  0  0  0  0  0  0  0  0
    5.8509    0.6829   -1.1270 C   0  0  0  0  0  0  0  0  0  0  0  0
    6.9122    0.2480   -1.3043 N   0  0  0  0  0  0  0  0  0  0  0  0
    3.7657   -1.0693   -0.1172 C   0  0  0  0  0  0  0  0  0  0  0  0
    2.4837   -1.9081   -0.1710 C   0  0  0  0  0  0  0  0  0  0  0  0
    1.4200   -1.2907    0.7420 C   0  0  0  0  0  0  0  0  0  0  0  0
    0.1426   -2.1387    0.8031 C   0  0  0  0  0  0  0  0  0  0  0  0
   -1.0280   -1.5629    0.0088 C   0  0  0  0  0  0  0  0  0  0  0  0
   -4.6864   -0.2943    1.9393 H   0  0  0  0  0  0  0  0  0  0  0  0
   -5.2228   -1.6525    0.9376 H   0  0  0  0  0  0  0  0  0  0  0  0
   -3.6315   -1.6921    1.7169 H   0  0  0  0  0  0  0  0  0  0  0  0
   -4.5235    0.2501   -0.4877 H   0  0  0  0  0  0  0  0  0  0  0  0
   -3.5175   -1.1395   -0.7811 H   0  0  0  0  0  0  0  0  0  0  0  0
   -3.9010    1.8761    1.1169 H   0  0  0  0  0  0  0  0  0  0  0  0
   -2.2215    2.1901    1.4586 H   0  0  0  0  0  0  0  0  0  0  0  0
   -1.8462    2.7123   -1.0049 H   0  0  0  0  0  0  0  0  0  0  0  0
   -3.5549    2.3837   -1.3104 H   0  0  0  0  0  0  0  0  0  0  0  0
   -3.0877    3.7435   -0.2754 H   0  0  0  0  0  0  0  0  0  0  0  0
   -0.2323    1.7506    0.5834 H   0  0  0  0  0  0  0  0  0  0  0  0
    1.9590    1.9384   -0.4304 H   0  0  0  0  0  0  0  0  0  0  0  0
    4.4773   -1.5143   -0.8223 H   0  0  0  0  0  0  0  0  0  0  0  0
    4.2053   -1.1573    0.8853 H   0  0  0  0  0  0  0  0  0  0  0  0
    2.1169   -1.9684   -1.2043 H   0  0  0  0  0  0  0  0  0  0  0  0
    2.7121   -2.9318    0.1493 H   0  0  0  0  0  0  0  0  0  0  0  0
    1.8326   -1.2856    1.7624 H   0  0  0  0  0  0  0  0  0  0  0  0
    0.3345   -3.1707    0.4857 H   0  0  0  0  0  0  0  0  0  0  0  0
   -0.1692   -2.2071    1.8553 H   0  0  0  0  0  0  0  0  0  0  0  0
   -0.8583   -1.6935   -1.0675 H   0  0  0  0  0  0  0  0  0  0  0  0
   -1.9011   -2.1682    0.2662 H   0  0  0  0  0  0  0  0  0  0  0  0
  1  2  1  0
  2  3  1  0
  3  4  1  0
  4  5  1  0
  3  6  1  0
  6  7  2  0
  7  8  1  0
  8  9  2  0
  9 10  1  0
 10 11  2  3
 11 12  1  0
 12 13  3  0
 11 14  1  0
 14 15  3  0
 10 16  1  0
 16 17  1  0
 17 18  1  0
 18 19  1  0
 19 20  1  0
 20  6  1  0
 18  8  1  0
  1 21  1  0
  1 22  1  0
  1 23  1  0
  2 24  1  0
  2 25  1  0
  4 26  1  0
  4 27  1  0
  5 28  1  0
  5 29  1  0
  5 30  1  0
  7 31  1  0
  9 32  1  0
 16 33  1  0
 16 34  1  0
 17 35  1  0
 17 36  1  0
 18 37  1  0
 19 38  1  0
 19 39  1  0
 20 40  1  0
 20 41  1  0
M  END
$$$$
