
     RDKit          3D

 43 45  0  0  0  0  0  0  0  0999 V2000
   -6.7957    1.1895   -0.6901 C   0  0  0  0  0  0  0  0  0  0  0  0
   -6.2328    0.0737    0.1937 C   0  0  0  0  0  0  0  0  0  0  0  0
   -6.7996   -1.2872   -0.2182 C   0  0  0  0  0  0  0  0  0  0  0  0
   -4.7133    0.0687    0.1889 C   0  0  0  0  0  0  0  0  0  0  0  0
   -4.0138    0.2656    1.3885 C   0  0  0  0  0  0  0  0  0  0  0  0
   -2.6168    0.2619    1.4088 C   0  0  0  0  0  0  0  0  0  0  0  0
   -1.8961    0.0713    0.2258 C   0  0  0  0  0  0  0  0  0  0  0  0
   -0.4106    0.0774    0.2963 C   0  0  0  0  0  0  0  0  0  0  0  0
    0.1641   -0.2787    1.3219 O   0  0  0  0  0  0  0  0  0  0  0  0
    0.2557    0.5439   -0.8302 N   0  0  0  0  0  0  0  0  0  0  0  0
    1.6219    0.6148   -1.0750 C   0  0  0  0  0  0  0  0  0  0  0  0
    2.0484    1.2653   -2.5518 S   0  0  0  0  0  0  0  0  0  0  0  0
    2.4080    0.1353   -0.0541 N   0  0  0  0  0  0  0  0  0  0  0  0
    3.8012   -0.0205    0.1244 C   0  0  0  0  0  0  0  0  0  0  0  0
    4.1983   -0.5126    1.4012 C   0  0  0  0  0  0  0  0  0  0  0  0
    5.5420   -0.7261    1.7387 C   0  0  0  0  0  0  0  0  0  0  0  0
    6.4658   -0.4382    0.7694 C   0  0  0  0  0  0  0  0  0  0  0  0
    7.8511   -0.5436    0.7962 N   0  0  0  0  0  0  0  0  0  0  0  0
    8.3576   -0.1317   -0.4452 C   0  0  0  0  0  0  0  0  0  0  0  0
    9.5291   -0.0940   -0.7756 O   0  0  0  0  0  0  0  0  0  0  0  0
    7.2523    0.2270   -1.2298 N   0  0  0  0  0  0  0  0  0  0  0  0
    6.0930    0.0391   -0.4830 C   0  0  0  0  0  0  0  0  0  0  0  0
    4.7780    0.2563   -0.8366 C   0  0  0  0  0  0  0  0  0  0  0  0
   -2.5823   -0.1449   -0.9742 C   0  0  0  0  0  0  0  0  0  0  0  0
   -3.9807   -0.1415   -0.9897 C   0  0  0  0  0  0  0  0  0  0  0  0
   -7.8871    1.2325   -0.6068 H   0  0  0  0  0  0  0  0  0  0  0  0
   -6.5492    1.0398   -1.7469 H   0  0  0  0  0  0  0  0  0  0  0  0
   -6.3980    2.1652   -0.3895 H   0  0  0  0  0  0  0  0  0  0  0  0
   -6.5777    0.2705    1.2175 H   0  0  0  0  0  0  0  0  0  0  0  0
   -6.4079   -2.0847    0.4230 H   0  0  0  0  0  0  0  0  0  0  0  0
   -6.5490   -1.5389   -1.2545 H   0  0  0  0  0  0  0  0  0  0  0  0
   -7.8915   -1.2920   -0.1298 H   0  0  0  0  0  0  0  0  0  0  0  0
   -4.5519    0.4206    2.3220 H   0  0  0  0  0  0  0  0  0  0  0  0
   -2.0951    0.4116    2.3523 H   0  0  0  0  0  0  0  0  0  0  0  0
   -0.2958    0.9260   -1.5864 H   0  0  0  0  0  0  0  0  0  0  0  0
    1.8544   -0.1472    0.7580 H   0  0  0  0  0  0  0  0  0  0  0  0
    3.4429   -0.7340    2.1548 H   0  0  0  0  0  0  0  0  0  0  0  0
    5.8251   -1.0992    2.7148 H   0  0  0  0  0  0  0  0  0  0  0  0
    8.4271   -0.8588    1.5589 H   0  0  0  0  0  0  0  0  0  0  0  0
    7.3196    0.5641   -2.1762 H   0  0  0  0  0  0  0  0  0  0  0  0
    4.5611    0.6179   -1.8282 H   0  0  0  0  0  0  0  0  0  0  0  0
   -2.0559   -0.3483   -1.9026 H   0  0  0  0  0  0  0  0  0  0  0  0
   -4.4961   -0.3158   -1.9325 H   0  0  0  0  0  0  0  0  0  0  0  0
  1  2  1  0
  2  3  1  0
  2  4  1  0
  4  5  2  0
  5  6  1  0
  6  7  2  0
  7  8  1  0
  8  9  2  0
  8 10  1  0
 10 11  1  0
 11 12  2  0
 11 13  1  0
 13 14  1  0
 14 15  2  0
 15 16  1  0
 16 17  2  0
 17 18  1  0
 18 19  1  0
 19 20  2  0
 19 21  1  0
 21 22  1  0
 22 23  2  0
  7 24  1  0
 24 25  2  0
 25  4  1  0
 23 14  1  0
 22 17  1  0
  1 26  1  0
  1 27  1  0
  1 28  1  0
  2 29  1  0
  3 30  1  0
  3 31  1  0
  3 32  1  0
  5 33  1  0
  6 34  1  0
 10 35  1  0
 13 36  1  0
 15 37  1  0
 16 38  1  0
 18 39  1  0
 21 40  1  0
 23 41  1  0
 24 42  1  0
 25 43  1  0
M  END
$$$$
