
     RDKit          3D

 67 69  0  0  0  0  0  0  0  0999 V2000
    0.3139   -1.0366   -1.7974 C   0  0  0  0  0  0  0  0  0  0  0  0
   -0.4321   -1.0908   -0.4679 C   0  0  0  0  0  0  0  0  0  0  0  0
   -1.7700   -0.5229   -0.6153 N   0  0  0  0  0  0  0  0  0  0  0  0
   -2.8181   -1.2370   -1.1436 C   0  0  0  0  0  0  0  0  0  0  0  0
   -2.7049   -2.3961   -1.5287 O   0  0  0  0  0  0  0  0  0  0  0  0
   -4.1363   -0.5436   -1.2076 C   0  0  0  0  0  0  0  0  0  0  0  0
   -4.2542    0.8486   -1.2144 C   0  0  0  0  0  0  0  0  0  0  0  0
   -5.5176    1.4529   -1.2766 C   0  0  0  0  0  0  0  0  0  0  0  0
   -6.6941    0.6880   -1.3405 C   0  0  0  0  0  0  0  0  0  0  0  0
   -8.0946    1.3223   -1.4055 C   0  0  0  0  0  0  0  0  0  0  0  0
   -8.9461    0.8279   -0.2156 C   0  0  0  0  0  0  0  0  0  0  0  0
   -8.7848    0.9181   -2.7255 C   0  0  0  0  0  0  0  0  0  0  0  0
   -8.0842    2.8668   -1.3461 C   0  0  0  0  0  0  0  0  0  0  0  0
   -6.5516   -0.7127   -1.3524 C   0  0  0  0  0  0  0  0  0  0  0  0
   -5.2930   -1.3210   -1.2891 C   0  0  0  0  0  0  0  0  0  0  0  0
    0.3101   -0.2593    0.5999 C   0  0  0  0  0  0  0  0  0  0  0  0
   -0.1326    0.8480    0.9324 O   0  0  0  0  0  0  0  0  0  0  0  0
    1.4876   -0.7560    1.1348 N   0  0  0  0  0  0  0  0  0  0  0  0
    2.2004    0.0812    2.1020 C   0  0  0  0  0  0  0  0  0  0  0  0
    3.5205   -0.5350    2.6056 C   0  0  0  0  0  0  0  0  0  0  0  0
    4.2731   -1.1430    1.5014 N   0  0  0  0  0  0  0  0  0  0  0  0
    5.6149   -1.5523    1.9196 C   0  0  0  0  0  0  0  0  0  0  0  0
    6.4873   -1.9323    0.7547 C   0  0  0  0  0  0  0  0  0  0  0  0
    7.4522   -1.1949    0.1789 C   0  0  0  0  0  0  0  0  0  0  0  0
    7.7931    0.1879    0.5257 C   0  0  0  0  0  0  0  0  0  0  0  0
    6.8417    1.2105    0.4348 C   0  0  0  0  0  0  0  0  0  0  0  0
    7.1887    2.5281    0.7391 C   0  0  0  0  0  0  0  0  0  0  0  0
    8.4930    2.8335    1.1249 C   0  0  0  0  0  0  0  0  0  0  0  0
    9.4502    1.8231    1.2060 C   0  0  0  0  0  0  0  0  0  0  0  0
    9.1031    0.5042    0.9016 C   0  0  0  0  0  0  0  0  0  0  0  0
    3.5019   -2.2219    0.8550 C   0  0  0  0  0  0  0  0  0  0  0  0
    1.9657   -2.1339    1.0230 C   0  0  0  0  0  0  0  0  0  0  0  0
   -0.1875   -1.6472   -2.5559 H   0  0  0  0  0  0  0  0  0  0  0  0
    1.3442   -1.3924   -1.7062 H   0  0  0  0  0  0  0  0  0  0  0  0
    0.3586   -0.0095   -2.1789 H   0  0  0  0  0  0  0  0  0  0  0  0
   -0.5497   -2.1209   -0.1190 H   0  0  0  0  0  0  0  0  0  0  0  0
   -1.9185    0.3685   -0.1534 H   0  0  0  0  0  0  0  0  0  0  0  0
   -3.3779    1.4902   -1.1967 H   0  0  0  0  0  0  0  0  0  0  0  0
   -5.5485    2.5394   -1.2800 H   0  0  0  0  0  0  0  0  0  0  0  0
   -9.9325    1.3050   -0.2083 H   0  0  0  0  0  0  0  0  0  0  0  0
   -9.1169   -0.2533   -0.2494 H   0  0  0  0  0  0  0  0  0  0  0  0
   -8.4588    1.0552    0.7388 H   0  0  0  0  0  0  0  0  0  0  0  0
   -9.7740    1.3820   -2.8122 H   0  0  0  0  0  0  0  0  0  0  0  0
   -8.1915    1.2315   -3.5928 H   0  0  0  0  0  0  0  0  0  0  0  0
   -8.9315   -0.1648   -2.8015 H   0  0  0  0  0  0  0  0  0  0  0  0
   -7.5349    3.2999   -2.1901 H   0  0  0  0  0  0  0  0  0  0  0  0
   -7.6291    3.2318   -0.4181 H   0  0  0  0  0  0  0  0  0  0  0  0
   -9.1031    3.2708   -1.3859 H   0  0  0  0  0  0  0  0  0  0  0  0
   -7.4256   -1.3578   -1.4126 H   0  0  0  0  0  0  0  0  0  0  0  0
   -5.2217   -2.4067   -1.3030 H   0  0  0  0  0  0  0  0  0  0  0  0
    1.5333    0.2679    2.9528 H   0  0  0  0  0  0  0  0  0  0  0  0
    2.3966    1.0472    1.6187 H   0  0  0  0  0  0  0  0  0  0  0  0
    4.1018    0.2619    3.0844 H   0  0  0  0  0  0  0  0  0  0  0  0
    3.3094   -1.2873    3.3773 H   0  0  0  0  0  0  0  0  0  0  0  0
    5.5645   -2.3992    2.6161 H   0  0  0  0  0  0  0  0  0  0  0  0
    6.0939   -0.7407    2.4807 H   0  0  0  0  0  0  0  0  0  0  0  0
    6.3330   -2.9378    0.3699 H   0  0  0  0  0  0  0  0  0  0  0  0
    8.0378   -1.6226   -0.6315 H   0  0  0  0  0  0  0  0  0  0  0  0
    5.8227    0.9858    0.1249 H   0  0  0  0  0  0  0  0  0  0  0  0
    6.4412    3.3142    0.6710 H   0  0  0  0  0  0  0  0  0  0  0  0
    8.7634    3.8597    1.3599 H   0  0  0  0  0  0  0  0  0  0  0  0
   10.4675    2.0607    1.5044 H   0  0  0  0  0  0  0  0  0  0  0  0
    9.8606   -0.2734    0.9658 H   0  0  0  0  0  0  0  0  0  0  0  0
    3.7297   -2.1882   -0.2176 H   0  0  0  0  0  0  0  0  0  0  0  0
    3.8113   -3.2118    1.2158 H   0  0  0  0  0  0  0  0  0  0  0  0
    1.6690   -2.6346    1.9540 H   0  0  0  0  0  0  0  0  0  0  0  0
    1.4804   -2.6748    0.2088 H   0  0  0  0  0  0  0  0  0  0  0  0
  1  2  1  0
  2  3  1  0
  3  4  1  0
  4  5  2  0
  4  6  1  0
  6  7  2  0
  7  8  1  0
  8  9  2  0
  9 10  1  0
 10 11  1  0
 10 12  1  0
 10 13  1  0
  9 14  1  0
 14 15  2  0
  2 16  1  0
 16 17  2  0
 16 18  1  0
 18 19  1  0
 19 20  1  0
 20 21  1  0
 21 22  1  0
 22 23  1  0
 23 24  2  3
 24 25  1  0
 25 26  2  0
 26 27  1  0
 27 28  2  0
 28 29  1  0
 29 30  2  0
 21 31  1  0
 31 32  1  0
 15  6  1  0
 32 18  1  0
 30 25  1  0
  1 33  1  0
  1 34  1  0
  1 35  1  0
  2 36  1  0
  3 37  1  0
  7 38  1  0
  8 39  1  0
 11 40  1  0
 11 41  1  0
 11 42  1  0
 12 43  1  0
 12 44  1  0
 12 45  1  0
 13 46  1  0
 13 47  1  0
 13 48  1  0
 14 49  1  0
 15 50  1  0
 19 51  1  0
 19 52  1  0
 20 53  1  0
 20 54  1  0
 22 55  1  0
 22 56  1  0
 23 57  1  0
 24 58  1  0
 26 59  1  0
 27 60  1  0
 28 61  1  0
 29 62  1  0
 30 63  1  0
 31 64  1  0
 31 65  1  0
 32 66  1  0
 32 67  1  0
M  END
$$$$
