
     RDKit          3D

 40 42  0  0  0  0  0  0  0  0999 V2000
   -4.6376   -1.1814    1.9290 C   0  0  0  0  0  0  0  0  0  0  0  0
   -4.4640    0.2392    1.3820 C   0  0  0  0  0  0  0  0  0  0  0  0
   -3.0597    0.8014    1.6829 C   0  0  0  0  0  0  0  0  0  0  0  0
   -1.9313    0.0598    0.9476 C   0  0  0  0  0  0  0  0  0  0  0  0
   -2.2789   -0.2324   -0.4876 C   0  0  0  0  0  0  0  0  0  0  0  0
   -1.3929   -0.7149   -1.5257 C   0  0  0  0  0  0  0  0  0  0  0  0
    0.0534   -0.9540   -1.4547 C   0  0  0  0  0  0  0  0  0  0  0  0
    0.5439   -1.9767   -1.9161 O   0  0  0  0  0  0  0  0  0  0  0  0
    0.7436    0.1020   -0.8936 N   0  0  0  0  0  0  0  0  0  0  0  0
    2.1252    0.1910   -0.6377 C   0  0  0  0  0  0  0  0  0  0  0  0
    3.0261   -0.8560   -0.8320 C   0  0  0  0  0  0  0  0  0  0  0  0
    4.3900   -0.6927   -0.5459 C   0  0  0  0  0  0  0  0  0  0  0  0
    4.8687    0.5217   -0.0584 C   0  0  0  0  0  0  0  0  0  0  0  0
    6.1614    0.8194    0.2607 O   0  0  0  0  0  0  0  0  0  0  0  0
    7.1358   -0.1950    0.0850 C   0  0  0  0  0  0  0  0  0  0  0  0
    7.2170   -0.5758   -1.2074 F   0  0  0  0  0  0  0  0  0  0  0  0
    6.8672   -1.2686    0.8582 F   0  0  0  0  0  0  0  0  0  0  0  0
    8.3403    0.2955    0.4538 F   0  0  0  0  0  0  0  0  0  0  0  0
    3.9670    1.5691    0.1406 C   0  0  0  0  0  0  0  0  0  0  0  0
    2.6075    1.4070   -0.1443 C   0  0  0  0  0  0  0  0  0  0  0  0
   -2.1016   -1.0012   -2.6809 C   0  0  0  0  0  0  0  0  0  0  0  0
   -3.7613   -0.6293   -2.5590 S   0  0  0  0  0  0  0  0  0  0  0  0
   -3.5856   -0.1493   -0.9387 C   0  0  0  0  0  0  0  0  0  0  0  0
   -4.7649    0.3056   -0.1302 C   0  0  0  0  0  0  0  0  0  0  0  0
   -5.6686   -1.5225    1.7866 H   0  0  0  0  0  0  0  0  0  0  0  0
   -4.4241   -1.2095    3.0028 H   0  0  0  0  0  0  0  0  0  0  0  0
   -3.9791   -1.9020    1.4346 H   0  0  0  0  0  0  0  0  0  0  0  0
   -5.2000    0.8703    1.8972 H   0  0  0  0  0  0  0  0  0  0  0  0
   -2.8648    0.7821    2.7618 H   0  0  0  0  0  0  0  0  0  0  0  0
   -3.0400    1.8580    1.3831 H   0  0  0  0  0  0  0  0  0  0  0  0
   -1.0238    0.6657    1.0190 H   0  0  0  0  0  0  0  0  0  0  0  0
   -1.7240   -0.8903    1.4549 H   0  0  0  0  0  0  0  0  0  0  0  0
    0.1996    0.9352   -0.7144 H   0  0  0  0  0  0  0  0  0  0  0  0
    2.7033   -1.8242   -1.2041 H   0  0  0  0  0  0  0  0  0  0  0  0
    5.0392   -1.5463   -0.7207 H   0  0  0  0  0  0  0  0  0  0  0  0
    4.3224    2.5244    0.5210 H   0  0  0  0  0  0  0  0  0  0  0  0
    1.9392    2.2474    0.0239 H   0  0  0  0  0  0  0  0  0  0  0  0
   -1.7070   -1.4034   -3.6053 H   0  0  0  0  0  0  0  0  0  0  0  0
   -4.9826    1.3465   -0.4028 H   0  0  0  0  0  0  0  0  0  0  0  0
   -5.6588   -0.2842   -0.3653 H   0  0  0  0  0  0  0  0  0  0  0  0
  1  2  1  0
  2  3  1  0
  3  4  1  0
  4  5  1  0
  5  6  1  0
  6  7  1  0
  7  8  2  0
  7  9  1  0
  9 10  1  0
 10 11  2  0
 11 12  1  0
 12 13  2  0
 13 14  1  0
 14 15  1  0
 15 16  1  0
 15 17  1  0
 15 18  1  0
 13 19  1  0
 19 20  2  0
  6 21  2  0
 21 22  1  0
 22 23  1  0
 23 24  1  0
 24  2  1  0
 23  5  2  0
 20 10  1  0
  1 25  1  0
  1 26  1  0
  1 27  1  0
  2 28  1  0
  3 29  1  0
  3 30  1  0
  4 31  1  0
  4 32  1  0
  9 33  1  0
 11 34  1  0
 12 35  1  0
 19 36  1  0
 20 37  1  0
 21 38  1  0
 24 39  1  0
 24 40  1  0
M  END
$$$$
