
     RDKit          3D

 45 47  0  0  0  0  0  0  0  0999 V2000
   -7.0748   -1.2268    2.0271 N   0  0  0  0  0  0  0  0  0  0  0  0
   -7.2691   -0.2260    0.6926 S   0  0  0  0  0  6  0  0  0  0  0  0
   -7.9271    0.9609    1.1879 O   0  0  0  0  0  0  0  0  0  0  0  0
   -7.8356   -1.0508   -0.3482 O   0  0  0  0  0  0  0  0  0  0  0  0
   -5.5945    0.1619    0.2799 C   0  0  0  0  0  0  0  0  0  0  0  0
   -4.8350   -0.7579   -0.4445 C   0  0  0  0  0  0  0  0  0  0  0  0
   -3.5148   -0.4484   -0.7881 C   0  0  0  0  0  0  0  0  0  0  0  0
   -2.9586    0.7848   -0.4361 C   0  0  0  0  0  0  0  0  0  0  0  0
   -1.6220    1.1467   -0.7144 N   0  0  0  0  0  0  0  0  0  0  0  0
   -0.7579    0.7108   -1.7136 C   0  0  0  0  0  0  0  0  0  0  0  0
   -1.2735    0.1370   -3.2091 S   0  0  0  0  0  0  0  0  0  0  0  0
    0.5998    0.8705   -1.3554 N   0  0  0  0  0  0  0  0  0  0  0  0
    1.7217    0.5234   -2.2541 C   0  0  0  0  0  0  0  0  0  0  0  0
    2.6586   -0.5281   -1.6278 C   0  0  0  0  0  0  0  0  0  0  0  0
    3.1756   -0.0894   -0.3147 N   0  0  0  0  0  0  0  0  0  0  0  0
    4.4248   -0.5318    0.1039 C   0  0  0  0  0  0  0  0  0  0  0  0
    5.2609    0.2388    0.9278 C   0  0  0  0  0  0  0  0  0  0  0  0
    6.5154   -0.2212    1.3495 C   0  0  0  0  0  0  0  0  0  0  0  0
    6.9656   -1.4771    0.9610 C   0  0  0  0  0  0  0  0  0  0  0  0
    6.1593   -2.2697    0.1543 C   0  0  0  0  0  0  0  0  0  0  0  0
    4.9083   -1.8000   -0.2639 C   0  0  0  0  0  0  0  0  0  0  0  0
    2.5362    1.0893    0.2846 C   0  0  0  0  0  0  0  0  0  0  0  0
    1.0107    1.0759    0.0504 C   0  0  0  0  0  0  0  0  0  0  0  0
   -3.7295    1.6914    0.3055 C   0  0  0  0  0  0  0  0  0  0  0  0
   -5.0495    1.3906    0.6538 C   0  0  0  0  0  0  0  0  0  0  0  0
   -7.4997   -0.7931    2.8474 H   0  0  0  0  0  0  0  0  0  0  0  0
   -7.4410   -2.1558    1.8164 H   0  0  0  0  0  0  0  0  0  0  0  0
   -5.2552   -1.7170   -0.7387 H   0  0  0  0  0  0  0  0  0  0  0  0
   -2.9334   -1.2036   -1.3084 H   0  0  0  0  0  0  0  0  0  0  0  0
   -1.3166    2.0022   -0.2723 H   0  0  0  0  0  0  0  0  0  0  0  0
    1.3892    0.1685   -3.2304 H   0  0  0  0  0  0  0  0  0  0  0  0
    2.2739    1.4550   -2.4322 H   0  0  0  0  0  0  0  0  0  0  0  0
    3.4795   -0.7011   -2.3345 H   0  0  0  0  0  0  0  0  0  0  0  0
    2.1128   -1.4697   -1.4948 H   0  0  0  0  0  0  0  0  0  0  0  0
    4.9650    1.2339    1.2454 H   0  0  0  0  0  0  0  0  0  0  0  0
    7.1377    0.4090    1.9795 H   0  0  0  0  0  0  0  0  0  0  0  0
    7.9370   -1.8371    1.2877 H   0  0  0  0  0  0  0  0  0  0  0  0
    6.4943   -3.2580   -0.1490 H   0  0  0  0  0  0  0  0  0  0  0  0
    4.2989   -2.4641   -0.8709 H   0  0  0  0  0  0  0  0  0  0  0  0
    2.9702    1.9994   -0.1476 H   0  0  0  0  0  0  0  0  0  0  0  0
    2.6978    1.1176    1.3687 H   0  0  0  0  0  0  0  0  0  0  0  0
    0.5940    2.0240    0.4057 H   0  0  0  0  0  0  0  0  0  0  0  0
    0.5595    0.2668    0.6383 H   0  0  0  0  0  0  0  0  0  0  0  0
   -3.3205    2.6529    0.6057 H   0  0  0  0  0  0  0  0  0  0  0  0
   -5.6384    2.1154    1.2114 H   0  0  0  0  0  0  0  0  0  0  0  0
  1  2  1  0
  2  3  2  0
  2  4  2  0
  2  5  1  0
  5  6  2  0
  6  7  1  0
  7  8  2  0
  8  9  1  0
  9 10  1  0
 10 11  2  0
 10 12  1  0
 12 13  1  0
 13 14  1  0
 14 15  1  0
 15 16  1  0
 16 17  2  0
 17 18  1  0
 18 19  2  0
 19 20  1  0
 20 21  2  0
 15 22  1  0
 22 23  1  0
  8 24  1  0
 24 25  2  0
 25  5  1  0
 23 12  1  0
 21 16  1  0
  1 26  1  0
  1 27  1  0
  6 28  1  0
  7 29  1  0
  9 30  1  0
 13 31  1  0
 13 32  1  0
 14 33  1  0
 14 34  1  0
 17 35  1  0
 18 36  1  0
 19 37  1  0
 20 38  1  0
 21 39  1  0
 22 40  1  0
 22 41  1  0
 23 42  1  0
 23 43  1  0
 24 44  1  0
 25 45  1  0
M  END
$$$$
