
     RDKit          3D

 45 47  0  0  0  0  0  0  0  0999 V2000
    3.9344    0.4688   -3.1715 C   0  0  0  0  0  0  0  0  0  0  0  0
    4.1930   -0.9366   -2.6844 C   0  0  0  0  0  0  0  0  0  0  0  0
    3.8712   -1.9675   -3.4030 N   0  0  0  0  0  0  0  0  0  0  0  0
    4.8273   -1.1597   -1.3285 C   0  0  0  0  0  0  0  0  0  0  0  0
    6.0698   -0.3923   -1.2047 C   0  0  0  0  0  0  0  0  0  0  0  0
    7.0722    0.1897   -1.1296 N   0  0  0  0  0  0  0  0  0  0  0  0
    3.8540   -0.8469   -0.2172 C   0  0  0  0  0  0  0  0  0  0  0  0
    3.9398    0.1619    0.4866 O   0  0  0  0  0  0  0  0  0  0  0  0
    2.7334   -1.8676   -0.0063 C   0  0  0  0  0  0  0  0  0  0  0  0
    1.5870   -1.3075    0.6318 O   0  0  0  0  0  0  0  0  0  0  0  0
    0.9068   -0.4324   -0.1503 C   0  0  0  0  0  0  0  0  0  0  0  0
    1.1625   -0.1571   -1.3118 O   0  0  0  0  0  0  0  0  0  0  0  0
   -0.2810    0.0604    0.5698 C   0  0  0  0  0  0  0  0  0  0  0  0
   -1.5037   -0.1238   -0.0797 C   0  0  0  0  0  0  0  0  0  0  0  0
   -2.6609    0.2886    0.5573 C   0  0  0  0  0  0  0  0  0  0  0  0
   -4.0086    0.1241   -0.0279 C   0  0  0  0  0  0  0  0  0  0  0  0
   -5.1291   -0.0785    0.8021 C   0  0  0  0  0  0  0  0  0  0  0  0
   -6.4129   -0.2487    0.2747 C   0  0  0  0  0  0  0  0  0  0  0  0
   -6.6079   -0.2155   -1.1027 C   0  0  0  0  0  0  0  0  0  0  0  0
   -5.5179   -0.0042   -1.9417 C   0  0  0  0  0  0  0  0  0  0  0  0
   -5.7775    0.0545   -3.8149 Br  0  0  0  0  0  0  0  0  0  0  0  0
   -4.2336    0.1669   -1.4166 C   0  0  0  0  0  0  0  0  0  0  0  0
   -2.6199    0.8572    1.7870 N   0  0  0  0  0  0  0  0  0  0  0  0
   -1.4404    1.0629    2.3982 C   0  0  0  0  0  0  0  0  0  0  0  0
   -1.4470    1.6783    3.6433 C   0  0  0  0  0  0  0  0  0  0  0  0
   -0.2688    1.9486    4.3424 C   0  0  0  0  0  0  0  0  0  0  0  0
    0.9528    1.6020    3.7857 C   0  0  0  0  0  0  0  0  0  0  0  0
    0.9863    0.9805    2.5387 C   0  0  0  0  0  0  0  0  0  0  0  0
   -0.2089    0.6898    1.8309 C   0  0  0  0  0  0  0  0  0  0  0  0
    4.8621    0.8958   -3.5621 H   0  0  0  0  0  0  0  0  0  0  0  0
    3.5701    1.0918   -2.3506 H   0  0  0  0  0  0  0  0  0  0  0  0
    3.1844    0.4677   -3.9673 H   0  0  0  0  0  0  0  0  0  0  0  0
    3.4462   -1.6755   -4.2945 H   0  0  0  0  0  0  0  0  0  0  0  0
    5.0841   -2.2231   -1.2340 H   0  0  0  0  0  0  0  0  0  0  0  0
    3.1255   -2.6560    0.6445 H   0  0  0  0  0  0  0  0  0  0  0  0
    2.4390   -2.3343   -0.9523 H   0  0  0  0  0  0  0  0  0  0  0  0
   -1.5364   -0.6061   -1.0517 H   0  0  0  0  0  0  0  0  0  0  0  0
   -5.0012   -0.1068    1.8845 H   0  0  0  0  0  0  0  0  0  0  0  0
   -7.2563   -0.4044    0.9434 H   0  0  0  0  0  0  0  0  0  0  0  0
   -7.6070   -0.3479   -1.5088 H   0  0  0  0  0  0  0  0  0  0  0  0
   -3.4093    0.3537   -2.1010 H   0  0  0  0  0  0  0  0  0  0  0  0
   -2.4013    1.9636    4.0816 H   0  0  0  0  0  0  0  0  0  0  0  0
   -0.3116    2.4351    5.3135 H   0  0  0  0  0  0  0  0  0  0  0  0
    1.8790    1.8163    4.3138 H   0  0  0  0  0  0  0  0  0  0  0  0
    1.9605    0.7338    2.1210 H   0  0  0  0  0  0  0  0  0  0  0  0
  1  2  1  0
  2  3  2  3
  2  4  1  0
  4  5  1  0
  5  6  3  0
  4  7  1  0
  7  8  2  0
  7  9  1  0
  9 10  1  0
 10 11  1  0
 11 12  2  0
 11 13  1  0
 13 14  2  0
 14 15  1  0
 15 16  1  0
 16 17  2  0
 17 18  1  0
 18 19  2  0
 19 20  1  0
 20 21  1  0
 20 22  2  0
 15 23  2  0
 23 24  1  0
 24 25  2  0
 25 26  1  0
 26 27  2  0
 27 28  1  0
 28 29  2  0
 29 13  1  0
 22 16  1  0
 29 24  1  0
  1 30  1  0
  1 31  1  0
  1 32  1  0
  3 33  1  0
  4 34  1  0
  9 35  1  0
  9 36  1  0
 14 37  1  0
 17 38  1  0
 18 39  1  0
 19 40  1  0
 22 41  1  0
 25 42  1  0
 26 43  1  0
 27 44  1  0
 28 45  1  0
M  END
$$$$
