
     RDKit          3D

 48 50  0  0  0  0  0  0  0  0999 V2000
    0.2257   -4.1064    0.3969 C   0  0  0  0  0  0  0  0  0  0  0  0
    0.2402   -3.1659   -0.7987 C   0  0  0  0  0  0  0  0  0  0  0  0
    1.2768   -2.0954   -0.6486 C   0  0  0  0  0  0  0  0  0  0  0  0
    1.1167   -0.7974   -0.3994 C   0  0  0  0  0  0  0  0  0  0  0  0
   -0.1576   -0.1187   -0.1774 C   0  0  0  0  0  0  0  0  0  0  0  0
   -0.8468    0.4593   -1.2520 C   0  0  0  0  0  0  0  0  0  0  0  0
   -2.0758    1.0900   -1.0482 C   0  0  0  0  0  0  0  0  0  0  0  0
   -2.8196    1.6893   -2.0317 O   0  0  0  0  0  0  0  0  0  0  0  0
   -2.2015    1.8739   -3.2978 C   0  0  0  0  0  0  0  0  0  0  0  0
   -2.6240    1.1051    0.2457 C   0  0  0  0  0  0  0  0  0  0  0  0
   -3.8159    1.7612    0.4649 O   0  0  0  0  0  0  0  0  0  0  0  0
   -4.9040    0.8519    0.3097 C   0  0  0  0  0  0  0  0  0  0  0  0
   -1.9449    0.5325    1.3345 C   0  0  0  0  0  0  0  0  0  0  0  0
   -2.5669    0.6177    2.5531 O   0  0  0  0  0  0  0  0  0  0  0  0
   -1.8265    0.2112    3.6958 C   0  0  0  0  0  0  0  0  0  0  0  0
   -0.7166   -0.0912    1.1083 C   0  0  0  0  0  0  0  0  0  0  0  0
    2.4473   -0.1261   -0.3472 C   0  0  0  0  0  0  0  0  0  0  0  0
    2.8188    0.5013    1.0063 C   0  0  0  0  0  0  0  0  0  0  0  0
    3.7575    1.6447    0.6409 C   0  0  0  0  0  0  0  0  0  0  0  0
    3.1485    2.1942   -0.6371 C   0  0  0  0  0  0  0  0  0  0  0  0
    2.7068    0.9553   -1.4138 C   0  0  0  0  0  0  0  0  0  0  0  0
    3.3310   -1.3492   -0.6130 C   0  0  0  0  0  0  0  0  0  0  0  0
    4.5559   -1.3315   -0.6557 O   0  0  0  0  0  0  0  0  0  0  0  0
    2.6009   -2.4975   -0.8051 O   0  0  0  0  0  0  0  0  0  0  0  0
   -0.5380   -4.8787    0.2601 H   0  0  0  0  0  0  0  0  0  0  0  0
    1.1917   -4.6069    0.5227 H   0  0  0  0  0  0  0  0  0  0  0  0
   -0.0018   -3.5662    1.3222 H   0  0  0  0  0  0  0  0  0  0  0  0
    0.4445   -3.7374   -1.7119 H   0  0  0  0  0  0  0  0  0  0  0  0
   -0.7586   -2.7337   -0.9240 H   0  0  0  0  0  0  0  0  0  0  0  0
   -0.4110    0.3959   -2.2437 H   0  0  0  0  0  0  0  0  0  0  0  0
   -2.0376    0.9131   -3.7965 H   0  0  0  0  0  0  0  0  0  0  0  0
   -2.8842    2.4593   -3.9211 H   0  0  0  0  0  0  0  0  0  0  0  0
   -1.2669    2.4376   -3.2075 H   0  0  0  0  0  0  0  0  0  0  0  0
   -4.8486    0.0335    1.0359 H   0  0  0  0  0  0  0  0  0  0  0  0
   -5.8302    1.4042    0.4947 H   0  0  0  0  0  0  0  0  0  0  0  0
   -4.9481    0.4512   -0.7089 H   0  0  0  0  0  0  0  0  0  0  0  0
   -1.6433   -0.8681    3.6798 H   0  0  0  0  0  0  0  0  0  0  0  0
   -0.8892    0.7709    3.7832 H   0  0  0  0  0  0  0  0  0  0  0  0
   -2.4300    0.4324    4.5814 H   0  0  0  0  0  0  0  0  0  0  0  0
   -0.1747   -0.5684    1.9189 H   0  0  0  0  0  0  0  0  0  0  0  0
    1.9424    0.9166    1.5161 H   0  0  0  0  0  0  0  0  0  0  0  0
    3.3030   -0.1997    1.6948 H   0  0  0  0  0  0  0  0  0  0  0  0
    4.7688    1.2671    0.4512 H   0  0  0  0  0  0  0  0  0  0  0  0
    3.8167    2.3994    1.4303 H   0  0  0  0  0  0  0  0  0  0  0  0
    3.8537    2.8084   -1.2044 H   0  0  0  0  0  0  0  0  0  0  0  0
    2.2751    2.8137   -0.3995 H   0  0  0  0  0  0  0  0  0  0  0  0
    3.5060    0.6566   -2.1034 H   0  0  0  0  0  0  0  0  0  0  0  0
    1.8342    1.1910   -2.0296 H   0  0  0  0  0  0  0  0  0  0  0  0
  1  2  1  0
  2  3  1  0
  3  4  2  0
  4  5  1  0
  5  6  2  0
  6  7  1  0
  7  8  1  0
  8  9  1  0
  7 10  2  0
 10 11  1  0
 11 12  1  0
 10 13  1  0
 13 14  1  0
 14 15  1  0
 13 16  2  0
  4 17  1  0
 17 18  1  0
 18 19  1  0
 19 20  1  0
 20 21  1  0
 17 22  1  0
 22 23  2  0
 22 24  1  0
 24  3  1  0
 16  5  1  0
 21 17  1  0
  1 25  1  0
  1 26  1  0
  1 27  1  0
  2 28  1  0
  2 29  1  0
  6 30  1  0
  9 31  1  0
  9 32  1  0
  9 33  1  0
 12 34  1  0
 12 35  1  0
 12 36  1  0
 15 37  1  0
 15 38  1  0
 15 39  1  0
 16 40  1  0
 18 41  1  0
 18 42  1  0
 19 43  1  0
 19 44  1  0
 20 45  1  0
 20 46  1  0
 21 47  1  0
 21 48  1  0
M  END
$$$$
