
     RDKit          3D

 32 33  0  0  0  0  0  0  0  0999 V2000
   -2.5746    1.6071    2.7179 N   0  0  0  0  0  0  0  0  0  0  0  0
   -2.5728    0.8900    1.8044 C   0  0  0  0  0  0  0  0  0  0  0  0
   -2.6085    0.0371    0.6480 C   0  0  0  0  0  0  0  0  0  0  0  0
   -3.6039    0.2737   -0.3143 C   0  0  0  0  0  0  0  0  0  0  0  0
   -3.7027   -0.5623   -1.4324 C   0  0  0  0  0  0  0  0  0  0  0  0
   -4.7439   -0.3156   -2.4383 N   0  0  0  0  0  4  0  0  0  0  0  0
   -5.5033    0.6456   -2.2553 O   0  0  0  0  0  0  0  0  0  0  0  0
   -4.8005   -1.0842   -3.4083 O   0  0  0  0  0  1  0  0  0  0  0  0
   -2.8203   -1.6339   -1.5968 C   0  0  0  0  0  0  0  0  0  0  0  0
   -1.8312   -1.8645   -0.6366 C   0  0  0  0  0  0  0  0  0  0  0  0
   -1.7077   -1.0393    0.4951 C   0  0  0  0  0  0  0  0  0  0  0  0
   -0.6569   -1.2887    1.3988 N   0  0  0  0  0  0  0  0  0  0  0  0
    0.4590   -0.3209    1.3562 C   0  0  0  0  0  0  0  0  0  0  0  0
    1.4568   -0.6551    0.2447 C   0  0  0  0  0  0  0  0  0  0  0  0
    2.6062    0.3158    0.2465 C   0  0  0  0  0  0  0  0  0  0  0  0
    3.7805    0.0306    0.9387 C   0  0  0  0  0  0  0  0  0  0  0  0
    4.8076    0.9702    0.9318 C   0  0  0  0  0  0  0  0  0  0  0  0
    4.6352    2.1637    0.2418 C   0  0  0  0  0  0  0  0  0  0  0  0
    3.4353    2.3696   -0.4161 C   0  0  0  0  0  0  0  0  0  0  0  0
    2.4213    1.4763   -0.4269 N   0  0  0  0  0  0  0  0  0  0  0  0
   -4.2956    1.1047   -0.1773 H   0  0  0  0  0  0  0  0  0  0  0  0
   -2.8831   -2.2929   -2.4609 H   0  0  0  0  0  0  0  0  0  0  0  0
   -1.1449   -2.6959   -0.7859 H   0  0  0  0  0  0  0  0  0  0  0  0
   -0.3148   -2.2461    1.3340 H   0  0  0  0  0  0  0  0  0  0  0  0
    0.1014    0.7105    1.2563 H   0  0  0  0  0  0  0  0  0  0  0  0
    0.9668   -0.3731    2.3272 H   0  0  0  0  0  0  0  0  0  0  0  0
    1.8285   -1.6813    0.3557 H   0  0  0  0  0  0  0  0  0  0  0  0
    0.9648   -0.6141   -0.7348 H   0  0  0  0  0  0  0  0  0  0  0  0
    3.9012   -0.9034    1.4778 H   0  0  0  0  0  0  0  0  0  0  0  0
    5.7347    0.7735    1.4629 H   0  0  0  0  0  0  0  0  0  0  0  0
    5.4154    2.9160    0.2186 H   0  0  0  0  0  0  0  0  0  0  0  0
    3.2500    3.2868   -0.9679 H   0  0  0  0  0  0  0  0  0  0  0  0
  1  2  3  0
  2  3  1  0
  3  4  2  0
  4  5  1  0
  5  6  1  0
  6  7  2  0
  6  8  1  0
  5  9  2  0
  9 10  1  0
 10 11  2  0
 11 12  1  0
 12 13  1  0
 13 14  1  0
 14 15  1  0
 15 16  2  0
 16 17  1  0
 17 18  2  0
 18 19  1  0
 19 20  2  0
 11  3  1  0
 20 15  1  0
  4 21  1  0
  9 22  1  0
 10 23  1  0
 12 24  1  0
 13 25  1  0
 13 26  1  0
 14 27  1  0
 14 28  1  0
 16 29  1  0
 17 30  1  0
 18 31  1  0
 19 32  1  0
M  CHG  2   6   1   8  -1
M  END
$$$$
