
     RDKit          3D

 51 53  0  0  0  0  0  0  0  0999 V2000
   -3.7002    0.9293   -3.6117 C   0  0  0  0  0  0  0  0  0  0  0  0
   -4.1629    0.9167   -2.1774 C   0  0  0  0  0  0  0  0  0  0  0  0
   -5.5262    0.7056   -1.9280 C   0  0  0  0  0  0  0  0  0  0  0  0
   -6.0129    0.6831   -0.6268 C   0  0  0  0  0  0  0  0  0  0  0  0
   -5.1430    0.8587    0.4467 C   0  0  0  0  0  0  0  0  0  0  0  0
   -3.7753    1.0775    0.2425 C   0  0  0  0  0  0  0  0  0  0  0  0
   -2.8745    1.2409    1.3298 N   0  0  0  0  0  0  0  0  0  0  0  0
   -3.1568    1.1779    2.6857 C   0  0  0  0  0  0  0  0  0  0  0  0
   -4.2468    0.9305    3.1985 O   0  0  0  0  0  0  0  0  0  0  0  0
   -1.9571    1.4712    3.5704 C   0  0  0  0  0  0  0  0  0  0  0  0
   -0.9726   -0.0307    3.8269 S   0  0  0  0  0  0  0  0  0  0  0  0
    0.2864    0.1968    2.6424 C   0  0  0  0  0  0  0  0  0  0  0  0
    0.0879    0.9398    1.6078 N   0  0  0  0  0  0  0  0  0  0  0  0
    1.1559    1.1325    0.7531 C   0  0  0  0  0  0  0  0  0  0  0  0
    1.1285    2.0120   -0.1007 O   0  0  0  0  0  0  0  0  0  0  0  0
    2.3798    0.2568    0.8876 C   0  0  0  0  0  0  0  0  0  0  0  0
    3.3721    0.3608   -0.2472 C   0  0  0  0  0  0  0  0  0  0  0  0
    3.9136   -0.9549   -0.7729 C   0  0  0  0  0  0  0  0  0  0  0  0
    3.0511   -1.9836   -1.1866 C   0  0  0  0  0  0  0  0  0  0  0  0
    3.5658   -3.1861   -1.6786 C   0  0  0  0  0  0  0  0  0  0  0  0
    4.9440   -3.3694   -1.7795 C   0  0  0  0  0  0  0  0  0  0  0  0
    5.8108   -2.3451   -1.3963 C   0  0  0  0  0  0  0  0  0  0  0  0
    5.2990   -1.1430   -0.9010 C   0  0  0  0  0  0  0  0  0  0  0  0
    2.4786   -0.4867    2.0112 C   0  0  0  0  0  0  0  0  0  0  0  0
    3.6713   -1.3217    2.3899 C   0  0  0  0  0  0  0  0  0  0  0  0
    1.4386   -0.4667    2.9093 N   0  0  0  0  0  0  0  0  0  0  0  0
   -3.2799    1.1399   -1.0896 C   0  0  0  0  0  0  0  0  0  0  0  0
   -1.8203    1.4254   -1.3481 C   0  0  0  0  0  0  0  0  0  0  0  0
   -4.4638    0.5128   -4.2794 H   0  0  0  0  0  0  0  0  0  0  0  0
   -3.4962    1.9527   -3.9353 H   0  0  0  0  0  0  0  0  0  0  0  0
   -2.8067    0.3091   -3.7396 H   0  0  0  0  0  0  0  0  0  0  0  0
   -6.2214    0.5584   -2.7519 H   0  0  0  0  0  0  0  0  0  0  0  0
   -7.0714    0.5206   -0.4426 H   0  0  0  0  0  0  0  0  0  0  0  0
   -5.5784    0.8243    1.4392 H   0  0  0  0  0  0  0  0  0  0  0  0
   -1.8902    1.3427    1.0933 H   0  0  0  0  0  0  0  0  0  0  0  0
   -2.3353    1.7994    4.5453 H   0  0  0  0  0  0  0  0  0  0  0  0
   -1.3724    2.3060    3.1729 H   0  0  0  0  0  0  0  0  0  0  0  0
    4.1953    1.0093    0.0842 H   0  0  0  0  0  0  0  0  0  0  0  0
    2.9297    0.8610   -1.1212 H   0  0  0  0  0  0  0  0  0  0  0  0
    1.9719   -1.8531   -1.1328 H   0  0  0  0  0  0  0  0  0  0  0  0
    2.8879   -3.9773   -1.9940 H   0  0  0  0  0  0  0  0  0  0  0  0
    5.3430   -4.3039   -2.1682 H   0  0  0  0  0  0  0  0  0  0  0  0
    6.8867   -2.4791   -1.4901 H   0  0  0  0  0  0  0  0  0  0  0  0
    5.9916   -0.3496   -0.6180 H   0  0  0  0  0  0  0  0  0  0  0  0
    3.8371   -1.2833    3.4739 H   0  0  0  0  0  0  0  0  0  0  0  0
    4.5947   -0.9631    1.9302 H   0  0  0  0  0  0  0  0  0  0  0  0
    3.5111   -2.3683    2.1095 H   0  0  0  0  0  0  0  0  0  0  0  0
    1.4551   -1.1052    3.6957 H   0  0  0  0  0  0  0  0  0  0  0  0
   -1.5002    2.3040   -0.7784 H   0  0  0  0  0  0  0  0  0  0  0  0
   -1.6053    1.6611   -2.3942 H   0  0  0  0  0  0  0  0  0  0  0  0
   -1.2179    0.5537   -1.0725 H   0  0  0  0  0  0  0  0  0  0  0  0
  1  2  1  0
  2  3  2  0
  3  4  1  0
  4  5  2  0
  5  6  1  0
  6  7  1  0
  7  8  1  0
  8  9  2  0
  8 10  1  0
 10 11  1  0
 11 12  1  0
 12 13  2  0
 13 14  1  0
 14 15  2  0
 14 16  1  0
 16 17  1  0
 17 18  1  0
 18 19  2  0
 19 20  1  0
 20 21  2  0
 21 22  1  0
 22 23  2  0
 16 24  2  0
 24 25  1  0
 24 26  1  0
  6 27  2  0
 27 28  1  0
 27  2  1  0
 26 12  1  0
 23 18  1  0
  1 29  1  0
  1 30  1  0
  1 31  1  0
  3 32  1  0
  4 33  1  0
  5 34  1  0
  7 35  1  0
 10 36  1  0
 10 37  1  0
 17 38  1  0
 17 39  1  0
 19 40  1  0
 20 41  1  0
 21 42  1  0
 22 43  1  0
 23 44  1  0
 25 45  1  0
 25 46  1  0
 25 47  1  0
 26 48  1  0
 28 49  1  0
 28 50  1  0
 28 51  1  0
M  END
$$$$
