
     RDKit          3D

 69 73  0  0  0  0  0  0  0  0999 V2000
    1.3289   -5.4697   -1.0690 C   0  0  0  0  0  0  0  0  0  0  0  0
    0.8352   -4.4970   -0.1569 O   0  0  0  0  0  0  0  0  0  0  0  0
   -0.5037   -4.2202   -0.2114 C   0  0  0  0  0  0  0  0  0  0  0  0
   -1.4372   -4.8479   -1.0361 C   0  0  0  0  0  0  0  0  0  0  0  0
   -2.7801   -4.4659   -0.9915 C   0  0  0  0  0  0  0  0  0  0  0  0
   -3.1948   -3.4550   -0.1235 C   0  0  0  0  0  0  0  0  0  0  0  0
   -2.2704   -2.8173    0.7131 C   0  0  0  0  0  0  0  0  0  0  0  0
   -2.6928   -1.7390    1.6169 C   0  0  0  0  0  0  0  0  0  0  0  0
   -3.8049   -2.1123    2.8627 S   0  0  0  0  0  0  0  0  0  0  0  0
   -3.7944   -0.5100    3.4808 C   0  0  0  0  0  0  0  0  0  0  0  0
   -4.5202   -0.0347    4.5928 C   0  0  0  0  0  0  0  0  0  0  0  0
   -4.4007    1.3099    4.9648 C   0  0  0  0  0  0  0  0  0  0  0  0
   -5.0606    1.8722    6.0322 O   0  0  0  0  0  0  0  0  0  0  0  0
   -5.7666    0.9996    6.9026 C   0  0  0  0  0  0  0  0  0  0  0  0
   -3.5821    2.1748    4.2241 C   0  0  0  0  0  0  0  0  0  0  0  0
   -3.5382    3.4796    4.6526 O   0  0  0  0  0  0  0  0  0  0  0  0
   -2.7633    4.3977    3.8945 C   0  0  0  0  0  0  0  0  0  0  0  0
   -2.8662    1.6834    3.1237 C   0  0  0  0  0  0  0  0  0  0  0  0
   -2.9563    0.3186    2.7386 C   0  0  0  0  0  0  0  0  0  0  0  0
   -2.3101   -0.4061    1.6633 C   0  0  0  0  0  0  0  0  0  0  0  0
   -1.3490    0.1543    0.7164 C   0  0  0  0  0  0  0  0  0  0  0  0
   -1.6529    0.2391   -0.6466 C   0  0  0  0  0  0  0  0  0  0  0  0
   -0.7210    0.7644   -1.5495 C   0  0  0  0  0  0  0  0  0  0  0  0
    0.5192    1.2120   -1.0952 C   0  0  0  0  0  0  0  0  0  0  0  0
    1.5150    1.7407   -1.8681 O   0  0  0  0  0  0  0  0  0  0  0  0
    1.3568    1.6452   -3.2864 C   0  0  0  0  0  0  0  0  0  0  0  0
    2.6394    2.1440   -3.9829 C   0  0  0  0  0  0  0  0  0  0  0  0
    3.7068    1.1302   -4.1199 N   0  0  0  0  0  0  0  0  0  0  0  0
    4.1298    0.5896   -2.8163 C   0  0  0  0  0  0  0  0  0  0  0  0
    5.5025   -0.0778   -2.8840 C   0  0  0  0  0  0  0  0  0  0  0  0
    6.5855    0.9283   -3.2696 C   0  0  0  0  0  0  0  0  0  0  0  0
    6.0364    2.0718   -4.1217 C   0  0  0  0  0  0  0  0  0  0  0  0
    4.8252    1.6269   -4.9382 C   0  0  0  0  0  0  0  0  0  0  0  0
    0.8143    1.1434    0.2682 C   0  0  0  0  0  0  0  0  0  0  0  0
   -0.1104    0.6155    1.1719 C   0  0  0  0  0  0  0  0  0  0  0  0
   -0.9263   -3.2109    0.6596 C   0  0  0  0  0  0  0  0  0  0  0  0
    0.8914   -6.4536   -0.8698 H   0  0  0  0  0  0  0  0  0  0  0  0
    2.4101   -5.5490   -0.9201 H   0  0  0  0  0  0  0  0  0  0  0  0
    1.1584   -5.1628   -2.1064 H   0  0  0  0  0  0  0  0  0  0  0  0
   -1.1536   -5.6384   -1.7226 H   0  0  0  0  0  0  0  0  0  0  0  0
   -3.5052   -4.9564   -1.6360 H   0  0  0  0  0  0  0  0  0  0  0  0
   -4.2428   -3.1643   -0.1086 H   0  0  0  0  0  0  0  0  0  0  0  0
   -5.1586   -0.7256    5.1313 H   0  0  0  0  0  0  0  0  0  0  0  0
   -5.1077    0.2271    7.3144 H   0  0  0  0  0  0  0  0  0  0  0  0
   -6.6302    0.5559    6.3963 H   0  0  0  0  0  0  0  0  0  0  0  0
   -6.1426    1.5956    7.7399 H   0  0  0  0  0  0  0  0  0  0  0  0
   -1.7021    4.1292    3.9169 H   0  0  0  0  0  0  0  0  0  0  0  0
   -2.8664    5.3840    4.3568 H   0  0  0  0  0  0  0  0  0  0  0  0
   -3.1324    4.4737    2.8664 H   0  0  0  0  0  0  0  0  0  0  0  0
   -2.2247    2.3302    2.5359 H   0  0  0  0  0  0  0  0  0  0  0  0
   -2.6139   -0.1080   -1.0184 H   0  0  0  0  0  0  0  0  0  0  0  0
   -0.9964    0.8090   -2.5976 H   0  0  0  0  0  0  0  0  0  0  0  0
    0.5276    2.2956   -3.5924 H   0  0  0  0  0  0  0  0  0  0  0  0
    1.1405    0.6141   -3.5944 H   0  0  0  0  0  0  0  0  0  0  0  0
    2.3428    2.4502   -4.9941 H   0  0  0  0  0  0  0  0  0  0  0  0
    3.0253    3.0311   -3.4644 H   0  0  0  0  0  0  0  0  0  0  0  0
    4.1727    1.3816   -2.0568 H   0  0  0  0  0  0  0  0  0  0  0  0
    3.3972   -0.1533   -2.4806 H   0  0  0  0  0  0  0  0  0  0  0  0
    5.7511   -0.5368   -1.9203 H   0  0  0  0  0  0  0  0  0  0  0  0
    5.4777   -0.8924   -3.6191 H   0  0  0  0  0  0  0  0  0  0  0  0
    7.0453    1.3505   -2.3675 H   0  0  0  0  0  0  0  0  0  0  0  0
    7.3858    0.4045   -3.8070 H   0  0  0  0  0  0  0  0  0  0  0  0
    5.7519    2.9088   -3.4717 H   0  0  0  0  0  0  0  0  0  0  0  0
    6.8244    2.4472   -4.7844 H   0  0  0  0  0  0  0  0  0  0  0  0
    5.1351    0.8116   -5.6050 H   0  0  0  0  0  0  0  0  0  0  0  0
    4.5099    2.4403   -5.6037 H   0  0  0  0  0  0  0  0  0  0  0  0
    1.7782    1.4943    0.6280 H   0  0  0  0  0  0  0  0  0  0  0  0
    0.1494    0.5573    2.2262 H   0  0  0  0  0  0  0  0  0  0  0  0
   -0.1912   -2.7290    1.3006 H   0  0  0  0  0  0  0  0  0  0  0  0
  1  2  1  0
  2  3  1  0
  3  4  2  0
  4  5  1  0
  5  6  2  0
  6  7  1  0
  7  8  1  0
  8  9  1  0
  9 10  1  0
 10 11  2  0
 11 12  1  0
 12 13  1  0
 13 14  1  0
 12 15  2  0
 15 16  1  0
 16 17  1  0
 15 18  1  0
 18 19  2  0
 19 20  1  0
 20 21  1  0
 21 22  2  0
 22 23  1  0
 23 24  2  0
 24 25  1  0
 25 26  1  0
 26 27  1  0
 27 28  1  0
 28 29  1  0
 29 30  1  0
 30 31  1  0
 31 32  1  0
 32 33  1  0
 24 34  1  0
 34 35  2  0
  7 36  2  0
 36  3  1  0
 20  8  2  0
 35 21  1  0
 19 10  1  0
 33 28  1  0
  1 37  1  0
  1 38  1  0
  1 39  1  0
  4 40  1  0
  5 41  1  0
  6 42  1  0
 11 43  1  0
 14 44  1  0
 14 45  1  0
 14 46  1  0
 17 47  1  0
 17 48  1  0
 17 49  1  0
 18 50  1  0
 22 51  1  0
 23 52  1  0
 26 53  1  0
 26 54  1  0
 27 55  1  0
 27 56  1  0
 29 57  1  0
 29 58  1  0
 30 59  1  0
 30 60  1  0
 31 61  1  0
 31 62  1  0
 32 63  1  0
 32 64  1  0
 33 65  1  0
 33 66  1  0
 34 67  1  0
 35 68  1  0
 36 69  1  0
M  END
$$$$
