
     RDKit          3D

 35 37  0  0  0  0  0  0  0  0999 V2000
   -1.4217   -2.1486    0.1519 C   0  0  0  0  0  0  0  0  0  0  0  0
   -1.1350   -0.8624   -0.6138 C   0  0  0  0  0  0  0  0  0  0  0  0
   -1.3898    0.3155    0.2150 N   0  0  0  0  0  0  0  0  0  0  0  0
   -0.4442    1.2050    0.7798 C   0  0  0  0  0  0  0  0  0  0  0  0
    0.8864    1.0780    1.0225 C   0  0  0  0  0  0  0  0  0  0  0  0
    1.9300    2.3668    1.6180 S   0  0  0  0  0  0  0  0  0  0  0  0
    3.4092    1.4514    1.4328 C   0  0  0  0  0  0  0  0  0  0  0  0
    4.9215    2.0552    1.7900 S   0  0  0  0  0  0  0  0  0  0  0  0
    3.0780    0.1934    0.9957 N   0  0  0  0  0  0  0  0  0  0  0  0
    4.0463   -0.8097    0.7816 N   0  0  0  0  0  0  0  0  0  0  0  0
    4.4628   -0.9731   -0.5269 C   0  0  0  0  0  0  0  0  0  0  0  0
    5.2679   -2.2229   -0.7555 C   0  0  0  0  0  0  0  0  0  0  0  0
    4.1978   -0.1870   -1.4322 O   0  0  0  0  0  0  0  0  0  0  0  0
    1.7409   -0.1398    0.8540 C   0  0  0  0  0  0  0  0  0  0  0  0
    1.3547   -1.2924    0.7128 O   0  0  0  0  0  0  0  0  0  0  0  0
   -1.2328    2.7804    1.2680 S   0  0  0  0  0  0  0  0  0  0  0  0
   -2.8033    2.1532    0.7335 C   0  0  0  0  0  0  0  0  0  0  0  0
   -4.0086    2.8423    0.8029 C   0  0  0  0  0  0  0  0  0  0  0  0
   -5.1595    2.2244    0.3212 C   0  0  0  0  0  0  0  0  0  0  0  0
   -5.0871    0.9380   -0.2205 C   0  0  0  0  0  0  0  0  0  0  0  0
   -3.8641    0.2564   -0.2850 C   0  0  0  0  0  0  0  0  0  0  0  0
   -2.7017    0.8590    0.1943 C   0  0  0  0  0  0  0  0  0  0  0  0
   -0.9111   -2.1732    1.1189 H   0  0  0  0  0  0  0  0  0  0  0  0
   -2.4901   -2.2666    0.3555 H   0  0  0  0  0  0  0  0  0  0  0  0
   -1.0982   -3.0152   -0.4331 H   0  0  0  0  0  0  0  0  0  0  0  0
   -1.7406   -0.8413   -1.5292 H   0  0  0  0  0  0  0  0  0  0  0  0
   -0.1112   -0.8569   -0.9967 H   0  0  0  0  0  0  0  0  0  0  0  0
    3.9121   -1.6446    1.3447 H   0  0  0  0  0  0  0  0  0  0  0  0
    6.1596   -1.9726   -1.3368 H   0  0  0  0  0  0  0  0  0  0  0  0
    4.6586   -2.9455   -1.3044 H   0  0  0  0  0  0  0  0  0  0  0  0
    5.5893   -2.6716    0.1887 H   0  0  0  0  0  0  0  0  0  0  0  0
   -4.0537    3.8429    1.2208 H   0  0  0  0  0  0  0  0  0  0  0  0
   -6.1140    2.7430    0.3648 H   0  0  0  0  0  0  0  0  0  0  0  0
   -5.9898    0.4600   -0.5947 H   0  0  0  0  0  0  0  0  0  0  0  0
   -3.8585   -0.7415   -0.7086 H   0  0  0  0  0  0  0  0  0  0  0  0
  1  2  1  0
  2  3  1  0
  3  4  1  0
  4  5  2  3
  5  6  1  0
  6  7  1  0
  7  8  2  0
  7  9  1  0
  9 10  1  0
 10 11  1  0
 11 12  1  0
 11 13  2  0
  9 14  1  0
 14 15  2  0
  4 16  1  0
 16 17  1  0
 17 18  2  0
 18 19  1  0
 19 20  2  0
 20 21  1  0
 21 22  2  0
 22  3  1  0
 14  5  1  0
 22 17  1  0
  1 23  1  0
  1 24  1  0
  1 25  1  0
  2 26  1  0
  2 27  1  0
 10 28  1  0
 12 29  1  0
 12 30  1  0
 12 31  1  0
 18 32  1  0
 19 33  1  0
 20 34  1  0
 21 35  1  0
M  END
$$$$
