
     RDKit          3D

 44 46  0  0  0  0  0  0  0  0999 V2000
    7.3629   -2.7514   -1.3759 C   0  0  0  0  0  0  0  0  0  0  0  0
    7.2442   -1.3361   -1.4530 O   0  0  0  0  0  0  0  0  0  0  0  0
    5.9997   -0.8102   -1.2464 C   0  0  0  0  0  0  0  0  0  0  0  0
    4.8392   -1.5276   -0.9649 C   0  0  0  0  0  0  0  0  0  0  0  0
    3.6203   -0.8601   -0.7734 C   0  0  0  0  0  0  0  0  0  0  0  0
    3.5470    0.5302   -0.8612 C   0  0  0  0  0  0  0  0  0  0  0  0
    2.3629    1.2748   -0.6827 N   0  0  0  0  0  0  0  0  0  0  0  0
    1.0915    0.7906   -0.3950 C   0  0  0  0  0  0  0  0  0  0  0  0
    0.7830   -0.3883   -0.2487 O   0  0  0  0  0  0  0  0  0  0  0  0
    0.0680    1.9251   -0.2813 C   0  0  0  0  0  0  0  0  0  0  0  0
   -1.1974    1.4099    0.1003 O   0  0  0  0  0  0  0  0  0  0  0  0
   -2.1968    2.3276    0.1765 C   0  0  0  0  0  0  0  0  0  0  0  0
   -1.9144    3.6117   -0.0615 N   0  0  0  0  0  0  0  0  0  0  0  0
   -3.3669    4.3995    0.1681 S   0  0  0  0  0  0  0  0  0  0  0  0
   -4.3490    3.1203    0.5736 N   0  0  0  0  0  0  0  0  0  0  0  0
   -3.5846    2.0192    0.5312 C   0  0  0  0  0  0  0  0  0  0  0  0
   -4.0701    0.7621    0.8121 N   0  0  0  0  0  0  0  0  0  0  0  0
   -3.3431   -0.4547    0.4399 C   0  0  0  0  0  0  0  0  0  0  0  0
   -4.2893   -1.6457    0.3010 C   0  0  0  0  0  0  0  0  0  0  0  0
   -5.0919   -1.8983    1.5734 C   0  0  0  0  0  0  0  0  0  0  0  0
   -5.4318   -0.6102    2.3195 C   0  0  0  0  0  0  0  0  0  0  0  0
   -5.4000    0.6136    1.4074 C   0  0  0  0  0  0  0  0  0  0  0  0
    4.7151    1.2464   -1.1441 C   0  0  0  0  0  0  0  0  0  0  0  0
    5.9297    0.5799   -1.3345 C   0  0  0  0  0  0  0  0  0  0  0  0
    7.1045   -3.1155   -0.3759 H   0  0  0  0  0  0  0  0  0  0  0  0
    8.4095   -3.0095   -1.5637 H   0  0  0  0  0  0  0  0  0  0  0  0
    6.7562   -3.2410   -2.1449 H   0  0  0  0  0  0  0  0  0  0  0  0
    4.8389   -2.6098   -0.8852 H   0  0  0  0  0  0  0  0  0  0  0  0
    2.7457   -1.4653   -0.5562 H   0  0  0  0  0  0  0  0  0  0  0  0
    2.4590    2.2788   -0.7753 H   0  0  0  0  0  0  0  0  0  0  0  0
    0.0097    2.4051   -1.2667 H   0  0  0  0  0  0  0  0  0  0  0  0
    0.4354    2.6297    0.4755 H   0  0  0  0  0  0  0  0  0  0  0  0
   -2.5802   -0.6723    1.1968 H   0  0  0  0  0  0  0  0  0  0  0  0
   -2.8439   -0.3292   -0.5279 H   0  0  0  0  0  0  0  0  0  0  0  0
   -3.7273   -2.5472    0.0317 H   0  0  0  0  0  0  0  0  0  0  0  0
   -4.9853   -1.4542   -0.5264 H   0  0  0  0  0  0  0  0  0  0  0  0
   -6.0125   -2.4336    1.3118 H   0  0  0  0  0  0  0  0  0  0  0  0
   -4.5321   -2.5609    2.2444 H   0  0  0  0  0  0  0  0  0  0  0  0
   -6.4147   -0.7054    2.7947 H   0  0  0  0  0  0  0  0  0  0  0  0
   -4.7055   -0.4689    3.1307 H   0  0  0  0  0  0  0  0  0  0  0  0
   -6.1528    0.5234    0.6150 H   0  0  0  0  0  0  0  0  0  0  0  0
   -5.6668    1.4861    2.0161 H   0  0  0  0  0  0  0  0  0  0  0  0
    4.7045    2.3301   -1.2214 H   0  0  0  0  0  0  0  0  0  0  0  0
    6.8292    1.1501   -1.5535 H   0  0  0  0  0  0  0  0  0  0  0  0
  1  2  1  0
  2  3  1  0
  3  4  2  0
  4  5  1  0
  5  6  2  0
  6  7  1  0
  7  8  1  0
  8  9  2  0
  8 10  1  0
 10 11  1  0
 11 12  1  0
 12 13  2  0
 13 14  1  0
 14 15  1  0
 15 16  2  0
 16 17  1  0
 17 18  1  0
 18 19  1  0
 19 20  1  0
 20 21  1  0
 21 22  1  0
  6 23  1  0
 23 24  2  0
 24  3  1  0
 16 12  1  0
 22 17  1  0
  1 25  1  0
  1 26  1  0
  1 27  1  0
  4 28  1  0
  5 29  1  0
  7 30  1  0
 10 31  1  0
 10 32  1  0
 18 33  1  0
 18 34  1  0
 19 35  1  0
 19 36  1  0
 20 37  1  0
 20 38  1  0
 21 39  1  0
 21 40  1  0
 22 41  1  0
 22 42  1  0
 23 43  1  0
 24 44  1  0
M  END
$$$$
