
     RDKit          3D

 41 43  0  0  0  0  0  0  0  0999 V2000
   -2.5472   -3.7553    2.1226 C   0  0  0  0  0  0  0  0  0  0  0  0
   -3.1093   -2.4123    2.5670 C   0  0  0  0  0  0  0  0  0  0  0  0
   -2.0344   -1.3439    2.8166 C   0  0  0  0  0  0  0  0  0  0  0  0
   -1.2154   -1.0223    1.5667 C   0  0  0  0  0  0  0  0  0  0  0  0
   -0.1488    0.4169    1.8703 S   0  0  0  0  0  0  0  0  0  0  0  0
    0.5563    0.5850    0.2912 C   0  0  0  0  0  0  0  0  0  0  0  0
    0.9793   -0.4718   -0.3351 N   0  0  0  0  0  0  0  0  0  0  0  0
    1.3546   -0.0052   -1.5673 C   0  0  0  0  0  0  0  0  0  0  0  0
    1.8623   -0.6891   -2.6036 C   0  0  0  0  0  0  0  0  0  0  0  0
    2.1792   -2.0864   -2.6893 C   0  0  0  0  0  0  0  0  0  0  0  0
    2.6134   -2.7153   -3.9011 C   0  0  0  0  0  0  0  0  0  0  0  0
    2.8772   -4.0582   -3.7361 C   0  0  0  0  0  0  0  0  0  0  0  0
    2.6140   -4.5678   -2.1263 S   0  0  0  0  0  0  0  0  0  0  0  0
    2.1345   -2.9921   -1.6489 C   0  0  0  0  0  0  0  0  0  0  0  0
    1.1046    1.4651   -1.6445 C   0  0  0  0  0  0  0  0  0  0  0  0
    1.3307    2.1619   -2.6192 O   0  0  0  0  0  0  0  0  0  0  0  0
    0.6284    1.7728   -0.3895 N   0  0  0  0  0  0  0  0  0  0  0  0
    0.3323    3.1022    0.0294 C   0  0  0  0  0  0  0  0  0  0  0  0
   -0.1047    4.0602   -0.9008 C   0  0  0  0  0  0  0  0  0  0  0  0
   -0.4018    5.3720   -0.5144 C   0  0  0  0  0  0  0  0  0  0  0  0
   -0.2510    5.7605    0.8127 C   0  0  0  0  0  0  0  0  0  0  0  0
    0.2041    4.8402    1.7462 C   0  0  0  0  0  0  0  0  0  0  0  0
    0.4986    3.5265    1.3566 C   0  0  0  0  0  0  0  0  0  0  0  0
   -3.3496   -4.4999    2.0611 H   0  0  0  0  0  0  0  0  0  0  0  0
   -2.0839   -3.6866    1.1322 H   0  0  0  0  0  0  0  0  0  0  0  0
   -1.7953   -4.1235    2.8313 H   0  0  0  0  0  0  0  0  0  0  0  0
   -3.6782   -2.5588    3.4930 H   0  0  0  0  0  0  0  0  0  0  0  0
   -3.8232   -2.0502    1.8140 H   0  0  0  0  0  0  0  0  0  0  0  0
   -1.3706   -1.6838    3.6219 H   0  0  0  0  0  0  0  0  0  0  0  0
   -2.5427   -0.4394    3.1759 H   0  0  0  0  0  0  0  0  0  0  0  0
   -0.5931   -1.8795    1.2930 H   0  0  0  0  0  0  0  0  0  0  0  0
   -1.8798   -0.7990    0.7234 H   0  0  0  0  0  0  0  0  0  0  0  0
    2.0725   -0.1126   -3.5061 H   0  0  0  0  0  0  0  0  0  0  0  0
    2.7315   -2.2103   -4.8533 H   0  0  0  0  0  0  0  0  0  0  0  0
    3.2106   -4.7647   -4.4827 H   0  0  0  0  0  0  0  0  0  0  0  0
    1.8541   -2.8262   -0.6168 H   0  0  0  0  0  0  0  0  0  0  0  0
   -0.2503    3.8061   -1.9478 H   0  0  0  0  0  0  0  0  0  0  0  0
   -0.7425    6.0906   -1.2540 H   0  0  0  0  0  0  0  0  0  0  0  0
   -0.4766    6.7816    1.1136 H   0  0  0  0  0  0  0  0  0  0  0  0
    0.3476    5.1408    2.7809 H   0  0  0  0  0  0  0  0  0  0  0  0
    0.9125    2.8720    2.1172 H   0  0  0  0  0  0  0  0  0  0  0  0
  1  2  1  0
  2  3  1  0
  3  4  1  0
  4  5  1  0
  5  6  1  0
  6  7  2  0
  7  8  1  0
  8  9  2  3
  9 10  1  0
 10 11  1  0
 11 12  2  0
 12 13  1  0
 13 14  1  0
  8 15  1  0
 15 16  2  0
 15 17  1  0
 17 18  1  0
 18 19  2  0
 19 20  1  0
 20 21  2  0
 21 22  1  0
 22 23  2  0
 17  6  1  0
 23 18  1  0
 14 10  2  0
  1 24  1  0
  1 25  1  0
  1 26  1  0
  2 27  1  0
  2 28  1  0
  3 29  1  0
  3 30  1  0
  4 31  1  0
  4 32  1  0
  9 33  1  0
 11 34  1  0
 12 35  1  0
 14 36  1  0
 19 37  1  0
 20 38  1  0
 21 39  1  0
 22 40  1  0
 23 41  1  0
M  END
$$$$
