
     RDKit          3D

 44 47  0  0  0  0  0  0  0  0999 V2000
    5.0583   -0.6368   -1.9102 C   0  0  0  0  0  0  0  0  0  0  0  0
    5.6412   -0.5130   -0.6193 O   0  0  0  0  0  0  0  0  0  0  0  0
    4.8044   -0.2035    0.4150 C   0  0  0  0  0  0  0  0  0  0  0  0
    5.4248   -0.0863    1.6532 C   0  0  0  0  0  0  0  0  0  0  0  0
    4.6766    0.2245    2.7911 C   0  0  0  0  0  0  0  0  0  0  0  0
    3.3067    0.4268    2.7315 C   0  0  0  0  0  0  0  0  0  0  0  0
    2.6589    0.7203    3.8708 N   0  0  0  0  0  0  0  0  0  0  0  0
    1.3277    0.9192    3.8148 C   0  0  0  0  0  0  0  0  0  0  0  0
    0.5891    0.8367    2.6534 C   0  0  0  0  0  0  0  0  0  0  0  0
    1.2554    0.5279    1.4662 C   0  0  0  0  0  0  0  0  0  0  0  0
    0.4699    0.4582    0.2243 C   0  0  0  0  0  0  0  0  0  0  0  0
   -0.4733   -0.4762    0.0302 C   0  0  0  0  0  0  0  0  0  0  0  0
   -1.2582   -0.5455   -1.2120 C   0  0  0  0  0  0  0  0  0  0  0  0
   -0.5927   -0.8643   -2.3970 C   0  0  0  0  0  0  0  0  0  0  0  0
   -1.3305   -0.9459   -3.5590 C   0  0  0  0  0  0  0  0  0  0  0  0
   -2.6601   -0.7367   -3.6174 N   0  0  0  0  0  0  0  0  0  0  0  0
   -3.3070   -0.4334   -2.4803 C   0  0  0  0  0  0  0  0  0  0  0  0
   -4.6752   -0.2205   -2.5424 C   0  0  0  0  0  0  0  0  0  0  0  0
   -5.4222    0.1010   -1.4066 C   0  0  0  0  0  0  0  0  0  0  0  0
   -4.8023    0.2184   -0.1681 C   0  0  0  0  0  0  0  0  0  0  0  0
   -5.6379    0.5388    0.8639 O   0  0  0  0  0  0  0  0  0  0  0  0
   -5.0553    0.6645    2.1547 C   0  0  0  0  0  0  0  0  0  0  0  0
   -3.4267    0.0086   -0.0826 C   0  0  0  0  0  0  0  0  0  0  0  0
   -2.6579   -0.3221   -1.2308 C   0  0  0  0  0  0  0  0  0  0  0  0
    2.6570    0.3156    1.4824 C   0  0  0  0  0  0  0  0  0  0  0  0
    3.4270   -0.0044    0.3319 C   0  0  0  0  0  0  0  0  0  0  0  0
    4.6058    0.3073   -2.2311 H   0  0  0  0  0  0  0  0  0  0  0  0
    5.8580   -0.8798   -2.6165 H   0  0  0  0  0  0  0  0  0  0  0  0
    4.3300   -1.4540   -1.9374 H   0  0  0  0  0  0  0  0  0  0  0  0
    6.4978   -0.2381    1.7403 H   0  0  0  0  0  0  0  0  0  0  0  0
    5.1799    0.3104    3.7515 H   0  0  0  0  0  0  0  0  0  0  0  0
    0.8563    1.1585    4.7638 H   0  0  0  0  0  0  0  0  0  0  0  0
   -0.4796    1.0191    2.6766 H   0  0  0  0  0  0  0  0  0  0  0  0
    0.7020    1.2056   -0.5308 H   0  0  0  0  0  0  0  0  0  0  0  0
   -0.7058   -1.2238    0.7849 H   0  0  0  0  0  0  0  0  0  0  0  0
    0.4746   -1.0549   -2.4179 H   0  0  0  0  0  0  0  0  0  0  0  0
   -0.8598   -1.1927   -4.5064 H   0  0  0  0  0  0  0  0  0  0  0  0
   -5.1780   -0.3064   -3.5029 H   0  0  0  0  0  0  0  0  0  0  0  0
   -6.4939    0.2608   -1.4956 H   0  0  0  0  0  0  0  0  0  0  0  0
   -4.3208    1.4763    2.1786 H   0  0  0  0  0  0  0  0  0  0  0  0
   -5.8538    0.9172    2.8590 H   0  0  0  0  0  0  0  0  0  0  0  0
   -4.6104   -0.2815    2.4808 H   0  0  0  0  0  0  0  0  0  0  0  0
   -2.9210    0.1009    0.8725 H   0  0  0  0  0  0  0  0  0  0  0  0
    2.9210   -0.0969   -0.6229 H   0  0  0  0  0  0  0  0  0  0  0  0
  1  2  1  0
  2  3  1  0
  3  4  2  0
  4  5  1  0
  5  6  2  0
  6  7  1  0
  7  8  2  0
  8  9  1  0
  9 10  2  0
 10 11  1  0
 11 12  2  3
 12 13  1  0
 13 14  2  0
 14 15  1  0
 15 16  2  0
 16 17  1  0
 17 18  2  0
 18 19  1  0
 19 20  2  0
 20 21  1  0
 21 22  1  0
 20 23  1  0
 23 24  2  0
 10 25  1  0
 25 26  2  0
 26  3  1  0
 25  6  1  0
 24 13  1  0
 24 17  1  0
  1 27  1  0
  1 28  1  0
  1 29  1  0
  4 30  1  0
  5 31  1  0
  8 32  1  0
  9 33  1  0
 11 34  1  0
 12 35  1  0
 14 36  1  0
 15 37  1  0
 18 38  1  0
 19 39  1  0
 22 40  1  0
 22 41  1  0
 22 42  1  0
 23 43  1  0
 26 44  1  0
M  END
$$$$
