
     RDKit          3D

 60 62  0  0  0  0  0  0  0  0999 V2000
    6.7131    3.3098   -2.8781 C   0  0  0  0  0  0  0  0  0  0  0  0
    5.3666    3.6765   -3.1596 O   0  0  0  0  0  0  0  0  0  0  0  0
    4.3985    2.7613   -2.8424 C   0  0  0  0  0  0  0  0  0  0  0  0
    4.5946    1.5471   -2.1775 C   0  0  0  0  0  0  0  0  0  0  0  0
    3.5201    0.6730   -1.9704 C   0  0  0  0  0  0  0  0  0  0  0  0
    2.2371    1.0182   -2.4057 C   0  0  0  0  0  0  0  0  0  0  0  0
    1.0647    0.1045   -2.2816 C   0  0  0  0  0  0  0  0  0  0  0  0
    0.1519    0.2182   -3.1001 O   0  0  0  0  0  0  0  0  0  0  0  0
    1.0429   -0.9564   -1.2038 C   0  0  0  0  0  0  0  0  0  0  0  0
    0.9339   -2.3075   -1.8402 C   0  0  0  0  0  0  0  0  0  0  0  0
    1.8491   -2.9347   -2.3379 O   0  0  0  0  0  0  0  0  0  0  0  0
   -0.5226   -2.7815   -1.7816 C   0  0  0  0  0  0  0  0  0  0  0  0
   -0.9371   -3.8128   -2.2645 O   0  0  0  0  0  0  0  0  0  0  0  0
   -1.1997   -1.8462   -1.0164 N   0  0  0  0  0  0  0  0  0  0  0  0
   -2.5042   -2.1726   -0.4344 C   0  0  0  0  0  0  0  0  0  0  0  0
   -2.4154   -3.0715    0.8171 C   0  0  0  0  0  0  0  0  0  0  0  0
   -3.6941   -3.1541    1.5508 N   0  0  0  0  0  0  0  0  0  0  0  0
   -3.4617   -3.6157    2.9182 C   0  0  0  0  0  0  0  0  0  0  0  0
   -4.6462   -4.0421    0.8850 C   0  0  0  0  0  0  0  0  0  0  0  0
   -0.2277   -0.9919   -0.3337 C   0  0  0  0  0  0  0  0  0  0  0  0
   -0.7524    0.3403    0.1672 C   0  0  0  0  0  0  0  0  0  0  0  0
   -1.5679    1.1401   -0.6525 C   0  0  0  0  0  0  0  0  0  0  0  0
   -2.1039    2.3331   -0.1770 C   0  0  0  0  0  0  0  0  0  0  0  0
   -1.8688    2.7232    1.1383 C   0  0  0  0  0  0  0  0  0  0  0  0
   -1.0925    1.9278    1.9880 C   0  0  0  0  0  0  0  0  0  0  0  0
   -0.9358    2.2432    3.3130 O   0  0  0  0  0  0  0  0  0  0  0  0
   -2.0969    2.7721    3.9449 C   0  0  0  0  0  0  0  0  0  0  0  0
   -0.4604    0.7779    1.4777 C   0  0  0  0  0  0  0  0  0  0  0  0
    0.4149   -0.0287    2.1653 O   0  0  0  0  0  0  0  0  0  0  0  0
    1.1604    0.5394    3.2358 C   0  0  0  0  0  0  0  0  0  0  0  0
    2.0430    2.2461   -3.0541 C   0  0  0  0  0  0  0  0  0  0  0  0
    3.1167    3.1067   -3.2680 C   0  0  0  0  0  0  0  0  0  0  0  0
    7.3634    4.0945   -3.2766 H   0  0  0  0  0  0  0  0  0  0  0  0
    6.9853    2.3736   -3.3711 H   0  0  0  0  0  0  0  0  0  0  0  0
    6.8842    3.2503   -1.7977 H   0  0  0  0  0  0  0  0  0  0  0  0
    5.5769    1.2334   -1.8411 H   0  0  0  0  0  0  0  0  0  0  0  0
    3.7305   -0.2876   -1.5059 H   0  0  0  0  0  0  0  0  0  0  0  0
    1.9170   -0.9083   -0.5486 H   0  0  0  0  0  0  0  0  0  0  0  0
   -3.0172   -1.2375   -0.1937 H   0  0  0  0  0  0  0  0  0  0  0  0
   -3.0917   -2.6793   -1.2078 H   0  0  0  0  0  0  0  0  0  0  0  0
   -2.0361   -4.0664    0.5509 H   0  0  0  0  0  0  0  0  0  0  0  0
   -1.6633   -2.6300    1.4853 H   0  0  0  0  0  0  0  0  0  0  0  0
   -3.0395   -4.6235    2.9460 H   0  0  0  0  0  0  0  0  0  0  0  0
   -2.7778   -2.9415    3.4386 H   0  0  0  0  0  0  0  0  0  0  0  0
   -4.3941   -3.6072    3.4938 H   0  0  0  0  0  0  0  0  0  0  0  0
   -4.2655   -5.0685    0.7977 H   0  0  0  0  0  0  0  0  0  0  0  0
   -5.5776   -4.0737    1.4558 H   0  0  0  0  0  0  0  0  0  0  0  0
   -4.9041   -3.6824   -0.1146 H   0  0  0  0  0  0  0  0  0  0  0  0
    0.0420   -1.6003    0.5458 H   0  0  0  0  0  0  0  0  0  0  0  0
   -1.8046    0.8320   -1.6739 H   0  0  0  0  0  0  0  0  0  0  0  0
   -2.7278    2.9464   -0.8256 H   0  0  0  0  0  0  0  0  0  0  0  0
   -2.3166    3.6485    1.4877 H   0  0  0  0  0  0  0  0  0  0  0  0
   -3.0196    2.3152    3.5656 H   0  0  0  0  0  0  0  0  0  0  0  0
   -2.1241    3.8671    3.8252 H   0  0  0  0  0  0  0  0  0  0  0  0
   -2.0290    2.5499    5.0119 H   0  0  0  0  0  0  0  0  0  0  0  0
    0.6092    0.4256    4.1707 H   0  0  0  0  0  0  0  0  0  0  0  0
    1.4490    1.5838    3.0455 H   0  0  0  0  0  0  0  0  0  0  0  0
    2.0954   -0.0304    3.3370 H   0  0  0  0  0  0  0  0  0  0  0  0
    1.0601    2.5277   -3.4228 H   0  0  0  0  0  0  0  0  0  0  0  0
    2.9553    4.0459   -3.8001 H   0  0  0  0  0  0  0  0  0  0  0  0
  1  2  1  0
  2  3  1  0
  3  4  2  0
  4  5  1  0
  5  6  2  0
  6  7  1  0
  7  8  2  0
  7  9  1  0
  9 10  1  0
 10 11  2  0
 10 12  1  0
 12 13  2  0
 12 14  1  0
 14 15  1  0
 15 16  1  0
 16 17  1  0
 17 18  1  0
 17 19  1  0
 14 20  1  0
 20 21  1  0
 21 22  2  0
 22 23  1  0
 23 24  2  0
 24 25  1  0
 25 26  1  0
 26 27  1  0
 25 28  2  0
 28 29  1  0
 29 30  1  0
  6 31  1  0
 31 32  2  0
 32  3  1  0
 20  9  1  0
 28 21  1  0
  1 33  1  0
  1 34  1  0
  1 35  1  0
  4 36  1  0
  5 37  1  0
  9 38  1  0
 15 39  1  0
 15 40  1  0
 16 41  1  0
 16 42  1  0
 18 43  1  0
 18 44  1  0
 18 45  1  0
 19 46  1  0
 19 47  1  0
 19 48  1  0
 20 49  1  0
 22 50  1  0
 23 51  1  0
 24 52  1  0
 27 53  1  0
 27 54  1  0
 27 55  1  0
 30 56  1  0
 30 57  1  0
 30 58  1  0
 31 59  1  0
 32 60  1  0
M  END
$$$$
