
     RDKit          3D

 52 54  0  0  0  0  0  0  0  0999 V2000
    4.7770    0.9892    4.4173 C   0  0  0  0  0  0  0  0  0  0  0  0
    5.5874    1.0180    3.1351 C   0  0  0  0  0  0  0  0  0  0  0  0
    4.7695    0.6391    2.0185 O   0  0  0  0  0  0  0  0  0  0  0  0
    4.0347    1.6373    1.4502 C   0  0  0  0  0  0  0  0  0  0  0  0
    4.0473    2.8006    1.8374 O   0  0  0  0  0  0  0  0  0  0  0  0
    3.2711    1.1885    0.3871 N   0  0  0  0  0  0  0  0  0  0  0  0
    2.4676    2.1463   -0.3654 C   0  0  0  0  0  0  0  0  0  0  0  0
    2.2550    1.6909   -1.8053 C   0  0  0  0  0  0  0  0  0  0  0  0
    1.5768    0.3133   -1.8728 C   0  0  0  0  0  0  0  0  0  0  0  0
    0.1400    0.4564   -2.0714 N   0  0  0  0  0  0  0  0  0  0  0  0
   -0.6546   -0.6060   -2.4591 C   0  0  0  0  0  0  0  0  0  0  0  0
   -0.2082   -1.7115   -2.7569 O   0  0  0  0  0  0  0  0  0  0  0  0
   -2.1539   -0.3004   -2.4504 C   0  0  0  0  0  0  0  0  0  0  0  0
   -2.7125   -0.3195   -1.0933 N   0  0  0  0  0  0  0  0  0  0  0  0
   -2.5045    0.7970   -0.2914 C   0  0  0  0  0  0  0  0  0  0  0  0
   -1.8698    1.7810   -0.6859 O   0  0  0  0  0  0  0  0  0  0  0  0
   -2.9958    0.7453    1.1368 C   0  0  0  0  0  0  0  0  0  0  0  0
   -4.4564    1.1261    1.2495 C   0  0  0  0  0  0  0  0  0  0  0  0
   -5.5989    0.2507    0.1363 S   0  0  0  0  0  0  0  0  0  0  0  0
   -4.7529   -1.3149   -0.0652 C   0  0  0  0  0  0  0  0  0  0  0  0
   -5.4723   -2.4639    0.3020 C   0  0  0  0  0  0  0  0  0  0  0  0
   -4.9612   -3.7373    0.0505 C   0  0  0  0  0  0  0  0  0  0  0  0
   -3.7377   -3.8746   -0.5946 C   0  0  0  0  0  0  0  0  0  0  0  0
   -3.0181   -2.7398   -0.9778 C   0  0  0  0  0  0  0  0  0  0  0  0
   -3.5007   -1.4476   -0.7048 C   0  0  0  0  0  0  0  0  0  0  0  0
    1.8705   -0.5570   -0.6386 C   0  0  0  0  0  0  0  0  0  0  0  0
    3.2152   -0.2139   -0.0139 C   0  0  0  0  0  0  0  0  0  0  0  0
    3.9736    1.7311    4.3920 H   0  0  0  0  0  0  0  0  0  0  0  0
    5.4125    1.1970    5.2833 H   0  0  0  0  0  0  0  0  0  0  0  0
    4.3030    0.0102    4.5503 H   0  0  0  0  0  0  0  0  0  0  0  0
    6.0531    1.9970    2.9756 H   0  0  0  0  0  0  0  0  0  0  0  0
    6.3959    0.2850    3.1988 H   0  0  0  0  0  0  0  0  0  0  0  0
    2.9530    3.1292   -0.3520 H   0  0  0  0  0  0  0  0  0  0  0  0
    1.5062    2.2482    0.1544 H   0  0  0  0  0  0  0  0  0  0  0  0
    3.2383    1.6172   -2.2922 H   0  0  0  0  0  0  0  0  0  0  0  0
    1.6849    2.4451   -2.3610 H   0  0  0  0  0  0  0  0  0  0  0  0
    1.9591   -0.2061   -2.7634 H   0  0  0  0  0  0  0  0  0  0  0  0
   -0.3422    1.2246   -1.5999 H   0  0  0  0  0  0  0  0  0  0  0  0
   -2.6737   -1.0130   -3.1020 H   0  0  0  0  0  0  0  0  0  0  0  0
   -2.3107    0.6933   -2.8895 H   0  0  0  0  0  0  0  0  0  0  0  0
   -2.7880   -0.2353    1.5802 H   0  0  0  0  0  0  0  0  0  0  0  0
   -2.3945    1.4529    1.7228 H   0  0  0  0  0  0  0  0  0  0  0  0
   -4.5749    2.1964    1.0435 H   0  0  0  0  0  0  0  0  0  0  0  0
   -4.7960    0.9661    2.2804 H   0  0  0  0  0  0  0  0  0  0  0  0
   -6.4510   -2.3754    0.7696 H   0  0  0  0  0  0  0  0  0  0  0  0
   -5.5262   -4.6198    0.3428 H   0  0  0  0  0  0  0  0  0  0  0  0
   -3.3367   -4.8654   -0.8002 H   0  0  0  0  0  0  0  0  0  0  0  0
   -2.0550   -2.8918   -1.4593 H   0  0  0  0  0  0  0  0  0  0  0  0
    1.0844   -0.4174    0.1167 H   0  0  0  0  0  0  0  0  0  0  0  0
    1.8474   -1.6183   -0.9160 H   0  0  0  0  0  0  0  0  0  0  0  0
    3.3951   -0.8638    0.8475 H   0  0  0  0  0  0  0  0  0  0  0  0
    4.0280   -0.3802   -0.7289 H   0  0  0  0  0  0  0  0  0  0  0  0
  1  2  1  0
  2  3  1  0
  3  4  1  0
  4  5  2  0
  4  6  1  0
  6  7  1  0
  7  8  1  0
  8  9  1  0
  9 10  1  0
 10 11  1  0
 11 12  2  0
 11 13  1  0
 13 14  1  0
 14 15  1  0
 15 16  2  0
 15 17  1  0
 17 18  1  0
 18 19  1  0
 19 20  1  0
 20 21  2  0
 21 22  1  0
 22 23  2  0
 23 24  1  0
 24 25  2  0
  9 26  1  0
 26 27  1  0
 27  6  1  0
 25 14  1  0
 25 20  1  0
  1 28  1  0
  1 29  1  0
  1 30  1  0
  2 31  1  0
  2 32  1  0
  7 33  1  0
  7 34  1  0
  8 35  1  0
  8 36  1  0
  9 37  1  0
 10 38  1  0
 13 39  1  0
 13 40  1  0
 17 41  1  0
 17 42  1  0
 18 43  1  0
 18 44  1  0
 21 45  1  0
 22 46  1  0
 23 47  1  0
 24 48  1  0
 26 49  1  0
 26 50  1  0
 27 51  1  0
 27 52  1  0
M  END
$$$$
