
     RDKit          3D

 72 75  0  0  0  0  0  0  0  0999 V2000
   -3.9872    2.1668   -3.0167 C   0  0  0  0  0  0  0  0  0  0  0  0
   -4.7353    1.3723   -1.9841 C   0  0  0  0  0  0  0  0  0  0  0  0
   -5.8477    1.9577   -1.3645 C   0  0  0  0  0  0  0  0  0  0  0  0
   -6.5874    1.2716   -0.3917 C   0  0  0  0  0  0  0  0  0  0  0  0
   -6.2451   -0.0280    0.0069 C   0  0  0  0  0  0  0  0  0  0  0  0
   -7.0507   -0.8187    1.0537 C   0  0  0  0  0  0  0  0  0  0  0  0
   -7.6239   -2.0959    0.4036 C   0  0  0  0  0  0  0  0  0  0  0  0
   -8.2434   -0.0343    1.6467 C   0  0  0  0  0  0  0  0  0  0  0  0
   -6.1338   -1.2133    2.2323 C   0  0  0  0  0  0  0  0  0  0  0  0
   -5.1163   -0.6074   -0.6037 C   0  0  0  0  0  0  0  0  0  0  0  0
   -4.3672    0.0786   -1.5779 C   0  0  0  0  0  0  0  0  0  0  0  0
   -2.9460   -0.7565   -2.2654 S   0  0  0  0  0  6  0  0  0  0  0  0
   -3.1183   -0.8003   -3.7014 O   0  0  0  0  0  0  0  0  0  0  0  0
   -2.7151   -1.9758   -1.5167 O   0  0  0  0  0  0  0  0  0  0  0  0
   -1.6458    0.2905   -1.9040 N   0  0  0  0  0  0  0  0  0  0  0  0
   -1.4213    0.5672   -0.4598 C   0  0  0  0  0  0  0  0  0  0  0  0
   -0.1788    1.4361   -0.3062 C   0  0  0  0  0  0  0  0  0  0  0  0
    1.0871    0.6702   -0.7359 C   0  0  0  0  0  0  0  0  0  0  0  0
    1.7367   -0.0262    0.4647 C   0  0  0  0  0  0  0  0  0  0  0  0
    1.0911   -0.2032    1.4998 O   0  0  0  0  0  0  0  0  0  0  0  0
    3.0386   -0.4782    0.3399 N   0  0  0  0  0  0  0  0  0  0  0  0
    3.6390   -1.2527    1.4348 C   0  0  0  0  0  0  0  0  0  0  0  0
    4.9737   -0.6470    1.9101 C   0  0  0  0  0  0  0  0  0  0  0  0
    5.8918   -0.4397    0.7575 N   0  0  0  0  0  0  0  0  0  0  0  0
    7.2140   -0.1480    1.1326 C   0  0  0  0  0  0  0  0  0  0  0  0
    7.9431   -1.0898    1.8830 C   0  0  0  0  0  0  0  0  0  0  0  0
    9.2723   -0.8659    2.2617 C   0  0  0  0  0  0  0  0  0  0  0  0
    9.8969    0.3138    1.8839 C   0  0  0  0  0  0  0  0  0  0  0  0
   11.1913    0.5757    2.2190 O   0  0  0  0  0  0  0  0  0  0  0  0
    9.2133    1.2627    1.1395 C   0  0  0  0  0  0  0  0  0  0  0  0
    7.8839    1.0300    0.7646 C   0  0  0  0  0  0  0  0  0  0  0  0
    5.2841    0.3743   -0.3169 C   0  0  0  0  0  0  0  0  0  0  0  0
    3.9543   -0.2504   -0.7868 C   0  0  0  0  0  0  0  0  0  0  0  0
    0.7638   -0.3759   -1.8157 C   0  0  0  0  0  0  0  0  0  0  0  0
   -0.4096    0.0376   -2.6932 C   0  0  0  0  0  0  0  0  0  0  0  0
   -4.5466    3.0655   -3.3043 H   0  0  0  0  0  0  0  0  0  0  0  0
   -3.0227    2.4985   -2.6211 H   0  0  0  0  0  0  0  0  0  0  0  0
   -3.8378    1.5939   -3.9347 H   0  0  0  0  0  0  0  0  0  0  0  0
   -6.1610    2.9651   -1.6370 H   0  0  0  0  0  0  0  0  0  0  0  0
   -7.4419    1.7886    0.0368 H   0  0  0  0  0  0  0  0  0  0  0  0
   -8.2191   -2.6728    1.1217 H   0  0  0  0  0  0  0  0  0  0  0  0
   -8.2725   -1.8478   -0.4451 H   0  0  0  0  0  0  0  0  0  0  0  0
   -6.8376   -2.7619    0.0302 H   0  0  0  0  0  0  0  0  0  0  0  0
   -8.7857   -0.6391    2.3839 H   0  0  0  0  0  0  0  0  0  0  0  0
   -8.9656    0.2504    0.8720 H   0  0  0  0  0  0  0  0  0  0  0  0
   -7.9124    0.8776    2.1579 H   0  0  0  0  0  0  0  0  0  0  0  0
   -6.6966   -1.7479    3.0079 H   0  0  0  0  0  0  0  0  0  0  0  0
   -5.3168   -1.8727    1.9202 H   0  0  0  0  0  0  0  0  0  0  0  0
   -5.6838   -0.3267    2.6967 H   0  0  0  0  0  0  0  0  0  0  0  0
   -4.8151   -1.6158   -0.3212 H   0  0  0  0  0  0  0  0  0  0  0  0
   -2.2781    1.1196   -0.0621 H   0  0  0  0  0  0  0  0  0  0  0  0
   -1.3195   -0.3652    0.1060 H   0  0  0  0  0  0  0  0  0  0  0  0
   -0.0996    1.8022    0.7245 H   0  0  0  0  0  0  0  0  0  0  0  0
   -0.2850    2.3272   -0.9399 H   0  0  0  0  0  0  0  0  0  0  0  0
    1.7831    1.4259   -1.1171 H   0  0  0  0  0  0  0  0  0  0  0  0
    2.9559   -1.3413    2.2854 H   0  0  0  0  0  0  0  0  0  0  0  0
    3.8090   -2.2653    1.0471 H   0  0  0  0  0  0  0  0  0  0  0  0
    5.3999   -1.3261    2.6562 H   0  0  0  0  0  0  0  0  0  0  0  0
    4.7852    0.3163    2.4014 H   0  0  0  0  0  0  0  0  0  0  0  0
    7.4824   -2.0370    2.1550 H   0  0  0  0  0  0  0  0  0  0  0  0
    9.7937   -1.6242    2.8362 H   0  0  0  0  0  0  0  0  0  0  0  0
   11.5480   -0.1982    2.6868 H   0  0  0  0  0  0  0  0  0  0  0  0
    9.7097    2.1833    0.8436 H   0  0  0  0  0  0  0  0  0  0  0  0
    7.3887    1.8045    0.1878 H   0  0  0  0  0  0  0  0  0  0  0  0
    5.9546    0.4341   -1.1822 H   0  0  0  0  0  0  0  0  0  0  0  0
    5.0903    1.3906    0.0480 H   0  0  0  0  0  0  0  0  0  0  0  0
    3.5155    0.3946   -1.5486 H   0  0  0  0  0  0  0  0  0  0  0  0
    4.1409   -1.2285   -1.2460 H   0  0  0  0  0  0  0  0  0  0  0  0
    0.5376   -1.3451   -1.3510 H   0  0  0  0  0  0  0  0  0  0  0  0
    1.6407   -0.5430   -2.4511 H   0  0  0  0  0  0  0  0  0  0  0  0
   -0.5699   -0.7358   -3.4512 H   0  0  0  0  0  0  0  0  0  0  0  0
   -0.1698    0.9583   -3.2381 H   0  0  0  0  0  0  0  0  0  0  0  0
  1  2  1  0
  2  3  2  0
  3  4  1  0
  4  5  2  0
  5  6  1  0
  6  7  1  0
  6  8  1  0
  6  9  1  0
  5 10  1  0
 10 11  2  0
 11 12  1  0
 12 13  2  0
 12 14  2  0
 12 15  1  0
 15 16  1  0
 16 17  1  0
 17 18  1  0
 18 19  1  0
 19 20  2  0
 19 21  1  0
 21 22  1  0
 22 23  1  0
 23 24  1  0
 24 25  1  0
 25 26  2  0
 26 27  1  0
 27 28  2  0
 28 29  1  0
 28 30  1  0
 30 31  2  0
 24 32  1  0
 32 33  1  0
 18 34  1  0
 34 35  1  0
 11  2  1  0
 35 15  1  0
 33 21  1  0
 31 25  1  0
  1 36  1  0
  1 37  1  0
  1 38  1  0
  3 39  1  0
  4 40  1  0
  7 41  1  0
  7 42  1  0
  7 43  1  0
  8 44  1  0
  8 45  1  0
  8 46  1  0
  9 47  1  0
  9 48  1  0
  9 49  1  0
 10 50  1  0
 16 51  1  0
 16 52  1  0
 17 53  1  0
 17 54  1  0
 18 55  1  0
 22 56  1  0
 22 57  1  0
 23 58  1  0
 23 59  1  0
 26 60  1  0
 27 61  1  0
 29 62  1  0
 30 63  1  0
 31 64  1  0
 32 65  1  0
 32 66  1  0
 33 67  1  0
 33 68  1  0
 34 69  1  0
 34 70  1  0
 35 71  1  0
 35 72  1  0
M  END
$$$$
