
     RDKit          3D

 44 47  0  0  0  0  0  0  0  0999 V2000
   -6.2001    0.9873   -2.5498 C   0  0  0  0  0  0  0  0  0  0  0  0
   -5.2063    1.4933   -1.6677 O   0  0  0  0  0  0  0  0  0  0  0  0
   -4.1898    0.6438   -1.3289 C   0  0  0  0  0  0  0  0  0  0  0  0
   -4.0378   -0.6712   -1.7652 C   0  0  0  0  0  0  0  0  0  0  0  0
   -2.9438   -1.4342   -1.3386 C   0  0  0  0  0  0  0  0  0  0  0  0
   -1.9834   -0.8949   -0.4703 C   0  0  0  0  0  0  0  0  0  0  0  0
   -0.8078   -1.7450   -0.0137 C   0  0  0  0  0  0  0  0  0  0  0  0
    0.5223   -1.0941   -0.3228 C   0  0  0  0  0  0  0  0  0  0  0  0
    1.5828   -1.1602    0.5024 C   0  0  0  0  0  0  0  0  0  0  0  0
    2.8389   -0.4831    0.1262 C   0  0  0  0  0  0  0  0  0  0  0  0
    3.8308   -1.2489   -0.4881 C   0  0  0  0  0  0  0  0  0  0  0  0
    5.0040   -0.6240   -0.8554 C   0  0  0  0  0  0  0  0  0  0  0  0
    5.2490    0.6869   -0.6571 N   0  0  0  0  0  0  0  0  0  0  0  0
    4.2986    1.4309   -0.0710 C   0  0  0  0  0  0  0  0  0  0  0  0
    4.5530    2.7818    0.1286 C   0  0  0  0  0  0  0  0  0  0  0  0
    3.6198    3.6290    0.7317 C   0  0  0  0  0  0  0  0  0  0  0  0
    2.4019    3.1130    1.1476 C   0  0  0  0  0  0  0  0  0  0  0  0
    1.2407    4.1387    1.8924 Cl  0  0  0  0  0  0  0  0  0  0  0  0
    2.1175    1.7628    0.9631 C   0  0  0  0  0  0  0  0  0  0  0  0
    3.0580    0.8996    0.3490 C   0  0  0  0  0  0  0  0  0  0  0  0
    1.5933   -1.9262    1.7978 C   0  0  0  0  0  0  0  0  0  0  0  0
    0.3212   -2.7400    1.9600 C   0  0  0  0  0  0  0  0  0  0  0  0
    0.3167   -3.8211    2.5494 O   0  0  0  0  0  0  0  0  0  0  0  0
   -0.9556   -2.1061    1.4680 C   0  0  0  0  0  0  0  0  0  0  0  0
   -2.1471    0.4281   -0.0347 C   0  0  0  0  0  0  0  0  0  0  0  0
   -3.2395    1.1865   -0.4630 C   0  0  0  0  0  0  0  0  0  0  0  0
   -5.7680    0.7198   -3.5197 H   0  0  0  0  0  0  0  0  0  0  0  0
   -6.9324    1.7825   -2.7198 H   0  0  0  0  0  0  0  0  0  0  0  0
   -6.7284    0.1381   -2.1038 H   0  0  0  0  0  0  0  0  0  0  0  0
   -4.7512   -1.1363   -2.4372 H   0  0  0  0  0  0  0  0  0  0  0  0
   -2.8518   -2.4587   -1.6943 H   0  0  0  0  0  0  0  0  0  0  0  0
   -0.8154   -2.6799   -0.5926 H   0  0  0  0  0  0  0  0  0  0  0  0
    0.5967   -0.5592   -1.2701 H   0  0  0  0  0  0  0  0  0  0  0  0
    3.6953   -2.3076   -0.6828 H   0  0  0  0  0  0  0  0  0  0  0  0
    5.8062   -1.1765   -1.3368 H   0  0  0  0  0  0  0  0  0  0  0  0
    5.5088    3.1879   -0.1968 H   0  0  0  0  0  0  0  0  0  0  0  0
    3.8556    4.6807    0.8693 H   0  0  0  0  0  0  0  0  0  0  0  0
    1.1573    1.3804    1.2982 H   0  0  0  0  0  0  0  0  0  0  0  0
    1.6695   -1.2407    2.6486 H   0  0  0  0  0  0  0  0  0  0  0  0
    2.4400   -2.6214    1.8232 H   0  0  0  0  0  0  0  0  0  0  0  0
   -1.7865   -2.8074    1.6089 H   0  0  0  0  0  0  0  0  0  0  0  0
   -1.1550   -1.2318    2.0994 H   0  0  0  0  0  0  0  0  0  0  0  0
   -1.4272    0.8855    0.6398 H   0  0  0  0  0  0  0  0  0  0  0  0
   -3.3508    2.2120   -0.1181 H   0  0  0  0  0  0  0  0  0  0  0  0
  1  2  1  0
  2  3  1  0
  3  4  2  0
  4  5  1  0
  5  6  2  0
  6  7  1  0
  7  8  1  0
  8  9  2  0
  9 10  1  0
 10 11  2  0
 11 12  1  0
 12 13  2  0
 13 14  1  0
 14 15  2  0
 15 16  1  0
 16 17  2  0
 17 18  1  0
 17 19  1  0
 19 20  2  0
  9 21  1  0
 21 22  1  0
 22 23  2  0
 22 24  1  0
  6 25  1  0
 25 26  2  0
 26  3  1  0
 24  7  1  0
 20 10  1  0
 20 14  1  0
  1 27  1  0
  1 28  1  0
  1 29  1  0
  4 30  1  0
  5 31  1  0
  7 32  1  0
  8 33  1  0
 11 34  1  0
 12 35  1  0
 15 36  1  0
 16 37  1  0
 19 38  1  0
 21 39  1  0
 21 40  1  0
 24 41  1  0
 24 42  1  0
 25 43  1  0
 26 44  1  0
M  END
$$$$
