
     RDKit          3D

 40 42  0  0  0  0  0  0  0  0999 V2000
    6.5721    0.9170   -2.7465 N   0  0  0  0  0  0  0  0  0  0  0  0
    5.4178    0.8059   -2.7942 C   0  0  0  0  0  0  0  0  0  0  0  0
    3.9990    0.6620   -2.8332 C   0  0  0  0  0  0  0  0  0  0  0  0
    3.3713    0.9324   -4.0851 C   0  0  0  0  0  0  0  0  0  0  0  0
    2.8486    1.1495   -5.0985 N   0  0  0  0  0  0  0  0  0  0  0  0
    3.2991    0.2692   -1.7374 C   0  0  0  0  0  0  0  0  0  0  0  0
    1.8421    0.0940   -1.7436 C   0  0  0  0  0  0  0  0  0  0  0  0
    1.1316   -0.2980   -0.6693 C   0  0  0  0  0  0  0  0  0  0  0  0
   -0.3181   -0.3369   -0.7178 C   0  0  0  0  0  0  0  0  0  0  0  0
   -1.0837   -0.0894    0.3638 C   0  0  0  0  0  0  0  0  0  0  0  0
   -2.4866   -0.0743    0.3681 N   0  0  0  0  0  0  0  0  0  0  0  0
   -3.2637    0.0871   -0.8882 C   0  0  0  0  0  0  0  0  0  0  0  0
   -4.6774    0.6050   -0.5849 C   0  0  0  0  0  0  0  0  0  0  0  0
   -5.3749   -0.2607    0.3233 O   0  0  0  0  0  0  0  0  0  0  0  0
   -4.6494   -0.3556    1.5584 C   0  0  0  0  0  0  0  0  0  0  0  0
   -3.2367   -0.9151    1.3396 C   0  0  0  0  0  0  0  0  0  0  0  0
   -0.3681    0.2954    1.6496 C   0  0  0  0  0  0  0  0  0  0  0  0
    0.8756   -0.5573    1.8777 C   0  0  0  0  0  0  0  0  0  0  0  0
    1.7943   -0.6493    0.6464 C   0  0  0  0  0  0  0  0  0  0  0  0
    3.0657    0.1894    0.8126 C   0  0  0  0  0  0  0  0  0  0  0  0
    3.9824   -0.0049   -0.4004 C   0  0  0  0  0  0  0  0  0  0  0  0
    1.2980    0.3404   -2.6551 H   0  0  0  0  0  0  0  0  0  0  0  0
   -0.7740   -0.5381   -1.6822 H   0  0  0  0  0  0  0  0  0  0  0  0
   -2.7707    0.8017   -1.5572 H   0  0  0  0  0  0  0  0  0  0  0  0
   -3.3240   -0.8833   -1.3959 H   0  0  0  0  0  0  0  0  0  0  0  0
   -4.6431    1.6149   -0.1588 H   0  0  0  0  0  0  0  0  0  0  0  0
   -5.2607    0.6533   -1.5099 H   0  0  0  0  0  0  0  0  0  0  0  0
   -4.6126    0.6343    2.0288 H   0  0  0  0  0  0  0  0  0  0  0  0
   -5.2125   -1.0199    2.2214 H   0  0  0  0  0  0  0  0  0  0  0  0
   -3.3023   -1.9324    0.9336 H   0  0  0  0  0  0  0  0  0  0  0  0
   -2.7297   -0.9781    2.3064 H   0  0  0  0  0  0  0  0  0  0  0  0
   -0.0883    1.3555    1.5877 H   0  0  0  0  0  0  0  0  0  0  0  0
   -1.0160    0.2091    2.5265 H   0  0  0  0  0  0  0  0  0  0  0  0
    0.5461   -1.5738    2.1358 H   0  0  0  0  0  0  0  0  0  0  0  0
    1.4222   -0.1910    2.7550 H   0  0  0  0  0  0  0  0  0  0  0  0
    2.1076   -1.7021    0.5773 H   0  0  0  0  0  0  0  0  0  0  0  0
    3.6034   -0.1124    1.7195 H   0  0  0  0  0  0  0  0  0  0  0  0
    2.8137    1.2522    0.9263 H   0  0  0  0  0  0  0  0  0  0  0  0
    4.8539    0.6445   -0.2585 H   0  0  0  0  0  0  0  0  0  0  0  0
    4.3483   -1.0403   -0.4071 H   0  0  0  0  0  0  0  0  0  0  0  0
  1  2  3  0
  2  3  1  0
  3  4  1  0
  4  5  3  0
  3  6  2  3
  6  7  1  0
  7  8  2  0
  8  9  1  0
  9 10  2  0
 10 11  1  0
 11 12  1  0
 12 13  1  0
 13 14  1  0
 14 15  1  0
 15 16  1  0
 10 17  1  0
 17 18  1  0
 18 19  1  0
 19 20  1  0
 20 21  1  0
 21  6  1  0
 19  8  1  0
 16 11  1  0
  7 22  1  0
  9 23  1  0
 12 24  1  0
 12 25  1  0
 13 26  1  0
 13 27  1  0
 15 28  1  0
 15 29  1  0
 16 30  1  0
 16 31  1  0
 17 32  1  0
 17 33  1  0
 18 34  1  0
 18 35  1  0
 19 36  1  0
 20 37  1  0
 20 38  1  0
 21 39  1  0
 21 40  1  0
M  END
$$$$
