
     RDKit          3D

 50 52  0  0  0  0  0  0  0  0999 V2000
   -5.2438    1.9319    1.5273 C   0  0  0  0  0  0  0  0  0  0  0  0
   -4.1957    0.8199    1.5850 C   0  0  0  0  0  0  0  0  0  0  0  0
   -2.8379    1.3426    1.0879 C   0  0  0  0  0  0  0  0  0  0  0  0
   -1.9394    0.2104    0.6004 C   0  0  0  0  0  0  0  0  0  0  0  0
   -2.5609   -0.5409   -0.4952 N   0  0  0  0  0  0  0  0  0  0  0  0
   -1.8671   -1.0744   -1.5791 C   0  0  0  0  0  0  0  0  0  0  0  0
   -2.4052   -1.4360   -2.6219 O   0  0  0  0  0  0  0  0  0  0  0  0
   -0.3968   -1.2161   -1.4916 C   0  0  0  0  0  0  0  0  0  0  0  0
    0.1968   -1.8928   -0.4206 C   0  0  0  0  0  0  0  0  0  0  0  0
    1.5872   -2.0138   -0.3558 C   0  0  0  0  0  0  0  0  0  0  0  0
    2.3937   -1.4537   -1.3600 C   0  0  0  0  0  0  0  0  0  0  0  0
    4.1563   -1.6864   -1.2456 S   0  0  0  0  0  6  0  0  0  0  0  0
    4.3590   -2.7637   -0.2930 O   0  0  0  0  0  0  0  0  0  0  0  0
    4.6320   -1.8610   -2.6043 O   0  0  0  0  0  0  0  0  0  0  0  0
    4.8595   -0.1851   -0.5680 C   0  0  0  0  0  0  0  0  0  0  0  0
    3.9538    0.4341    0.4611 C   0  0  0  0  0  0  0  0  0  0  0  0
    3.1715    1.5576    0.1528 C   0  0  0  0  0  0  0  0  0  0  0  0
    2.3097    2.1051    1.1069 C   0  0  0  0  0  0  0  0  0  0  0  0
    2.2268    1.5454    2.3814 C   0  0  0  0  0  0  0  0  0  0  0  0
    3.0136    0.4426    2.7055 C   0  0  0  0  0  0  0  0  0  0  0  0
    3.8694   -0.0978    1.7506 C   0  0  0  0  0  0  0  0  0  0  0  0
    4.6236   -1.1517    2.0854 F   0  0  0  0  0  0  0  0  0  0  0  0
    1.7834   -0.8302   -2.4521 C   0  0  0  0  0  0  0  0  0  0  0  0
    2.5511   -0.2048   -3.5094 N   0  0  0  0  0  4  0  0  0  0  0  0
    2.3376   -0.5802   -4.6668 O   0  0  0  0  0  0  0  0  0  0  0  0
    3.3008    0.7196   -3.1676 O   0  0  0  0  0  1  0  0  0  0  0  0
    0.3890   -0.7080   -2.5291 C   0  0  0  0  0  0  0  0  0  0  0  0
   -4.0211   -0.5238   -0.5707 C   0  0  0  0  0  0  0  0  0  0  0  0
   -4.6569   -0.4286    0.8119 C   0  0  0  0  0  0  0  0  0  0  0  0
   -5.4351    2.2455    0.4955 H   0  0  0  0  0  0  0  0  0  0  0  0
   -4.9116    2.8082    2.0939 H   0  0  0  0  0  0  0  0  0  0  0  0
   -6.1918    1.5946    1.9595 H   0  0  0  0  0  0  0  0  0  0  0  0
   -4.0890    0.5314    2.6393 H   0  0  0  0  0  0  0  0  0  0  0  0
   -2.3395    1.8954    1.8929 H   0  0  0  0  0  0  0  0  0  0  0  0
   -2.9856    2.0537    0.2643 H   0  0  0  0  0  0  0  0  0  0  0  0
   -1.7482   -0.4960    1.4161 H   0  0  0  0  0  0  0  0  0  0  0  0
   -0.9803    0.6258    0.2760 H   0  0  0  0  0  0  0  0  0  0  0  0
   -0.4195   -2.3433    0.3551 H   0  0  0  0  0  0  0  0  0  0  0  0
    2.0295   -2.5544    0.4813 H   0  0  0  0  0  0  0  0  0  0  0  0
    5.8286   -0.4447   -0.1288 H   0  0  0  0  0  0  0  0  0  0  0  0
    5.0558    0.5074   -1.3901 H   0  0  0  0  0  0  0  0  0  0  0  0
    3.2309    2.0253   -0.8294 H   0  0  0  0  0  0  0  0  0  0  0  0
    1.7111    2.9793    0.8584 H   0  0  0  0  0  0  0  0  0  0  0  0
    1.5633    1.9786    3.1261 H   0  0  0  0  0  0  0  0  0  0  0  0
    2.9733    0.0039    3.6980 H   0  0  0  0  0  0  0  0  0  0  0  0
   -0.0873   -0.2178   -3.3776 H   0  0  0  0  0  0  0  0  0  0  0  0
   -4.3689   -1.4303   -1.0790 H   0  0  0  0  0  0  0  0  0  0  0  0
   -4.3119    0.3320   -1.1918 H   0  0  0  0  0  0  0  0  0  0  0  0
   -4.3649   -1.3178    1.3867 H   0  0  0  0  0  0  0  0  0  0  0  0
   -5.7492   -0.4617    0.7280 H   0  0  0  0  0  0  0  0  0  0  0  0
  1  2  1  0
  2  3  1  0
  3  4  1  0
  4  5  1  0
  5  6  1  0
  6  7  2  0
  6  8  1  0
  8  9  2  0
  9 10  1  0
 10 11  2  0
 11 12  1  0
 12 13  2  0
 12 14  2  0
 12 15  1  0
 15 16  1  0
 16 17  2  0
 17 18  1  0
 18 19  2  0
 19 20  1  0
 20 21  2  0
 21 22  1  0
 11 23  1  0
 23 24  1  0
 24 25  2  0
 24 26  1  0
 23 27  2  0
  5 28  1  0
 28 29  1  0
 29  2  1  0
 27  8  1  0
 21 16  1  0
  1 30  1  0
  1 31  1  0
  1 32  1  0
  2 33  1  0
  3 34  1  0
  3 35  1  0
  4 36  1  0
  4 37  1  0
  9 38  1  0
 10 39  1  0
 15 40  1  0
 15 41  1  0
 17 42  1  0
 18 43  1  0
 19 44  1  0
 20 45  1  0
 27 46  1  0
 28 47  1  0
 28 48  1  0
 29 49  1  0
 29 50  1  0
M  CHG  2  24   1  26  -1
M  END
$$$$
