
     RDKit          3D

 60 63  0  0  0  0  0  0  0  0999 V2000
   -8.1614    2.5425    1.5999 C   0  0  0  0  0  0  0  0  0  0  0  0
   -7.3800    1.4269    0.9086 C   0  0  0  0  0  0  0  0  0  0  0  0
   -8.0690    1.0442   -0.3981 C   0  0  0  0  0  0  0  0  0  0  0  0
   -6.0733    1.9467    0.6401 O   0  0  0  0  0  0  0  0  0  0  0  0
   -5.0150    1.0865    0.5833 C   0  0  0  0  0  0  0  0  0  0  0  0
   -5.0723   -0.3018    0.5880 C   0  0  0  0  0  0  0  0  0  0  0  0
   -3.8919   -1.0564    0.5091 C   0  0  0  0  0  0  0  0  0  0  0  0
   -2.6176   -0.4582    0.4230 C   0  0  0  0  0  0  0  0  0  0  0  0
   -1.3931   -1.2968    0.3370 C   0  0  0  0  0  0  0  0  0  0  0  0
   -0.1354   -0.8042    0.0307 C   0  0  0  0  0  0  0  0  0  0  0  0
    0.9456   -1.6912   -0.0204 C   0  0  0  0  0  0  0  0  0  0  0  0
    2.2805   -1.1222   -0.3255 C   0  0  0  0  0  0  0  0  0  0  0  0
    3.2378   -1.3377    0.4077 O   0  0  0  0  0  0  0  0  0  0  0  0
    2.3407   -0.3452   -1.4639 N   0  0  0  0  0  0  0  0  0  0  0  0
    3.5990    0.2217   -1.9210 C   0  0  0  0  0  0  0  0  0  0  0  0
    4.0822    1.3864   -1.0324 C   0  0  0  0  0  0  0  0  0  0  0  0
    5.2719    2.0788   -1.5658 N   0  0  0  0  0  0  0  0  0  0  0  0
    5.5335    3.3333   -0.8196 C   0  0  0  0  0  0  0  0  0  0  0  0
    6.1155    3.1220    0.5901 C   0  0  0  0  0  0  0  0  0  0  0  0
    7.3148    2.3390    0.5461 O   0  0  0  0  0  0  0  0  0  0  0  0
    7.0662    1.0722   -0.0762 C   0  0  0  0  0  0  0  0  0  0  0  0
    6.5004    1.2513   -1.4966 C   0  0  0  0  0  0  0  0  0  0  0  0
    0.7740   -3.0669    0.2375 C   0  0  0  0  0  0  0  0  0  0  0  0
    1.8032   -4.0430    0.2028 C   0  0  0  0  0  0  0  0  0  0  0  0
    1.5321   -5.3858    0.4607 C   0  0  0  0  0  0  0  0  0  0  0  0
    0.2339   -5.7743    0.7549 C   0  0  0  0  0  0  0  0  0  0  0  0
   -0.7822   -4.8171    0.7865 C   0  0  0  0  0  0  0  0  0  0  0  0
   -0.5373   -3.4737    0.5321 C   0  0  0  0  0  0  0  0  0  0  0  0
   -1.5747   -2.6201    0.5742 N   0  0  0  0  0  0  0  0  0  0  0  0
   -2.5894    0.9478    0.4260 C   0  0  0  0  0  0  0  0  0  0  0  0
   -3.7680    1.7044    0.4989 C   0  0  0  0  0  0  0  0  0  0  0  0
   -8.2102    3.4385    0.9710 H   0  0  0  0  0  0  0  0  0  0  0  0
   -7.6622    2.8388    2.5289 H   0  0  0  0  0  0  0  0  0  0  0  0
   -9.1808    2.2245    1.8389 H   0  0  0  0  0  0  0  0  0  0  0  0
   -7.3449    0.5780    1.6008 H   0  0  0  0  0  0  0  0  0  0  0  0
   -8.1102    1.8985   -1.0832 H   0  0  0  0  0  0  0  0  0  0  0  0
   -9.0885    0.6904   -0.2167 H   0  0  0  0  0  0  0  0  0  0  0  0
   -7.5218    0.2540   -0.9211 H   0  0  0  0  0  0  0  0  0  0  0  0
   -6.0112   -0.8423    0.6419 H   0  0  0  0  0  0  0  0  0  0  0  0
   -3.9812   -2.1433    0.5133 H   0  0  0  0  0  0  0  0  0  0  0  0
    0.0309    0.2500   -0.1539 H   0  0  0  0  0  0  0  0  0  0  0  0
    1.5550   -0.3367   -2.1031 H   0  0  0  0  0  0  0  0  0  0  0  0
    3.4339    0.5719   -2.9453 H   0  0  0  0  0  0  0  0  0  0  0  0
    4.3348   -0.5882   -1.9489 H   0  0  0  0  0  0  0  0  0  0  0  0
    4.2405    1.0389   -0.0055 H   0  0  0  0  0  0  0  0  0  0  0  0
    3.2542    2.1069   -0.9806 H   0  0  0  0  0  0  0  0  0  0  0  0
    6.2557    3.9155   -1.4079 H   0  0  0  0  0  0  0  0  0  0  0  0
    4.6251    3.9452   -0.7650 H   0  0  0  0  0  0  0  0  0  0  0  0
    5.3936    2.6412    1.2609 H   0  0  0  0  0  0  0  0  0  0  0  0
    6.3727    4.0916    1.0285 H   0  0  0  0  0  0  0  0  0  0  0  0
    6.3972    0.4803    0.5590 H   0  0  0  0  0  0  0  0  0  0  0  0
    8.0226    0.5414   -0.1282 H   0  0  0  0  0  0  0  0  0  0  0  0
    7.2622    1.7575   -2.1048 H   0  0  0  0  0  0  0  0  0  0  0  0
    6.3511    0.2757   -1.9684 H   0  0  0  0  0  0  0  0  0  0  0  0
    2.8304   -3.7601   -0.0206 H   0  0  0  0  0  0  0  0  0  0  0  0
    2.3333   -6.1202    0.4347 H   0  0  0  0  0  0  0  0  0  0  0  0
    0.0057   -6.8169    0.9612 H   0  0  0  0  0  0  0  0  0  0  0  0
   -1.7982   -5.1298    1.0177 H   0  0  0  0  0  0  0  0  0  0  0  0
   -1.6537    1.4984    0.3821 H   0  0  0  0  0  0  0  0  0  0  0  0
   -3.7074    2.7910    0.4965 H   0  0  0  0  0  0  0  0  0  0  0  0
  1  2  1  0
  2  3  1  0
  2  4  1  0
  4  5  1  0
  5  6  2  0
  6  7  1  0
  7  8  2  0
  8  9  1  0
  9 10  2  0
 10 11  1  0
 11 12  1  0
 12 13  2  0
 12 14  1  0
 14 15  1  0
 15 16  1  0
 16 17  1  0
 17 18  1  0
 18 19  1  0
 19 20  1  0
 20 21  1  0
 21 22  1  0
 11 23  2  0
 23 24  1  0
 24 25  2  0
 25 26  1  0
 26 27  2  0
 27 28  1  0
 28 29  2  0
  8 30  1  0
 30 31  2  0
 31  5  1  0
 29  9  1  0
 22 17  1  0
 28 23  1  0
  1 32  1  0
  1 33  1  0
  1 34  1  0
  2 35  1  0
  3 36  1  0
  3 37  1  0
  3 38  1  0
  6 39  1  0
  7 40  1  0
 10 41  1  0
 14 42  1  0
 15 43  1  0
 15 44  1  0
 16 45  1  0
 16 46  1  0
 18 47  1  0
 18 48  1  0
 19 49  1  0
 19 50  1  0
 21 51  1  0
 21 52  1  0
 22 53  1  0
 22 54  1  0
 24 55  1  0
 25 56  1  0
 26 57  1  0
 27 58  1  0
 30 59  1  0
 31 60  1  0
M  END
$$$$
