
     RDKit          3D

 47 50  0  0  0  0  0  0  0  0999 V2000
   -7.1906    0.7316    0.3545 C   0  0  0  0  0  0  0  0  0  0  0  0
   -5.7011    0.9617    0.1091 C   0  0  0  0  0  0  0  0  0  0  0  0
   -5.3291    0.6419   -1.3526 C   0  0  0  0  0  0  0  0  0  0  0  0
   -3.8598    0.9865   -1.6450 C   0  0  0  0  0  0  0  0  0  0  0  0
   -2.9302    0.4704   -0.5811 C   0  0  0  0  0  0  0  0  0  0  0  0
   -3.4180    0.0885    0.6557 C   0  0  0  0  0  0  0  0  0  0  0  0
   -2.2097   -0.5114    1.6800 S   0  0  0  0  0  0  0  0  0  0  0  0
   -1.0082   -0.2965    0.5052 C   0  0  0  0  0  0  0  0  0  0  0  0
    0.3025   -0.6806    0.7366 N   0  0  0  0  0  0  0  0  0  0  0  0
    0.8548   -1.2191    1.8835 C   0  0  0  0  0  0  0  0  0  0  0  0
    0.2810   -1.4149    2.9488 O   0  0  0  0  0  0  0  0  0  0  0  0
    2.2632   -1.5402    1.7110 C   0  0  0  0  0  0  0  0  0  0  0  0
    3.1899   -2.0718    2.5872 C   0  0  0  0  0  0  0  0  0  0  0  0
    4.4119   -2.1725    1.8809 C   0  0  0  0  0  0  0  0  0  0  0  0
    4.1677   -1.6964    0.6095 C   0  0  0  0  0  0  0  0  0  0  0  0
    5.0094   -1.5436   -0.6027 C   0  0  0  0  0  0  0  0  0  0  0  0
    6.0259   -0.5217   -0.3934 N   0  0  0  0  0  0  0  0  0  0  0  0
    5.8673    0.8309   -0.5425 C   0  0  0  0  0  0  0  0  0  0  0  0
    7.0916    1.3722   -0.2571 C   0  0  0  0  0  0  0  0  0  0  0  0
    7.5866    3.1701   -0.2545 Br  0  0  0  0  0  0  0  0  0  0  0  0
    7.9321    0.2919    0.0377 C   0  0  0  0  0  0  0  0  0  0  0  0
    7.2885   -0.8779   -0.0517 N   0  0  0  0  0  0  0  0  0  0  0  0
    2.8642   -1.3098    0.4991 O   0  0  0  0  0  0  0  0  0  0  0  0
   -1.4922    0.2865   -0.6635 C   0  0  0  0  0  0  0  0  0  0  0  0
   -0.5924    0.6044   -1.7756 C   0  0  0  0  0  0  0  0  0  0  0  0
   -0.9984    1.5820   -2.6380 N   0  0  0  0  0  0  0  0  0  0  0  0
    0.5152    0.0901   -1.9142 O   0  0  0  0  0  0  0  0  0  0  0  0
   -4.8550    0.1170    1.0841 C   0  0  0  0  0  0  0  0  0  0  0  0
   -7.7946    1.3606   -0.3076 H   0  0  0  0  0  0  0  0  0  0  0  0
   -7.4674   -0.3125    0.1738 H   0  0  0  0  0  0  0  0  0  0  0  0
   -7.4563    0.9795    1.3877 H   0  0  0  0  0  0  0  0  0  0  0  0
   -5.4874    2.0240    0.2913 H   0  0  0  0  0  0  0  0  0  0  0  0
   -5.9715    1.2018   -2.0427 H   0  0  0  0  0  0  0  0  0  0  0  0
   -5.5015   -0.4246   -1.5499 H   0  0  0  0  0  0  0  0  0  0  0  0
   -3.7602    2.0774   -1.6990 H   0  0  0  0  0  0  0  0  0  0  0  0
   -3.5883    0.5737   -2.6230 H   0  0  0  0  0  0  0  0  0  0  0  0
    0.9371   -0.5752   -0.0562 H   0  0  0  0  0  0  0  0  0  0  0  0
    2.9914   -2.3505    3.6142 H   0  0  0  0  0  0  0  0  0  0  0  0
    5.3597   -2.5422    2.2494 H   0  0  0  0  0  0  0  0  0  0  0  0
    5.5176   -2.4821   -0.8485 H   0  0  0  0  0  0  0  0  0  0  0  0
    4.4165   -1.2396   -1.4723 H   0  0  0  0  0  0  0  0  0  0  0  0
    4.9189    1.2691   -0.8208 H   0  0  0  0  0  0  0  0  0  0  0  0
    8.9793    0.2958    0.3108 H   0  0  0  0  0  0  0  0  0  0  0  0
   -0.2915    1.9064   -3.2844 H   0  0  0  0  0  0  0  0  0  0  0  0
   -1.6885    2.2566   -2.3438 H   0  0  0  0  0  0  0  0  0  0  0  0
   -5.2317   -0.9141    1.1105 H   0  0  0  0  0  0  0  0  0  0  0  0
   -4.9486    0.5270    2.0973 H   0  0  0  0  0  0  0  0  0  0  0  0
  1  2  1  0
  2  3  1  0
  3  4  1  0
  4  5  1  0
  5  6  2  0
  6  7  1  0
  7  8  1  0
  8  9  1  0
  9 10  1  0
 10 11  2  0
 10 12  1  0
 12 13  2  0
 13 14  1  0
 14 15  2  0
 15 16  1  0
 16 17  1  0
 17 18  1  0
 18 19  2  0
 19 20  1  0
 19 21  1  0
 21 22  2  0
 15 23  1  0
  8 24  2  0
 24 25  1  0
 25 26  1  0
 25 27  2  0
  6 28  1  0
 28  2  1  0
 24  5  1  0
 23 12  1  0
 22 17  1  0
  1 29  1  0
  1 30  1  0
  1 31  1  0
  2 32  1  0
  3 33  1  0
  3 34  1  0
  4 35  1  0
  4 36  1  0
  9 37  1  0
 13 38  1  0
 14 39  1  0
 16 40  1  0
 16 41  1  0
 18 42  1  0
 21 43  1  0
 26 44  1  0
 26 45  1  0
 28 46  1  0
 28 47  1  0
M  END
$$$$
