
     RDKit          3D

 42 43  0  0  0  0  0  0  0  0999 V2000
   -7.7514    3.6674   -0.3346 C   0  0  0  0  0  0  0  0  0  0  0  0
   -6.4984    2.8668   -0.1382 C   0  0  0  0  0  0  0  0  0  0  0  0
   -6.2820    2.1666    1.0539 C   0  0  0  0  0  0  0  0  0  0  0  0
   -5.1284    1.3933    1.2299 C   0  0  0  0  0  0  0  0  0  0  0  0
   -4.1843    1.3013    0.2076 C   0  0  0  0  0  0  0  0  0  0  0  0
   -3.0230    0.5809    0.2451 O   0  0  0  0  0  0  0  0  0  0  0  0
   -2.7641   -0.1660    1.4299 C   0  0  0  0  0  0  0  0  0  0  0  0
   -1.4595   -0.9454    1.2990 C   0  0  0  0  0  0  0  0  0  0  0  0
   -0.8935   -1.4656    2.2603 O   0  0  0  0  0  0  0  0  0  0  0  0
   -0.9861   -1.0572    0.0053 N   0  0  0  0  0  0  0  0  0  0  0  0
    0.3296   -1.5342   -0.1615 N   0  0  0  0  0  0  0  0  0  0  0  0
    1.1418   -0.8251   -1.0321 C   0  0  0  0  0  0  0  0  0  0  0  0
    0.7030    0.0371   -1.7937 O   0  0  0  0  0  0  0  0  0  0  0  0
    2.5951   -1.2499   -1.0214 C   0  0  0  0  0  0  0  0  0  0  0  0
    3.3260   -0.9344    0.6119 S   0  0  0  0  0  0  0  0  0  0  0  0
    5.0000   -1.4212    0.2931 C   0  0  0  0  0  0  0  0  0  0  0  0
    5.2897   -2.0537   -0.8550 N   0  0  0  0  0  0  0  0  0  0  0  0
    6.5806   -2.4015   -1.0330 C   0  0  0  0  0  0  0  0  0  0  0  0
    7.5726   -2.1528   -0.1112 C   0  0  0  0  0  0  0  0  0  0  0  0
    8.9162   -2.5475   -0.3639 C   0  0  0  0  0  0  0  0  0  0  0  0
    9.9989   -2.9036   -0.5831 N   0  0  0  0  0  0  0  0  0  0  0  0
    7.1695   -1.5141    1.0463 C   0  0  0  0  0  0  0  0  0  0  0  0
    8.0579   -1.1560    2.0591 N   0  0  0  0  0  0  0  0  0  0  0  0
    5.8960   -1.1412    1.2544 N   0  0  0  0  0  0  0  0  0  0  0  0
   -4.4039    1.9896   -0.9871 C   0  0  0  0  0  0  0  0  0  0  0  0
   -5.5545    2.7619   -1.1640 C   0  0  0  0  0  0  0  0  0  0  0  0
   -8.5453    3.0270   -0.7320 H   0  0  0  0  0  0  0  0  0  0  0  0
   -8.0874    4.1036    0.6119 H   0  0  0  0  0  0  0  0  0  0  0  0
   -7.5829    4.4949   -1.0322 H   0  0  0  0  0  0  0  0  0  0  0  0
   -7.0122    2.2198    1.8585 H   0  0  0  0  0  0  0  0  0  0  0  0
   -5.0038    0.8801    2.1781 H   0  0  0  0  0  0  0  0  0  0  0  0
   -3.5597   -0.8986    1.6066 H   0  0  0  0  0  0  0  0  0  0  0  0
   -2.6522    0.5131    2.2833 H   0  0  0  0  0  0  0  0  0  0  0  0
   -1.2983   -0.3628   -0.6791 H   0  0  0  0  0  0  0  0  0  0  0  0
    0.7481   -1.9334    0.6814 H   0  0  0  0  0  0  0  0  0  0  0  0
    2.6468   -2.3140   -1.2739 H   0  0  0  0  0  0  0  0  0  0  0  0
    3.1251   -0.6750   -1.7882 H   0  0  0  0  0  0  0  0  0  0  0  0
    6.7924   -2.9029   -1.9755 H   0  0  0  0  0  0  0  0  0  0  0  0
    8.6366   -1.9211    2.3917 H   0  0  0  0  0  0  0  0  0  0  0  0
    7.5254   -0.7302    2.8166 H   0  0  0  0  0  0  0  0  0  0  0  0
   -3.6760    1.9221   -1.7923 H   0  0  0  0  0  0  0  0  0  0  0  0
   -5.7047    3.2821   -2.1072 H   0  0  0  0  0  0  0  0  0  0  0  0
  1  2  1  0
  2  3  2  0
  3  4  1  0
  4  5  2  0
  5  6  1  0
  6  7  1  0
  7  8  1  0
  8  9  2  0
  8 10  1  0
 10 11  1  0
 11 12  1  0
 12 13  2  0
 12 14  1  0
 14 15  1  0
 15 16  1  0
 16 17  2  0
 17 18  1  0
 18 19  2  0
 19 20  1  0
 20 21  3  0
 19 22  1  0
 22 23  1  0
 22 24  2  0
  5 25  1  0
 25 26  2  0
 26  2  1  0
 24 16  1  0
  1 27  1  0
  1 28  1  0
  1 29  1  0
  3 30  1  0
  4 31  1  0
  7 32  1  0
  7 33  1  0
 10 34  1  0
 11 35  1  0
 14 36  1  0
 14 37  1  0
 18 38  1  0
 23 39  1  0
 23 40  1  0
 25 41  1  0
 26 42  1  0
M  END
$$$$
