
     RDKit          3D

 42 44  0  0  0  0  0  0  0  0999 V2000
    1.8777    3.1036    1.6604 C   0  0  0  0  0  0  0  0  0  0  0  0
    2.2336    1.7563    1.3768 O   0  0  0  0  0  0  0  0  0  0  0  0
    1.2303    0.9069    0.9953 C   0  0  0  0  0  0  0  0  0  0  0  0
   -0.1262    1.2369    0.9605 C   0  0  0  0  0  0  0  0  0  0  0  0
   -1.1015    0.3143    0.5398 C   0  0  0  0  0  0  0  0  0  0  0  0
   -2.4343    0.7727    0.5506 N   0  0  0  0  0  0  0  0  0  0  0  0
   -3.2525    0.1594    1.6107 C   0  0  0  0  0  0  0  0  0  0  0  0
   -4.6687    0.2080    1.0507 C   0  0  0  0  0  0  0  0  0  0  0  0
   -4.4427   -0.0840   -0.4211 C   0  0  0  0  0  0  0  0  0  0  0  0
   -3.1560    0.6772   -0.7322 C   0  0  0  0  0  0  0  0  0  0  0  0
   -0.6903   -0.9795    0.1497 C   0  0  0  0  0  0  0  0  0  0  0  0
   -1.6756   -1.8537   -0.2406 O   0  0  0  0  0  0  0  0  0  0  0  0
   -1.2686   -3.0605   -0.8715 C   0  0  0  0  0  0  0  0  0  0  0  0
    0.6683   -1.3147    0.2011 C   0  0  0  0  0  0  0  0  0  0  0  0
    1.6344   -0.3835    0.6232 C   0  0  0  0  0  0  0  0  0  0  0  0
    3.0942   -0.7778    0.6289 C   0  0  0  0  0  0  0  0  0  0  0  0
    3.8183   -0.2765   -0.5710 C   0  0  0  0  0  0  0  0  0  0  0  0
    4.7011    0.6742   -0.6380 N   0  0  0  0  0  0  0  0  0  0  0  0
    5.0483    0.7752   -1.9696 C   0  0  0  0  0  0  0  0  0  0  0  0
    6.1535    1.8183   -2.6436 S   0  0  0  0  0  0  0  0  0  0  0  0
    4.3633   -0.1197   -2.7264 N   0  0  0  0  0  0  0  0  0  0  0  0
    3.5812   -0.8731   -1.9340 C   0  0  0  0  0  0  0  0  0  0  0  0
    2.8908   -1.8320   -2.1861 O   0  0  0  0  0  0  0  0  0  0  0  0
    2.7969    3.6488    1.8955 H   0  0  0  0  0  0  0  0  0  0  0  0
    1.2238    3.1613    2.5366 H   0  0  0  0  0  0  0  0  0  0  0  0
    1.4194    3.5844    0.7899 H   0  0  0  0  0  0  0  0  0  0  0  0
   -0.4754    2.2221    1.2538 H   0  0  0  0  0  0  0  0  0  0  0  0
   -3.1738    0.7290    2.5425 H   0  0  0  0  0  0  0  0  0  0  0  0
   -2.9735   -0.8811    1.8168 H   0  0  0  0  0  0  0  0  0  0  0  0
   -5.0944    1.2108    1.1762 H   0  0  0  0  0  0  0  0  0  0  0  0
   -5.3352   -0.5137    1.5306 H   0  0  0  0  0  0  0  0  0  0  0  0
   -5.2783    0.2352   -1.0503 H   0  0  0  0  0  0  0  0  0  0  0  0
   -4.2951   -1.1595   -0.5729 H   0  0  0  0  0  0  0  0  0  0  0  0
   -3.3996    1.6963   -1.0553 H   0  0  0  0  0  0  0  0  0  0  0  0
   -2.5936    0.2060   -1.5459 H   0  0  0  0  0  0  0  0  0  0  0  0
   -0.7762   -3.7283   -0.1576 H   0  0  0  0  0  0  0  0  0  0  0  0
   -2.1690   -3.5675   -1.2317 H   0  0  0  0  0  0  0  0  0  0  0  0
   -0.6296   -2.8633   -1.7388 H   0  0  0  0  0  0  0  0  0  0  0  0
    1.0054   -2.3062   -0.0872 H   0  0  0  0  0  0  0  0  0  0  0  0
    3.1967   -1.8690    0.6654 H   0  0  0  0  0  0  0  0  0  0  0  0
    3.5843   -0.4006    1.5340 H   0  0  0  0  0  0  0  0  0  0  0  0
    4.4886   -0.2527   -3.7154 H   0  0  0  0  0  0  0  0  0  0  0  0
  1  2  1  0
  2  3  1  0
  3  4  2  0
  4  5  1  0
  5  6  1  0
  6  7  1  0
  7  8  1  0
  8  9  1  0
  9 10  1  0
  5 11  2  0
 11 12  1  0
 12 13  1  0
 11 14  1  0
 14 15  2  0
 15 16  1  0
 16 17  1  0
 17 18  2  0
 18 19  1  0
 19 20  2  0
 19 21  1  0
 21 22  1  0
 22 23  2  0
 15  3  1  0
 22 17  1  0
 10  6  1  0
  1 24  1  0
  1 25  1  0
  1 26  1  0
  4 27  1  0
  7 28  1  0
  7 29  1  0
  8 30  1  0
  8 31  1  0
  9 32  1  0
  9 33  1  0
 10 34  1  0
 10 35  1  0
 13 36  1  0
 13 37  1  0
 13 38  1  0
 14 39  1  0
 16 40  1  0
 16 41  1  0
 21 42  1  0
M  END
$$$$
