
     RDKit          3D

 37 38  0  0  0  0  0  0  0  0999 V2000
    6.9614   -1.3275   -0.7078 C   0  0  0  0  0  0  0  0  0  0  0  0
    5.9319   -2.0258   -0.0184 O   0  0  0  0  0  0  0  0  0  0  0  0
    4.7774   -1.3403    0.2341 C   0  0  0  0  0  0  0  0  0  0  0  0
    3.7883   -2.0826    0.8821 C   0  0  0  0  0  0  0  0  0  0  0  0
    2.5545   -1.5065    1.1952 C   0  0  0  0  0  0  0  0  0  0  0  0
    2.2941   -0.1721    0.8630 C   0  0  0  0  0  0  0  0  0  0  0  0
    0.9617    0.4019    1.2191 C   0  0  0  0  0  0  0  0  0  0  0  0
    0.1930   -0.2427    1.9309 O   0  0  0  0  0  0  0  0  0  0  0  0
    0.5997    1.7774    0.7227 C   0  0  0  0  0  0  0  0  0  0  0  0
   -0.8691    2.0585    0.8560 C   0  0  0  0  0  0  0  0  0  0  0  0
   -1.3442    2.9636    1.5367 O   0  0  0  0  0  0  0  0  0  0  0  0
   -1.8053    1.1703    0.0371 C   0  0  0  0  0  0  0  0  0  0  0  0
   -1.3413    0.5500   -0.9071 O   0  0  0  0  0  0  0  0  0  0  0  0
   -3.1058    1.2329    0.4896 N   0  0  0  0  0  0  0  0  0  0  0  0
   -4.2315    0.5760   -0.0349 C   0  0  0  0  0  0  0  0  0  0  0  0
   -4.1843   -0.2892   -1.1312 C   0  0  0  0  0  0  0  0  0  0  0  0
   -5.3527   -0.8972   -1.6060 C   0  0  0  0  0  0  0  0  0  0  0  0
   -6.5705   -0.6455   -0.9814 C   0  0  0  0  0  0  0  0  0  0  0  0
   -8.0071   -1.3860   -1.5720 Cl  0  0  0  0  0  0  0  0  0  0  0  0
   -6.6305    0.2088    0.1165 C   0  0  0  0  0  0  0  0  0  0  0  0
   -5.4631    0.8186    0.5871 C   0  0  0  0  0  0  0  0  0  0  0  0
    3.2882    0.5770    0.2216 C   0  0  0  0  0  0  0  0  0  0  0  0
    4.5236   -0.0072   -0.0928 C   0  0  0  0  0  0  0  0  0  0  0  0
    7.7997   -2.0175   -0.8449 H   0  0  0  0  0  0  0  0  0  0  0  0
    6.6270   -1.0069   -1.7001 H   0  0  0  0  0  0  0  0  0  0  0  0
    7.3222   -0.4768   -0.1194 H   0  0  0  0  0  0  0  0  0  0  0  0
    3.9771   -3.1215    1.1439 H   0  0  0  0  0  0  0  0  0  0  0  0
    1.7992   -2.1097    1.6954 H   0  0  0  0  0  0  0  0  0  0  0  0
    1.1489    2.5180    1.3147 H   0  0  0  0  0  0  0  0  0  0  0  0
    0.8655    1.8994   -0.3322 H   0  0  0  0  0  0  0  0  0  0  0  0
   -3.2488    1.8568    1.2801 H   0  0  0  0  0  0  0  0  0  0  0  0
   -3.2535   -0.5117   -1.6434 H   0  0  0  0  0  0  0  0  0  0  0  0
   -5.2989   -1.5643   -2.4628 H   0  0  0  0  0  0  0  0  0  0  0  0
   -7.5786    0.4079    0.6083 H   0  0  0  0  0  0  0  0  0  0  0  0
   -5.5335    1.4862    1.4426 H   0  0  0  0  0  0  0  0  0  0  0  0
    3.1388    1.6201   -0.0424 H   0  0  0  0  0  0  0  0  0  0  0  0
    5.2665    0.6072   -0.5912 H   0  0  0  0  0  0  0  0  0  0  0  0
  1  2  1  0
  2  3  1  0
  3  4  2  0
  4  5  1  0
  5  6  2  0
  6  7  1  0
  7  8  2  0
  7  9  1  0
  9 10  1  0
 10 11  2  0
 10 12  1  0
 12 13  2  0
 12 14  1  0
 14 15  1  0
 15 16  2  0
 16 17  1  0
 17 18  2  0
 18 19  1  0
 18 20  1  0
 20 21  2  0
  6 22  1  0
 22 23  2  0
 23  3  1  0
 21 15  1  0
  1 24  1  0
  1 25  1  0
  1 26  1  0
  4 27  1  0
  5 28  1  0
  9 29  1  0
  9 30  1  0
 14 31  1  0
 16 32  1  0
 17 33  1  0
 20 34  1  0
 21 35  1  0
 22 36  1  0
 23 37  1  0
M  END
$$$$
