
     RDKit          3D

 61 65  0  0  0  0  0  0  0  0999 V2000
   -9.1851   -2.8802    0.3223 C   0  0  0  0  0  0  0  0  0  0  0  0
   -9.0637   -1.5982   -0.2809 O   0  0  0  0  0  0  0  0  0  0  0  0
   -7.8114   -1.0519   -0.3271 C   0  0  0  0  0  0  0  0  0  0  0  0
   -7.7489    0.2193   -0.9007 C   0  0  0  0  0  0  0  0  0  0  0  0
   -6.5312    0.8988   -1.0125 C   0  0  0  0  0  0  0  0  0  0  0  0
   -5.3507    0.3027   -0.5593 C   0  0  0  0  0  0  0  0  0  0  0  0
   -4.0937    0.9818   -0.6701 N   0  0  0  0  0  0  0  0  0  0  0  0
   -3.8867    2.3582   -0.5873 C   0  0  0  0  0  0  0  0  0  0  0  0
   -4.8824    3.2341   -0.4639 O   0  0  0  0  0  0  0  0  0  0  0  0
   -2.5285    2.5869   -0.5774 C   0  0  0  0  0  0  0  0  0  0  0  0
   -1.8647    1.3467   -0.7111 C   0  0  0  0  0  0  0  0  0  0  0  0
   -0.5033    1.2038   -0.7699 N   0  0  0  0  0  0  0  0  0  0  0  0
    0.1131   -0.0969   -1.1333 C   0  0  0  0  0  0  0  0  0  0  0  0
    0.3266   -0.9869    0.1151 C   0  0  0  0  0  0  0  0  0  0  0  0
    1.1538   -0.2776    1.1369 N   0  0  0  0  0  0  0  0  0  0  0  0
    2.5336   -0.4682    1.0766 C   0  0  0  0  0  0  0  0  0  0  0  0
    3.4643    0.5810    1.1196 C   0  0  0  0  0  0  0  0  0  0  0  0
    4.8474    0.3502    1.0687 C   0  0  0  0  0  0  0  0  0  0  0  0
    5.3360   -0.9530    0.9767 C   0  0  0  0  0  0  0  0  0  0  0  0
    6.7899   -1.2454    0.9343 C   0  0  0  0  0  0  0  0  0  0  0  0
    7.2199   -2.2440    1.5048 O   0  0  0  0  0  0  0  0  0  0  0  0
    7.7364   -0.3664    0.2164 C   0  0  0  0  0  0  0  0  0  0  0  0
    7.4007    0.3197   -0.9526 C   0  0  0  0  0  0  0  0  0  0  0  0
    8.3600    1.1183   -1.5725 C   0  0  0  0  0  0  0  0  0  0  0  0
    9.6227    1.1948   -1.0050 C   0  0  0  0  0  0  0  0  0  0  0  0
    9.9826    0.5315    0.1151 N   0  0  0  0  0  0  0  0  0  0  0  0
    9.0348   -0.2467    0.6948 C   0  0  0  0  0  0  0  0  0  0  0  0
    4.4382   -2.0181    0.9811 C   0  0  0  0  0  0  0  0  0  0  0  0
    3.0608   -1.7714    1.0299 C   0  0  0  0  0  0  0  0  0  0  0  0
    0.5740    1.0448    1.4820 C   0  0  0  0  0  0  0  0  0  0  0  0
    0.3324    1.9218    0.2270 C   0  0  0  0  0  0  0  0  0  0  0  0
   -2.8419    0.3749   -0.8563 C   0  0  0  0  0  0  0  0  0  0  0  0
   -2.7007   -0.9241   -1.1493 O   0  0  0  0  0  0  0  0  0  0  0  0
   -5.4157   -0.9697    0.0285 C   0  0  0  0  0  0  0  0  0  0  0  0
   -6.6394   -1.6429    0.1411 C   0  0  0  0  0  0  0  0  0  0  0  0
   -8.6178   -3.6332   -0.2344 H   0  0  0  0  0  0  0  0  0  0  0  0
   -8.8811   -2.8524    1.3739 H   0  0  0  0  0  0  0  0  0  0  0  0
  -10.2407   -3.1668    0.2889 H   0  0  0  0  0  0  0  0  0  0  0  0
   -8.6589    0.6893   -1.2667 H   0  0  0  0  0  0  0  0  0  0  0  0
   -6.5327    1.8765   -1.4867 H   0  0  0  0  0  0  0  0  0  0  0  0
   -4.4860    4.1198   -0.3830 H   0  0  0  0  0  0  0  0  0  0  0  0
   -2.0634    3.5595   -0.5031 H   0  0  0  0  0  0  0  0  0  0  0  0
    1.0896    0.1117   -1.5906 H   0  0  0  0  0  0  0  0  0  0  0  0
   -0.4569   -0.6216   -1.9062 H   0  0  0  0  0  0  0  0  0  0  0  0
    0.7614   -1.9417   -0.1966 H   0  0  0  0  0  0  0  0  0  0  0  0
   -0.6385   -1.2255    0.5771 H   0  0  0  0  0  0  0  0  0  0  0  0
    3.1408    1.6145    1.1888 H   0  0  0  0  0  0  0  0  0  0  0  0
    5.5212    1.2012    1.1249 H   0  0  0  0  0  0  0  0  0  0  0  0
    6.4146    0.2283   -1.3989 H   0  0  0  0  0  0  0  0  0  0  0  0
    8.1319    1.6620   -2.4829 H   0  0  0  0  0  0  0  0  0  0  0  0
   10.4033    1.8040   -1.4528 H   0  0  0  0  0  0  0  0  0  0  0  0
    9.3603   -0.7814    1.5842 H   0  0  0  0  0  0  0  0  0  0  0  0
    4.8003   -3.0438    0.9600 H   0  0  0  0  0  0  0  0  0  0  0  0
    2.3939   -2.6298    1.0735 H   0  0  0  0  0  0  0  0  0  0  0  0
   -0.3903    0.8639    1.9749 H   0  0  0  0  0  0  0  0  0  0  0  0
    1.1853    1.5769    2.2195 H   0  0  0  0  0  0  0  0  0  0  0  0
    1.2892    2.1694   -0.2477 H   0  0  0  0  0  0  0  0  0  0  0  0
   -0.1136    2.8750    0.5306 H   0  0  0  0  0  0  0  0  0  0  0  0
   -3.5166   -1.2226   -1.5907 H   0  0  0  0  0  0  0  0  0  0  0  0
   -4.5332   -1.4408    0.4576 H   0  0  0  0  0  0  0  0  0  0  0  0
   -6.6413   -2.6201    0.6126 H   0  0  0  0  0  0  0  0  0  0  0  0
  1  2  1  0
  2  3  1  0
  3  4  2  0
  4  5  1  0
  5  6  2  0
  6  7  1  0
  7  8  1  0
  8  9  1  0
  8 10  2  0
 10 11  1  0
 11 12  1  0
 12 13  1  0
 13 14  1  0
 14 15  1  0
 15 16  1  0
 16 17  2  0
 17 18  1  0
 18 19  2  0
 19 20  1  0
 20 21  2  0
 20 22  1  0
 22 23  2  0
 23 24  1  0
 24 25  2  0
 25 26  1  0
 26 27  2  0
 19 28  1  0
 28 29  2  0
 15 30  1  0
 30 31  1  0
 11 32  2  0
 32 33  1  0
  6 34  1  0
 34 35  2  0
 35  3  1  0
 32  7  1  0
 31 12  1  0
 29 16  1  0
 27 22  1  0
  1 36  1  0
  1 37  1  0
  1 38  1  0
  4 39  1  0
  5 40  1  0
  9 41  1  0
 10 42  1  0
 13 43  1  0
 13 44  1  0
 14 45  1  0
 14 46  1  0
 17 47  1  0
 18 48  1  0
 23 49  1  0
 24 50  1  0
 25 51  1  0
 27 52  1  0
 28 53  1  0
 29 54  1  0
 30 55  1  0
 30 56  1  0
 31 57  1  0
 31 58  1  0
 33 59  1  0
 34 60  1  0
 35 61  1  0
M  END
$$$$
