
     RDKit          3D

 54 59  0  0  0  0  0  0  0  0999 V2000
    5.2716    1.0682   -1.5917 C   0  0  0  0  0  0  0  0  0  0  0  0
    5.8379   -0.0393   -0.7459 C   0  0  0  0  0  0  0  0  0  0  0  0
    7.1443   -0.4946   -0.9800 C   0  0  0  0  0  0  0  0  0  0  0  0
    7.6859   -1.5191   -0.2064 C   0  0  0  0  0  0  0  0  0  0  0  0
    6.9273   -2.0965    0.8071 C   0  0  0  0  0  0  0  0  0  0  0  0
    5.6250   -1.6519    1.0508 C   0  0  0  0  0  0  0  0  0  0  0  0
    5.0720   -0.6243    0.2797 C   0  0  0  0  0  0  0  0  0  0  0  0
    3.8096   -0.1153    0.4360 O   0  0  0  0  0  0  0  0  0  0  0  0
    2.9849   -0.6860    1.4564 C   0  0  0  0  0  0  0  0  0  0  0  0
    1.6388   -0.0327    1.4851 C   0  0  0  0  0  0  0  0  0  0  0  0
    0.5642   -0.5321    0.7801 N   0  0  0  0  0  0  0  0  0  0  0  0
   -0.4084    0.3141    1.0484 C   0  0  0  0  0  0  0  0  0  0  0  0
   -1.7810    0.4285    0.6466 C   0  0  0  0  0  0  0  0  0  0  0  0
   -2.4427    1.5265    1.1267 C   0  0  0  0  0  0  0  0  0  0  0  0
   -1.8948    2.4828    1.9805 N   0  0  0  0  0  0  0  0  0  0  0  0
   -0.6561    2.3435    2.3411 C   0  0  0  0  0  0  0  0  0  0  0  0
    0.0818    1.2771    1.8820 N   0  0  0  0  0  0  0  0  0  0  0  0
    1.3715    1.0696    2.2048 N   0  0  0  0  0  0  0  0  0  0  0  0
   -3.8503    1.7790    0.7071 C   0  0  0  0  0  0  0  0  0  0  0  0
   -4.4448    3.0413    0.8707 C   0  0  0  0  0  0  0  0  0  0  0  0
   -5.7686    3.2709    0.4883 C   0  0  0  0  0  0  0  0  0  0  0  0
   -6.5229    2.2375   -0.0573 C   0  0  0  0  0  0  0  0  0  0  0  0
   -5.9531    0.9773   -0.2223 C   0  0  0  0  0  0  0  0  0  0  0  0
   -4.6186    0.7489    0.1473 C   0  0  0  0  0  0  0  0  0  0  0  0
   -4.0146   -0.6186    0.0063 C   0  0  0  0  0  0  0  0  0  0  0  0
   -2.4900   -0.5692   -0.2970 C   0  0  0  0  0  0  0  0  0  0  0  0
   -1.9584   -2.0239   -0.2671 C   0  0  0  0  0  0  0  0  0  0  0  0
   -2.4079   -2.6372   -1.5922 C   0  0  0  0  0  0  0  0  0  0  0  0
   -2.4946   -1.4737   -2.5779 C   0  0  0  0  0  0  0  0  0  0  0  0
   -2.2150   -0.2034   -1.7730 C   0  0  0  0  0  0  0  0  0  0  0  0
    4.3751    0.7236   -2.1174 H   0  0  0  0  0  0  0  0  0  0  0  0
    5.9897    1.4044   -2.3472 H   0  0  0  0  0  0  0  0  0  0  0  0
    5.0189    1.9309   -0.9668 H   0  0  0  0  0  0  0  0  0  0  0  0
    7.7476   -0.0513   -1.7691 H   0  0  0  0  0  0  0  0  0  0  0  0
    8.6986   -1.8655   -0.3948 H   0  0  0  0  0  0  0  0  0  0  0  0
    7.3494   -2.8956    1.4111 H   0  0  0  0  0  0  0  0  0  0  0  0
    5.0738   -2.1323    1.8517 H   0  0  0  0  0  0  0  0  0  0  0  0
    2.8422   -1.7564    1.2629 H   0  0  0  0  0  0  0  0  0  0  0  0
    3.4600   -0.5552    2.4367 H   0  0  0  0  0  0  0  0  0  0  0  0
   -0.1726    3.0690    3.0133 H   0  0  0  0  0  0  0  0  0  0  0  0
   -3.8764    3.8634    1.3010 H   0  0  0  0  0  0  0  0  0  0  0  0
   -6.2079    4.2557    0.6233 H   0  0  0  0  0  0  0  0  0  0  0  0
   -7.5552    2.4118   -0.3490 H   0  0  0  0  0  0  0  0  0  0  0  0
   -6.5543    0.1729   -0.6398 H   0  0  0  0  0  0  0  0  0  0  0  0
   -4.5534   -1.1702   -0.7730 H   0  0  0  0  0  0  0  0  0  0  0  0
   -4.1908   -1.1535    0.9500 H   0  0  0  0  0  0  0  0  0  0  0  0
   -0.8674   -2.0723   -0.2466 H   0  0  0  0  0  0  0  0  0  0  0  0
   -2.3239   -2.5971    0.5915 H   0  0  0  0  0  0  0  0  0  0  0  0
   -3.3882   -3.1150   -1.4840 H   0  0  0  0  0  0  0  0  0  0  0  0
   -1.7093   -3.4077   -1.9342 H   0  0  0  0  0  0  0  0  0  0  0  0
   -3.4924   -1.4361   -3.0291 H   0  0  0  0  0  0  0  0  0  0  0  0
   -1.7732   -1.5839   -3.3943 H   0  0  0  0  0  0  0  0  0  0  0  0
   -2.8206    0.6355   -2.1321 H   0  0  0  0  0  0  0  0  0  0  0  0
   -1.1627    0.0776   -1.9129 H   0  0  0  0  0  0  0  0  0  0  0  0
  1  2  1  0
  2  3  2  0
  3  4  1  0
  4  5  2  0
  5  6  1  0
  6  7  2  0
  7  8  1  0
  8  9  1  0
  9 10  1  0
 10 11  1  0
 11 12  2  0
 12 13  1  0
 13 14  2  0
 14 15  1  0
 15 16  2  0
 16 17  1  0
 17 18  1  0
 14 19  1  0
 19 20  2  0
 20 21  1  0
 21 22  2  0
 22 23  1  0
 23 24  2  0
 24 25  1  0
 25 26  1  0
 26 27  1  0
 27 28  1  0
 28 29  1  0
 29 30  1  0
  7  2  1  0
 18 10  2  0
 24 19  1  0
 30 26  1  0
 17 12  1  0
 26 13  1  0
  1 31  1  0
  1 32  1  0
  1 33  1  0
  3 34  1  0
  4 35  1  0
  5 36  1  0
  6 37  1  0
  9 38  1  0
  9 39  1  0
 16 40  1  0
 20 41  1  0
 21 42  1  0
 22 43  1  0
 23 44  1  0
 25 45  1  0
 25 46  1  0
 27 47  1  0
 27 48  1  0
 28 49  1  0
 28 50  1  0
 29 51  1  0
 29 52  1  0
 30 53  1  0
 30 54  1  0
M  END
$$$$
