
     RDKit          3D

 49 51  0  0  0  0  0  0  0  0999 V2000
   -8.1749    3.9395    3.6137 C   0  0  0  0  0  0  0  0  0  0  0  0
   -8.2458    2.8975    2.6492 O   0  0  0  0  0  0  0  0  0  0  0  0
   -7.0714    2.2884    2.3072 C   0  0  0  0  0  0  0  0  0  0  0  0
   -5.8010    2.6418    2.7555 C   0  0  0  0  0  0  0  0  0  0  0  0
   -4.6773    1.9286    2.3171 C   0  0  0  0  0  0  0  0  0  0  0  0
   -4.8071    0.8527    1.4295 C   0  0  0  0  0  0  0  0  0  0  0  0
   -3.6224    0.1956    1.0350 N   0  0  0  0  0  0  0  0  0  0  0  0
   -3.5144   -0.9174    0.2197 C   0  0  0  0  0  0  0  0  0  0  0  0
   -4.4274   -1.5697   -0.2696 O   0  0  0  0  0  0  0  0  0  0  0  0
   -2.1030   -1.3293   -0.0238 C   0  0  0  0  0  0  0  0  0  0  0  0
   -1.7495   -2.6660    0.3058 C   0  0  0  0  0  0  0  0  0  0  0  0
   -1.4315   -3.7464    0.5882 N   0  0  0  0  0  0  0  0  0  0  0  0
   -1.2690   -0.4290   -0.5805 C   0  0  0  0  0  0  0  0  0  0  0  0
    0.1431   -0.6530   -0.9150 C   0  0  0  0  0  0  0  0  0  0  0  0
    0.5424   -1.6728   -1.7833 C   0  0  0  0  0  0  0  0  0  0  0  0
    1.8942   -1.8400   -2.0964 C   0  0  0  0  0  0  0  0  0  0  0  0
    2.8634   -0.9913   -1.5577 C   0  0  0  0  0  0  0  0  0  0  0  0
    4.1438   -1.2696   -1.9462 O   0  0  0  0  0  0  0  0  0  0  0  0
    5.1874   -0.4820   -1.3685 C   0  0  0  0  0  0  0  0  0  0  0  0
    6.5344   -0.9742   -1.8359 C   0  0  0  0  0  0  0  0  0  0  0  0
    6.7691   -2.3180   -2.1626 C   0  0  0  0  0  0  0  0  0  0  0  0
    8.0428   -2.7421   -2.5522 C   0  0  0  0  0  0  0  0  0  0  0  0
    9.0991   -1.8324   -2.6088 C   0  0  0  0  0  0  0  0  0  0  0  0
    8.8821   -0.4986   -2.2723 C   0  0  0  0  0  0  0  0  0  0  0  0
    7.6106   -0.0836   -1.8854 C   0  0  0  0  0  0  0  0  0  0  0  0
    7.4269    1.2022   -1.5496 F   0  0  0  0  0  0  0  0  0  0  0  0
    2.4665    0.0393   -0.7067 C   0  0  0  0  0  0  0  0  0  0  0  0
    1.1126    0.2092   -0.3907 C   0  0  0  0  0  0  0  0  0  0  0  0
   -6.0803    0.5040    0.9838 C   0  0  0  0  0  0  0  0  0  0  0  0
   -7.2017    1.2197    1.4202 C   0  0  0  0  0  0  0  0  0  0  0  0
   -7.7773    3.5697    4.5651 H   0  0  0  0  0  0  0  0  0  0  0  0
   -7.5863    4.7848    3.2409 H   0  0  0  0  0  0  0  0  0  0  0  0
   -9.1932    4.2968    3.7955 H   0  0  0  0  0  0  0  0  0  0  0  0
   -5.6472    3.4666    3.4434 H   0  0  0  0  0  0  0  0  0  0  0  0
   -3.7010    2.2313    2.6870 H   0  0  0  0  0  0  0  0  0  0  0  0
   -2.7673    0.5656    1.4312 H   0  0  0  0  0  0  0  0  0  0  0  0
   -1.6280    0.5682   -0.8309 H   0  0  0  0  0  0  0  0  0  0  0  0
   -0.1831   -2.3472   -2.2330 H   0  0  0  0  0  0  0  0  0  0  0  0
    2.1934   -2.6412   -2.7691 H   0  0  0  0  0  0  0  0  0  0  0  0
    5.1623   -0.5596   -0.2745 H   0  0  0  0  0  0  0  0  0  0  0  0
    5.0557    0.5619   -1.6785 H   0  0  0  0  0  0  0  0  0  0  0  0
    5.9598   -3.0441   -2.1155 H   0  0  0  0  0  0  0  0  0  0  0  0
    8.2104   -3.7861   -2.8075 H   0  0  0  0  0  0  0  0  0  0  0  0
   10.0887   -2.1655   -2.9100 H   0  0  0  0  0  0  0  0  0  0  0  0
    9.6947    0.2200   -2.3051 H   0  0  0  0  0  0  0  0  0  0  0  0
    3.1801    0.7330   -0.2751 H   0  0  0  0  0  0  0  0  0  0  0  0
    0.8299    1.0236    0.2728 H   0  0  0  0  0  0  0  0  0  0  0  0
   -6.2450   -0.3165    0.2929 H   0  0  0  0  0  0  0  0  0  0  0  0
   -8.1882    0.9358    1.0601 H   0  0  0  0  0  0  0  0  0  0  0  0
  1  2  1  0
  2  3  1  0
  3  4  2  0
  4  5  1  0
  5  6  2  0
  6  7  1  0
  7  8  1  0
  8  9  2  0
  8 10  1  0
 10 11  1  0
 11 12  3  0
 10 13  2  3
 13 14  1  0
 14 15  2  0
 15 16  1  0
 16 17  2  0
 17 18  1  0
 18 19  1  0
 19 20  1  0
 20 21  2  0
 21 22  1  0
 22 23  2  0
 23 24  1  0
 24 25  2  0
 25 26  1  0
 17 27  1  0
 27 28  2  0
  6 29  1  0
 29 30  2  0
 30  3  1  0
 28 14  1  0
 25 20  1  0
  1 31  1  0
  1 32  1  0
  1 33  1  0
  4 34  1  0
  5 35  1  0
  7 36  1  0
 13 37  1  0
 15 38  1  0
 16 39  1  0
 19 40  1  0
 19 41  1  0
 21 42  1  0
 22 43  1  0
 23 44  1  0
 24 45  1  0
 27 46  1  0
 28 47  1  0
 29 48  1  0
 30 49  1  0
M  END
$$$$
