
     RDKit          3D

 48 49  0  0  0  0  0  0  0  0999 V2000
   -5.7615    0.2804    1.4021 C   0  0  0  0  0  0  0  0  0  0  0  0
   -4.2847    0.0215    1.3615 C   0  0  0  0  0  0  0  0  0  0  0  0
   -3.4011    0.8408    2.0726 C   0  0  0  0  0  0  0  0  0  0  0  0
   -2.0240    0.6168    2.0142 C   0  0  0  0  0  0  0  0  0  0  0  0
   -1.5064   -0.4198    1.2281 C   0  0  0  0  0  0  0  0  0  0  0  0
   -0.0151   -0.6432    1.1293 C   0  0  0  0  0  0  0  0  0  0  0  0
    0.5736   -0.2862   -0.2465 C   0  0  0  0  0  0  0  0  0  0  0  0
    1.9151   -0.8502   -0.4046 N   0  0  0  0  0  0  0  0  0  0  0  0
    2.1052   -2.1655   -0.7569 C   0  0  0  0  0  0  0  0  0  0  0  0
    1.1744   -2.9494   -0.9108 O   0  0  0  0  0  0  0  0  0  0  0  0
    3.5115   -2.6052   -0.9791 C   0  0  0  0  0  0  0  0  0  0  0  0
    3.7341   -3.7291   -1.7860 C   0  0  0  0  0  0  0  0  0  0  0  0
    5.0338   -4.1804   -2.0227 C   0  0  0  0  0  0  0  0  0  0  0  0
    6.1167   -3.5167   -1.4482 C   0  0  0  0  0  0  0  0  0  0  0  0
    5.9025   -2.4065   -0.6317 C   0  0  0  0  0  0  0  0  0  0  0  0
    4.6031   -1.9511   -0.3925 C   0  0  0  0  0  0  0  0  0  0  0  0
    0.7108    1.2398   -0.4215 C   0  0  0  0  0  0  0  0  0  0  0  0
    1.8031    1.8074   -0.3694 O   0  0  0  0  0  0  0  0  0  0  0  0
   -0.4636    1.9149   -0.6339 N   0  0  0  0  0  0  0  0  0  0  0  0
   -0.5293    3.3596   -0.8365 C   0  0  0  0  0  0  0  0  0  0  0  0
   -0.4208    4.1000    0.4904 C   0  0  0  0  0  0  0  0  0  0  0  0
   -1.8397    3.7460   -1.5286 C   0  0  0  0  0  0  0  0  0  0  0  0
   -2.1921    4.8736   -1.8365 O   0  0  0  0  0  0  0  0  0  0  0  0
   -2.6492    2.6916   -1.7845 O   0  0  0  0  0  0  0  0  0  0  0  0
   -2.3911   -1.2375    0.5139 C   0  0  0  0  0  0  0  0  0  0  0  0
   -3.7678   -1.0132    0.5744 C   0  0  0  0  0  0  0  0  0  0  0  0
   -6.3251   -0.6491    1.2696 H   0  0  0  0  0  0  0  0  0  0  0  0
   -6.0402    0.9798    0.6079 H   0  0  0  0  0  0  0  0  0  0  0  0
   -6.0574    0.7043    2.3675 H   0  0  0  0  0  0  0  0  0  0  0  0
   -3.7809    1.6572    2.6832 H   0  0  0  0  0  0  0  0  0  0  0  0
   -1.3587    1.2649    2.5810 H   0  0  0  0  0  0  0  0  0  0  0  0
    0.1752   -1.6982    1.3666 H   0  0  0  0  0  0  0  0  0  0  0  0
    0.4998   -0.0719    1.9133 H   0  0  0  0  0  0  0  0  0  0  0  0
   -0.0452   -0.6715   -1.0660 H   0  0  0  0  0  0  0  0  0  0  0  0
    2.6742   -0.1782   -0.4641 H   0  0  0  0  0  0  0  0  0  0  0  0
    2.8933   -4.2547   -2.2344 H   0  0  0  0  0  0  0  0  0  0  0  0
    5.1993   -5.0508   -2.6526 H   0  0  0  0  0  0  0  0  0  0  0  0
    7.1288   -3.8700   -1.6308 H   0  0  0  0  0  0  0  0  0  0  0  0
    6.7486   -1.8990   -0.1744 H   0  0  0  0  0  0  0  0  0  0  0  0
    4.4643   -1.1028    0.2711 H   0  0  0  0  0  0  0  0  0  0  0  0
   -1.3394    1.4043   -0.7308 H   0  0  0  0  0  0  0  0  0  0  0  0
    0.2939    3.6418   -1.5023 H   0  0  0  0  0  0  0  0  0  0  0  0
   -0.4574    5.1841    0.3390 H   0  0  0  0  0  0  0  0  0  0  0  0
   -1.2458    3.8315    1.1603 H   0  0  0  0  0  0  0  0  0  0  0  0
    0.5157    3.8618    1.0049 H   0  0  0  0  0  0  0  0  0  0  0  0
   -3.4338    3.0949   -2.2134 H   0  0  0  0  0  0  0  0  0  0  0  0
   -2.0118   -2.0583   -0.0941 H   0  0  0  0  0  0  0  0  0  0  0  0
   -4.4350   -1.6585    0.0070 H   0  0  0  0  0  0  0  0  0  0  0  0
  1  2  1  0
  2  3  2  0
  3  4  1  0
  4  5  2  0
  5  6  1  0
  6  7  1  0
  7  8  1  0
  8  9  1  0
  9 10  2  0
  9 11  1  0
 11 12  2  0
 12 13  1  0
 13 14  2  0
 14 15  1  0
 15 16  2  0
  7 17  1  0
 17 18  2  0
 17 19  1  0
 19 20  1  0
 20 21  1  0
 20 22  1  0
 22 23  2  0
 22 24  1  0
  5 25  1  0
 25 26  2  0
 26  2  1  0
 16 11  1  0
  1 27  1  0
  1 28  1  0
  1 29  1  0
  3 30  1  0
  4 31  1  0
  6 32  1  0
  6 33  1  0
  7 34  1  0
  8 35  1  0
 12 36  1  0
 13 37  1  0
 14 38  1  0
 15 39  1  0
 16 40  1  0
 19 41  1  0
 20 42  1  0
 21 43  1  0
 21 44  1  0
 21 45  1  0
 24 46  1  0
 25 47  1  0
 26 48  1  0
M  END
$$$$
