
     RDKit          3D

 39 41  0  0  0  0  0  0  0  0999 V2000
    5.0894   -2.6814    0.3448 C   0  0  0  0  0  0  0  0  0  0  0  0
    3.8735   -1.7876    0.1727 C   0  0  0  0  0  0  0  0  0  0  0  0
    2.3569   -2.7351    0.5230 S   0  0  0  0  0  0  0  0  0  0  0  0
    1.1102   -1.4831    0.2432 C   0  0  0  0  0  0  0  0  0  0  0  0
   -0.2155   -1.8345    0.3840 C   0  0  0  0  0  0  0  0  0  0  0  0
   -1.1616   -0.8548    0.1692 C   0  0  0  0  0  0  0  0  0  0  0  0
   -2.5079   -1.1124    0.2729 N   0  0  0  0  0  0  0  0  0  0  0  0
   -3.4722   -0.0347    0.0853 C   0  0  0  0  0  0  0  0  0  0  0  0
   -4.8111   -0.7249    0.3267 C   0  0  0  0  0  0  0  0  0  0  0  0
   -4.4749   -1.7307    1.4162 C   0  0  0  0  0  0  0  0  0  0  0  0
   -3.0751   -2.2167    1.0379 C   0  0  0  0  0  0  0  0  0  0  0  0
   -0.7808    0.3850   -0.1834 N   0  0  0  0  0  0  0  0  0  0  0  0
    0.5334    0.6478   -0.2999 C   0  0  0  0  0  0  0  0  0  0  0  0
    0.9291    2.0204   -0.6814 C   0  0  0  0  0  0  0  0  0  0  0  0
    2.2841    2.3892   -0.8069 C   0  0  0  0  0  0  0  0  0  0  0  0
    2.6606    3.6885   -1.1679 C   0  0  0  0  0  0  0  0  0  0  0  0
    1.6840    4.6483   -1.4115 C   0  0  0  0  0  0  0  0  0  0  0  0
    2.1430    6.2453   -1.8549 Cl  0  0  0  0  0  0  0  0  0  0  0  0
    0.3375    4.3201   -1.2975 C   0  0  0  0  0  0  0  0  0  0  0  0
   -0.0328    3.0192   -0.9362 C   0  0  0  0  0  0  0  0  0  0  0  0
    1.5079   -0.2490   -0.0923 N   0  0  0  0  0  0  0  0  0  0  0  0
    6.0015   -2.1129    0.1345 H   0  0  0  0  0  0  0  0  0  0  0  0
    5.1667   -3.0632    1.3686 H   0  0  0  0  0  0  0  0  0  0  0  0
    5.0642   -3.5324   -0.3443 H   0  0  0  0  0  0  0  0  0  0  0  0
    3.9448   -0.9387    0.8603 H   0  0  0  0  0  0  0  0  0  0  0  0
    3.8421   -1.4082   -0.8537 H   0  0  0  0  0  0  0  0  0  0  0  0
   -0.4942   -2.8472    0.6400 H   0  0  0  0  0  0  0  0  0  0  0  0
   -3.3174    0.7590    0.8264 H   0  0  0  0  0  0  0  0  0  0  0  0
   -3.4290    0.3947   -0.9213 H   0  0  0  0  0  0  0  0  0  0  0  0
   -5.1359   -1.2497   -0.5799 H   0  0  0  0  0  0  0  0  0  0  0  0
   -5.5974   -0.0246    0.6213 H   0  0  0  0  0  0  0  0  0  0  0  0
   -5.1983   -2.5484    1.4796 H   0  0  0  0  0  0  0  0  0  0  0  0
   -4.4441   -1.2269    2.3900 H   0  0  0  0  0  0  0  0  0  0  0  0
   -3.1329   -3.1114    0.4085 H   0  0  0  0  0  0  0  0  0  0  0  0
   -2.5046   -2.4513    1.9434 H   0  0  0  0  0  0  0  0  0  0  0  0
    3.0669    1.6549   -0.6212 H   0  0  0  0  0  0  0  0  0  0  0  0
    3.7145    3.9384   -1.2554 H   0  0  0  0  0  0  0  0  0  0  0  0
   -0.4309    5.0647   -1.4870 H   0  0  0  0  0  0  0  0  0  0  0  0
   -1.0935    2.7843   -0.8539 H   0  0  0  0  0  0  0  0  0  0  0  0
  1  2  1  0
  2  3  1  0
  3  4  1  0
  4  5  2  0
  5  6  1  0
  6  7  1  0
  7  8  1  0
  8  9  1  0
  9 10  1  0
 10 11  1  0
  6 12  2  0
 12 13  1  0
 13 14  1  0
 14 15  2  0
 15 16  1  0
 16 17  2  0
 17 18  1  0
 17 19  1  0
 19 20  2  0
 13 21  2  0
 21  4  1  0
 11  7  1  0
 20 14  1  0
  1 22  1  0
  1 23  1  0
  1 24  1  0
  2 25  1  0
  2 26  1  0
  5 27  1  0
  8 28  1  0
  8 29  1  0
  9 30  1  0
  9 31  1  0
 10 32  1  0
 10 33  1  0
 11 34  1  0
 11 35  1  0
 15 36  1  0
 16 37  1  0
 19 38  1  0
 20 39  1  0
M  END
$$$$
