
     RDKit          3D

 35 37  0  0  0  0  0  0  0  0999 V2000
   -2.0984   -2.4474    0.5536 C   0  0  0  0  0  0  0  0  0  0  0  0
   -1.2453   -1.2652    0.2361 C   0  0  0  0  0  0  0  0  0  0  0  0
    0.0424   -1.2413    0.4710 N   0  0  0  0  0  0  0  0  0  0  0  0
    0.4844   -0.0094   -0.0031 N   0  0  0  0  0  0  0  0  0  0  0  0
    1.8093    0.3432    0.0733 C   0  0  0  0  0  0  0  0  0  0  0  0
    2.4043    1.4486   -0.3189 N   0  0  0  0  0  0  0  0  0  0  0  0
    3.7326    1.2866   -0.0093 C   0  0  0  0  0  0  0  0  0  0  0  0
    4.8133    2.1571   -0.2096 C   0  0  0  0  0  0  0  0  0  0  0  0
    6.0890    1.7494    0.2015 C   0  0  0  0  0  0  0  0  0  0  0  0
    6.2839    0.5011    0.7993 C   0  0  0  0  0  0  0  0  0  0  0  0
    5.2173   -0.3816    1.0076 C   0  0  0  0  0  0  0  0  0  0  0  0
    3.9583    0.0517    0.5880 C   0  0  0  0  0  0  0  0  0  0  0  0
    2.7182   -0.5245    0.6269 N   0  0  0  0  0  0  0  0  0  0  0  0
   -0.5014    0.8082   -0.5635 C   0  0  0  0  0  0  0  0  0  0  0  0
   -0.4739    1.9121   -1.0747 O   0  0  0  0  0  0  0  0  0  0  0  0
   -1.7216   -0.0178   -0.3792 C   0  0  0  0  0  0  0  0  0  0  0  0
   -2.9346    0.4003   -0.7552 C   0  0  0  0  0  0  0  0  0  0  0  0
   -4.1900   -0.1883   -0.6098 N   0  0  0  0  0  0  0  0  0  0  0  0
   -4.7527   -0.3363    0.7428 C   0  0  0  0  0  0  0  0  0  0  0  0
   -5.2291    0.1434   -1.5997 C   0  0  0  0  0  0  0  0  0  0  0  0
   -1.4925   -3.3572    0.5023 H   0  0  0  0  0  0  0  0  0  0  0  0
   -2.9192   -2.5475   -0.1587 H   0  0  0  0  0  0  0  0  0  0  0  0
   -2.4923   -2.3514    1.5682 H   0  0  0  0  0  0  0  0  0  0  0  0
    4.6529    3.1235   -0.6743 H   0  0  0  0  0  0  0  0  0  0  0  0
    6.9358    2.4150    0.0518 H   0  0  0  0  0  0  0  0  0  0  0  0
    7.2855    0.2091    1.1091 H   0  0  0  0  0  0  0  0  0  0  0  0
    5.3688   -1.3500    1.4711 H   0  0  0  0  0  0  0  0  0  0  0  0
    2.4706   -1.4317    0.9909 H   0  0  0  0  0  0  0  0  0  0  0  0
   -3.0001    1.3536   -1.2853 H   0  0  0  0  0  0  0  0  0  0  0  0
   -5.2648    0.5835    1.0468 H   0  0  0  0  0  0  0  0  0  0  0  0
   -3.9797   -0.5477    1.4870 H   0  0  0  0  0  0  0  0  0  0  0  0
   -5.4720   -1.1617    0.7626 H   0  0  0  0  0  0  0  0  0  0  0  0
   -4.8298    0.0587   -2.6164 H   0  0  0  0  0  0  0  0  0  0  0  0
   -5.5968    1.1644   -1.4497 H   0  0  0  0  0  0  0  0  0  0  0  0
   -6.0724   -0.5505   -1.5181 H   0  0  0  0  0  0  0  0  0  0  0  0
  1  2  1  0
  2  3  2  0
  3  4  1  0
  4  5  1  0
  5  6  2  0
  6  7  1  0
  7  8  2  0
  8  9  1  0
  9 10  2  0
 10 11  1  0
 11 12  2  0
 12 13  1  0
  4 14  1  0
 14 15  2  0
 14 16  1  0
 16 17  2  3
 17 18  1  0
 18 19  1  0
 18 20  1  0
 16  2  1  0
 13  5  1  0
 12  7  1  0
  1 21  1  0
  1 22  1  0
  1 23  1  0
  8 24  1  0
  9 25  1  0
 10 26  1  0
 11 27  1  0
 13 28  1  0
 17 29  1  0
 19 30  1  0
 19 31  1  0
 19 32  1  0
 20 33  1  0
 20 34  1  0
 20 35  1  0
M  END
$$$$
