
     RDKit          3D

 56 59  0  0  0  0  0  0  0  0999 V2000
    3.7939   -1.1637    0.7087 C   0  0  0  0  0  0  0  0  0  0  0  0
    2.8685   -0.0103    0.3274 C   0  0  0  0  0  0  0  0  0  0  0  0
    3.5472    1.3705    0.4302 C   0  0  0  0  0  0  0  0  0  0  0  0
    4.3753    1.7677   -0.7994 C   0  0  0  0  0  0  0  0  0  0  0  0
    5.6939    1.0540   -0.9525 C   0  0  0  0  0  0  0  0  0  0  0  0
    6.7032    1.1981    0.0094 C   0  0  0  0  0  0  0  0  0  0  0  0
    7.9248    0.5398   -0.1406 C   0  0  0  0  0  0  0  0  0  0  0  0
    8.1531   -0.2629   -1.2562 C   0  0  0  0  0  0  0  0  0  0  0  0
    7.1620   -0.4044   -2.2248 C   0  0  0  0  0  0  0  0  0  0  0  0
    5.9397    0.2533   -2.0764 C   0  0  0  0  0  0  0  0  0  0  0  0
    1.6950   -0.0483    1.2002 N   0  0  0  0  0  0  0  0  0  0  0  0
    0.4748    0.4674    0.8062 C   0  0  0  0  0  0  0  0  0  0  0  0
    0.2844    0.9674   -0.2996 O   0  0  0  0  0  0  0  0  0  0  0  0
   -0.6107    0.3855    1.8849 C   0  0  0  0  0  0  0  0  0  0  0  0
   -1.9403    0.4335    1.3762 O   0  0  0  0  0  0  0  0  0  0  0  0
   -2.3418   -0.7225    0.7921 C   0  0  0  0  0  0  0  0  0  0  0  0
   -1.7068   -1.7590    0.7060 O   0  0  0  0  0  0  0  0  0  0  0  0
   -3.7380   -0.5531    0.3464 C   0  0  0  0  0  0  0  0  0  0  0  0
   -3.9994    0.1636   -0.8539 C   0  0  0  0  0  0  0  0  0  0  0  0
   -3.0014    0.7192   -1.6920 C   0  0  0  0  0  0  0  0  0  0  0  0
   -3.3259    1.4167   -2.8571 C   0  0  0  0  0  0  0  0  0  0  0  0
   -4.6558    1.5750   -3.2195 C   0  0  0  0  0  0  0  0  0  0  0  0
   -5.6585    1.0328   -2.4178 C   0  0  0  0  0  0  0  0  0  0  0  0
   -5.3463    0.3279   -1.2423 C   0  0  0  0  0  0  0  0  0  0  0  0
   -6.3710   -0.2164   -0.4526 C   0  0  0  0  0  0  0  0  0  0  0  0
   -6.1048   -0.9350    0.7231 C   0  0  0  0  0  0  0  0  0  0  0  0
   -7.1618   -1.4685    1.4806 C   0  0  0  0  0  0  0  0  0  0  0  0
   -6.9185   -2.1875    2.6496 C   0  0  0  0  0  0  0  0  0  0  0  0
   -5.6130   -2.3840    3.0770 C   0  0  0  0  0  0  0  0  0  0  0  0
   -4.5531   -1.8584    2.3354 C   0  0  0  0  0  0  0  0  0  0  0  0
   -4.7707   -1.1212    1.1437 C   0  0  0  0  0  0  0  0  0  0  0  0
    4.2124   -1.0228    1.7114 H   0  0  0  0  0  0  0  0  0  0  0  0
    4.6201   -1.2771    0.0051 H   0  0  0  0  0  0  0  0  0  0  0  0
    3.2434   -2.1115    0.7160 H   0  0  0  0  0  0  0  0  0  0  0  0
    2.5137   -0.1667   -0.6985 H   0  0  0  0  0  0  0  0  0  0  0  0
    4.1432    1.4322    1.3490 H   0  0  0  0  0  0  0  0  0  0  0  0
    2.7680    2.1378    0.5346 H   0  0  0  0  0  0  0  0  0  0  0  0
    3.7660    1.6410   -1.7032 H   0  0  0  0  0  0  0  0  0  0  0  0
    4.5934    2.8425   -0.7417 H   0  0  0  0  0  0  0  0  0  0  0  0
    6.5464    1.8296    0.8807 H   0  0  0  0  0  0  0  0  0  0  0  0
    8.7005    0.6572    0.6113 H   0  0  0  0  0  0  0  0  0  0  0  0
    9.1049   -0.7739   -1.3736 H   0  0  0  0  0  0  0  0  0  0  0  0
    7.3406   -1.0260   -3.0983 H   0  0  0  0  0  0  0  0  0  0  0  0
    5.1783    0.1324   -2.8438 H   0  0  0  0  0  0  0  0  0  0  0  0
    1.8171   -0.3547    2.1569 H   0  0  0  0  0  0  0  0  0  0  0  0
   -0.4716   -0.5064    2.5081 H   0  0  0  0  0  0  0  0  0  0  0  0
   -0.4819    1.2567    2.5364 H   0  0  0  0  0  0  0  0  0  0  0  0
   -1.9455    0.6139   -1.4482 H   0  0  0  0  0  0  0  0  0  0  0  0
   -2.5341    1.8325   -3.4753 H   0  0  0  0  0  0  0  0  0  0  0  0
   -4.9137    2.1169   -4.1254 H   0  0  0  0  0  0  0  0  0  0  0  0
   -6.6950    1.1647   -2.7221 H   0  0  0  0  0  0  0  0  0  0  0  0
   -7.4060   -0.0811   -0.7656 H   0  0  0  0  0  0  0  0  0  0  0  0
   -8.1929   -1.3284    1.1616 H   0  0  0  0  0  0  0  0  0  0  0  0
   -7.7480   -2.5952    3.2213 H   0  0  0  0  0  0  0  0  0  0  0  0
   -5.4141   -2.9488    3.9841 H   0  0  0  0  0  0  0  0  0  0  0  0
   -3.5432   -2.0421    2.6981 H   0  0  0  0  0  0  0  0  0  0  0  0
  1  2  1  0
  2  3  1  0
  3  4  1  0
  4  5  1  0
  5  6  2  0
  6  7  1  0
  7  8  2  0
  8  9  1  0
  9 10  2  0
  2 11  1  0
 11 12  1  0
 12 13  2  0
 12 14  1  0
 14 15  1  0
 15 16  1  0
 16 17  2  0
 16 18  1  0
 18 19  1  0
 19 20  2  0
 20 21  1  0
 21 22  2  0
 22 23  1  0
 23 24  2  0
 24 25  1  0
 25 26  2  0
 26 27  1  0
 27 28  2  0
 28 29  1  0
 29 30  2  0
 30 31  1  0
 10  5  1  0
 31 18  2  0
 24 19  1  0
 31 26  1  0
  1 32  1  0
  1 33  1  0
  1 34  1  0
  2 35  1  0
  3 36  1  0
  3 37  1  0
  4 38  1  0
  4 39  1  0
  6 40  1  0
  7 41  1  0
  8 42  1  0
  9 43  1  0
 10 44  1  0
 11 45  1  0
 14 46  1  0
 14 47  1  0
 20 48  1  0
 21 49  1  0
 22 50  1  0
 23 51  1  0
 25 52  1  0
 27 53  1  0
 28 54  1  0
 29 55  1  0
 30 56  1  0
M  END
$$$$
