
     RDKit          3D

 55 58  0  0  0  0  0  0  0  0999 V2000
    1.1849    1.7820    0.0701 O   0  0  0  0  0  0  0  0  0  0  0  0
    0.7830    0.6945    0.4824 C   0  0  0  0  0  0  0  0  0  0  0  0
    1.6667   -0.4761    0.3417 C   0  0  0  0  0  0  0  0  0  0  0  0
    2.9065   -0.3730   -0.3076 C   0  0  0  0  0  0  0  0  0  0  0  0
    3.7498   -1.4841   -0.4345 C   0  0  0  0  0  0  0  0  0  0  0  0
    4.9956   -1.4440   -1.0714 N   0  0  0  0  0  0  0  0  0  0  0  0
    6.1274   -1.7740   -0.1654 C   0  0  0  0  0  0  0  0  0  0  0  0
    7.4658   -1.3330   -0.7796 C   0  0  0  0  0  0  0  0  0  0  0  0
    7.5361    0.0793   -1.0313 O   0  0  0  0  0  0  0  0  0  0  0  0
    6.2733    0.6524   -1.4135 C   0  0  0  0  0  0  0  0  0  0  0  0
    5.3044   -0.3636   -2.0349 C   0  0  0  0  0  0  0  0  0  0  0  0
    3.2999   -2.6987    0.1156 C   0  0  0  0  0  0  0  0  0  0  0  0
    2.0648   -2.8051    0.7647 C   0  0  0  0  0  0  0  0  0  0  0  0
    1.2518   -1.6835    0.8724 C   0  0  0  0  0  0  0  0  0  0  0  0
    0.0261   -1.7670    1.5223 N   0  0  0  0  0  0  0  0  0  0  0  0
   -0.8425   -0.7182    1.6705 C   0  0  0  0  0  0  0  0  0  0  0  0
   -2.2316   -1.0598    2.5462 S   0  0  0  0  0  0  0  0  0  0  0  0
   -0.4687    0.4955    1.0919 N   0  0  0  0  0  0  0  0  0  0  0  0
   -1.3268    1.6942    1.1549 C   0  0  0  0  0  0  0  0  0  0  0  0
   -1.8715    2.1422   -0.2120 C   0  0  0  0  0  0  0  0  0  0  0  0
   -2.8789    1.1760   -0.8465 C   0  0  0  0  0  0  0  0  0  0  0  0
   -4.0952    0.9564   -0.0486 N   0  0  0  0  0  0  0  0  0  0  0  0
   -4.8398   -0.2007   -0.5761 C   0  0  0  0  0  0  0  0  0  0  0  0
   -6.0703   -0.5144    0.2752 C   0  0  0  0  0  0  0  0  0  0  0  0
   -6.9841    0.6979    0.3929 C   0  0  0  0  0  0  0  0  0  0  0  0
   -6.1937    1.9095    0.8687 C   0  0  0  0  0  0  0  0  0  0  0  0
   -4.9566    2.1484   -0.0001 C   0  0  0  0  0  0  0  0  0  0  0  0
    3.2044    0.6005   -0.6856 H   0  0  0  0  0  0  0  0  0  0  0  0
    5.9978   -1.2547    0.7935 H   0  0  0  0  0  0  0  0  0  0  0  0
    6.1587   -2.8531    0.0207 H   0  0  0  0  0  0  0  0  0  0  0  0
    7.6482   -1.8550   -1.7263 H   0  0  0  0  0  0  0  0  0  0  0  0
    8.2899   -1.5860   -0.1050 H   0  0  0  0  0  0  0  0  0  0  0  0
    5.8341    1.1096   -0.5197 H   0  0  0  0  0  0  0  0  0  0  0  0
    6.4842    1.4569   -2.1251 H   0  0  0  0  0  0  0  0  0  0  0  0
    5.7886   -0.8320   -2.9011 H   0  0  0  0  0  0  0  0  0  0  0  0
    4.4084    0.1295   -2.4257 H   0  0  0  0  0  0  0  0  0  0  0  0
    3.9123   -3.5927    0.0164 H   0  0  0  0  0  0  0  0  0  0  0  0
    1.7575   -3.7651    1.1690 H   0  0  0  0  0  0  0  0  0  0  0  0
   -0.2644   -2.6468    1.9344 H   0  0  0  0  0  0  0  0  0  0  0  0
   -0.7093    2.5088    1.5559 H   0  0  0  0  0  0  0  0  0  0  0  0
   -2.1492    1.5729    1.8631 H   0  0  0  0  0  0  0  0  0  0  0  0
   -2.3205    3.1354   -0.0998 H   0  0  0  0  0  0  0  0  0  0  0  0
   -1.0480    2.2764   -0.9224 H   0  0  0  0  0  0  0  0  0  0  0  0
   -3.1438    1.5424   -1.8471 H   0  0  0  0  0  0  0  0  0  0  0  0
   -2.3619    0.2197   -0.9988 H   0  0  0  0  0  0  0  0  0  0  0  0
   -4.1969   -1.0894   -0.5758 H   0  0  0  0  0  0  0  0  0  0  0  0
   -5.1462   -0.0223   -1.6154 H   0  0  0  0  0  0  0  0  0  0  0  0
   -5.7541   -0.8332    1.2764 H   0  0  0  0  0  0  0  0  0  0  0  0
   -6.6222   -1.3517   -0.1667 H   0  0  0  0  0  0  0  0  0  0  0  0
   -7.4351    0.9141   -0.5833 H   0  0  0  0  0  0  0  0  0  0  0  0
   -7.8041    0.4860    1.0876 H   0  0  0  0  0  0  0  0  0  0  0  0
   -5.8854    1.7587    1.9112 H   0  0  0  0  0  0  0  0  0  0  0  0
   -6.8347    2.7982    0.8509 H   0  0  0  0  0  0  0  0  0  0  0  0
   -5.2678    2.4441   -1.0105 H   0  0  0  0  0  0  0  0  0  0  0  0
   -4.4170    2.9956    0.4354 H   0  0  0  0  0  0  0  0  0  0  0  0
  1  2  2  0
  2  3  1  0
  3  4  2  0
  4  5  1  0
  5  6  1  0
  6  7  1  0
  7  8  1  0
  8  9  1  0
  9 10  1  0
 10 11  1  0
  5 12  2  0
 12 13  1  0
 13 14  2  0
 14 15  1  0
 15 16  1  0
 16 17  2  0
 16 18  1  0
 18 19  1  0
 19 20  1  0
 20 21  1  0
 21 22  1  0
 22 23  1  0
 23 24  1  0
 24 25  1  0
 25 26  1  0
 26 27  1  0
 18  2  1  0
 27 22  1  0
 14  3  1  0
 11  6  1  0
  4 28  1  0
  7 29  1  0
  7 30  1  0
  8 31  1  0
  8 32  1  0
 10 33  1  0
 10 34  1  0
 11 35  1  0
 11 36  1  0
 12 37  1  0
 13 38  1  0
 15 39  1  0
 19 40  1  0
 19 41  1  0
 20 42  1  0
 20 43  1  0
 21 44  1  0
 21 45  1  0
 23 46  1  0
 23 47  1  0
 24 48  1  0
 24 49  1  0
 25 50  1  0
 25 51  1  0
 26 52  1  0
 26 53  1  0
 27 54  1  0
 27 55  1  0
M  END
$$$$
