
     RDKit          3D

 55 57  0  0  0  0  0  0  0  0999 V2000
    2.2385   -1.0406   -2.6381 C   0  0  0  0  0  0  0  0  0  0  0  0
    2.5463    0.3737   -2.1398 C   0  0  0  0  0  0  0  0  0  0  0  0
    1.3374    1.3200   -2.1414 C   0  0  0  0  0  0  0  0  0  0  0  0
    1.4686    2.4920   -2.4888 O   0  0  0  0  0  0  0  0  0  0  0  0
    0.1568    0.7555   -1.6935 N   0  0  0  0  0  0  0  0  0  0  0  0
   -1.1450    1.3163   -1.6808 C   0  0  0  0  0  0  0  0  0  0  0  0
   -1.4301    2.5727   -2.2263 C   0  0  0  0  0  0  0  0  0  0  0  0
   -2.7427    3.0560   -2.2695 C   0  0  0  0  0  0  0  0  0  0  0  0
   -3.7939    2.2859   -1.7825 C   0  0  0  0  0  0  0  0  0  0  0  0
   -3.5315    1.0382   -1.2233 C   0  0  0  0  0  0  0  0  0  0  0  0
   -2.2109    0.5663   -1.1329 C   0  0  0  0  0  0  0  0  0  0  0  0
   -1.9619   -0.7670   -0.5131 C   0  0  0  0  0  0  0  0  0  0  0  0
   -1.1241   -1.5016   -1.0383 O   0  0  0  0  0  0  0  0  0  0  0  0
   -2.6829   -1.1409    0.6250 N   0  0  0  0  0  0  0  0  0  0  0  0
   -2.9655   -0.1827    1.7048 C   0  0  0  0  0  0  0  0  0  0  0  0
   -4.0639   -0.7020    2.6362 C   0  0  0  0  0  0  0  0  0  0  0  0
   -3.7363   -2.0014    3.1462 O   0  0  0  0  0  0  0  0  0  0  0  0
   -3.5824   -2.9401    2.0718 C   0  0  0  0  0  0  0  0  0  0  0  0
   -2.4735   -2.5078    1.1101 C   0  0  0  0  0  0  0  0  0  0  0  0
    3.3030    0.3217   -0.8420 N   0  0  0  0  0  0  0  0  0  0  0  0
    2.5786   -0.0449    0.3484 C   0  0  0  0  0  0  0  0  0  0  0  0
    1.7974    0.8602    1.0730 C   0  0  0  0  0  0  0  0  0  0  0  0
    1.1031    0.4385    2.2099 C   0  0  0  0  0  0  0  0  0  0  0  0
    1.1740   -0.8932    2.6108 C   0  0  0  0  0  0  0  0  0  0  0  0
    0.3242   -1.4102    4.0132 Cl  0  0  0  0  0  0  0  0  0  0  0  0
    1.9279   -1.8088    1.8802 C   0  0  0  0  0  0  0  0  0  0  0  0
    2.6262   -1.3840    0.7475 C   0  0  0  0  0  0  0  0  0  0  0  0
    4.4763    1.5612   -0.6699 S   0  0  0  0  0  6  0  0  0  0  0  0
    5.5844    0.8335    0.5212 C   0  0  0  0  0  0  0  0  0  0  0  0
    3.8742    2.7326   -0.0721 O   0  0  0  0  0  0  0  0  0  0  0  0
    5.2125    1.6526   -1.9146 O   0  0  0  0  0  0  0  0  0  0  0  0
    3.1677   -1.5999   -2.7944 H   0  0  0  0  0  0  0  0  0  0  0  0
    1.6302   -1.6189   -1.9373 H   0  0  0  0  0  0  0  0  0  0  0  0
    1.6986   -1.0064   -3.5904 H   0  0  0  0  0  0  0  0  0  0  0  0
    3.2094    0.7774   -2.9167 H   0  0  0  0  0  0  0  0  0  0  0  0
    0.1947   -0.2108   -1.3666 H   0  0  0  0  0  0  0  0  0  0  0  0
   -0.6533    3.2017   -2.6509 H   0  0  0  0  0  0  0  0  0  0  0  0
   -2.9395    4.0321   -2.7078 H   0  0  0  0  0  0  0  0  0  0  0  0
   -4.8142    2.6556   -1.8448 H   0  0  0  0  0  0  0  0  0  0  0  0
   -4.3600    0.4324   -0.8644 H   0  0  0  0  0  0  0  0  0  0  0  0
   -3.2322    0.8025    1.3197 H   0  0  0  0  0  0  0  0  0  0  0  0
   -2.0307   -0.0647    2.2644 H   0  0  0  0  0  0  0  0  0  0  0  0
   -5.0277   -0.7555    2.1161 H   0  0  0  0  0  0  0  0  0  0  0  0
   -4.1803   -0.0274    3.4902 H   0  0  0  0  0  0  0  0  0  0  0  0
   -4.5405   -3.0376    1.5478 H   0  0  0  0  0  0  0  0  0  0  0  0
   -3.3398   -3.9135    2.5094 H   0  0  0  0  0  0  0  0  0  0  0  0
   -2.4208   -3.1995    0.2620 H   0  0  0  0  0  0  0  0  0  0  0  0
   -1.5033   -2.5236    1.6191 H   0  0  0  0  0  0  0  0  0  0  0  0
    1.7155    1.9019    0.7683 H   0  0  0  0  0  0  0  0  0  0  0  0
    0.5118    1.1557    2.7732 H   0  0  0  0  0  0  0  0  0  0  0  0
    1.9772   -2.8507    2.1854 H   0  0  0  0  0  0  0  0  0  0  0  0
    3.2129   -2.1033    0.1814 H   0  0  0  0  0  0  0  0  0  0  0  0
    6.4398    1.5038    0.6327 H   0  0  0  0  0  0  0  0  0  0  0  0
    5.0767    0.7306    1.4815 H   0  0  0  0  0  0  0  0  0  0  0  0
    5.9232   -0.1337    0.1454 H   0  0  0  0  0  0  0  0  0  0  0  0
  1  2  1  0
  2  3  1  0
  3  4  2  0
  3  5  1  0
  5  6  1  0
  6  7  2  0
  7  8  1  0
  8  9  2  0
  9 10  1  0
 10 11  2  0
 11 12  1  0
 12 13  2  0
 12 14  1  0
 14 15  1  0
 15 16  1  0
 16 17  1  0
 17 18  1  0
 18 19  1  0
  2 20  1  0
 20 21  1  0
 21 22  2  0
 22 23  1  0
 23 24  2  0
 24 25  1  0
 24 26  1  0
 26 27  2  0
 20 28  1  0
 28 29  1  0
 28 30  2  0
 28 31  2  0
 11  6  1  0
 19 14  1  0
 27 21  1  0
  1 32  1  0
  1 33  1  0
  1 34  1  0
  2 35  1  0
  5 36  1  0
  7 37  1  0
  8 38  1  0
  9 39  1  0
 10 40  1  0
 15 41  1  0
 15 42  1  0
 16 43  1  0
 16 44  1  0
 18 45  1  0
 18 46  1  0
 19 47  1  0
 19 48  1  0
 22 49  1  0
 23 50  1  0
 26 51  1  0
 27 52  1  0
 29 53  1  0
 29 54  1  0
 29 55  1  0
M  END
$$$$
