
     RDKit          3D

 49 52  0  0  0  0  0  0  0  0999 V2000
   -3.8972   -5.1413   -1.6065 C   0  0  0  0  0  0  0  0  0  0  0  0
   -3.0818   -4.1498   -2.2177 O   0  0  0  0  0  0  0  0  0  0  0  0
   -2.6251   -3.1448   -1.4101 C   0  0  0  0  0  0  0  0  0  0  0  0
   -1.8205   -2.2008   -2.0498 C   0  0  0  0  0  0  0  0  0  0  0  0
   -1.2881   -1.1183   -1.3437 C   0  0  0  0  0  0  0  0  0  0  0  0
   -1.5473   -0.9610    0.0257 C   0  0  0  0  0  0  0  0  0  0  0  0
   -0.9944    0.2281    0.8165 C   0  0  0  0  0  0  0  0  0  0  0  0
    0.4680    0.3360    0.6213 N   0  0  0  0  0  0  0  0  0  0  0  0
    0.9013    1.2910   -0.1263 C   0  0  0  0  0  0  0  0  0  0  0  0
    2.2072    1.5145   -0.4872 N   0  0  0  0  0  0  0  0  0  0  0  0
    3.3675    0.8002   -0.1198 C   0  0  0  0  0  0  0  0  0  0  0  0
    3.4179   -0.1399    0.9127 C   0  0  0  0  0  0  0  0  0  0  0  0
    4.6128   -0.7906    1.2473 C   0  0  0  0  0  0  0  0  0  0  0  0
    5.7942   -0.5125    0.5565 C   0  0  0  0  0  0  0  0  0  0  0  0
    7.0777   -1.1862    0.9388 C   0  0  0  0  0  0  0  0  0  0  0  0
    5.7676    0.4502   -0.4534 C   0  0  0  0  0  0  0  0  0  0  0  0
    4.5707    1.0963   -0.7838 C   0  0  0  0  0  0  0  0  0  0  0  0
    0.0562    2.2224   -0.6481 N   0  0  0  0  0  0  0  0  0  0  0  0
   -1.2380    2.3951   -0.2787 C   0  0  0  0  0  0  0  0  0  0  0  0
   -1.8894    3.4506   -0.6663 N   0  0  0  0  0  0  0  0  0  0  0  0
   -3.1771    3.6027   -0.2186 C   0  0  0  0  0  0  0  0  0  0  0  0
   -3.8976    4.8165   -0.7317 C   0  0  0  0  0  0  0  0  0  0  0  0
   -3.7690    2.7531    0.6283 C   0  0  0  0  0  0  0  0  0  0  0  0
   -3.0161    1.5759    1.0899 C   0  0  0  0  0  0  0  0  0  0  0  0
   -3.5319    0.8211    1.9096 O   0  0  0  0  0  0  0  0  0  0  0  0
   -1.7608    1.4355    0.5472 N   0  0  0  0  0  0  0  0  0  0  0  0
   -2.3610   -1.9140    0.6591 C   0  0  0  0  0  0  0  0  0  0  0  0
   -2.8948   -2.9963   -0.0510 C   0  0  0  0  0  0  0  0  0  0  0  0
   -3.3496   -5.6758   -0.8231 H   0  0  0  0  0  0  0  0  0  0  0  0
   -4.1714   -5.8693   -2.3761 H   0  0  0  0  0  0  0  0  0  0  0  0
   -4.8229   -4.7056   -1.2161 H   0  0  0  0  0  0  0  0  0  0  0  0
   -1.6043   -2.3093   -3.1097 H   0  0  0  0  0  0  0  0  0  0  0  0
   -0.6638   -0.4046   -1.8737 H   0  0  0  0  0  0  0  0  0  0  0  0
   -1.1268    0.0086    1.8843 H   0  0  0  0  0  0  0  0  0  0  0  0
    2.3496    2.0734   -1.3157 H   0  0  0  0  0  0  0  0  0  0  0  0
    2.5331   -0.3890    1.4904 H   0  0  0  0  0  0  0  0  0  0  0  0
    4.6063   -1.5165    2.0576 H   0  0  0  0  0  0  0  0  0  0  0  0
    6.8908   -2.1972    1.3160 H   0  0  0  0  0  0  0  0  0  0  0  0
    7.5877   -0.6074    1.7150 H   0  0  0  0  0  0  0  0  0  0  0  0
    7.7421   -1.2806    0.0735 H   0  0  0  0  0  0  0  0  0  0  0  0
    6.6774    0.7069   -0.9912 H   0  0  0  0  0  0  0  0  0  0  0  0
    4.5951    1.8407   -1.5757 H   0  0  0  0  0  0  0  0  0  0  0  0
    0.4428    3.0298   -1.1109 H   0  0  0  0  0  0  0  0  0  0  0  0
   -3.3588    5.7262   -0.4466 H   0  0  0  0  0  0  0  0  0  0  0  0
   -4.9155    4.8920   -0.3347 H   0  0  0  0  0  0  0  0  0  0  0  0
   -3.9661    4.7827   -1.8241 H   0  0  0  0  0  0  0  0  0  0  0  0
   -4.7787    2.8716    0.9964 H   0  0  0  0  0  0  0  0  0  0  0  0
   -2.5982   -1.8120    1.7173 H   0  0  0  0  0  0  0  0  0  0  0  0
   -3.5197   -3.6985    0.4902 H   0  0  0  0  0  0  0  0  0  0  0  0
  1  2  1  0
  2  3  1  0
  3  4  2  0
  4  5  1  0
  5  6  2  0
  6  7  1  0
  7  8  1  0
  8  9  2  0
  9 10  1  0
 10 11  1  0
 11 12  2  0
 12 13  1  0
 13 14  2  0
 14 15  1  0
 14 16  1  0
 16 17  2  0
  9 18  1  0
 18 19  1  0
 19 20  2  0
 20 21  1  0
 21 22  1  0
 21 23  2  0
 23 24  1  0
 24 25  2  0
 24 26  1  0
  6 27  1  0
 27 28  2  0
 28  3  1  0
 26  7  1  0
 17 11  1  0
 26 19  1  0
  1 29  1  0
  1 30  1  0
  1 31  1  0
  4 32  1  0
  5 33  1  0
  7 34  1  0
 10 35  1  0
 12 36  1  0
 13 37  1  0
 15 38  1  0
 15 39  1  0
 15 40  1  0
 16 41  1  0
 17 42  1  0
 18 43  1  0
 22 44  1  0
 22 45  1  0
 22 46  1  0
 23 47  1  0
 27 48  1  0
 28 49  1  0
M  END
$$$$
