
     RDKit          3D

 55 59  0  0  0  0  0  0  0  0999 V2000
    3.5405    0.2005   -2.0884 C   0  0  0  0  0  0  0  0  0  0  0  0
    3.9235    0.0677   -0.7046 N   0  0  0  0  0  0  0  0  0  0  0  0
    3.0705   -0.1008    0.3652 C   0  0  0  0  0  0  0  0  0  0  0  0
    1.7186   -0.0705    0.2095 N   0  0  0  0  0  0  0  0  0  0  0  0
    0.9575   -0.9400    1.1378 C   0  0  0  0  0  0  0  0  0  0  0  0
   -0.5055   -0.4708    1.3476 C   0  0  0  0  0  0  0  0  0  0  0  0
   -1.1349    0.0147    0.1017 N   0  0  0  0  0  0  0  0  0  0  0  0
   -2.5731    0.3579    0.2803 C   0  0  0  0  0  0  0  0  0  0  0  0
   -3.2212    0.9528   -0.9790 C   0  0  0  0  0  0  0  0  0  0  0  0
   -3.0623    0.3596   -2.2432 C   0  0  0  0  0  0  0  0  0  0  0  0
   -3.6722    0.9085   -3.3725 C   0  0  0  0  0  0  0  0  0  0  0  0
   -4.4550    2.0546   -3.2546 C   0  0  0  0  0  0  0  0  0  0  0  0
   -4.6308    2.6516   -2.0081 C   0  0  0  0  0  0  0  0  0  0  0  0
   -4.0212    2.1041   -0.8773 C   0  0  0  0  0  0  0  0  0  0  0  0
   -3.4234   -0.8152    0.7857 C   0  0  0  0  0  0  0  0  0  0  0  0
   -3.3142   -2.1014    0.2285 C   0  0  0  0  0  0  0  0  0  0  0  0
   -4.1083   -3.1514    0.6926 C   0  0  0  0  0  0  0  0  0  0  0  0
   -5.0279   -2.9308    1.7153 C   0  0  0  0  0  0  0  0  0  0  0  0
   -5.1561   -1.6609    2.2736 C   0  0  0  0  0  0  0  0  0  0  0  0
   -4.3622   -0.6091    1.8113 C   0  0  0  0  0  0  0  0  0  0  0  0
   -0.3465    1.1612   -0.4238 C   0  0  0  0  0  0  0  0  0  0  0  0
    1.1219    1.2652    0.0642 C   0  0  0  0  0  0  0  0  0  0  0  0
    3.7468   -0.3146    1.4712 N   0  0  0  0  0  0  0  0  0  0  0  0
    5.0704   -0.2239    1.1244 C   0  0  0  0  0  0  0  0  0  0  0  0
    6.2127   -0.3460    1.9298 C   0  0  0  0  0  0  0  0  0  0  0  0
    7.4740   -0.2097    1.3377 C   0  0  0  0  0  0  0  0  0  0  0  0
    7.5960    0.0417   -0.0300 C   0  0  0  0  0  0  0  0  0  0  0  0
    6.4680    0.1639   -0.8502 C   0  0  0  0  0  0  0  0  0  0  0  0
    5.2167    0.0252   -0.2364 C   0  0  0  0  0  0  0  0  0  0  0  0
    2.5749   -0.2818   -2.2579 H   0  0  0  0  0  0  0  0  0  0  0  0
    3.4826    1.2655   -2.3259 H   0  0  0  0  0  0  0  0  0  0  0  0
    4.2883   -0.2866   -2.7194 H   0  0  0  0  0  0  0  0  0  0  0  0
    0.9499   -1.9521    0.7142 H   0  0  0  0  0  0  0  0  0  0  0  0
    1.4316   -0.9984    2.1257 H   0  0  0  0  0  0  0  0  0  0  0  0
   -0.5246    0.3229    2.1072 H   0  0  0  0  0  0  0  0  0  0  0  0
   -1.0492   -1.3201    1.7744 H   0  0  0  0  0  0  0  0  0  0  0  0
   -2.6037    1.1361    1.0579 H   0  0  0  0  0  0  0  0  0  0  0  0
   -2.4525   -0.5348   -2.3508 H   0  0  0  0  0  0  0  0  0  0  0  0
   -3.5380    0.4378   -4.3427 H   0  0  0  0  0  0  0  0  0  0  0  0
   -4.9328    2.4790   -4.1335 H   0  0  0  0  0  0  0  0  0  0  0  0
   -5.2481    3.5413   -1.9152 H   0  0  0  0  0  0  0  0  0  0  0  0
   -4.1791    2.5804    0.0875 H   0  0  0  0  0  0  0  0  0  0  0  0
   -2.5974   -2.2896   -0.5678 H   0  0  0  0  0  0  0  0  0  0  0  0
   -4.0084   -4.1404    0.2536 H   0  0  0  0  0  0  0  0  0  0  0  0
   -5.6472   -3.7483    2.0744 H   0  0  0  0  0  0  0  0  0  0  0  0
   -5.8781   -1.4880    3.0674 H   0  0  0  0  0  0  0  0  0  0  0  0
   -4.4840    0.3760    2.2554 H   0  0  0  0  0  0  0  0  0  0  0  0
   -0.8224    2.1213   -0.1856 H   0  0  0  0  0  0  0  0  0  0  0  0
   -0.3290    1.0728   -1.5167 H   0  0  0  0  0  0  0  0  0  0  0  0
    1.1533    1.7873    1.0303 H   0  0  0  0  0  0  0  0  0  0  0  0
    1.6811    1.8803   -0.6510 H   0  0  0  0  0  0  0  0  0  0  0  0
    6.1083   -0.5419    2.9909 H   0  0  0  0  0  0  0  0  0  0  0  0
    8.3660   -0.3021    1.9525 H   0  0  0  0  0  0  0  0  0  0  0  0
    8.5869    0.1428   -0.4681 H   0  0  0  0  0  0  0  0  0  0  0  0
    6.5692    0.3568   -1.9123 H   0  0  0  0  0  0  0  0  0  0  0  0
  1  2  1  0
  2  3  1  0
  3  4  1  0
  4  5  1  0
  5  6  1  0
  6  7  1  0
  7  8  1  0
  8  9  1  0
  9 10  2  0
 10 11  1  0
 11 12  2  0
 12 13  1  0
 13 14  2  0
  8 15  1  0
 15 16  2  0
 16 17  1  0
 17 18  2  0
 18 19  1  0
 19 20  2  0
  7 21  1  0
 21 22  1  0
  3 23  2  0
 23 24  1  0
 24 25  2  0
 25 26  1  0
 26 27  2  0
 27 28  1  0
 28 29  2  0
 29  2  1  0
 22  4  1  0
 29 24  1  0
 14  9  1  0
 20 15  1  0
  1 30  1  0
  1 31  1  0
  1 32  1  0
  5 33  1  0
  5 34  1  0
  6 35  1  0
  6 36  1  0
  8 37  1  0
 10 38  1  0
 11 39  1  0
 12 40  1  0
 13 41  1  0
 14 42  1  0
 16 43  1  0
 17 44  1  0
 18 45  1  0
 19 46  1  0
 20 47  1  0
 21 48  1  0
 21 49  1  0
 22 50  1  0
 22 51  1  0
 25 52  1  0
 26 53  1  0
 27 54  1  0
 28 55  1  0
M  END
$$$$
