
     RDKit          3D

 46 49  0  0  0  0  0  0  0  0999 V2000
   -3.0283   -1.9211    0.6781 C   0  0  0  0  0  0  0  0  0  0  0  0
   -2.3579   -2.1260   -0.6016 N   0  0  0  0  0  0  0  0  0  0  0  0
   -3.2909   -2.3172   -1.7085 C   0  0  0  0  0  0  0  0  0  0  0  0
   -1.3951   -1.1118   -0.8802 N   0  0  0  0  0  0  0  0  0  0  0  0
   -1.8160    0.2161   -1.1068 C   0  0  0  0  0  0  0  0  0  0  0  0
   -3.0303    0.6603   -0.9478 N   0  0  0  0  0  0  0  0  0  0  0  0
   -0.7416    1.1949   -1.5973 C   0  0  0  0  0  0  0  0  0  0  0  0
   -0.6487    1.0648   -3.0629 C   0  0  0  0  0  0  0  0  0  0  0  0
   -0.5620    0.9744   -4.2167 N   0  0  0  0  0  0  0  0  0  0  0  0
    0.6276    0.9217   -0.9402 C   0  0  0  0  0  0  0  0  0  0  0  0
    0.7552    1.6346    0.4103 C   0  0  0  0  0  0  0  0  0  0  0  0
   -0.0884    1.3298    1.5073 C   0  0  0  0  0  0  0  0  0  0  0  0
    0.0405    1.9998    2.7295 C   0  0  0  0  0  0  0  0  0  0  0  0
    1.0178    2.9628    2.8357 C   0  0  0  0  0  0  0  0  0  0  0  0
    1.8484    3.2649    1.7852 C   0  0  0  0  0  0  0  0  0  0  0  0
    1.7463    2.6224    0.5688 C   0  0  0  0  0  0  0  0  0  0  0  0
    2.7441    4.2397    2.0956 O   0  0  0  0  0  0  0  0  0  0  0  0
    2.3910    4.5050    3.4688 C   0  0  0  0  0  0  0  0  0  0  0  0
    1.2850    3.7074    3.9412 O   0  0  0  0  0  0  0  0  0  0  0  0
    0.9353   -0.5561   -0.8333 C   0  0  0  0  0  0  0  0  0  0  0  0
   -0.0394   -1.4913   -0.8315 C   0  0  0  0  0  0  0  0  0  0  0  0
    0.2911   -2.9746   -0.7675 C   0  0  0  0  0  0  0  0  0  0  0  0
    1.7239   -3.2963   -1.1796 C   0  0  0  0  0  0  0  0  0  0  0  0
    2.7091   -2.3905   -0.4699 C   0  0  0  0  0  0  0  0  0  0  0  0
    2.3742   -0.9462   -0.7453 C   0  0  0  0  0  0  0  0  0  0  0  0
    3.2558   -0.0962   -0.8513 O   0  0  0  0  0  0  0  0  0  0  0  0
   -2.2974   -1.7609    1.4789 H   0  0  0  0  0  0  0  0  0  0  0  0
   -3.7308   -1.0829    0.6806 H   0  0  0  0  0  0  0  0  0  0  0  0
   -3.5918   -2.8216    0.9477 H   0  0  0  0  0  0  0  0  0  0  0  0
   -4.0006   -1.4941   -1.8336 H   0  0  0  0  0  0  0  0  0  0  0  0
   -3.8725   -3.2321   -1.5481 H   0  0  0  0  0  0  0  0  0  0  0  0
   -2.7503   -2.4530   -2.6522 H   0  0  0  0  0  0  0  0  0  0  0  0
   -3.1195    1.6535   -1.1836 H   0  0  0  0  0  0  0  0  0  0  0  0
   -1.0642    2.2194   -1.3694 H   0  0  0  0  0  0  0  0  0  0  0  0
    1.3811    1.3658   -1.6085 H   0  0  0  0  0  0  0  0  0  0  0  0
   -0.8539    0.5606    1.4323 H   0  0  0  0  0  0  0  0  0  0  0  0
   -0.6048    1.7665    3.5693 H   0  0  0  0  0  0  0  0  0  0  0  0
    2.4346    2.8758   -0.2326 H   0  0  0  0  0  0  0  0  0  0  0  0
    3.2637    4.3041    4.1010 H   0  0  0  0  0  0  0  0  0  0  0  0
    2.1245    5.5639    3.5637 H   0  0  0  0  0  0  0  0  0  0  0  0
    0.1141   -3.3316    0.2549 H   0  0  0  0  0  0  0  0  0  0  0  0
   -0.3682   -3.5437   -1.4339 H   0  0  0  0  0  0  0  0  0  0  0  0
    1.8251   -3.1703   -2.2657 H   0  0  0  0  0  0  0  0  0  0  0  0
    1.9484   -4.3455   -0.9571 H   0  0  0  0  0  0  0  0  0  0  0  0
    3.7208   -2.5937   -0.8370 H   0  0  0  0  0  0  0  0  0  0  0  0
    2.6948   -2.5516    0.6133 H   0  0  0  0  0  0  0  0  0  0  0  0
  1  2  1  0
  2  3  1  0
  2  4  1  0
  4  5  1  0
  5  6  2  3
  5  7  1  0
  7  8  1  0
  8  9  3  0
  7 10  1  0
 10 11  1  0
 11 12  2  0
 12 13  1  0
 13 14  2  0
 14 15  1  0
 15 16  2  0
 15 17  1  0
 17 18  1  0
 18 19  1  0
 10 20  1  0
 20 21  2  0
 21 22  1  0
 22 23  1  0
 23 24  1  0
 24 25  1  0
 25 26  2  0
 21  4  1  0
 16 11  1  0
 25 20  1  0
 19 14  1  0
  1 27  1  0
  1 28  1  0
  1 29  1  0
  3 30  1  0
  3 31  1  0
  3 32  1  0
  6 33  1  0
  7 34  1  0
 10 35  1  0
 12 36  1  0
 13 37  1  0
 16 38  1  0
 18 39  1  0
 18 40  1  0
 22 41  1  0
 22 42  1  0
 23 43  1  0
 23 44  1  0
 24 45  1  0
 24 46  1  0
M  END
$$$$
