
     RDKit          3D

 51 54  0  0  0  0  0  0  0  0999 V2000
    3.6077    1.9550    2.8372 C   0  0  0  0  0  0  0  0  0  0  0  0
    2.6070    2.1895    1.6999 C   0  0  0  0  0  0  0  0  0  0  0  0
    1.1612    2.1897    2.2265 C   0  0  0  0  0  0  0  0  0  0  0  0
    0.6881    0.8349    1.7982 C   0  0  0  0  0  0  0  0  0  0  0  0
   -0.4931    0.2146    2.1817 C   0  0  0  0  0  0  0  0  0  0  0  0
   -0.7773   -1.0369    1.6328 C   0  0  0  0  0  0  0  0  0  0  0  0
   -2.2735   -1.8708    2.1085 S   0  0  0  0  0  6  0  0  0  0  0  0
   -2.1915   -3.2382    1.6467 O   0  0  0  0  0  0  0  0  0  0  0  0
   -2.5330   -1.5441    3.4926 O   0  0  0  0  0  0  0  0  0  0  0  0
   -3.4312   -1.0851    1.2020 N   0  0  0  0  0  0  0  0  0  0  0  0
   -3.3536   -1.1144   -0.2514 C   0  0  0  0  0  0  0  0  0  0  0  0
   -4.6398   -0.6220   -0.8673 C   0  0  0  0  0  0  0  0  0  0  0  0
   -4.7060    0.6310   -1.4932 C   0  0  0  0  0  0  0  0  0  0  0  0
   -5.9052    1.0803   -2.0489 C   0  0  0  0  0  0  0  0  0  0  0  0
   -7.0488    0.2865   -1.9792 C   0  0  0  0  0  0  0  0  0  0  0  0
   -6.9966   -0.9568   -1.3520 C   0  0  0  0  0  0  0  0  0  0  0  0
   -5.7991   -1.4087   -0.7968 C   0  0  0  0  0  0  0  0  0  0  0  0
    0.1145   -1.6525    0.7409 C   0  0  0  0  0  0  0  0  0  0  0  0
    1.2972   -1.0026    0.3612 C   0  0  0  0  0  0  0  0  0  0  0  0
    1.5755    0.2497    0.8841 C   0  0  0  0  0  0  0  0  0  0  0  0
    2.6771    1.1059    0.6887 N   0  0  0  0  0  0  0  0  0  0  0  0
    3.7297    1.0756   -0.2247 C   0  0  0  0  0  0  0  0  0  0  0  0
    4.6333    1.9237   -0.1382 O   0  0  0  0  0  0  0  0  0  0  0  0
    3.7324    0.0290   -1.3694 C   0  0  0  0  0  0  0  0  0  0  0  0
    4.4935   -1.3033   -1.1130 C   0  0  0  0  0  0  0  0  0  0  0  0
    5.7092   -0.6910   -1.8289 C   0  0  0  0  0  0  0  0  0  0  0  0
    4.7305    0.2551   -2.5447 C   0  0  0  0  0  0  0  0  0  0  0  0
    3.4302    0.9954    3.3353 H   0  0  0  0  0  0  0  0  0  0  0  0
    3.5301    2.7485    3.5878 H   0  0  0  0  0  0  0  0  0  0  0  0
    4.6375    1.9447    2.4673 H   0  0  0  0  0  0  0  0  0  0  0  0
    2.8377    3.1495    1.2219 H   0  0  0  0  0  0  0  0  0  0  0  0
    1.0964    2.3348    3.3088 H   0  0  0  0  0  0  0  0  0  0  0  0
    0.5659    2.9559    1.7178 H   0  0  0  0  0  0  0  0  0  0  0  0
   -1.1692    0.6881    2.8882 H   0  0  0  0  0  0  0  0  0  0  0  0
   -3.8848   -0.2930    1.6517 H   0  0  0  0  0  0  0  0  0  0  0  0
   -2.5275   -0.4774   -0.5857 H   0  0  0  0  0  0  0  0  0  0  0  0
   -3.1546   -2.1288   -0.6148 H   0  0  0  0  0  0  0  0  0  0  0  0
   -3.8255    1.2664   -1.5553 H   0  0  0  0  0  0  0  0  0  0  0  0
   -5.9489    2.0512   -2.5362 H   0  0  0  0  0  0  0  0  0  0  0  0
   -7.9821    0.6377   -2.4114 H   0  0  0  0  0  0  0  0  0  0  0  0
   -7.8892   -1.5744   -1.2930 H   0  0  0  0  0  0  0  0  0  0  0  0
   -5.7713   -2.3786   -0.3024 H   0  0  0  0  0  0  0  0  0  0  0  0
   -0.0990   -2.6438    0.3439 H   0  0  0  0  0  0  0  0  0  0  0  0
    1.9681   -1.5269   -0.3036 H   0  0  0  0  0  0  0  0  0  0  0  0
    2.7248   -0.1030   -1.7827 H   0  0  0  0  0  0  0  0  0  0  0  0
    4.0601   -2.1642   -1.6356 H   0  0  0  0  0  0  0  0  0  0  0  0
    4.6578   -1.5725   -0.0658 H   0  0  0  0  0  0  0  0  0  0  0  0
    6.2722   -1.3697   -2.4743 H   0  0  0  0  0  0  0  0  0  0  0  0
    6.4065   -0.1794   -1.1559 H   0  0  0  0  0  0  0  0  0  0  0  0
    4.3682   -0.1315   -3.5053 H   0  0  0  0  0  0  0  0  0  0  0  0
    5.0886    1.2768   -2.6964 H   0  0  0  0  0  0  0  0  0  0  0  0
  1  2  1  0
  2  3  1  0
  3  4  1  0
  4  5  2  0
  5  6  1  0
  6  7  1  0
  7  8  2  0
  7  9  2  0
  7 10  1  0
 10 11  1  0
 11 12  1  0
 12 13  2  0
 13 14  1  0
 14 15  2  0
 15 16  1  0
 16 17  2  0
  6 18  2  0
 18 19  1  0
 19 20  2  0
 20 21  1  0
 21 22  1  0
 22 23  2  0
 22 24  1  0
 24 25  1  0
 25 26  1  0
 26 27  1  0
 21  2  1  0
 27 24  1  0
 20  4  1  0
 17 12  1  0
  1 28  1  0
  1 29  1  0
  1 30  1  0
  2 31  1  0
  3 32  1  0
  3 33  1  0
  5 34  1  0
 10 35  1  0
 11 36  1  0
 11 37  1  0
 13 38  1  0
 14 39  1  0
 15 40  1  0
 16 41  1  0
 17 42  1  0
 18 43  1  0
 19 44  1  0
 24 45  1  0
 25 46  1  0
 25 47  1  0
 26 48  1  0
 26 49  1  0
 27 50  1  0
 27 51  1  0
M  END
$$$$
