
     RDKit          3D

 40 42  0  0  0  0  0  0  0  0999 V2000
    6.7210   -2.4861    1.0733 C   0  0  0  0  0  0  0  0  0  0  0  0
    5.3404   -1.9019    1.1478 C   0  0  0  0  0  0  0  0  0  0  0  0
    4.3387   -2.5687    1.8687 C   0  0  0  0  0  0  0  0  0  0  0  0
    3.0567   -2.0247    1.9678 C   0  0  0  0  0  0  0  0  0  0  0  0
    2.7763   -0.8067    1.3403 C   0  0  0  0  0  0  0  0  0  0  0  0
    1.1510   -0.1000    1.4685 S   0  0  0  0  0  6  0  0  0  0  0  0
    0.4276   -0.8193    2.4957 O   0  0  0  0  0  0  0  0  0  0  0  0
    1.3039    1.3387    1.4912 O   0  0  0  0  0  0  0  0  0  0  0  0
    0.4875   -0.5917   -0.0315 N   0  0  0  0  0  0  0  0  0  0  0  0
   -0.6733    0.2253   -0.4363 C   0  0  0  0  0  0  0  0  0  0  0  0
   -1.9828   -0.1812   -0.3730 C   0  0  0  0  0  0  0  0  0  0  0  0
   -2.7478    0.9084   -0.8805 C   0  0  0  0  0  0  0  0  0  0  0  0
   -4.2074    1.0069   -1.0181 C   0  0  0  0  0  0  0  0  0  0  0  0
   -4.7805    2.0321   -1.7870 C   0  0  0  0  0  0  0  0  0  0  0  0
   -6.1671    2.1362   -1.9285 C   0  0  0  0  0  0  0  0  0  0  0  0
   -7.0016    1.2155   -1.3001 C   0  0  0  0  0  0  0  0  0  0  0  0
   -6.4508    0.1946   -0.5286 C   0  0  0  0  0  0  0  0  0  0  0  0
   -5.0626    0.0905   -0.3877 C   0  0  0  0  0  0  0  0  0  0  0  0
   -1.9362    1.9108   -1.2625 N   0  0  0  0  0  0  0  0  0  0  0  0
   -0.6934    1.4807   -0.9725 N   0  0  0  0  0  0  0  0  0  0  0  0
    0.4297    2.3230   -1.2971 C   0  0  0  0  0  0  0  0  0  0  0  0
    3.7704   -0.1172    0.6391 C   0  0  0  0  0  0  0  0  0  0  0  0
    5.0506   -0.6672    0.5455 C   0  0  0  0  0  0  0  0  0  0  0  0
    7.3065   -2.0224    0.2715 H   0  0  0  0  0  0  0  0  0  0  0  0
    7.2456   -2.3296    2.0222 H   0  0  0  0  0  0  0  0  0  0  0  0
    6.6710   -3.5605    0.8631 H   0  0  0  0  0  0  0  0  0  0  0  0
    4.5559   -3.5154    2.3617 H   0  0  0  0  0  0  0  0  0  0  0  0
    2.2944   -2.5528    2.5381 H   0  0  0  0  0  0  0  0  0  0  0  0
    0.2183   -1.5724    0.0750 H   0  0  0  0  0  0  0  0  0  0  0  0
   -2.3497   -1.1274   -0.0032 H   0  0  0  0  0  0  0  0  0  0  0  0
   -4.1437    2.7616   -2.2842 H   0  0  0  0  0  0  0  0  0  0  0  0
   -6.5898    2.9372   -2.5293 H   0  0  0  0  0  0  0  0  0  0  0  0
   -8.0800    1.2970   -1.4085 H   0  0  0  0  0  0  0  0  0  0  0  0
   -7.1014   -0.5202   -0.0317 H   0  0  0  0  0  0  0  0  0  0  0  0
   -4.6665   -0.7109    0.2310 H   0  0  0  0  0  0  0  0  0  0  0  0
    0.5022    3.1062   -0.5374 H   0  0  0  0  0  0  0  0  0  0  0  0
    0.2618    2.7672   -2.2834 H   0  0  0  0  0  0  0  0  0  0  0  0
    1.3443    1.7253   -1.3220 H   0  0  0  0  0  0  0  0  0  0  0  0
    3.5586    0.8430    0.1738 H   0  0  0  0  0  0  0  0  0  0  0  0
    5.8224   -0.1239    0.0032 H   0  0  0  0  0  0  0  0  0  0  0  0
  1  2  1  0
  2  3  2  0
  3  4  1  0
  4  5  2  0
  5  6  1  0
  6  7  2  0
  6  8  2  0
  6  9  1  0
  9 10  1  0
 10 11  2  0
 11 12  1  0
 12 13  1  0
 13 14  2  0
 14 15  1  0
 15 16  2  0
 16 17  1  0
 17 18  2  0
 12 19  2  0
 19 20  1  0
 20 21  1  0
  5 22  1  0
 22 23  2  0
 23  2  1  0
 20 10  1  0
 18 13  1  0
  1 24  1  0
  1 25  1  0
  1 26  1  0
  3 27  1  0
  4 28  1  0
  9 29  1  0
 11 30  1  0
 14 31  1  0
 15 32  1  0
 16 33  1  0
 17 34  1  0
 18 35  1  0
 21 36  1  0
 21 37  1  0
 21 38  1  0
 22 39  1  0
 23 40  1  0
M  END
$$$$
