
     RDKit          3D

 48 51  0  0  0  0  0  0  0  0999 V2000
    4.2693    2.0488   -1.2074 C   0  0  0  0  0  0  0  0  0  0  0  0
    3.1723    0.9862   -1.2015 C   0  0  0  0  0  0  0  0  0  0  0  0
    1.8294    1.6071   -1.5874 C   0  0  0  0  0  0  0  0  0  0  0  0
    3.1012    0.3003    0.1684 C   0  0  0  0  0  0  0  0  0  0  0  0
    2.1363   -0.7571    0.1190 O   0  0  0  0  0  0  0  0  0  0  0  0
    2.0669   -1.4931    1.2577 C   0  0  0  0  0  0  0  0  0  0  0  0
    2.7759   -1.3709    2.2444 O   0  0  0  0  0  0  0  0  0  0  0  0
    1.0958   -2.5950    1.0654 C   0  0  0  0  0  0  0  0  0  0  0  0
    1.5821   -3.8771    1.3782 C   0  0  0  0  0  0  0  0  0  0  0  0
    0.8251   -5.0129    1.0942 C   0  0  0  0  0  0  0  0  0  0  0  0
   -0.4205   -4.8784    0.4890 C   0  0  0  0  0  0  0  0  0  0  0  0
   -0.9232   -3.6090    0.1908 C   0  0  0  0  0  0  0  0  0  0  0  0
   -0.1825   -2.4528    0.4960 C   0  0  0  0  0  0  0  0  0  0  0  0
   -0.7917   -1.1786    0.2765 N   0  0  0  0  0  0  0  0  0  0  0  0
   -0.7442   -0.0787    1.1604 C   0  0  0  0  0  0  0  0  0  0  0  0
   -0.1366   -0.1337    2.3401 O   0  0  0  0  0  0  0  0  0  0  0  0
   -1.4706    0.9234    0.5894 C   0  0  0  0  0  0  0  0  0  0  0  0
   -2.0226    0.4546   -0.6146 C   0  0  0  0  0  0  0  0  0  0  0  0
   -1.6253   -0.8352   -0.8120 C   0  0  0  0  0  0  0  0  0  0  0  0
   -1.8764   -1.6641   -1.8213 O   0  0  0  0  0  0  0  0  0  0  0  0
   -2.8450    1.5657   -1.1881 C   0  0  0  0  0  0  0  0  0  0  0  0
   -4.0848    1.7559   -0.2759 C   0  0  0  0  0  0  0  0  0  0  0  0
   -3.4755    2.2732    1.0689 C   0  0  0  0  0  0  0  0  0  0  0  0
   -1.9524    2.3267    0.7823 C   0  0  0  0  0  0  0  0  0  0  0  0
   -1.9987    2.7908   -0.7107 C   0  0  0  0  0  0  0  0  0  0  0  0
    4.3490    2.5207   -2.1925 H   0  0  0  0  0  0  0  0  0  0  0  0
    5.2421    1.6050   -0.9708 H   0  0  0  0  0  0  0  0  0  0  0  0
    4.0665    2.8339   -0.4710 H   0  0  0  0  0  0  0  0  0  0  0  0
    3.4127    0.2286   -1.9583 H   0  0  0  0  0  0  0  0  0  0  0  0
    1.8998    2.1172   -2.5540 H   0  0  0  0  0  0  0  0  0  0  0  0
    1.5030    2.3392   -0.8412 H   0  0  0  0  0  0  0  0  0  0  0  0
    1.0533    0.8412   -1.6771 H   0  0  0  0  0  0  0  0  0  0  0  0
    4.0842   -0.1171    0.4195 H   0  0  0  0  0  0  0  0  0  0  0  0
    2.8084    1.0200    0.9428 H   0  0  0  0  0  0  0  0  0  0  0  0
    2.5693   -3.9909    1.8231 H   0  0  0  0  0  0  0  0  0  0  0  0
    1.2128   -5.9997    1.3333 H   0  0  0  0  0  0  0  0  0  0  0  0
   -1.0131   -5.7611    0.2611 H   0  0  0  0  0  0  0  0  0  0  0  0
   -1.9202   -3.5403   -0.2386 H   0  0  0  0  0  0  0  0  0  0  0  0
   -0.2456    0.7331    2.7684 H   0  0  0  0  0  0  0  0  0  0  0  0
   -2.4161   -1.1728   -2.4650 H   0  0  0  0  0  0  0  0  0  0  0  0
   -3.0421    1.5126   -2.2585 H   0  0  0  0  0  0  0  0  0  0  0  0
   -4.6442    0.8258   -0.1276 H   0  0  0  0  0  0  0  0  0  0  0  0
   -4.7641    2.5093   -0.6903 H   0  0  0  0  0  0  0  0  0  0  0  0
   -3.7232    1.6053    1.9010 H   0  0  0  0  0  0  0  0  0  0  0  0
   -3.8669    3.2715    1.2943 H   0  0  0  0  0  0  0  0  0  0  0  0
   -1.3602    2.9477    1.4540 H   0  0  0  0  0  0  0  0  0  0  0  0
   -1.0057    2.8222   -1.1747 H   0  0  0  0  0  0  0  0  0  0  0  0
   -2.5041    3.7523   -0.8530 H   0  0  0  0  0  0  0  0  0  0  0  0
  1  2  1  0
  2  3  1  0
  2  4  1  0
  4  5  1  0
  5  6  1  0
  6  7  2  0
  6  8  1  0
  8  9  2  0
  9 10  1  0
 10 11  2  0
 11 12  1  0
 12 13  2  0
 13 14  1  0
 14 15  1  0
 15 16  1  0
 15 17  2  0
 17 18  1  0
 18 19  2  0
 19 20  1  0
 18 21  1  0
 21 22  1  0
 22 23  1  0
 23 24  1  0
 24 25  1  0
 13  8  1  0
 19 14  1  0
 25 21  1  0
 24 17  1  0
  1 26  1  0
  1 27  1  0
  1 28  1  0
  2 29  1  0
  3 30  1  0
  3 31  1  0
  3 32  1  0
  4 33  1  0
  4 34  1  0
  9 35  1  0
 10 36  1  0
 11 37  1  0
 12 38  1  0
 16 39  1  0
 20 40  1  0
 21 41  1  0
 22 42  1  0
 22 43  1  0
 23 44  1  0
 23 45  1  0
 24 46  1  0
 25 47  1  0
 25 48  1  0
M  END
$$$$
