
     RDKit          3D

 49 53  0  0  0  0  0  0  0  0999 V2000
    6.2524    2.4555    1.7542 C   0  0  0  0  0  0  0  0  0  0  0  0
    5.9912    1.3714    0.8359 N   0  0  0  0  0  0  0  0  0  0  0  0
    6.9098    0.6704    0.1165 C   0  0  0  0  0  0  0  0  0  0  0  0
    6.1823   -0.2455   -0.6153 C   0  0  0  0  0  0  0  0  0  0  0  0
    6.7203   -1.1745   -1.5502 N   0  0  0  0  0  4  0  0  0  0  0  0
    7.6506   -1.8844   -1.1483 O   0  0  0  0  0  0  0  0  0  0  0  0
    6.2635   -1.1379   -2.6976 O   0  0  0  0  0  1  0  0  0  0  0  0
    4.8318   -0.0526   -0.2500 C   0  0  0  0  0  0  0  0  0  0  0  0
    3.6576   -0.8249   -0.6831 C   0  0  0  0  0  0  0  0  0  0  0  0
    3.7696   -1.8613   -1.3269 O   0  0  0  0  0  0  0  0  0  0  0  0
    2.4828   -0.2603   -0.2537 N   0  0  0  0  0  0  0  0  0  0  0  0
    1.2213   -0.7353   -0.4894 C   0  0  0  0  0  0  0  0  0  0  0  0
    0.8094   -1.8682   -1.2190 C   0  0  0  0  0  0  0  0  0  0  0  0
   -0.5623   -1.8710   -1.1353 C   0  0  0  0  0  0  0  0  0  0  0  0
   -0.9013   -0.7770   -0.3856 N   0  0  0  0  0  0  0  0  0  0  0  0
   -2.2598   -0.3499   -0.0177 C   0  0  0  0  0  0  0  0  0  0  0  0
   -3.0962   -0.0638   -1.2950 C   0  0  0  0  0  0  0  0  0  0  0  0
   -4.5319    0.3506   -0.9287 C   0  0  0  0  0  0  0  0  0  0  0  0
   -5.1959   -0.7797   -0.1248 C   0  0  0  0  0  0  0  0  0  0  0  0
   -4.4038   -1.0465    1.1660 C   0  0  0  0  0  0  0  0  0  0  0  0
   -4.3634    0.2358    2.0107 C   0  0  0  0  0  0  0  0  0  0  0  0
   -3.6943    1.3666    1.2150 C   0  0  0  0  0  0  0  0  0  0  0  0
   -4.4908    1.6255   -0.0728 C   0  0  0  0  0  0  0  0  0  0  0  0
   -2.2611    0.9471    0.8475 C   0  0  0  0  0  0  0  0  0  0  0  0
   -2.9679   -1.4628    0.8027 C   0  0  0  0  0  0  0  0  0  0  0  0
    0.1780   -0.0739    0.0152 N   0  0  0  0  0  0  0  0  0  0  0  0
    4.7210    0.9717    0.6289 N   0  0  0  0  0  0  0  0  0  0  0  0
    7.3280    2.6429    1.7983 H   0  0  0  0  0  0  0  0  0  0  0  0
    5.7318    3.3454    1.3919 H   0  0  0  0  0  0  0  0  0  0  0  0
    5.8820    2.1665    2.7409 H   0  0  0  0  0  0  0  0  0  0  0  0
    7.9708    0.8750    0.1666 H   0  0  0  0  0  0  0  0  0  0  0  0
    2.5366    0.5805    0.3092 H   0  0  0  0  0  0  0  0  0  0  0  0
    1.4226   -2.5902   -1.7398 H   0  0  0  0  0  0  0  0  0  0  0  0
   -1.3026   -2.5463   -1.5398 H   0  0  0  0  0  0  0  0  0  0  0  0
   -2.6199    0.7281   -1.8884 H   0  0  0  0  0  0  0  0  0  0  0  0
   -3.1354   -0.9504   -1.9408 H   0  0  0  0  0  0  0  0  0  0  0  0
   -5.1054    0.5389   -1.8432 H   0  0  0  0  0  0  0  0  0  0  0  0
   -5.2440   -1.6928   -0.7308 H   0  0  0  0  0  0  0  0  0  0  0  0
   -6.2295   -0.5063    0.1208 H   0  0  0  0  0  0  0  0  0  0  0  0
   -4.8865   -1.8483    1.7360 H   0  0  0  0  0  0  0  0  0  0  0  0
   -5.3812    0.5294    2.2955 H   0  0  0  0  0  0  0  0  0  0  0  0
   -3.8123    0.0547    2.9417 H   0  0  0  0  0  0  0  0  0  0  0  0
   -3.6676    2.2787    1.8217 H   0  0  0  0  0  0  0  0  0  0  0  0
   -5.5109    1.9436    0.1751 H   0  0  0  0  0  0  0  0  0  0  0  0
   -4.0314    2.4439   -0.6405 H   0  0  0  0  0  0  0  0  0  0  0  0
   -1.7729    1.7683    0.3055 H   0  0  0  0  0  0  0  0  0  0  0  0
   -1.6834    0.7922    1.7687 H   0  0  0  0  0  0  0  0  0  0  0  0
   -3.0023   -2.4018    0.2354 H   0  0  0  0  0  0  0  0  0  0  0  0
   -2.3994   -1.6769    1.7176 H   0  0  0  0  0  0  0  0  0  0  0  0
  1  2  1  0
  2  3  1  0
  3  4  2  0
  4  5  1  0
  5  6  2  0
  5  7  1  0
  4  8  1  0
  8  9  1  0
  9 10  2  0
  9 11  1  0
 11 12  1  0
 12 13  1  0
 13 14  2  0
 14 15  1  0
 15 16  1  0
 16 17  1  0
 17 18  1  0
 18 19  1  0
 19 20  1  0
 20 21  1  0
 21 22  1  0
 22 23  1  0
 22 24  1  0
 20 25  1  0
 15 26  1  0
  8 27  2  0
 27  2  1  0
 26 12  2  0
 24 16  1  0
 25 16  1  0
 23 18  1  0
  1 28  1  0
  1 29  1  0
  1 30  1  0
  3 31  1  0
 11 32  1  0
 13 33  1  0
 14 34  1  0
 17 35  1  0
 17 36  1  0
 18 37  1  0
 19 38  1  0
 19 39  1  0
 20 40  1  0
 21 41  1  0
 21 42  1  0
 22 43  1  0
 23 44  1  0
 23 45  1  0
 24 46  1  0
 24 47  1  0
 25 48  1  0
 25 49  1  0
M  CHG  2   5   1   7  -1
M  END
$$$$
