
     RDKit          3D

 42 43  0  0  0  0  0  0  0  0999 V2000
    3.8414    0.1367   -0.9640 C   0  0  0  0  0  0  0  0  0  0  0  0
    3.8703    0.3929    0.5289 C   0  0  0  0  0  0  0  0  0  0  0  0
    2.8172    0.3494    1.2918 N   0  0  0  0  0  0  0  0  0  0  0  0
    1.6118    0.0178    0.7584 N   0  0  0  0  0  0  0  0  0  0  0  0
    0.4774    0.0309    1.5612 C   0  0  0  0  0  0  0  0  0  0  0  0
    0.4443    0.3602    2.7429 O   0  0  0  0  0  0  0  0  0  0  0  0
   -0.7507   -0.4219    0.7951 C   0  0  0  0  0  0  0  0  0  0  0  0
   -2.0182   -0.3557    1.6477 C   0  0  0  0  0  0  0  0  0  0  0  0
   -3.2438   -0.8772    0.8984 C   0  0  0  0  0  0  0  0  0  0  0  0
   -3.5383   -0.0103   -0.2385 N   0  0  0  0  0  0  0  0  0  0  0  0
   -4.6367   -0.2991   -1.0597 C   0  0  0  0  0  0  0  0  0  0  0  0
   -5.0934    0.7012   -1.9319 C   0  0  0  0  0  0  0  0  0  0  0  0
   -6.1408    0.4669   -2.8279 C   0  0  0  0  0  0  0  0  0  0  0  0
   -6.7357   -0.7884   -2.8869 C   0  0  0  0  0  0  0  0  0  0  0  0
   -6.2719   -1.8068   -2.0600 C   0  0  0  0  0  0  0  0  0  0  0  0
   -5.2221   -1.5658   -1.1657 C   0  0  0  0  0  0  0  0  0  0  0  0
    5.1818    0.7192    1.1704 C   0  0  0  0  0  0  0  0  0  0  0  0
    5.1844    1.4542    2.3576 C   0  0  0  0  0  0  0  0  0  0  0  0
    6.4019    1.7446    2.9447 C   0  0  0  0  0  0  0  0  0  0  0  0
    7.5898    1.3537    2.4356 N   0  0  0  0  0  0  0  0  0  0  0  0
    7.5584    0.6283    1.2985 C   0  0  0  0  0  0  0  0  0  0  0  0
    6.3931    0.2846    0.6338 C   0  0  0  0  0  0  0  0  0  0  0  0
    3.0133    0.6875   -1.4203 H   0  0  0  0  0  0  0  0  0  0  0  0
    3.7093   -0.9337   -1.1447 H   0  0  0  0  0  0  0  0  0  0  0  0
    4.7521    0.4762   -1.4616 H   0  0  0  0  0  0  0  0  0  0  0  0
    1.5465   -0.2898   -0.2035 H   0  0  0  0  0  0  0  0  0  0  0  0
   -0.5809   -1.4515    0.4583 H   0  0  0  0  0  0  0  0  0  0  0  0
   -0.8533    0.2174   -0.0894 H   0  0  0  0  0  0  0  0  0  0  0  0
   -2.1892    0.6770    1.9774 H   0  0  0  0  0  0  0  0  0  0  0  0
   -1.8805   -0.9568    2.5551 H   0  0  0  0  0  0  0  0  0  0  0  0
   -4.0997   -0.8960    1.5836 H   0  0  0  0  0  0  0  0  0  0  0  0
   -3.0419   -1.9024    0.5679 H   0  0  0  0  0  0  0  0  0  0  0  0
   -3.5372    0.9764    0.0155 H   0  0  0  0  0  0  0  0  0  0  0  0
   -4.6295    1.6845   -1.9209 H   0  0  0  0  0  0  0  0  0  0  0  0
   -6.4823    1.2639   -3.4828 H   0  0  0  0  0  0  0  0  0  0  0  0
   -7.5481   -0.9767   -3.5832 H   0  0  0  0  0  0  0  0  0  0  0  0
   -6.7192   -2.7959   -2.1134 H   0  0  0  0  0  0  0  0  0  0  0  0
   -4.8795   -2.3954   -0.5561 H   0  0  0  0  0  0  0  0  0  0  0  0
    4.2616    1.7931    2.8189 H   0  0  0  0  0  0  0  0  0  0  0  0
    6.4557    2.3146    3.8680 H   0  0  0  0  0  0  0  0  0  0  0  0
    8.5297    0.3146    0.9257 H   0  0  0  0  0  0  0  0  0  0  0  0
    6.4527   -0.3225   -0.2606 H   0  0  0  0  0  0  0  0  0  0  0  0
  1  2  1  0
  2  3  2  3
  3  4  1  0
  4  5  1  0
  5  6  2  0
  5  7  1  0
  7  8  1  0
  8  9  1  0
  9 10  1  0
 10 11  1  0
 11 12  2  0
 12 13  1  0
 13 14  2  0
 14 15  1  0
 15 16  2  0
  2 17  1  0
 17 18  2  0
 18 19  1  0
 19 20  2  0
 20 21  1  0
 21 22  2  0
 16 11  1  0
 22 17  1  0
  1 23  1  0
  1 24  1  0
  1 25  1  0
  4 26  1  0
  7 27  1  0
  7 28  1  0
  8 29  1  0
  8 30  1  0
  9 31  1  0
  9 32  1  0
 10 33  1  0
 12 34  1  0
 13 35  1  0
 14 36  1  0
 15 37  1  0
 16 38  1  0
 18 39  1  0
 19 40  1  0
 21 41  1  0
 22 42  1  0
M  END
$$$$
