
     RDKit          3D

 35 37  0  0  0  0  0  0  0  0999 V2000
    0.8943    1.6917   -2.2710 O   0  0  0  0  0  0  0  0  0  0  0  0
    1.7587    1.0845   -1.4665 C   0  0  0  0  0  0  0  0  0  0  0  0
    3.0860    1.0599   -1.7816 N   0  0  0  0  0  0  0  0  0  0  0  0
    3.7939    0.3834   -0.8157 C   0  0  0  0  0  0  0  0  0  0  0  0
    5.1647    0.1145   -0.7254 C   0  0  0  0  0  0  0  0  0  0  0  0
    5.6119   -0.6050    0.3860 C   0  0  0  0  0  0  0  0  0  0  0  0
    4.7221   -1.0369    1.3663 C   0  0  0  0  0  0  0  0  0  0  0  0
    3.3538   -0.7599    1.2613 C   0  0  0  0  0  0  0  0  0  0  0  0
    2.8740   -0.0353    0.1493 C   0  0  0  0  0  0  0  0  0  0  0  0
    1.5811    0.4134   -0.2714 C   0  0  0  0  0  0  0  0  0  0  0  0
    0.3110    0.2199    0.3953 C   0  0  0  0  0  0  0  0  0  0  0  0
   -0.7528    0.7143   -0.1566 N   0  0  0  0  0  0  0  0  0  0  0  0
   -1.9699    0.5096    0.4577 N   0  0  0  0  0  0  0  0  0  0  0  0
   -2.2758   -0.7790    1.0961 C   0  0  0  0  0  0  0  0  0  0  0  0
   -3.7616   -0.9258    1.4099 C   0  0  0  0  0  0  0  0  0  0  0  0
   -4.6242   -0.7601    0.1565 C   0  0  0  0  0  0  0  0  0  0  0  0
   -4.0515    0.2543   -0.8385 C   0  0  0  0  0  0  0  0  0  0  0  0
   -3.0915    1.2241   -0.1631 C   0  0  0  0  0  0  0  0  0  0  0  0
    0.0174    1.5849   -1.8364 H   0  0  0  0  0  0  0  0  0  0  0  0
    3.4783    1.4832   -2.6092 H   0  0  0  0  0  0  0  0  0  0  0  0
    5.8604    0.4504   -1.4876 H   0  0  0  0  0  0  0  0  0  0  0  0
    6.6715   -0.8297    0.4855 H   0  0  0  0  0  0  0  0  0  0  0  0
    5.0929   -1.5946    2.2230 H   0  0  0  0  0  0  0  0  0  0  0  0
    2.6750   -1.1037    2.0360 H   0  0  0  0  0  0  0  0  0  0  0  0
    0.3123   -0.3306    1.3489 H   0  0  0  0  0  0  0  0  0  0  0  0
   -1.9621   -1.5781    0.4141 H   0  0  0  0  0  0  0  0  0  0  0  0
   -1.6976   -0.8539    2.0220 H   0  0  0  0  0  0  0  0  0  0  0  0
   -4.0509   -0.1639    2.1452 H   0  0  0  0  0  0  0  0  0  0  0  0
   -3.9596   -1.8993    1.8719 H   0  0  0  0  0  0  0  0  0  0  0  0
   -4.7362   -1.7268   -0.3493 H   0  0  0  0  0  0  0  0  0  0  0  0
   -5.6329   -0.4551    0.4601 H   0  0  0  0  0  0  0  0  0  0  0  0
   -4.8681    0.7994   -1.3245 H   0  0  0  0  0  0  0  0  0  0  0  0
   -3.5174   -0.2872   -1.6299 H   0  0  0  0  0  0  0  0  0  0  0  0
   -2.7058    1.9564   -0.8815 H   0  0  0  0  0  0  0  0  0  0  0  0
   -3.6015    1.7812    0.6312 H   0  0  0  0  0  0  0  0  0  0  0  0
  1  2  1  0
  2  3  1  0
  3  4  1  0
  4  5  2  0
  5  6  1  0
  6  7  2  0
  7  8  1  0
  8  9  2  0
  9 10  1  0
 10 11  1  0
 11 12  2  3
 12 13  1  0
 13 14  1  0
 14 15  1  0
 15 16  1  0
 16 17  1  0
 17 18  1  0
 10  2  2  0
 18 13  1  0
  9  4  1  0
  1 19  1  0
  3 20  1  0
  5 21  1  0
  6 22  1  0
  7 23  1  0
  8 24  1  0
 11 25  1  0
 14 26  1  0
 14 27  1  0
 15 28  1  0
 15 29  1  0
 16 30  1  0
 16 31  1  0
 17 32  1  0
 17 33  1  0
 18 34  1  0
 18 35  1  0
M  END
$$$$
