
     RDKit          3D

 45 47  0  0  0  0  0  0  0  0999 V2000
    6.9166    0.5693    1.3276 C   0  0  0  0  0  0  0  0  0  0  0  0
    6.2401    0.2613    0.1157 O   0  0  0  0  0  0  0  0  0  0  0  0
    4.8787    0.1327    0.1704 C   0  0  0  0  0  0  0  0  0  0  0  0
    4.1275    0.1291    1.3474 C   0  0  0  0  0  0  0  0  0  0  0  0
    2.7289    0.0315    1.3044 C   0  0  0  0  0  0  0  0  0  0  0  0
    2.0569   -0.0636    0.0859 C   0  0  0  0  0  0  0  0  0  0  0  0
    0.6534   -0.1324   -0.0331 N   0  0  0  0  0  0  0  0  0  0  0  0
   -0.2621   -0.3575    0.9715 C   0  0  0  0  0  0  0  0  0  0  0  0
    0.0247   -0.6847    2.1204 O   0  0  0  0  0  0  0  0  0  0  0  0
   -1.5912   -0.2055    0.5730 N   0  0  0  0  0  0  0  0  0  0  0  0
   -2.0293    0.4850   -0.6441 C   0  0  0  0  0  0  0  0  0  0  0  0
   -3.3552    1.2037   -0.4385 C   0  0  0  0  0  0  0  0  0  0  0  0
   -4.4525    0.2252   -0.0099 C   0  0  0  0  0  0  0  0  0  0  0  0
   -3.9257   -0.9580    0.8089 C   0  0  0  0  0  0  0  0  0  0  0  0
   -2.6350   -0.5904    1.5244 C   0  0  0  0  0  0  0  0  0  0  0  0
   -5.4179    0.9577    0.7700 O   0  0  0  0  0  0  0  0  0  0  0  0
   -6.6852    0.5920    0.2265 C   0  0  0  0  0  0  0  0  0  0  0  0
   -6.3765    0.3463   -1.2235 C   0  0  0  0  0  0  0  0  0  0  0  0
   -5.1048   -0.3007   -1.1837 O   0  0  0  0  0  0  0  0  0  0  0  0
    2.8047   -0.0614   -1.0947 C   0  0  0  0  0  0  0  0  0  0  0  0
    4.2016    0.0078   -1.0513 C   0  0  0  0  0  0  0  0  0  0  0  0
    4.8401    0.0239   -2.2675 O   0  0  0  0  0  0  0  0  0  0  0  0
    5.6318   -1.1494   -2.4541 C   0  0  0  0  0  0  0  0  0  0  0  0
    6.8474   -0.2606    2.0382 H   0  0  0  0  0  0  0  0  0  0  0  0
    6.5434    1.4999    1.7678 H   0  0  0  0  0  0  0  0  0  0  0  0
    7.9747    0.7152    1.0908 H   0  0  0  0  0  0  0  0  0  0  0  0
    4.5919    0.2065    2.3248 H   0  0  0  0  0  0  0  0  0  0  0  0
    2.1907    0.0490    2.2476 H   0  0  0  0  0  0  0  0  0  0  0  0
    0.2948   -0.2195   -0.9703 H   0  0  0  0  0  0  0  0  0  0  0  0
   -1.2720    1.2126   -0.9528 H   0  0  0  0  0  0  0  0  0  0  0  0
   -2.1141   -0.2692   -1.4348 H   0  0  0  0  0  0  0  0  0  0  0  0
   -3.2259    1.9827    0.3242 H   0  0  0  0  0  0  0  0  0  0  0  0
   -3.6384    1.7178   -1.3648 H   0  0  0  0  0  0  0  0  0  0  0  0
   -3.7363   -1.8176    0.1528 H   0  0  0  0  0  0  0  0  0  0  0  0
   -4.6711   -1.2796    1.5450 H   0  0  0  0  0  0  0  0  0  0  0  0
   -2.7910    0.2524    2.2091 H   0  0  0  0  0  0  0  0  0  0  0  0
   -2.2920   -1.4395    2.1256 H   0  0  0  0  0  0  0  0  0  0  0  0
   -7.0229   -0.3204    0.7298 H   0  0  0  0  0  0  0  0  0  0  0  0
   -7.4183    1.3859    0.3865 H   0  0  0  0  0  0  0  0  0  0  0  0
   -7.1153   -0.2841   -1.7235 H   0  0  0  0  0  0  0  0  0  0  0  0
   -6.2632    1.2838   -1.7778 H   0  0  0  0  0  0  0  0  0  0  0  0
    2.3188   -0.1232   -2.0645 H   0  0  0  0  0  0  0  0  0  0  0  0
    5.0919   -2.0564   -2.1537 H   0  0  0  0  0  0  0  0  0  0  0  0
    6.5867   -1.0811   -1.9224 H   0  0  0  0  0  0  0  0  0  0  0  0
    5.8506   -1.2314   -3.5232 H   0  0  0  0  0  0  0  0  0  0  0  0
  1  2  1  0
  2  3  1  0
  3  4  2  0
  4  5  1  0
  5  6  2  0
  6  7  1  0
  7  8  1  0
  8  9  2  0
  8 10  1  0
 10 11  1  0
 11 12  1  0
 12 13  1  0
 13 14  1  0
 14 15  1  0
 13 16  1  0
 16 17  1  0
 17 18  1  0
 18 19  1  0
  6 20  1  0
 20 21  2  0
 21 22  1  0
 22 23  1  0
 21  3  1  0
 15 10  1  0
 19 13  1  0
  1 24  1  0
  1 25  1  0
  1 26  1  0
  4 27  1  0
  5 28  1  0
  7 29  1  0
 11 30  1  0
 11 31  1  0
 12 32  1  0
 12 33  1  0
 14 34  1  0
 14 35  1  0
 15 36  1  0
 15 37  1  0
 17 38  1  0
 17 39  1  0
 18 40  1  0
 18 41  1  0
 20 42  1  0
 23 43  1  0
 23 44  1  0
 23 45  1  0
M  END
$$$$
