
     RDKit          3D

 53 56  0  0  0  0  0  0  0  0999 V2000
   -6.4775    2.2955   -0.0118 C   0  0  0  0  0  0  0  0  0  0  0  0
   -5.8571    0.9864    0.5267 C   0  0  0  0  0  0  0  0  0  0  0  0
   -6.0179    1.0021    2.0620 C   0  0  0  0  0  0  0  0  0  0  0  0
   -6.6798   -0.1819   -0.0584 C   0  0  0  0  0  0  0  0  0  0  0  0
   -4.3729    0.8071    0.1646 C   0  0  0  0  0  0  0  0  0  0  0  0
   -3.6760   -0.3434    0.5770 C   0  0  0  0  0  0  0  0  0  0  0  0
   -2.3223   -0.5447    0.2660 C   0  0  0  0  0  0  0  0  0  0  0  0
   -1.6197    0.4019   -0.4786 C   0  0  0  0  0  0  0  0  0  0  0  0
   -0.2410    0.2528   -0.8259 N   0  0  0  0  0  0  0  0  0  0  0  0
    0.4272    1.3242   -1.3500 N   0  0  0  0  0  0  0  0  0  0  0  0
    1.6889    0.9261   -1.4900 C   0  0  0  0  0  0  0  0  0  0  0  0
    1.8744   -0.4038   -1.1001 C   0  0  0  0  0  0  0  0  0  0  0  0
    0.6134   -0.8386   -0.7285 C   0  0  0  0  0  0  0  0  0  0  0  0
    0.2991   -2.2440   -0.3442 C   0  0  0  0  0  0  0  0  0  0  0  0
    1.4385   -3.1853   -0.7836 C   0  0  0  0  0  0  0  0  0  0  0  0
    2.8227   -2.6176   -0.4312 C   0  0  0  0  0  0  0  0  0  0  0  0
    3.0897   -1.2676   -1.1362 C   0  0  0  0  0  0  0  0  0  0  0  0
    4.1750   -0.5606   -0.4974 N   0  0  0  0  0  0  0  0  0  0  0  0
    5.4957   -0.8859   -0.7132 C   0  0  0  0  0  0  0  0  0  0  0  0
    5.8740   -1.7145   -1.5321 O   0  0  0  0  0  0  0  0  0  0  0  0
    6.4598   -0.1488    0.1498 C   0  0  0  0  0  0  0  0  0  0  0  0
    7.8232   -0.3563    0.0075 C   0  0  0  0  0  0  0  0  0  0  0  0
    8.7359    0.2931    0.7754 N   0  0  0  0  0  0  0  0  0  0  0  0
    8.2207    1.1538    1.6845 C   0  0  0  0  0  0  0  0  0  0  0  0
    6.8561    1.3594    1.8271 C   0  0  0  0  0  0  0  0  0  0  0  0
    5.9375    0.7161    1.0693 N   0  0  0  0  0  0  0  0  0  0  0  0
   -2.2977    1.5623   -0.8809 C   0  0  0  0  0  0  0  0  0  0  0  0
   -3.6502    1.7577   -0.5684 C   0  0  0  0  0  0  0  0  0  0  0  0
   -5.9707    3.1791    0.3934 H   0  0  0  0  0  0  0  0  0  0  0  0
   -6.4284    2.3450   -1.1058 H   0  0  0  0  0  0  0  0  0  0  0  0
   -7.5351    2.3755    0.2672 H   0  0  0  0  0  0  0  0  0  0  0  0
   -7.0639    1.1626    2.3483 H   0  0  0  0  0  0  0  0  0  0  0  0
   -5.7013    0.0593    2.5215 H   0  0  0  0  0  0  0  0  0  0  0  0
   -5.4218    1.8043    2.5130 H   0  0  0  0  0  0  0  0  0  0  0  0
   -6.3795   -1.1499    0.3576 H   0  0  0  0  0  0  0  0  0  0  0  0
   -7.7480   -0.0593    0.1557 H   0  0  0  0  0  0  0  0  0  0  0  0
   -6.5623   -0.2408   -1.1470 H   0  0  0  0  0  0  0  0  0  0  0  0
   -4.1808   -1.1093    1.1632 H   0  0  0  0  0  0  0  0  0  0  0  0
   -1.8616   -1.4402    0.6593 H   0  0  0  0  0  0  0  0  0  0  0  0
    2.4192    1.6229   -1.8822 H   0  0  0  0  0  0  0  0  0  0  0  0
    0.1918   -2.3076    0.7447 H   0  0  0  0  0  0  0  0  0  0  0  0
   -0.6285   -2.5874   -0.8132 H   0  0  0  0  0  0  0  0  0  0  0  0
    1.3043   -4.1635   -0.3080 H   0  0  0  0  0  0  0  0  0  0  0  0
    1.3843   -3.3469   -1.8681 H   0  0  0  0  0  0  0  0  0  0  0  0
    3.6023   -3.3384   -0.7054 H   0  0  0  0  0  0  0  0  0  0  0  0
    2.8853   -2.4946    0.6589 H   0  0  0  0  0  0  0  0  0  0  0  0
    3.3600   -1.4595   -2.1823 H   0  0  0  0  0  0  0  0  0  0  0  0
    3.9837    0.0593    0.2862 H   0  0  0  0  0  0  0  0  0  0  0  0
    8.2241   -1.0481   -0.7258 H   0  0  0  0  0  0  0  0  0  0  0  0
    8.9410    1.6795    2.3019 H   0  0  0  0  0  0  0  0  0  0  0  0
    6.4655    2.0547    2.5623 H   0  0  0  0  0  0  0  0  0  0  0  0
   -1.7880    2.3349   -1.4554 H   0  0  0  0  0  0  0  0  0  0  0  0
   -4.1110    2.6772   -0.9191 H   0  0  0  0  0  0  0  0  0  0  0  0
  1  2  1  0
  2  3  1  0
  2  4  1  0
  2  5  1  0
  5  6  2  0
  6  7  1  0
  7  8  2  0
  8  9  1  0
  9 10  1  0
 10 11  2  0
 11 12  1  0
 12 13  2  0
 13 14  1  0
 14 15  1  0
 15 16  1  0
 16 17  1  0
 17 18  1  0
 18 19  1  0
 19 20  2  0
 19 21  1  0
 21 22  2  0
 22 23  1  0
 23 24  2  0
 24 25  1  0
 25 26  2  0
  8 27  1  0
 27 28  2  0
 28  5  1  0
 13  9  1  0
 26 21  1  0
 17 12  1  0
  1 29  1  0
  1 30  1  0
  1 31  1  0
  3 32  1  0
  3 33  1  0
  3 34  1  0
  4 35  1  0
  4 36  1  0
  4 37  1  0
  6 38  1  0
  7 39  1  0
 11 40  1  0
 14 41  1  0
 14 42  1  0
 15 43  1  0
 15 44  1  0
 16 45  1  0
 16 46  1  0
 17 47  1  0
 18 48  1  0
 22 49  1  0
 24 50  1  0
 25 51  1  0
 27 52  1  0
 28 53  1  0
M  END
$$$$
