
     RDKit          3D

 34 37  0  0  0  0  0  0  0  0999 V2000
    4.8518    2.1172   -0.0891 N   0  0  0  0  0  0  0  0  0  0  0  0
    3.6744    1.3451    0.0126 C   0  0  0  0  0  0  0  0  0  0  0  0
    3.7101   -0.0525   -0.1584 C   0  0  0  0  0  0  0  0  0  0  0  0
    5.1595   -0.8385   -0.6864 Cl  0  0  0  0  0  0  0  0  0  0  0  0
    2.5798   -0.8418    0.0644 C   0  0  0  0  0  0  0  0  0  0  0  0
    1.3901   -0.2440    0.4863 C   0  0  0  0  0  0  0  0  0  0  0  0
    0.2091   -1.1017    0.7504 C   0  0  0  0  0  0  0  0  0  0  0  0
    0.3914   -2.1974    1.4185 N   0  0  0  0  0  0  0  0  0  0  0  0
   -0.7857   -3.0532    1.6858 C   0  0  0  0  0  0  0  0  0  0  0  0
   -2.0481   -2.2541    1.9913 C   0  0  0  0  0  0  0  0  0  0  0  0
   -2.1974   -1.2479    0.9613 N   0  0  0  0  0  0  0  0  0  0  0  0
   -3.3968   -0.7890    0.5779 N   0  0  0  0  0  0  0  0  0  0  0  0
   -3.1144    0.0446   -0.4369 C   0  0  0  0  0  0  0  0  0  0  0  0
   -3.9858    0.7835   -1.2540 C   0  0  0  0  0  0  0  0  0  0  0  0
   -3.3354    1.5375   -2.2532 C   0  0  0  0  0  0  0  0  0  0  0  0
   -1.9189    1.5511   -2.4322 C   0  0  0  0  0  0  0  0  0  0  0  0
   -1.0152    0.8248   -1.6283 C   0  0  0  0  0  0  0  0  0  0  0  0
   -1.6744    0.1012   -0.6336 C   0  0  0  0  0  0  0  0  0  0  0  0
   -1.1120   -0.7082    0.3260 C   0  0  0  0  0  0  0  0  0  0  0  0
    1.3434    1.1308    0.7285 C   0  0  0  0  0  0  0  0  0  0  0  0
    2.4802    1.9105    0.5006 C   0  0  0  0  0  0  0  0  0  0  0  0
    2.3713    3.6108    0.8077 Cl  0  0  0  0  0  0  0  0  0  0  0  0
    4.6817    3.1080   -0.2452 H   0  0  0  0  0  0  0  0  0  0  0  0
    5.5527    1.7164   -0.7083 H   0  0  0  0  0  0  0  0  0  0  0  0
    2.6262   -1.9192   -0.0799 H   0  0  0  0  0  0  0  0  0  0  0  0
   -0.5562   -3.7011    2.5387 H   0  0  0  0  0  0  0  0  0  0  0  0
   -0.9418   -3.7081    0.8193 H   0  0  0  0  0  0  0  0  0  0  0  0
   -1.9699   -1.7232    2.9459 H   0  0  0  0  0  0  0  0  0  0  0  0
   -2.9344   -2.8953    1.9955 H   0  0  0  0  0  0  0  0  0  0  0  0
   -5.0594    0.7642   -1.1290 H   0  0  0  0  0  0  0  0  0  0  0  0
   -3.9469    2.1344   -2.9303 H   0  0  0  0  0  0  0  0  0  0  0  0
   -1.5144    2.1573   -3.2444 H   0  0  0  0  0  0  0  0  0  0  0  0
    0.0496    0.8426   -1.8092 H   0  0  0  0  0  0  0  0  0  0  0  0
    0.4358    1.5950    1.1074 H   0  0  0  0  0  0  0  0  0  0  0  0
  1  2  1  0
  2  3  2  0
  3  4  1  0
  3  5  1  0
  5  6  2  0
  6  7  1  0
  7  8  2  0
  8  9  1  0
  9 10  1  0
 10 11  1  0
 11 12  1  0
 12 13  2  0
 13 14  1  0
 14 15  2  0
 15 16  1  0
 16 17  2  0
 17 18  1  0
 18 19  2  0
  6 20  1  0
 20 21  2  0
 21 22  1  0
 21  2  1  0
 19  7  1  0
 19 11  1  0
 18 13  1  0
  1 23  1  0
  1 24  1  0
  5 25  1  0
  9 26  1  0
  9 27  1  0
 10 28  1  0
 10 29  1  0
 14 30  1  0
 15 31  1  0
 16 32  1  0
 17 33  1  0
 20 34  1  0
M  END
$$$$
