
     RDKit          3D

 45 47  0  0  0  0  0  0  0  0999 V2000
    1.6334   -3.9798    1.0936 C   0  0  0  0  0  0  0  0  0  0  0  0
    2.7630   -3.1374    0.5712 C   0  0  0  0  0  0  0  0  0  0  0  0
    4.0109   -3.7458    0.3302 C   0  0  0  0  0  0  0  0  0  0  0  0
    5.0926   -3.0149   -0.1526 C   0  0  0  0  0  0  0  0  0  0  0  0
    4.9713   -1.6497   -0.4124 C   0  0  0  0  0  0  0  0  0  0  0  0
    3.7302   -1.0394   -0.1749 C   0  0  0  0  0  0  0  0  0  0  0  0
    3.2813    0.6070   -0.3871 S   0  0  0  0  0  0  0  0  0  0  0  0
    1.6847    0.2485    0.1106 C   0  0  0  0  0  0  0  0  0  0  0  0
    0.7166    1.2514    0.2326 N   0  0  0  0  0  0  0  0  0  0  0  0
   -0.5754    0.8923    0.8444 C   0  0  0  0  0  0  0  0  0  0  0  0
   -1.5160    0.2136   -0.1602 C   0  0  0  0  0  0  0  0  0  0  0  0
   -2.8370   -0.1740    0.5167 C   0  0  0  0  0  0  0  0  0  0  0  0
   -3.8397   -0.8379   -0.3260 N   0  0  0  0  0  0  0  0  0  0  0  0
   -3.3946   -2.1403   -0.8162 C   0  0  0  0  0  0  0  0  0  0  0  0
   -4.3104    0.0005   -1.4246 C   0  0  0  0  0  0  0  0  0  0  0  0
    0.8194    2.4127   -0.5518 C   0  0  0  0  0  0  0  0  0  0  0  0
    1.3593    2.4314   -1.6578 O   0  0  0  0  0  0  0  0  0  0  0  0
    0.1933    3.6251   -0.0345 C   0  0  0  0  0  0  0  0  0  0  0  0
   -0.5427    4.5570   -0.7466 C   0  0  0  0  0  0  0  0  0  0  0  0
   -0.9574    5.6560    0.0637 C   0  0  0  0  0  0  0  0  0  0  0  0
   -0.4818    5.5304    1.3427 C   0  0  0  0  0  0  0  0  0  0  0  0
   -0.7328    6.6252    2.6410 Cl  0  0  0  0  0  0  0  0  0  0  0  0
    0.4518    4.1410    1.5846 S   0  0  0  0  0  0  0  0  0  0  0  0
    1.4835   -0.9932    0.4909 N   0  0  0  0  0  0  0  0  0  0  0  0
    2.6312   -1.7512    0.3074 C   0  0  0  0  0  0  0  0  0  0  0  0
    0.7204   -3.3919    1.2288 H   0  0  0  0  0  0  0  0  0  0  0  0
    1.9039   -4.4115    2.0626 H   0  0  0  0  0  0  0  0  0  0  0  0
    1.4120   -4.7892    0.3906 H   0  0  0  0  0  0  0  0  0  0  0  0
    4.1370   -4.8100    0.5242 H   0  0  0  0  0  0  0  0  0  0  0  0
    6.0440   -3.5124   -0.3292 H   0  0  0  0  0  0  0  0  0  0  0  0
    5.8138   -1.0769   -0.7879 H   0  0  0  0  0  0  0  0  0  0  0  0
   -1.0758    1.7827    1.2322 H   0  0  0  0  0  0  0  0  0  0  0  0
   -0.3882    0.2430    1.7086 H   0  0  0  0  0  0  0  0  0  0  0  0
   -1.0288   -0.6742   -0.5774 H   0  0  0  0  0  0  0  0  0  0  0  0
   -1.6994    0.8984   -0.9960 H   0  0  0  0  0  0  0  0  0  0  0  0
   -3.2942    0.7259    0.9489 H   0  0  0  0  0  0  0  0  0  0  0  0
   -2.6224   -0.8240    1.3752 H   0  0  0  0  0  0  0  0  0  0  0  0
   -3.0625   -2.7749    0.0129 H   0  0  0  0  0  0  0  0  0  0  0  0
   -2.5783   -2.0621   -1.5421 H   0  0  0  0  0  0  0  0  0  0  0  0
   -4.2252   -2.6675   -1.2991 H   0  0  0  0  0  0  0  0  0  0  0  0
   -5.1660   -0.4705   -1.9217 H   0  0  0  0  0  0  0  0  0  0  0  0
   -3.5384    0.1788   -2.1808 H   0  0  0  0  0  0  0  0  0  0  0  0
   -4.6608    0.9691   -1.0514 H   0  0  0  0  0  0  0  0  0  0  0  0
   -0.7719    4.4477   -1.8011 H   0  0  0  0  0  0  0  0  0  0  0  0
   -1.5540    6.4909   -0.2824 H   0  0  0  0  0  0  0  0  0  0  0  0
  1  2  1  0
  2  3  2  0
  3  4  1  0
  4  5  2  0
  5  6  1  0
  6  7  1  0
  7  8  1  0
  8  9  1  0
  9 10  1  0
 10 11  1  0
 11 12  1  0
 12 13  1  0
 13 14  1  0
 13 15  1  0
  9 16  1  0
 16 17  2  0
 16 18  1  0
 18 19  2  0
 19 20  1  0
 20 21  2  0
 21 22  1  0
 21 23  1  0
  8 24  2  0
 24 25  1  0
 25  2  1  0
 25  6  2  0
 23 18  1  0
  1 26  1  0
  1 27  1  0
  1 28  1  0
  3 29  1  0
  4 30  1  0
  5 31  1  0
 10 32  1  0
 10 33  1  0
 11 34  1  0
 11 35  1  0
 12 36  1  0
 12 37  1  0
 14 38  1  0
 14 39  1  0
 14 40  1  0
 15 41  1  0
 15 42  1  0
 15 43  1  0
 19 44  1  0
 20 45  1  0
M  END
$$$$
