
     RDKit          3D

 41 44  0  0  0  0  0  0  0  0999 V2000
   -4.6898   -1.8636    1.7401 C   0  0  0  0  0  0  0  0  0  0  0  0
   -4.0485   -0.6701    1.3100 O   0  0  0  0  0  0  0  0  0  0  0  0
   -4.6706    0.0609    0.3289 C   0  0  0  0  0  0  0  0  0  0  0  0
   -5.9275   -0.2347   -0.2088 C   0  0  0  0  0  0  0  0  0  0  0  0
   -6.4818    0.5788   -1.2017 C   0  0  0  0  0  0  0  0  0  0  0  0
   -5.7884    1.6942   -1.6644 C   0  0  0  0  0  0  0  0  0  0  0  0
   -4.5358    2.0009   -1.1359 C   0  0  0  0  0  0  0  0  0  0  0  0
   -3.9707    1.1898   -0.1422 C   0  0  0  0  0  0  0  0  0  0  0  0
   -2.6452    1.5491    0.3797 C   0  0  0  0  0  0  0  0  0  0  0  0
   -1.4948    0.9652    0.0176 C   0  0  0  0  0  0  0  0  0  0  0  0
   -1.2856   -0.3180   -1.1616 S   0  0  0  0  0  0  0  0  0  0  0  0
    0.4005   -0.3106   -0.8539 C   0  0  0  0  0  0  0  0  0  0  0  0
    1.4274   -0.9770   -1.2944 N   0  0  0  0  0  0  0  0  0  0  0  0
    2.4776   -0.3847   -0.5910 C   0  0  0  0  0  0  0  0  0  0  0  0
    3.8546   -0.8395   -0.7675 C   0  0  0  0  0  0  0  0  0  0  0  0
    4.0806   -2.1857   -1.1059 C   0  0  0  0  0  0  0  0  0  0  0  0
    5.3774   -2.6757   -1.2852 C   0  0  0  0  0  0  0  0  0  0  0  0
    6.4692   -1.8239   -1.1417 C   0  0  0  0  0  0  0  0  0  0  0  0
    6.2651   -0.4835   -0.8190 C   0  0  0  0  0  0  0  0  0  0  0  0
    4.9672    0.0036   -0.6177 C   0  0  0  0  0  0  0  0  0  0  0  0
    4.8157    1.3467   -0.3802 O   0  0  0  0  0  0  0  0  0  0  0  0
    5.1241    1.6523    0.9807 C   0  0  0  0  0  0  0  0  0  0  0  0
    2.0909    0.5713    0.2837 N   0  0  0  0  0  0  0  0  0  0  0  0
    0.7670    0.6005    0.0665 N   0  0  0  0  0  0  0  0  0  0  0  0
   -0.2047    1.3918    0.6392 C   0  0  0  0  0  0  0  0  0  0  0  0
    0.0122    2.2490    1.4768 O   0  0  0  0  0  0  0  0  0  0  0  0
   -4.8172   -2.5666    0.9102 H   0  0  0  0  0  0  0  0  0  0  0  0
   -5.6465   -1.6436    2.2249 H   0  0  0  0  0  0  0  0  0  0  0  0
   -4.0431   -2.3406    2.4829 H   0  0  0  0  0  0  0  0  0  0  0  0
   -6.5063   -1.0898    0.1239 H   0  0  0  0  0  0  0  0  0  0  0  0
   -7.4596    0.3400   -1.6134 H   0  0  0  0  0  0  0  0  0  0  0  0
   -6.2228    2.3245   -2.4362 H   0  0  0  0  0  0  0  0  0  0  0  0
   -4.0033    2.8742   -1.5062 H   0  0  0  0  0  0  0  0  0  0  0  0
   -2.6517    2.3395    1.1281 H   0  0  0  0  0  0  0  0  0  0  0  0
    3.2388   -2.8645   -1.2335 H   0  0  0  0  0  0  0  0  0  0  0  0
    5.5308   -3.7198   -1.5469 H   0  0  0  0  0  0  0  0  0  0  0  0
    7.4777   -2.1989   -1.2958 H   0  0  0  0  0  0  0  0  0  0  0  0
    7.1160    0.1878   -0.7409 H   0  0  0  0  0  0  0  0  0  0  0  0
    4.7525    2.6599    1.1902 H   0  0  0  0  0  0  0  0  0  0  0  0
    6.2078    1.6515    1.1378 H   0  0  0  0  0  0  0  0  0  0  0  0
    4.6407    0.9594    1.6791 H   0  0  0  0  0  0  0  0  0  0  0  0
  1  2  1  0
  2  3  1  0
  3  4  2  0
  4  5  1  0
  5  6  2  0
  6  7  1  0
  7  8  2  0
  8  9  1  0
  9 10  2  3
 10 11  1  0
 11 12  1  0
 12 13  2  0
 13 14  1  0
 14 15  1  0
 15 16  2  0
 16 17  1  0
 17 18  2  0
 18 19  1  0
 19 20  2  0
 20 21  1  0
 21 22  1  0
 14 23  2  0
 23 24  1  0
 24 25  1  0
 25 26  2  0
  8  3  1  0
 25 10  1  0
 24 12  1  0
 20 15  1  0
  1 27  1  0
  1 28  1  0
  1 29  1  0
  4 30  1  0
  5 31  1  0
  6 32  1  0
  7 33  1  0
  9 34  1  0
 16 35  1  0
 17 36  1  0
 18 37  1  0
 19 38  1  0
 22 39  1  0
 22 40  1  0
 22 41  1  0
M  END
$$$$
