
     RDKit          3D

 42 44  0  0  0  0  0  0  0  0999 V2000
   -4.2729    0.3438    5.1660 C   0  0  0  0  0  0  0  0  0  0  0  0
   -4.1544    1.2979    3.9883 C   0  0  0  0  0  0  0  0  0  0  0  0
   -2.8637    1.0624    3.2041 C   0  0  0  0  0  0  0  0  0  0  0  0
   -2.7503    2.0255    2.0204 C   0  0  0  0  0  0  0  0  0  0  0  0
   -1.4795    1.8012    1.2398 C   0  0  0  0  0  0  0  0  0  0  0  0
   -0.3054    2.4821    1.5801 C   0  0  0  0  0  0  0  0  0  0  0  0
    0.8784    2.2635    0.8657 C   0  0  0  0  0  0  0  0  0  0  0  0
    0.9141    1.3531   -0.1993 C   0  0  0  0  0  0  0  0  0  0  0  0
    2.1300    1.0930   -0.9670 C   0  0  0  0  0  0  0  0  0  0  0  0
    3.4090    1.3984   -0.5508 C   0  0  0  0  0  0  0  0  0  0  0  0
    4.5507    0.9053   -1.7277 S   0  0  0  0  0  0  0  0  0  0  0  0
    3.2677    0.3017   -2.7302 C   0  0  0  0  0  0  0  0  0  0  0  0
    3.5682   -0.3029   -3.9886 C   0  0  0  0  0  0  0  0  0  0  0  0
    4.3700    0.4260   -4.9216 C   0  0  0  0  0  0  0  0  0  0  0  0
    5.0294    0.9997   -5.6856 N   0  0  0  0  0  0  0  0  0  0  0  0
    3.0861   -1.5007   -4.3754 C   0  0  0  0  0  0  0  0  0  0  0  0
    2.2913   -2.4154   -3.6257 C   0  0  0  0  0  0  0  0  0  0  0  0
    2.1390   -2.6436   -2.2611 C   0  0  0  0  0  0  0  0  0  0  0  0
    1.2225   -3.7088   -2.0870 C   0  0  0  0  0  0  0  0  0  0  0  0
    0.8687   -4.1041   -3.3489 C   0  0  0  0  0  0  0  0  0  0  0  0
    1.5088   -3.3518   -4.2737 O   0  0  0  0  0  0  0  0  0  0  0  0
    2.0682    0.4679   -2.2048 N   0  0  0  0  0  0  0  0  0  0  0  0
   -0.2665    0.6744   -0.5350 C   0  0  0  0  0  0  0  0  0  0  0  0
   -1.4494    0.8916    0.1780 C   0  0  0  0  0  0  0  0  0  0  0  0
   -4.2797   -0.6975    4.8281 H   0  0  0  0  0  0  0  0  0  0  0  0
   -5.2028    0.5297    5.7124 H   0  0  0  0  0  0  0  0  0  0  0  0
   -3.4380    0.4740    5.8619 H   0  0  0  0  0  0  0  0  0  0  0  0
   -5.0201    1.1646    3.3291 H   0  0  0  0  0  0  0  0  0  0  0  0
   -4.1829    2.3298    4.3573 H   0  0  0  0  0  0  0  0  0  0  0  0
   -2.8363    0.0257    2.8453 H   0  0  0  0  0  0  0  0  0  0  0  0
   -2.0011    1.1880    3.8710 H   0  0  0  0  0  0  0  0  0  0  0  0
   -2.7821    3.0642    2.3731 H   0  0  0  0  0  0  0  0  0  0  0  0
   -3.6132    1.9077    1.3526 H   0  0  0  0  0  0  0  0  0  0  0  0
   -0.3046    3.1930    2.4038 H   0  0  0  0  0  0  0  0  0  0  0  0
    1.7598    2.8286    1.1548 H   0  0  0  0  0  0  0  0  0  0  0  0
    3.7392    1.8650    0.3654 H   0  0  0  0  0  0  0  0  0  0  0  0
    3.3066   -1.8426   -5.3866 H   0  0  0  0  0  0  0  0  0  0  0  0
    2.6317   -2.1040   -1.4648 H   0  0  0  0  0  0  0  0  0  0  0  0
    0.8725   -4.1345   -1.1575 H   0  0  0  0  0  0  0  0  0  0  0  0
    0.2112   -4.8679   -3.7399 H   0  0  0  0  0  0  0  0  0  0  0  0
   -0.2736   -0.0362   -1.3603 H   0  0  0  0  0  0  0  0  0  0  0  0
   -2.3462    0.3451   -0.1056 H   0  0  0  0  0  0  0  0  0  0  0  0
  1  2  1  0
  2  3  1  0
  3  4  1  0
  4  5  1  0
  5  6  2  0
  6  7  1  0
  7  8  2  0
  8  9  1  0
  9 10  2  0
 10 11  1  0
 11 12  1  0
 12 13  1  0
 13 14  1  0
 14 15  3  0
 13 16  2  3
 16 17  1  0
 17 18  2  0
 18 19  1  0
 19 20  2  0
 20 21  1  0
 12 22  2  0
  8 23  1  0
 23 24  2  0
 24  5  1  0
 22  9  1  0
 21 17  1  0
  1 25  1  0
  1 26  1  0
  1 27  1  0
  2 28  1  0
  2 29  1  0
  3 30  1  0
  3 31  1  0
  4 32  1  0
  4 33  1  0
  6 34  1  0
  7 35  1  0
 10 36  1  0
 16 37  1  0
 18 38  1  0
 19 39  1  0
 20 40  1  0
 23 41  1  0
 24 42  1  0
M  END
$$$$
