
     RDKit          3D

 44 47  0  0  0  0  0  0  0  0999 V2000
    2.3515   -0.7415   -1.9884 C   0  0  0  0  0  0  0  0  0  0  0  0
    1.8786    0.0387   -0.7613 C   0  0  0  0  0  0  0  0  0  0  0  0
    1.2593   -0.8453    0.2556 N   0  0  0  0  0  0  0  0  0  0  0  0
   -0.1274   -0.9962    0.0231 C   0  0  0  0  0  0  0  0  0  0  0  0
   -0.8936   -0.0233    0.5373 N   0  0  0  0  0  0  0  0  0  0  0  0
   -2.2142   -0.0943    0.2960 C   0  0  0  0  0  0  0  0  0  0  0  0
   -3.0710    0.9815    0.8384 C   0  0  0  0  0  0  0  0  0  0  0  0
   -2.5357    2.0304    1.6122 C   0  0  0  0  0  0  0  0  0  0  0  0
   -3.3448    3.0497    2.1256 C   0  0  0  0  0  0  0  0  0  0  0  0
   -4.7136    3.0446    1.8765 C   0  0  0  0  0  0  0  0  0  0  0  0
   -5.2728    2.0224    1.1163 C   0  0  0  0  0  0  0  0  0  0  0  0
   -4.4603    1.0048    0.6050 C   0  0  0  0  0  0  0  0  0  0  0  0
   -2.8062   -1.0692   -0.4169 N   0  0  0  0  0  0  0  0  0  0  0  0
   -2.0315   -2.0509   -0.8890 C   0  0  0  0  0  0  0  0  0  0  0  0
   -2.6227   -3.0901   -1.5984 C   0  0  0  0  0  0  0  0  0  0  0  0
   -1.8784   -4.1635   -2.0972 C   0  0  0  0  0  0  0  0  0  0  0  0
   -0.5085   -4.2122   -1.8792 C   0  0  0  0  0  0  0  0  0  0  0  0
    0.1057   -3.1801   -1.1750 C   0  0  0  0  0  0  0  0  0  0  0  0
   -0.6480   -2.0821   -0.6916 C   0  0  0  0  0  0  0  0  0  0  0  0
    3.0589    0.7576   -0.1146 C   0  0  0  0  0  0  0  0  0  0  0  0
    3.1076    2.1605   -0.1025 C   0  0  0  0  0  0  0  0  0  0  0  0
    4.1825    2.8293    0.4868 C   0  0  0  0  0  0  0  0  0  0  0  0
    5.2194    2.1062    1.0729 C   0  0  0  0  0  0  0  0  0  0  0  0
    5.1830    0.7136    1.0732 C   0  0  0  0  0  0  0  0  0  0  0  0
    4.1099    0.0429    0.4845 C   0  0  0  0  0  0  0  0  0  0  0  0
    2.9318   -0.1001   -2.6618 H   0  0  0  0  0  0  0  0  0  0  0  0
    1.5030   -1.1248   -2.5629 H   0  0  0  0  0  0  0  0  0  0  0  0
    2.9820   -1.5947   -1.7147 H   0  0  0  0  0  0  0  0  0  0  0  0
    1.1605    0.8014   -1.0944 H   0  0  0  0  0  0  0  0  0  0  0  0
    1.2461   -0.2668    1.1014 H   0  0  0  0  0  0  0  0  0  0  0  0
   -1.4681    2.0591    1.8252 H   0  0  0  0  0  0  0  0  0  0  0  0
   -2.9019    3.8444    2.7203 H   0  0  0  0  0  0  0  0  0  0  0  0
   -5.3437    3.8352    2.2753 H   0  0  0  0  0  0  0  0  0  0  0  0
   -6.3416    2.0116    0.9189 H   0  0  0  0  0  0  0  0  0  0  0  0
   -4.9252    0.2169    0.0140 H   0  0  0  0  0  0  0  0  0  0  0  0
   -3.6982   -3.0690   -1.7612 H   0  0  0  0  0  0  0  0  0  0  0  0
   -2.3755   -4.9612   -2.6432 H   0  0  0  0  0  0  0  0  0  0  0  0
    0.0787   -5.0492   -2.2478 H   0  0  0  0  0  0  0  0  0  0  0  0
    1.1757   -3.2284   -0.9844 H   0  0  0  0  0  0  0  0  0  0  0  0
    2.3069    2.7448   -0.5513 H   0  0  0  0  0  0  0  0  0  0  0  0
    4.2097    3.9160    0.4899 H   0  0  0  0  0  0  0  0  0  0  0  0
    6.0546    2.6281    1.5324 H   0  0  0  0  0  0  0  0  0  0  0  0
    5.9883    0.1483    1.5349 H   0  0  0  0  0  0  0  0  0  0  0  0
    4.0891   -1.0453    0.5013 H   0  0  0  0  0  0  0  0  0  0  0  0
  1  2  1  0
  2  3  1  0
  3  4  1  0
  4  5  2  0
  5  6  1  0
  6  7  1  0
  7  8  2  0
  8  9  1  0
  9 10  2  0
 10 11  1  0
 11 12  2  0
  6 13  2  0
 13 14  1  0
 14 15  2  0
 15 16  1  0
 16 17  2  0
 17 18  1  0
 18 19  2  0
  2 20  1  0
 20 21  2  0
 21 22  1  0
 22 23  2  0
 23 24  1  0
 24 25  2  0
 19  4  1  0
 25 20  1  0
 12  7  1  0
 19 14  1  0
  1 26  1  0
  1 27  1  0
  1 28  1  0
  2 29  1  0
  3 30  1  0
  8 31  1  0
  9 32  1  0
 10 33  1  0
 11 34  1  0
 12 35  1  0
 15 36  1  0
 16 37  1  0
 17 38  1  0
 18 39  1  0
 21 40  1  0
 22 41  1  0
 23 42  1  0
 24 43  1  0
 25 44  1  0
M  END
$$$$
