
     RDKit          3D

 55 58  0  0  0  0  0  0  0  0999 V2000
    7.3267   -0.2789   -1.0605 C   0  0  0  0  0  0  0  0  0  0  0  0
    5.9806    0.1804   -1.0438 O   0  0  0  0  0  0  0  0  0  0  0  0
    5.2205   -0.1322    0.0527 C   0  0  0  0  0  0  0  0  0  0  0  0
    5.6592   -0.9087    1.1306 C   0  0  0  0  0  0  0  0  0  0  0  0
    4.8006   -1.1940    2.1957 C   0  0  0  0  0  0  0  0  0  0  0  0
    3.4955   -0.7128    2.1912 C   0  0  0  0  0  0  0  0  0  0  0  0
    3.0482    0.0621    1.1236 C   0  0  0  0  0  0  0  0  0  0  0  0
    3.9067    0.3721    0.0533 C   0  0  0  0  0  0  0  0  0  0  0  0
    3.3750    1.1982   -1.0944 C   0  0  0  0  0  0  0  0  0  0  0  0
    2.7649    0.3394   -2.1038 N   0  0  0  0  0  0  0  0  0  0  0  0
    1.5797    0.9746   -3.0881 S   0  0  0  0  0  6  0  0  0  0  0  0
    1.8682    2.3753   -3.3006 O   0  0  0  0  0  0  0  0  0  0  0  0
    1.4074    0.0522   -4.1878 O   0  0  0  0  0  0  0  0  0  0  0  0
    0.1454    0.8344   -2.0505 C   0  0  0  0  0  0  0  0  0  0  0  0
   -0.3514   -0.4426   -1.7451 C   0  0  0  0  0  0  0  0  0  0  0  0
   -1.4720   -0.5875   -0.9162 C   0  0  0  0  0  0  0  0  0  0  0  0
   -2.0813    0.5467   -0.4055 C   0  0  0  0  0  0  0  0  0  0  0  0
   -1.5865    1.8147   -0.7429 C   0  0  0  0  0  0  0  0  0  0  0  0
   -0.4728    1.9821   -1.5551 C   0  0  0  0  0  0  0  0  0  0  0  0
   -2.3678    2.9013   -0.0710 C   0  0  0  0  0  0  0  0  0  0  0  0
   -3.5922    2.1243    0.4431 C   0  0  0  0  0  0  0  0  0  0  0  0
   -4.8185    2.3797   -0.4403 C   0  0  0  0  0  0  0  0  0  0  0  0
   -3.2072    0.6915    0.4291 N   0  0  0  0  0  0  0  0  0  0  0  0
   -3.9450   -0.2340    1.1653 C   0  0  0  0  0  0  0  0  0  0  0  0
   -4.9618    0.1433    1.7713 O   0  0  0  0  0  0  0  0  0  0  0  0
   -3.4587   -1.7027    1.2719 C   0  0  0  0  0  0  0  0  0  0  0  0
   -4.0364   -2.7198    0.2466 C   0  0  0  0  0  0  0  0  0  0  0  0
   -5.0814   -3.1185    1.3021 C   0  0  0  0  0  0  0  0  0  0  0  0
   -4.1087   -2.5949    2.3717 C   0  0  0  0  0  0  0  0  0  0  0  0
    7.3695   -1.3730   -1.0642 H   0  0  0  0  0  0  0  0  0  0  0  0
    7.7882    0.0745   -1.9876 H   0  0  0  0  0  0  0  0  0  0  0  0
    7.8975    0.1388   -0.2246 H   0  0  0  0  0  0  0  0  0  0  0  0
    6.6645   -1.3146    1.1726 H   0  0  0  0  0  0  0  0  0  0  0  0
    5.1520   -1.8000    3.0273 H   0  0  0  0  0  0  0  0  0  0  0  0
    2.8259   -0.9434    3.0159 H   0  0  0  0  0  0  0  0  0  0  0  0
    2.0216    0.4237    1.1243 H   0  0  0  0  0  0  0  0  0  0  0  0
    2.6478    1.9165   -0.6974 H   0  0  0  0  0  0  0  0  0  0  0  0
    4.1764    1.7900   -1.5498 H   0  0  0  0  0  0  0  0  0  0  0  0
    3.3644   -0.3528   -2.5491 H   0  0  0  0  0  0  0  0  0  0  0  0
    0.1318   -1.3278   -2.1559 H   0  0  0  0  0  0  0  0  0  0  0  0
   -1.8360   -1.5877   -0.7338 H   0  0  0  0  0  0  0  0  0  0  0  0
   -0.0984    2.9743   -1.7904 H   0  0  0  0  0  0  0  0  0  0  0  0
   -1.7841    3.2992    0.7665 H   0  0  0  0  0  0  0  0  0  0  0  0
   -2.6294    3.7145   -0.7543 H   0  0  0  0  0  0  0  0  0  0  0  0
   -3.8307    2.4273    1.4702 H   0  0  0  0  0  0  0  0  0  0  0  0
   -5.6909    1.8245   -0.0822 H   0  0  0  0  0  0  0  0  0  0  0  0
   -4.6375    2.0711   -1.4759 H   0  0  0  0  0  0  0  0  0  0  0  0
   -5.0772    3.4437   -0.4415 H   0  0  0  0  0  0  0  0  0  0  0  0
   -2.3681   -1.7479    1.3816 H   0  0  0  0  0  0  0  0  0  0  0  0
   -3.3397   -3.5257   -0.0122 H   0  0  0  0  0  0  0  0  0  0  0  0
   -4.4459   -2.2980   -0.6754 H   0  0  0  0  0  0  0  0  0  0  0  0
   -6.0150   -2.5484    1.2362 H   0  0  0  0  0  0  0  0  0  0  0  0
   -5.3193   -4.1837    1.3566 H   0  0  0  0  0  0  0  0  0  0  0  0
   -4.5717   -2.0769    3.2158 H   0  0  0  0  0  0  0  0  0  0  0  0
   -3.4326   -3.3636    2.7655 H   0  0  0  0  0  0  0  0  0  0  0  0
  1  2  1  0
  2  3  1  0
  3  4  2  0
  4  5  1  0
  5  6  2  0
  6  7  1  0
  7  8  2  0
  8  9  1  0
  9 10  1  0
 10 11  1  0
 11 12  2  0
 11 13  2  0
 11 14  1  0
 14 15  2  0
 15 16  1  0
 16 17  2  0
 17 18  1  0
 18 19  2  0
 18 20  1  0
 20 21  1  0
 21 22  1  0
 21 23  1  0
 23 24  1  0
 24 25  2  0
 24 26  1  0
 26 27  1  0
 27 28  1  0
 28 29  1  0
  8  3  1  0
 19 14  1  0
 29 26  1  0
 23 17  1  0
  1 30  1  0
  1 31  1  0
  1 32  1  0
  4 33  1  0
  5 34  1  0
  6 35  1  0
  7 36  1  0
  9 37  1  0
  9 38  1  0
 10 39  1  0
 15 40  1  0
 16 41  1  0
 19 42  1  0
 20 43  1  0
 20 44  1  0
 21 45  1  0
 22 46  1  0
 22 47  1  0
 22 48  1  0
 26 49  1  0
 27 50  1  0
 27 51  1  0
 28 52  1  0
 28 53  1  0
 29 54  1  0
 29 55  1  0
M  END
$$$$
