
     RDKit          3D

 42 44  0  0  0  0  0  0  0  0999 V2000
   -7.0718    0.3901   -0.6392 N   0  0  0  0  0  0  0  0  0  0  0  0
   -6.0330    0.8967   -0.5302 C   0  0  0  0  0  0  0  0  0  0  0  0
   -4.7412    1.5827   -0.3929 C   0  0  0  0  0  0  0  0  0  0  0  0
   -3.8113    0.8593    0.5908 C   0  0  0  0  0  0  0  0  0  0  0  0
   -3.3150   -0.4351    0.0982 N   0  0  0  0  0  0  0  0  0  0  0  0
   -2.8665   -1.2900    1.2159 C   0  0  0  0  0  0  0  0  0  0  0  0
   -1.9786   -2.4636    0.7654 C   0  0  0  0  0  0  0  0  0  0  0  0
   -0.7460   -1.9990    0.1041 N   0  0  0  0  0  0  0  0  0  0  0  0
    0.4038   -2.7987    0.0041 C   0  0  0  0  0  0  0  0  0  0  0  0
    0.4404   -4.4463    0.3696 S   0  0  0  0  0  0  0  0  0  0  0  0
    1.6609   -2.2014   -0.4278 C   0  0  0  0  0  0  0  0  0  0  0  0
    2.7586   -2.6955   -1.1150 C   0  0  0  0  0  0  0  0  0  0  0  0
    3.6998   -1.6413   -1.2173 C   0  0  0  0  0  0  0  0  0  0  0  0
    3.1447   -0.5522   -0.5792 C   0  0  0  0  0  0  0  0  0  0  0  0
    3.5747    0.8214   -0.3287 C   0  0  0  0  0  0  0  0  0  0  0  0
    4.7745    1.3049   -0.8699 C   0  0  0  0  0  0  0  0  0  0  0  0
    5.1877    2.6218   -0.6385 C   0  0  0  0  0  0  0  0  0  0  0  0
    4.4058    3.4782    0.1388 C   0  0  0  0  0  0  0  0  0  0  0  0
    4.9723    5.0914    0.3796 Cl  0  0  0  0  0  0  0  0  0  0  0  0
    3.2083    3.0117    0.6868 C   0  0  0  0  0  0  0  0  0  0  0  0
    2.1815    4.0094    1.6554 Cl  0  0  0  0  0  0  0  0  0  0  0  0
    2.8004    1.6926    0.4543 C   0  0  0  0  0  0  0  0  0  0  0  0
    1.9141   -0.8932   -0.0979 O   0  0  0  0  0  0  0  0  0  0  0  0
   -0.8471   -0.6733   -0.5258 C   0  0  0  0  0  0  0  0  0  0  0  0
   -2.2867   -0.3201   -0.9555 C   0  0  0  0  0  0  0  0  0  0  0  0
   -4.2722    1.6987   -1.3754 H   0  0  0  0  0  0  0  0  0  0  0  0
   -4.9215    2.5967   -0.0158 H   0  0  0  0  0  0  0  0  0  0  0  0
   -4.3693    0.7067    1.5252 H   0  0  0  0  0  0  0  0  0  0  0  0
   -2.9636    1.5115    0.8390 H   0  0  0  0  0  0  0  0  0  0  0  0
   -2.2991   -0.6936    1.9438 H   0  0  0  0  0  0  0  0  0  0  0  0
   -3.7472   -1.6877    1.7332 H   0  0  0  0  0  0  0  0  0  0  0  0
   -2.5180   -3.1012    0.0545 H   0  0  0  0  0  0  0  0  0  0  0  0
   -1.7217   -3.0692    1.6404 H   0  0  0  0  0  0  0  0  0  0  0  0
    2.8668   -3.7010   -1.4999 H   0  0  0  0  0  0  0  0  0  0  0  0
    4.6682   -1.6839   -1.6952 H   0  0  0  0  0  0  0  0  0  0  0  0
    5.4062    0.6650   -1.4827 H   0  0  0  0  0  0  0  0  0  0  0  0
    6.1226    2.9720   -1.0707 H   0  0  0  0  0  0  0  0  0  0  0  0
    1.8685    1.3430    0.8945 H   0  0  0  0  0  0  0  0  0  0  0  0
   -0.4897    0.0629    0.2038 H   0  0  0  0  0  0  0  0  0  0  0  0
   -0.2015   -0.6297   -1.4087 H   0  0  0  0  0  0  0  0  0  0  0  0
   -2.2803    0.6747   -1.4150 H   0  0  0  0  0  0  0  0  0  0  0  0
   -2.5782   -1.0154   -1.7533 H   0  0  0  0  0  0  0  0  0  0  0  0
  1  2  3  0
  2  3  1  0
  3  4  1  0
  4  5  1  0
  5  6  1  0
  6  7  1  0
  7  8  1  0
  8  9  1  0
  9 10  2  0
  9 11  1  0
 11 12  2  0
 12 13  1  0
 13 14  2  0
 14 15  1  0
 15 16  2  0
 16 17  1  0
 17 18  2  0
 18 19  1  0
 18 20  1  0
 20 21  1  0
 20 22  2  0
 14 23  1  0
  8 24  1  0
 24 25  1  0
 25  5  1  0
 23 11  1  0
 22 15  1  0
  3 26  1  0
  3 27  1  0
  4 28  1  0
  4 29  1  0
  6 30  1  0
  6 31  1  0
  7 32  1  0
  7 33  1  0
 12 34  1  0
 13 35  1  0
 16 36  1  0
 17 37  1  0
 22 38  1  0
 24 39  1  0
 24 40  1  0
 25 41  1  0
 25 42  1  0
M  END
$$$$
