
     RDKit          3D

 30 31  0  0  0  0  0  0  0  0999 V2000
    0.2189    2.1675    0.2399 O   0  0  0  0  0  0  0  0  0  0  0  0
    0.8512    1.7640   -0.7368 C   0  0  0  0  0  0  0  0  0  0  0  0
    2.2816    1.2648   -0.6019 C   0  0  0  0  0  0  0  0  0  0  0  0
    2.2630    0.0702    0.3005 C   0  0  0  0  0  0  0  0  0  0  0  0
    2.4598   -1.2057   -0.0636 C   0  0  0  0  0  0  0  0  0  0  0  0
    2.2170   -1.9918    1.1630 C   0  0  0  0  0  0  0  0  0  0  0  0
    2.3886   -3.1913    1.2690 O   0  0  0  0  0  0  0  0  0  0  0  0
    1.7745   -1.1037    2.1285 N   0  0  0  0  0  0  0  0  0  0  0  0
    1.9633    0.1959    1.6531 N   0  0  0  0  0  0  0  0  0  0  0  0
    0.3466    1.6342   -2.0325 N   0  0  0  0  0  0  0  0  0  0  0  0
   -0.9077    2.0812   -2.3602 N   0  0  0  0  0  0  0  0  0  0  0  0
   -1.9431    1.6199   -1.7139 C   0  0  0  0  0  0  0  0  0  0  0  0
   -2.0131    0.4836   -0.7678 C   0  0  0  0  0  0  0  0  0  0  0  0
   -1.3769   -0.7191   -1.1126 C   0  0  0  0  0  0  0  0  0  0  0  0
   -1.4143   -1.8055   -0.2421 C   0  0  0  0  0  0  0  0  0  0  0  0
   -2.0982   -1.6977    0.9669 C   0  0  0  0  0  0  0  0  0  0  0  0
   -2.7576   -0.5089    1.3036 C   0  0  0  0  0  0  0  0  0  0  0  0
   -3.5929   -0.4752    2.8190 Cl  0  0  0  0  0  0  0  0  0  0  0  0
   -2.7294    0.5916    0.4334 C   0  0  0  0  0  0  0  0  0  0  0  0
   -3.5477    2.0651    0.8446 Cl  0  0  0  0  0  0  0  0  0  0  0  0
    2.8967    2.0677   -0.1821 H   0  0  0  0  0  0  0  0  0  0  0  0
    2.6996    1.0090   -1.5816 H   0  0  0  0  0  0  0  0  0  0  0  0
    2.7008   -1.6326   -1.0179 H   0  0  0  0  0  0  0  0  0  0  0  0
    1.9185   -1.3156    3.1096 H   0  0  0  0  0  0  0  0  0  0  0  0
    1.1705    0.8356    1.8123 H   0  0  0  0  0  0  0  0  0  0  0  0
    1.0179    1.7807   -2.7819 H   0  0  0  0  0  0  0  0  0  0  0  0
   -2.9073    2.1111   -1.9325 H   0  0  0  0  0  0  0  0  0  0  0  0
   -0.8527   -0.8122   -2.0610 H   0  0  0  0  0  0  0  0  0  0  0  0
   -0.9099   -2.7346   -0.5005 H   0  0  0  0  0  0  0  0  0  0  0  0
   -2.1176   -2.5483    1.6455 H   0  0  0  0  0  0  0  0  0  0  0  0
  1  2  2  0
  2  3  1  0
  3  4  1  0
  4  5  2  0
  5  6  1  0
  6  7  2  0
  6  8  1  0
  8  9  1  0
  2 10  1  0
 10 11  1  0
 11 12  2  3
 12 13  1  0
 13 14  2  0
 14 15  1  0
 15 16  2  0
 16 17  1  0
 17 18  1  0
 17 19  2  0
 19 20  1  0
  9  4  1  0
 19 13  1  0
  3 21  1  0
  3 22  1  0
  5 23  1  0
  8 24  1  0
  9 25  1  0
 10 26  1  0
 12 27  1  0
 14 28  1  0
 15 29  1  0
 16 30  1  0
M  END
$$$$
