
     RDKit          3D

 53 56  0  0  0  0  0  0  0  0999 V2000
   -1.1892   -2.6809   -2.4672 C   0  0  0  0  0  0  0  0  0  0  0  0
   -0.5243   -2.0842   -1.2333 C   0  0  0  0  0  0  0  0  0  0  0  0
    0.3290   -0.9279   -1.5701 N   0  0  0  0  0  0  0  0  0  0  0  0
    1.5976   -1.0057   -2.1508 C   0  0  0  0  0  0  0  0  0  0  0  0
    2.2260    0.0081   -2.4852 O   0  0  0  0  0  0  0  0  0  0  0  0
    2.2526   -2.3755   -2.2916 C   0  0  0  0  0  0  0  0  0  0  0  0
    3.8392   -2.4352   -1.3942 S   0  0  0  0  0  0  0  0  0  0  0  0
    3.3642   -1.9163    0.1892 C   0  0  0  0  0  0  0  0  0  0  0  0
    2.1400   -1.9008    0.6704 N   0  0  0  0  0  0  0  0  0  0  0  0
    2.1879   -1.3868    1.9446 N   0  0  0  0  0  0  0  0  0  0  0  0
    3.4488   -1.1154    2.2187 C   0  0  0  0  0  0  0  0  0  0  0  0
    4.0888   -0.5869    3.3737 C   0  0  0  0  0  0  0  0  0  0  0  0
    5.4252   -0.4082    3.3707 C   0  0  0  0  0  0  0  0  0  0  0  0
    6.2353   -0.7407    2.2076 C   0  0  0  0  0  0  0  0  0  0  0  0
    5.6339   -1.2400    1.1138 C   0  0  0  0  0  0  0  0  0  0  0  0
    4.2499   -1.4301    1.1244 N   0  0  0  0  0  0  0  0  0  0  0  0
   -0.2569    0.3368   -1.4646 C   0  0  0  0  0  0  0  0  0  0  0  0
   -0.6093    0.8922   -0.2794 C   0  0  0  0  0  0  0  0  0  0  0  0
   -0.3180    0.2361    0.9193 N   0  0  0  0  0  0  0  0  0  0  0  0
   -1.2406    2.1362   -0.2751 N   0  0  0  0  0  0  0  0  0  0  0  0
   -1.9158    2.6300    0.9286 C   0  0  0  0  0  0  0  0  0  0  0  0
   -3.3354    2.1117    1.0546 C   0  0  0  0  0  0  0  0  0  0  0  0
   -4.4051    2.8163    0.4803 C   0  0  0  0  0  0  0  0  0  0  0  0
   -5.7120    2.3329    0.5822 C   0  0  0  0  0  0  0  0  0  0  0  0
   -5.9645    1.1382    1.2554 C   0  0  0  0  0  0  0  0  0  0  0  0
   -4.9103    0.4241    1.8236 C   0  0  0  0  0  0  0  0  0  0  0  0
   -3.6026    0.9064    1.7221 C   0  0  0  0  0  0  0  0  0  0  0  0
   -1.3792    2.9079   -1.4247 C   0  0  0  0  0  0  0  0  0  0  0  0
   -1.9818    3.9813   -1.4786 O   0  0  0  0  0  0  0  0  0  0  0  0
   -0.8125    2.4094   -2.5586 N   0  0  0  0  0  0  0  0  0  0  0  0
   -0.5110    1.0958   -2.7223 C   0  0  0  0  0  0  0  0  0  0  0  0
   -0.5086    0.5634   -3.8301 O   0  0  0  0  0  0  0  0  0  0  0  0
   -1.7827   -3.5580   -2.1891 H   0  0  0  0  0  0  0  0  0  0  0  0
   -1.8588   -1.9544   -2.9398 H   0  0  0  0  0  0  0  0  0  0  0  0
   -0.4533   -2.9889   -3.2160 H   0  0  0  0  0  0  0  0  0  0  0  0
    0.0714   -2.8442   -0.7206 H   0  0  0  0  0  0  0  0  0  0  0  0
   -1.3073   -1.7845   -0.5278 H   0  0  0  0  0  0  0  0  0  0  0  0
    1.6371   -3.2067   -1.9577 H   0  0  0  0  0  0  0  0  0  0  0  0
    2.4509   -2.5353   -3.3565 H   0  0  0  0  0  0  0  0  0  0  0  0
    3.4844   -0.3408    4.2396 H   0  0  0  0  0  0  0  0  0  0  0  0
    5.9322   -0.0100    4.2422 H   0  0  0  0  0  0  0  0  0  0  0  0
    7.3077   -0.5734    2.2480 H   0  0  0  0  0  0  0  0  0  0  0  0
    6.1766   -1.5049    0.2149 H   0  0  0  0  0  0  0  0  0  0  0  0
    0.3778   -0.5108    0.7853 H   0  0  0  0  0  0  0  0  0  0  0  0
    0.0673    0.8782    1.6068 H   0  0  0  0  0  0  0  0  0  0  0  0
   -1.9384    3.7288    0.9119 H   0  0  0  0  0  0  0  0  0  0  0  0
   -1.3393    2.3832    1.8290 H   0  0  0  0  0  0  0  0  0  0  0  0
   -4.2242    3.7475   -0.0560 H   0  0  0  0  0  0  0  0  0  0  0  0
   -6.5316    2.8883    0.1317 H   0  0  0  0  0  0  0  0  0  0  0  0
   -6.9821    0.7617    1.3321 H   0  0  0  0  0  0  0  0  0  0  0  0
   -5.1042   -0.5120    2.3422 H   0  0  0  0  0  0  0  0  0  0  0  0
   -2.7898    0.3306    2.1613 H   0  0  0  0  0  0  0  0  0  0  0  0
   -1.0351    2.9136   -3.4029 H   0  0  0  0  0  0  0  0  0  0  0  0
  1  2  1  0
  2  3  1  0
  3  4  1  0
  4  5  2  0
  4  6  1  0
  6  7  1  0
  7  8  1  0
  8  9  2  0
  9 10  1  0
 10 11  2  0
 11 12  1  0
 12 13  2  0
 13 14  1  0
 14 15  2  0
 15 16  1  0
  3 17  1  0
 17 18  2  0
 18 19  1  0
 18 20  1  0
 20 21  1  0
 21 22  1  0
 22 23  2  0
 23 24  1  0
 24 25  2  0
 25 26  1  0
 26 27  2  0
 20 28  1  0
 28 29  2  0
 28 30  1  0
 30 31  1  0
 31 32  2  0
 16  8  1  0
 31 17  1  0
 16 11  1  0
 27 22  1  0
  1 33  1  0
  1 34  1  0
  1 35  1  0
  2 36  1  0
  2 37  1  0
  6 38  1  0
  6 39  1  0
 12 40  1  0
 13 41  1  0
 14 42  1  0
 15 43  1  0
 19 44  1  0
 19 45  1  0
 21 46  1  0
 21 47  1  0
 23 48  1  0
 24 49  1  0
 25 50  1  0
 26 51  1  0
 27 52  1  0
 30 53  1  0
M  END
$$$$
