
     RDKit          3D

 36 37  0  0  0  0  0  0  0  0999 V2000
   -3.7475   -2.2338   -0.3274 C   0  0  0  0  0  0  0  0  0  0  0  0
   -3.4307   -0.8184   -0.3638 N   0  0  0  0  0  0  0  0  0  0  0  0
   -4.1116    0.0270    0.5010 C   0  0  0  0  0  0  0  0  0  0  0  0
   -4.9808   -0.3554    1.2824 O   0  0  0  0  0  0  0  0  0  0  0  0
   -3.7368    1.4572    0.4539 C   0  0  0  0  0  0  0  0  0  0  0  0
   -4.4054    2.3960    1.2807 C   0  0  0  0  0  0  0  0  0  0  0  0
   -4.9140    3.2173    1.9244 N   0  0  0  0  0  0  0  0  0  0  0  0
   -2.7538    1.8317   -0.3704 C   0  0  0  0  0  0  0  0  0  0  0  0
   -2.0858    0.9382   -1.1775 N   0  0  0  0  0  0  0  0  0  0  0  0
   -0.9430    1.4062   -1.9746 C   0  0  0  0  0  0  0  0  0  0  0  0
    0.3960    1.3614   -1.2118 C   0  0  0  0  0  0  0  0  0  0  0  0
    0.6070    0.0611   -0.5804 N   0  0  0  0  0  0  0  0  0  0  0  0
    1.8759   -0.1616   -0.0293 C   0  0  0  0  0  0  0  0  0  0  0  0
    2.7385    0.8778    0.0683 N   0  0  0  0  0  0  0  0  0  0  0  0
    3.9412    0.6650    0.6550 C   0  0  0  0  0  0  0  0  0  0  0  0
    4.3514   -0.5544    1.1695 C   0  0  0  0  0  0  0  0  0  0  0  0
    5.6920   -0.6842    1.8207 C   0  0  0  0  0  0  0  0  0  0  0  0
    5.6737   -0.2954    3.1239 F   0  0  0  0  0  0  0  0  0  0  0  0
    6.1672   -1.9598    1.8154 F   0  0  0  0  0  0  0  0  0  0  0  0
    6.6497    0.0717    1.2168 F   0  0  0  0  0  0  0  0  0  0  0  0
    3.4521   -1.6191    1.0874 C   0  0  0  0  0  0  0  0  0  0  0  0
    2.2070   -1.4241    0.4891 C   0  0  0  0  0  0  0  0  0  0  0  0
    1.1157   -2.7607    0.4009 Cl  0  0  0  0  0  0  0  0  0  0  0  0
   -2.3689   -0.4286   -1.1764 C   0  0  0  0  0  0  0  0  0  0  0  0
   -1.7147   -1.2303   -1.8469 O   0  0  0  0  0  0  0  0  0  0  0  0
   -3.0167   -2.7329    0.3171 H   0  0  0  0  0  0  0  0  0  0  0  0
   -3.6810   -2.6643   -1.3315 H   0  0  0  0  0  0  0  0  0  0  0  0
   -4.7518   -2.4142    0.0658 H   0  0  0  0  0  0  0  0  0  0  0  0
   -2.4335    2.8702   -0.4259 H   0  0  0  0  0  0  0  0  0  0  0  0
   -1.1405    2.4266   -2.3249 H   0  0  0  0  0  0  0  0  0  0  0  0
   -0.8633    0.7795   -2.8715 H   0  0  0  0  0  0  0  0  0  0  0  0
    0.3889    2.1402   -0.4393 H   0  0  0  0  0  0  0  0  0  0  0  0
    1.1983    1.5904   -1.9242 H   0  0  0  0  0  0  0  0  0  0  0  0
    0.3247   -0.7285   -1.1675 H   0  0  0  0  0  0  0  0  0  0  0  0
    4.5831    1.5434    0.6983 H   0  0  0  0  0  0  0  0  0  0  0  0
    3.7172   -2.5948    1.4896 H   0  0  0  0  0  0  0  0  0  0  0  0
  1  2  1  0
  2  3  1  0
  3  4  2  0
  3  5  1  0
  5  6  1  0
  6  7  3  0
  5  8  2  0
  8  9  1  0
  9 10  1  0
 10 11  1  0
 11 12  1  0
 12 13  1  0
 13 14  2  0
 14 15  1  0
 15 16  2  0
 16 17  1  0
 17 18  1  0
 17 19  1  0
 17 20  1  0
 16 21  1  0
 21 22  2  0
 22 23  1  0
  9 24  1  0
 24 25  2  0
 24  2  1  0
 22 13  1  0
  1 26  1  0
  1 27  1  0
  1 28  1  0
  8 29  1  0
 10 30  1  0
 10 31  1  0
 11 32  1  0
 11 33  1  0
 12 34  1  0
 15 35  1  0
 21 36  1  0
M  END
$$$$
