
     RDKit          3D

 54 57  0  0  0  0  0  0  0  0999 V2000
    8.0717   -2.3036    1.5307 C   0  0  0  0  0  0  0  0  0  0  0  0
    6.6511   -2.3152    1.4848 O   0  0  0  0  0  0  0  0  0  0  0  0
    6.0424   -1.3199    0.7688 C   0  0  0  0  0  0  0  0  0  0  0  0
    6.6933   -0.3014    0.0737 C   0  0  0  0  0  0  0  0  0  0  0  0
    5.9492    0.6523   -0.6212 C   0  0  0  0  0  0  0  0  0  0  0  0
    4.5549    0.5900   -0.6216 C   0  0  0  0  0  0  0  0  0  0  0  0
    3.8876   -0.4247    0.0741 C   0  0  0  0  0  0  0  0  0  0  0  0
    2.4778   -0.4184    0.0163 N   0  0  0  0  0  0  0  0  0  0  0  0
    1.6041   -1.2830    0.6497 C   0  0  0  0  0  0  0  0  0  0  0  0
    1.8906   -2.1815    1.4309 O   0  0  0  0  0  0  0  0  0  0  0  0
    0.1798   -0.9978    0.3201 C   0  0  0  0  0  0  0  0  0  0  0  0
   -0.7298   -1.0881    1.3038 C   0  0  0  0  0  0  0  0  0  0  0  0
   -2.1259   -0.7247    1.1131 C   0  0  0  0  0  0  0  0  0  0  0  0
   -3.0821   -0.8680    2.2477 C   0  0  0  0  0  0  0  0  0  0  0  0
   -2.6879   -1.2987    3.3335 O   0  0  0  0  0  0  0  0  0  0  0  0
   -4.3876   -0.4868    1.9937 N   0  0  0  0  0  0  0  0  0  0  0  0
   -5.3429   -0.6011    2.9985 C   0  0  0  0  0  0  0  0  0  0  0  0
   -6.6167   -0.2378    2.8048 C   0  0  0  0  0  0  0  0  0  0  0  0
   -7.0247    0.2882    1.5298 C   0  0  0  0  0  0  0  0  0  0  0  0
   -6.1381    0.4167    0.5357 C   0  0  0  0  0  0  0  0  0  0  0  0
   -4.7191    0.0121    0.7483 C   0  0  0  0  0  0  0  0  0  0  0  0
   -3.8848    0.1490   -0.2309 N   0  0  0  0  0  0  0  0  0  0  0  0
   -2.5699   -0.2238   -0.0633 C   0  0  0  0  0  0  0  0  0  0  0  0
   -1.6500   -0.0949   -1.1361 N   0  0  0  0  0  0  0  0  0  0  0  0
   -2.1201    0.4419   -2.4290 C   0  0  0  0  0  0  0  0  0  0  0  0
   -2.1709    1.9832   -2.4229 C   0  0  0  0  0  0  0  0  0  0  0  0
   -0.7783    2.6086   -2.3217 C   0  0  0  0  0  0  0  0  0  0  0  0
   -2.8705    2.4829   -3.6891 C   0  0  0  0  0  0  0  0  0  0  0  0
   -0.3261   -0.5391   -1.0189 C   0  0  0  0  0  0  0  0  0  0  0  0
    0.4636   -0.5608   -2.0570 N   0  0  0  0  0  0  0  0  0  0  0  0
    4.6417   -1.3760    0.7641 C   0  0  0  0  0  0  0  0  0  0  0  0
    8.3937   -3.1539    2.1395 H   0  0  0  0  0  0  0  0  0  0  0  0
    8.4440   -1.3918    2.0092 H   0  0  0  0  0  0  0  0  0  0  0  0
    8.5000   -2.4292    0.5308 H   0  0  0  0  0  0  0  0  0  0  0  0
    7.7748   -0.2227    0.0518 H   0  0  0  0  0  0  0  0  0  0  0  0
    6.4569    1.4452   -1.1646 H   0  0  0  0  0  0  0  0  0  0  0  0
    4.0020    1.3457   -1.1742 H   0  0  0  0  0  0  0  0  0  0  0  0
    2.0668    0.3432   -0.5163 H   0  0  0  0  0  0  0  0  0  0  0  0
   -0.4299   -1.4057    2.3015 H   0  0  0  0  0  0  0  0  0  0  0  0
   -5.0111   -1.0006    3.9540 H   0  0  0  0  0  0  0  0  0  0  0  0
   -7.3548   -0.3313    3.5949 H   0  0  0  0  0  0  0  0  0  0  0  0
   -8.0625    0.5761    1.3954 H   0  0  0  0  0  0  0  0  0  0  0  0
   -6.4043    0.8076   -0.4383 H   0  0  0  0  0  0  0  0  0  0  0  0
   -3.1174    0.0378   -2.6483 H   0  0  0  0  0  0  0  0  0  0  0  0
   -1.4980    0.0944   -3.2630 H   0  0  0  0  0  0  0  0  0  0  0  0
   -2.7562    2.3277   -1.5616 H   0  0  0  0  0  0  0  0  0  0  0  0
   -0.2951    2.3510   -1.3741 H   0  0  0  0  0  0  0  0  0  0  0  0
   -0.1311    2.2738   -3.1393 H   0  0  0  0  0  0  0  0  0  0  0  0
   -0.8402    3.7013   -2.3677 H   0  0  0  0  0  0  0  0  0  0  0  0
   -2.3274    2.1783   -4.5902 H   0  0  0  0  0  0  0  0  0  0  0  0
   -2.9419    3.5757   -3.6893 H   0  0  0  0  0  0  0  0  0  0  0  0
   -3.8882    2.0835   -3.7543 H   0  0  0  0  0  0  0  0  0  0  0  0
    1.3677   -1.0006   -1.8503 H   0  0  0  0  0  0  0  0  0  0  0  0
    4.1696   -2.1849    1.3134 H   0  0  0  0  0  0  0  0  0  0  0  0
  1  2  1  0
  2  3  1  0
  3  4  2  0
  4  5  1  0
  5  6  2  0
  6  7  1  0
  7  8  1  0
  8  9  1  0
  9 10  2  0
  9 11  1  0
 11 12  2  0
 12 13  1  0
 13 14  1  0
 14 15  2  0
 14 16  1  0
 16 17  1  0
 17 18  2  0
 18 19  1  0
 19 20  2  0
 20 21  1  0
 21 22  2  0
 22 23  1  0
 23 24  1  0
 24 25  1  0
 25 26  1  0
 26 27  1  0
 26 28  1  0
 24 29  1  0
 29 30  2  3
  7 31  2  0
 31  3  1  0
 29 11  1  0
 23 13  2  0
 21 16  1  0
  1 32  1  0
  1 33  1  0
  1 34  1  0
  4 35  1  0
  5 36  1  0
  6 37  1  0
  8 38  1  0
 12 39  1  0
 17 40  1  0
 18 41  1  0
 19 42  1  0
 20 43  1  0
 25 44  1  0
 25 45  1  0
 26 46  1  0
 27 47  1  0
 27 48  1  0
 27 49  1  0
 28 50  1  0
 28 51  1  0
 28 52  1  0
 30 53  1  0
 31 54  1  0
M  END
$$$$
