
     RDKit          3D

 50 53  0  0  0  0  0  0  0  0999 V2000
   -6.9553    2.1941    2.1084 C   0  0  0  0  0  0  0  0  0  0  0  0
   -6.8384    1.0324    1.2092 C   0  0  0  0  0  0  0  0  0  0  0  0
   -6.4336    0.8596   -0.0926 C   0  0  0  0  0  0  0  0  0  0  0  0
   -6.5852   -0.5221   -0.3277 C   0  0  0  0  0  0  0  0  0  0  0  0
   -6.3320   -1.2492   -1.4761 N   0  0  0  0  0  0  0  0  0  0  0  0
   -5.5493   -0.6988   -2.8327 S   0  0  0  0  0  6  0  0  0  0  0  0
   -6.0548    0.6142   -3.1793 O   0  0  0  0  0  0  0  0  0  0  0  0
   -5.5539   -1.7827   -3.7917 O   0  0  0  0  0  0  0  0  0  0  0  0
   -3.8756   -0.5137   -2.2614 C   0  0  0  0  0  0  0  0  0  0  0  0
   -3.1099   -1.6543   -2.0148 C   0  0  0  0  0  0  0  0  0  0  0  0
   -1.7904   -1.5212   -1.5688 C   0  0  0  0  0  0  0  0  0  0  0  0
   -1.2282   -0.2566   -1.3750 C   0  0  0  0  0  0  0  0  0  0  0  0
    0.0904   -0.0402   -0.9233 N   0  0  0  0  0  0  0  0  0  0  0  0
    1.0527   -0.9982   -0.6360 C   0  0  0  0  0  0  0  0  0  0  0  0
    0.9220   -2.2138   -0.7240 O   0  0  0  0  0  0  0  0  0  0  0  0
    2.3473   -0.3629   -0.1682 C   0  0  0  0  0  0  0  0  0  0  0  0
    3.4257   -1.4169    0.0634 C   0  0  0  0  0  0  0  0  0  0  0  0
    4.6768   -0.8155    0.4922 N   0  0  0  0  0  0  0  0  0  0  0  0
    5.5546   -0.1983   -0.3568 C   0  0  0  0  0  0  0  0  0  0  0  0
    5.4695   -0.0319   -1.5584 O   0  0  0  0  0  0  0  0  0  0  0  0
    6.6543    0.2954    0.4697 C   0  0  0  0  0  0  0  0  0  0  0  0
    7.8076    0.9677    0.1178 C   0  0  0  0  0  0  0  0  0  0  0  0
    8.6803    1.3215    1.1534 C   0  0  0  0  0  0  0  0  0  0  0  0
    8.3830    1.0004    2.4937 C   0  0  0  0  0  0  0  0  0  0  0  0
    7.2050    0.3241    2.8236 C   0  0  0  0  0  0  0  0  0  0  0  0
    6.3600   -0.0151    1.7854 C   0  0  0  0  0  0  0  0  0  0  0  0
    5.0696   -0.7025    1.7989 C   0  0  0  0  0  0  0  0  0  0  0  0
    4.4939   -1.0576    2.8086 O   0  0  0  0  0  0  0  0  0  0  0  0
   -2.0060    0.8802   -1.6427 C   0  0  0  0  0  0  0  0  0  0  0  0
   -3.3242    0.7570   -2.0929 C   0  0  0  0  0  0  0  0  0  0  0  0
   -7.0556   -1.1481    0.7555 N   0  0  0  0  0  0  0  0  0  0  0  0
   -7.2109   -0.1702    1.7230 O   0  0  0  0  0  0  0  0  0  0  0  0
   -8.0069    2.4006    2.3329 H   0  0  0  0  0  0  0  0  0  0  0  0
   -6.5228    3.0888    1.6528 H   0  0  0  0  0  0  0  0  0  0  0  0
   -6.4305    2.0044    3.0520 H   0  0  0  0  0  0  0  0  0  0  0  0
   -6.1011    1.6311   -0.7690 H   0  0  0  0  0  0  0  0  0  0  0  0
   -6.5604   -2.2396   -1.4604 H   0  0  0  0  0  0  0  0  0  0  0  0
   -3.5230   -2.6491   -2.1677 H   0  0  0  0  0  0  0  0  0  0  0  0
   -1.2276   -2.4315   -1.3828 H   0  0  0  0  0  0  0  0  0  0  0  0
    0.3714    0.9279   -0.8238 H   0  0  0  0  0  0  0  0  0  0  0  0
    2.6765    0.3622   -0.9207 H   0  0  0  0  0  0  0  0  0  0  0  0
    2.1519    0.1831    0.7636 H   0  0  0  0  0  0  0  0  0  0  0  0
    3.0988   -2.1288    0.8314 H   0  0  0  0  0  0  0  0  0  0  0  0
    3.6151   -1.9738   -0.8598 H   0  0  0  0  0  0  0  0  0  0  0  0
    8.0232    1.2091   -0.9172 H   0  0  0  0  0  0  0  0  0  0  0  0
    9.6022    1.8511    0.9240 H   0  0  0  0  0  0  0  0  0  0  0  0
    9.0805    1.2846    3.2816 H   0  0  0  0  0  0  0  0  0  0  0  0
    6.9619    0.0732    3.8524 H   0  0  0  0  0  0  0  0  0  0  0  0
   -1.5954    1.8783   -1.5116 H   0  0  0  0  0  0  0  0  0  0  0  0
   -3.9035    1.6516   -2.3083 H   0  0  0  0  0  0  0  0  0  0  0  0
  1  2  1  0
  2  3  2  0
  3  4  1  0
  4  5  1  0
  5  6  1  0
  6  7  2  0
  6  8  2  0
  6  9  1  0
  9 10  2  0
 10 11  1  0
 11 12  2  0
 12 13  1  0
 13 14  1  0
 14 15  2  0
 14 16  1  0
 16 17  1  0
 17 18  1  0
 18 19  1  0
 19 20  2  0
 19 21  1  0
 21 22  2  0
 22 23  1  0
 23 24  2  0
 24 25  1  0
 25 26  2  0
 26 27  1  0
 27 28  2  0
 12 29  1  0
 29 30  2  0
  4 31  2  0
 31 32  1  0
 32  2  1  0
 30  9  1  0
 27 18  1  0
 26 21  1  0
  1 33  1  0
  1 34  1  0
  1 35  1  0
  3 36  1  0
  5 37  1  0
 10 38  1  0
 11 39  1  0
 13 40  1  0
 16 41  1  0
 16 42  1  0
 17 43  1  0
 17 44  1  0
 22 45  1  0
 23 46  1  0
 24 47  1  0
 25 48  1  0
 29 49  1  0
 30 50  1  0
M  END
$$$$
