
     RDKit          3D

 40 41  0  0  0  0  0  0  0  0999 V2000
    1.3209    3.3640    1.7504 O   0  0  0  0  0  0  0  0  0  0  0  0
    1.9824    2.4495    2.2105 C   0  0  0  0  0  0  0  0  0  0  0  0
    3.1262    2.6989    2.8772 O   0  0  0  0  0  0  0  0  0  0  0  0
    1.6548    0.9864    2.1732 C   0  0  0  0  0  0  0  0  0  0  0  0
    0.7173    0.6519    1.0044 C   0  0  0  0  0  0  0  0  0  0  0  0
   -0.7263    0.8933    1.2487 N   0  0  0  0  0  0  0  0  0  0  0  0
   -1.3467   -0.0175    2.2142 C   0  0  0  0  0  0  0  0  0  0  0  0
   -2.7151    0.4644    2.5520 C   0  0  0  0  0  0  0  0  0  0  0  0
   -3.9642    0.2340    2.0128 C   0  0  0  0  0  0  0  0  0  0  0  0
   -4.8777    0.9927    2.7833 C   0  0  0  0  0  0  0  0  0  0  0  0
   -4.1298    1.6383    3.7389 C   0  0  0  0  0  0  0  0  0  0  0  0
   -2.8146    1.3264    3.6061 O   0  0  0  0  0  0  0  0  0  0  0  0
    0.9763   -0.7861    0.5426 C   0  0  0  0  0  0  0  0  0  0  0  0
    1.0771   -1.7475    1.2968 O   0  0  0  0  0  0  0  0  0  0  0  0
    1.0581   -0.8486   -0.8147 O   0  0  0  0  0  0  0  0  0  0  0  0
    1.2885   -2.1666   -1.3373 C   0  0  0  0  0  0  0  0  0  0  0  0
    1.3823   -2.1192   -2.8621 C   0  0  0  0  0  0  0  0  0  0  0  0
    0.1996   -1.4584   -3.5552 C   0  0  0  0  0  0  0  0  0  0  0  0
    0.8241   -1.0003   -4.8493 C   0  0  0  0  0  0  0  0  0  0  0  0
    2.1955   -0.5535   -4.3915 C   0  0  0  0  0  0  0  0  0  0  0  0
    2.5530   -1.3834   -3.2762 O   0  0  0  0  0  0  0  0  0  0  0  0
    3.2126    3.6759    2.8595 H   0  0  0  0  0  0  0  0  0  0  0  0
    1.2406    0.7008    3.1438 H   0  0  0  0  0  0  0  0  0  0  0  0
    2.5999    0.4430    2.0488 H   0  0  0  0  0  0  0  0  0  0  0  0
    0.9944    1.2968    0.1589 H   0  0  0  0  0  0  0  0  0  0  0  0
   -0.8420    1.8523    1.5880 H   0  0  0  0  0  0  0  0  0  0  0  0
   -1.4309   -1.0229    1.7882 H   0  0  0  0  0  0  0  0  0  0  0  0
   -0.7673   -0.0925    3.1398 H   0  0  0  0  0  0  0  0  0  0  0  0
   -4.1809   -0.3998    1.1644 H   0  0  0  0  0  0  0  0  0  0  0  0
   -5.9486    1.0641    2.6564 H   0  0  0  0  0  0  0  0  0  0  0  0
   -4.3688    2.3201    4.5429 H   0  0  0  0  0  0  0  0  0  0  0  0
    2.2307   -2.5470   -0.9255 H   0  0  0  0  0  0  0  0  0  0  0  0
    0.4605   -2.8203   -1.0399 H   0  0  0  0  0  0  0  0  0  0  0  0
    1.5110   -3.1409   -3.2407 H   0  0  0  0  0  0  0  0  0  0  0  0
   -0.1629   -0.5861   -2.9998 H   0  0  0  0  0  0  0  0  0  0  0  0
   -0.6409   -2.1430   -3.6988 H   0  0  0  0  0  0  0  0  0  0  0  0
    0.2640   -0.2086   -5.3536 H   0  0  0  0  0  0  0  0  0  0  0  0
    0.9164   -1.8487   -5.5379 H   0  0  0  0  0  0  0  0  0  0  0  0
    2.1789    0.4848   -4.0428 H   0  0  0  0  0  0  0  0  0  0  0  0
    2.9514   -0.6464   -5.1765 H   0  0  0  0  0  0  0  0  0  0  0  0
  1  2  2  0
  2  3  1  0
  2  4  1  0
  4  5  1  0
  5  6  1  0
  6  7  1  0
  7  8  1  0
  8  9  2  0
  9 10  1  0
 10 11  2  0
 11 12  1  0
  5 13  1  0
 13 14  2  0
 13 15  1  0
 15 16  1  0
 16 17  1  0
 17 18  1  0
 18 19  1  0
 19 20  1  0
 20 21  1  0
 12  8  1  0
 21 17  1  0
  3 22  1  0
  4 23  1  0
  4 24  1  0
  5 25  1  0
  6 26  1  0
  7 27  1  0
  7 28  1  0
  9 29  1  0
 10 30  1  0
 11 31  1  0
 16 32  1  0
 16 33  1  0
 17 34  1  0
 18 35  1  0
 18 36  1  0
 19 37  1  0
 19 38  1  0
 20 39  1  0
 20 40  1  0
M  END
$$$$
