
     RDKit          3D

 39 41  0  0  0  0  0  0  0  0999 V2000
    1.3462   -3.4690   -0.8248 S   0  0  0  0  0  0  0  0  0  0  0  0
    0.8679   -1.8717   -0.6094 C   0  0  0  0  0  0  0  0  0  0  0  0
    1.7657   -0.8525   -0.3433 N   0  0  0  0  0  0  0  0  0  0  0  0
    3.2236   -0.9832   -0.2832 C   0  0  0  0  0  0  0  0  0  0  0  0
    3.8904    0.2730    0.2927 C   0  0  0  0  0  0  0  0  0  0  0  0
    3.5697    0.5330    1.7617 C   0  0  0  0  0  0  0  0  0  0  0  0
    2.5987    1.6872    1.7201 C   0  0  0  0  0  0  0  0  0  0  0  0
    3.0474    2.4357    0.4881 C   0  0  0  0  0  0  0  0  0  0  0  0
    3.4535    1.4329   -0.4504 O   0  0  0  0  0  0  0  0  0  0  0  0
   -0.4689   -1.4176   -0.6563 N   0  0  0  0  0  0  0  0  0  0  0  0
   -1.5602   -2.3257   -1.0428 C   0  0  0  0  0  0  0  0  0  0  0  0
   -2.7323   -1.5752   -1.6698 C   0  0  0  0  0  0  0  0  0  0  0  0
   -3.2158   -0.4758   -0.7677 C   0  0  0  0  0  0  0  0  0  0  0  0
   -4.5398   -0.0236   -0.8453 C   0  0  0  0  0  0  0  0  0  0  0  0
   -4.9797    1.0112   -0.0212 C   0  0  0  0  0  0  0  0  0  0  0  0
   -4.0991    1.6067    0.8777 C   0  0  0  0  0  0  0  0  0  0  0  0
   -2.7755    1.1714    0.9487 C   0  0  0  0  0  0  0  0  0  0  0  0
   -2.3187    0.1312    0.1238 C   0  0  0  0  0  0  0  0  0  0  0  0
   -0.8730   -0.3008    0.2163 C   0  0  0  0  0  0  0  0  0  0  0  0
    1.4963    0.0306   -0.7595 H   0  0  0  0  0  0  0  0  0  0  0  0
    3.4966   -1.8617    0.3097 H   0  0  0  0  0  0  0  0  0  0  0  0
    3.5609   -1.1375   -1.3148 H   0  0  0  0  0  0  0  0  0  0  0  0
    4.9750    0.1788    0.1634 H   0  0  0  0  0  0  0  0  0  0  0  0
    4.4841    0.8472    2.2802 H   0  0  0  0  0  0  0  0  0  0  0  0
    3.1805   -0.3403    2.2934 H   0  0  0  0  0  0  0  0  0  0  0  0
    1.5798    1.3098    1.5820 H   0  0  0  0  0  0  0  0  0  0  0  0
    2.6143    2.3029    2.6231 H   0  0  0  0  0  0  0  0  0  0  0  0
    2.2530    3.0481    0.0532 H   0  0  0  0  0  0  0  0  0  0  0  0
    3.9112    3.0753    0.7003 H   0  0  0  0  0  0  0  0  0  0  0  0
   -1.2092   -3.0624   -1.7714 H   0  0  0  0  0  0  0  0  0  0  0  0
   -1.8749   -2.8670   -0.1412 H   0  0  0  0  0  0  0  0  0  0  0  0
   -2.4251   -1.1294   -2.6237 H   0  0  0  0  0  0  0  0  0  0  0  0
   -3.5418   -2.2859   -1.8728 H   0  0  0  0  0  0  0  0  0  0  0  0
   -5.2352   -0.4773   -1.5477 H   0  0  0  0  0  0  0  0  0  0  0  0
   -6.0093    1.3538   -0.0824 H   0  0  0  0  0  0  0  0  0  0  0  0
   -4.4419    2.4135    1.5202 H   0  0  0  0  0  0  0  0  0  0  0  0
   -2.0977    1.6513    1.6513 H   0  0  0  0  0  0  0  0  0  0  0  0
   -0.6606   -0.6107    1.2475 H   0  0  0  0  0  0  0  0  0  0  0  0
   -0.2562    0.5738   -0.0126 H   0  0  0  0  0  0  0  0  0  0  0  0
  1  2  2  0
  2  3  1  0
  3  4  1  0
  4  5  1  0
  5  6  1  0
  6  7  1  0
  7  8  1  0
  8  9  1  0
  2 10  1  0
 10 11  1  0
 11 12  1  0
 12 13  1  0
 13 14  2  0
 14 15  1  0
 15 16  2  0
 16 17  1  0
 17 18  2  0
 18 19  1  0
  9  5  1  0
 19 10  1  0
 18 13  1  0
  3 20  1  0
  4 21  1  0
  4 22  1  0
  5 23  1  0
  6 24  1  0
  6 25  1  0
  7 26  1  0
  7 27  1  0
  8 28  1  0
  8 29  1  0
 11 30  1  0
 11 31  1  0
 12 32  1  0
 12 33  1  0
 14 34  1  0
 15 35  1  0
 16 36  1  0
 17 37  1  0
 19 38  1  0
 19 39  1  0
M  END
$$$$
