
     RDKit          3D

 46 50  0  0  0  0  0  0  0  0999 V2000
    1.3549   -0.6066   -1.5242 O   0  0  0  0  0  0  0  0  0  0  0  0
    0.7577   -0.0623   -0.6056 C   0  0  0  0  0  0  0  0  0  0  0  0
    1.3154    0.4876    0.5334 N   0  0  0  0  0  0  0  0  0  0  0  0
    2.6928    0.5302    0.8713 C   0  0  0  0  0  0  0  0  0  0  0  0
    3.0996    1.7145    1.5097 C   0  0  0  0  0  0  0  0  0  0  0  0
    4.4333    1.9315    1.8350 C   0  0  0  0  0  0  0  0  0  0  0  0
    5.3784    0.9539    1.5505 C   0  0  0  0  0  0  0  0  0  0  0  0
    4.9999   -0.2690    0.9802 C   0  0  0  0  0  0  0  0  0  0  0  0
    5.9792   -1.2541    0.7654 C   0  0  0  0  0  0  0  0  0  0  0  0
    5.6414   -2.5085    0.2660 C   0  0  0  0  0  0  0  0  0  0  0  0
    4.3144   -2.7983   -0.0074 C   0  0  0  0  0  0  0  0  0  0  0  0
    3.3322   -1.8236    0.1938 C   0  0  0  0  0  0  0  0  0  0  0  0
    3.6388   -0.5171    0.6512 C   0  0  0  0  0  0  0  0  0  0  0  0
   -0.6923    0.0121   -0.6201 C   0  0  0  0  0  0  0  0  0  0  0  0
   -1.5075   -1.0950   -0.7721 C   0  0  0  0  0  0  0  0  0  0  0  0
   -2.8090   -0.6678   -0.6902 N   0  0  0  0  0  0  0  0  0  0  0  0
   -3.9961   -1.4489   -0.7755 C   0  0  0  0  0  0  0  0  0  0  0  0
   -3.9424   -2.8345   -0.9834 C   0  0  0  0  0  0  0  0  0  0  0  0
   -5.1249   -3.5765   -1.0622 C   0  0  0  0  0  0  0  0  0  0  0  0
   -6.3612   -2.9455   -0.9354 C   0  0  0  0  0  0  0  0  0  0  0  0
   -6.4220   -1.5691   -0.7301 C   0  0  0  0  0  0  0  0  0  0  0  0
   -5.2455   -0.8209   -0.6504 C   0  0  0  0  0  0  0  0  0  0  0  0
   -2.8702    0.6705   -0.4913 N   0  0  0  0  0  0  0  0  0  0  0  0
   -1.5994    1.0929   -0.5166 C   0  0  0  0  0  0  0  0  0  0  0  0
   -1.3022    2.6444   -0.4563 C   0  0  0  0  0  0  0  0  0  0  0  0
   -2.2981    3.5893   -0.3026 C   0  0  0  0  0  0  0  0  0  0  0  0
   -1.7889    4.9208   -0.2901 C   0  0  0  0  0  0  0  0  0  0  0  0
   -0.4215    4.9464   -0.4463 C   0  0  0  0  0  0  0  0  0  0  0  0
    0.2299    3.3746   -0.6079 S   0  0  0  0  0  0  0  0  0  0  0  0
    0.7285    1.1606    1.0101 H   0  0  0  0  0  0  0  0  0  0  0  0
    2.3867    2.5073    1.7222 H   0  0  0  0  0  0  0  0  0  0  0  0
    4.7383    2.8658    2.2987 H   0  0  0  0  0  0  0  0  0  0  0  0
    6.4192    1.1449    1.8047 H   0  0  0  0  0  0  0  0  0  0  0  0
    7.0226   -1.0539    1.0008 H   0  0  0  0  0  0  0  0  0  0  0  0
    6.4099   -3.2598    0.1080 H   0  0  0  0  0  0  0  0  0  0  0  0
    4.0326   -3.7804   -0.3773 H   0  0  0  0  0  0  0  0  0  0  0  0
    2.3049   -2.1145   -0.0015 H   0  0  0  0  0  0  0  0  0  0  0  0
   -1.2430   -2.1318   -0.9154 H   0  0  0  0  0  0  0  0  0  0  0  0
   -3.0040   -3.3690   -1.0916 H   0  0  0  0  0  0  0  0  0  0  0  0
   -5.0809   -4.6509   -1.2248 H   0  0  0  0  0  0  0  0  0  0  0  0
   -7.2779   -3.5265   -0.9983 H   0  0  0  0  0  0  0  0  0  0  0  0
   -7.3855   -1.0750   -0.6327 H   0  0  0  0  0  0  0  0  0  0  0  0
   -5.3199    0.2533   -0.4908 H   0  0  0  0  0  0  0  0  0  0  0  0
   -3.3475    3.3356   -0.2035 H   0  0  0  0  0  0  0  0  0  0  0  0
   -2.3963    5.8109   -0.1798 H   0  0  0  0  0  0  0  0  0  0  0  0
    0.2257    5.8123   -0.4819 H   0  0  0  0  0  0  0  0  0  0  0  0
  1  2  2  0
  2  3  1  0
  3  4  1  0
  4  5  2  0
  5  6  1  0
  6  7  2  0
  7  8  1  0
  8  9  2  0
  9 10  1  0
 10 11  2  0
 11 12  1  0
 12 13  2  0
  2 14  1  0
 14 15  2  0
 15 16  1  0
 16 17  1  0
 17 18  2  0
 18 19  1  0
 19 20  2  0
 20 21  1  0
 21 22  2  0
 16 23  1  0
 23 24  2  0
 24 25  1  0
 25 26  2  0
 26 27  1  0
 27 28  2  0
 28 29  1  0
 13  4  1  0
 24 14  1  0
 29 25  1  0
 13  8  1  0
 22 17  1  0
  3 30  1  0
  5 31  1  0
  6 32  1  0
  7 33  1  0
  9 34  1  0
 10 35  1  0
 11 36  1  0
 12 37  1  0
 15 38  1  0
 18 39  1  0
 19 40  1  0
 20 41  1  0
 21 42  1  0
 22 43  1  0
 26 44  1  0
 27 45  1  0
 28 46  1  0
M  END
$$$$
