
     RDKit          3D

 69 71  0  0  0  0  0  0  0  0999 V2000
   -5.0155    1.2116   -2.8210 C   0  0  0  0  0  0  0  0  0  0  0  0
   -6.1777    1.2921   -1.8430 C   0  0  0  0  0  0  0  0  0  0  0  0
   -6.0233    2.4151   -0.8142 C   0  0  0  0  0  0  0  0  0  0  0  0
   -4.9129    2.1929    0.1220 N   0  0  0  0  0  0  0  0  0  0  0  0
   -5.1789    1.2788    1.2346 C   0  0  0  0  0  0  0  0  0  0  0  0
   -5.4460    1.9869    2.5654 C   0  0  0  0  0  0  0  0  0  0  0  0
   -6.7543    2.7629    2.5859 C   0  0  0  0  0  0  0  0  0  0  0  0
   -3.7380    2.9173   -0.0784 C   0  0  0  0  0  0  0  0  0  0  0  0
   -3.7039    3.8451   -0.8972 O   0  0  0  0  0  0  0  0  0  0  0  0
   -2.4910    2.6957    0.8047 C   0  0  0  0  0  0  0  0  0  0  0  0
   -2.0281    1.3223    1.0012 N   0  0  0  0  0  0  0  0  0  0  0  0
   -1.6117    0.6396   -0.1507 C   0  0  0  0  0  0  0  0  0  0  0  0
   -1.6654    1.1719   -1.2615 O   0  0  0  0  0  0  0  0  0  0  0  0
   -1.1483   -0.6728    0.0039 N   0  0  0  0  0  0  0  0  0  0  0  0
   -0.7873   -1.3980   -1.2134 C   0  0  0  0  0  0  0  0  0  0  0  0
    0.6215   -1.0636   -1.7235 C   0  0  0  0  0  0  0  0  0  0  0  0
    1.7336   -1.6301   -0.8372 C   0  0  0  0  0  0  0  0  0  0  0  0
    3.1151   -1.3497   -1.4303 C   0  0  0  0  0  0  0  0  0  0  0  0
    4.2198   -1.9846   -0.5881 C   0  0  0  0  0  0  0  0  0  0  0  0
    5.6111   -1.6818   -1.1264 C   0  0  0  0  0  0  0  0  0  0  0  0
    5.7939   -0.9209   -2.0696 O   0  0  0  0  0  0  0  0  0  0  0  0
    6.5841   -2.3623   -0.4110 N   0  0  0  0  0  0  0  0  0  0  0  0
    7.9808   -2.3271   -0.6056 C   0  0  0  0  0  0  0  0  0  0  0  0
    8.7623   -3.1455    0.2228 C   0  0  0  0  0  0  0  0  0  0  0  0
   10.1533   -3.1654    0.0963 C   0  0  0  0  0  0  0  0  0  0  0  0
   10.7767   -2.3682   -0.8596 C   0  0  0  0  0  0  0  0  0  0  0  0
   10.0096   -1.5541   -1.6886 C   0  0  0  0  0  0  0  0  0  0  0  0
    8.6169   -1.5317   -1.5604 C   0  0  0  0  0  0  0  0  0  0  0  0
   -0.9737   -1.3269    1.2271 C   0  0  0  0  0  0  0  0  0  0  0  0
   -0.5638   -2.4837    1.3122 O   0  0  0  0  0  0  0  0  0  0  0  0
   -1.3046   -0.5098    2.3606 C   0  0  0  0  0  0  0  0  0  0  0  0
   -1.1171   -1.0371    3.9637 S   0  0  0  0  0  0  0  0  0  0  0  0
   -1.6787    0.4601    4.5687 C   0  0  0  0  0  0  0  0  0  0  0  0
   -2.0034    1.3365    3.5526 C   0  0  0  0  0  0  0  0  0  0  0  0
   -1.7972    0.7650    2.2621 C   0  0  0  0  0  0  0  0  0  0  0  0
   -4.8415    2.1783   -3.3065 H   0  0  0  0  0  0  0  0  0  0  0  0
   -5.2318    0.4738   -3.6021 H   0  0  0  0  0  0  0  0  0  0  0  0
   -4.0951    0.9024   -2.3175 H   0  0  0  0  0  0  0  0  0  0  0  0
   -6.2935    0.3241   -1.3439 H   0  0  0  0  0  0  0  0  0  0  0  0
   -7.0985    1.4694   -2.4114 H   0  0  0  0  0  0  0  0  0  0  0  0
   -5.9066    3.3690   -1.3378 H   0  0  0  0  0  0  0  0  0  0  0  0
   -6.9465    2.4992   -0.2328 H   0  0  0  0  0  0  0  0  0  0  0  0
   -4.3380    0.5958    1.3424 H   0  0  0  0  0  0  0  0  0  0  0  0
   -6.0361    0.6442    0.9798 H   0  0  0  0  0  0  0  0  0  0  0  0
   -5.4808    1.2302    3.3569 H   0  0  0  0  0  0  0  0  0  0  0  0
   -4.6333    2.6736    2.8149 H   0  0  0  0  0  0  0  0  0  0  0  0
   -7.5991    2.1204    2.3184 H   0  0  0  0  0  0  0  0  0  0  0  0
   -6.7251    3.6084    1.8919 H   0  0  0  0  0  0  0  0  0  0  0  0
   -6.9375    3.1634    3.5878 H   0  0  0  0  0  0  0  0  0  0  0  0
   -2.6805    3.1912    1.7596 H   0  0  0  0  0  0  0  0  0  0  0  0
   -1.6621    3.2391    0.3317 H   0  0  0  0  0  0  0  0  0  0  0  0
   -0.8795   -2.4785   -1.0546 H   0  0  0  0  0  0  0  0  0  0  0  0
   -1.5117   -1.1392   -1.9953 H   0  0  0  0  0  0  0  0  0  0  0  0
    0.7268   -1.4842   -2.7324 H   0  0  0  0  0  0  0  0  0  0  0  0
    0.7455    0.0223   -1.8162 H   0  0  0  0  0  0  0  0  0  0  0  0
    1.5971   -2.7125   -0.7250 H   0  0  0  0  0  0  0  0  0  0  0  0
    1.6795   -1.1846    0.1622 H   0  0  0  0  0  0  0  0  0  0  0  0
    3.2714   -0.2660   -1.4944 H   0  0  0  0  0  0  0  0  0  0  0  0
    3.1669   -1.7392   -2.4546 H   0  0  0  0  0  0  0  0  0  0  0  0
    4.1656   -1.6114    0.4413 H   0  0  0  0  0  0  0  0  0  0  0  0
    4.0845   -3.0724   -0.5670 H   0  0  0  0  0  0  0  0  0  0  0  0
    6.2585   -2.9791    0.3233 H   0  0  0  0  0  0  0  0  0  0  0  0
    8.3003   -3.7804    0.9759 H   0  0  0  0  0  0  0  0  0  0  0  0
   10.7493   -3.8096    0.7387 H   0  0  0  0  0  0  0  0  0  0  0  0
   11.8584   -2.3821   -0.9631 H   0  0  0  0  0  0  0  0  0  0  0  0
   10.4903   -0.9280   -2.4366 H   0  0  0  0  0  0  0  0  0  0  0  0
    8.0572   -0.8784   -2.2225 H   0  0  0  0  0  0  0  0  0  0  0  0
   -1.7427    0.6258    5.6354 H   0  0  0  0  0  0  0  0  0  0  0  0
   -2.3695    2.3345    3.7575 H   0  0  0  0  0  0  0  0  0  0  0  0
  1  2  1  0
  2  3  1  0
  3  4  1  0
  4  5  1  0
  5  6  1  0
  6  7  1  0
  4  8  1  0
  8  9  2  0
  8 10  1  0
 10 11  1  0
 11 12  1  0
 12 13  2  0
 12 14  1  0
 14 15  1  0
 15 16  1  0
 16 17  1  0
 17 18  1  0
 18 19  1  0
 19 20  1  0
 20 21  2  0
 20 22  1  0
 22 23  1  0
 23 24  2  0
 24 25  1  0
 25 26  2  0
 26 27  1  0
 27 28  2  0
 14 29  1  0
 29 30  2  0
 29 31  1  0
 31 32  1  0
 32 33  1  0
 33 34  2  0
 34 35  1  0
 35 11  1  0
 28 23  1  0
 35 31  2  0
  1 36  1  0
  1 37  1  0
  1 38  1  0
  2 39  1  0
  2 40  1  0
  3 41  1  0
  3 42  1  0
  5 43  1  0
  5 44  1  0
  6 45  1  0
  6 46  1  0
  7 47  1  0
  7 48  1  0
  7 49  1  0
 10 50  1  0
 10 51  1  0
 15 52  1  0
 15 53  1  0
 16 54  1  0
 16 55  1  0
 17 56  1  0
 17 57  1  0
 18 58  1  0
 18 59  1  0
 19 60  1  0
 19 61  1  0
 22 62  1  0
 24 63  1  0
 25 64  1  0
 26 65  1  0
 27 66  1  0
 28 67  1  0
 33 68  1  0
 34 69  1  0
M  END
$$$$
