
     RDKit          3D

 40 41  0  0  0  0  0  0  0  0999 V2000
   -2.1278   -1.3193    0.6068 O   0  0  0  0  0  0  0  0  0  0  0  0
   -1.9962   -0.1635    0.2181 C   0  0  0  0  0  0  0  0  0  0  0  0
   -0.6583    0.3791   -0.2962 C   0  0  0  0  0  0  0  0  0  0  0  0
    0.3573   -0.6209   -0.2568 O   0  0  0  0  0  0  0  0  0  0  0  0
    1.5701   -0.1903   -0.6969 C   0  0  0  0  0  0  0  0  0  0  0  0
    1.7998    0.9388   -1.1051 O   0  0  0  0  0  0  0  0  0  0  0  0
    2.5665   -1.3246   -0.6260 C   0  0  0  0  0  0  0  0  0  0  0  0
    4.0037   -0.8618   -0.8549 C   0  0  0  0  0  0  0  0  0  0  0  0
    4.5834   -0.0490    0.3035 C   0  0  0  0  0  0  0  0  0  0  0  0
    6.0958   -0.1379    0.1147 C   0  0  0  0  0  0  0  0  0  0  0  0
    6.3471   -1.3735   -0.7495 C   0  0  0  0  0  0  0  0  0  0  0  0
    4.9855   -2.0281   -0.9469 C   0  0  0  0  0  0  0  0  0  0  0  0
   -2.9917    0.8043    0.1817 N   0  0  0  0  0  0  0  0  0  0  0  0
   -4.3553    0.6943    0.5687 C   0  0  0  0  0  0  0  0  0  0  0  0
   -4.8800   -0.5091    1.0614 C   0  0  0  0  0  0  0  0  0  0  0  0
   -6.2229   -0.6199    1.4432 C   0  0  0  0  0  0  0  0  0  0  0  0
   -7.0775    0.4709    1.3421 C   0  0  0  0  0  0  0  0  0  0  0  0
   -6.5909    1.6812    0.8571 C   0  0  0  0  0  0  0  0  0  0  0  0
   -5.2398    1.7974    0.4716 C   0  0  0  0  0  0  0  0  0  0  0  0
   -4.7949    3.1095   -0.0320 N   0  0  0  0  0  4  0  0  0  0  0  0
   -5.6213    4.0322   -0.0616 O   0  0  0  0  0  0  0  0  0  0  0  0
   -3.6147    3.2255   -0.4011 O   0  0  0  0  0  1  0  0  0  0  0  0
   -0.3688    1.2226    0.3419 H   0  0  0  0  0  0  0  0  0  0  0  0
   -0.8047    0.7138   -1.3302 H   0  0  0  0  0  0  0  0  0  0  0  0
    2.4781   -1.8061    0.3550 H   0  0  0  0  0  0  0  0  0  0  0  0
    2.2874   -2.0530   -1.3959 H   0  0  0  0  0  0  0  0  0  0  0  0
    4.0660   -0.2683   -1.7774 H   0  0  0  0  0  0  0  0  0  0  0  0
    4.3077   -0.4930    1.2681 H   0  0  0  0  0  0  0  0  0  0  0  0
    4.2363    0.9889    0.3039 H   0  0  0  0  0  0  0  0  0  0  0  0
    6.4752    0.7566   -0.3924 H   0  0  0  0  0  0  0  0  0  0  0  0
    6.6081   -0.2092    1.0799 H   0  0  0  0  0  0  0  0  0  0  0  0
    7.0620   -2.0604   -0.2857 H   0  0  0  0  0  0  0  0  0  0  0  0
    6.7636   -1.0684   -1.7167 H   0  0  0  0  0  0  0  0  0  0  0  0
    4.9192   -2.5543   -1.9044 H   0  0  0  0  0  0  0  0  0  0  0  0
    4.8033   -2.7568   -0.1471 H   0  0  0  0  0  0  0  0  0  0  0  0
   -2.7110    1.7217   -0.1704 H   0  0  0  0  0  0  0  0  0  0  0  0
   -4.2691   -1.4012    1.1660 H   0  0  0  0  0  0  0  0  0  0  0  0
   -6.5954   -1.5700    1.8218 H   0  0  0  0  0  0  0  0  0  0  0  0
   -8.1192    0.3780    1.6407 H   0  0  0  0  0  0  0  0  0  0  0  0
   -7.2765    2.5240    0.7857 H   0  0  0  0  0  0  0  0  0  0  0  0
  1  2  2  0
  2  3  1  0
  3  4  1  0
  4  5  1  0
  5  6  2  0
  5  7  1  0
  7  8  1  0
  8  9  1  0
  9 10  1  0
 10 11  1  0
 11 12  1  0
  2 13  1  0
 13 14  1  0
 14 15  2  0
 15 16  1  0
 16 17  2  0
 17 18  1  0
 18 19  2  0
 19 20  1  0
 20 21  2  0
 20 22  1  0
 12  8  1  0
 19 14  1  0
  3 23  1  0
  3 24  1  0
  7 25  1  0
  7 26  1  0
  8 27  1  0
  9 28  1  0
  9 29  1  0
 10 30  1  0
 10 31  1  0
 11 32  1  0
 11 33  1  0
 12 34  1  0
 12 35  1  0
 13 36  1  0
 15 37  1  0
 16 38  1  0
 17 39  1  0
 18 40  1  0
M  CHG  2  20   1  22  -1
M  END
$$$$
