
     RDKit          3D

 39 41  0  0  0  0  0  0  0  0999 V2000
   -1.9031   -0.8155   -2.5393 C   0  0  0  0  0  0  0  0  0  0  0  0
   -2.6680   -0.2845   -1.3543 C   0  0  0  0  0  0  0  0  0  0  0  0
   -4.0587   -0.1350   -1.4860 C   0  0  0  0  0  0  0  0  0  0  0  0
   -4.8262    0.3264   -0.4243 C   0  0  0  0  0  0  0  0  0  0  0  0
   -4.2081    0.6753    0.7710 C   0  0  0  0  0  0  0  0  0  0  0  0
   -2.8135    0.5660    0.9308 C   0  0  0  0  0  0  0  0  0  0  0  0
   -2.2461    1.0845    2.2254 C   0  0  0  0  0  0  0  0  0  0  0  0
   -2.0403    0.0297   -0.1220 C   0  0  0  0  0  0  0  0  0  0  0  0
   -0.6361   -0.1543   -0.0392 N   0  0  0  0  0  0  0  0  0  0  0  0
    0.0516   -0.6604    1.0453 C   0  0  0  0  0  0  0  0  0  0  0  0
   -0.4645   -1.1125    2.0651 O   0  0  0  0  0  0  0  0  0  0  0  0
    1.5754   -0.6617    0.9103 C   0  0  0  0  0  0  0  0  0  0  0  0
    2.1494   -1.4493   -0.2811 C   0  0  0  0  0  0  0  0  0  0  0  0
    3.1491   -0.4521   -0.9002 C   0  0  0  0  0  0  0  0  0  0  0  0
    4.3099   -0.2124    0.0852 C   0  0  0  0  0  0  0  0  0  0  0  0
    3.6678    0.6646    1.1751 C   0  0  0  0  0  0  0  0  0  0  0  0
    2.1969    0.7448    0.7205 C   0  0  0  0  0  0  0  0  0  0  0  0
    2.3844    0.8635   -0.7954 C   0  0  0  0  0  0  0  0  0  0  0  0
   -1.3714   -1.7339   -2.2698 H   0  0  0  0  0  0  0  0  0  0  0  0
   -2.5679   -1.0588   -3.3752 H   0  0  0  0  0  0  0  0  0  0  0  0
   -1.1892   -0.0663   -2.8963 H   0  0  0  0  0  0  0  0  0  0  0  0
   -4.5561   -0.3904   -2.4192 H   0  0  0  0  0  0  0  0  0  0  0  0
   -5.9029    0.4278   -0.5307 H   0  0  0  0  0  0  0  0  0  0  0  0
   -4.8202    1.0602    1.5848 H   0  0  0  0  0  0  0  0  0  0  0  0
   -1.2262    1.4602    2.1029 H   0  0  0  0  0  0  0  0  0  0  0  0
   -2.8337    1.9373    2.5858 H   0  0  0  0  0  0  0  0  0  0  0  0
   -2.2745    0.3092    2.9960 H   0  0  0  0  0  0  0  0  0  0  0  0
   -0.1657   -0.2702   -0.9226 H   0  0  0  0  0  0  0  0  0  0  0  0
    1.9482   -1.1057    1.8440 H   0  0  0  0  0  0  0  0  0  0  0  0
    2.6483   -2.3668    0.0494 H   0  0  0  0  0  0  0  0  0  0  0  0
    1.3815   -1.7350   -1.0072 H   0  0  0  0  0  0  0  0  0  0  0  0
    3.4772   -0.7298   -1.9037 H   0  0  0  0  0  0  0  0  0  0  0  0
    4.7116   -1.1459    0.4921 H   0  0  0  0  0  0  0  0  0  0  0  0
    5.1289    0.3311   -0.3991 H   0  0  0  0  0  0  0  0  0  0  0  0
    3.7849    0.2338    2.1743 H   0  0  0  0  0  0  0  0  0  0  0  0
    4.1282    1.6594    1.1786 H   0  0  0  0  0  0  0  0  0  0  0  0
    1.6371    1.5595    1.1848 H   0  0  0  0  0  0  0  0  0  0  0  0
    2.9851    1.7329   -1.0859 H   0  0  0  0  0  0  0  0  0  0  0  0
    1.4567    0.8742   -1.3699 H   0  0  0  0  0  0  0  0  0  0  0  0
  1  2  1  0
  2  3  2  0
  3  4  1  0
  4  5  2  0
  5  6  1  0
  6  7  1  0
  6  8  2  0
  8  9  1  0
  9 10  1  0
 10 11  2  0
 10 12  1  0
 12 13  1  0
 13 14  1  0
 14 15  1  0
 15 16  1  0
 16 17  1  0
 17 18  1  0
  8  2  1  0
 17 12  1  0
 18 14  1  0
  1 19  1  0
  1 20  1  0
  1 21  1  0
  3 22  1  0
  4 23  1  0
  5 24  1  0
  7 25  1  0
  7 26  1  0
  7 27  1  0
  9 28  1  0
 12 29  1  0
 13 30  1  0
 13 31  1  0
 14 32  1  0
 15 33  1  0
 15 34  1  0
 16 35  1  0
 16 36  1  0
 17 37  1  0
 18 38  1  0
 18 39  1  0
M  END
$$$$
