
     RDKit          3D

 50 50  0  0  0  0  0  0  0  0999 V2000
    4.4532    0.8462    2.6401 C   0  0  0  0  0  0  0  0  0  0  0  0
    5.2320    1.6805    1.9297 C   0  0  0  0  0  0  0  0  0  0  0  0
    6.6770    1.8936    2.2939 C   0  0  0  0  0  0  0  0  0  0  0  0
    4.6903    2.4920    0.7767 C   0  0  0  0  0  0  0  0  0  0  0  0
    5.3464    1.9320   -0.8144 S   0  0  0  0  0  0  0  0  0  0  0  0
    4.4202    0.4898   -1.0866 C   0  0  0  0  0  0  0  0  0  0  0  0
    4.7475   -0.4320   -1.9702 N   0  0  0  0  0  0  0  0  0  0  0  0
    3.7733   -1.4081   -1.9123 N   0  0  0  0  0  0  0  0  0  0  0  0
    2.9124   -1.0086   -1.0035 C   0  0  0  0  0  0  0  0  0  0  0  0
    1.6690   -1.6581   -0.5291 C   0  0  0  0  0  0  0  0  0  0  0  0
    0.4086   -0.9886   -1.0831 C   0  0  0  0  0  0  0  0  0  0  0  0
    0.2060   -1.2473   -2.5797 C   0  0  0  0  0  0  0  0  0  0  0  0
   -0.9608   -0.4695   -3.2029 C   0  0  0  0  0  0  0  0  0  0  0  0
   -2.3370   -0.8387   -2.6538 C   0  0  0  0  0  0  0  0  0  0  0  0
   -2.6266   -0.1704   -1.4066 N   0  0  0  0  0  0  0  0  0  0  0  0
   -3.4685   -0.6994   -0.4751 C   0  0  0  0  0  0  0  0  0  0  0  0
   -3.9286   -1.8286   -0.5027 O   0  0  0  0  0  0  0  0  0  0  0  0
   -3.7035    0.2386    0.4701 O   0  0  0  0  0  0  0  0  0  0  0  0
   -4.5662   -0.0498    1.6004 C   0  0  0  0  0  0  0  0  0  0  0  0
   -3.9966   -1.1825    2.4619 C   0  0  0  0  0  0  0  0  0  0  0  0
   -6.0010   -0.3404    1.1469 C   0  0  0  0  0  0  0  0  0  0  0  0
   -4.5666    1.2436    2.4298 C   0  0  0  0  0  0  0  0  0  0  0  0
    3.2488    0.1903   -0.4387 O   0  0  0  0  0  0  0  0  0  0  0  0
    4.8450    0.2795    3.4800 H   0  0  0  0  0  0  0  0  0  0  0  0
    3.4038    0.7008    2.4007 H   0  0  0  0  0  0  0  0  0  0  0  0
    6.8681    2.9550    2.4823 H   0  0  0  0  0  0  0  0  0  0  0  0
    7.3371    1.5574    1.4887 H   0  0  0  0  0  0  0  0  0  0  0  0
    6.9562    1.3440    3.1995 H   0  0  0  0  0  0  0  0  0  0  0  0
    4.9782    3.5407    0.9128 H   0  0  0  0  0  0  0  0  0  0  0  0
    3.5948    2.4820    0.7519 H   0  0  0  0  0  0  0  0  0  0  0  0
    1.6804   -2.7208   -0.7977 H   0  0  0  0  0  0  0  0  0  0  0  0
    1.6455   -1.6098    0.5665 H   0  0  0  0  0  0  0  0  0  0  0  0
    0.4385    0.0911   -0.8916 H   0  0  0  0  0  0  0  0  0  0  0  0
   -0.4460   -1.3936   -0.5302 H   0  0  0  0  0  0  0  0  0  0  0  0
    0.0572   -2.3213   -2.7461 H   0  0  0  0  0  0  0  0  0  0  0  0
    1.1144   -0.9702   -3.1278 H   0  0  0  0  0  0  0  0  0  0  0  0
   -0.9576   -0.6885   -4.2782 H   0  0  0  0  0  0  0  0  0  0  0  0
   -0.7835    0.6081   -3.1009 H   0  0  0  0  0  0  0  0  0  0  0  0
   -2.4378   -1.9233   -2.5376 H   0  0  0  0  0  0  0  0  0  0  0  0
   -3.1095   -0.5115   -3.3589 H   0  0  0  0  0  0  0  0  0  0  0  0
   -2.4887    0.8274   -1.3258 H   0  0  0  0  0  0  0  0  0  0  0  0
   -4.5533   -1.2884    3.3993 H   0  0  0  0  0  0  0  0  0  0  0  0
   -4.0368   -2.1475    1.9478 H   0  0  0  0  0  0  0  0  0  0  0  0
   -2.9432   -0.9974    2.7006 H   0  0  0  0  0  0  0  0  0  0  0  0
   -6.6847   -0.3977    2.0006 H   0  0  0  0  0  0  0  0  0  0  0  0
   -6.3588    0.4397    0.4656 H   0  0  0  0  0  0  0  0  0  0  0  0
   -6.0748   -1.2879    0.6047 H   0  0  0  0  0  0  0  0  0  0  0  0
   -5.1920    1.1538    3.3241 H   0  0  0  0  0  0  0  0  0  0  0  0
   -3.5492    1.5050    2.7440 H   0  0  0  0  0  0  0  0  0  0  0  0
   -4.9326    2.0885    1.8346 H   0  0  0  0  0  0  0  0  0  0  0  0
  1  2  2  0
  2  3  1  0
  2  4  1  0
  4  5  1  0
  5  6  1  0
  6  7  2  0
  7  8  1  0
  8  9  2  0
  9 10  1  0
 10 11  1  0
 11 12  1  0
 12 13  1  0
 13 14  1  0
 14 15  1  0
 15 16  1  0
 16 17  2  0
 16 18  1  0
 18 19  1  0
 19 20  1  0
 19 21  1  0
 19 22  1  0
  9 23  1  0
 23  6  1  0
  1 24  1  0
  1 25  1  0
  3 26  1  0
  3 27  1  0
  3 28  1  0
  4 29  1  0
  4 30  1  0
 10 31  1  0
 10 32  1  0
 11 33  1  0
 11 34  1  0
 12 35  1  0
 12 36  1  0
 13 37  1  0
 13 38  1  0
 14 39  1  0
 14 40  1  0
 15 41  1  0
 20 42  1  0
 20 43  1  0
 20 44  1  0
 21 45  1  0
 21 46  1  0
 21 47  1  0
 22 48  1  0
 22 49  1  0
 22 50  1  0
M  END
$$$$
