
     RDKit          3D

 49 52  0  0  0  0  0  0  0  0999 V2000
    3.0785    4.1102    0.1925 N   0  0  0  0  0  0  0  0  0  0  0  0
    2.6154    3.0969   -0.1394 C   0  0  0  0  0  0  0  0  0  0  0  0
    2.0438    1.8195   -0.5885 C   0  0  0  0  0  0  0  0  0  0  0  0
    2.7640    0.6610    0.0888 C   0  0  0  0  0  0  0  0  0  0  0  0
    3.5065   -0.0967   -0.5369 O   0  0  0  0  0  0  0  0  0  0  0  0
    2.5183    0.5083    1.4422 N   0  0  0  0  0  0  0  0  0  0  0  0
    2.8496   -0.7171    2.1306 C   0  0  0  0  0  0  0  0  0  0  0  0
    1.7026   -1.6906    2.0222 C   0  0  0  0  0  0  0  0  0  0  0  0
    0.5986   -1.5893    2.8813 C   0  0  0  0  0  0  0  0  0  0  0  0
   -0.4854   -2.4577    2.7449 C   0  0  0  0  0  0  0  0  0  0  0  0
   -0.4787   -3.4310    1.7476 C   0  0  0  0  0  0  0  0  0  0  0  0
    0.6090   -3.5352    0.8826 C   0  0  0  0  0  0  0  0  0  0  0  0
    1.6928   -2.6663    1.0156 C   0  0  0  0  0  0  0  0  0  0  0  0
    0.5539    1.7186   -0.3345 C   0  0  0  0  0  0  0  0  0  0  0  0
    0.1056    2.0937    0.9036 N   0  0  0  0  0  0  0  0  0  0  0  0
   -1.2091    1.9538    1.1472 C   0  0  0  0  0  0  0  0  0  0  0  0
   -1.7237    2.3262    2.3829 C   0  0  0  0  0  0  0  0  0  0  0  0
   -3.0810    2.1878    2.6745 C   0  0  0  0  0  0  0  0  0  0  0  0
   -3.9379    1.6695    1.7129 C   0  0  0  0  0  0  0  0  0  0  0  0
   -3.4291    1.2948    0.4690 C   0  0  0  0  0  0  0  0  0  0  0  0
   -2.0791    1.4272    0.1690 C   0  0  0  0  0  0  0  0  0  0  0  0
   -1.6268    1.0442   -1.0390 N   0  0  0  0  0  0  0  0  0  0  0  0
   -0.3059    1.1736   -1.2991 C   0  0  0  0  0  0  0  0  0  0  0  0
    0.2015    0.6966   -2.5242 N   0  0  0  0  0  0  0  0  0  0  0  0
   -0.7323    0.8830   -3.6564 C   0  0  0  0  0  0  0  0  0  0  0  0
   -1.2238   -0.5118   -4.0183 C   0  0  0  0  0  0  0  0  0  0  0  0
   -0.0137   -1.3685   -3.7068 C   0  0  0  0  0  0  0  0  0  0  0  0
    0.5004   -0.7537   -2.4101 C   0  0  0  0  0  0  0  0  0  0  0  0
    2.2534    1.7456   -1.6621 H   0  0  0  0  0  0  0  0  0  0  0  0
    1.7497    1.0503    1.8332 H   0  0  0  0  0  0  0  0  0  0  0  0
    3.7704   -1.1491    1.7237 H   0  0  0  0  0  0  0  0  0  0  0  0
    3.0367   -0.4695    3.1812 H   0  0  0  0  0  0  0  0  0  0  0  0
    0.5749   -0.8288    3.6584 H   0  0  0  0  0  0  0  0  0  0  0  0
   -1.3369   -2.3731    3.4152 H   0  0  0  0  0  0  0  0  0  0  0  0
   -1.3227   -4.1078    1.6433 H   0  0  0  0  0  0  0  0  0  0  0  0
    0.6125   -4.2913    0.1020 H   0  0  0  0  0  0  0  0  0  0  0  0
    2.5305   -2.7453    0.3241 H   0  0  0  0  0  0  0  0  0  0  0  0
   -1.0533    2.7376    3.1333 H   0  0  0  0  0  0  0  0  0  0  0  0
   -3.4636    2.4871    3.6468 H   0  0  0  0  0  0  0  0  0  0  0  0
   -4.9981    1.5569    1.9246 H   0  0  0  0  0  0  0  0  0  0  0  0
   -4.0980    0.8879   -0.2850 H   0  0  0  0  0  0  0  0  0  0  0  0
   -0.1553    1.2951   -4.4937 H   0  0  0  0  0  0  0  0  0  0  0  0
   -1.5576    1.5799   -3.4696 H   0  0  0  0  0  0  0  0  0  0  0  0
   -1.5391   -0.5861   -5.0622 H   0  0  0  0  0  0  0  0  0  0  0  0
   -2.0683   -0.7988   -3.3814 H   0  0  0  0  0  0  0  0  0  0  0  0
    0.7382   -1.2670   -4.4988 H   0  0  0  0  0  0  0  0  0  0  0  0
   -0.2579   -2.4289   -3.5991 H   0  0  0  0  0  0  0  0  0  0  0  0
   -0.0064   -1.2246   -1.5578 H   0  0  0  0  0  0  0  0  0  0  0  0
    1.5769   -0.9173   -2.3048 H   0  0  0  0  0  0  0  0  0  0  0  0
  1  2  3  0
  2  3  1  0
  3  4  1  0
  4  5  2  0
  4  6  1  0
  6  7  1  0
  7  8  1  0
  8  9  2  0
  9 10  1  0
 10 11  2  0
 11 12  1  0
 12 13  2  0
  3 14  1  0
 14 15  2  0
 15 16  1  0
 16 17  2  0
 17 18  1  0
 18 19  2  0
 19 20  1  0
 20 21  2  0
 21 22  1  0
 22 23  2  0
 23 24  1  0
 24 25  1  0
 25 26  1  0
 26 27  1  0
 27 28  1  0
 13  8  1  0
 23 14  1  0
 28 24  1  0
 21 16  1  0
  3 29  1  0
  6 30  1  0
  7 31  1  0
  7 32  1  0
  9 33  1  0
 10 34  1  0
 11 35  1  0
 12 36  1  0
 13 37  1  0
 17 38  1  0
 18 39  1  0
 19 40  1  0
 20 41  1  0
 25 42  1  0
 25 43  1  0
 26 44  1  0
 26 45  1  0
 27 46  1  0
 27 47  1  0
 28 48  1  0
 28 49  1  0
M  END
$$$$
