
     RDKit          3D

 52 54  0  0  0  0  0  0  0  0999 V2000
    4.9169   -5.7863    0.2583 C   0  0  0  0  0  0  0  0  0  0  0  0
    3.8090   -4.7603    0.3942 C   0  0  0  0  0  0  0  0  0  0  0  0
    4.4108   -3.4622    0.4826 O   0  0  0  0  0  0  0  0  0  0  0  0
    3.5281   -2.4401    0.6019 C   0  0  0  0  0  0  0  0  0  0  0  0
    2.3103   -2.5573    0.6416 O   0  0  0  0  0  0  0  0  0  0  0  0
    4.2266   -1.1195    0.6761 C   0  0  0  0  0  0  0  0  0  0  0  0
    5.6333   -1.0675    0.6505 C   0  0  0  0  0  0  0  0  0  0  0  0
    6.2992    0.1549    0.7143 C   0  0  0  0  0  0  0  0  0  0  0  0
    5.5685    1.3335    0.8023 C   0  0  0  0  0  0  0  0  0  0  0  0
    4.1711    1.2972    0.8291 C   0  0  0  0  0  0  0  0  0  0  0  0
    3.4784    0.0812    0.7697 C   0  0  0  0  0  0  0  0  0  0  0  0
    2.0606    0.0213    0.7947 N   0  0  0  0  0  0  0  0  0  0  0  0
    1.1497    1.0562    0.8976 C   0  0  0  0  0  0  0  0  0  0  0  0
    1.4167    2.2452    1.0314 O   0  0  0  0  0  0  0  0  0  0  0  0
   -0.2852    0.5605    0.8787 C   0  0  0  0  0  0  0  0  0  0  0  0
   -0.6449   -0.1835   -0.4053 C   0  0  0  0  0  0  0  0  0  0  0  0
   -2.1007    0.1468   -0.6196 C   0  0  0  0  0  0  0  0  0  0  0  0
   -2.8085   -0.3838   -1.4594 O   0  0  0  0  0  0  0  0  0  0  0  0
   -2.4537    1.1603    0.2630 N   0  0  0  0  0  0  0  0  0  0  0  0
   -3.7020    1.9246    0.1983 C   0  0  0  0  0  0  0  0  0  0  0  0
   -4.9322    1.0391    0.4599 C   0  0  0  0  0  0  0  0  0  0  0  0
   -6.2171    1.7803    0.1123 C   0  0  0  0  0  0  0  0  0  0  0  0
   -6.2732    2.1818   -1.3622 C   0  0  0  0  0  0  0  0  0  0  0  0
   -4.9031    2.2540   -2.0362 C   0  0  0  0  0  0  0  0  0  0  0  0
   -3.8188    2.7612   -1.0912 C   0  0  0  0  0  0  0  0  0  0  0  0
   -1.2842    1.7050    0.9109 C   0  0  0  0  0  0  0  0  0  0  0  0
    5.5228   -5.5837   -0.6311 H   0  0  0  0  0  0  0  0  0  0  0  0
    5.5916   -5.7417    1.1198 H   0  0  0  0  0  0  0  0  0  0  0  0
    4.5059   -6.7969    0.1837 H   0  0  0  0  0  0  0  0  0  0  0  0
    3.2276   -4.9603    1.3011 H   0  0  0  0  0  0  0  0  0  0  0  0
    3.1534   -4.8044   -0.4828 H   0  0  0  0  0  0  0  0  0  0  0  0
    6.2286   -1.9751    0.5801 H   0  0  0  0  0  0  0  0  0  0  0  0
    7.3860    0.1874    0.6937 H   0  0  0  0  0  0  0  0  0  0  0  0
    6.0822    2.2913    0.8502 H   0  0  0  0  0  0  0  0  0  0  0  0
    3.6522    2.2486    0.8962 H   0  0  0  0  0  0  0  0  0  0  0  0
    1.6768   -0.9260    0.7492 H   0  0  0  0  0  0  0  0  0  0  0  0
   -0.4452   -0.0923    1.7469 H   0  0  0  0  0  0  0  0  0  0  0  0
   -0.0697    0.1652   -1.2692 H   0  0  0  0  0  0  0  0  0  0  0  0
   -0.5195   -1.2639   -0.2888 H   0  0  0  0  0  0  0  0  0  0  0  0
   -3.6490    2.6362    1.0344 H   0  0  0  0  0  0  0  0  0  0  0  0
   -4.9470    0.7402    1.5154 H   0  0  0  0  0  0  0  0  0  0  0  0
   -4.8907    0.1082   -0.1167 H   0  0  0  0  0  0  0  0  0  0  0  0
   -6.2901    2.6811    0.7347 H   0  0  0  0  0  0  0  0  0  0  0  0
   -7.0886    1.1634    0.3593 H   0  0  0  0  0  0  0  0  0  0  0  0
   -6.8980    1.4699   -1.9154 H   0  0  0  0  0  0  0  0  0  0  0  0
   -6.7771    3.1528   -1.4429 H   0  0  0  0  0  0  0  0  0  0  0  0
   -4.6298    1.2592   -2.4062 H   0  0  0  0  0  0  0  0  0  0  0  0
   -4.9643    2.9020   -2.9182 H   0  0  0  0  0  0  0  0  0  0  0  0
   -2.8601    2.8148   -1.6206 H   0  0  0  0  0  0  0  0  0  0  0  0
   -4.0690    3.7936   -0.8128 H   0  0  0  0  0  0  0  0  0  0  0  0
   -1.5265    2.0050    1.9353 H   0  0  0  0  0  0  0  0  0  0  0  0
   -0.9579    2.5830    0.3420 H   0  0  0  0  0  0  0  0  0  0  0  0
  1  2  1  0
  2  3  1  0
  3  4  1  0
  4  5  2  0
  4  6  1  0
  6  7  2  0
  7  8  1  0
  8  9  2  0
  9 10  1  0
 10 11  2  0
 11 12  1  0
 12 13  1  0
 13 14  2  0
 13 15  1  0
 15 16  1  0
 16 17  1  0
 17 18  2  0
 17 19  1  0
 19 20  1  0
 20 21  1  0
 21 22  1  0
 22 23  1  0
 23 24  1  0
 24 25  1  0
 19 26  1  0
 11  6  1  0
 26 15  1  0
 25 20  1  0
  1 27  1  0
  1 28  1  0
  1 29  1  0
  2 30  1  0
  2 31  1  0
  7 32  1  0
  8 33  1  0
  9 34  1  0
 10 35  1  0
 12 36  1  0
 15 37  1  0
 16 38  1  0
 16 39  1  0
 20 40  1  0
 21 41  1  0
 21 42  1  0
 22 43  1  0
 22 44  1  0
 23 45  1  0
 23 46  1  0
 24 47  1  0
 24 48  1  0
 25 49  1  0
 25 50  1  0
 26 51  1  0
 26 52  1  0
M  END
$$$$
