
     RDKit          3D

 30 31  0  0  0  0  0  0  0  0999 V2000
   -4.8093    0.6250   -0.4299 C   0  0  0  0  0  0  0  0  0  0  0  0
   -4.0533    0.6597    0.8850 C   0  0  0  0  0  0  0  0  0  0  0  0
   -2.6396    0.6724    0.6422 O   0  0  0  0  0  0  0  0  0  0  0  0
   -2.0475   -0.5491    0.4953 C   0  0  0  0  0  0  0  0  0  0  0  0
   -2.6498   -1.6148    0.5563 O   0  0  0  0  0  0  0  0  0  0  0  0
   -0.6251   -0.3925    0.2578 C   0  0  0  0  0  0  0  0  0  0  0  0
    0.1073   -1.5470    0.1024 O   0  0  0  0  0  0  0  0  0  0  0  0
    1.3865   -1.1783   -0.1019 C   0  0  0  0  0  0  0  0  0  0  0  0
    1.5271    0.1874   -0.0932 C   0  0  0  0  0  0  0  0  0  0  0  0
    0.2221    0.7157    0.1439 C   0  0  0  0  0  0  0  0  0  0  0  0
   -0.1581    2.1502    0.2461 C   0  0  0  0  0  0  0  0  0  0  0  0
    2.8391    0.7811   -0.2981 C   0  0  0  0  0  0  0  0  0  0  0  0
    3.0280    1.9941   -0.2732 O   0  0  0  0  0  0  0  0  0  0  0  0
    3.9742   -0.1942   -0.6256 C   0  0  0  0  0  0  0  0  0  0  0  0
    3.7918   -1.5726    0.0342 C   0  0  0  0  0  0  0  0  0  0  0  0
    2.4302   -2.2075   -0.2953 C   0  0  0  0  0  0  0  0  0  0  0  0
   -5.8881    0.6763   -0.2585 H   0  0  0  0  0  0  0  0  0  0  0  0
   -4.5871   -0.2904   -0.9872 H   0  0  0  0  0  0  0  0  0  0  0  0
   -4.5121    1.4651   -1.0662 H   0  0  0  0  0  0  0  0  0  0  0  0
   -4.3406   -0.1732    1.5368 H   0  0  0  0  0  0  0  0  0  0  0  0
   -4.2929    1.5836    1.4217 H   0  0  0  0  0  0  0  0  0  0  0  0
   -0.9034    2.4036   -0.5148 H   0  0  0  0  0  0  0  0  0  0  0  0
   -0.5782    2.3645    1.2341 H   0  0  0  0  0  0  0  0  0  0  0  0
    0.6958    2.8162    0.1011 H   0  0  0  0  0  0  0  0  0  0  0  0
    4.9169    0.2474   -0.2845 H   0  0  0  0  0  0  0  0  0  0  0  0
    4.0196   -0.3004   -1.7156 H   0  0  0  0  0  0  0  0  0  0  0  0
    3.8749   -1.4529    1.1228 H   0  0  0  0  0  0  0  0  0  0  0  0
    4.5986   -2.2457   -0.2763 H   0  0  0  0  0  0  0  0  0  0  0  0
    2.4187   -2.5486   -1.3364 H   0  0  0  0  0  0  0  0  0  0  0  0
    2.2543   -3.0754    0.3484 H   0  0  0  0  0  0  0  0  0  0  0  0
  1  2  1  0
  2  3  1  0
  3  4  1  0
  4  5  2  0
  4  6  1  0
  6  7  1  0
  7  8  1  0
  8  9  2  0
  9 10  1  0
 10 11  1  0
  9 12  1  0
 12 13  2  0
 12 14  1  0
 14 15  1  0
 15 16  1  0
 10  6  2  0
 16  8  1  0
  1 17  1  0
  1 18  1  0
  1 19  1  0
  2 20  1  0
  2 21  1  0
 11 22  1  0
 11 23  1  0
 11 24  1  0
 14 25  1  0
 14 26  1  0
 15 27  1  0
 15 28  1  0
 16 29  1  0
 16 30  1  0
M  END
$$$$
