
     RDKit          3D

 48 50  0  0  0  0  0  0  0  0999 V2000
   -1.4075   -2.9919   -2.2758 C   0  0  0  0  0  0  0  0  0  0  0  0
   -2.3875   -2.1086   -1.5280 C   0  0  0  0  0  0  0  0  0  0  0  0
   -1.9698   -0.7359   -1.5854 O   0  0  0  0  0  0  0  0  0  0  0  0
   -1.0710   -0.3475   -0.6360 C   0  0  0  0  0  0  0  0  0  0  0  0
   -0.6050   -1.0760    0.2284 O   0  0  0  0  0  0  0  0  0  0  0  0
   -0.7299    1.1089   -0.8171 C   0  0  0  0  0  0  0  0  0  0  0  0
    0.4624    1.6547   -0.0539 C   0  0  0  0  0  0  0  0  0  0  0  0
    1.6420    0.7788    0.3006 C   0  0  0  0  0  0  0  0  0  0  0  0
    2.4890    0.2404   -1.1611 S   0  0  0  0  0  6  0  0  0  0  0  0
    3.2387    1.3516   -1.7131 O   0  0  0  0  0  0  0  0  0  0  0  0
    1.5500   -0.4925   -1.9914 O   0  0  0  0  0  0  0  0  0  0  0  0
    3.6746   -0.9234   -0.5325 C   0  0  0  0  0  0  0  0  0  0  0  0
    3.5144   -2.2879   -0.7875 C   0  0  0  0  0  0  0  0  0  0  0  0
    4.4554   -3.1899   -0.2919 C   0  0  0  0  0  0  0  0  0  0  0  0
    5.5459   -2.7300    0.4465 C   0  0  0  0  0  0  0  0  0  0  0  0
    5.7081   -1.3631    0.6849 C   0  0  0  0  0  0  0  0  0  0  0  0
    4.7732   -0.4523    0.1931 C   0  0  0  0  0  0  0  0  0  0  0  0
    0.5682    2.9084    0.2758 N   0  0  0  0  0  0  0  0  0  0  0  0
   -0.3939    3.8242   -0.0412 C   0  0  0  0  0  0  0  0  0  0  0  0
   -0.2388    5.0276    0.1152 O   0  0  0  0  0  0  0  0  0  0  0  0
   -1.5843    3.3663   -0.5188 N   0  0  0  0  0  0  0  0  0  0  0  0
   -1.9482    1.9733   -0.4941 C   0  0  0  0  0  0  0  0  0  0  0  0
   -2.7008    1.6150    0.7823 C   0  0  0  0  0  0  0  0  0  0  0  0
   -2.2252    1.9390    2.0631 C   0  0  0  0  0  0  0  0  0  0  0  0
   -2.9426    1.5699    3.2070 C   0  0  0  0  0  0  0  0  0  0  0  0
   -4.1386    0.8674    3.0903 C   0  0  0  0  0  0  0  0  0  0  0  0
   -4.6256    0.5367    1.8293 C   0  0  0  0  0  0  0  0  0  0  0  0
   -3.9142    0.9077    0.6852 C   0  0  0  0  0  0  0  0  0  0  0  0
   -1.7816   -4.0181   -2.3394 H   0  0  0  0  0  0  0  0  0  0  0  0
   -1.2376   -2.6126   -3.2883 H   0  0  0  0  0  0  0  0  0  0  0  0
   -0.4371   -3.0089   -1.7728 H   0  0  0  0  0  0  0  0  0  0  0  0
   -3.3714   -2.1604   -2.0084 H   0  0  0  0  0  0  0  0  0  0  0  0
   -2.5165   -2.4380   -0.4893 H   0  0  0  0  0  0  0  0  0  0  0  0
   -0.4610    1.2500   -1.8737 H   0  0  0  0  0  0  0  0  0  0  0  0
    2.3571    1.3478    0.9054 H   0  0  0  0  0  0  0  0  0  0  0  0
    1.3323   -0.0852    0.8864 H   0  0  0  0  0  0  0  0  0  0  0  0
    2.6711   -2.6585   -1.3717 H   0  0  0  0  0  0  0  0  0  0  0  0
    4.3403   -4.2527   -0.4845 H   0  0  0  0  0  0  0  0  0  0  0  0
    6.2794   -3.4375    0.8271 H   0  0  0  0  0  0  0  0  0  0  0  0
    6.5703   -1.0077    1.2453 H   0  0  0  0  0  0  0  0  0  0  0  0
    4.9183    0.6142    0.3631 H   0  0  0  0  0  0  0  0  0  0  0  0
   -2.3011    4.0776   -0.5733 H   0  0  0  0  0  0  0  0  0  0  0  0
   -2.6602    1.8739   -1.3249 H   0  0  0  0  0  0  0  0  0  0  0  0
   -1.3017    2.4949    2.2026 H   0  0  0  0  0  0  0  0  0  0  0  0
   -2.5645    1.8360    4.1910 H   0  0  0  0  0  0  0  0  0  0  0  0
   -4.6922    0.5894    3.9842 H   0  0  0  0  0  0  0  0  0  0  0  0
   -5.5600   -0.0123    1.7357 H   0  0  0  0  0  0  0  0  0  0  0  0
   -4.3231    0.6375   -0.2879 H   0  0  0  0  0  0  0  0  0  0  0  0
  1  2  1  0
  2  3  1  0
  3  4  1  0
  4  5  2  0
  4  6  1  0
  6  7  1  0
  7  8  1  0
  8  9  1  0
  9 10  2  0
  9 11  2  0
  9 12  1  0
 12 13  2  0
 13 14  1  0
 14 15  2  0
 15 16  1  0
 16 17  2  0
  7 18  2  0
 18 19  1  0
 19 20  2  0
 19 21  1  0
 21 22  1  0
 22 23  1  0
 23 24  2  0
 24 25  1  0
 25 26  2  0
 26 27  1  0
 27 28  2  0
 22  6  1  0
 28 23  1  0
 17 12  1  0
  1 29  1  0
  1 30  1  0
  1 31  1  0
  2 32  1  0
  2 33  1  0
  6 34  1  0
  8 35  1  0
  8 36  1  0
 13 37  1  0
 14 38  1  0
 15 39  1  0
 16 40  1  0
 17 41  1  0
 21 42  1  0
 22 43  1  0
 24 44  1  0
 25 45  1  0
 26 46  1  0
 27 47  1  0
 28 48  1  0
M  END
$$$$
