
     RDKit          3D

 49 51  0  0  0  0  0  0  0  0999 V2000
   -9.0803    1.9526    2.6113 C   0  0  0  0  0  0  0  0  0  0  0  0
   -7.9411    2.7651    2.8637 O   0  0  0  0  0  0  0  0  0  0  0  0
   -6.7302    2.2775    2.4598 C   0  0  0  0  0  0  0  0  0  0  0  0
   -5.6390    3.0910    2.7663 C   0  0  0  0  0  0  0  0  0  0  0  0
   -4.3375    2.7152    2.4125 C   0  0  0  0  0  0  0  0  0  0  0  0
   -4.1102    1.5140    1.7438 C   0  0  0  0  0  0  0  0  0  0  0  0
   -2.8359    1.0573    1.3455 N   0  0  0  0  0  0  0  0  0  0  0  0
   -1.6160    1.6675    1.5811 C   0  0  0  0  0  0  0  0  0  0  0  0
   -1.4125    2.6947    2.2153 O   0  0  0  0  0  0  0  0  0  0  0  0
   -0.4635    0.9244    0.9953 C   0  0  0  0  0  0  0  0  0  0  0  0
    0.6109    0.5989    1.8682 C   0  0  0  0  0  0  0  0  0  0  0  0
    1.4894    0.3021    2.5669 N   0  0  0  0  0  0  0  0  0  0  0  0
   -0.4851    0.6521   -0.3242 C   0  0  0  0  0  0  0  0  0  0  0  0
    0.5655   -0.0483   -1.0722 C   0  0  0  0  0  0  0  0  0  0  0  0
    0.2481   -1.2259   -1.7539 C   0  0  0  0  0  0  0  0  0  0  0  0
    1.2284   -1.8978   -2.4893 C   0  0  0  0  0  0  0  0  0  0  0  0
    2.5313   -1.4003   -2.5671 C   0  0  0  0  0  0  0  0  0  0  0  0
    3.3854   -2.1631   -3.3136 O   0  0  0  0  0  0  0  0  0  0  0  0
    4.6890   -1.6454   -3.6012 C   0  0  0  0  0  0  0  0  0  0  0  0
    5.6906   -1.9249   -2.5099 C   0  0  0  0  0  0  0  0  0  0  0  0
    5.6306   -3.0873   -1.7281 C   0  0  0  0  0  0  0  0  0  0  0  0
    6.5921   -3.3297   -0.7433 C   0  0  0  0  0  0  0  0  0  0  0  0
    7.6301   -2.4212   -0.5368 C   0  0  0  0  0  0  0  0  0  0  0  0
    7.7092   -1.2709   -1.3184 C   0  0  0  0  0  0  0  0  0  0  0  0
    6.7472   -1.0358   -2.2967 C   0  0  0  0  0  0  0  0  0  0  0  0
    6.8440    0.0744   -3.0423 F   0  0  0  0  0  0  0  0  0  0  0  0
    2.8484   -0.2227   -1.8924 C   0  0  0  0  0  0  0  0  0  0  0  0
    1.8688    0.4534   -1.1540 C   0  0  0  0  0  0  0  0  0  0  0  0
   -5.2072    0.7002    1.4333 C   0  0  0  0  0  0  0  0  0  0  0  0
   -6.5092    1.0776    1.7886 C   0  0  0  0  0  0  0  0  0  0  0  0
   -9.9568    2.4728    3.0095 H   0  0  0  0  0  0  0  0  0  0  0  0
   -9.2352    1.8137    1.5360 H   0  0  0  0  0  0  0  0  0  0  0  0
   -9.0015    0.9898    3.1271 H   0  0  0  0  0  0  0  0  0  0  0  0
   -5.7984    4.0312    3.2896 H   0  0  0  0  0  0  0  0  0  0  0  0
   -3.5298    3.3899    2.6775 H   0  0  0  0  0  0  0  0  0  0  0  0
   -2.8239    0.1637    0.8700 H   0  0  0  0  0  0  0  0  0  0  0  0
   -1.3306    0.9610   -0.9375 H   0  0  0  0  0  0  0  0  0  0  0  0
   -0.7566   -1.6395   -1.7194 H   0  0  0  0  0  0  0  0  0  0  0  0
    0.9738   -2.8182   -3.0097 H   0  0  0  0  0  0  0  0  0  0  0  0
    4.6364   -0.5825   -3.8667 H   0  0  0  0  0  0  0  0  0  0  0  0
    5.0358   -2.1640   -4.5034 H   0  0  0  0  0  0  0  0  0  0  0  0
    4.8285   -3.8077   -1.8774 H   0  0  0  0  0  0  0  0  0  0  0  0
    6.5291   -4.2296   -0.1359 H   0  0  0  0  0  0  0  0  0  0  0  0
    8.3756   -2.6113    0.2310 H   0  0  0  0  0  0  0  0  0  0  0  0
    8.5130   -0.5564   -1.1727 H   0  0  0  0  0  0  0  0  0  0  0  0
    3.8484    0.1985   -1.9069 H   0  0  0  0  0  0  0  0  0  0  0  0
    2.1458    1.3756   -0.6464 H   0  0  0  0  0  0  0  0  0  0  0  0
   -5.0708   -0.2434    0.9113 H   0  0  0  0  0  0  0  0  0  0  0  0
   -7.3242    0.4119    1.5254 H   0  0  0  0  0  0  0  0  0  0  0  0
  1  2  1  0
  2  3  1  0
  3  4  2  0
  4  5  1  0
  5  6  2  0
  6  7  1  0
  7  8  1  0
  8  9  2  0
  8 10  1  0
 10 11  1  0
 11 12  3  0
 10 13  2  3
 13 14  1  0
 14 15  2  0
 15 16  1  0
 16 17  2  0
 17 18  1  0
 18 19  1  0
 19 20  1  0
 20 21  2  0
 21 22  1  0
 22 23  2  0
 23 24  1  0
 24 25  2  0
 25 26  1  0
 17 27  1  0
 27 28  2  0
  6 29  1  0
 29 30  2  0
 30  3  1  0
 28 14  1  0
 25 20  1  0
  1 31  1  0
  1 32  1  0
  1 33  1  0
  4 34  1  0
  5 35  1  0
  7 36  1  0
 13 37  1  0
 15 38  1  0
 16 39  1  0
 19 40  1  0
 19 41  1  0
 21 42  1  0
 22 43  1  0
 23 44  1  0
 24 45  1  0
 27 46  1  0
 28 47  1  0
 29 48  1  0
 30 49  1  0
M  END
$$$$
