
     RDKit          3D

 42 44  0  0  0  0  0  0  0  0999 V2000
    4.0156    1.3517    1.3251 C   0  0  0  0  0  0  0  0  0  0  0  0
    3.5075   -0.0107    1.7929 C   0  0  0  0  0  0  0  0  0  0  0  0
    4.5543   -0.6982    2.6714 C   0  0  0  0  0  0  0  0  0  0  0  0
    3.1596   -1.1088    0.3626 S   0  0  0  0  0  0  0  0  0  0  0  0
    1.4609   -0.6669    0.0521 C   0  0  0  0  0  0  0  0  0  0  0  0
    0.4682   -1.5996    0.2591 C   0  0  0  0  0  0  0  0  0  0  0  0
   -0.8290   -1.2096    0.0007 C   0  0  0  0  0  0  0  0  0  0  0  0
   -1.8928   -2.0644    0.2102 N   0  0  0  0  0  0  0  0  0  0  0  0
   -3.2362   -1.6063   -0.1362 C   0  0  0  0  0  0  0  0  0  0  0  0
   -4.0848   -2.8582    0.0746 C   0  0  0  0  0  0  0  0  0  0  0  0
   -3.1606   -3.9668   -0.4075 C   0  0  0  0  0  0  0  0  0  0  0  0
   -1.7741   -3.5154    0.0591 C   0  0  0  0  0  0  0  0  0  0  0  0
   -1.0876    0.0403   -0.4256 N   0  0  0  0  0  0  0  0  0  0  0  0
   -0.0567    0.8690   -0.6523 C   0  0  0  0  0  0  0  0  0  0  0  0
   -0.3465    2.2190   -1.1610 C   0  0  0  0  0  0  0  0  0  0  0  0
    0.3366    3.3264   -0.6064 C   0  0  0  0  0  0  0  0  0  0  0  0
    0.1050    4.6337   -1.0459 C   0  0  0  0  0  0  0  0  0  0  0  0
   -0.8175    4.8714   -2.0575 C   0  0  0  0  0  0  0  0  0  0  0  0
   -1.4984    3.8000   -2.6331 C   0  0  0  0  0  0  0  0  0  0  0  0
   -1.2661    2.4851   -2.1948 C   0  0  0  0  0  0  0  0  0  0  0  0
   -2.1279    1.2378   -3.0421 Cl  0  0  0  0  0  0  0  0  0  0  0  0
    1.2266    0.5719   -0.3994 N   0  0  0  0  0  0  0  0  0  0  0  0
    4.2318    1.9898    2.1916 H   0  0  0  0  0  0  0  0  0  0  0  0
    4.9408    1.2632    0.7405 H   0  0  0  0  0  0  0  0  0  0  0  0
    3.2775    1.8806    0.7139 H   0  0  0  0  0  0  0  0  0  0  0  0
    2.5906    0.1169    2.3850 H   0  0  0  0  0  0  0  0  0  0  0  0
    4.8055   -0.0672    3.5323 H   0  0  0  0  0  0  0  0  0  0  0  0
    4.1800   -1.6529    3.0665 H   0  0  0  0  0  0  0  0  0  0  0  0
    5.4821   -0.9003    2.1204 H   0  0  0  0  0  0  0  0  0  0  0  0
    0.7017   -2.5875    0.6351 H   0  0  0  0  0  0  0  0  0  0  0  0
   -3.5738   -0.7859    0.5075 H   0  0  0  0  0  0  0  0  0  0  0  0
   -3.2887   -1.2928   -1.1883 H   0  0  0  0  0  0  0  0  0  0  0  0
   -4.3093   -2.9920    1.1438 H   0  0  0  0  0  0  0  0  0  0  0  0
   -5.0288   -2.8223   -0.4766 H   0  0  0  0  0  0  0  0  0  0  0  0
   -3.1853   -4.0227   -1.5030 H   0  0  0  0  0  0  0  0  0  0  0  0
   -3.4343   -4.9531   -0.0156 H   0  0  0  0  0  0  0  0  0  0  0  0
   -1.5255   -3.9671    1.0261 H   0  0  0  0  0  0  0  0  0  0  0  0
   -1.0192   -3.8119   -0.6802 H   0  0  0  0  0  0  0  0  0  0  0  0
    1.0657    3.1657    0.1882 H   0  0  0  0  0  0  0  0  0  0  0  0
    0.6467    5.4629   -0.5941 H   0  0  0  0  0  0  0  0  0  0  0  0
   -1.0020    5.8849   -2.4054 H   0  0  0  0  0  0  0  0  0  0  0  0
   -2.2119    3.9903   -3.4338 H   0  0  0  0  0  0  0  0  0  0  0  0
  1  2  1  0
  2  3  1  0
  2  4  1  0
  4  5  1  0
  5  6  2  0
  6  7  1  0
  7  8  1  0
  8  9  1  0
  9 10  1  0
 10 11  1  0
 11 12  1  0
  7 13  2  0
 13 14  1  0
 14 15  1  0
 15 16  2  0
 16 17  1  0
 17 18  2  0
 18 19  1  0
 19 20  2  0
 20 21  1  0
 14 22  2  0
 22  5  1  0
 12  8  1  0
 20 15  1  0
  1 23  1  0
  1 24  1  0
  1 25  1  0
  2 26  1  0
  3 27  1  0
  3 28  1  0
  3 29  1  0
  6 30  1  0
  9 31  1  0
  9 32  1  0
 10 33  1  0
 10 34  1  0
 11 35  1  0
 11 36  1  0
 12 37  1  0
 12 38  1  0
 16 39  1  0
 17 40  1  0
 18 41  1  0
 19 42  1  0
M  END
$$$$
