
     RDKit          3D

 56 59  0  0  0  0  0  0  0  0999 V2000
   -2.0820   -0.0835    2.3287 O   0  0  0  0  0  0  0  0  0  0  0  0
   -2.3136   -0.4654    1.1766 C   0  0  0  0  0  0  0  0  0  0  0  0
   -1.3882   -1.4808    0.4584 C   0  0  0  0  0  0  0  0  0  0  0  0
    0.0058   -0.9784    0.3497 N   0  0  0  0  0  0  0  0  0  0  0  0
    0.7364   -1.7488   -0.6839 C   0  0  0  0  0  0  0  0  0  0  0  0
    2.2251   -1.3450   -0.7888 C   0  0  0  0  0  0  0  0  0  0  0  0
    2.9155   -1.5099    0.4985 N   0  0  0  0  0  0  0  0  0  0  0  0
    4.3580   -1.2329    0.4322 C   0  0  0  0  0  0  0  0  0  0  0  0
    4.8114    0.1859    0.0339 C   0  0  0  0  0  0  0  0  0  0  0  0
    6.2423    0.2240    0.0756 O   0  0  0  0  0  0  0  0  0  0  0  0
    6.7817    1.5249   -0.1569 C   0  0  0  0  0  0  0  0  0  0  0  0
    6.8863    1.8499   -1.6459 C   0  0  0  0  0  0  0  0  0  0  0  0
    7.4485    3.1455   -1.8269 O   0  0  0  0  0  0  0  0  0  0  0  0
    2.2234   -0.7360    1.5403 C   0  0  0  0  0  0  0  0  0  0  0  0
    0.7247   -1.1154    1.6386 C   0  0  0  0  0  0  0  0  0  0  0  0
   -3.3909   -0.0153    0.3820 N   0  0  0  0  0  0  0  0  0  0  0  0
   -4.3174   -0.9815   -0.1695 C   0  0  0  0  0  0  0  0  0  0  0  0
   -4.3985   -2.2709    0.4027 C   0  0  0  0  0  0  0  0  0  0  0  0
   -5.2693   -3.2475   -0.0927 C   0  0  0  0  0  0  0  0  0  0  0  0
   -6.1038   -2.9507   -1.1606 C   0  0  0  0  0  0  0  0  0  0  0  0
   -6.0694   -1.6776   -1.7216 C   0  0  0  0  0  0  0  0  0  0  0  0
   -5.1913   -0.6939   -1.2288 C   0  0  0  0  0  0  0  0  0  0  0  0
   -5.2194    0.8756   -2.0435 S   0  0  0  0  0  0  0  0  0  0  0  0
   -4.5469    1.8966   -0.7568 C   0  0  0  0  0  0  0  0  0  0  0  0
   -4.8449    3.2743   -0.8487 C   0  0  0  0  0  0  0  0  0  0  0  0
   -4.2974    4.1850    0.0478 C   0  0  0  0  0  0  0  0  0  0  0  0
   -3.4200    3.7269    1.0155 C   0  0  0  0  0  0  0  0  0  0  0  0
   -2.7144    4.8500    2.1169 Cl  0  0  0  0  0  0  0  0  0  0  0  0
   -3.1083    2.3615    1.1060 C   0  0  0  0  0  0  0  0  0  0  0  0
   -3.6916    1.4010    0.2481 C   0  0  0  0  0  0  0  0  0  0  0  0
   -1.4322   -2.4404    0.9880 H   0  0  0  0  0  0  0  0  0  0  0  0
   -1.7749   -1.6452   -0.5540 H   0  0  0  0  0  0  0  0  0  0  0  0
    0.6700   -2.8255   -0.4745 H   0  0  0  0  0  0  0  0  0  0  0  0
    0.2720   -1.5769   -1.6622 H   0  0  0  0  0  0  0  0  0  0  0  0
    2.7000   -1.9825   -1.5466 H   0  0  0  0  0  0  0  0  0  0  0  0
    2.2850   -0.3049   -1.1402 H   0  0  0  0  0  0  0  0  0  0  0  0
    4.8178   -1.9527   -0.2614 H   0  0  0  0  0  0  0  0  0  0  0  0
    4.8131   -1.4810    1.4026 H   0  0  0  0  0  0  0  0  0  0  0  0
    4.4713    0.4271   -0.9806 H   0  0  0  0  0  0  0  0  0  0  0  0
    4.4128    0.9279    0.7363 H   0  0  0  0  0  0  0  0  0  0  0  0
    6.2131    2.2927    0.3825 H   0  0  0  0  0  0  0  0  0  0  0  0
    7.7894    1.5358    0.2812 H   0  0  0  0  0  0  0  0  0  0  0  0
    5.8998    1.8284   -2.1246 H   0  0  0  0  0  0  0  0  0  0  0  0
    7.5211    1.1107   -2.1513 H   0  0  0  0  0  0  0  0  0  0  0  0
    7.5413    3.2806   -2.7842 H   0  0  0  0  0  0  0  0  0  0  0  0
    2.6923   -0.9333    2.5115 H   0  0  0  0  0  0  0  0  0  0  0  0
    2.3028    0.3433    1.3521 H   0  0  0  0  0  0  0  0  0  0  0  0
    0.6497   -2.1479    2.0061 H   0  0  0  0  0  0  0  0  0  0  0  0
    0.2812   -0.4624    2.3956 H   0  0  0  0  0  0  0  0  0  0  0  0
   -3.8095   -2.5369    1.2791 H   0  0  0  0  0  0  0  0  0  0  0  0
   -5.3004   -4.2329    0.3691 H   0  0  0  0  0  0  0  0  0  0  0  0
   -6.7878   -3.7003   -1.5510 H   0  0  0  0  0  0  0  0  0  0  0  0
   -6.7343   -1.4533   -2.5543 H   0  0  0  0  0  0  0  0  0  0  0  0
   -5.5128    3.6421   -1.6267 H   0  0  0  0  0  0  0  0  0  0  0  0
   -4.5495    5.2430   -0.0219 H   0  0  0  0  0  0  0  0  0  0  0  0
   -2.4233    2.0771    1.8937 H   0  0  0  0  0  0  0  0  0  0  0  0
  1  2  2  0
  2  3  1  0
  3  4  1  0
  4  5  1  0
  5  6  1  0
  6  7  1  0
  7  8  1  0
  8  9  1  0
  9 10  1  0
 10 11  1  0
 11 12  1  0
 12 13  1  0
  7 14  1  0
 14 15  1  0
  2 16  1  0
 16 17  1  0
 17 18  2  0
 18 19  1  0
 19 20  2  0
 20 21  1  0
 21 22  2  0
 22 23  1  0
 23 24  1  0
 24 25  2  0
 25 26  1  0
 26 27  2  0
 27 28  1  0
 27 29  1  0
 29 30  2  0
 15  4  1  0
 30 16  1  0
 22 17  1  0
 30 24  1  0
  3 31  1  0
  3 32  1  0
  5 33  1  0
  5 34  1  0
  6 35  1  0
  6 36  1  0
  8 37  1  0
  8 38  1  0
  9 39  1  0
  9 40  1  0
 11 41  1  0
 11 42  1  0
 12 43  1  0
 12 44  1  0
 13 45  1  0
 14 46  1  0
 14 47  1  0
 15 48  1  0
 15 49  1  0
 18 50  1  0
 19 51  1  0
 20 52  1  0
 21 53  1  0
 25 54  1  0
 26 55  1  0
 29 56  1  0
M  END
$$$$
