
     RDKit          3D

 52 55  0  0  0  0  0  0  0  0999 V2000
   -1.8881   -0.7112   -2.3409 O   0  0  0  0  0  0  0  0  0  0  0  0
   -0.9134   -0.6513   -1.5927 C   0  0  0  0  0  0  0  0  0  0  0  0
   -0.8432   -1.4122   -0.4343 N   0  0  0  0  0  0  0  0  0  0  0  0
   -1.9744   -2.1717    0.0463 C   0  0  0  0  0  0  0  0  0  0  0  0
   -1.5812   -3.1985    1.1009 C   0  0  0  0  0  0  0  0  0  0  0  0
   -2.9025   -3.5450    1.7744 C   0  0  0  0  0  0  0  0  0  0  0  0
   -3.7771   -2.2966    1.6474 C   0  0  0  0  0  0  0  0  0  0  0  0
   -2.9929   -1.3096    0.7871 C   0  0  0  0  0  0  0  0  0  0  0  0
    0.3694    0.1705   -1.9167 C   0  0  0  0  0  0  0  0  0  0  0  0
    0.2100    1.4593   -2.7215 C   0  0  0  0  0  0  0  0  0  0  0  0
    1.3528    2.0345   -3.3013 C   0  0  0  0  0  0  0  0  0  0  0  0
    1.2285    3.2104   -4.0249 C   0  0  0  0  0  0  0  0  0  0  0  0
    0.0586    3.8515   -4.2163 N   0  0  0  0  0  0  0  0  0  0  0  0
   -1.0334    3.2869   -3.6611 C   0  0  0  0  0  0  0  0  0  0  0  0
   -1.0098    2.1151   -2.9171 C   0  0  0  0  0  0  0  0  0  0  0  0
    1.2327    0.3341   -0.7229 N   0  0  0  0  0  0  0  0  0  0  0  0
    2.3815   -0.4795   -0.6858 C   0  0  0  0  0  0  0  0  0  0  0  0
    2.9813   -0.7863   -1.7172 O   0  0  0  0  0  0  0  0  0  0  0  0
    2.7624   -1.0442    0.6006 C   0  0  0  0  0  0  0  0  0  0  0  0
    3.9433   -1.6333    1.0139 C   0  0  0  0  0  0  0  0  0  0  0  0
    3.7450   -2.0551    2.3504 C   0  0  0  0  0  0  0  0  0  0  0  0
    2.4497   -1.7232    2.6674 C   0  0  0  0  0  0  0  0  0  0  0  0
    1.8392   -1.1269    1.6122 O   0  0  0  0  0  0  0  0  0  0  0  0
    0.9595    1.3576    0.2542 C   0  0  0  0  0  0  0  0  0  0  0  0
   -0.3357    1.8468    0.4770 C   0  0  0  0  0  0  0  0  0  0  0  0
   -0.5798    2.8513    1.4206 C   0  0  0  0  0  0  0  0  0  0  0  0
    0.4693    3.3951    2.1527 C   0  0  0  0  0  0  0  0  0  0  0  0
    1.7639    2.9382    1.9376 C   0  0  0  0  0  0  0  0  0  0  0  0
    2.0059    1.9333    0.9950 C   0  0  0  0  0  0  0  0  0  0  0  0
   -0.1182   -1.1696    0.2354 H   0  0  0  0  0  0  0  0  0  0  0  0
   -2.4584   -2.6699   -0.8034 H   0  0  0  0  0  0  0  0  0  0  0  0
   -0.8910   -2.7637    1.8349 H   0  0  0  0  0  0  0  0  0  0  0  0
   -1.0921   -4.0765    0.6677 H   0  0  0  0  0  0  0  0  0  0  0  0
   -2.7596   -3.8418    2.8180 H   0  0  0  0  0  0  0  0  0  0  0  0
   -3.3810   -4.3841    1.2557 H   0  0  0  0  0  0  0  0  0  0  0  0
   -4.7297   -2.5539    1.1706 H   0  0  0  0  0  0  0  0  0  0  0  0
   -4.0075   -1.8645    2.6268 H   0  0  0  0  0  0  0  0  0  0  0  0
   -2.4877   -0.5793    1.4321 H   0  0  0  0  0  0  0  0  0  0  0  0
   -3.6409   -0.7489    0.1058 H   0  0  0  0  0  0  0  0  0  0  0  0
    0.8771   -0.5158   -2.6116 H   0  0  0  0  0  0  0  0  0  0  0  0
    2.3310    1.5743   -3.1917 H   0  0  0  0  0  0  0  0  0  0  0  0
    2.0949    3.6785   -4.4833 H   0  0  0  0  0  0  0  0  0  0  0  0
   -1.9659    3.8168   -3.8345 H   0  0  0  0  0  0  0  0  0  0  0  0
   -1.9433    1.7384   -2.5127 H   0  0  0  0  0  0  0  0  0  0  0  0
    4.8353   -1.7408    0.4110 H   0  0  0  0  0  0  0  0  0  0  0  0
    4.4547   -2.5499    2.9990 H   0  0  0  0  0  0  0  0  0  0  0  0
    1.8413   -1.8432    3.5535 H   0  0  0  0  0  0  0  0  0  0  0  0
   -1.1986    1.4553   -0.0497 H   0  0  0  0  0  0  0  0  0  0  0  0
   -1.5944    3.2088    1.5800 H   0  0  0  0  0  0  0  0  0  0  0  0
    0.2796    4.1786    2.8816 H   0  0  0  0  0  0  0  0  0  0  0  0
    2.5922    3.3699    2.4940 H   0  0  0  0  0  0  0  0  0  0  0  0
    3.0406    1.6415    0.8356 H   0  0  0  0  0  0  0  0  0  0  0  0
  1  2  2  0
  2  3  1  0
  3  4  1  0
  4  5  1  0
  5  6  1  0
  6  7  1  0
  7  8  1  0
  2  9  1  0
  9 10  1  0
 10 11  2  0
 11 12  1  0
 12 13  2  0
 13 14  1  0
 14 15  2  0
  9 16  1  0
 16 17  1  0
 17 18  2  0
 17 19  1  0
 19 20  2  0
 20 21  1  0
 21 22  2  0
 22 23  1  0
 16 24  1  0
 24 25  2  0
 25 26  1  0
 26 27  2  0
 27 28  1  0
 28 29  2  0
  8  4  1  0
 15 10  1  0
 23 19  1  0
 29 24  1  0
  3 30  1  0
  4 31  1  0
  5 32  1  0
  5 33  1  0
  6 34  1  0
  6 35  1  0
  7 36  1  0
  7 37  1  0
  8 38  1  0
  8 39  1  0
  9 40  1  0
 11 41  1  0
 12 42  1  0
 14 43  1  0
 15 44  1  0
 20 45  1  0
 21 46  1  0
 22 47  1  0
 25 48  1  0
 26 49  1  0
 27 50  1  0
 28 51  1  0
 29 52  1  0
M  END
$$$$
