
     RDKit          3D

 53 57  0  0  0  0  0  0  0  0999 V2000
    8.3241    0.6861    0.1243 C   0  0  0  0  0  0  0  0  0  0  0  0
    7.2855    1.3983    0.7845 O   0  0  0  0  0  0  0  0  0  0  0  0
    6.0018    1.0439    0.4793 C   0  0  0  0  0  0  0  0  0  0  0  0
    5.0179    1.7689    1.1481 C   0  0  0  0  0  0  0  0  0  0  0  0
    3.6577    1.5115    0.9320 C   0  0  0  0  0  0  0  0  0  0  0  0
    3.2522    0.5163    0.0356 C   0  0  0  0  0  0  0  0  0  0  0  0
    1.8609    0.2384   -0.2046 N   0  0  0  0  0  0  0  0  0  0  0  0
    1.3822   -0.5704   -1.2237 C   0  0  0  0  0  0  0  0  0  0  0  0
    0.0056   -0.6132   -1.1778 C   0  0  0  0  0  0  0  0  0  0  0  0
   -0.7690   -1.3535   -2.1535 C   0  0  0  0  0  0  0  0  0  0  0  0
   -1.6098   -0.6741   -3.0426 C   0  0  0  0  0  0  0  0  0  0  0  0
   -2.3725   -1.3872   -3.9687 C   0  0  0  0  0  0  0  0  0  0  0  0
   -2.2955   -2.7788   -4.0123 C   0  0  0  0  0  0  0  0  0  0  0  0
   -1.4558   -3.4601   -3.1317 C   0  0  0  0  0  0  0  0  0  0  0  0
   -0.6926   -2.7499   -2.2033 C   0  0  0  0  0  0  0  0  0  0  0  0
   -0.4107    0.1840   -0.0753 C   0  0  0  0  0  0  0  0  0  0  0  0
   -1.6494    0.5248    0.5179 C   0  0  0  0  0  0  0  0  0  0  0  0
   -2.8765    0.0305    0.0171 N   0  0  0  0  0  0  0  0  0  0  0  0
   -4.0967    0.0669    0.7205 N   0  0  0  0  0  0  0  0  0  0  0  0
   -4.6090    1.4294    0.9415 C   0  0  0  0  0  0  0  0  0  0  0  0
   -4.7989    1.7722    2.4274 C   0  0  0  0  0  0  0  0  0  0  0  0
   -5.6215    0.8252    3.1230 O   0  0  0  0  0  0  0  0  0  0  0  0
   -5.3926   -0.5316    2.7159 C   0  0  0  0  0  0  0  0  0  0  0  0
   -4.0837   -0.7478    1.9422 C   0  0  0  0  0  0  0  0  0  0  0  0
   -1.6263    1.3557    1.5911 N   0  0  0  0  0  0  0  0  0  0  0  0
   -0.4480    1.7880    2.0566 C   0  0  0  0  0  0  0  0  0  0  0  0
    0.7690    1.5091    1.5848 N   0  0  0  0  0  0  0  0  0  0  0  0
    0.7475    0.7057    0.5028 C   0  0  0  0  0  0  0  0  0  0  0  0
    4.2507   -0.2100   -0.6359 C   0  0  0  0  0  0  0  0  0  0  0  0
    5.6120    0.0516   -0.4146 C   0  0  0  0  0  0  0  0  0  0  0  0
    9.2799    1.0877    0.4745 H   0  0  0  0  0  0  0  0  0  0  0  0
    8.2775    0.8346   -0.9596 H   0  0  0  0  0  0  0  0  0  0  0  0
    8.2967   -0.3785    0.3795 H   0  0  0  0  0  0  0  0  0  0  0  0
    5.3081    2.5505    1.8470 H   0  0  0  0  0  0  0  0  0  0  0  0
    2.9533    2.1324    1.4743 H   0  0  0  0  0  0  0  0  0  0  0  0
    2.0460   -1.0308   -1.9407 H   0  0  0  0  0  0  0  0  0  0  0  0
   -1.6789    0.4118   -3.0194 H   0  0  0  0  0  0  0  0  0  0  0  0
   -3.0270   -0.8566   -4.6559 H   0  0  0  0  0  0  0  0  0  0  0  0
   -2.8905   -3.3328   -4.7344 H   0  0  0  0  0  0  0  0  0  0  0  0
   -1.3970   -4.5451   -3.1673 H   0  0  0  0  0  0  0  0  0  0  0  0
   -0.0464   -3.2933   -1.5176 H   0  0  0  0  0  0  0  0  0  0  0  0
   -2.7548   -0.7654   -0.6061 H   0  0  0  0  0  0  0  0  0  0  0  0
   -3.9971    2.1987    0.4555 H   0  0  0  0  0  0  0  0  0  0  0  0
   -5.5928    1.4708    0.4577 H   0  0  0  0  0  0  0  0  0  0  0  0
   -5.2815    2.7506    2.5219 H   0  0  0  0  0  0  0  0  0  0  0  0
   -3.8403    1.8390    2.9523 H   0  0  0  0  0  0  0  0  0  0  0  0
   -5.3989   -1.1492    3.6200 H   0  0  0  0  0  0  0  0  0  0  0  0
   -6.2512   -0.8424    2.1089 H   0  0  0  0  0  0  0  0  0  0  0  0
   -3.9886   -1.8072    1.6783 H   0  0  0  0  0  0  0  0  0  0  0  0
   -3.2420   -0.4908    2.5956 H   0  0  0  0  0  0  0  0  0  0  0  0
   -0.4888    2.4415    2.9225 H   0  0  0  0  0  0  0  0  0  0  0  0
    4.0176   -1.0109   -1.3305 H   0  0  0  0  0  0  0  0  0  0  0  0
    6.3385   -0.5444   -0.9570 H   0  0  0  0  0  0  0  0  0  0  0  0
  1  2  1  0
  2  3  1  0
  3  4  2  0
  4  5  1  0
  5  6  2  0
  6  7  1  0
  7  8  1  0
  8  9  2  0
  9 10  1  0
 10 11  2  0
 11 12  1  0
 12 13  2  0
 13 14  1  0
 14 15  2  0
  9 16  1  0
 16 17  2  0
 17 18  1  0
 18 19  1  0
 19 20  1  0
 20 21  1  0
 21 22  1  0
 22 23  1  0
 23 24  1  0
 17 25  1  0
 25 26  2  0
 26 27  1  0
 27 28  2  0
  6 29  1  0
 29 30  2  0
 30  3  1  0
 28  7  1  0
 15 10  1  0
 28 16  1  0
 24 19  1  0
  1 31  1  0
  1 32  1  0
  1 33  1  0
  4 34  1  0
  5 35  1  0
  8 36  1  0
 11 37  1  0
 12 38  1  0
 13 39  1  0
 14 40  1  0
 15 41  1  0
 18 42  1  0
 20 43  1  0
 20 44  1  0
 21 45  1  0
 21 46  1  0
 23 47  1  0
 23 48  1  0
 24 49  1  0
 24 50  1  0
 26 51  1  0
 29 52  1  0
 30 53  1  0
M  END
$$$$
