
     RDKit          3D

 63 67  0  0  0  0  0  0  0  0999 V2000
    9.5743    0.6495    2.0656 C   0  0  0  0  0  0  0  0  0  0  0  0
    8.9323    1.1428    0.8991 O   0  0  0  0  0  0  0  0  0  0  0  0
    7.5776    0.9513    0.7877 C   0  0  0  0  0  0  0  0  0  0  0  0
    6.7768    0.3752    1.7770 C   0  0  0  0  0  0  0  0  0  0  0  0
    5.4010    0.2237    1.5753 C   0  0  0  0  0  0  0  0  0  0  0  0
    4.7958    0.6414    0.3828 C   0  0  0  0  0  0  0  0  0  0  0  0
    3.3494    0.4810    0.1722 C   0  0  0  0  0  0  0  0  0  0  0  0
    2.4217    1.0606    1.0558 C   0  0  0  0  0  0  0  0  0  0  0  0
    1.0436    0.9228    0.8527 C   0  0  0  0  0  0  0  0  0  0  0  0
    0.5667    0.1898   -0.2366 C   0  0  0  0  0  0  0  0  0  0  0  0
    1.4776   -0.3726   -1.1189 C   0  0  0  0  0  0  0  0  0  0  0  0
    2.8574   -0.2434   -0.9241 C   0  0  0  0  0  0  0  0  0  0  0  0
    0.8777   -1.2493   -2.5114 S   0  0  0  0  0  6  0  0  0  0  0  0
    1.6680   -2.4604   -2.6126 O   0  0  0  0  0  0  0  0  0  0  0  0
    0.7843   -0.3025   -3.6024 O   0  0  0  0  0  0  0  0  0  0  0  0
   -0.7616   -1.7573   -2.1391 C   0  0  0  0  0  0  0  0  0  0  0  0
   -1.3180   -2.8264   -2.8534 C   0  0  0  0  0  0  0  0  0  0  0  0
   -2.6030   -3.2664   -2.5437 C   0  0  0  0  0  0  0  0  0  0  0  0
   -3.3125   -2.6555   -1.5104 C   0  0  0  0  0  0  0  0  0  0  0  0
   -2.7403   -1.5871   -0.8006 C   0  0  0  0  0  0  0  0  0  0  0  0
   -3.4683   -1.0899    0.3803 C   0  0  0  0  0  0  0  0  0  0  0  0
   -3.0164   -1.3251    1.4926 O   0  0  0  0  0  0  0  0  0  0  0  0
   -4.6450   -0.4341    0.1069 N   0  0  0  0  0  0  0  0  0  0  0  0
   -5.5047    0.0728    1.1686 C   0  0  0  0  0  0  0  0  0  0  0  0
   -6.2569    1.3312    0.7043 C   0  0  0  0  0  0  0  0  0  0  0  0
   -7.6303    0.9969    0.1334 C   0  0  0  0  0  0  0  0  0  0  0  0
   -8.5245    0.3098    1.1676 C   0  0  0  0  0  0  0  0  0  0  0  0
   -7.7464   -0.4874    2.2159 C   0  0  0  0  0  0  0  0  0  0  0  0
   -6.4467   -1.0452    1.6502 C   0  0  0  0  0  0  0  0  0  0  0  0
   -1.4602   -1.1162   -1.1191 C   0  0  0  0  0  0  0  0  0  0  0  0
   -0.8911    0.0663   -0.4348 C   0  0  0  0  0  0  0  0  0  0  0  0
   -1.6222    0.9769   -0.0666 O   0  0  0  0  0  0  0  0  0  0  0  0
    5.6079    1.2217   -0.6071 C   0  0  0  0  0  0  0  0  0  0  0  0
    6.9870    1.3827   -0.4157 C   0  0  0  0  0  0  0  0  0  0  0  0
    7.8372    1.9447   -1.3365 O   0  0  0  0  0  0  0  0  0  0  0  0
    7.2767    2.4180   -2.5535 C   0  0  0  0  0  0  0  0  0  0  0  0
    9.4485   -0.4345    2.1592 H   0  0  0  0  0  0  0  0  0  0  0  0
    9.2183    1.1686    2.9612 H   0  0  0  0  0  0  0  0  0  0  0  0
   10.6450    0.8520    1.9680 H   0  0  0  0  0  0  0  0  0  0  0  0
    7.1904    0.0332    2.7198 H   0  0  0  0  0  0  0  0  0  0  0  0
    4.8042   -0.2361    2.3609 H   0  0  0  0  0  0  0  0  0  0  0  0
    2.7696    1.6425    1.9088 H   0  0  0  0  0  0  0  0  0  0  0  0
    0.3473    1.3897    1.5483 H   0  0  0  0  0  0  0  0  0  0  0  0
    3.5491   -0.7074   -1.6271 H   0  0  0  0  0  0  0  0  0  0  0  0
   -0.7524   -3.3184   -3.6438 H   0  0  0  0  0  0  0  0  0  0  0  0
   -3.0399   -4.1020   -3.0869 H   0  0  0  0  0  0  0  0  0  0  0  0
   -4.2939   -3.0357   -1.2317 H   0  0  0  0  0  0  0  0  0  0  0  0
   -4.9279   -0.2971   -0.8541 H   0  0  0  0  0  0  0  0  0  0  0  0
   -4.8534    0.3657    2.0025 H   0  0  0  0  0  0  0  0  0  0  0  0
   -6.3948    2.0017    1.5631 H   0  0  0  0  0  0  0  0  0  0  0  0
   -5.6675    1.8894   -0.0328 H   0  0  0  0  0  0  0  0  0  0  0  0
   -7.5102    0.3418   -0.7382 H   0  0  0  0  0  0  0  0  0  0  0  0
   -8.1219    1.9078   -0.2273 H   0  0  0  0  0  0  0  0  0  0  0  0
   -9.1395    1.0579    1.6825 H   0  0  0  0  0  0  0  0  0  0  0  0
   -9.2249   -0.3501    0.6419 H   0  0  0  0  0  0  0  0  0  0  0  0
   -8.3736   -1.2996    2.5994 H   0  0  0  0  0  0  0  0  0  0  0  0
   -7.5180    0.1609    3.0713 H   0  0  0  0  0  0  0  0  0  0  0  0
   -6.6867   -1.7276    0.8226 H   0  0  0  0  0  0  0  0  0  0  0  0
   -5.9367   -1.6539    2.4077 H   0  0  0  0  0  0  0  0  0  0  0  0
    5.1347    1.5557   -1.5255 H   0  0  0  0  0  0  0  0  0  0  0  0
    6.8322    1.5979   -3.1280 H   0  0  0  0  0  0  0  0  0  0  0  0
    6.5487    3.2156   -2.3698 H   0  0  0  0  0  0  0  0  0  0  0  0
    8.0883    2.8419   -3.1534 H   0  0  0  0  0  0  0  0  0  0  0  0
  1  2  1  0
  2  3  1  0
  3  4  2  0
  4  5  1  0
  5  6  2  0
  6  7  1  0
  7  8  2  0
  8  9  1  0
  9 10  2  0
 10 11  1  0
 11 12  2  0
 11 13  1  0
 13 14  2  0
 13 15  2  0
 13 16  1  0
 16 17  2  0
 17 18  1  0
 18 19  2  0
 19 20  1  0
 20 21  1  0
 21 22  2  0
 21 23  1  0
 23 24  1  0
 24 25  1  0
 25 26  1  0
 26 27  1  0
 27 28  1  0
 28 29  1  0
 20 30  2  0
 30 31  1  0
 31 32  2  0
  6 33  1  0
 33 34  2  0
 34 35  1  0
 35 36  1  0
 34  3  1  0
 12  7  1  0
 30 16  1  0
 31 10  1  0
 29 24  1  0
  1 37  1  0
  1 38  1  0
  1 39  1  0
  4 40  1  0
  5 41  1  0
  8 42  1  0
  9 43  1  0
 12 44  1  0
 17 45  1  0
 18 46  1  0
 19 47  1  0
 23 48  1  0
 24 49  1  0
 25 50  1  0
 25 51  1  0
 26 52  1  0
 26 53  1  0
 27 54  1  0
 27 55  1  0
 28 56  1  0
 28 57  1  0
 29 58  1  0
 29 59  1  0
 33 60  1  0
 36 61  1  0
 36 62  1  0
 36 63  1  0
M  END
$$$$
