
     RDKit          3D

 42 43  0  0  0  0  0  0  0  0999 V2000
    4.8714    3.7205   -2.6897 C   0  0  0  0  0  0  0  0  0  0  0  0
    4.4518    2.9769   -1.4613 C   0  0  0  0  0  0  0  0  0  0  0  0
    5.4964    2.9477   -0.1131 S   0  0  0  0  0  0  0  0  0  0  0  0
    4.4234    1.9904    0.7877 C   0  0  0  0  0  0  0  0  0  0  0  0
    4.7549    1.6210    2.0364 N   0  0  0  0  0  0  0  0  0  0  0  0
    3.8167    0.8825    2.6225 C   0  0  0  0  0  0  0  0  0  0  0  0
    2.6469    0.4983    2.1007 N   0  0  0  0  0  0  0  0  0  0  0  0
    2.3530    0.8887    0.8412 C   0  0  0  0  0  0  0  0  0  0  0  0
    0.7819    0.4062    0.1891 S   0  0  0  0  0  0  0  0  0  0  0  0
    0.7173   -1.2955    0.8275 C   0  0  0  0  0  0  0  0  0  0  0  0
   -0.5266   -1.9855    0.3013 C   0  0  0  0  0  0  0  0  0  0  0  0
   -0.4847   -2.8150   -0.6039 O   0  0  0  0  0  0  0  0  0  0  0  0
   -1.6958   -1.6079    0.9334 N   0  0  0  0  0  0  0  0  0  0  0  0
   -2.9845   -2.2245    0.6285 C   0  0  0  0  0  0  0  0  0  0  0  0
   -3.1332   -3.4957    1.4693 C   0  0  0  0  0  0  0  0  0  0  0  0
   -4.1328   -1.2075    0.8558 C   0  0  0  0  0  0  0  0  0  0  0  0
   -5.5168   -1.8247    0.6323 C   0  0  0  0  0  0  0  0  0  0  0  0
   -3.9753    0.0100   -0.0666 C   0  0  0  0  0  0  0  0  0  0  0  0
    3.2569    1.6765    0.1021 C   0  0  0  0  0  0  0  0  0  0  0  0
    3.2852    2.2528   -1.2406 C   0  0  0  0  0  0  0  0  0  0  0  0
    2.2064    2.0916   -2.2692 C   0  0  0  0  0  0  0  0  0  0  0  0
    5.0978    3.0155   -3.4955 H   0  0  0  0  0  0  0  0  0  0  0  0
    4.0700    4.3858   -3.0281 H   0  0  0  0  0  0  0  0  0  0  0  0
    5.7595    4.3378   -2.5210 H   0  0  0  0  0  0  0  0  0  0  0  0
    4.0229    0.5578    3.6379 H   0  0  0  0  0  0  0  0  0  0  0  0
    0.6917   -1.3032    1.9225 H   0  0  0  0  0  0  0  0  0  0  0  0
    1.5955   -1.8600    0.4982 H   0  0  0  0  0  0  0  0  0  0  0  0
   -1.6346   -0.9823    1.7279 H   0  0  0  0  0  0  0  0  0  0  0  0
   -2.9743   -2.5215   -0.4282 H   0  0  0  0  0  0  0  0  0  0  0  0
   -4.0261   -4.0619    1.1893 H   0  0  0  0  0  0  0  0  0  0  0  0
   -2.2720   -4.1587    1.3292 H   0  0  0  0  0  0  0  0  0  0  0  0
   -3.1934   -3.2589    2.5369 H   0  0  0  0  0  0  0  0  0  0  0  0
   -4.0892   -0.8456    1.8915 H   0  0  0  0  0  0  0  0  0  0  0  0
   -6.2996   -1.0616    0.6911 H   0  0  0  0  0  0  0  0  0  0  0  0
   -5.7464   -2.5717    1.3976 H   0  0  0  0  0  0  0  0  0  0  0  0
   -5.5844   -2.3041   -0.3500 H   0  0  0  0  0  0  0  0  0  0  0  0
   -3.0364    0.5387    0.1255 H   0  0  0  0  0  0  0  0  0  0  0  0
   -3.9876   -0.2889   -1.1202 H   0  0  0  0  0  0  0  0  0  0  0  0
   -4.7883    0.7274    0.0900 H   0  0  0  0  0  0  0  0  0  0  0  0
    2.4848    2.5381   -3.2290 H   0  0  0  0  0  0  0  0  0  0  0  0
    1.2849    2.5791   -1.9372 H   0  0  0  0  0  0  0  0  0  0  0  0
    2.0124    1.0315   -2.4598 H   0  0  0  0  0  0  0  0  0  0  0  0
  1  2  1  0
  2  3  1  0
  3  4  1  0
  4  5  2  0
  5  6  1  0
  6  7  2  0
  7  8  1  0
  8  9  1  0
  9 10  1  0
 10 11  1  0
 11 12  2  0
 11 13  1  0
 13 14  1  0
 14 15  1  0
 14 16  1  0
 16 17  1  0
 16 18  1  0
  8 19  2  0
 19 20  1  0
 20 21  1  0
 20  2  2  0
 19  4  1  0
  1 22  1  0
  1 23  1  0
  1 24  1  0
  6 25  1  0
 10 26  1  0
 10 27  1  0
 13 28  1  0
 14 29  1  0
 15 30  1  0
 15 31  1  0
 15 32  1  0
 16 33  1  0
 17 34  1  0
 17 35  1  0
 17 36  1  0
 18 37  1  0
 18 38  1  0
 18 39  1  0
 21 40  1  0
 21 41  1  0
 21 42  1  0
M  END
$$$$
