
     RDKit          3D

 39 40  0  0  0  0  0  0  0  0999 V2000
   -3.3845    2.7914   -0.3097 C   0  0  0  0  0  0  0  0  0  0  0  0
   -3.0797    1.8129    0.8126 C   0  0  0  0  0  0  0  0  0  0  0  0
   -3.6594    0.4853    0.5864 N   0  0  0  0  0  0  0  0  0  0  0  0
   -5.0379    0.2631    1.0296 C   0  0  0  0  0  0  0  0  0  0  0  0
   -6.0567    0.4180   -0.0898 C   0  0  0  0  0  0  0  0  0  0  0  0
   -3.0240   -0.5538   -0.0952 C   0  0  0  0  0  0  0  0  0  0  0  0
   -3.5770   -1.6444   -0.2728 O   0  0  0  0  0  0  0  0  0  0  0  0
   -1.6107   -0.3389   -0.6146 C   0  0  0  0  0  0  0  0  0  0  0  0
   -0.4202   -0.9134    0.6349 S   0  0  0  0  0  0  0  0  0  0  0  0
    1.0633   -0.5422   -0.1719 C   0  0  0  0  0  0  0  0  0  0  0  0
    1.2111    0.1854   -1.2514 N   0  0  0  0  0  0  0  0  0  0  0  0
    2.5547    0.2149   -1.5432 N   0  0  0  0  0  0  0  0  0  0  0  0
    3.2128   -0.4802   -0.6240 C   0  0  0  0  0  0  0  0  0  0  0  0
    4.6650   -0.6798   -0.6056 C   0  0  0  0  0  0  0  0  0  0  0  0
    5.3892   -0.8872    0.5702 C   0  0  0  0  0  0  0  0  0  0  0  0
    6.7624   -1.0581    0.4867 C   0  0  0  0  0  0  0  0  0  0  0  0
    7.4545   -1.0307   -0.6704 N   0  0  0  0  0  0  0  0  0  0  0  0
    6.7440   -0.8103   -1.7950 C   0  0  0  0  0  0  0  0  0  0  0  0
    5.3712   -0.6291   -1.8124 C   0  0  0  0  0  0  0  0  0  0  0  0
    2.2834   -1.0012    0.2596 N   0  0  0  0  0  0  0  0  0  0  0  0
    2.5203   -1.9045    1.3628 N   0  0  0  0  0  0  0  0  0  0  0  0
   -4.4522    3.0232   -0.3525 H   0  0  0  0  0  0  0  0  0  0  0  0
   -2.8480    3.7314   -0.1464 H   0  0  0  0  0  0  0  0  0  0  0  0
   -3.0886    2.3917   -1.2844 H   0  0  0  0  0  0  0  0  0  0  0  0
   -1.9964    1.7238    0.9288 H   0  0  0  0  0  0  0  0  0  0  0  0
   -3.4541    2.2029    1.7657 H   0  0  0  0  0  0  0  0  0  0  0  0
   -5.2700    0.9498    1.8508 H   0  0  0  0  0  0  0  0  0  0  0  0
   -5.1117   -0.7522    1.4371 H   0  0  0  0  0  0  0  0  0  0  0  0
   -5.8514   -0.2685   -0.9170 H   0  0  0  0  0  0  0  0  0  0  0  0
   -6.0569    1.4337   -0.4936 H   0  0  0  0  0  0  0  0  0  0  0  0
   -7.0628    0.2055    0.2853 H   0  0  0  0  0  0  0  0  0  0  0  0
   -1.4970   -0.9331   -1.5284 H   0  0  0  0  0  0  0  0  0  0  0  0
   -1.4343    0.7023   -0.8902 H   0  0  0  0  0  0  0  0  0  0  0  0
    4.9158   -0.9034    1.5455 H   0  0  0  0  0  0  0  0  0  0  0  0
    7.3601   -1.2221    1.3791 H   0  0  0  0  0  0  0  0  0  0  0  0
    7.3238   -0.7803   -2.7131 H   0  0  0  0  0  0  0  0  0  0  0  0
    4.8621   -0.4510   -2.7553 H   0  0  0  0  0  0  0  0  0  0  0  0
    2.5564   -2.8648    1.0200 H   0  0  0  0  0  0  0  0  0  0  0  0
    1.7237   -1.8855    2.0023 H   0  0  0  0  0  0  0  0  0  0  0  0
  1  2  1  0
  2  3  1  0
  3  4  1  0
  4  5  1  0
  3  6  1  0
  6  7  2  0
  6  8  1  0
  8  9  1  0
  9 10  1  0
 10 11  2  0
 11 12  1  0
 12 13  2  0
 13 14  1  0
 14 15  2  0
 15 16  1  0
 16 17  2  0
 17 18  1  0
 18 19  2  0
 13 20  1  0
 20 21  1  0
 20 10  1  0
 19 14  1  0
  1 22  1  0
  1 23  1  0
  1 24  1  0
  2 25  1  0
  2 26  1  0
  4 27  1  0
  4 28  1  0
  5 29  1  0
  5 30  1  0
  5 31  1  0
  8 32  1  0
  8 33  1  0
 15 34  1  0
 16 35  1  0
 18 36  1  0
 19 37  1  0
 21 38  1  0
 21 39  1  0
M  END
$$$$
