
     RDKit          3D

 59 60  0  0  0  0  0  0  0  0999 V2000
    5.6310   -0.3598   -4.5938 C   0  0  0  0  0  0  0  0  0  0  0  0
    5.0042   -1.3504   -3.6112 C   0  0  0  0  0  0  0  0  0  0  0  0
    6.0864   -2.2803   -3.0559 C   0  0  0  0  0  0  0  0  0  0  0  0
    4.2774   -0.6454   -2.4519 C   0  0  0  0  0  0  0  0  0  0  0  0
    3.0762    0.1871   -2.9026 C   0  0  0  0  0  0  0  0  0  0  0  0
    2.3893    0.7766   -1.7727 N   0  0  0  0  0  0  0  0  0  0  0  0
    1.4620    0.0752   -1.0245 C   0  0  0  0  0  0  0  0  0  0  0  0
    1.0975   -1.0546   -1.3362 O   0  0  0  0  0  0  0  0  0  0  0  0
    0.9540    0.7974    0.1175 C   0  0  0  0  0  0  0  0  0  0  0  0
    1.0750    2.1552    0.1298 O   0  0  0  0  0  0  0  0  0  0  0  0
    0.4671    2.6727    1.2525 N   0  0  0  0  0  0  0  0  0  0  0  0
   -0.0167    1.6204    1.9273 C   0  0  0  0  0  0  0  0  0  0  0  0
   -0.7186    1.8274    3.2293 C   0  0  0  0  0  0  0  0  0  0  0  0
   -2.5335    1.7858    3.0133 S   0  0  0  0  0  0  0  0  0  0  0  0
   -2.7886    3.4481    2.4303 C   0  0  0  0  0  0  0  0  0  0  0  0
   -3.5749    3.6696    1.3053 C   0  0  0  0  0  0  0  0  0  0  0  0
   -3.7793    4.9803    0.8821 C   0  0  0  0  0  0  0  0  0  0  0  0
   -3.2045    6.0231    1.5995 C   0  0  0  0  0  0  0  0  0  0  0  0
   -2.4448    5.7091    2.7135 C   0  0  0  0  0  0  0  0  0  0  0  0
   -2.2314    4.4476    3.1474 N   0  0  0  0  0  0  0  0  0  0  0  0
    0.2855    0.3987    1.2580 C   0  0  0  0  0  0  0  0  0  0  0  0
    0.0312   -0.9707    1.6437 C   0  0  0  0  0  0  0  0  0  0  0  0
    0.8737   -1.8508    1.5199 O   0  0  0  0  0  0  0  0  0  0  0  0
   -1.2210   -1.1901    2.1726 N   0  0  0  0  0  0  0  0  0  0  0  0
   -1.6886   -2.5232    2.4864 C   0  0  0  0  0  0  0  0  0  0  0  0
   -2.1907   -3.2759    1.2512 C   0  0  0  0  0  0  0  0  0  0  0  0
   -3.3403   -2.5840    0.4895 C   0  0  0  0  0  0  0  0  0  0  0  0
   -4.5780   -2.3700    1.3627 C   0  0  0  0  0  0  0  0  0  0  0  0
   -3.7132   -3.4106   -0.7452 C   0  0  0  0  0  0  0  0  0  0  0  0
    4.8671    0.2364   -5.1019 H   0  0  0  0  0  0  0  0  0  0  0  0
    6.1971   -0.8876   -5.3691 H   0  0  0  0  0  0  0  0  0  0  0  0
    6.3159    0.3256   -4.0833 H   0  0  0  0  0  0  0  0  0  0  0  0
    4.2800   -1.9672   -4.1589 H   0  0  0  0  0  0  0  0  0  0  0  0
    6.5915   -2.8178   -3.8656 H   0  0  0  0  0  0  0  0  0  0  0  0
    5.6517   -3.0268   -2.3821 H   0  0  0  0  0  0  0  0  0  0  0  0
    6.8439   -1.7190   -2.4975 H   0  0  0  0  0  0  0  0  0  0  0  0
    4.9802   -0.0032   -1.9039 H   0  0  0  0  0  0  0  0  0  0  0  0
    3.9355   -1.4029   -1.7341 H   0  0  0  0  0  0  0  0  0  0  0  0
    2.3696   -0.4335   -3.4647 H   0  0  0  0  0  0  0  0  0  0  0  0
    3.3895    1.0177   -3.5418 H   0  0  0  0  0  0  0  0  0  0  0  0
    2.6886    1.6838   -1.4352 H   0  0  0  0  0  0  0  0  0  0  0  0
   -0.3961    2.7533    3.7168 H   0  0  0  0  0  0  0  0  0  0  0  0
   -0.4524    1.0158    3.9159 H   0  0  0  0  0  0  0  0  0  0  0  0
   -4.0180    2.8442    0.7586 H   0  0  0  0  0  0  0  0  0  0  0  0
   -4.3786    5.1834   -0.0015 H   0  0  0  0  0  0  0  0  0  0  0  0
   -3.3421    7.0544    1.2953 H   0  0  0  0  0  0  0  0  0  0  0  0
   -1.9736    6.4886    3.3066 H   0  0  0  0  0  0  0  0  0  0  0  0
   -1.9143   -0.4527    2.1183 H   0  0  0  0  0  0  0  0  0  0  0  0
   -0.8659   -3.0851    2.9441 H   0  0  0  0  0  0  0  0  0  0  0  0
   -2.4768   -2.4260    3.2397 H   0  0  0  0  0  0  0  0  0  0  0  0
   -2.5115   -4.2776    1.5643 H   0  0  0  0  0  0  0  0  0  0  0  0
   -1.3505   -3.4211    0.5589 H   0  0  0  0  0  0  0  0  0  0  0  0
   -2.9970   -1.6034    0.1376 H   0  0  0  0  0  0  0  0  0  0  0  0
   -4.3717   -1.6715    2.1802 H   0  0  0  0  0  0  0  0  0  0  0  0
   -4.9252   -3.3127    1.7979 H   0  0  0  0  0  0  0  0  0  0  0  0
   -5.4000   -1.9458    0.7754 H   0  0  0  0  0  0  0  0  0  0  0  0
   -4.0760   -4.4051   -0.4640 H   0  0  0  0  0  0  0  0  0  0  0  0
   -4.5004   -2.9138   -1.3234 H   0  0  0  0  0  0  0  0  0  0  0  0
   -2.8467   -3.5389   -1.4038 H   0  0  0  0  0  0  0  0  0  0  0  0
  1  2  1  0
  2  3  1  0
  2  4  1  0
  4  5  1  0
  5  6  1  0
  6  7  1  0
  7  8  2  0
  7  9  1  0
  9 10  1  0
 10 11  1  0
 11 12  2  0
 12 13  1  0
 13 14  1  0
 14 15  1  0
 15 16  2  0
 16 17  1  0
 17 18  2  0
 18 19  1  0
 19 20  2  0
 12 21  1  0
 21 22  1  0
 22 23  2  0
 22 24  1  0
 24 25  1  0
 25 26  1  0
 26 27  1  0
 27 28  1  0
 27 29  1  0
 21  9  2  0
 20 15  1  0
  1 30  1  0
  1 31  1  0
  1 32  1  0
  2 33  1  0
  3 34  1  0
  3 35  1  0
  3 36  1  0
  4 37  1  0
  4 38  1  0
  5 39  1  0
  5 40  1  0
  6 41  1  0
 13 42  1  0
 13 43  1  0
 16 44  1  0
 17 45  1  0
 18 46  1  0
 19 47  1  0
 24 48  1  0
 25 49  1  0
 25 50  1  0
 26 51  1  0
 26 52  1  0
 27 53  1  0
 28 54  1  0
 28 55  1  0
 28 56  1  0
 29 57  1  0
 29 58  1  0
 29 59  1  0
M  END
$$$$
