
     RDKit          3D

 55 57  0  0  0  0  0  0  0  0999 V2000
    0.0626   -3.6190   -4.2798 C   0  0  0  0  0  0  0  0  0  0  0  0
    0.0849   -2.3175   -3.4872 C   0  0  0  0  0  0  0  0  0  0  0  0
   -0.4690   -2.3965   -2.0402 C   0  0  0  0  0  0  0  0  0  0  0  0
   -1.9450   -2.8464   -2.0567 C   0  0  0  0  0  0  0  0  0  0  0  0
    0.3175   -3.4031   -1.1801 C   0  0  0  0  0  0  0  0  0  0  0  0
   -0.4383   -1.0501   -1.4317 N   0  0  0  0  0  0  0  0  0  0  0  0
    0.7114   -0.3281   -1.1560 C   0  0  0  0  0  0  0  0  0  0  0  0
    1.8382   -0.8079   -1.2981 O   0  0  0  0  0  0  0  0  0  0  0  0
    0.5244    1.1038   -0.5645 C   0  0  0  0  0  0  0  0  0  0  0  0
   -0.8110    1.7981   -0.8436 C   0  0  0  0  0  0  0  0  0  0  0  0
   -1.6389    2.3211    0.1641 C   0  0  0  0  0  0  0  0  0  0  0  0
   -2.8397    2.9630   -0.1567 C   0  0  0  0  0  0  0  0  0  0  0  0
   -3.2274    3.1069   -1.4871 C   0  0  0  0  0  0  0  0  0  0  0  0
   -2.4092    2.6160   -2.5008 C   0  0  0  0  0  0  0  0  0  0  0  0
   -1.2156    1.9783   -2.1744 C   0  0  0  0  0  0  0  0  0  0  0  0
   -0.4477    1.5150   -3.1705 F   0  0  0  0  0  0  0  0  0  0  0  0
    0.9836    1.2169    0.8390 N   0  0  0  0  0  0  0  0  0  0  0  0
    1.8206    2.3118    1.1357 C   0  0  0  0  0  0  0  0  0  0  0  0
    2.4460    2.9185    0.2637 O   0  0  0  0  0  0  0  0  0  0  0  0
    1.8552    2.8171    2.5290 C   0  0  0  0  0  0  0  0  0  0  0  0
    2.8892    3.6138    3.0965 C   0  0  0  0  0  0  0  0  0  0  0  0
    2.4866    3.8815    4.3810 C   0  0  0  0  0  0  0  0  0  0  0  0
    1.2723    3.2823    4.5211 N   0  0  0  0  0  0  0  0  0  0  0  0
    0.8496    2.6554    3.4137 N   0  0  0  0  0  0  0  0  0  0  0  0
    0.7754    0.1218    1.7463 C   0  0  0  0  0  0  0  0  0  0  0  0
   -0.4281   -0.5969    1.7655 C   0  0  0  0  0  0  0  0  0  0  0  0
   -0.6089   -1.6801    2.6321 C   0  0  0  0  0  0  0  0  0  0  0  0
    0.4166   -2.0700    3.4874 C   0  0  0  0  0  0  0  0  0  0  0  0
    1.6231   -1.3775    3.4757 C   0  0  0  0  0  0  0  0  0  0  0  0
    1.8012   -0.2927    2.6113 C   0  0  0  0  0  0  0  0  0  0  0  0
   -0.9549   -4.0009   -4.4070 H   0  0  0  0  0  0  0  0  0  0  0  0
    0.6715   -4.3915   -3.8012 H   0  0  0  0  0  0  0  0  0  0  0  0
    0.4750   -3.4486   -5.2811 H   0  0  0  0  0  0  0  0  0  0  0  0
    1.1204   -1.9573   -3.4710 H   0  0  0  0  0  0  0  0  0  0  0  0
   -0.4828   -1.5633   -4.0482 H   0  0  0  0  0  0  0  0  0  0  0  0
   -2.3800   -2.7997   -1.0507 H   0  0  0  0  0  0  0  0  0  0  0  0
   -2.0596   -3.8749   -2.4141 H   0  0  0  0  0  0  0  0  0  0  0  0
   -2.5478   -2.1949   -2.6996 H   0  0  0  0  0  0  0  0  0  0  0  0
    1.3967   -3.2258   -1.2209 H   0  0  0  0  0  0  0  0  0  0  0  0
    0.1475   -4.4343   -1.5095 H   0  0  0  0  0  0  0  0  0  0  0  0
    0.0140   -3.3421   -0.1291 H   0  0  0  0  0  0  0  0  0  0  0  0
   -1.3197   -0.5550   -1.3984 H   0  0  0  0  0  0  0  0  0  0  0  0
    1.2293    1.6877   -1.1749 H   0  0  0  0  0  0  0  0  0  0  0  0
   -1.3599    2.2525    1.2149 H   0  0  0  0  0  0  0  0  0  0  0  0
   -3.4665    3.3628    0.6383 H   0  0  0  0  0  0  0  0  0  0  0  0
   -4.1574    3.6133   -1.7324 H   0  0  0  0  0  0  0  0  0  0  0  0
   -2.6875    2.7320   -3.5434 H   0  0  0  0  0  0  0  0  0  0  0  0
    3.8004    3.9371    2.6117 H   0  0  0  0  0  0  0  0  0  0  0  0
    2.9421    4.4399    5.1849 H   0  0  0  0  0  0  0  0  0  0  0  0
    0.6705    3.2693    5.3383 H   0  0  0  0  0  0  0  0  0  0  0  0
   -1.2633   -0.3190    1.1324 H   0  0  0  0  0  0  0  0  0  0  0  0
   -1.5533   -2.2178    2.6360 H   0  0  0  0  0  0  0  0  0  0  0  0
    0.2789   -2.9147    4.1567 H   0  0  0  0  0  0  0  0  0  0  0  0
    2.4347   -1.6855    4.1298 H   0  0  0  0  0  0  0  0  0  0  0  0
    2.7724    0.1952    2.6035 H   0  0  0  0  0  0  0  0  0  0  0  0
  1  2  1  0
  2  3  1  0
  3  4  1  0
  3  5  1  0
  3  6  1  0
  6  7  1  0
  7  8  2  0
  7  9  1  0
  9 10  1  0
 10 11  2  0
 11 12  1  0
 12 13  2  0
 13 14  1  0
 14 15  2  0
 15 16  1  0
  9 17  1  0
 17 18  1  0
 18 19  2  0
 18 20  1  0
 20 21  1  0
 21 22  2  0
 22 23  1  0
 23 24  1  0
 17 25  1  0
 25 26  2  0
 26 27  1  0
 27 28  2  0
 28 29  1  0
 29 30  2  0
 15 10  1  0
 24 20  2  0
 30 25  1  0
  1 31  1  0
  1 32  1  0
  1 33  1  0
  2 34  1  0
  2 35  1  0
  4 36  1  0
  4 37  1  0
  4 38  1  0
  5 39  1  0
  5 40  1  0
  5 41  1  0
  6 42  1  0
  9 43  1  0
 11 44  1  0
 12 45  1  0
 13 46  1  0
 14 47  1  0
 21 48  1  0
 22 49  1  0
 23 50  1  0
 26 51  1  0
 27 52  1  0
 28 53  1  0
 29 54  1  0
 30 55  1  0
M  END
$$$$
