
     RDKit          3D

 37 39  0  0  0  0  0  0  0  0999 V2000
    4.4058   -1.6636    2.1745 C   0  0  0  0  0  0  0  0  0  0  0  0
    3.1902   -1.0438    1.5543 C   0  0  0  0  0  0  0  0  0  0  0  0
    1.9484   -1.1368    2.1768 C   0  0  0  0  0  0  0  0  0  0  0  0
    0.8180   -0.5336    1.6100 C   0  0  0  0  0  0  0  0  0  0  0  0
    0.8920    0.2030    0.4184 C   0  0  0  0  0  0  0  0  0  0  0  0
    2.1569    0.3070   -0.2007 C   0  0  0  0  0  0  0  0  0  0  0  0
    3.2866   -0.3151    0.3684 C   0  0  0  0  0  0  0  0  0  0  0  0
    2.3502    1.0399   -1.5005 C   0  0  0  0  0  0  0  0  0  0  0  0
    1.2519    2.0586   -1.7093 C   0  0  0  0  0  0  0  0  0  0  0  0
   -0.0960    1.3843   -1.5300 C   0  0  0  0  0  0  0  0  0  0  0  0
   -0.2739    0.7974   -0.1971 N   0  0  0  0  0  0  0  0  0  0  0  0
   -1.5384    0.8073    0.4281 C   0  0  0  0  0  0  0  0  0  0  0  0
   -1.7021    0.7608    1.6503 O   0  0  0  0  0  0  0  0  0  0  0  0
   -2.7817    0.8303   -0.5114 C   0  0  0  0  0  0  0  0  0  0  0  0
   -2.9102   -0.4775   -1.2795 C   0  0  0  0  0  0  0  0  0  0  0  0
   -3.7222   -1.3242   -0.3294 C   0  0  0  0  0  0  0  0  0  0  0  0
   -4.6590   -0.3110    0.2895 C   0  0  0  0  0  0  0  0  0  0  0  0
   -4.0184    0.9679    0.2083 O   0  0  0  0  0  0  0  0  0  0  0  0
    4.1397   -2.5570    2.7492 H   0  0  0  0  0  0  0  0  0  0  0  0
    5.1213   -1.9740    1.4057 H   0  0  0  0  0  0  0  0  0  0  0  0
    4.8926   -0.9460    2.8422 H   0  0  0  0  0  0  0  0  0  0  0  0
    1.8383   -1.6856    3.1097 H   0  0  0  0  0  0  0  0  0  0  0  0
   -0.1183   -0.6796    2.1388 H   0  0  0  0  0  0  0  0  0  0  0  0
    4.2534   -0.2251   -0.1246 H   0  0  0  0  0  0  0  0  0  0  0  0
    2.3519    0.3093   -2.3186 H   0  0  0  0  0  0  0  0  0  0  0  0
    3.3181    1.5551   -1.5095 H   0  0  0  0  0  0  0  0  0  0  0  0
    1.3552    2.8786   -0.9868 H   0  0  0  0  0  0  0  0  0  0  0  0
    1.3293    2.4948   -2.7113 H   0  0  0  0  0  0  0  0  0  0  0  0
   -0.8583    2.1464   -1.7067 H   0  0  0  0  0  0  0  0  0  0  0  0
   -0.2392    0.5886   -2.2704 H   0  0  0  0  0  0  0  0  0  0  0  0
   -2.7243    1.6920   -1.1777 H   0  0  0  0  0  0  0  0  0  0  0  0
   -1.9626   -0.9499   -1.5495 H   0  0  0  0  0  0  0  0  0  0  0  0
   -3.4846   -0.3109   -2.1988 H   0  0  0  0  0  0  0  0  0  0  0  0
   -4.2495   -2.1482   -0.8175 H   0  0  0  0  0  0  0  0  0  0  0  0
   -3.0706   -1.7513    0.4420 H   0  0  0  0  0  0  0  0  0  0  0  0
   -5.5981   -0.2476   -0.2699 H   0  0  0  0  0  0  0  0  0  0  0  0
   -4.8923   -0.5409    1.3330 H   0  0  0  0  0  0  0  0  0  0  0  0
  1  2  1  0
  2  3  2  0
  3  4  1  0
  4  5  2  0
  5  6  1  0
  6  7  2  0
  6  8  1  0
  8  9  1  0
  9 10  1  0
 10 11  1  0
 11 12  1  0
 12 13  2  0
 12 14  1  0
 14 15  1  0
 15 16  1  0
 16 17  1  0
 17 18  1  0
  7  2  1  0
 18 14  1  0
 11  5  1  0
  1 19  1  0
  1 20  1  0
  1 21  1  0
  3 22  1  0
  4 23  1  0
  7 24  1  0
  8 25  1  0
  8 26  1  0
  9 27  1  0
  9 28  1  0
 10 29  1  0
 10 30  1  0
 14 31  1  0
 15 32  1  0
 15 33  1  0
 16 34  1  0
 16 35  1  0
 17 36  1  0
 17 37  1  0
M  END
$$$$
