
     RDKit          3D

 60 61  0  0  0  0  0  0  0  0999 V2000
   -0.4280    0.9056   -3.8390 C   0  0  0  0  0  0  0  0  0  0  0  0
   -0.8169    0.9709   -2.4721 O   0  0  0  0  0  0  0  0  0  0  0  0
    0.1566    0.8068   -1.5199 C   0  0  0  0  0  0  0  0  0  0  0  0
    1.5038    0.5621   -1.8077 C   0  0  0  0  0  0  0  0  0  0  0  0
    2.4350    0.4071   -0.7770 C   0  0  0  0  0  0  0  0  0  0  0  0
    2.0315    0.5102    0.5577 C   0  0  0  0  0  0  0  0  0  0  0  0
    3.0066    0.3631    1.6678 C   0  0  0  0  0  0  0  0  0  0  0  0
    2.6348   -0.1313    2.7317 O   0  0  0  0  0  0  0  0  0  0  0  0
    4.4131    0.8198    1.5273 C   0  0  0  0  0  0  0  0  0  0  0  0
    4.7670    1.9213    0.8472 C   0  0  0  0  0  0  0  0  0  0  0  0
    6.1501    2.4056    0.7342 C   0  0  0  0  0  0  0  0  0  0  0  0
    6.5528    3.0200   -0.4612 C   0  0  0  0  0  0  0  0  0  0  0  0
    7.8483    3.5244   -0.6039 C   0  0  0  0  0  0  0  0  0  0  0  0
    8.7411    3.4234    0.4571 C   0  0  0  0  0  0  0  0  0  0  0  0
   10.0116    3.9076    0.3655 O   0  0  0  0  0  0  0  0  0  0  0  0
    8.3584    2.8313    1.6536 C   0  0  0  0  0  0  0  0  0  0  0  0
    7.0632    2.3276    1.7953 C   0  0  0  0  0  0  0  0  0  0  0  0
    0.6739    0.7158    0.8513 C   0  0  0  0  0  0  0  0  0  0  0  0
    0.2296    0.7662    2.1508 O   0  0  0  0  0  0  0  0  0  0  0  0
   -0.2730    0.8848   -0.1766 C   0  0  0  0  0  0  0  0  0  0  0  0
   -1.7383    1.0983    0.1560 C   0  0  0  0  0  0  0  0  0  0  0  0
   -2.5279   -0.1854    0.1154 C   0  0  0  0  0  0  0  0  0  0  0  0
   -3.1148   -0.8476    1.1335 C   0  0  0  0  0  0  0  0  0  0  0  0
   -3.0636   -0.4274    2.5776 C   0  0  0  0  0  0  0  0  0  0  0  0
   -3.8558   -2.1458    0.8671 C   0  0  0  0  0  0  0  0  0  0  0  0
   -5.3782   -1.9710    0.8946 C   0  0  0  0  0  0  0  0  0  0  0  0
   -6.0838   -3.2683    0.6013 C   0  0  0  0  0  0  0  0  0  0  0  0
   -6.6521   -3.6500   -0.5595 C   0  0  0  0  0  0  0  0  0  0  0  0
   -6.6484   -2.8434   -1.8290 C   0  0  0  0  0  0  0  0  0  0  0  0
   -7.3461   -4.9821   -0.6728 C   0  0  0  0  0  0  0  0  0  0  0  0
    0.2827    1.7025   -4.0853 H   0  0  0  0  0  0  0  0  0  0  0  0
   -0.0220   -0.0812   -4.0886 H   0  0  0  0  0  0  0  0  0  0  0  0
   -1.3236    1.0591   -4.4489 H   0  0  0  0  0  0  0  0  0  0  0  0
    1.8628    0.4771   -2.8283 H   0  0  0  0  0  0  0  0  0  0  0  0
    3.4686    0.1917   -1.0362 H   0  0  0  0  0  0  0  0  0  0  0  0
    5.1286    0.2305    2.0921 H   0  0  0  0  0  0  0  0  0  0  0  0
    4.0232    2.5272    0.3348 H   0  0  0  0  0  0  0  0  0  0  0  0
    5.8606    3.1090   -1.2966 H   0  0  0  0  0  0  0  0  0  0  0  0
    8.1363    3.9917   -1.5407 H   0  0  0  0  0  0  0  0  0  0  0  0
   10.1288    4.3125   -0.5095 H   0  0  0  0  0  0  0  0  0  0  0  0
    9.0626    2.7693    2.4793 H   0  0  0  0  0  0  0  0  0  0  0  0
    6.7781    1.8911    2.7498 H   0  0  0  0  0  0  0  0  0  0  0  0
    0.9243    0.3784    2.7288 H   0  0  0  0  0  0  0  0  0  0  0  0
   -2.1790    1.7982   -0.5659 H   0  0  0  0  0  0  0  0  0  0  0  0
   -1.8372    1.6208    1.1120 H   0  0  0  0  0  0  0  0  0  0  0  0
   -2.6259   -0.5974   -0.8893 H   0  0  0  0  0  0  0  0  0  0  0  0
   -2.5745   -1.2048    3.1761 H   0  0  0  0  0  0  0  0  0  0  0  0
   -4.0752   -0.2781    2.9689 H   0  0  0  0  0  0  0  0  0  0  0  0
   -2.5152    0.5026    2.7448 H   0  0  0  0  0  0  0  0  0  0  0  0
   -3.5452   -2.8948    1.6076 H   0  0  0  0  0  0  0  0  0  0  0  0
   -3.5578   -2.5550   -0.1079 H   0  0  0  0  0  0  0  0  0  0  0  0
   -5.7037   -1.6318    1.8859 H   0  0  0  0  0  0  0  0  0  0  0  0
   -5.6831   -1.1817    0.1995 H   0  0  0  0  0  0  0  0  0  0  0  0
   -6.1307   -3.9485    1.4517 H   0  0  0  0  0  0  0  0  0  0  0  0
   -7.6707   -2.5598   -2.0985 H   0  0  0  0  0  0  0  0  0  0  0  0
   -6.2276   -3.4367   -2.6478 H   0  0  0  0  0  0  0  0  0  0  0  0
   -6.0528   -1.9296   -1.7622 H   0  0  0  0  0  0  0  0  0  0  0  0
   -8.3929   -4.8408   -0.9613 H   0  0  0  0  0  0  0  0  0  0  0  0
   -7.3346   -5.5387    0.2707 H   0  0  0  0  0  0  0  0  0  0  0  0
   -6.8555   -5.6026   -1.4303 H   0  0  0  0  0  0  0  0  0  0  0  0
  1  2  1  0
  2  3  1  0
  3  4  2  0
  4  5  1  0
  5  6  2  0
  6  7  1  0
  7  8  2  0
  7  9  1  0
  9 10  2  3
 10 11  1  0
 11 12  2  0
 12 13  1  0
 13 14  2  0
 14 15  1  0
 14 16  1  0
 16 17  2  0
  6 18  1  0
 18 19  1  0
 18 20  2  0
 20 21  1  0
 21 22  1  0
 22 23  2  3
 23 24  1  0
 23 25  1  0
 25 26  1  0
 26 27  1  0
 27 28  2  3
 28 29  1  0
 28 30  1  0
 20  3  1  0
 17 11  1  0
  1 31  1  0
  1 32  1  0
  1 33  1  0
  4 34  1  0
  5 35  1  0
  9 36  1  0
 10 37  1  0
 12 38  1  0
 13 39  1  0
 15 40  1  0
 16 41  1  0
 17 42  1  0
 19 43  1  0
 21 44  1  0
 21 45  1  0
 22 46  1  0
 24 47  1  0
 24 48  1  0
 24 49  1  0
 25 50  1  0
 25 51  1  0
 26 52  1  0
 26 53  1  0
 27 54  1  0
 29 55  1  0
 29 56  1  0
 29 57  1  0
 30 58  1  0
 30 59  1  0
 30 60  1  0
M  END
$$$$
