
     RDKit          3D

 51 53  0  0  0  0  0  0  0  0999 V2000
   -0.7727    3.3514   -0.9040 C   0  0  0  0  0  0  0  0  0  0  0  0
   -1.8963    2.4927   -1.0436 O   0  0  0  0  0  0  0  0  0  0  0  0
   -1.5069    1.1788   -1.4388 C   0  0  0  0  0  0  0  0  0  0  0  0
   -2.7691    0.3267   -1.5214 C   0  0  0  0  0  0  0  0  0  0  0  0
   -2.5041   -1.0972   -2.0099 C   0  0  0  0  0  0  0  0  0  0  0  0
   -1.7209   -1.8978   -1.0943 N   0  0  0  0  0  0  0  0  0  0  0  0
   -0.3998   -2.2506   -1.2186 C   0  0  0  0  0  0  0  0  0  0  0  0
    0.5762   -1.9229   -2.6068 S   0  0  0  0  0  0  0  0  0  0  0  0
    2.1845   -2.5537   -2.0551 C   0  0  0  0  0  0  0  0  0  0  0  0
    2.7983   -1.7780   -0.9108 C   0  0  0  0  0  0  0  0  0  0  0  0
    3.5608   -2.2852   -0.0944 O   0  0  0  0  0  0  0  0  0  0  0  0
    2.5017   -0.4462   -0.9608 O   0  0  0  0  0  0  0  0  0  0  0  0
    3.0549    0.3631    0.0921 C   0  0  0  0  0  0  0  0  0  0  0  0
    2.1046    0.3559    1.2959 C   0  0  0  0  0  0  0  0  0  0  0  0
    2.1737    1.6335    2.1376 C   0  0  0  0  0  0  0  0  0  0  0  0
    3.5243    2.3315    2.0375 C   0  0  0  0  0  0  0  0  0  0  0  0
    3.8911    2.6886    0.5939 C   0  0  0  0  0  0  0  0  0  0  0  0
    3.2396    1.7791   -0.4460 C   0  0  0  0  0  0  0  0  0  0  0  0
    0.0133   -2.8418   -0.1242 N   0  0  0  0  0  0  0  0  0  0  0  0
   -1.0522   -2.9208    0.7310 N   0  0  0  0  0  0  0  0  0  0  0  0
   -2.1057   -2.3912    0.1371 C   0  0  0  0  0  0  0  0  0  0  0  0
   -3.3900   -2.3253    0.7723 C   0  0  0  0  0  0  0  0  0  0  0  0
   -3.6054   -2.0449    2.1126 C   0  0  0  0  0  0  0  0  0  0  0  0
   -4.9869   -2.0895    2.4662 C   0  0  0  0  0  0  0  0  0  0  0  0
   -5.7792   -2.4343    1.3950 C   0  0  0  0  0  0  0  0  0  0  0  0
   -4.8592   -2.6952   -0.0213 S   0  0  0  0  0  0  0  0  0  0  0  0
   -1.1280    4.3439   -0.6148 H   0  0  0  0  0  0  0  0  0  0  0  0
   -0.1069    2.9831   -0.1202 H   0  0  0  0  0  0  0  0  0  0  0  0
   -0.2314    3.4355   -1.8515 H   0  0  0  0  0  0  0  0  0  0  0  0
   -1.0137    1.2222   -2.4172 H   0  0  0  0  0  0  0  0  0  0  0  0
   -0.8096    0.7715   -0.7008 H   0  0  0  0  0  0  0  0  0  0  0  0
   -3.4778    0.8126   -2.2047 H   0  0  0  0  0  0  0  0  0  0  0  0
   -3.2654    0.3240   -0.5439 H   0  0  0  0  0  0  0  0  0  0  0  0
   -3.4511   -1.6200   -2.1882 H   0  0  0  0  0  0  0  0  0  0  0  0
   -2.0062   -1.0688   -2.9835 H   0  0  0  0  0  0  0  0  0  0  0  0
    2.0731   -3.5994   -1.7522 H   0  0  0  0  0  0  0  0  0  0  0  0
    2.8754   -2.5084   -2.9029 H   0  0  0  0  0  0  0  0  0  0  0  0
    4.0435   -0.0162    0.3859 H   0  0  0  0  0  0  0  0  0  0  0  0
    2.3439   -0.5118    1.9233 H   0  0  0  0  0  0  0  0  0  0  0  0
    1.0679    0.2008    0.9728 H   0  0  0  0  0  0  0  0  0  0  0  0
    1.9461    1.3980    3.1841 H   0  0  0  0  0  0  0  0  0  0  0  0
    1.3925    2.3286    1.8022 H   0  0  0  0  0  0  0  0  0  0  0  0
    4.2980    1.6811    2.4605 H   0  0  0  0  0  0  0  0  0  0  0  0
    3.5184    3.2420    2.6428 H   0  0  0  0  0  0  0  0  0  0  0  0
    4.9824    2.6448    0.4904 H   0  0  0  0  0  0  0  0  0  0  0  0
    3.6070    3.7268    0.3833 H   0  0  0  0  0  0  0  0  0  0  0  0
    2.2643    2.1923   -0.7347 H   0  0  0  0  0  0  0  0  0  0  0  0
    3.8346    1.7689   -1.3680 H   0  0  0  0  0  0  0  0  0  0  0  0
   -2.8020   -1.8199    2.8074 H   0  0  0  0  0  0  0  0  0  0  0  0
   -5.3737   -1.8962    3.4596 H   0  0  0  0  0  0  0  0  0  0  0  0
   -6.8558   -2.5619    1.3787 H   0  0  0  0  0  0  0  0  0  0  0  0
  1  2  1  0
  2  3  1  0
  3  4  1  0
  4  5  1  0
  5  6  1  0
  6  7  1  0
  7  8  1  0
  8  9  1  0
  9 10  1  0
 10 11  2  0
 10 12  1  0
 12 13  1  0
 13 14  1  0
 14 15  1  0
 15 16  1  0
 16 17  1  0
 17 18  1  0
  7 19  2  0
 19 20  1  0
 20 21  2  0
 21 22  1  0
 22 23  2  0
 23 24  1  0
 24 25  2  0
 25 26  1  0
 21  6  1  0
 26 22  1  0
 18 13  1  0
  1 27  1  0
  1 28  1  0
  1 29  1  0
  3 30  1  0
  3 31  1  0
  4 32  1  0
  4 33  1  0
  5 34  1  0
  5 35  1  0
  9 36  1  0
  9 37  1  0
 13 38  1  0
 14 39  1  0
 14 40  1  0
 15 41  1  0
 15 42  1  0
 16 43  1  0
 16 44  1  0
 17 45  1  0
 17 46  1  0
 18 47  1  0
 18 48  1  0
 23 49  1  0
 24 50  1  0
 25 51  1  0
M  END
$$$$
