
     RDKit          3D

 50 52  0  0  0  0  0  0  0  0999 V2000
    1.7335    2.6893    0.8597 O   0  0  0  0  0  0  0  0  0  0  0  0
    2.1996    1.8034   -0.1671 C   0  0  0  0  0  0  0  0  0  0  0  0
    3.7106    1.6073    0.0312 C   0  0  0  0  0  0  0  0  0  0  0  0
    4.2638    0.8668   -1.0531 O   0  0  0  0  0  0  0  0  0  0  0  0
    5.6705    0.6735   -0.8948 C   0  0  0  0  0  0  0  0  0  0  0  0
    6.1514   -0.1183   -2.0705 C   0  0  0  0  0  0  0  0  0  0  0  0
    5.4664   -1.0332   -2.8489 C   0  0  0  0  0  0  0  0  0  0  0  0
    6.2796   -1.5962   -3.8743 C   0  0  0  0  0  0  0  0  0  0  0  0
    7.5624   -1.0988   -3.8441 C   0  0  0  0  0  0  0  0  0  0  0  0
    7.7803    0.0400   -2.5877 S   0  0  0  0  0  0  0  0  0  0  0  0
    1.4506    0.4467   -0.1027 C   0  0  0  0  0  0  0  0  0  0  0  0
    0.0455    0.4933   -0.5701 N   0  0  0  0  0  0  0  0  0  0  0  0
   -0.5346   -0.8643   -0.6791 C   0  0  0  0  0  0  0  0  0  0  0  0
   -1.4342   -1.3127    0.4970 C   0  0  0  0  0  0  0  0  0  0  0  0
   -2.5406   -0.3656    0.7105 N   0  0  0  0  0  0  0  0  0  0  0  0
   -3.7386   -0.7604    1.2778 C   0  0  0  0  0  0  0  0  0  0  0  0
   -3.8418   -1.9238    2.0569 C   0  0  0  0  0  0  0  0  0  0  0  0
   -5.0490   -2.3269    2.6383 C   0  0  0  0  0  0  0  0  0  0  0  0
   -6.1997   -1.5703    2.4511 C   0  0  0  0  0  0  0  0  0  0  0  0
   -6.1487   -0.4086    1.6762 C   0  0  0  0  0  0  0  0  0  0  0  0
   -7.3761    0.4402    1.4685 C   0  0  0  0  0  0  0  0  0  0  0  0
   -8.5422   -0.2299    1.6924 F   0  0  0  0  0  0  0  0  0  0  0  0
   -7.4736    0.9357    0.2031 F   0  0  0  0  0  0  0  0  0  0  0  0
   -7.4049    1.5223    2.2951 F   0  0  0  0  0  0  0  0  0  0  0  0
   -4.9189   -0.0181    1.1090 C   0  0  0  0  0  0  0  0  0  0  0  0
   -2.3064    1.0164    0.2570 C   0  0  0  0  0  0  0  0  0  0  0  0
   -0.7971    1.3574    0.2882 C   0  0  0  0  0  0  0  0  0  0  0  0
    1.9386    3.5929    0.5631 H   0  0  0  0  0  0  0  0  0  0  0  0
    2.0122    2.2663   -1.1444 H   0  0  0  0  0  0  0  0  0  0  0  0
    3.9005    1.0872    0.9790 H   0  0  0  0  0  0  0  0  0  0  0  0
    4.1995    2.5880    0.0924 H   0  0  0  0  0  0  0  0  0  0  0  0
    6.1663    1.6504   -0.8458 H   0  0  0  0  0  0  0  0  0  0  0  0
    5.8658    0.1168    0.0296 H   0  0  0  0  0  0  0  0  0  0  0  0
    4.4222   -1.2798   -2.6894 H   0  0  0  0  0  0  0  0  0  0  0  0
    5.9404   -2.3282   -4.5957 H   0  0  0  0  0  0  0  0  0  0  0  0
    8.3857   -1.3484   -4.4999 H   0  0  0  0  0  0  0  0  0  0  0  0
    1.4880    0.0516    0.9212 H   0  0  0  0  0  0  0  0  0  0  0  0
    1.9893   -0.2587   -0.7470 H   0  0  0  0  0  0  0  0  0  0  0  0
    0.2417   -1.6204   -0.8509 H   0  0  0  0  0  0  0  0  0  0  0  0
   -1.1482   -0.8688   -1.5900 H   0  0  0  0  0  0  0  0  0  0  0  0
   -1.8191   -2.3085    0.2478 H   0  0  0  0  0  0  0  0  0  0  0  0
   -0.8389   -1.3953    1.4137 H   0  0  0  0  0  0  0  0  0  0  0  0
   -2.9645   -2.5353    2.2518 H   0  0  0  0  0  0  0  0  0  0  0  0
   -5.0815   -3.2300    3.2429 H   0  0  0  0  0  0  0  0  0  0  0  0
   -7.1335   -1.8897    2.9099 H   0  0  0  0  0  0  0  0  0  0  0  0
   -4.9079    0.8832    0.4991 H   0  0  0  0  0  0  0  0  0  0  0  0
   -2.8144    1.7326    0.9143 H   0  0  0  0  0  0  0  0  0  0  0  0
   -2.7016    1.1441   -0.7581 H   0  0  0  0  0  0  0  0  0  0  0  0
   -0.4726    1.2866    1.3351 H   0  0  0  0  0  0  0  0  0  0  0  0
   -0.6760    2.3984   -0.0304 H   0  0  0  0  0  0  0  0  0  0  0  0
  1  2  1  0
  2  3  1  0
  3  4  1  0
  4  5  1  0
  5  6  1  0
  6  7  2  0
  7  8  1  0
  8  9  2  0
  9 10  1  0
  2 11  1  0
 11 12  1  0
 12 13  1  0
 13 14  1  0
 14 15  1  0
 15 16  1  0
 16 17  2  0
 17 18  1  0
 18 19  2  0
 19 20  1  0
 20 21  1  0
 21 22  1  0
 21 23  1  0
 21 24  1  0
 20 25  2  0
 15 26  1  0
 26 27  1  0
 10  6  1  0
 27 12  1  0
 25 16  1  0
  1 28  1  0
  2 29  1  0
  3 30  1  0
  3 31  1  0
  5 32  1  0
  5 33  1  0
  7 34  1  0
  8 35  1  0
  9 36  1  0
 11 37  1  0
 11 38  1  0
 13 39  1  0
 13 40  1  0
 14 41  1  0
 14 42  1  0
 17 43  1  0
 18 44  1  0
 19 45  1  0
 25 46  1  0
 26 47  1  0
 26 48  1  0
 27 49  1  0
 27 50  1  0
M  END
$$$$
