
     RDKit          3D

 46 48  0  0  0  0  0  0  0  0999 V2000
    3.1795   -2.1852   -2.1357 C   0  0  0  0  0  0  0  0  0  0  0  0
    4.1145   -1.9694   -1.0854 O   0  0  0  0  0  0  0  0  0  0  0  0
    5.1546   -1.0554   -1.4371 C   0  0  0  0  0  0  0  0  0  0  0  0
    4.7271    0.4138   -1.2927 C   0  0  0  0  0  0  0  0  0  0  0  0
    4.2340    0.7189    0.0545 N   0  0  0  0  0  0  0  0  0  0  0  0
    2.8665    0.6660    0.2870 C   0  0  0  0  0  0  0  0  0  0  0  0
    2.0114    0.4974   -0.5706 O   0  0  0  0  0  0  0  0  0  0  0  0
    2.5813    0.8863    1.7341 C   0  0  0  0  0  0  0  0  0  0  0  0
    1.3940    0.8601    2.3555 C   0  0  0  0  0  0  0  0  0  0  0  0
    0.0972    0.5825    1.7287 C   0  0  0  0  0  0  0  0  0  0  0  0
   -0.2305   -0.7349    1.4017 C   0  0  0  0  0  0  0  0  0  0  0  0
   -1.4720   -1.0406    0.8298 C   0  0  0  0  0  0  0  0  0  0  0  0
   -2.4313   -0.0553    0.5625 C   0  0  0  0  0  0  0  0  0  0  0  0
   -3.6515   -0.3600    0.0056 N   0  0  0  0  0  0  0  0  0  0  0  0
   -4.6072    0.6361   -0.4729 C   0  0  0  0  0  0  0  0  0  0  0  0
   -5.5896   -0.1698   -1.3199 C   0  0  0  0  0  0  0  0  0  0  0  0
   -5.5746   -1.5367   -0.6592 C   0  0  0  0  0  0  0  0  0  0  0  0
   -4.1068   -1.7175   -0.2821 C   0  0  0  0  0  0  0  0  0  0  0  0
   -2.0790    1.2616    0.9045 C   0  0  0  0  0  0  0  0  0  0  0  0
   -0.8361    1.5988    1.4810 C   0  0  0  0  0  0  0  0  0  0  0  0
   -0.5444    3.0372    1.8104 C   0  0  0  0  0  0  0  0  0  0  0  0
    4.0532    1.2046    2.5767 S   0  0  0  0  0  0  0  0  0  0  0  0
    5.0388    0.9968    1.1372 C   0  0  0  0  0  0  0  0  0  0  0  0
    6.7007    1.1509    1.1753 S   0  0  0  0  0  0  0  0  0  0  0  0
    3.6734   -2.6660   -2.9855 H   0  0  0  0  0  0  0  0  0  0  0  0
    2.7136   -1.2508   -2.4573 H   0  0  0  0  0  0  0  0  0  0  0  0
    2.3979   -2.8539   -1.7653 H   0  0  0  0  0  0  0  0  0  0  0  0
    5.9895   -1.2661   -0.7618 H   0  0  0  0  0  0  0  0  0  0  0  0
    5.5097   -1.2554   -2.4549 H   0  0  0  0  0  0  0  0  0  0  0  0
    5.5760    1.0648   -1.5255 H   0  0  0  0  0  0  0  0  0  0  0  0
    3.9410    0.6437   -2.0194 H   0  0  0  0  0  0  0  0  0  0  0  0
    1.3302    1.0542    3.4242 H   0  0  0  0  0  0  0  0  0  0  0  0
    0.4763   -1.5417    1.5801 H   0  0  0  0  0  0  0  0  0  0  0  0
   -1.6659   -2.0807    0.5860 H   0  0  0  0  0  0  0  0  0  0  0  0
   -5.1219    1.0999    0.3762 H   0  0  0  0  0  0  0  0  0  0  0  0
   -4.1384    1.4154   -1.0835 H   0  0  0  0  0  0  0  0  0  0  0  0
   -5.2204   -0.2492   -2.3497 H   0  0  0  0  0  0  0  0  0  0  0  0
   -6.5858    0.2804   -1.3475 H   0  0  0  0  0  0  0  0  0  0  0  0
   -6.1968   -1.5221    0.2439 H   0  0  0  0  0  0  0  0  0  0  0  0
   -5.9397   -2.3320   -1.3149 H   0  0  0  0  0  0  0  0  0  0  0  0
   -4.0174   -2.3844    0.5820 H   0  0  0  0  0  0  0  0  0  0  0  0
   -3.5436   -2.1349   -1.1247 H   0  0  0  0  0  0  0  0  0  0  0  0
   -2.7910    2.0640    0.7296 H   0  0  0  0  0  0  0  0  0  0  0  0
   -0.3692    3.1541    2.8847 H   0  0  0  0  0  0  0  0  0  0  0  0
    0.3338    3.3841    1.2563 H   0  0  0  0  0  0  0  0  0  0  0  0
   -1.3810    3.6905    1.5410 H   0  0  0  0  0  0  0  0  0  0  0  0
  1  2  1  0
  2  3  1  0
  3  4  1  0
  4  5  1  0
  5  6  1  0
  6  7  2  0
  6  8  1  0
  8  9  2  3
  9 10  1  0
 10 11  2  0
 11 12  1  0
 12 13  2  0
 13 14  1  0
 14 15  1  0
 15 16  1  0
 16 17  1  0
 17 18  1  0
 13 19  1  0
 19 20  2  0
 20 21  1  0
  8 22  1  0
 22 23  1  0
 23 24  2  0
 23  5  1  0
 20 10  1  0
 18 14  1  0
  1 25  1  0
  1 26  1  0
  1 27  1  0
  3 28  1  0
  3 29  1  0
  4 30  1  0
  4 31  1  0
  9 32  1  0
 11 33  1  0
 12 34  1  0
 15 35  1  0
 15 36  1  0
 16 37  1  0
 16 38  1  0
 17 39  1  0
 17 40  1  0
 18 41  1  0
 18 42  1  0
 19 43  1  0
 21 44  1  0
 21 45  1  0
 21 46  1  0
M  END
$$$$
