
     RDKit          3D

 50 52  0  0  0  0  0  0  0  0999 V2000
    5.3159   -2.0816   -4.1423 C   0  0  0  0  0  0  0  0  0  0  0  0
    4.8379   -1.5956   -2.8065 C   0  0  0  0  0  0  0  0  0  0  0  0
    4.8758   -0.2329   -2.4920 C   0  0  0  0  0  0  0  0  0  0  0  0
    4.4523    0.2163   -1.2384 C   0  0  0  0  0  0  0  0  0  0  0  0
    3.9844   -0.6894   -0.2828 C   0  0  0  0  0  0  0  0  0  0  0  0
    3.4645   -0.0735    1.3083 S   0  0  0  0  0  0  0  0  0  0  0  0
    1.7655   -0.7337    1.4036 C   0  0  0  0  0  0  0  0  0  0  0  0
    0.8918   -0.2454    0.2575 C   0  0  0  0  0  0  0  0  0  0  0  0
    0.6269   -1.0205   -0.6692 O   0  0  0  0  0  0  0  0  0  0  0  0
    0.3758    1.0507    0.2780 N   0  0  0  0  0  0  0  0  0  0  0  0
   -0.4993    1.4078   -0.8491 C   0  0  0  0  0  0  0  0  0  0  0  0
   -1.8879    0.9009   -0.6575 C   0  0  0  0  0  0  0  0  0  0  0  0
   -2.4731    0.3565    0.3877 N   0  0  0  0  0  0  0  0  0  0  0  0
   -3.7599    0.1460   -0.0619 C   0  0  0  0  0  0  0  0  0  0  0  0
   -4.7862   -0.4641    0.7775 C   0  0  0  0  0  0  0  0  0  0  0  0
   -4.4582   -0.9496    2.0530 C   0  0  0  0  0  0  0  0  0  0  0  0
   -5.4323   -1.5366    2.8651 C   0  0  0  0  0  0  0  0  0  0  0  0
   -6.7459   -1.6426    2.4117 C   0  0  0  0  0  0  0  0  0  0  0  0
   -7.0877   -1.1630    1.1480 C   0  0  0  0  0  0  0  0  0  0  0  0
   -6.1132   -0.5778    0.3343 C   0  0  0  0  0  0  0  0  0  0  0  0
   -3.9693    0.5674   -1.3207 N   0  0  0  0  0  0  0  0  0  0  0  0
   -2.7302    1.0610   -1.7182 O   0  0  0  0  0  0  0  0  0  0  0  0
    0.6402    2.0636    1.3244 C   0  0  0  0  0  0  0  0  0  0  0  0
   -0.6377    2.6077    1.9661 C   0  0  0  0  0  0  0  0  0  0  0  0
    1.5088    3.2044    0.7864 C   0  0  0  0  0  0  0  0  0  0  0  0
    3.9759   -2.0532   -0.5834 C   0  0  0  0  0  0  0  0  0  0  0  0
    4.4009   -2.5033   -1.8365 C   0  0  0  0  0  0  0  0  0  0  0  0
    5.0965   -1.3473   -4.9251 H   0  0  0  0  0  0  0  0  0  0  0  0
    6.3958   -2.2575   -4.1127 H   0  0  0  0  0  0  0  0  0  0  0  0
    4.8130   -3.0135   -4.4218 H   0  0  0  0  0  0  0  0  0  0  0  0
    5.2337    0.4887   -3.2219 H   0  0  0  0  0  0  0  0  0  0  0  0
    4.4895    1.2805   -1.0178 H   0  0  0  0  0  0  0  0  0  0  0  0
    1.7960   -1.8285    1.3785 H   0  0  0  0  0  0  0  0  0  0  0  0
    1.3113   -0.4722    2.3636 H   0  0  0  0  0  0  0  0  0  0  0  0
   -0.0846    0.9894   -1.7741 H   0  0  0  0  0  0  0  0  0  0  0  0
   -0.5186    2.4946   -0.9739 H   0  0  0  0  0  0  0  0  0  0  0  0
   -3.4369   -0.8756    2.4220 H   0  0  0  0  0  0  0  0  0  0  0  0
   -5.1637   -1.9120    3.8495 H   0  0  0  0  0  0  0  0  0  0  0  0
   -7.5041   -2.0998    3.0428 H   0  0  0  0  0  0  0  0  0  0  0  0
   -8.1121   -1.2451    0.7926 H   0  0  0  0  0  0  0  0  0  0  0  0
   -6.4009   -0.2111   -0.6494 H   0  0  0  0  0  0  0  0  0  0  0  0
    1.2055    1.5999    2.1338 H   0  0  0  0  0  0  0  0  0  0  0  0
   -1.2562    3.1574    1.2496 H   0  0  0  0  0  0  0  0  0  0  0  0
   -0.3948    3.2923    2.7859 H   0  0  0  0  0  0  0  0  0  0  0  0
   -1.2397    1.7930    2.3817 H   0  0  0  0  0  0  0  0  0  0  0  0
    1.8134    3.8722    1.5993 H   0  0  0  0  0  0  0  0  0  0  0  0
    2.4148    2.8193    0.3081 H   0  0  0  0  0  0  0  0  0  0  0  0
    0.9773    3.8095    0.0457 H   0  0  0  0  0  0  0  0  0  0  0  0
    3.6448   -2.7835    0.1495 H   0  0  0  0  0  0  0  0  0  0  0  0
    4.3840   -3.5699   -2.0491 H   0  0  0  0  0  0  0  0  0  0  0  0
  1  2  1  0
  2  3  2  0
  3  4  1  0
  4  5  2  0
  5  6  1  0
  6  7  1  0
  7  8  1  0
  8  9  2  0
  8 10  1  0
 10 11  1  0
 11 12  1  0
 12 13  2  0
 13 14  1  0
 14 15  1  0
 15 16  2  0
 16 17  1  0
 17 18  2  0
 18 19  1  0
 19 20  2  0
 14 21  2  0
 21 22  1  0
 10 23  1  0
 23 24  1  0
 23 25  1  0
  5 26  1  0
 26 27  2  0
 27  2  1  0
 22 12  1  0
 20 15  1  0
  1 28  1  0
  1 29  1  0
  1 30  1  0
  3 31  1  0
  4 32  1  0
  7 33  1  0
  7 34  1  0
 11 35  1  0
 11 36  1  0
 16 37  1  0
 17 38  1  0
 18 39  1  0
 19 40  1  0
 20 41  1  0
 23 42  1  0
 24 43  1  0
 24 44  1  0
 24 45  1  0
 25 46  1  0
 25 47  1  0
 25 48  1  0
 26 49  1  0
 27 50  1  0
M  END
$$$$
