
     RDKit          3D

 38 39  0  0  0  0  0  0  0  0999 V2000
    1.7074   -0.6338   -0.6069 O   0  0  0  0  0  0  0  0  0  0  0  0
    0.9321    0.0955   -1.2010 C   0  0  0  0  0  0  0  0  0  0  0  0
    1.2487    1.0321   -2.1467 N   0  0  0  0  0  0  0  0  0  0  0  0
    2.6158    1.3522   -2.5141 C   0  0  0  0  0  0  0  0  0  0  0  0
    2.8303    2.8649   -2.5176 C   0  0  0  0  0  0  0  0  0  0  0  0
    1.9580    3.4608   -3.4800 O   0  0  0  0  0  0  0  0  0  0  0  0
   -0.5542   -0.0123   -0.9143 C   0  0  0  0  0  0  0  0  0  0  0  0
   -1.2445   -1.1907   -1.5540 C   0  0  0  0  0  0  0  0  0  0  0  0
   -1.5167   -2.2923   -0.5587 C   0  0  0  0  0  0  0  0  0  0  0  0
   -2.7357   -2.3364    0.1341 C   0  0  0  0  0  0  0  0  0  0  0  0
   -2.9759   -3.3320    1.0836 C   0  0  0  0  0  0  0  0  0  0  0  0
   -1.9941   -4.2842    1.3484 C   0  0  0  0  0  0  0  0  0  0  0  0
   -2.3128   -5.6266    2.6403 Br  0  0  0  0  0  0  0  0  0  0  0  0
   -0.7752   -4.2503    0.6737 C   0  0  0  0  0  0  0  0  0  0  0  0
   -0.5366   -3.2544   -0.2760 C   0  0  0  0  0  0  0  0  0  0  0  0
   -1.2164    0.8158   -0.1602 N   0  0  0  0  0  0  0  0  0  0  0  0
   -0.5001    1.8269    0.4277 C   0  0  0  0  0  0  0  0  0  0  0  0
   -0.0605    2.7794   -0.2083 O   0  0  0  0  0  0  0  0  0  0  0  0
   -0.3479    1.6848    1.8713 C   0  0  0  0  0  0  0  0  0  0  0  0
    0.2688    2.5857    2.7244 C   0  0  0  0  0  0  0  0  0  0  0  0
    0.2693    2.1518    4.0820 C   0  0  0  0  0  0  0  0  0  0  0  0
   -0.3446    0.9289    4.2279 C   0  0  0  0  0  0  0  0  0  0  0  0
   -0.9182    0.3170    2.7389 S   0  0  0  0  0  0  0  0  0  0  0  0
    0.5313    1.6636   -2.4936 H   0  0  0  0  0  0  0  0  0  0  0  0
    2.7653    0.9465   -3.5202 H   0  0  0  0  0  0  0  0  0  0  0  0
    3.3182    0.8675   -1.8285 H   0  0  0  0  0  0  0  0  0  0  0  0
    2.6060    3.2937   -1.5349 H   0  0  0  0  0  0  0  0  0  0  0  0
    3.8625    3.1054   -2.7903 H   0  0  0  0  0  0  0  0  0  0  0  0
    2.0279    4.4248   -3.3574 H   0  0  0  0  0  0  0  0  0  0  0  0
   -0.6406   -1.5753   -2.3842 H   0  0  0  0  0  0  0  0  0  0  0  0
   -2.1869   -0.8451   -1.9947 H   0  0  0  0  0  0  0  0  0  0  0  0
   -3.5001   -1.5832   -0.0510 H   0  0  0  0  0  0  0  0  0  0  0  0
   -3.9237   -3.3491    1.6141 H   0  0  0  0  0  0  0  0  0  0  0  0
   -0.0040   -4.9871    0.8837 H   0  0  0  0  0  0  0  0  0  0  0  0
    0.4271   -3.2278   -0.7823 H   0  0  0  0  0  0  0  0  0  0  0  0
    0.7040    3.5171    2.3796 H   0  0  0  0  0  0  0  0  0  0  0  0
    0.7016    2.7051    4.9072 H   0  0  0  0  0  0  0  0  0  0  0  0
   -0.4854    0.3611    5.1381 H   0  0  0  0  0  0  0  0  0  0  0  0
  1  2  2  0
  2  3  1  0
  3  4  1  0
  4  5  1  0
  5  6  1  0
  2  7  1  0
  7  8  1  0
  8  9  1  0
  9 10  2  0
 10 11  1  0
 11 12  2  0
 12 13  1  0
 12 14  1  0
 14 15  2  0
  7 16  2  3
 16 17  1  0
 17 18  2  0
 17 19  1  0
 19 20  2  0
 20 21  1  0
 21 22  2  0
 22 23  1  0
 15  9  1  0
 23 19  1  0
  3 24  1  0
  4 25  1  0
  4 26  1  0
  5 27  1  0
  5 28  1  0
  6 29  1  0
  8 30  1  0
  8 31  1  0
 10 32  1  0
 11 33  1  0
 14 34  1  0
 15 35  1  0
 20 36  1  0
 21 37  1  0
 22 38  1  0
M  END
$$$$
