
     RDKit          3D

 49 51  0  0  0  0  0  0  0  0999 V2000
   -3.8866    2.8510   -1.0162 C   0  0  0  0  0  0  0  0  0  0  0  0
   -2.6672    1.9530   -0.8545 C   0  0  0  0  0  0  0  0  0  0  0  0
   -2.6772    1.1589    0.4688 C   0  0  0  0  0  0  0  0  0  0  0  0
   -2.4495    2.0439    1.6995 C   0  0  0  0  0  0  0  0  0  0  0  0
   -1.7390   -0.0009    0.4401 N   0  0  0  0  0  0  0  0  0  0  0  0
   -0.3648    0.2694    0.2325 C   0  0  0  0  0  0  0  0  0  0  0  0
    0.0641    1.4224    0.1895 O   0  0  0  0  0  0  0  0  0  0  0  0
    0.5701   -0.9139    0.0928 C   0  0  0  0  0  0  0  0  0  0  0  0
    1.8631   -0.5171   -0.4200 N   0  0  0  0  0  0  0  0  0  0  0  0
    2.0831   -0.4117   -1.7426 N   0  0  0  0  0  0  0  0  0  0  0  0
    3.3895   -0.2208   -1.8505 N   0  0  0  0  0  0  0  0  0  0  0  0
    3.9113   -0.2794   -0.5775 C   0  0  0  0  0  0  0  0  0  0  0  0
    5.3331   -0.1228   -0.2966 C   0  0  0  0  0  0  0  0  0  0  0  0
    6.2439    0.1022   -1.3426 C   0  0  0  0  0  0  0  0  0  0  0  0
    7.6081    0.2505   -1.0768 C   0  0  0  0  0  0  0  0  0  0  0  0
    8.0638    0.1754    0.2337 C   0  0  0  0  0  0  0  0  0  0  0  0
    9.3713    0.3164    0.4871 F   0  0  0  0  0  0  0  0  0  0  0  0
    7.1824   -0.0449    1.2847 C   0  0  0  0  0  0  0  0  0  0  0  0
    5.8182   -0.1936    1.0206 C   0  0  0  0  0  0  0  0  0  0  0  0
    2.9697   -0.5278    0.3515 N   0  0  0  0  0  0  0  0  0  0  0  0
   -2.2815   -1.3851    0.5111 C   0  0  0  0  0  0  0  0  0  0  0  0
   -2.7069   -1.9186   -0.8681 C   0  0  0  0  0  0  0  0  0  0  0  0
   -4.1767   -1.5876   -1.0614 C   0  0  0  0  0  0  0  0  0  0  0  0
   -4.9127   -1.8407    0.5381 S   0  0  0  0  0  6  0  0  0  0  0  0
   -5.8204   -0.7480    0.8132 O   0  0  0  0  0  0  0  0  0  0  0  0
   -5.3181   -3.2275    0.6353 O   0  0  0  0  0  0  0  0  0  0  0  0
   -3.4286   -1.6270    1.5038 C   0  0  0  0  0  0  0  0  0  0  0  0
   -3.9128    3.6334   -0.2523 H   0  0  0  0  0  0  0  0  0  0  0  0
   -4.8129    2.2713   -0.9524 H   0  0  0  0  0  0  0  0  0  0  0  0
   -3.8632    3.3417   -1.9946 H   0  0  0  0  0  0  0  0  0  0  0  0
   -2.6414    1.2538   -1.6990 H   0  0  0  0  0  0  0  0  0  0  0  0
   -1.7683    2.5731   -0.9364 H   0  0  0  0  0  0  0  0  0  0  0  0
   -3.6838    0.7537    0.5764 H   0  0  0  0  0  0  0  0  0  0  0  0
   -2.3917    1.4360    2.6086 H   0  0  0  0  0  0  0  0  0  0  0  0
   -3.2739    2.7523    1.8282 H   0  0  0  0  0  0  0  0  0  0  0  0
   -1.5261    2.6252    1.6299 H   0  0  0  0  0  0  0  0  0  0  0  0
    0.1716   -1.6508   -0.6103 H   0  0  0  0  0  0  0  0  0  0  0  0
    0.7219   -1.3767    1.0731 H   0  0  0  0  0  0  0  0  0  0  0  0
    5.8984    0.1654   -2.3730 H   0  0  0  0  0  0  0  0  0  0  0  0
    8.3142    0.4242   -1.8829 H   0  0  0  0  0  0  0  0  0  0  0  0
    7.5592   -0.1002    2.3008 H   0  0  0  0  0  0  0  0  0  0  0  0
    5.1344   -0.3641    1.8503 H   0  0  0  0  0  0  0  0  0  0  0  0
   -1.4564   -2.0107    0.8651 H   0  0  0  0  0  0  0  0  0  0  0  0
   -2.0995   -1.5196   -1.6868 H   0  0  0  0  0  0  0  0  0  0  0  0
   -2.5889   -3.0100   -0.8737 H   0  0  0  0  0  0  0  0  0  0  0  0
   -4.6597   -2.2384   -1.7936 H   0  0  0  0  0  0  0  0  0  0  0  0
   -4.3251   -0.5438   -1.3461 H   0  0  0  0  0  0  0  0  0  0  0  0
   -3.5670   -0.8245    2.2306 H   0  0  0  0  0  0  0  0  0  0  0  0
   -3.2716   -2.5675    2.0427 H   0  0  0  0  0  0  0  0  0  0  0  0
  1  2  1  0
  2  3  1  0
  3  4  1  0
  3  5  1  0
  5  6  1  0
  6  7  2  0
  6  8  1  0
  8  9  1  0
  9 10  1  0
 10 11  2  0
 11 12  1  0
 12 13  1  0
 13 14  2  0
 14 15  1  0
 15 16  2  0
 16 17  1  0
 16 18  1  0
 18 19  2  0
 12 20  2  0
  5 21  1  0
 21 22  1  0
 22 23  1  0
 23 24  1  0
 24 25  2  0
 24 26  2  0
 24 27  1  0
 20  9  1  0
 27 21  1  0
 19 13  1  0
  1 28  1  0
  1 29  1  0
  1 30  1  0
  2 31  1  0
  2 32  1  0
  3 33  1  0
  4 34  1  0
  4 35  1  0
  4 36  1  0
  8 37  1  0
  8 38  1  0
 14 39  1  0
 15 40  1  0
 18 41  1  0
 19 42  1  0
 21 43  1  0
 22 44  1  0
 22 45  1  0
 23 46  1  0
 23 47  1  0
 27 48  1  0
 27 49  1  0
M  END
$$$$
