
     RDKit          3D

 46 49  0  0  0  0  0  0  0  0999 V2000
    5.6690   -1.6581    2.5921 N   0  0  0  0  0  0  0  0  0  0  0  0
    5.8823   -0.3916    1.5009 S   0  0  0  0  0  6  0  0  0  0  0  0
    6.6786   -0.8824    0.4014 O   0  0  0  0  0  0  0  0  0  0  0  0
    6.2758    0.7471    2.2986 O   0  0  0  0  0  0  0  0  0  0  0  0
    4.2255   -0.1399    0.9294 C   0  0  0  0  0  0  0  0  0  0  0  0
    3.7535   -0.8756   -0.1560 C   0  0  0  0  0  0  0  0  0  0  0  0
    2.4408   -0.6827   -0.6036 C   0  0  0  0  0  0  0  0  0  0  0  0
    1.5783    0.2409    0.0113 C   0  0  0  0  0  0  0  0  0  0  0  0
    0.2658    0.4368   -0.4137 N   0  0  0  0  0  0  0  0  0  0  0  0
   -0.5379    1.3564    0.1976 N   0  0  0  0  0  0  0  0  0  0  0  0
   -1.6274    1.4432   -0.5043 C   0  0  0  0  0  0  0  0  0  0  0  0
   -2.7572    2.3302   -0.1410 C   0  0  0  0  0  0  0  0  0  0  0  0
   -3.8739    2.4716   -0.9726 C   0  0  0  0  0  0  0  0  0  0  0  0
   -4.9225    3.3162   -0.5979 C   0  0  0  0  0  0  0  0  0  0  0  0
   -4.8598    4.0209    0.6036 C   0  0  0  0  0  0  0  0  0  0  0  0
   -3.7490    3.8852    1.4341 C   0  0  0  0  0  0  0  0  0  0  0  0
   -2.6995    3.0426    1.0635 C   0  0  0  0  0  0  0  0  0  0  0  0
   -1.6527    0.5951   -1.7462 C   0  0  0  0  0  0  0  0  0  0  0  0
   -0.3899   -0.2418   -1.5335 C   0  0  0  0  0  0  0  0  0  0  0  0
   -0.7394   -1.6933   -1.2352 C   0  0  0  0  0  0  0  0  0  0  0  0
   -0.7016   -2.6410   -2.2726 C   0  0  0  0  0  0  0  0  0  0  0  0
   -1.0356   -3.9758   -2.0331 C   0  0  0  0  0  0  0  0  0  0  0  0
   -1.4179   -4.3823   -0.7558 C   0  0  0  0  0  0  0  0  0  0  0  0
   -1.4667   -3.4504    0.2779 C   0  0  0  0  0  0  0  0  0  0  0  0
   -1.9869   -3.9993    2.0106 Br  0  0  0  0  0  0  0  0  0  0  0  0
   -1.1359   -2.1156    0.0457 C   0  0  0  0  0  0  0  0  0  0  0  0
    2.0988    0.9758    1.0941 C   0  0  0  0  0  0  0  0  0  0  0  0
    3.4084    0.7985    1.5528 C   0  0  0  0  0  0  0  0  0  0  0  0
    4.7343   -2.0641    2.5530 H   0  0  0  0  0  0  0  0  0  0  0  0
    5.8970   -1.3231    3.5298 H   0  0  0  0  0  0  0  0  0  0  0  0
    4.3931   -1.5978   -0.6595 H   0  0  0  0  0  0  0  0  0  0  0  0
    2.1074   -1.2786   -1.4480 H   0  0  0  0  0  0  0  0  0  0  0  0
   -3.9515    1.9409   -1.9164 H   0  0  0  0  0  0  0  0  0  0  0  0
   -5.7900    3.4260   -1.2445 H   0  0  0  0  0  0  0  0  0  0  0  0
   -5.6768    4.6777    0.8928 H   0  0  0  0  0  0  0  0  0  0  0  0
   -3.6977    4.4349    2.3707 H   0  0  0  0  0  0  0  0  0  0  0  0
   -1.8376    2.9457    1.7207 H   0  0  0  0  0  0  0  0  0  0  0  0
   -1.5478    1.2487   -2.6188 H   0  0  0  0  0  0  0  0  0  0  0  0
   -2.5713    0.0078   -1.8270 H   0  0  0  0  0  0  0  0  0  0  0  0
    0.2368   -0.1859   -2.4327 H   0  0  0  0  0  0  0  0  0  0  0  0
   -0.4077   -2.3467   -3.2786 H   0  0  0  0  0  0  0  0  0  0  0  0
   -0.9977   -4.7002   -2.8432 H   0  0  0  0  0  0  0  0  0  0  0  0
   -1.6751   -5.4229   -0.5770 H   0  0  0  0  0  0  0  0  0  0  0  0
   -1.1760   -1.3991    0.8649 H   0  0  0  0  0  0  0  0  0  0  0  0
    1.4689    1.7102    1.5936 H   0  0  0  0  0  0  0  0  0  0  0  0
    3.7690    1.3955    2.3870 H   0  0  0  0  0  0  0  0  0  0  0  0
  1  2  1  0
  2  3  2  0
  2  4  2  0
  2  5  1  0
  5  6  2  0
  6  7  1  0
  7  8  2  0
  8  9  1  0
  9 10  1  0
 10 11  2  0
 11 12  1  0
 12 13  2  0
 13 14  1  0
 14 15  2  0
 15 16  1  0
 16 17  2  0
 11 18  1  0
 18 19  1  0
 19 20  1  0
 20 21  2  0
 21 22  1  0
 22 23  2  0
 23 24  1  0
 24 25  1  0
 24 26  2  0
  8 27  1  0
 27 28  2  0
 28  5  1  0
 19  9  1  0
 26 20  1  0
 17 12  1  0
  1 29  1  0
  1 30  1  0
  6 31  1  0
  7 32  1  0
 13 33  1  0
 14 34  1  0
 15 35  1  0
 16 36  1  0
 17 37  1  0
 18 38  1  0
 18 39  1  0
 19 40  1  0
 21 41  1  0
 22 42  1  0
 23 43  1  0
 26 44  1  0
 27 45  1  0
 28 46  1  0
M  END
$$$$
