
     RDKit          3D

 48 50  0  0  0  0  0  0  0  0999 V2000
    5.5611    0.5010    2.5507 C   0  0  0  0  0  0  0  0  0  0  0  0
    4.4406   -0.0642    1.7161 C   0  0  0  0  0  0  0  0  0  0  0  0
    4.4872   -1.4142    1.3465 C   0  0  0  0  0  0  0  0  0  0  0  0
    3.4779   -1.9963    0.5779 C   0  0  0  0  0  0  0  0  0  0  0  0
    2.4049   -1.1888    0.1821 C   0  0  0  0  0  0  0  0  0  0  0  0
    1.0302   -1.6099   -0.7610 S   0  0  0  0  0  0  0  0  0  0  0  0
    0.4366   -0.0065   -0.6434 C   0  0  0  0  0  0  0  0  0  0  0  0
   -0.7723    0.3193   -1.2679 N   0  0  0  0  0  0  0  0  0  0  0  0
   -1.7791   -0.6750   -1.6569 C   0  0  0  0  0  0  0  0  0  0  0  0
   -2.5944   -1.1927   -0.4664 C   0  0  0  0  0  0  0  0  0  0  0  0
   -3.6904   -2.1552   -0.9395 C   0  0  0  0  0  0  0  0  0  0  0  0
   -4.3915   -2.8215    0.1708 N   0  0  0  0  0  0  0  0  0  0  0  0
   -5.2655   -3.8769   -0.3500 C   0  0  0  0  0  0  0  0  0  0  0  0
   -5.1828   -1.8796    0.9676 C   0  0  0  0  0  0  0  0  0  0  0  0
   -1.2098    1.6653   -1.2461 C   0  0  0  0  0  0  0  0  0  0  0  0
   -2.4203    1.9143   -1.2694 O   0  0  0  0  0  0  0  0  0  0  0  0
   -0.2286    2.7451   -1.3313 C   0  0  0  0  0  0  0  0  0  0  0  0
    0.9222    2.8384   -2.0987 C   0  0  0  0  0  0  0  0  0  0  0  0
    1.6099    4.0737   -1.9022 C   0  0  0  0  0  0  0  0  0  0  0  0
    0.9398    4.8750   -1.0143 C   0  0  0  0  0  0  0  0  0  0  0  0
    1.5532    6.6074   -0.4901 Br  0  0  0  0  0  0  0  0  0  0  0  0
   -0.4921    4.1853   -0.4325 S   0  0  0  0  0  0  0  0  0  0  0  0
    1.1895    0.8037    0.0585 N   0  0  0  0  0  0  0  0  0  0  0  0
    2.3200    0.1562    0.5340 C   0  0  0  0  0  0  0  0  0  0  0  0
    3.3469    0.7473    1.3168 C   0  0  0  0  0  0  0  0  0  0  0  0
    3.2865    2.1999    1.7118 C   0  0  0  0  0  0  0  0  0  0  0  0
    6.0278    1.3490    2.0398 H   0  0  0  0  0  0  0  0  0  0  0  0
    6.3446   -0.2431    2.7294 H   0  0  0  0  0  0  0  0  0  0  0  0
    5.1820    0.8226    3.5258 H   0  0  0  0  0  0  0  0  0  0  0  0
    5.3243   -2.0371    1.6590 H   0  0  0  0  0  0  0  0  0  0  0  0
    3.5267   -3.0441    0.2980 H   0  0  0  0  0  0  0  0  0  0  0  0
   -2.4586   -0.2142   -2.3857 H   0  0  0  0  0  0  0  0  0  0  0  0
   -1.2984   -1.4983   -2.1963 H   0  0  0  0  0  0  0  0  0  0  0  0
   -3.0359   -0.3429    0.0657 H   0  0  0  0  0  0  0  0  0  0  0  0
   -1.9351   -1.7024    0.2460 H   0  0  0  0  0  0  0  0  0  0  0  0
   -4.4007   -1.6236   -1.5866 H   0  0  0  0  0  0  0  0  0  0  0  0
   -3.2093   -2.9235   -1.5592 H   0  0  0  0  0  0  0  0  0  0  0  0
   -4.6826   -4.6238   -0.9006 H   0  0  0  0  0  0  0  0  0  0  0  0
   -5.7572   -4.4110    0.4709 H   0  0  0  0  0  0  0  0  0  0  0  0
   -6.0393   -3.4809   -1.0178 H   0  0  0  0  0  0  0  0  0  0  0  0
   -5.9121   -1.3338    0.3582 H   0  0  0  0  0  0  0  0  0  0  0  0
   -4.5416   -1.1548    1.4786 H   0  0  0  0  0  0  0  0  0  0  0  0
   -5.7264   -2.4083    1.7593 H   0  0  0  0  0  0  0  0  0  0  0  0
    1.2652    2.0509   -2.7586 H   0  0  0  0  0  0  0  0  0  0  0  0
    2.5390    4.3445   -2.3878 H   0  0  0  0  0  0  0  0  0  0  0  0
    3.3151    2.3003    2.8013 H   0  0  0  0  0  0  0  0  0  0  0  0
    4.1276    2.7463    1.2737 H   0  0  0  0  0  0  0  0  0  0  0  0
    2.3653    2.6767    1.3637 H   0  0  0  0  0  0  0  0  0  0  0  0
  1  2  1  0
  2  3  2  0
  3  4  1  0
  4  5  2  0
  5  6  1  0
  6  7  1  0
  7  8  1  0
  8  9  1  0
  9 10  1  0
 10 11  1  0
 11 12  1  0
 12 13  1  0
 12 14  1  0
  8 15  1  0
 15 16  2  0
 15 17  1  0
 17 18  2  0
 18 19  1  0
 19 20  2  0
 20 21  1  0
 20 22  1  0
  7 23  2  0
 23 24  1  0
 24 25  2  0
 25 26  1  0
 25  2  1  0
 24  5  1  0
 22 17  1  0
  1 27  1  0
  1 28  1  0
  1 29  1  0
  3 30  1  0
  4 31  1  0
  9 32  1  0
  9 33  1  0
 10 34  1  0
 10 35  1  0
 11 36  1  0
 11 37  1  0
 13 38  1  0
 13 39  1  0
 13 40  1  0
 14 41  1  0
 14 42  1  0
 14 43  1  0
 18 44  1  0
 19 45  1  0
 26 46  1  0
 26 47  1  0
 26 48  1  0
M  END
$$$$
