
     RDKit          3D

 52 54  0  0  0  0  0  0  0  0999 V2000
    2.9350   -0.0534    0.0489 O   0  0  0  0  0  0  0  0  0  0  0  0
    1.8063   -0.3710    0.4048 C   0  0  0  0  0  0  0  0  0  0  0  0
    1.4273   -1.5448    1.0223 N   0  0  0  0  0  0  0  0  0  0  0  0
    2.2443   -2.6303    1.3915 C   0  0  0  0  0  0  0  0  0  0  0  0
    1.6088   -3.7595    1.9226 C   0  0  0  0  0  0  0  0  0  0  0  0
    2.3492   -4.8779    2.3149 C   0  0  0  0  0  0  0  0  0  0  0  0
    3.7348   -4.8761    2.1837 C   0  0  0  0  0  0  0  0  0  0  0  0
    4.3765   -3.7575    1.6580 C   0  0  0  0  0  0  0  0  0  0  0  0
    3.6344   -2.6394    1.2625 C   0  0  0  0  0  0  0  0  0  0  0  0
    0.6259    0.5456    0.1816 C   0  0  0  0  0  0  0  0  0  0  0  0
    0.7933    1.6057   -0.6274 C   0  0  0  0  0  0  0  0  0  0  0  0
   -0.2956    2.6035   -0.8906 C   0  0  0  0  0  0  0  0  0  0  0  0
    0.1994    4.0417   -0.9133 C   0  0  0  0  0  0  0  0  0  0  0  0
    0.9944    4.5649    0.1200 C   0  0  0  0  0  0  0  0  0  0  0  0
    1.4236    5.8930    0.0861 C   0  0  0  0  0  0  0  0  0  0  0  0
    1.0611    6.7171   -0.9767 C   0  0  0  0  0  0  0  0  0  0  0  0
    0.2691    6.2146   -2.0065 C   0  0  0  0  0  0  0  0  0  0  0  0
   -0.1607    4.8864   -1.9751 C   0  0  0  0  0  0  0  0  0  0  0  0
   -1.4226    2.4419    0.1324 C   0  0  0  0  0  0  0  0  0  0  0  0
   -1.7150    0.9629    0.3600 C   0  0  0  0  0  0  0  0  0  0  0  0
   -2.2286    0.3822   -0.8416 O   0  0  0  0  0  0  0  0  0  0  0  0
   -3.4666   -0.3025   -0.6826 C   0  0  0  0  0  0  0  0  0  0  0  0
   -3.3640   -1.5780    0.1527 C   0  0  0  0  0  0  0  0  0  0  0  0
   -2.3475   -2.5722   -0.4048 C   0  0  0  0  0  0  0  0  0  0  0  0
   -2.3198   -3.8483    0.4267 C   0  0  0  0  0  0  0  0  0  0  0  0
   -1.2549   -4.6850    0.0040 O   0  0  0  0  0  0  0  0  0  0  0  0
   -0.5655    0.2394    0.8210 O   0  0  0  0  0  0  0  0  0  0  0  0
    0.4337   -1.6419    1.1955 H   0  0  0  0  0  0  0  0  0  0  0  0
    0.5271   -3.7937    2.0229 H   0  0  0  0  0  0  0  0  0  0  0  0
    1.8399   -5.7503    2.7154 H   0  0  0  0  0  0  0  0  0  0  0  0
    4.3134   -5.7446    2.4862 H   0  0  0  0  0  0  0  0  0  0  0  0
    5.4581   -3.7495    1.5511 H   0  0  0  0  0  0  0  0  0  0  0  0
    4.1746   -1.7882    0.8605 H   0  0  0  0  0  0  0  0  0  0  0  0
    1.7484    1.7682   -1.1245 H   0  0  0  0  0  0  0  0  0  0  0  0
   -0.6891    2.3651   -1.8888 H   0  0  0  0  0  0  0  0  0  0  0  0
    1.2915    3.9387    0.9590 H   0  0  0  0  0  0  0  0  0  0  0  0
    2.0442    6.2824    0.8890 H   0  0  0  0  0  0  0  0  0  0  0  0
    1.3980    7.7499   -1.0033 H   0  0  0  0  0  0  0  0  0  0  0  0
   -0.0129    6.8566   -2.8369 H   0  0  0  0  0  0  0  0  0  0  0  0
   -0.7784    4.5146   -2.7898 H   0  0  0  0  0  0  0  0  0  0  0  0
   -2.3213    2.9601   -0.2243 H   0  0  0  0  0  0  0  0  0  0  0  0
   -1.1389    2.8950    1.0917 H   0  0  0  0  0  0  0  0  0  0  0  0
   -2.4612    0.9007    1.1614 H   0  0  0  0  0  0  0  0  0  0  0  0
   -4.2092    0.3803   -0.2531 H   0  0  0  0  0  0  0  0  0  0  0  0
   -3.8185   -0.5589   -1.6880 H   0  0  0  0  0  0  0  0  0  0  0  0
   -3.0833   -1.3278    1.1822 H   0  0  0  0  0  0  0  0  0  0  0  0
   -4.3537   -2.0480    0.1978 H   0  0  0  0  0  0  0  0  0  0  0  0
   -1.3447   -2.1319   -0.4281 H   0  0  0  0  0  0  0  0  0  0  0  0
   -2.5891   -2.8217   -1.4453 H   0  0  0  0  0  0  0  0  0  0  0  0
   -3.2592   -4.4026    0.3330 H   0  0  0  0  0  0  0  0  0  0  0  0
   -2.1614   -3.6211    1.4856 H   0  0  0  0  0  0  0  0  0  0  0  0
   -1.3507   -4.8346   -0.9526 H   0  0  0  0  0  0  0  0  0  0  0  0
  1  2  2  0
  2  3  1  0
  3  4  1  0
  4  5  2  0
  5  6  1  0
  6  7  2  0
  7  8  1  0
  8  9  2  0
  2 10  1  0
 10 11  2  0
 11 12  1  0
 12 13  1  0
 13 14  2  0
 14 15  1  0
 15 16  2  0
 16 17  1  0
 17 18  2  0
 12 19  1  0
 19 20  1  0
 20 21  1  0
 21 22  1  0
 22 23  1  0
 23 24  1  0
 24 25  1  0
 25 26  1  0
 20 27  1  0
  9  4  1  0
 27 10  1  0
 18 13  1  0
  3 28  1  0
  5 29  1  0
  6 30  1  0
  7 31  1  0
  8 32  1  0
  9 33  1  0
 11 34  1  0
 12 35  1  0
 14 36  1  0
 15 37  1  0
 16 38  1  0
 17 39  1  0
 18 40  1  0
 19 41  1  0
 19 42  1  0
 20 43  1  0
 22 44  1  0
 22 45  1  0
 23 46  1  0
 23 47  1  0
 24 48  1  0
 24 49  1  0
 25 50  1  0
 25 51  1  0
 26 52  1  0
M  END
$$$$
