
     RDKit          3D

 54 57  0  0  0  0  0  0  0  0999 V2000
   -1.1696    1.5414    0.0706 C   0  0  0  0  0  0  0  0  0  0  0  0
   -1.8375    1.1950    1.4074 C   0  0  0  0  0  0  0  0  0  0  0  0
   -3.1008    2.0581    1.6196 C   0  0  0  0  0  0  0  0  0  0  0  0
   -4.3773    1.3381    1.2035 C   0  0  0  0  0  0  0  0  0  0  0  0
   -4.5998    0.0560    2.0079 C   0  0  0  0  0  0  0  0  0  0  0  0
   -3.3039   -0.5794    2.5187 C   0  0  0  0  0  0  0  0  0  0  0  0
   -2.1203   -0.3209    1.5804 C   0  0  0  0  0  0  0  0  0  0  0  0
   -2.2937   -1.0425    0.3348 N   0  0  0  0  0  0  0  0  0  0  0  0
   -1.3870   -2.0615    0.1792 C   0  0  0  0  0  0  0  0  0  0  0  0
   -1.3479   -2.8001   -0.7891 O   0  0  0  0  0  0  0  0  0  0  0  0
   -0.5499   -2.0625    1.2481 N   0  0  0  0  0  0  0  0  0  0  0  0
    0.5337   -3.0035    1.4472 C   0  0  0  0  0  0  0  0  0  0  0  0
    1.8848   -2.5167    0.9167 C   0  0  0  0  0  0  0  0  0  0  0  0
    2.9275   -3.1071    1.1955 O   0  0  0  0  0  0  0  0  0  0  0  0
    1.8533   -1.4337    0.0714 N   0  0  0  0  0  0  0  0  0  0  0  0
    3.0492   -0.9081   -0.5680 C   0  0  0  0  0  0  0  0  0  0  0  0
    3.4005   -1.7160   -1.8269 C   0  0  0  0  0  0  0  0  0  0  0  0
    2.4503   -1.3856   -2.9737 C   0  0  0  0  0  0  0  0  0  0  0  0
    2.5626    0.0883   -3.3559 C   0  0  0  0  0  0  0  0  0  0  0  0
    2.5540    1.0207   -2.1693 C   0  0  0  0  0  0  0  0  0  0  0  0
    2.3302    2.3899   -2.3839 C   0  0  0  0  0  0  0  0  0  0  0  0
    2.3555    3.2921   -1.3204 C   0  0  0  0  0  0  0  0  0  0  0  0
    2.6116    2.8390   -0.0303 C   0  0  0  0  0  0  0  0  0  0  0  0
    2.8449    1.4834    0.1960 C   0  0  0  0  0  0  0  0  0  0  0  0
    2.8280    0.5625   -0.8667 C   0  0  0  0  0  0  0  0  0  0  0  0
   -0.8783   -1.0633    2.1215 C   0  0  0  0  0  0  0  0  0  0  0  0
   -0.3032   -0.8100    3.1707 O   0  0  0  0  0  0  0  0  0  0  0  0
   -0.2662    0.9447   -0.0828 H   0  0  0  0  0  0  0  0  0  0  0  0
   -0.8742    2.5958    0.0511 H   0  0  0  0  0  0  0  0  0  0  0  0
   -1.8435    1.3724   -0.7754 H   0  0  0  0  0  0  0  0  0  0  0  0
   -1.1266    1.5079    2.1856 H   0  0  0  0  0  0  0  0  0  0  0  0
   -3.0175    3.0109    1.0827 H   0  0  0  0  0  0  0  0  0  0  0  0
   -3.1783    2.3165    2.6843 H   0  0  0  0  0  0  0  0  0  0  0  0
   -5.2417    2.0002    1.3277 H   0  0  0  0  0  0  0  0  0  0  0  0
   -4.3265    1.0975    0.1345 H   0  0  0  0  0  0  0  0  0  0  0  0
   -5.1477   -0.6611    1.3842 H   0  0  0  0  0  0  0  0  0  0  0  0
   -5.2474    0.2665    2.8678 H   0  0  0  0  0  0  0  0  0  0  0  0
   -3.0737   -0.1665    3.5102 H   0  0  0  0  0  0  0  0  0  0  0  0
   -3.4655   -1.6537    2.6760 H   0  0  0  0  0  0  0  0  0  0  0  0
   -3.0243   -0.8881   -0.3485 H   0  0  0  0  0  0  0  0  0  0  0  0
    0.2940   -3.9433    0.9389 H   0  0  0  0  0  0  0  0  0  0  0  0
    0.6452   -3.1846    2.5218 H   0  0  0  0  0  0  0  0  0  0  0  0
    0.9662   -1.1399   -0.3109 H   0  0  0  0  0  0  0  0  0  0  0  0
    3.8864   -1.0070    0.1351 H   0  0  0  0  0  0  0  0  0  0  0  0
    3.3697   -2.7921   -1.6198 H   0  0  0  0  0  0  0  0  0  0  0  0
    4.4272   -1.4802   -2.1366 H   0  0  0  0  0  0  0  0  0  0  0  0
    2.6823   -2.0076   -3.8452 H   0  0  0  0  0  0  0  0  0  0  0  0
    1.4188   -1.6193   -2.6837 H   0  0  0  0  0  0  0  0  0  0  0  0
    1.7379    0.3398   -4.0336 H   0  0  0  0  0  0  0  0  0  0  0  0
    3.5000    0.2475   -3.9034 H   0  0  0  0  0  0  0  0  0  0  0  0
    2.1391    2.7618   -3.3884 H   0  0  0  0  0  0  0  0  0  0  0  0
    2.1809    4.3498   -1.5003 H   0  0  0  0  0  0  0  0  0  0  0  0
    2.6308    3.5396    0.8000 H   0  0  0  0  0  0  0  0  0  0  0  0
    3.0376    1.1390    1.2109 H   0  0  0  0  0  0  0  0  0  0  0  0
  1  2  1  0
  2  3  1  0
  3  4  1  0
  4  5  1  0
  5  6  1  0
  6  7  1  0
  7  8  1  0
  8  9  1  0
  9 10  2  0
  9 11  1  0
 11 12  1  0
 12 13  1  0
 13 14  2  0
 13 15  1  0
 15 16  1  0
 16 17  1  0
 17 18  1  0
 18 19  1  0
 19 20  1  0
 20 21  2  0
 21 22  1  0
 22 23  2  0
 23 24  1  0
 24 25  2  0
 11 26  1  0
 26 27  2  0
  7  2  1  0
 25 16  1  0
 26  7  1  0
 25 20  1  0
  1 28  1  0
  1 29  1  0
  1 30  1  0
  2 31  1  0
  3 32  1  0
  3 33  1  0
  4 34  1  0
  4 35  1  0
  5 36  1  0
  5 37  1  0
  6 38  1  0
  6 39  1  0
  8 40  1  0
 12 41  1  0
 12 42  1  0
 15 43  1  0
 16 44  1  0
 17 45  1  0
 17 46  1  0
 18 47  1  0
 18 48  1  0
 19 49  1  0
 19 50  1  0
 21 51  1  0
 22 52  1  0
 23 53  1  0
 24 54  1  0
M  END
$$$$
