
     RDKit          3D

 40 42  0  0  0  0  0  0  0  0999 V2000
    6.7073    1.1957   -2.4886 C   0  0  0  0  0  0  0  0  0  0  0  0
    5.3133    0.9703   -2.3287 O   0  0  0  0  0  0  0  0  0  0  0  0
    4.8783    0.6144   -1.0805 C   0  0  0  0  0  0  0  0  0  0  0  0
    5.6849    0.4368    0.0430 C   0  0  0  0  0  0  0  0  0  0  0  0
    5.1114    0.0669    1.2598 C   0  0  0  0  0  0  0  0  0  0  0  0
    3.7321   -0.1248    1.3557 C   0  0  0  0  0  0  0  0  0  0  0  0
    2.9090    0.0538    0.2378 C   0  0  0  0  0  0  0  0  0  0  0  0
    1.5265   -0.1660    0.4174 N   0  0  0  0  0  0  0  0  0  0  0  0
    0.5172    0.0261   -0.5090 C   0  0  0  0  0  0  0  0  0  0  0  0
    0.6284    0.4920   -1.6359 O   0  0  0  0  0  0  0  0  0  0  0  0
   -0.8444   -0.3453   -0.0299 C   0  0  0  0  0  0  0  0  0  0  0  0
   -1.0569   -1.4600    0.7873 C   0  0  0  0  0  0  0  0  0  0  0  0
   -2.3481   -1.7689    1.2195 C   0  0  0  0  0  0  0  0  0  0  0  0
   -3.4407   -0.9740    0.8398 C   0  0  0  0  0  0  0  0  0  0  0  0
   -3.2350    0.1246   -0.0147 C   0  0  0  0  0  0  0  0  0  0  0  0
   -1.9329    0.4345   -0.4375 C   0  0  0  0  0  0  0  0  0  0  0  0
   -4.3748    1.0157   -0.4456 C   0  0  0  0  0  0  0  0  0  0  0  0
   -5.7478    0.3761   -0.2487 C   0  0  0  0  0  0  0  0  0  0  0  0
   -5.8520   -0.2448    1.1383 C   0  0  0  0  0  0  0  0  0  0  0  0
   -4.8250   -1.3639    1.3002 C   0  0  0  0  0  0  0  0  0  0  0  0
    3.4940    0.4206   -0.9761 C   0  0  0  0  0  0  0  0  0  0  0  0
    6.8833    1.4765   -3.5315 H   0  0  0  0  0  0  0  0  0  0  0  0
    7.0486    2.0240   -1.8589 H   0  0  0  0  0  0  0  0  0  0  0  0
    7.2800    0.2841   -2.2884 H   0  0  0  0  0  0  0  0  0  0  0  0
    6.7597    0.5765    0.0047 H   0  0  0  0  0  0  0  0  0  0  0  0
    5.7408   -0.0721    2.1351 H   0  0  0  0  0  0  0  0  0  0  0  0
    3.3136   -0.4122    2.3165 H   0  0  0  0  0  0  0  0  0  0  0  0
    1.2428   -0.4272    1.3521 H   0  0  0  0  0  0  0  0  0  0  0  0
   -0.2368   -2.1142    1.0695 H   0  0  0  0  0  0  0  0  0  0  0  0
   -2.5038   -2.6440    1.8476 H   0  0  0  0  0  0  0  0  0  0  0  0
   -1.7617    1.2906   -1.0891 H   0  0  0  0  0  0  0  0  0  0  0  0
   -4.3199    1.9426    0.1391 H   0  0  0  0  0  0  0  0  0  0  0  0
   -4.2599    1.2835   -1.5027 H   0  0  0  0  0  0  0  0  0  0  0  0
   -5.9126   -0.3968   -1.0102 H   0  0  0  0  0  0  0  0  0  0  0  0
   -6.5288    1.1325   -0.3845 H   0  0  0  0  0  0  0  0  0  0  0  0
   -6.8595   -0.6443    1.2993 H   0  0  0  0  0  0  0  0  0  0  0  0
   -5.6865    0.5277    1.9000 H   0  0  0  0  0  0  0  0  0  0  0  0
   -4.7958   -1.6649    2.3542 H   0  0  0  0  0  0  0  0  0  0  0  0
   -5.1440   -2.2355    0.7150 H   0  0  0  0  0  0  0  0  0  0  0  0
    2.8958    0.5612   -1.8713 H   0  0  0  0  0  0  0  0  0  0  0  0
  1  2  1  0
  2  3  1  0
  3  4  2  0
  4  5  1  0
  5  6  2  0
  6  7  1  0
  7  8  1  0
  8  9  1  0
  9 10  2  0
  9 11  1  0
 11 12  2  0
 12 13  1  0
 13 14  2  0
 14 15  1  0
 15 16  2  0
 15 17  1  0
 17 18  1  0
 18 19  1  0
 19 20  1  0
  7 21  2  0
 21  3  1  0
 16 11  1  0
 20 14  1  0
  1 22  1  0
  1 23  1  0
  1 24  1  0
  4 25  1  0
  5 26  1  0
  6 27  1  0
  8 28  1  0
 12 29  1  0
 13 30  1  0
 16 31  1  0
 17 32  1  0
 17 33  1  0
 18 34  1  0
 18 35  1  0
 19 36  1  0
 19 37  1  0
 20 38  1  0
 20 39  1  0
 21 40  1  0
M  END
$$$$
