
     RDKit          3D

 30 31  0  0  0  0  0  0  0  0999 V2000
   -0.1311    0.3541   -2.7096 C   0  0  0  0  0  0  0  0  0  0  0  0
    0.2648    0.1227   -1.3606 O   0  0  0  0  0  0  0  0  0  0  0  0
   -0.7026   -0.2190   -0.4482 C   0  0  0  0  0  0  0  0  0  0  0  0
   -2.0686   -0.2877   -0.7707 C   0  0  0  0  0  0  0  0  0  0  0  0
   -3.0229   -0.6357    0.1927 C   0  0  0  0  0  0  0  0  0  0  0  0
   -4.7524   -0.7312   -0.2277 S   0  0  0  0  0  0  0  0  0  0  0  0
   -5.1039    1.0374   -0.4093 C   0  0  0  0  0  0  0  0  0  0  0  0
   -2.6138   -0.9353    1.4882 C   0  0  0  0  0  0  0  0  0  0  0  0
   -1.2609   -0.8668    1.8243 C   0  0  0  0  0  0  0  0  0  0  0  0
   -0.2884   -0.5073    0.8711 C   0  0  0  0  0  0  0  0  0  0  0  0
    1.1393   -0.4666    1.3619 C   0  0  0  0  0  0  0  0  0  0  0  0
    1.3463   -0.7055    2.5480 O   0  0  0  0  0  0  0  0  0  0  0  0
    2.0957   -0.1615    0.4259 N   0  0  0  0  0  0  0  0  0  0  0  0
    3.4501   -0.0618    0.6026 C   0  0  0  0  0  0  0  0  0  0  0  0
    4.2406    0.2466   -0.4014 N   0  0  0  0  0  0  0  0  0  0  0  0
    5.5504    0.2813    0.0363 C   0  0  0  0  0  0  0  0  0  0  0  0
    5.7365   -0.0021    1.3712 C   0  0  0  0  0  0  0  0  0  0  0  0
    4.2203   -0.3226    2.1004 S   0  0  0  0  0  0  0  0  0  0  0  0
   -0.5885   -0.5399   -3.1457 H   0  0  0  0  0  0  0  0  0  0  0  0
   -0.7971    1.2200   -2.7804 H   0  0  0  0  0  0  0  0  0  0  0  0
    0.7711    0.5808   -3.2858 H   0  0  0  0  0  0  0  0  0  0  0  0
   -2.4195   -0.0791   -1.7766 H   0  0  0  0  0  0  0  0  0  0  0  0
   -6.1670    1.1709   -0.6264 H   0  0  0  0  0  0  0  0  0  0  0  0
   -4.8676    1.5715    0.5152 H   0  0  0  0  0  0  0  0  0  0  0  0
   -4.5259    1.4646   -1.2332 H   0  0  0  0  0  0  0  0  0  0  0  0
   -3.3372   -1.2219    2.2484 H   0  0  0  0  0  0  0  0  0  0  0  0
   -0.9673   -1.1014    2.8472 H   0  0  0  0  0  0  0  0  0  0  0  0
    1.8037    0.0241   -0.5257 H   0  0  0  0  0  0  0  0  0  0  0  0
    6.3386    0.5211   -0.6668 H   0  0  0  0  0  0  0  0  0  0  0  0
    6.6572   -0.0359    1.9348 H   0  0  0  0  0  0  0  0  0  0  0  0
  1  2  1  0
  2  3  1  0
  3  4  2  0
  4  5  1  0
  5  6  1  0
  6  7  1  0
  5  8  2  0
  8  9  1  0
  9 10  2  0
 10 11  1  0
 11 12  2  0
 11 13  1  0
 13 14  1  0
 14 15  2  0
 15 16  1  0
 16 17  2  0
 17 18  1  0
 10  3  1  0
 18 14  1  0
  1 19  1  0
  1 20  1  0
  1 21  1  0
  4 22  1  0
  7 23  1  0
  7 24  1  0
  7 25  1  0
  8 26  1  0
  9 27  1  0
 13 28  1  0
 16 29  1  0
 17 30  1  0
M  END
$$$$
