
     RDKit          3D

 71 76  0  0  0  0  0  0  0  0999 V2000
   -3.4753   -5.5027    2.7948 C   0  0  0  0  0  0  0  0  0  0  0  0
   -2.7010   -4.3395    2.5308 O   0  0  0  0  0  0  0  0  0  0  0  0
   -2.7931   -3.7988    1.2772 C   0  0  0  0  0  0  0  0  0  0  0  0
   -3.5922   -4.2917    0.2275 C   0  0  0  0  0  0  0  0  0  0  0  0
   -3.6076   -3.6619   -1.0235 C   0  0  0  0  0  0  0  0  0  0  0  0
   -2.8180   -2.5445   -1.1848 C   0  0  0  0  0  0  0  0  0  0  0  0
   -2.0257   -2.0337   -0.1550 C   0  0  0  0  0  0  0  0  0  0  0  0
   -2.0016   -2.6600    1.0817 C   0  0  0  0  0  0  0  0  0  0  0  0
   -1.3031   -0.8220   -0.6594 C   0  0  1  0  0  0  0  0  0  0  0  0
   -1.7693   -0.7312   -2.1402 C   0  0  0  0  0  0  0  0  0  0  0  0
   -1.4260    0.0595   -3.0060 O   0  0  0  0  0  0  0  0  0  0  0  0
   -2.6741   -1.7803   -2.3351 N   0  0  0  0  0  0  0  0  0  0  0  0
   -1.6944    0.3618    0.1522 C   0  0  0  0  0  0  0  0  0  0  0  0
   -0.5646    1.1824    0.3696 C   0  0  0  0  0  0  0  0  0  0  0  0
   -0.9432    2.2616    1.1195 C   0  0  0  0  0  0  0  0  0  0  0  0
   -0.2732    3.3081    1.5842 O   0  0  0  0  0  0  0  0  0  0  0  0
   -2.3040    2.1139    1.3523 N   0  0  0  0  0  0  0  0  0  0  0  0
   -3.1194    3.0403    2.1286 C   0  0  0  0  0  0  0  0  0  0  0  0
   -3.7189    4.1226    1.2637 C   0  0  0  0  0  0  0  0  0  0  0  0
   -4.9451    3.9190    0.6137 C   0  0  0  0  0  0  0  0  0  0  0  0
   -5.4961    4.9177   -0.1908 C   0  0  0  0  0  0  0  0  0  0  0  0
   -4.8255    6.1277   -0.3587 C   0  0  0  0  0  0  0  0  0  0  0  0
   -3.6016    6.3390    0.2737 C   0  0  0  0  0  0  0  0  0  0  0  0
   -3.0498    5.3416    1.0793 C   0  0  0  0  0  0  0  0  0  0  0  0
   -2.7665    0.9321    0.7887 C   0  0  0  0  0  0  0  0  0  0  0  0
   -4.0301    0.5496    0.9278 O   0  0  0  0  0  0  0  0  0  0  0  0
    0.6104    0.6058   -0.3161 C   0  0  1  0  0  0  0  0  0  0  0  0
    1.9614    0.6169    0.3876 C   0  0  0  0  0  0  0  0  0  0  0  0
    2.9405   -0.1968   -0.3547 N   0  0  0  0  0  0  0  0  0  0  0  0
    4.2838    0.0782   -0.1601 C   0  0  0  0  0  0  0  0  0  0  0  0
    4.6892    1.0697    0.4330 O   0  0  0  0  0  0  0  0  0  0  0  0
    5.0844   -0.8737   -0.7038 O   0  0  0  0  0  0  0  0  0  0  0  0
    6.5290   -0.7799   -0.6134 C   0  0  0  0  0  0  0  0  0  0  0  0
    7.0003   -0.8364    0.8435 C   0  0  0  0  0  0  0  0  0  0  0  0
    7.0555    0.4622   -1.3407 C   0  0  0  0  0  0  0  0  0  0  0  0
    7.0444   -2.0298   -1.3438 C   0  0  0  0  0  0  0  0  0  0  0  0
    2.4819   -1.5183   -0.8260 C   0  0  0  0  0  0  0  0  0  0  0  0
    1.0342   -1.5263   -1.3834 C   0  0  0  0  0  0  0  0  0  0  0  0
    0.1632   -0.8179   -0.4615 N   0  0  0  0  0  0  0  0  0  0  0  0
   -4.5462   -5.2925    2.7044 H   0  0  0  0  0  0  0  0  0  0  0  0
   -3.1780   -6.3314    2.1437 H   0  0  0  0  0  0  0  0  0  0  0  0
   -3.2812   -5.8063    3.8280 H   0  0  0  0  0  0  0  0  0  0  0  0
   -4.2124   -5.1733    0.3573 H   0  0  0  0  0  0  0  0  0  0  0  0
   -4.2186   -4.0507   -1.8305 H   0  0  0  0  0  0  0  0  0  0  0  0
   -1.3817   -2.2725    1.8859 H   0  0  0  0  0  0  0  0  0  0  0  0
   -3.1226   -1.9508   -3.2229 H   0  0  0  0  0  0  0  0  0  0  0  0
    0.6408    3.2471    1.2569 H   0  0  0  0  0  0  0  0  0  0  0  0
   -2.4931    3.4698    2.9191 H   0  0  0  0  0  0  0  0  0  0  0  0
   -3.9041    2.4685    2.6374 H   0  0  0  0  0  0  0  0  0  0  0  0
   -5.4727    2.9739    0.7276 H   0  0  0  0  0  0  0  0  0  0  0  0
   -6.4462    4.7490   -0.6902 H   0  0  0  0  0  0  0  0  0  0  0  0
   -5.2528    6.9030   -0.9887 H   0  0  0  0  0  0  0  0  0  0  0  0
   -3.0723    7.2777    0.1341 H   0  0  0  0  0  0  0  0  0  0  0  0
   -2.0871    5.5143    1.5569 H   0  0  0  0  0  0  0  0  0  0  0  0
   -4.1147   -0.3345    0.5283 H   0  0  0  0  0  0  0  0  0  0  0  0
    0.7024    1.0754   -1.3063 H   0  0  0  0  0  0  0  0  0  0  0  0
    1.8924    0.2021    1.4017 H   0  0  0  0  0  0  0  0  0  0  0  0
    2.3284    1.6449    0.4856 H   0  0  0  0  0  0  0  0  0  0  0  0
    6.7261    0.0664    1.3976 H   0  0  0  0  0  0  0  0  0  0  0  0
    6.5378   -1.6794    1.3687 H   0  0  0  0  0  0  0  0  0  0  0  0
    8.0886   -0.9411    0.9069 H   0  0  0  0  0  0  0  0  0  0  0  0
    8.1482    0.4438   -1.4212 H   0  0  0  0  0  0  0  0  0  0  0  0
    6.7818    1.3865   -0.8234 H   0  0  0  0  0  0  0  0  0  0  0  0
    6.6330    0.5298   -2.3498 H   0  0  0  0  0  0  0  0  0  0  0  0
    6.6619   -2.9420   -0.8716 H   0  0  0  0  0  0  0  0  0  0  0  0
    6.6916   -2.0479   -2.3817 H   0  0  0  0  0  0  0  0  0  0  0  0
    8.1384   -2.0763   -1.3495 H   0  0  0  0  0  0  0  0  0  0  0  0
    3.1617   -1.8964   -1.5967 H   0  0  0  0  0  0  0  0  0  0  0  0
    2.5507   -2.1961    0.0343 H   0  0  0  0  0  0  0  0  0  0  0  0
    0.7132   -2.5668   -1.5046 H   0  0  0  0  0  0  0  0  0  0  0  0
    1.0279   -1.0584   -2.3751 H   0  0  0  0  0  0  0  0  0  0  0  0
  1  2  1  0
  2  3  1  0
  3  4  2  0
  4  5  1  0
  5  6  2  0
  6  7  1  0
  7  8  2  0
  7  9  1  0
  9 10  1  0
 10 11  2  0
 10 12  1  0
  9 13  1  0
 13 14  1  0
 14 15  2  0
 15 16  1  0
 15 17  1  0
 17 18  1  0
 18 19  1  0
 19 20  2  0
 20 21  1  0
 21 22  2  0
 22 23  1  0
 23 24  2  0
 17 25  1  0
 25 26  1  0
 14 27  1  0
 27 28  1  0
 28 29  1  0
 29 30  1  0
 30 31  2  0
 30 32  1  0
 32 33  1  0
 33 34  1  0
 33 35  1  0
 33 36  1  0
 29 37  1  0
 37 38  1  0
 38 39  1  0
  8  3  1  0
  9 39  1  6
 12  6  1  0
 25 13  2  0
 39 27  1  0
 24 19  1  0
  1 40  1  0
  1 41  1  0
  1 42  1  0
  4 43  1  0
  5 44  1  0
  8 45  1  0
 12 46  1  0
 16 47  1  0
 18 48  1  0
 18 49  1  0
 20 50  1  0
 21 51  1  0
 22 52  1  0
 23 53  1  0
 24 54  1  0
 26 55  1  0
 27 56  1  6
 28 57  1  0
 28 58  1  0
 34 59  1  0
 34 60  1  0
 34 61  1  0
 35 62  1  0
 35 63  1  0
 35 64  1  0
 36 65  1  0
 36 66  1  0
 36 67  1  0
 37 68  1  0
 37 69  1  0
 38 70  1  0
 38 71  1  0
M  END
$$$$
