
     RDKit          3D

 53 56  0  0  0  0  0  0  0  0999 V2000
   -6.7316    0.3604    1.0886 C   0  0  0  0  0  0  0  0  0  0  0  0
   -5.8414    1.1624    0.1143 C   0  0  0  0  0  0  0  0  0  0  0  0
   -6.4308    0.9699   -1.3011 C   0  0  0  0  0  0  0  0  0  0  0  0
   -5.9428    2.6649    0.4541 C   0  0  0  0  0  0  0  0  0  0  0  0
   -4.3784    0.7053    0.2460 C   0  0  0  0  0  0  0  0  0  0  0  0
   -3.6325    0.2187   -0.8382 C   0  0  0  0  0  0  0  0  0  0  0  0
   -2.2956   -0.1882   -0.6933 C   0  0  0  0  0  0  0  0  0  0  0  0
   -1.6615   -0.1249    0.5481 C   0  0  0  0  0  0  0  0  0  0  0  0
   -0.3014   -0.5182    0.7510 N   0  0  0  0  0  0  0  0  0  0  0  0
    0.2974   -0.2275    1.9453 N   0  0  0  0  0  0  0  0  0  0  0  0
    1.5621   -0.6196    1.8174 C   0  0  0  0  0  0  0  0  0  0  0  0
    1.8179   -1.1961    0.5695 C   0  0  0  0  0  0  0  0  0  0  0  0
    0.5960   -1.1761   -0.0818 C   0  0  0  0  0  0  0  0  0  0  0  0
    0.3571   -1.7912   -1.4185 C   0  0  0  0  0  0  0  0  0  0  0  0
    1.5109   -2.7462   -1.7835 C   0  0  0  0  0  0  0  0  0  0  0  0
    2.8875   -2.1301   -1.4871 C   0  0  0  0  0  0  0  0  0  0  0  0
    3.0623   -1.8034    0.0142 C   0  0  0  0  0  0  0  0  0  0  0  0
    4.1529   -0.8784    0.2156 N   0  0  0  0  0  0  0  0  0  0  0  0
    5.4731   -1.2660    0.1517 C   0  0  0  0  0  0  0  0  0  0  0  0
    5.8433   -2.4281    0.0376 O   0  0  0  0  0  0  0  0  0  0  0  0
    6.4467   -0.1409    0.2168 C   0  0  0  0  0  0  0  0  0  0  0  0
    7.8088   -0.3937    0.1758 C   0  0  0  0  0  0  0  0  0  0  0  0
    8.7292    0.6040    0.2252 N   0  0  0  0  0  0  0  0  0  0  0  0
    8.2226    1.8565    0.3183 C   0  0  0  0  0  0  0  0  0  0  0  0
    6.8590    2.1082    0.3581 C   0  0  0  0  0  0  0  0  0  0  0  0
    5.9332    1.1224    0.3060 N   0  0  0  0  0  0  0  0  0  0  0  0
   -2.3912    0.3744    1.6369 C   0  0  0  0  0  0  0  0  0  0  0  0
   -3.7237    0.7778    1.4869 C   0  0  0  0  0  0  0  0  0  0  0  0
   -6.6505   -0.7169    0.9014 H   0  0  0  0  0  0  0  0  0  0  0  0
   -6.4616    0.5331    2.1363 H   0  0  0  0  0  0  0  0  0  0  0  0
   -7.7863    0.6402    0.9811 H   0  0  0  0  0  0  0  0  0  0  0  0
   -7.4757    1.3000   -1.3423 H   0  0  0  0  0  0  0  0  0  0  0  0
   -5.8815    1.5507   -2.0509 H   0  0  0  0  0  0  0  0  0  0  0  0
   -6.4128   -0.0836   -1.6047 H   0  0  0  0  0  0  0  0  0  0  0  0
   -5.6394    2.8767    1.4850 H   0  0  0  0  0  0  0  0  0  0  0  0
   -5.3032    3.2634   -0.2065 H   0  0  0  0  0  0  0  0  0  0  0  0
   -6.9714    3.0265    0.3405 H   0  0  0  0  0  0  0  0  0  0  0  0
   -4.0638    0.1524   -1.8338 H   0  0  0  0  0  0  0  0  0  0  0  0
   -1.7906   -0.5141   -1.5919 H   0  0  0  0  0  0  0  0  0  0  0  0
    2.2431   -0.4745    2.6468 H   0  0  0  0  0  0  0  0  0  0  0  0
   -0.5763   -2.3630   -1.4317 H   0  0  0  0  0  0  0  0  0  0  0  0
    0.3008   -1.0022   -2.1774 H   0  0  0  0  0  0  0  0  0  0  0  0
    1.4409   -3.0092   -2.8453 H   0  0  0  0  0  0  0  0  0  0  0  0
    1.4089   -3.6806   -1.2170 H   0  0  0  0  0  0  0  0  0  0  0  0
    3.6794   -2.8161   -1.8117 H   0  0  0  0  0  0  0  0  0  0  0  0
    3.0023   -1.2176   -2.0898 H   0  0  0  0  0  0  0  0  0  0  0  0
    3.2819   -2.7311    0.5580 H   0  0  0  0  0  0  0  0  0  0  0  0
    3.9764    0.1237    0.1952 H   0  0  0  0  0  0  0  0  0  0  0  0
    8.2029   -1.4018    0.1011 H   0  0  0  0  0  0  0  0  0  0  0  0
    8.9489    2.6609    0.3612 H   0  0  0  0  0  0  0  0  0  0  0  0
    6.4753    3.1201    0.4339 H   0  0  0  0  0  0  0  0  0  0  0  0
   -1.9374    0.4587    2.6239 H   0  0  0  0  0  0  0  0  0  0  0  0
   -4.2394    1.1620    2.3644 H   0  0  0  0  0  0  0  0  0  0  0  0
  1  2  1  0
  2  3  1  0
  2  4  1  0
  2  5  1  0
  5  6  2  0
  6  7  1  0
  7  8  2  0
  8  9  1  0
  9 10  1  0
 10 11  2  0
 11 12  1  0
 12 13  2  0
 13 14  1  0
 14 15  1  0
 15 16  1  0
 16 17  1  0
 17 18  1  0
 18 19  1  0
 19 20  2  0
 19 21  1  0
 21 22  2  0
 22 23  1  0
 23 24  2  0
 24 25  1  0
 25 26  2  0
  8 27  1  0
 27 28  2  0
 28  5  1  0
 13  9  1  0
 26 21  1  0
 17 12  1  0
  1 29  1  0
  1 30  1  0
  1 31  1  0
  3 32  1  0
  3 33  1  0
  3 34  1  0
  4 35  1  0
  4 36  1  0
  4 37  1  0
  6 38  1  0
  7 39  1  0
 11 40  1  0
 14 41  1  0
 14 42  1  0
 15 43  1  0
 15 44  1  0
 16 45  1  0
 16 46  1  0
 17 47  1  0
 18 48  1  0
 22 49  1  0
 24 50  1  0
 25 51  1  0
 27 52  1  0
 28 53  1  0
M  END
$$$$
