
     RDKit          3D

 60 65  0  0  0  0  0  0  0  0999 V2000
    0.8166    0.1348   -0.5487 O   0  0  0  0  0  0  0  0  0  0  0  0
    1.2485   -0.3567   -1.5883 C   0  0  0  0  0  0  0  0  0  0  0  0
    0.3758   -1.2542   -2.4655 C   0  0  0  0  0  0  0  0  0  0  0  0
   -0.2585   -2.6688   -1.5183 S   0  0  0  0  0  0  0  0  0  0  0  0
   -1.3270   -1.7830   -0.4291 C   0  0  0  0  0  0  0  0  0  0  0  0
   -2.2207   -1.0610   -1.0193 N   0  0  0  0  0  0  0  0  0  0  0  0
   -3.0000   -0.2189   -0.2372 C   0  0  0  0  0  0  0  0  0  0  0  0
   -3.8981    0.5111   -0.9348 N   0  0  0  0  0  0  0  0  0  0  0  0
   -4.6637    1.3817   -0.2384 C   0  0  0  0  0  0  0  0  0  0  0  0
   -4.5676    1.5565    1.1436 C   0  0  0  0  0  0  0  0  0  0  0  0
   -3.6279    0.7991    1.8386 C   0  0  0  0  0  0  0  0  0  0  0  0
   -2.8362   -0.1048    1.1278 C   0  0  0  0  0  0  0  0  0  0  0  0
   -1.8455   -0.9691    1.7795 C   0  0  0  0  0  0  0  0  0  0  0  0
   -1.7627   -0.9007    3.0065 O   0  0  0  0  0  0  0  0  0  0  0  0
   -1.1264   -1.8377    0.9502 N   0  0  0  0  0  0  0  0  0  0  0  0
   -0.2171   -2.7531    1.5790 C   0  0  0  0  0  0  0  0  0  0  0  0
    0.7103   -2.2963    2.5272 C   0  0  0  0  0  0  0  0  0  0  0  0
    1.5898   -3.1835    3.1532 C   0  0  0  0  0  0  0  0  0  0  0  0
    1.5453   -4.5421    2.8491 C   0  0  0  0  0  0  0  0  0  0  0  0
    0.6171   -5.0149    1.9254 C   0  0  0  0  0  0  0  0  0  0  0  0
   -0.2629   -4.1275    1.2987 C   0  0  0  0  0  0  0  0  0  0  0  0
   -5.4373    2.5858    1.8037 C   0  0  0  0  0  0  0  0  0  0  0  0
   -6.8679    2.5607    1.2545 C   0  0  0  0  0  0  0  0  0  0  0  0
   -6.9877    2.2754   -0.2512 C   0  0  0  0  0  0  0  0  0  0  0  0
   -5.6532    2.2289   -0.9935 C   0  0  0  0  0  0  0  0  0  0  0  0
    2.5209   -0.1713   -2.1125 N   0  0  0  0  0  0  0  0  0  0  0  0
    3.5954    0.5905   -1.5761 C   0  0  0  0  0  0  0  0  0  0  0  0
    3.4960    1.2044   -0.3205 C   0  0  0  0  0  0  0  0  0  0  0  0
    4.5524    1.9452    0.2030 C   0  0  0  0  0  0  0  0  0  0  0  0
    5.7286    2.0863   -0.5215 C   0  0  0  0  0  0  0  0  0  0  0  0
    5.8707    1.4889   -1.7794 C   0  0  0  0  0  0  0  0  0  0  0  0
    7.0743    1.6576   -2.4845 C   0  0  0  0  0  0  0  0  0  0  0  0
    7.2598    1.0874   -3.7406 C   0  0  0  0  0  0  0  0  0  0  0  0
    6.2408    0.3386   -4.3088 C   0  0  0  0  0  0  0  0  0  0  0  0
    5.0365    0.1614   -3.6196 C   0  0  0  0  0  0  0  0  0  0  0  0
    4.8067    0.7259   -2.3345 C   0  0  0  0  0  0  0  0  0  0  0  0
    0.9497   -1.6583   -3.3046 H   0  0  0  0  0  0  0  0  0  0  0  0
   -0.4346   -0.6540   -2.8906 H   0  0  0  0  0  0  0  0  0  0  0  0
   -3.5097    0.9045    2.9143 H   0  0  0  0  0  0  0  0  0  0  0  0
    0.7706   -1.2386    2.7759 H   0  0  0  0  0  0  0  0  0  0  0  0
    2.3068   -2.8107    3.8800 H   0  0  0  0  0  0  0  0  0  0  0  0
    2.2283   -5.2316    3.3387 H   0  0  0  0  0  0  0  0  0  0  0  0
    0.5694   -6.0766    1.6967 H   0  0  0  0  0  0  0  0  0  0  0  0
   -1.0024   -4.5319    0.6119 H   0  0  0  0  0  0  0  0  0  0  0  0
   -5.4672    2.4335    2.8887 H   0  0  0  0  0  0  0  0  0  0  0  0
   -4.9918    3.5734    1.6306 H   0  0  0  0  0  0  0  0  0  0  0  0
   -7.4391    1.7911    1.7912 H   0  0  0  0  0  0  0  0  0  0  0  0
   -7.3590    3.5122    1.4931 H   0  0  0  0  0  0  0  0  0  0  0  0
   -7.6460    3.0162   -0.7194 H   0  0  0  0  0  0  0  0  0  0  0  0
   -7.4903    1.3065   -0.3741 H   0  0  0  0  0  0  0  0  0  0  0  0
   -5.2428    3.2396   -1.1015 H   0  0  0  0  0  0  0  0  0  0  0  0
   -5.8062    1.8279   -2.0015 H   0  0  0  0  0  0  0  0  0  0  0  0
    2.7050   -0.6243   -2.9942 H   0  0  0  0  0  0  0  0  0  0  0  0
    2.6047    1.1211    0.2921 H   0  0  0  0  0  0  0  0  0  0  0  0
    4.4540    2.4113    1.1803 H   0  0  0  0  0  0  0  0  0  0  0  0
    6.5389    2.6714   -0.0906 H   0  0  0  0  0  0  0  0  0  0  0  0
    7.8843    2.2463   -2.0569 H   0  0  0  0  0  0  0  0  0  0  0  0
    8.1969    1.2306   -4.2721 H   0  0  0  0  0  0  0  0  0  0  0  0
    6.3753   -0.1072   -5.2912 H   0  0  0  0  0  0  0  0  0  0  0  0
    4.2798   -0.4289   -4.1244 H   0  0  0  0  0  0  0  0  0  0  0  0
  1  2  2  0
  2  3  1  0
  3  4  1  0
  4  5  1  0
  5  6  2  0
  6  7  1  0
  7  8  2  0
  8  9  1  0
  9 10  2  0
 10 11  1  0
 11 12  2  0
 12 13  1  0
 13 14  2  0
 13 15  1  0
 15 16  1  0
 16 17  2  0
 17 18  1  0
 18 19  2  0
 19 20  1  0
 20 21  2  0
 10 22  1  0
 22 23  1  0
 23 24  1  0
 24 25  1  0
  2 26  1  0
 26 27  1  0
 27 28  2  0
 28 29  1  0
 29 30  2  0
 30 31  1  0
 31 32  2  0
 32 33  1  0
 33 34  2  0
 34 35  1  0
 35 36  2  0
 15  5  1  0
 21 16  1  0
 36 27  1  0
 12  7  1  0
 36 31  1  0
 25  9  1  0
  3 37  1  0
  3 38  1  0
 11 39  1  0
 17 40  1  0
 18 41  1  0
 19 42  1  0
 20 43  1  0
 21 44  1  0
 22 45  1  0
 22 46  1  0
 23 47  1  0
 23 48  1  0
 24 49  1  0
 24 50  1  0
 25 51  1  0
 25 52  1  0
 26 53  1  0
 28 54  1  0
 29 55  1  0
 30 56  1  0
 32 57  1  0
 33 58  1  0
 34 59  1  0
 35 60  1  0
M  END
$$$$
