
     RDKit          3D

 42 44  0  0  0  0  0  0  0  0999 V2000
   -6.8596    1.5807    0.0428 C   0  0  0  0  0  0  0  0  0  0  0  0
   -5.4900    0.9679    0.0516 C   0  0  0  0  0  0  0  0  0  0  0  0
   -4.8787    0.5845   -1.1466 C   0  0  0  0  0  0  0  0  0  0  0  0
   -3.6100   -0.0174   -1.1539 C   0  0  0  0  0  0  0  0  0  0  0  0
   -2.9902   -0.3978   -2.4728 C   0  0  0  0  0  0  0  0  0  0  0  0
   -2.9539   -0.2581    0.0733 C   0  0  0  0  0  0  0  0  0  0  0  0
   -1.6499   -0.9021    0.0852 C   0  0  0  0  0  0  0  0  0  0  0  0
   -1.4916   -2.2711    0.1620 C   0  0  0  0  0  0  0  0  0  0  0  0
    0.1798   -2.6472    0.1511 S   0  0  0  0  0  0  0  0  0  0  0  0
    0.5469   -0.9873    0.0469 C   0  0  0  0  0  0  0  0  0  0  0  0
    1.8263   -0.4968   -0.0070 N   0  0  0  0  0  0  0  0  0  0  0  0
    2.9911   -1.2213    0.0124 C   0  0  0  0  0  0  0  0  0  0  0  0
    3.1180   -2.4358    0.0809 O   0  0  0  0  0  0  0  0  0  0  0  0
    4.1878   -0.3322   -0.0631 C   0  0  0  0  0  0  0  0  0  0  0  0
    5.4162   -0.8727   -0.0557 C   0  0  0  0  0  0  0  0  0  0  0  0
    6.6027   -0.0828   -0.1252 C   0  0  0  0  0  0  0  0  0  0  0  0
    6.7915    1.2885   -0.2090 C   0  0  0  0  0  0  0  0  0  0  0  0
    8.1658    1.6673   -0.2582 C   0  0  0  0  0  0  0  0  0  0  0  0
    9.0003    0.5768   -0.2110 C   0  0  0  0  0  0  0  0  0  0  0  0
    8.1323   -0.8882   -0.1083 S   0  0  0  0  0  0  0  0  0  0  0  0
   -0.4795   -0.1697    0.0194 N   0  0  0  0  0  0  0  0  0  0  0  0
   -3.5619    0.1253    1.2889 C   0  0  0  0  0  0  0  0  0  0  0  0
   -2.8899   -0.1004    2.6178 C   0  0  0  0  0  0  0  0  0  0  0  0
   -4.8312    0.7252    1.2613 C   0  0  0  0  0  0  0  0  0  0  0  0
   -6.9874    2.2647    0.8884 H   0  0  0  0  0  0  0  0  0  0  0  0
   -7.0220    2.1619   -0.8711 H   0  0  0  0  0  0  0  0  0  0  0  0
   -7.6205    0.7965    0.1036 H   0  0  0  0  0  0  0  0  0  0  0  0
   -5.3963    0.7612   -2.0880 H   0  0  0  0  0  0  0  0  0  0  0  0
   -2.8918   -1.4853   -2.5482 H   0  0  0  0  0  0  0  0  0  0  0  0
   -3.6046   -0.0629   -3.3156 H   0  0  0  0  0  0  0  0  0  0  0  0
   -2.0067    0.0698   -2.5852 H   0  0  0  0  0  0  0  0  0  0  0  0
   -2.2484   -3.0400    0.2219 H   0  0  0  0  0  0  0  0  0  0  0  0
    1.8441    0.5104   -0.0661 H   0  0  0  0  0  0  0  0  0  0  0  0
    4.0248    0.7349   -0.1222 H   0  0  0  0  0  0  0  0  0  0  0  0
    5.5246   -1.9557    0.0054 H   0  0  0  0  0  0  0  0  0  0  0  0
    5.9829    2.0077   -0.2351 H   0  0  0  0  0  0  0  0  0  0  0  0
    8.5212    2.6882   -0.3249 H   0  0  0  0  0  0  0  0  0  0  0  0
   10.0814    0.5676   -0.2317 H   0  0  0  0  0  0  0  0  0  0  0  0
   -2.7862   -1.1720    2.8152 H   0  0  0  0  0  0  0  0  0  0  0  0
   -1.9039    0.3748    2.6362 H   0  0  0  0  0  0  0  0  0  0  0  0
   -3.4715    0.3316    3.4393 H   0  0  0  0  0  0  0  0  0  0  0  0
   -5.3119    1.0114    2.1954 H   0  0  0  0  0  0  0  0  0  0  0  0
  1  2  1  0
  2  3  2  0
  3  4  1  0
  4  5  1  0
  4  6  2  0
  6  7  1  0
  7  8  2  0
  8  9  1  0
  9 10  1  0
 10 11  1  0
 11 12  1  0
 12 13  2  0
 12 14  1  0
 14 15  2  3
 15 16  1  0
 16 17  2  0
 17 18  1  0
 18 19  2  0
 19 20  1  0
 10 21  2  0
  6 22  1  0
 22 23  1  0
 22 24  2  0
 24  2  1  0
 21  7  1  0
 20 16  1  0
  1 25  1  0
  1 26  1  0
  1 27  1  0
  3 28  1  0
  5 29  1  0
  5 30  1  0
  5 31  1  0
  8 32  1  0
 11 33  1  0
 14 34  1  0
 15 35  1  0
 17 36  1  0
 18 37  1  0
 19 38  1  0
 23 39  1  0
 23 40  1  0
 23 41  1  0
 24 42  1  0
M  END
$$$$
