
     RDKit          3D

 42 45  0  0  0  0  0  0  0  0999 V2000
   -1.6166   -1.5691    1.5791 O   0  0  0  0  0  0  0  0  0  0  0  0
   -1.8201   -0.4168    1.2227 C   0  0  0  0  0  0  0  0  0  0  0  0
   -0.7627    0.4496    0.6283 C   0  0  0  0  0  0  0  0  0  0  0  0
    0.4541   -0.0518    0.3813 C   0  0  0  0  0  0  0  0  0  0  0  0
    1.5752    0.6353   -0.1632 C   0  0  0  0  0  0  0  0  0  0  0  0
    1.6966    1.7582   -0.9753 C   0  0  0  0  0  0  0  0  0  0  0  0
    3.0738    1.9814   -1.2226 C   0  0  0  0  0  0  0  0  0  0  0  0
    3.7449    0.9688   -0.5805 C   0  0  0  0  0  0  0  0  0  0  0  0
    5.1512    0.6295   -0.4178 C   0  0  0  0  0  0  0  0  0  0  0  0
    6.0383    1.6412   -0.0079 C   0  0  0  0  0  0  0  0  0  0  0  0
    7.3986    1.3778    0.1724 C   0  0  0  0  0  0  0  0  0  0  0  0
    7.8958    0.0989   -0.0592 C   0  0  0  0  0  0  0  0  0  0  0  0
    7.0336   -0.9149   -0.4756 C   0  0  0  0  0  0  0  0  0  0  0  0
    5.6689   -0.6552   -0.6577 C   0  0  0  0  0  0  0  0  0  0  0  0
    4.6931   -1.9651   -1.2330 Cl  0  0  0  0  0  0  0  0  0  0  0  0
    2.8544    0.1679    0.0615 O   0  0  0  0  0  0  0  0  0  0  0  0
   -1.3679    2.0393    0.4156 S   0  0  0  0  0  0  0  0  0  0  0  0
   -2.9552    1.6321    1.0508 C   0  0  0  0  0  0  0  0  0  0  0  0
   -4.1513    2.7840    1.2236 S   0  0  0  0  0  0  0  0  0  0  0  0
   -3.0064    0.2891    1.3556 N   0  0  0  0  0  0  0  0  0  0  0  0
   -4.1905   -0.4151    1.8634 C   0  0  0  0  0  0  0  0  0  0  0  0
   -5.0035   -1.1496    0.7831 C   0  0  0  0  0  0  0  0  0  0  0  0
   -5.5689   -0.3039   -0.3452 C   0  0  0  0  0  0  0  0  0  0  0  0
   -5.8517   -1.3582   -1.3886 C   0  0  0  0  0  0  0  0  0  0  0  0
   -4.6629   -2.2832   -1.2278 C   0  0  0  0  0  0  0  0  0  0  0  0
   -4.2327   -2.1774    0.1376 O   0  0  0  0  0  0  0  0  0  0  0  0
    0.6485   -1.0913    0.6443 H   0  0  0  0  0  0  0  0  0  0  0  0
    0.8855    2.3558   -1.3654 H   0  0  0  0  0  0  0  0  0  0  0  0
    3.5165    2.7713   -1.8123 H   0  0  0  0  0  0  0  0  0  0  0  0
    5.6686    2.6456    0.1907 H   0  0  0  0  0  0  0  0  0  0  0  0
    8.0670    2.1715    0.4977 H   0  0  0  0  0  0  0  0  0  0  0  0
    8.9535   -0.1097    0.0811 H   0  0  0  0  0  0  0  0  0  0  0  0
    7.4311   -1.9095   -0.6638 H   0  0  0  0  0  0  0  0  0  0  0  0
   -4.8417    0.2845    2.3956 H   0  0  0  0  0  0  0  0  0  0  0  0
   -3.8456   -1.1541    2.5969 H   0  0  0  0  0  0  0  0  0  0  0  0
   -5.8324   -1.6634    1.2884 H   0  0  0  0  0  0  0  0  0  0  0  0
   -6.4557    0.2640   -0.0520 H   0  0  0  0  0  0  0  0  0  0  0  0
   -4.8228    0.3879   -0.7481 H   0  0  0  0  0  0  0  0  0  0  0  0
   -6.7776   -1.8904   -1.1404 H   0  0  0  0  0  0  0  0  0  0  0  0
   -5.9481   -0.9606   -2.4022 H   0  0  0  0  0  0  0  0  0  0  0  0
   -4.9073   -3.3239   -1.4583 H   0  0  0  0  0  0  0  0  0  0  0  0
   -3.8278   -1.9706   -1.8635 H   0  0  0  0  0  0  0  0  0  0  0  0
  1  2  2  0
  2  3  1  0
  3  4  2  3
  4  5  1  0
  5  6  2  0
  6  7  1  0
  7  8  2  0
  8  9  1  0
  9 10  2  0
 10 11  1  0
 11 12  2  0
 12 13  1  0
 13 14  2  0
 14 15  1  0
  8 16  1  0
  3 17  1  0
 17 18  1  0
 18 19  2  0
 18 20  1  0
 20 21  1  0
 21 22  1  0
 22 23  1  0
 23 24  1  0
 24 25  1  0
 25 26  1  0
 20  2  1  0
 26 22  1  0
 16  5  1  0
 14  9  1  0
  4 27  1  0
  6 28  1  0
  7 29  1  0
 10 30  1  0
 11 31  1  0
 12 32  1  0
 13 33  1  0
 21 34  1  0
 21 35  1  0
 22 36  1  0
 23 37  1  0
 23 38  1  0
 24 39  1  0
 24 40  1  0
 25 41  1  0
 25 42  1  0
M  END
$$$$
