
     RDKit          3D

 49 52  0  0  0  0  0  0  0  0999 V2000
   -3.8539    3.2842   -2.9656 C   0  0  0  0  0  0  0  0  0  0  0  0
   -2.4525    2.7697   -2.6965 C   0  0  0  0  0  0  0  0  0  0  0  0
   -2.5035    1.6179   -1.8421 O   0  0  0  0  0  0  0  0  0  0  0  0
   -2.5197    1.8681   -0.5028 C   0  0  0  0  0  0  0  0  0  0  0  0
   -2.5010    2.9801    0.0090 O   0  0  0  0  0  0  0  0  0  0  0  0
   -2.5356    0.5734    0.2816 C   0  0  0  0  0  0  0  0  0  0  0  0
   -1.2057   -0.1534    0.3852 C   0  0  0  0  0  0  0  0  0  0  0  0
   -0.0318    0.6235    0.2930 C   0  0  0  0  0  0  0  0  0  0  0  0
    1.2081    0.0136    0.2255 C   0  0  0  0  0  0  0  0  0  0  0  0
    2.4805    0.7569    0.1047 C   0  0  0  0  0  0  0  0  0  0  0  0
    2.5674    2.0054   -0.5343 C   0  0  0  0  0  0  0  0  0  0  0  0
    3.7858    2.6894   -0.6306 C   0  0  0  0  0  0  0  0  0  0  0  0
    4.9542    2.1468   -0.0973 C   0  0  0  0  0  0  0  0  0  0  0  0
    6.0716    2.9173   -0.2601 O   0  0  0  0  0  0  0  0  0  0  0  0
    7.2882    2.4003    0.2639 C   0  0  0  0  0  0  0  0  0  0  0  0
    4.8948    0.9074    0.5326 C   0  0  0  0  0  0  0  0  0  0  0  0
    3.6738    0.2247    0.6278 C   0  0  0  0  0  0  0  0  0  0  0  0
    1.3116   -1.3283    0.2528 N   0  0  0  0  0  0  0  0  0  0  0  0
    0.2142   -2.0815    0.4022 C   0  0  0  0  0  0  0  0  0  0  0  0
    0.4513   -3.4393    0.3944 C   0  0  0  0  0  0  0  0  0  0  0  0
   -0.5677   -4.3677    0.5536 C   0  0  0  0  0  0  0  0  0  0  0  0
   -1.8690   -3.9458    0.7936 C   0  0  0  0  0  0  0  0  0  0  0  0
   -2.8557   -4.9237    1.0105 C   0  0  0  0  0  0  0  0  0  0  0  0
   -4.1615   -4.5694    1.3231 C   0  0  0  0  0  0  0  0  0  0  0  0
   -4.4830   -3.2305    1.4442 C   0  0  0  0  0  0  0  0  0  0  0  0
   -3.5046   -2.2535    1.2187 C   0  0  0  0  0  0  0  0  0  0  0  0
   -2.1682   -2.5573    0.8399 C   0  0  0  0  0  0  0  0  0  0  0  0
   -1.1051   -1.5822    0.5511 C   0  0  0  0  0  0  0  0  0  0  0  0
   -3.8307    4.1264   -3.6628 H   0  0  0  0  0  0  0  0  0  0  0  0
   -4.3374    3.6105   -2.0394 H   0  0  0  0  0  0  0  0  0  0  0  0
   -4.4796    2.4917   -3.3893 H   0  0  0  0  0  0  0  0  0  0  0  0
   -1.8119    3.5514   -2.2726 H   0  0  0  0  0  0  0  0  0  0  0  0
   -1.9905    2.4502   -3.6364 H   0  0  0  0  0  0  0  0  0  0  0  0
   -3.2751   -0.0495   -0.2325 H   0  0  0  0  0  0  0  0  0  0  0  0
   -2.9073    0.7982    1.2877 H   0  0  0  0  0  0  0  0  0  0  0  0
   -0.0875    1.7081    0.2713 H   0  0  0  0  0  0  0  0  0  0  0  0
    1.6910    2.4634   -0.9863 H   0  0  0  0  0  0  0  0  0  0  0  0
    3.8220    3.6535   -1.1324 H   0  0  0  0  0  0  0  0  0  0  0  0
    7.2295    2.2770    1.3504 H   0  0  0  0  0  0  0  0  0  0  0  0
    8.0783    3.1277    0.0539 H   0  0  0  0  0  0  0  0  0  0  0  0
    7.5621    1.4606   -0.2272 H   0  0  0  0  0  0  0  0  0  0  0  0
    5.7732    0.4367    0.9606 H   0  0  0  0  0  0  0  0  0  0  0  0
    3.6566   -0.7448    1.1250 H   0  0  0  0  0  0  0  0  0  0  0  0
    1.4699   -3.7953    0.2502 H   0  0  0  0  0  0  0  0  0  0  0  0
   -0.3159   -5.4257    0.5231 H   0  0  0  0  0  0  0  0  0  0  0  0
   -2.6069   -5.9820    0.9520 H   0  0  0  0  0  0  0  0  0  0  0  0
   -4.9121   -5.3352    1.4963 H   0  0  0  0  0  0  0  0  0  0  0  0
   -5.4902   -2.9349    1.7272 H   0  0  0  0  0  0  0  0  0  0  0  0
   -3.8203   -1.2340    1.3994 H   0  0  0  0  0  0  0  0  0  0  0  0
  1  2  1  0
  2  3  1  0
  3  4  1  0
  4  5  2  0
  4  6  1  0
  6  7  1  0
  7  8  2  0
  8  9  1  0
  9 10  1  0
 10 11  2  0
 11 12  1  0
 12 13  2  0
 13 14  1  0
 14 15  1  0
 13 16  1  0
 16 17  2  0
  9 18  2  0
 18 19  1  0
 19 20  2  0
 20 21  1  0
 21 22  2  0
 22 23  1  0
 23 24  2  0
 24 25  1  0
 25 26  2  0
 26 27  1  0
 27 28  2  0
 28  7  1  0
 17 10  1  0
 28 19  1  0
 27 22  1  0
  1 29  1  0
  1 30  1  0
  1 31  1  0
  2 32  1  0
  2 33  1  0
  6 34  1  0
  6 35  1  0
  8 36  1  0
 11 37  1  0
 12 38  1  0
 15 39  1  0
 15 40  1  0
 15 41  1  0
 16 42  1  0
 17 43  1  0
 20 44  1  0
 21 45  1  0
 23 46  1  0
 24 47  1  0
 25 48  1  0
 26 49  1  0
M  END
$$$$
