
     RDKit          3D

 41 42  0  0  0  0  0  0  0  0999 V2000
   -7.5923   -1.9260    2.4626 C   0  0  0  0  0  0  0  0  0  0  0  0
   -7.0370   -1.7295    1.1674 O   0  0  0  0  0  0  0  0  0  0  0  0
   -5.9016   -0.9705    1.0919 C   0  0  0  0  0  0  0  0  0  0  0  0
   -5.2917   -0.2991    2.1510 C   0  0  0  0  0  0  0  0  0  0  0  0
   -4.1274    0.4483    1.9357 C   0  0  0  0  0  0  0  0  0  0  0  0
   -3.5598    0.5370    0.6581 C   0  0  0  0  0  0  0  0  0  0  0  0
   -2.3080    1.3499    0.4254 C   0  0  0  0  0  0  0  0  0  0  0  0
   -1.0614    0.5344    0.1473 C   0  0  0  0  0  0  0  0  0  0  0  0
   -1.0062   -0.6860    0.0614 O   0  0  0  0  0  0  0  0  0  0  0  0
   -0.0106    1.4195    0.0063 O   0  0  0  0  0  0  0  0  0  0  0  0
    1.1636    0.7210   -0.3321 N   0  0  0  0  0  0  0  0  0  0  0  0
    2.1701    1.5261   -0.5021 C   0  0  0  0  0  0  0  0  0  0  0  0
    2.0866    2.8911   -0.3340 N   0  0  0  0  0  0  0  0  0  0  0  0
    3.4881    0.9238   -0.8854 C   0  0  0  0  0  0  0  0  0  0  0  0
    3.7311   -0.4339   -0.6468 C   0  0  0  0  0  0  0  0  0  0  0  0
    4.9578   -1.0085   -1.0010 C   0  0  0  0  0  0  0  0  0  0  0  0
    5.9486   -0.2318   -1.6017 C   0  0  0  0  0  0  0  0  0  0  0  0
    7.1820   -0.6663   -2.0009 O   0  0  0  0  0  0  0  0  0  0  0  0
    7.4943   -2.0313   -1.7476 C   0  0  0  0  0  0  0  0  0  0  0  0
    5.7003    1.1215   -1.8488 C   0  0  0  0  0  0  0  0  0  0  0  0
    4.4769    1.7000   -1.4973 C   0  0  0  0  0  0  0  0  0  0  0  0
   -4.1768   -0.1397   -0.4010 C   0  0  0  0  0  0  0  0  0  0  0  0
   -5.3377   -0.8851   -0.1823 C   0  0  0  0  0  0  0  0  0  0  0  0
   -6.8794   -2.4269    3.1266 H   0  0  0  0  0  0  0  0  0  0  0  0
   -8.4646   -2.5783    2.3572 H   0  0  0  0  0  0  0  0  0  0  0  0
   -7.9364   -0.9785    2.8910 H   0  0  0  0  0  0  0  0  0  0  0  0
   -5.6952   -0.3348    3.1571 H   0  0  0  0  0  0  0  0  0  0  0  0
   -3.6702    0.9594    2.7811 H   0  0  0  0  0  0  0  0  0  0  0  0
   -2.4820    2.0209   -0.4251 H   0  0  0  0  0  0  0  0  0  0  0  0
   -2.1106    1.9735    1.3057 H   0  0  0  0  0  0  0  0  0  0  0  0
    1.2423    3.1641    0.1556 H   0  0  0  0  0  0  0  0  0  0  0  0
    2.9116    3.3274    0.0637 H   0  0  0  0  0  0  0  0  0  0  0  0
    2.9676   -1.0554   -0.1831 H   0  0  0  0  0  0  0  0  0  0  0  0
    5.0998   -2.0647   -0.7981 H   0  0  0  0  0  0  0  0  0  0  0  0
    7.5070   -2.2344   -0.6710 H   0  0  0  0  0  0  0  0  0  0  0  0
    8.5006   -2.2213   -2.1339 H   0  0  0  0  0  0  0  0  0  0  0  0
    6.8064   -2.7022   -2.2723 H   0  0  0  0  0  0  0  0  0  0  0  0
    6.4645    1.7264   -2.3305 H   0  0  0  0  0  0  0  0  0  0  0  0
    4.3020    2.7445   -1.7356 H   0  0  0  0  0  0  0  0  0  0  0  0
   -3.7517   -0.1065   -1.4018 H   0  0  0  0  0  0  0  0  0  0  0  0
   -5.8007   -1.4138   -1.0126 H   0  0  0  0  0  0  0  0  0  0  0  0
  1  2  1  0
  2  3  1  0
  3  4  2  0
  4  5  1  0
  5  6  2  0
  6  7  1  0
  7  8  1  0
  8  9  2  0
  8 10  1  0
 10 11  1  0
 11 12  2  3
 12 13  1  0
 12 14  1  0
 14 15  2  0
 15 16  1  0
 16 17  2  0
 17 18  1  0
 18 19  1  0
 17 20  1  0
 20 21  2  0
  6 22  1  0
 22 23  2  0
 23  3  1  0
 21 14  1  0
  1 24  1  0
  1 25  1  0
  1 26  1  0
  4 27  1  0
  5 28  1  0
  7 29  1  0
  7 30  1  0
 13 31  1  0
 13 32  1  0
 15 33  1  0
 16 34  1  0
 19 35  1  0
 19 36  1  0
 19 37  1  0
 20 38  1  0
 21 39  1  0
 22 40  1  0
 23 41  1  0
M  END
$$$$
