
     RDKit          3D

 41 43  0  0  0  0  0  0  0  0999 V2000
   -3.0502    1.8863    1.9107 O   0  0  0  0  0  0  0  0  0  0  0  0
   -3.3787    1.0369    1.0918 C   0  0  0  0  0  0  0  0  0  0  0  0
   -2.5613    0.4239    0.1580 N   0  0  0  0  0  0  0  0  0  0  0  0
   -1.2049    0.7098   -0.1085 C   0  0  0  0  0  0  0  0  0  0  0  0
   -0.5034    1.7620    0.4767 C   0  0  0  0  0  0  0  0  0  0  0  0
    0.8324    1.9914    0.1410 C   0  0  0  0  0  0  0  0  0  0  0  0
    1.4850    1.1619   -0.7720 C   0  0  0  0  0  0  0  0  0  0  0  0
    0.8100    0.0844   -1.3452 C   0  0  0  0  0  0  0  0  0  0  0  0
    1.3881   -0.7993   -2.2804 N   0  0  0  0  0  0  0  0  0  0  0  0
    2.6977   -1.0549   -2.6069 C   0  0  0  0  0  0  0  0  0  0  0  0
    2.9684   -1.8555   -4.0484 S   0  0  0  0  0  0  0  0  0  0  0  0
    3.6410   -0.6949   -1.6702 N   0  0  0  0  0  0  0  0  0  0  0  0
    5.0316   -0.7939   -1.7191 C   0  0  0  0  0  0  0  0  0  0  0  0
    5.6766   -0.7618   -2.7628 O   0  0  0  0  0  0  0  0  0  0  0  0
    5.6899   -0.8244   -0.4135 C   0  0  0  0  0  0  0  0  0  0  0  0
    7.0532   -0.8583   -0.1783 C   0  0  0  0  0  0  0  0  0  0  0  0
    7.3728   -0.8828    1.2097 C   0  0  0  0  0  0  0  0  0  0  0  0
    6.2437   -0.8684    1.9962 C   0  0  0  0  0  0  0  0  0  0  0  0
    4.8132   -0.8267    1.0622 S   0  0  0  0  0  0  0  0  0  0  0  0
   -0.5422   -0.1152   -1.0299 C   0  0  0  0  0  0  0  0  0  0  0  0
   -4.7879    0.5519    1.1012 C   0  0  0  0  0  0  0  0  0  0  0  0
   -5.4546    0.4585    2.3289 C   0  0  0  0  0  0  0  0  0  0  0  0
   -6.7739    0.0061    2.3761 C   0  0  0  0  0  0  0  0  0  0  0  0
   -7.4336   -0.3429    1.1978 C   0  0  0  0  0  0  0  0  0  0  0  0
   -6.7806   -0.2324   -0.0302 C   0  0  0  0  0  0  0  0  0  0  0  0
   -5.4598    0.2185   -0.0828 C   0  0  0  0  0  0  0  0  0  0  0  0
   -2.9541   -0.3631   -0.3416 H   0  0  0  0  0  0  0  0  0  0  0  0
   -0.9726    2.4391    1.1842 H   0  0  0  0  0  0  0  0  0  0  0  0
    1.3579    2.8359    0.5815 H   0  0  0  0  0  0  0  0  0  0  0  0
    2.4997    1.4246   -1.0538 H   0  0  0  0  0  0  0  0  0  0  0  0
    0.7366   -1.3007   -2.8777 H   0  0  0  0  0  0  0  0  0  0  0  0
    3.2698   -0.6494   -0.7317 H   0  0  0  0  0  0  0  0  0  0  0  0
    7.7867   -0.8647   -0.9778 H   0  0  0  0  0  0  0  0  0  0  0  0
    8.3798   -0.9101    1.6088 H   0  0  0  0  0  0  0  0  0  0  0  0
    6.1901   -0.8814    3.0766 H   0  0  0  0  0  0  0  0  0  0  0  0
   -1.0790   -0.9402   -1.4913 H   0  0  0  0  0  0  0  0  0  0  0  0
   -4.9459    0.7379    3.2496 H   0  0  0  0  0  0  0  0  0  0  0  0
   -7.2882   -0.0678    3.3313 H   0  0  0  0  0  0  0  0  0  0  0  0
   -8.4638   -0.6896    1.2362 H   0  0  0  0  0  0  0  0  0  0  0  0
   -7.3072   -0.4859   -0.9474 H   0  0  0  0  0  0  0  0  0  0  0  0
   -4.9826    0.3349   -1.0519 H   0  0  0  0  0  0  0  0  0  0  0  0
  1  2  2  0
  2  3  1  0
  3  4  1  0
  4  5  2  0
  5  6  1  0
  6  7  2  0
  7  8  1  0
  8  9  1  0
  9 10  1  0
 10 11  2  0
 10 12  1  0
 12 13  1  0
 13 14  2  0
 13 15  1  0
 15 16  2  0
 16 17  1  0
 17 18  2  0
 18 19  1  0
  8 20  2  0
  2 21  1  0
 21 22  2  0
 22 23  1  0
 23 24  2  0
 24 25  1  0
 25 26  2  0
 20  4  1  0
 26 21  1  0
 19 15  1  0
  3 27  1  0
  5 28  1  0
  6 29  1  0
  7 30  1  0
  9 31  1  0
 12 32  1  0
 16 33  1  0
 17 34  1  0
 18 35  1  0
 20 36  1  0
 22 37  1  0
 23 38  1  0
 24 39  1  0
 25 40  1  0
 26 41  1  0
M  END
$$$$
