
     RDKit          3D

 46 48  0  0  0  0  0  0  0  0999 V2000
    8.1739   -1.4446   -0.8087 C   0  0  0  0  0  0  0  0  0  0  0  0
    7.5837   -0.6030    0.1745 O   0  0  0  0  0  0  0  0  0  0  0  0
    6.1585   -0.6904    0.2015 C   0  0  0  0  0  0  0  0  0  0  0  0
    5.5186    0.2463   -0.8293 C   0  0  0  0  0  0  0  0  0  0  0  0
    4.0620    0.1127   -0.8685 N   0  0  0  0  0  0  0  0  0  0  0  0
    3.3038    0.8575    0.0177 C   0  0  0  0  0  0  0  0  0  0  0  0
    3.7368    1.6382    0.8537 O   0  0  0  0  0  0  0  0  0  0  0  0
    1.8597    0.5606   -0.1648 C   0  0  0  0  0  0  0  0  0  0  0  0
    0.9167    1.1678    0.5672 C   0  0  0  0  0  0  0  0  0  0  0  0
   -0.5261    0.9216    0.4617 C   0  0  0  0  0  0  0  0  0  0  0  0
   -1.2411    1.5199   -0.5776 C   0  0  0  0  0  0  0  0  0  0  0  0
   -2.6186    1.3058   -0.7111 C   0  0  0  0  0  0  0  0  0  0  0  0
   -3.3355    0.4947    0.1782 C   0  0  0  0  0  0  0  0  0  0  0  0
   -4.6878    0.2871    0.0425 N   0  0  0  0  0  0  0  0  0  0  0  0
   -5.4786    0.7423   -1.0989 C   0  0  0  0  0  0  0  0  0  0  0  0
   -6.8071    0.0063   -0.9435 C   0  0  0  0  0  0  0  0  0  0  0  0
   -6.9422   -0.1433    0.5613 C   0  0  0  0  0  0  0  0  0  0  0  0
   -5.5120   -0.4368    1.0071 C   0  0  0  0  0  0  0  0  0  0  0  0
   -2.5937   -0.0925    1.2173 C   0  0  0  0  0  0  0  0  0  0  0  0
   -1.2063    0.1072    1.3778 C   0  0  0  0  0  0  0  0  0  0  0  0
   -0.4926   -0.5719    2.5149 C   0  0  0  0  0  0  0  0  0  0  0  0
    1.6495   -0.6334   -1.3804 S   0  0  0  0  0  0  0  0  0  0  0  0
    3.3775   -0.7731   -1.6745 C   0  0  0  0  0  0  0  0  0  0  0  0
    4.0070   -1.8523   -2.7804 S   0  0  0  0  0  0  0  0  0  0  0  0
    7.8477   -1.1638   -1.8136 H   0  0  0  0  0  0  0  0  0  0  0  0
    7.9290   -2.4927   -0.6118 H   0  0  0  0  0  0  0  0  0  0  0  0
    9.2594   -1.3262   -0.7523 H   0  0  0  0  0  0  0  0  0  0  0  0
    5.8384   -0.3918    1.2060 H   0  0  0  0  0  0  0  0  0  0  0  0
    5.8358   -1.7296    0.0668 H   0  0  0  0  0  0  0  0  0  0  0  0
    5.9330    0.0694   -1.8260 H   0  0  0  0  0  0  0  0  0  0  0  0
    5.7808    1.2821   -0.5799 H   0  0  0  0  0  0  0  0  0  0  0  0
    1.1971    1.9005    1.3220 H   0  0  0  0  0  0  0  0  0  0  0  0
   -0.7387    2.1613   -1.2978 H   0  0  0  0  0  0  0  0  0  0  0  0
   -3.1242    1.8027   -1.5339 H   0  0  0  0  0  0  0  0  0  0  0  0
   -5.6310    1.8261   -1.0423 H   0  0  0  0  0  0  0  0  0  0  0  0
   -5.0189    0.4893   -2.0603 H   0  0  0  0  0  0  0  0  0  0  0  0
   -6.7461   -0.9831   -1.4130 H   0  0  0  0  0  0  0  0  0  0  0  0
   -7.6419    0.5491   -1.3954 H   0  0  0  0  0  0  0  0  0  0  0  0
   -7.6415   -0.9325    0.8509 H   0  0  0  0  0  0  0  0  0  0  0  0
   -7.2873    0.8004    1.0009 H   0  0  0  0  0  0  0  0  0  0  0  0
   -5.3048   -1.5115    0.9483 H   0  0  0  0  0  0  0  0  0  0  0  0
   -5.3599   -0.0925    2.0357 H   0  0  0  0  0  0  0  0  0  0  0  0
   -3.0983   -0.7398    1.9302 H   0  0  0  0  0  0  0  0  0  0  0  0
    0.2332   -1.2952    2.1296 H   0  0  0  0  0  0  0  0  0  0  0  0
   -1.1900   -1.1148    3.1616 H   0  0  0  0  0  0  0  0  0  0  0  0
    0.0219    0.1659    3.1391 H   0  0  0  0  0  0  0  0  0  0  0  0
  1  2  1  0
  2  3  1  0
  3  4  1  0
  4  5  1  0
  5  6  1  0
  6  7  2  0
  6  8  1  0
  8  9  2  3
  9 10  1  0
 10 11  2  0
 11 12  1  0
 12 13  2  0
 13 14  1  0
 14 15  1  0
 15 16  1  0
 16 17  1  0
 17 18  1  0
 13 19  1  0
 19 20  2  0
 20 21  1  0
  8 22  1  0
 22 23  1  0
 23 24  2  0
 23  5  1  0
 20 10  1  0
 18 14  1  0
  1 25  1  0
  1 26  1  0
  1 27  1  0
  3 28  1  0
  3 29  1  0
  4 30  1  0
  4 31  1  0
  9 32  1  0
 11 33  1  0
 12 34  1  0
 15 35  1  0
 15 36  1  0
 16 37  1  0
 16 38  1  0
 17 39  1  0
 17 40  1  0
 18 41  1  0
 18 42  1  0
 19 43  1  0
 21 44  1  0
 21 45  1  0
 21 46  1  0
M  END
$$$$
