
     RDKit          3D

 40 42  0  0  0  0  0  0  0  0999 V2000
   -5.5196    1.3927    1.5058 C   0  0  0  0  0  0  0  0  0  0  0  0
   -4.4216    0.8943    0.5686 C   0  0  0  0  0  0  0  0  0  0  0  0
   -3.0294    1.0936    1.1999 C   0  0  0  0  0  0  0  0  0  0  0  0
   -1.9003    0.6964    0.2349 C   0  0  0  0  0  0  0  0  0  0  0  0
   -2.1720   -0.6129   -0.4558 C   0  0  0  0  0  0  0  0  0  0  0  0
   -1.2453   -1.4082   -1.2327 C   0  0  0  0  0  0  0  0  0  0  0  0
    0.1853   -1.1777   -1.4653 C   0  0  0  0  0  0  0  0  0  0  0  0
    0.6652   -1.2901   -2.5862 O   0  0  0  0  0  0  0  0  0  0  0  0
    0.8789   -0.9035   -0.3033 N   0  0  0  0  0  0  0  0  0  0  0  0
    2.2459   -0.5958   -0.1667 C   0  0  0  0  0  0  0  0  0  0  0  0
    3.1196   -0.4203   -1.2399 C   0  0  0  0  0  0  0  0  0  0  0  0
    4.4698   -0.1063   -1.0232 C   0  0  0  0  0  0  0  0  0  0  0  0
    4.9618    0.0387    0.2723 C   0  0  0  0  0  0  0  0  0  0  0  0
    6.2439    0.3406    0.6284 O   0  0  0  0  0  0  0  0  0  0  0  0
    7.1912    0.5279   -0.4093 C   0  0  0  0  0  0  0  0  0  0  0  0
    8.3891    0.8156    0.1472 F   0  0  0  0  0  0  0  0  0  0  0  0
    7.3320   -0.5916   -1.1502 F   0  0  0  0  0  0  0  0  0  0  0  0
    6.8427    1.5593   -1.2076 F   0  0  0  0  0  0  0  0  0  0  0  0
    4.0872   -0.1325    1.3472 C   0  0  0  0  0  0  0  0  0  0  0  0
    2.7413   -0.4453    1.1319 C   0  0  0  0  0  0  0  0  0  0  0  0
   -1.8959   -2.4764   -1.8281 C   0  0  0  0  0  0  0  0  0  0  0  0
   -3.5456   -2.5759   -1.4070 S   0  0  0  0  0  0  0  0  0  0  0  0
   -3.4463   -1.1538   -0.4833 C   0  0  0  0  0  0  0  0  0  0  0  0
   -4.6501   -0.5889    0.2096 C   0  0  0  0  0  0  0  0  0  0  0  0
   -5.3857    2.4563    1.7291 H   0  0  0  0  0  0  0  0  0  0  0  0
   -6.5064    1.2676    1.0480 H   0  0  0  0  0  0  0  0  0  0  0  0
   -5.5132    0.8449    2.4542 H   0  0  0  0  0  0  0  0  0  0  0  0
   -4.4667    1.4896   -0.3540 H   0  0  0  0  0  0  0  0  0  0  0  0
   -2.8915    2.1393    1.4996 H   0  0  0  0  0  0  0  0  0  0  0  0
   -2.9543    0.4889    2.1138 H   0  0  0  0  0  0  0  0  0  0  0  0
   -0.9639    0.6638    0.7981 H   0  0  0  0  0  0  0  0  0  0  0  0
   -1.7920    1.4727   -0.5328 H   0  0  0  0  0  0  0  0  0  0  0  0
    0.3546   -1.0080    0.5549 H   0  0  0  0  0  0  0  0  0  0  0  0
    2.7850   -0.5163   -2.2690 H   0  0  0  0  0  0  0  0  0  0  0  0
    5.0979    0.0155   -1.9014 H   0  0  0  0  0  0  0  0  0  0  0  0
    4.4533   -0.0228    2.3659 H   0  0  0  0  0  0  0  0  0  0  0  0
    2.0941   -0.5713    1.9960 H   0  0  0  0  0  0  0  0  0  0  0  0
   -1.4633   -3.2185   -2.4870 H   0  0  0  0  0  0  0  0  0  0  0  0
   -4.8341   -1.1732    1.1204 H   0  0  0  0  0  0  0  0  0  0  0  0
   -5.5414   -0.6769   -0.4233 H   0  0  0  0  0  0  0  0  0  0  0  0
  1  2  1  0
  2  3  1  0
  3  4  1  0
  4  5  1  0
  5  6  1  0
  6  7  1  0
  7  8  2  0
  7  9  1  0
  9 10  1  0
 10 11  2  0
 11 12  1  0
 12 13  2  0
 13 14  1  0
 14 15  1  0
 15 16  1  0
 15 17  1  0
 15 18  1  0
 13 19  1  0
 19 20  2  0
  6 21  2  0
 21 22  1  0
 22 23  1  0
 23 24  1  0
 24  2  1  0
 23  5  2  0
 20 10  1  0
  1 25  1  0
  1 26  1  0
  1 27  1  0
  2 28  1  0
  3 29  1  0
  3 30  1  0
  4 31  1  0
  4 32  1  0
  9 33  1  0
 11 34  1  0
 12 35  1  0
 19 36  1  0
 20 37  1  0
 21 38  1  0
 24 39  1  0
 24 40  1  0
M  END
$$$$
