
     RDKit          3D

 63 65  0  0  0  0  0  0  0  0999 V2000
   -0.8747   -3.5179   -0.7398 C   0  0  0  0  0  0  0  0  0  0  0  0
   -0.0016   -2.2688   -0.8104 C   0  0  0  0  0  0  0  0  0  0  0  0
   -0.2600   -1.3049    0.2718 N   0  0  0  0  0  0  0  0  0  0  0  0
    0.3966   -0.0041    0.0125 C   0  0  0  0  0  0  0  0  0  0  0  0
    1.9342   -0.0704   -0.0689 C   0  0  0  0  0  0  0  0  0  0  0  0
    2.6015   -0.6773    0.7657 O   0  0  0  0  0  0  0  0  0  0  0  0
    2.4414    0.6356   -1.1522 N   0  0  0  0  0  0  0  0  0  0  0  0
    3.7972    0.8536   -1.4733 C   0  0  0  0  0  0  0  0  0  0  0  0
    4.8657    0.4112   -0.6962 C   0  0  0  0  0  0  0  0  0  0  0  0
    6.1845    0.6954   -1.0724 C   0  0  0  0  0  0  0  0  0  0  0  0
    6.4598    1.4259   -2.2318 C   0  0  0  0  0  0  0  0  0  0  0  0
    7.8146    1.6831   -2.5227 N   0  0  0  0  0  0  0  0  0  0  0  0
    8.3246    2.3931   -3.5942 C   0  0  0  0  0  0  0  0  0  0  0  0
    9.8288    2.4935   -3.5522 C   0  0  0  0  0  0  0  0  0  0  0  0
    7.6910    2.8895   -4.5186 O   0  0  0  0  0  0  0  0  0  0  0  0
    5.3925    1.8608   -3.0144 C   0  0  0  0  0  0  0  0  0  0  0  0
    4.0725    1.5781   -2.6370 C   0  0  0  0  0  0  0  0  0  0  0  0
    0.0744   -1.8408    1.6163 C   0  0  0  0  0  0  0  0  0  0  0  0
   -1.1782   -2.4127    2.3031 C   0  0  0  0  0  0  0  0  0  0  0  0
   -1.0843   -3.2633    3.1830 O   0  0  0  0  0  0  0  0  0  0  0  0
   -2.3402   -1.7994    1.8714 N   0  0  0  0  0  0  0  0  0  0  0  0
   -3.6683   -1.9900    2.3038 C   0  0  0  0  0  0  0  0  0  0  0  0
   -4.0120   -2.9440    3.2668 C   0  0  0  0  0  0  0  0  0  0  0  0
   -5.3430   -3.1202    3.6582 C   0  0  0  0  0  0  0  0  0  0  0  0
   -6.3514   -2.3440    3.0958 C   0  0  0  0  0  0  0  0  0  0  0  0
   -6.0300   -1.3783    2.1461 C   0  0  0  0  0  0  0  0  0  0  0  0
   -4.6936   -1.1851    1.7608 C   0  0  0  0  0  0  0  0  0  0  0  0
   -4.3790   -0.1134    0.7752 C   0  0  0  0  0  0  0  0  0  0  0  0
   -3.5502   -0.3189   -0.1082 O   0  0  0  0  0  0  0  0  0  0  0  0
   -5.0407    1.2143    0.8452 C   0  0  0  0  0  0  0  0  0  0  0  0
   -5.3191    1.8852   -0.3505 C   0  0  0  0  0  0  0  0  0  0  0  0
   -5.9366    3.1357   -0.3215 C   0  0  0  0  0  0  0  0  0  0  0  0
   -6.2647    3.7238    0.8991 C   0  0  0  0  0  0  0  0  0  0  0  0
   -5.9664    3.0686    2.0932 C   0  0  0  0  0  0  0  0  0  0  0  0
   -5.3511    1.8149    2.0706 C   0  0  0  0  0  0  0  0  0  0  0  0
   -0.7243   -4.1262   -1.6374 H   0  0  0  0  0  0  0  0  0  0  0  0
   -1.9356   -3.2580   -0.6898 H   0  0  0  0  0  0  0  0  0  0  0  0
   -0.6222   -4.1404    0.1249 H   0  0  0  0  0  0  0  0  0  0  0  0
    1.0528   -2.5694   -0.8339 H   0  0  0  0  0  0  0  0  0  0  0  0
   -0.2181   -1.7870   -1.7734 H   0  0  0  0  0  0  0  0  0  0  0  0
    0.1359    0.7156    0.7985 H   0  0  0  0  0  0  0  0  0  0  0  0
   -0.0172    0.4098   -0.9161 H   0  0  0  0  0  0  0  0  0  0  0  0
    1.7684    1.0453   -1.7896 H   0  0  0  0  0  0  0  0  0  0  0  0
    4.7151   -0.1493    0.2192 H   0  0  0  0  0  0  0  0  0  0  0  0
    6.9863    0.3368   -0.4321 H   0  0  0  0  0  0  0  0  0  0  0  0
    8.4828    1.3206   -1.8565 H   0  0  0  0  0  0  0  0  0  0  0  0
   10.1405    3.4209   -4.0394 H   0  0  0  0  0  0  0  0  0  0  0  0
   10.2626    1.6411   -4.0803 H   0  0  0  0  0  0  0  0  0  0  0  0
   10.1982    2.5129   -2.5235 H   0  0  0  0  0  0  0  0  0  0  0  0
    5.5475    2.4264   -3.9265 H   0  0  0  0  0  0  0  0  0  0  0  0
    3.2700    1.9402   -3.2741 H   0  0  0  0  0  0  0  0  0  0  0  0
    0.4252   -1.0455    2.2873 H   0  0  0  0  0  0  0  0  0  0  0  0
    0.8477   -2.6148    1.5691 H   0  0  0  0  0  0  0  0  0  0  0  0
   -2.2014   -1.1888    1.0583 H   0  0  0  0  0  0  0  0  0  0  0  0
   -3.2645   -3.5843    3.7255 H   0  0  0  0  0  0  0  0  0  0  0  0
   -5.5884   -3.8803    4.3974 H   0  0  0  0  0  0  0  0  0  0  0  0
   -7.3856   -2.4948    3.3936 H   0  0  0  0  0  0  0  0  0  0  0  0
   -6.8312   -0.7896    1.7065 H   0  0  0  0  0  0  0  0  0  0  0  0
   -5.0574    1.4334   -1.3052 H   0  0  0  0  0  0  0  0  0  0  0  0
   -6.1613    3.6507   -1.2515 H   0  0  0  0  0  0  0  0  0  0  0  0
   -6.7442    4.7001    0.9195 H   0  0  0  0  0  0  0  0  0  0  0  0
   -6.2092    3.5359    3.0433 H   0  0  0  0  0  0  0  0  0  0  0  0
   -5.1067    1.3295    3.0117 H   0  0  0  0  0  0  0  0  0  0  0  0
  1  2  1  0
  2  3  1  0
  3  4  1  0
  4  5  1  0
  5  6  2  0
  5  7  1  0
  7  8  1  0
  8  9  2  0
  9 10  1  0
 10 11  2  0
 11 12  1  0
 12 13  1  0
 13 14  1  0
 13 15  2  0
 11 16  1  0
 16 17  2  0
  3 18  1  0
 18 19  1  0
 19 20  2  0
 19 21  1  0
 21 22  1  0
 22 23  2  0
 23 24  1  0
 24 25  2  0
 25 26  1  0
 26 27  2  0
 27 28  1  0
 28 29  2  0
 28 30  1  0
 30 31  2  0
 31 32  1  0
 32 33  2  0
 33 34  1  0
 34 35  2  0
 17  8  1  0
 27 22  1  0
 35 30  1  0
  1 36  1  0
  1 37  1  0
  1 38  1  0
  2 39  1  0
  2 40  1  0
  4 41  1  0
  4 42  1  0
  7 43  1  0
  9 44  1  0
 10 45  1  0
 12 46  1  0
 14 47  1  0
 14 48  1  0
 14 49  1  0
 16 50  1  0
 17 51  1  0
 18 52  1  0
 18 53  1  0
 21 54  1  0
 23 55  1  0
 24 56  1  0
 25 57  1  0
 26 58  1  0
 31 59  1  0
 32 60  1  0
 33 61  1  0
 34 62  1  0
 35 63  1  0
M  END
$$$$
