
     RDKit          3D

 57 60  0  0  0  0  0  0  0  0999 V2000
    8.9300   -0.9232   -1.5254 C   0  0  0  0  0  0  0  0  0  0  0  0
    8.1522   -2.0929   -1.7471 O   0  0  0  0  0  0  0  0  0  0  0  0
    7.0011   -2.2162   -1.0197 C   0  0  0  0  0  0  0  0  0  0  0  0
    6.5156   -1.3002   -0.0867 C   0  0  0  0  0  0  0  0  0  0  0  0
    5.3207   -1.5561    0.5952 C   0  0  0  0  0  0  0  0  0  0  0  0
    4.5990   -2.7328    0.3552 C   0  0  0  0  0  0  0  0  0  0  0  0
    3.3067   -2.9995    1.0800 C   0  0  0  0  0  0  0  0  0  0  0  0
    2.1185   -2.3488    0.4158 C   0  0  0  0  0  0  0  0  0  0  0  0
    1.5586   -1.3368    0.8270 O   0  0  0  0  0  0  0  0  0  0  0  0
    1.7332   -3.0433   -0.6892 O   0  0  0  0  0  0  0  0  0  0  0  0
    0.6418   -2.4742   -1.4133 C   0  0  0  0  0  0  0  0  0  0  0  0
   -0.7106   -2.6584   -0.7206 C   0  0  0  0  0  0  0  0  0  0  0  0
   -1.3812   -3.6794   -0.8603 O   0  0  0  0  0  0  0  0  0  0  0  0
   -1.0383   -1.6474    0.1531 N   0  0  0  0  0  0  0  0  0  0  0  0
   -2.0305   -0.7767   -0.2260 C   0  0  0  0  0  0  0  0  0  0  0  0
   -2.6991   -0.8763   -1.2448 O   0  0  0  0  0  0  0  0  0  0  0  0
   -2.1479    0.2492    0.6898 N   0  0  0  0  0  0  0  0  0  0  0  0
   -3.1701    1.3026    0.6144 C   0  0  0  0  0  0  0  0  0  0  0  0
   -3.0790    2.1194   -0.7009 C   0  0  0  0  0  0  0  0  0  0  0  0
   -4.1313    3.2438   -0.7151 C   0  0  0  0  0  0  0  0  0  0  0  0
   -3.8790    4.1911    0.4680 C   0  0  0  0  0  0  0  0  0  0  0  0
   -3.9773    3.4150    1.7903 C   0  0  0  0  0  0  0  0  0  0  0  0
   -5.3800    2.8005    1.9177 C   0  0  0  0  0  0  0  0  0  0  0  0
   -5.6457    1.8473    0.7410 C   0  0  0  0  0  0  0  0  0  0  0  0
   -5.5343    2.6276   -0.5805 C   0  0  0  0  0  0  0  0  0  0  0  0
   -4.5983    0.7204    0.7527 C   0  0  0  0  0  0  0  0  0  0  0  0
   -2.9341    2.2860    1.7934 C   0  0  0  0  0  0  0  0  0  0  0  0
    5.0837   -3.6431   -0.5915 C   0  0  0  0  0  0  0  0  0  0  0  0
    6.2774   -3.3846   -1.2687 C   0  0  0  0  0  0  0  0  0  0  0  0
    9.2841   -0.8748   -0.4891 H   0  0  0  0  0  0  0  0  0  0  0  0
    8.3693   -0.0191   -1.7962 H   0  0  0  0  0  0  0  0  0  0  0  0
    9.8094   -0.9773   -2.1789 H   0  0  0  0  0  0  0  0  0  0  0  0
    7.0410   -0.3771    0.1341 H   0  0  0  0  0  0  0  0  0  0  0  0
    4.9608   -0.8260    1.3183 H   0  0  0  0  0  0  0  0  0  0  0  0
    3.1178   -4.0769    1.1719 H   0  0  0  0  0  0  0  0  0  0  0  0
    3.3718   -2.6256    2.1105 H   0  0  0  0  0  0  0  0  0  0  0  0
    0.8280   -1.4113   -1.6185 H   0  0  0  0  0  0  0  0  0  0  0  0
    0.5927   -2.9643   -2.3905 H   0  0  0  0  0  0  0  0  0  0  0  0
   -0.2377   -1.1237    0.4950 H   0  0  0  0  0  0  0  0  0  0  0  0
   -1.8796   -0.0261    1.6254 H   0  0  0  0  0  0  0  0  0  0  0  0
   -3.2380    1.4818   -1.5771 H   0  0  0  0  0  0  0  0  0  0  0  0
   -2.0730    2.5445   -0.8110 H   0  0  0  0  0  0  0  0  0  0  0  0
   -4.0631    3.8016   -1.6557 H   0  0  0  0  0  0  0  0  0  0  0  0
   -4.6112    5.0077    0.4574 H   0  0  0  0  0  0  0  0  0  0  0  0
   -2.8883    4.6526    0.3746 H   0  0  0  0  0  0  0  0  0  0  0  0
   -3.7918    4.0920    2.6314 H   0  0  0  0  0  0  0  0  0  0  0  0
   -5.4654    2.2578    2.8666 H   0  0  0  0  0  0  0  0  0  0  0  0
   -6.1369    3.5929    1.9357 H   0  0  0  0  0  0  0  0  0  0  0  0
   -6.6487    1.4166    0.8356 H   0  0  0  0  0  0  0  0  0  0  0  0
   -6.2930    3.4200   -0.6129 H   0  0  0  0  0  0  0  0  0  0  0  0
   -5.7345    1.9609   -1.4286 H   0  0  0  0  0  0  0  0  0  0  0  0
   -4.8139    0.0194   -0.0631 H   0  0  0  0  0  0  0  0  0  0  0  0
   -4.6842    0.1428    1.6827 H   0  0  0  0  0  0  0  0  0  0  0  0
   -2.9800    1.7463    2.7490 H   0  0  0  0  0  0  0  0  0  0  0  0
   -1.9243    2.7126    1.7318 H   0  0  0  0  0  0  0  0  0  0  0  0
    4.5402   -4.5595   -0.8119 H   0  0  0  0  0  0  0  0  0  0  0  0
    6.6468   -4.1008   -1.9989 H   0  0  0  0  0  0  0  0  0  0  0  0
  1  2  1  0
  2  3  1  0
  3  4  2  0
  4  5  1  0
  5  6  2  0
  6  7  1  0
  7  8  1  0
  8  9  2  0
  8 10  1  0
 10 11  1  0
 11 12  1  0
 12 13  2  0
 12 14  1  0
 14 15  1  0
 15 16  2  0
 15 17  1  0
 17 18  1  0
 18 19  1  0
 19 20  1  0
 20 21  1  0
 21 22  1  0
 22 23  1  0
 23 24  1  0
 24 25  1  0
 24 26  1  0
 22 27  1  0
  6 28  1  0
 28 29  2  0
 29  3  1  0
 26 18  1  0
 27 18  1  0
 25 20  1  0
  1 30  1  0
  1 31  1  0
  1 32  1  0
  4 33  1  0
  5 34  1  0
  7 35  1  0
  7 36  1  0
 11 37  1  0
 11 38  1  0
 14 39  1  0
 17 40  1  0
 19 41  1  0
 19 42  1  0
 20 43  1  0
 21 44  1  0
 21 45  1  0
 22 46  1  0
 23 47  1  0
 23 48  1  0
 24 49  1  0
 25 50  1  0
 25 51  1  0
 26 52  1  0
 26 53  1  0
 27 54  1  0
 27 55  1  0
 28 56  1  0
 29 57  1  0
M  END
$$$$
