
     RDKit          3D

 38 39  0  0  0  0  0  0  0  0999 V2000
    0.6379   -2.3382    0.2296 O   0  0  0  0  0  0  0  0  0  0  0  0
   -0.5332   -2.5804    0.4726 C   0  0  0  0  0  0  0  0  0  0  0  0
   -0.8738   -3.5259    1.3675 O   0  0  0  0  0  0  0  0  0  0  0  0
   -1.7376   -1.9103   -0.1274 C   0  0  0  0  0  0  0  0  0  0  0  0
   -1.3661   -0.9541   -1.2595 C   0  0  0  0  0  0  0  0  0  0  0  0
   -1.3193    0.4907   -0.7726 C   0  0  0  0  0  0  0  0  0  0  0  0
   -0.2613    1.0669   -0.2809 N   0  0  0  0  0  0  0  0  0  0  0  0
    0.9053    0.3847   -0.1479 N   0  0  0  0  0  0  0  0  0  0  0  0
    2.0320    1.0407    0.3177 C   0  0  0  0  0  0  0  0  0  0  0  0
    2.1044    2.2272    0.6240 O   0  0  0  0  0  0  0  0  0  0  0  0
    3.2208    0.1786    0.5229 C   0  0  0  0  0  0  0  0  0  0  0  0
    3.8433    0.2677    1.7787 C   0  0  0  0  0  0  0  0  0  0  0  0
    4.9594   -0.5159    2.0727 C   0  0  0  0  0  0  0  0  0  0  0  0
    5.4670   -1.3869    1.1118 C   0  0  0  0  0  0  0  0  0  0  0  0
    4.8667   -1.4663   -0.1467 C   0  0  0  0  0  0  0  0  0  0  0  0
    3.7469   -0.6811   -0.4495 C   0  0  0  0  0  0  0  0  0  0  0  0
    3.0642   -0.8058   -2.2178 Br  0  0  0  0  0  0  0  0  0  0  0  0
   -2.5738    1.3203   -0.8707 C   0  0  0  0  0  0  0  0  0  0  0  0
   -3.8428    0.7488   -1.0323 C   0  0  0  0  0  0  0  0  0  0  0  0
   -4.9780    1.5617   -1.1159 C   0  0  0  0  0  0  0  0  0  0  0  0
   -4.8565    2.9475   -1.0348 C   0  0  0  0  0  0  0  0  0  0  0  0
   -3.6010    3.5255   -0.8659 C   0  0  0  0  0  0  0  0  0  0  0  0
   -2.4657    2.7165   -0.7820 C   0  0  0  0  0  0  0  0  0  0  0  0
   -0.0221   -3.8752    1.7049 H   0  0  0  0  0  0  0  0  0  0  0  0
   -2.3718   -2.7047   -0.5383 H   0  0  0  0  0  0  0  0  0  0  0  0
   -2.2833   -1.4009    0.6737 H   0  0  0  0  0  0  0  0  0  0  0  0
   -2.1167   -1.0276   -2.0550 H   0  0  0  0  0  0  0  0  0  0  0  0
   -0.4242   -1.2169   -1.7514 H   0  0  0  0  0  0  0  0  0  0  0  0
    0.9413   -0.6241   -0.2871 H   0  0  0  0  0  0  0  0  0  0  0  0
    3.4527    0.9531    2.5296 H   0  0  0  0  0  0  0  0  0  0  0  0
    5.4336   -0.4410    3.0484 H   0  0  0  0  0  0  0  0  0  0  0  0
    6.3399   -1.9953    1.3366 H   0  0  0  0  0  0  0  0  0  0  0  0
    5.2898   -2.1367   -0.8915 H   0  0  0  0  0  0  0  0  0  0  0  0
   -3.9851   -0.3254   -1.0829 H   0  0  0  0  0  0  0  0  0  0  0  0
   -5.9604    1.1122   -1.2400 H   0  0  0  0  0  0  0  0  0  0  0  0
   -5.7402    3.5776   -1.0982 H   0  0  0  0  0  0  0  0  0  0  0  0
   -3.5003    4.6058   -0.7965 H   0  0  0  0  0  0  0  0  0  0  0  0
   -1.4923    3.1872   -0.6474 H   0  0  0  0  0  0  0  0  0  0  0  0
  1  2  2  0
  2  3  1  0
  2  4  1  0
  4  5  1  0
  5  6  1  0
  6  7  2  3
  7  8  1  0
  8  9  1  0
  9 10  2  0
  9 11  1  0
 11 12  2  0
 12 13  1  0
 13 14  2  0
 14 15  1  0
 15 16  2  0
 16 17  1  0
  6 18  1  0
 18 19  2  0
 19 20  1  0
 20 21  2  0
 21 22  1  0
 22 23  2  0
 16 11  1  0
 23 18  1  0
  3 24  1  0
  4 25  1  0
  4 26  1  0
  5 27  1  0
  5 28  1  0
  8 29  1  0
 12 30  1  0
 13 31  1  0
 14 32  1  0
 15 33  1  0
 19 34  1  0
 20 35  1  0
 21 36  1  0
 22 37  1  0
 23 38  1  0
M  END
$$$$
