
     RDKit          3D

 46 49  0  0  0  0  0  0  0  0999 V2000
   -1.5852   -0.8316   -2.4697 O   0  0  0  0  0  0  0  0  0  0  0  0
   -1.3097   -0.5888   -1.2974 C   0  0  0  0  0  0  0  0  0  0  0  0
    0.0779   -0.4917   -0.8936 C   0  0  0  0  0  0  0  0  0  0  0  0
    0.9613   -1.5491   -0.8237 C   0  0  0  0  0  0  0  0  0  0  0  0
    2.1658   -1.0435   -0.4007 N   0  0  0  0  0  0  0  0  0  0  0  0
    3.3799   -1.7508   -0.1695 C   0  0  0  0  0  0  0  0  0  0  0  0
    3.4675   -3.1347   -0.3770 C   0  0  0  0  0  0  0  0  0  0  0  0
    4.6729   -3.8029   -0.1403 C   0  0  0  0  0  0  0  0  0  0  0  0
    5.7922   -3.0995    0.3016 C   0  0  0  0  0  0  0  0  0  0  0  0
    5.7127   -1.7242    0.5083 C   0  0  0  0  0  0  0  0  0  0  0  0
    4.5125   -1.0497    0.2742 C   0  0  0  0  0  0  0  0  0  0  0  0
    2.0911    0.2941   -0.1888 N   0  0  0  0  0  0  0  0  0  0  0  0
    0.8475    0.6502   -0.5437 C   0  0  0  0  0  0  0  0  0  0  0  0
    0.4369    2.0558   -0.5103 C   0  0  0  0  0  0  0  0  0  0  0  0
   -0.4301    2.5812   -1.4815 C   0  0  0  0  0  0  0  0  0  0  0  0
   -0.8256    3.9204   -1.4255 C   0  0  0  0  0  0  0  0  0  0  0  0
   -0.3502    4.7354   -0.4053 C   0  0  0  0  0  0  0  0  0  0  0  0
   -0.7319    6.0180   -0.3533 F   0  0  0  0  0  0  0  0  0  0  0  0
    0.5188    4.2400    0.5586 C   0  0  0  0  0  0  0  0  0  0  0  0
    0.9150    2.9018    0.5043 C   0  0  0  0  0  0  0  0  0  0  0  0
   -2.2877   -0.4097   -0.3130 N   0  0  0  0  0  0  0  0  0  0  0  0
   -2.0034   -0.0129    1.0694 C   0  0  0  0  0  0  0  0  0  0  0  0
   -3.0004   -0.6144    2.0565 C   0  0  0  0  0  0  0  0  0  0  0  0
   -4.4393   -0.3433    1.6338 C   0  0  0  0  0  0  0  0  0  0  0  0
   -4.6729   -0.8426    0.2128 C   0  0  0  0  0  0  0  0  0  0  0  0
   -3.6680   -0.2348   -0.7599 C   0  0  0  0  0  0  0  0  0  0  0  0
    0.8101   -2.5953   -1.0397 H   0  0  0  0  0  0  0  0  0  0  0  0
    2.6242   -3.7237   -0.7232 H   0  0  0  0  0  0  0  0  0  0  0  0
    4.7390   -4.8760   -0.3033 H   0  0  0  0  0  0  0  0  0  0  0  0
    6.7275   -3.6229    0.4829 H   0  0  0  0  0  0  0  0  0  0  0  0
    6.5852   -1.1732    0.8503 H   0  0  0  0  0  0  0  0  0  0  0  0
    4.4765    0.0257    0.4401 H   0  0  0  0  0  0  0  0  0  0  0  0
   -0.7924    1.9652   -2.3021 H   0  0  0  0  0  0  0  0  0  0  0  0
   -1.4933    4.3321   -2.1758 H   0  0  0  0  0  0  0  0  0  0  0  0
    0.8865    4.8954    1.3414 H   0  0  0  0  0  0  0  0  0  0  0  0
    1.6014    2.5182    1.2572 H   0  0  0  0  0  0  0  0  0  0  0  0
   -0.9972   -0.3182    1.3674 H   0  0  0  0  0  0  0  0  0  0  0  0
   -2.0469    1.0818    1.1086 H   0  0  0  0  0  0  0  0  0  0  0  0
   -2.8220   -0.2081    3.0582 H   0  0  0  0  0  0  0  0  0  0  0  0
   -2.8418   -1.6986    2.1149 H   0  0  0  0  0  0  0  0  0  0  0  0
   -4.6459    0.7324    1.6883 H   0  0  0  0  0  0  0  0  0  0  0  0
   -5.1304   -0.8417    2.3224 H   0  0  0  0  0  0  0  0  0  0  0  0
   -4.5798   -1.9357    0.1951 H   0  0  0  0  0  0  0  0  0  0  0  0
   -5.6926   -0.5998   -0.1058 H   0  0  0  0  0  0  0  0  0  0  0  0
   -3.8387    0.8444   -0.8576 H   0  0  0  0  0  0  0  0  0  0  0  0
   -3.8168   -0.6749   -1.7514 H   0  0  0  0  0  0  0  0  0  0  0  0
  1  2  2  0
  2  3  1  0
  3  4  2  0
  4  5  1  0
  5  6  1  0
  6  7  2  0
  7  8  1  0
  8  9  2  0
  9 10  1  0
 10 11  2  0
  5 12  1  0
 12 13  2  0
 13 14  1  0
 14 15  2  0
 15 16  1  0
 16 17  2  0
 17 18  1  0
 17 19  1  0
 19 20  2  0
  2 21  1  0
 21 22  1  0
 22 23  1  0
 23 24  1  0
 24 25  1  0
 25 26  1  0
 13  3  1  0
 20 14  1  0
 26 21  1  0
 11  6  1  0
  4 27  1  0
  7 28  1  0
  8 29  1  0
  9 30  1  0
 10 31  1  0
 11 32  1  0
 15 33  1  0
 16 34  1  0
 19 35  1  0
 20 36  1  0
 22 37  1  0
 22 38  1  0
 23 39  1  0
 23 40  1  0
 24 41  1  0
 24 42  1  0
 25 43  1  0
 25 44  1  0
 26 45  1  0
 26 46  1  0
M  END
$$$$
