
     RDKit          3D

 33 34  0  0  0  0  0  0  0  0999 V2000
    7.4049    1.2753    0.4563 C   0  0  0  0  0  0  0  0  0  0  0  0
    6.6848   -0.0576    0.6050 C   0  0  0  0  0  0  0  0  0  0  0  0
    5.1759    0.1139    0.4470 C   0  0  0  0  0  0  0  0  0  0  0  0
    4.3573   -1.5104    0.4868 S   0  0  0  0  0  0  0  0  0  0  0  0
    2.6926   -1.0371    0.2372 C   0  0  0  0  0  0  0  0  0  0  0  0
    2.3106    0.2159    0.1295 N   0  0  0  0  0  0  0  0  0  0  0  0
    0.9485    0.3276   -0.0862 N   0  0  0  0  0  0  0  0  0  0  0  0
    0.3637   -0.8446   -0.0927 C   0  0  0  0  0  0  0  0  0  0  0  0
   -0.9500   -1.1885   -0.2648 N   0  0  0  0  0  0  0  0  0  0  0  0
   -1.9488   -0.2401   -0.3596 C   0  0  0  0  0  0  0  0  0  0  0  0
   -1.7753    0.9661   -0.2617 O   0  0  0  0  0  0  0  0  0  0  0  0
   -3.1760   -0.8528   -0.5806 N   0  0  0  0  0  0  0  0  0  0  0  0
   -4.4480   -0.2442   -0.6216 C   0  0  0  0  0  0  0  0  0  0  0  0
   -5.5319   -1.0519   -0.9959 C   0  0  0  0  0  0  0  0  0  0  0  0
   -6.8283   -0.5308   -1.0426 C   0  0  0  0  0  0  0  0  0  0  0  0
   -7.0545    0.8021   -0.7110 C   0  0  0  0  0  0  0  0  0  0  0  0
   -5.9843    1.6124   -0.3385 C   0  0  0  0  0  0  0  0  0  0  0  0
   -4.6864    1.0917   -0.2922 C   0  0  0  0  0  0  0  0  0  0  0  0
    1.4125   -2.1755    0.1282 S   0  0  0  0  0  0  0  0  0  0  0  0
    7.0496    2.0004    1.1965 H   0  0  0  0  0  0  0  0  0  0  0  0
    7.2433    1.6963   -0.5414 H   0  0  0  0  0  0  0  0  0  0  0  0
    8.4821    1.1407    0.5978 H   0  0  0  0  0  0  0  0  0  0  0  0
    6.9186   -0.4752    1.5923 H   0  0  0  0  0  0  0  0  0  0  0  0
    7.0754   -0.7505   -0.1502 H   0  0  0  0  0  0  0  0  0  0  0  0
    4.7861    0.7340    1.2617 H   0  0  0  0  0  0  0  0  0  0  0  0
    4.9522    0.6094   -0.5040 H   0  0  0  0  0  0  0  0  0  0  0  0
   -1.1773   -2.1631   -0.1888 H   0  0  0  0  0  0  0  0  0  0  0  0
   -3.1528   -1.8262   -0.8392 H   0  0  0  0  0  0  0  0  0  0  0  0
   -5.3848   -2.0952   -1.2616 H   0  0  0  0  0  0  0  0  0  0  0  0
   -7.6600   -1.1661   -1.3383 H   0  0  0  0  0  0  0  0  0  0  0  0
   -8.0609    1.2107   -0.7447 H   0  0  0  0  0  0  0  0  0  0  0  0
   -6.1536    2.6551   -0.0805 H   0  0  0  0  0  0  0  0  0  0  0  0
   -3.8851    1.7582    0.0114 H   0  0  0  0  0  0  0  0  0  0  0  0
  1  2  1  0
  2  3  1  0
  3  4  1  0
  4  5  1  0
  5  6  2  0
  6  7  1  0
  7  8  2  0
  8  9  1  0
  9 10  1  0
 10 11  2  0
 10 12  1  0
 12 13  1  0
 13 14  2  0
 14 15  1  0
 15 16  2  0
 16 17  1  0
 17 18  2  0
  8 19  1  0
 19  5  1  0
 18 13  1  0
  1 20  1  0
  1 21  1  0
  1 22  1  0
  2 23  1  0
  2 24  1  0
  3 25  1  0
  3 26  1  0
  9 27  1  0
 12 28  1  0
 14 29  1  0
 15 30  1  0
 16 31  1  0
 17 32  1  0
 18 33  1  0
M  END
$$$$
