
     RDKit          3D

 41 42  0  0  0  0  0  0  0  0999 V2000
   -1.6790    3.0856   -1.5576 O   0  0  0  0  0  0  0  0  0  0  0  0
   -1.1106    2.0872   -1.1196 C   0  0  0  0  0  0  0  0  0  0  0  0
    0.4045    2.0364   -0.9344 C   0  0  0  0  0  0  0  0  0  0  0  0
    0.8600    0.7123   -0.6659 O   0  0  0  0  0  0  0  0  0  0  0  0
    2.2230    0.7642   -0.3342 N   0  0  0  0  0  0  0  0  0  0  0  0
    2.6775   -0.4433   -0.2335 C   0  0  0  0  0  0  0  0  0  0  0  0
    4.0848   -0.7209    0.1116 C   0  0  0  0  0  0  0  0  0  0  0  0
    4.9574    0.3215    0.4499 C   0  0  0  0  0  0  0  0  0  0  0  0
    6.2873    0.0448    0.7743 C   0  0  0  0  0  0  0  0  0  0  0  0
    6.7511   -1.2718    0.7601 C   0  0  0  0  0  0  0  0  0  0  0  0
    5.8718   -2.3106    0.4213 C   0  0  0  0  0  0  0  0  0  0  0  0
    6.3585   -3.6955    0.4011 N   0  0  0  0  0  4  0  0  0  0  0  0
    7.5002   -3.9121    0.8295 O   0  0  0  0  0  0  0  0  0  0  0  0
    5.5956   -4.5647   -0.0448 O   0  0  0  0  0  1  0  0  0  0  0  0
    4.5338   -2.0440    0.0973 C   0  0  0  0  0  0  0  0  0  0  0  0
   -1.7802    0.9458   -0.7285 N   0  0  0  0  0  0  0  0  0  0  0  0
   -3.2309    0.8590   -0.7053 C   0  0  0  0  0  0  0  0  0  0  0  0
   -3.6834   -0.6011   -0.8680 C   0  0  0  0  0  0  0  0  0  0  0  0
   -5.0511   -0.8928   -0.2467 C   0  0  0  0  0  0  0  0  0  0  0  0
   -5.9476    0.3368   -0.2343 C   0  0  0  0  0  0  0  0  0  0  0  0
   -5.3311    1.4865    0.5649 C   0  0  0  0  0  0  0  0  0  0  0  0
   -3.8007    1.4755    0.5743 C   0  0  0  0  0  0  0  0  0  0  0  0
    0.8760    2.3967   -1.8549 H   0  0  0  0  0  0  0  0  0  0  0  0
    0.6594    2.6955   -0.0971 H   0  0  0  0  0  0  0  0  0  0  0  0
    2.0218   -1.3138   -0.4143 H   0  0  0  0  0  0  0  0  0  0  0  0
    4.6064    1.3525    0.4627 H   0  0  0  0  0  0  0  0  0  0  0  0
    6.9610    0.8587    1.0346 H   0  0  0  0  0  0  0  0  0  0  0  0
    7.7911   -1.4700    1.0118 H   0  0  0  0  0  0  0  0  0  0  0  0
    3.8527   -2.8506   -0.1671 H   0  0  0  0  0  0  0  0  0  0  0  0
   -1.2319    0.2400   -0.2481 H   0  0  0  0  0  0  0  0  0  0  0  0
   -3.6080    1.4380   -1.5590 H   0  0  0  0  0  0  0  0  0  0  0  0
   -2.9521   -1.2929   -0.4306 H   0  0  0  0  0  0  0  0  0  0  0  0
   -3.7083   -0.8377   -1.9394 H   0  0  0  0  0  0  0  0  0  0  0  0
   -5.5352   -1.7103   -0.7937 H   0  0  0  0  0  0  0  0  0  0  0  0
   -4.9130   -1.2464    0.7835 H   0  0  0  0  0  0  0  0  0  0  0  0
   -6.9313    0.0858    0.1796 H   0  0  0  0  0  0  0  0  0  0  0  0
   -6.1199    0.6641   -1.2673 H   0  0  0  0  0  0  0  0  0  0  0  0
   -5.6892    1.4554    1.6015 H   0  0  0  0  0  0  0  0  0  0  0  0
   -5.6916    2.4343    0.1455 H   0  0  0  0  0  0  0  0  0  0  0  0
   -3.4465    0.9028    1.4423 H   0  0  0  0  0  0  0  0  0  0  0  0
   -3.4322    2.4990    0.7188 H   0  0  0  0  0  0  0  0  0  0  0  0
  1  2  2  0
  2  3  1  0
  3  4  1  0
  4  5  1  0
  5  6  2  3
  6  7  1  0
  7  8  2  0
  8  9  1  0
  9 10  2  0
 10 11  1  0
 11 12  1  0
 12 13  2  0
 12 14  1  0
 11 15  2  0
  2 16  1  0
 16 17  1  0
 17 18  1  0
 18 19  1  0
 19 20  1  0
 20 21  1  0
 21 22  1  0
 15  7  1  0
 22 17  1  0
  3 23  1  0
  3 24  1  0
  6 25  1  0
  8 26  1  0
  9 27  1  0
 10 28  1  0
 15 29  1  0
 16 30  1  0
 17 31  1  0
 18 32  1  0
 18 33  1  0
 19 34  1  0
 19 35  1  0
 20 36  1  0
 20 37  1  0
 21 38  1  0
 21 39  1  0
 22 40  1  0
 22 41  1  0
M  CHG  2  12   1  14  -1
M  END
$$$$
