
     RDKit          3D

 48 50  0  0  0  0  0  0  0  0999 V2000
    3.6660   -1.1640   -3.3596 C   0  0  0  0  0  0  0  0  0  0  0  0
    3.9690   -0.7507   -1.9643 C   0  0  0  0  0  0  0  0  0  0  0  0
    5.0924   -0.0584   -1.5162 C   0  0  0  0  0  0  0  0  0  0  0  0
    6.2645    0.4662   -2.1717 C   0  0  0  0  0  0  0  0  0  0  0  0
    7.2049    1.0700   -1.6753 O   0  0  0  0  0  0  0  0  0  0  0  0
    6.2585    0.2271   -3.5035 O   0  0  0  0  0  0  0  0  0  0  0  0
    5.0032    0.1303   -0.1619 O   0  0  0  0  0  0  0  0  0  0  0  0
    3.8443   -0.4307    0.2619 C   0  0  0  0  0  0  0  0  0  0  0  0
    3.3990   -0.4503    1.5830 C   0  0  0  0  0  0  0  0  0  0  0  0
    2.1727   -1.0777    1.8222 C   0  0  0  0  0  0  0  0  0  0  0  0
    1.4473   -1.6409    0.7662 C   0  0  0  0  0  0  0  0  0  0  0  0
   -0.1082   -2.4365    1.0915 S   0  0  0  0  0  6  0  0  0  0  0  0
   -0.2890   -2.5458    2.5212 O   0  0  0  0  0  0  0  0  0  0  0  0
   -0.2001   -3.5863    0.2193 O   0  0  0  0  0  0  0  0  0  0  0  0
   -1.1954   -1.3114    0.5036 N   0  0  0  0  0  0  0  0  0  0  0  0
   -1.5267   -0.1028    1.2725 C   0  0  0  0  0  0  0  0  0  0  0  0
   -2.8565   -0.3382    1.9978 C   0  0  0  0  0  0  0  0  0  0  0  0
   -3.4435    0.9198    2.6352 C   0  0  0  0  0  0  0  0  0  0  0  0
   -4.7756    1.3607    2.0324 C   0  0  0  0  0  0  0  0  0  0  0  0
   -4.8847    1.3760    0.5071 C   0  0  0  0  0  0  0  0  0  0  0  0
   -3.7755    2.1221   -0.2312 C   0  0  0  0  0  0  0  0  0  0  0  0
   -2.6030    1.2455   -0.6907 C   0  0  0  0  0  0  0  0  0  0  0  0
   -1.4644    1.1045    0.3221 C   0  0  0  0  0  0  0  0  0  0  0  0
    1.9256   -1.6179   -0.5559 C   0  0  0  0  0  0  0  0  0  0  0  0
    3.1594   -0.9888   -0.8083 C   0  0  0  0  0  0  0  0  0  0  0  0
    4.4444   -1.8330   -3.7401 H   0  0  0  0  0  0  0  0  0  0  0  0
    2.7119   -1.6960   -3.4242 H   0  0  0  0  0  0  0  0  0  0  0  0
    3.6020   -0.2890   -4.0143 H   0  0  0  0  0  0  0  0  0  0  0  0
    7.1013    0.6325   -3.7950 H   0  0  0  0  0  0  0  0  0  0  0  0
    3.9827   -0.0036    2.3795 H   0  0  0  0  0  0  0  0  0  0  0  0
    1.7908   -1.1218    2.8409 H   0  0  0  0  0  0  0  0  0  0  0  0
   -1.8420   -1.6638   -0.1995 H   0  0  0  0  0  0  0  0  0  0  0  0
   -0.7502    0.0661    2.0294 H   0  0  0  0  0  0  0  0  0  0  0  0
   -2.6754   -1.0711    2.7961 H   0  0  0  0  0  0  0  0  0  0  0  0
   -3.5787   -0.8305    1.3371 H   0  0  0  0  0  0  0  0  0  0  0  0
   -2.7347    1.7538    2.6150 H   0  0  0  0  0  0  0  0  0  0  0  0
   -3.6163    0.7225    3.7015 H   0  0  0  0  0  0  0  0  0  0  0  0
   -5.0076    2.3626    2.4156 H   0  0  0  0  0  0  0  0  0  0  0  0
   -5.5673    0.7045    2.4167 H   0  0  0  0  0  0  0  0  0  0  0  0
   -5.8373    1.8679    0.2677 H   0  0  0  0  0  0  0  0  0  0  0  0
   -4.9851    0.3567    0.1175 H   0  0  0  0  0  0  0  0  0  0  0  0
   -4.2296    2.5327   -1.1435 H   0  0  0  0  0  0  0  0  0  0  0  0
   -3.4280    2.9877    0.3442 H   0  0  0  0  0  0  0  0  0  0  0  0
   -2.1738    1.7442   -1.5708 H   0  0  0  0  0  0  0  0  0  0  0  0
   -2.9519    0.2696   -1.0453 H   0  0  0  0  0  0  0  0  0  0  0  0
   -1.3699    2.0311    0.9005 H   0  0  0  0  0  0  0  0  0  0  0  0
   -0.5257    1.0294   -0.2454 H   0  0  0  0  0  0  0  0  0  0  0  0
    1.3560   -2.0744   -1.3606 H   0  0  0  0  0  0  0  0  0  0  0  0
  1  2  1  0
  2  3  2  0
  3  4  1  0
  4  5  2  0
  4  6  1  0
  3  7  1  0
  7  8  1  0
  8  9  2  0
  9 10  1  0
 10 11  2  0
 11 12  1  0
 12 13  2  0
 12 14  2  0
 12 15  1  0
 15 16  1  0
 16 17  1  0
 17 18  1  0
 18 19  1  0
 19 20  1  0
 20 21  1  0
 21 22  1  0
 22 23  1  0
 11 24  1  0
 24 25  2  0
 25  2  1  0
 25  8  1  0
 23 16  1  0
  1 26  1  0
  1 27  1  0
  1 28  1  0
  6 29  1  0
  9 30  1  0
 10 31  1  0
 15 32  1  0
 16 33  1  0
 17 34  1  0
 17 35  1  0
 18 36  1  0
 18 37  1  0
 19 38  1  0
 19 39  1  0
 20 40  1  0
 20 41  1  0
 21 42  1  0
 21 43  1  0
 22 44  1  0
 22 45  1  0
 23 46  1  0
 23 47  1  0
 24 48  1  0
M  END
$$$$
