
     RDKit          3D

 56 59  0  0  0  0  0  0  0  0999 V2000
    4.3139   -2.9789    1.6952 C   0  0  0  0  0  0  0  0  0  0  0  0
    4.5891   -1.8427    0.8851 O   0  0  0  0  0  0  0  0  0  0  0  0
    3.6625   -1.5229   -0.0670 C   0  0  0  0  0  0  0  0  0  0  0  0
    2.4781   -2.2140   -0.3257 C   0  0  0  0  0  0  0  0  0  0  0  0
    1.6086   -1.7671   -1.3272 C   0  0  0  0  0  0  0  0  0  0  0  0
    1.9164   -0.6248   -2.0676 C   0  0  0  0  0  0  0  0  0  0  0  0
    0.9839   -0.1657   -3.0420 N   0  0  0  0  0  0  0  0  0  0  0  0
    0.2818    1.3699   -2.8275 S   0  0  0  0  0  6  0  0  0  0  0  0
    1.3196    2.3642   -2.9851 O   0  0  0  0  0  0  0  0  0  0  0  0
   -0.8790    1.3907   -3.6986 O   0  0  0  0  0  0  0  0  0  0  0  0
   -0.3385    1.2851   -1.1538 C   0  0  0  0  0  0  0  0  0  0  0  0
   -1.3319    0.3057   -0.9333 C   0  0  0  0  0  0  0  0  0  0  0  0
   -1.8523    0.0862    0.3371 C   0  0  0  0  0  0  0  0  0  0  0  0
   -2.7960   -0.9180    0.6366 N   0  0  0  0  0  0  0  0  0  0  0  0
   -3.1637   -1.9763   -0.1734 C   0  0  0  0  0  0  0  0  0  0  0  0
   -2.7064   -2.2237   -1.2856 O   0  0  0  0  0  0  0  0  0  0  0  0
   -4.2189   -2.8807    0.3454 C   0  0  0  0  0  0  0  0  0  0  0  0
   -5.1162   -3.4298   -0.5827 C   0  0  0  0  0  0  0  0  0  0  0  0
   -6.1249   -4.2894   -0.1542 C   0  0  0  0  0  0  0  0  0  0  0  0
   -6.2053   -4.5804    1.1956 C   0  0  0  0  0  0  0  0  0  0  0  0
   -5.3548   -4.0818    2.1186 N   0  0  0  0  0  0  0  0  0  0  0  0
   -4.3775   -3.2544    1.6737 C   0  0  0  0  0  0  0  0  0  0  0  0
   -3.3425   -2.7482    2.9548 Cl  0  0  0  0  0  0  0  0  0  0  0  0
   -1.4221    0.9022    1.3813 C   0  0  0  0  0  0  0  0  0  0  0  0
   -0.4476    1.8830    1.1600 C   0  0  0  0  0  0  0  0  0  0  0  0
    0.1328    2.0868   -0.1050 C   0  0  0  0  0  0  0  0  0  0  0  0
    1.1040    3.0599   -0.2791 N   0  0  0  0  0  0  0  0  0  0  0  0
    0.6000    4.4218   -0.5053 C   0  0  0  0  0  0  0  0  0  0  0  0
    1.7786    5.3097   -0.1215 C   0  0  0  0  0  0  0  0  0  0  0  0
    2.3838    4.5553    1.0501 C   0  0  0  0  0  0  0  0  0  0  0  0
    2.2682    3.0958    0.6177 C   0  0  0  0  0  0  0  0  0  0  0  0
    3.1035    0.0590   -1.8224 C   0  0  0  0  0  0  0  0  0  0  0  0
    3.9715   -0.3908   -0.8243 C   0  0  0  0  0  0  0  0  0  0  0  0
    4.2695   -3.8908    1.0905 H   0  0  0  0  0  0  0  0  0  0  0  0
    3.3941   -2.8392    2.2731 H   0  0  0  0  0  0  0  0  0  0  0  0
    5.1389   -3.0888    2.4056 H   0  0  0  0  0  0  0  0  0  0  0  0
    2.1946   -3.0978    0.2350 H   0  0  0  0  0  0  0  0  0  0  0  0
    0.6830   -2.3089   -1.5025 H   0  0  0  0  0  0  0  0  0  0  0  0
    0.2985   -0.8324   -3.3924 H   0  0  0  0  0  0  0  0  0  0  0  0
   -1.6807   -0.2749   -1.7821 H   0  0  0  0  0  0  0  0  0  0  0  0
   -3.1625   -0.9007    1.5830 H   0  0  0  0  0  0  0  0  0  0  0  0
   -5.0311   -3.1870   -1.6407 H   0  0  0  0  0  0  0  0  0  0  0  0
   -6.8286   -4.7215   -0.8595 H   0  0  0  0  0  0  0  0  0  0  0  0
   -6.9734   -5.2453    1.5816 H   0  0  0  0  0  0  0  0  0  0  0  0
   -1.8156    0.7814    2.3870 H   0  0  0  0  0  0  0  0  0  0  0  0
   -0.1375    2.4993    2.0013 H   0  0  0  0  0  0  0  0  0  0  0  0
   -0.2570    4.6449    0.1437 H   0  0  0  0  0  0  0  0  0  0  0  0
    0.3022    4.5774   -1.5472 H   0  0  0  0  0  0  0  0  0  0  0  0
    1.4711    6.3260    0.1402 H   0  0  0  0  0  0  0  0  0  0  0  0
    2.4982    5.3660   -0.9478 H   0  0  0  0  0  0  0  0  0  0  0  0
    3.4168    4.8495    1.2571 H   0  0  0  0  0  0  0  0  0  0  0  0
    1.7889    4.7277    1.9549 H   0  0  0  0  0  0  0  0  0  0  0  0
    3.1545    2.8042    0.0424 H   0  0  0  0  0  0  0  0  0  0  0  0
    2.1998    2.4282    1.4837 H   0  0  0  0  0  0  0  0  0  0  0  0
    3.3635    0.9455   -2.3956 H   0  0  0  0  0  0  0  0  0  0  0  0
    4.8941    0.1520   -0.6356 H   0  0  0  0  0  0  0  0  0  0  0  0
  1  2  1  0
  2  3  1  0
  3  4  2  0
  4  5  1  0
  5  6  2  0
  6  7  1  0
  7  8  1  0
  8  9  2  0
  8 10  2  0
  8 11  1  0
 11 12  2  0
 12 13  1  0
 13 14  1  0
 14 15  1  0
 15 16  2  0
 15 17  1  0
 17 18  2  0
 18 19  1  0
 19 20  2  0
 20 21  1  0
 21 22  2  0
 22 23  1  0
 13 24  2  0
 24 25  1  0
 25 26  2  0
 26 27  1  0
 27 28  1  0
 28 29  1  0
 29 30  1  0
 30 31  1  0
  6 32  1  0
 32 33  2  0
 33  3  1  0
 26 11  1  0
 31 27  1  0
 22 17  1  0
  1 34  1  0
  1 35  1  0
  1 36  1  0
  4 37  1  0
  5 38  1  0
  7 39  1  0
 12 40  1  0
 14 41  1  0
 18 42  1  0
 19 43  1  0
 20 44  1  0
 24 45  1  0
 25 46  1  0
 28 47  1  0
 28 48  1  0
 29 49  1  0
 29 50  1  0
 30 51  1  0
 30 52  1  0
 31 53  1  0
 31 54  1  0
 32 55  1  0
 33 56  1  0
M  END
$$$$
