
     RDKit          3D

 53 56  0  0  0  0  0  0  0  0999 V2000
   -9.2580   -0.8733    1.3687 C   0  0  0  0  0  0  0  0  0  0  0  0
   -8.3361   -0.8675    0.2864 O   0  0  0  0  0  0  0  0  0  0  0  0
   -6.9926   -0.7053    0.7387 C   0  0  0  0  0  0  0  0  0  0  0  0
   -6.0683   -0.7124   -0.4689 C   0  0  0  0  0  0  0  0  0  0  0  0
   -6.2977    0.4576   -1.4289 C   0  0  0  0  0  0  0  0  0  0  0  0
   -4.9931    0.5037   -2.2081 C   0  0  0  0  0  0  0  0  0  0  0  0
   -3.9841    0.0807   -1.2528 N   0  0  0  0  0  0  0  0  0  0  0  0
   -2.6339    0.2520   -1.5341 C   0  0  0  0  0  0  0  0  0  0  0  0
   -2.2826    0.7204   -2.6200 O   0  0  0  0  0  0  0  0  0  0  0  0
   -1.6138   -0.1217   -0.5385 C   0  0  0  0  0  0  0  0  0  0  0  0
   -0.2076   -0.1025   -0.7571 C   0  0  0  0  0  0  0  0  0  0  0  0
    0.3476   -0.4967    0.4347 C   0  0  0  0  0  0  0  0  0  0  0  0
    1.7267   -0.7111    0.9310 C   0  0  0  0  0  0  0  0  0  0  0  0
    2.6014    0.0137    0.0702 O   0  0  0  0  0  0  0  0  0  0  0  0
    3.9493   -0.0233    0.3383 C   0  0  0  0  0  0  0  0  0  0  0  0
    4.5172   -0.7589    1.3805 C   0  0  0  0  0  0  0  0  0  0  0  0
    5.8978   -0.7467    1.5859 C   0  0  0  0  0  0  0  0  0  0  0  0
    6.7338    0.0002    0.7536 C   0  0  0  0  0  0  0  0  0  0  0  0
    8.1002    0.0606    0.8959 O   0  0  0  0  0  0  0  0  0  0  0  0
    8.6920   -0.6856    1.9508 C   0  0  0  0  0  0  0  0  0  0  0  0
    6.1808    0.7543   -0.3112 C   0  0  0  0  0  0  0  0  0  0  0  0
    6.9855    1.5259   -1.1808 C   0  0  0  0  0  0  0  0  0  0  0  0
    6.4374    2.2671   -2.2279 C   0  0  0  0  0  0  0  0  0  0  0  0
    5.0664    2.2557   -2.4326 C   0  0  0  0  0  0  0  0  0  0  0  0
    4.2483    1.5032   -1.5897 C   0  0  0  0  0  0  0  0  0  0  0  0
    4.7765    0.7424   -0.5210 C   0  0  0  0  0  0  0  0  0  0  0  0
   -0.6520   -0.7453    1.3205 O   0  0  0  0  0  0  0  0  0  0  0  0
   -1.8726   -0.5058    0.7239 N   0  0  0  0  0  0  0  0  0  0  0  0
   -4.5947   -0.5601   -0.0949 C   0  0  0  0  0  0  0  0  0  0  0  0
   -9.2180    0.0766    1.9104 H   0  0  0  0  0  0  0  0  0  0  0  0
   -9.0453   -1.7044    2.0483 H   0  0  0  0  0  0  0  0  0  0  0  0
  -10.2648   -1.0021    0.9629 H   0  0  0  0  0  0  0  0  0  0  0  0
   -6.9045    0.2376    1.2916 H   0  0  0  0  0  0  0  0  0  0  0  0
   -6.7335   -1.5316    1.4110 H   0  0  0  0  0  0  0  0  0  0  0  0
   -6.2106   -1.6439   -1.0343 H   0  0  0  0  0  0  0  0  0  0  0  0
   -6.4340    1.3925   -0.8715 H   0  0  0  0  0  0  0  0  0  0  0  0
   -7.1659    0.3164   -2.0791 H   0  0  0  0  0  0  0  0  0  0  0  0
   -4.7711    1.4995   -2.6032 H   0  0  0  0  0  0  0  0  0  0  0  0
   -4.9959   -0.2152   -3.0352 H   0  0  0  0  0  0  0  0  0  0  0  0
    0.3128    0.1700   -1.6643 H   0  0  0  0  0  0  0  0  0  0  0  0
    1.9543   -1.7825    0.8947 H   0  0  0  0  0  0  0  0  0  0  0  0
    1.8083   -0.3360    1.9579 H   0  0  0  0  0  0  0  0  0  0  0  0
    3.9181   -1.3582    2.0577 H   0  0  0  0  0  0  0  0  0  0  0  0
    6.2887   -1.3355    2.4093 H   0  0  0  0  0  0  0  0  0  0  0  0
    8.3390   -0.3378    2.9271 H   0  0  0  0  0  0  0  0  0  0  0  0
    9.7729   -0.5204    1.9109 H   0  0  0  0  0  0  0  0  0  0  0  0
    8.5152   -1.7586    1.8229 H   0  0  0  0  0  0  0  0  0  0  0  0
    8.0650    1.5525   -1.0419 H   0  0  0  0  0  0  0  0  0  0  0  0
    7.0840    2.8497   -2.8782 H   0  0  0  0  0  0  0  0  0  0  0  0
    4.6287    2.8295   -3.2449 H   0  0  0  0  0  0  0  0  0  0  0  0
    3.1755    1.5140   -1.7735 H   0  0  0  0  0  0  0  0  0  0  0  0
   -4.1332   -1.5323    0.0998 H   0  0  0  0  0  0  0  0  0  0  0  0
   -4.4594    0.0992    0.7693 H   0  0  0  0  0  0  0  0  0  0  0  0
  1  2  1  0
  2  3  1  0
  3  4  1  0
  4  5  1  0
  5  6  1  0
  6  7  1  0
  7  8  1  0
  8  9  2  0
  8 10  1  0
 10 11  1  0
 11 12  2  0
 12 13  1  0
 13 14  1  0
 14 15  1  0
 15 16  2  0
 16 17  1  0
 17 18  2  0
 18 19  1  0
 19 20  1  0
 18 21  1  0
 21 22  2  0
 22 23  1  0
 23 24  2  0
 24 25  1  0
 25 26  2  0
 12 27  1  0
 27 28  1  0
  7 29  1  0
 29  4  1  0
 28 10  2  0
 26 15  1  0
 26 21  1  0
  1 30  1  0
  1 31  1  0
  1 32  1  0
  3 33  1  0
  3 34  1  0
  4 35  1  0
  5 36  1  0
  5 37  1  0
  6 38  1  0
  6 39  1  0
 11 40  1  0
 13 41  1  0
 13 42  1  0
 16 43  1  0
 17 44  1  0
 20 45  1  0
 20 46  1  0
 20 47  1  0
 22 48  1  0
 23 49  1  0
 24 50  1  0
 25 51  1  0
 29 52  1  0
 29 53  1  0
M  END
$$$$
