
     RDKit          3D

 36 37  0  0  0  0  0  0  0  0999 V2000
    3.9806   -2.5768    1.8798 C   0  0  0  0  0  0  0  0  0  0  0  0
    3.9574   -2.3848    0.4708 O   0  0  0  0  0  0  0  0  0  0  0  0
    3.2093   -1.3409    0.0004 C   0  0  0  0  0  0  0  0  0  0  0  0
    2.4612   -0.4523    0.7763 C   0  0  0  0  0  0  0  0  0  0  0  0
    1.7366    0.5759    0.1648 C   0  0  0  0  0  0  0  0  0  0  0  0
    1.7521    0.7041   -1.2271 C   0  0  0  0  0  0  0  0  0  0  0  0
    0.8500    2.0269   -1.9995 S   0  0  0  0  0  6  0  0  0  0  0  0
    0.6670    3.0781   -1.0199 O   0  0  0  0  0  0  0  0  0  0  0  0
    1.4591    2.2896   -3.2872 O   0  0  0  0  0  0  0  0  0  0  0  0
   -0.6738    1.3076   -2.3198 N   0  0  0  0  0  0  0  0  0  0  0  0
   -1.2792    0.4372   -1.2803 N   0  0  0  0  0  0  0  0  0  0  0  0
   -2.1495    1.0041   -0.4938 C   0  0  0  0  0  0  0  0  0  0  0  0
   -2.6035    2.4423   -0.6439 C   0  0  0  0  0  0  0  0  0  0  0  0
   -2.7193    0.1971    0.6284 C   0  0  0  0  0  0  0  0  0  0  0  0
   -3.2534    0.8035    1.7651 C   0  0  0  0  0  0  0  0  0  0  0  0
   -3.7445   -0.0141    2.7686 C   0  0  0  0  0  0  0  0  0  0  0  0
   -3.7318   -1.3622    2.7124 N   0  0  0  0  0  0  0  0  0  0  0  0
   -3.1990   -1.9242    1.6072 C   0  0  0  0  0  0  0  0  0  0  0  0
   -2.6827   -1.1966    0.5507 C   0  0  0  0  0  0  0  0  0  0  0  0
    2.5099   -0.1677   -2.0105 C   0  0  0  0  0  0  0  0  0  0  0  0
    3.2311   -1.1903   -1.3908 C   0  0  0  0  0  0  0  0  0  0  0  0
    4.4151   -1.7104    2.3893 H   0  0  0  0  0  0  0  0  0  0  0  0
    4.6191   -3.4406    2.0888 H   0  0  0  0  0  0  0  0  0  0  0  0
    2.9801   -2.8017    2.2638 H   0  0  0  0  0  0  0  0  0  0  0  0
    2.4215   -0.5299    1.8578 H   0  0  0  0  0  0  0  0  0  0  0  0
    1.1589    1.2651    0.7767 H   0  0  0  0  0  0  0  0  0  0  0  0
   -0.6641    0.9209   -3.2682 H   0  0  0  0  0  0  0  0  0  0  0  0
   -1.9330    3.0958   -0.0800 H   0  0  0  0  0  0  0  0  0  0  0  0
   -2.6064    2.7458   -1.6940 H   0  0  0  0  0  0  0  0  0  0  0  0
   -3.6259    2.5727   -0.2786 H   0  0  0  0  0  0  0  0  0  0  0  0
   -3.2799    1.8786    1.8964 H   0  0  0  0  0  0  0  0  0  0  0  0
   -4.1702    0.4060    3.6760 H   0  0  0  0  0  0  0  0  0  0  0  0
   -3.1970   -3.0106    1.5935 H   0  0  0  0  0  0  0  0  0  0  0  0
   -2.2653   -1.7106   -0.3087 H   0  0  0  0  0  0  0  0  0  0  0  0
    2.5487   -0.0615   -3.0917 H   0  0  0  0  0  0  0  0  0  0  0  0
    3.8208   -1.8761   -1.9952 H   0  0  0  0  0  0  0  0  0  0  0  0
  1  2  1  0
  2  3  1  0
  3  4  2  0
  4  5  1  0
  5  6  2  0
  6  7  1  0
  7  8  2  0
  7  9  2  0
  7 10  1  0
 10 11  1  0
 11 12  2  3
 12 13  1  0
 12 14  1  0
 14 15  2  0
 15 16  1  0
 16 17  2  0
 17 18  1  0
 18 19  2  0
  6 20  1  0
 20 21  2  0
 21  3  1  0
 19 14  1  0
  1 22  1  0
  1 23  1  0
  1 24  1  0
  4 25  1  0
  5 26  1  0
 10 27  1  0
 13 28  1  0
 13 29  1  0
 13 30  1  0
 15 31  1  0
 16 32  1  0
 18 33  1  0
 19 34  1  0
 20 35  1  0
 21 36  1  0
M  END
$$$$
