
     RDKit          3D

 53 56  0  0  0  0  0  0  0  0999 V2000
   -8.2212    0.1976   -0.5735 C   0  0  0  0  0  0  0  0  0  0  0  0
   -6.7324    0.0641   -0.4546 C   0  0  0  0  0  0  0  0  0  0  0  0
   -5.9063    0.3036   -1.5557 C   0  0  0  0  0  0  0  0  0  0  0  0
   -4.5210    0.1439   -1.4490 C   0  0  0  0  0  0  0  0  0  0  0  0
   -3.9394   -0.2858   -0.2506 C   0  0  0  0  0  0  0  0  0  0  0  0
   -2.5330   -0.3865   -0.2160 N   0  0  0  0  0  0  0  0  0  0  0  0
   -1.6860   -1.1217    0.6041 C   0  0  0  0  0  0  0  0  0  0  0  0
   -2.1203   -2.4987    1.4672 S   0  0  0  0  0  0  0  0  0  0  0  0
   -0.3680   -0.6037    0.5675 N   0  0  0  0  0  0  0  0  0  0  0  0
   -0.1648    0.8575    0.6400 C   0  0  0  0  0  0  0  0  0  0  0  0
    0.1174    1.2947    2.0511 C   0  0  0  0  0  0  0  0  0  0  0  0
   -0.6133    1.0471    3.1987 C   0  0  0  0  0  0  0  0  0  0  0  0
   -0.0327    1.6426    4.3550 C   0  0  0  0  0  0  0  0  0  0  0  0
    1.1131    2.3422    4.0532 C   0  0  0  0  0  0  0  0  0  0  0  0
    1.4798    2.2833    2.3854 S   0  0  0  0  0  0  0  0  0  0  0  0
    0.7848   -1.4759    0.8671 C   0  0  0  0  0  0  0  0  0  0  0  0
    2.0217   -1.0919    0.1081 C   0  0  0  0  0  0  0  0  0  0  0  0
    3.1401   -0.6455    0.7064 C   0  0  0  0  0  0  0  0  0  0  0  0
    4.3289   -0.2990   -0.0715 C   0  0  0  0  0  0  0  0  0  0  0  0
    5.4774    0.1898    0.5548 C   0  0  0  0  0  0  0  0  0  0  0  0
    6.6008    0.5107   -0.2052 C   0  0  0  0  0  0  0  0  0  0  0  0
    6.5811    0.3441   -1.5913 C   0  0  0  0  0  0  0  0  0  0  0  0
    5.4373   -0.1453   -2.2410 C   0  0  0  0  0  0  0  0  0  0  0  0
    5.4530   -0.3106   -3.7341 C   0  0  0  0  0  0  0  0  0  0  0  0
    4.3105   -0.4638   -1.4649 C   0  0  0  0  0  0  0  0  0  0  0  0
    3.1383   -0.9530   -2.0607 N   0  0  0  0  0  0  0  0  0  0  0  0
    1.9997   -1.2771   -1.3731 C   0  0  0  0  0  0  0  0  0  0  0  0
    1.0082   -1.6919   -1.9659 O   0  0  0  0  0  0  0  0  0  0  0  0
   -4.7638   -0.5125    0.8510 C   0  0  0  0  0  0  0  0  0  0  0  0
   -6.1506   -0.3523    0.7466 C   0  0  0  0  0  0  0  0  0  0  0  0
   -8.4874    0.9646   -1.3084 H   0  0  0  0  0  0  0  0  0  0  0  0
   -8.6642    0.4966    0.3823 H   0  0  0  0  0  0  0  0  0  0  0  0
   -8.6588   -0.7563   -0.8836 H   0  0  0  0  0  0  0  0  0  0  0  0
   -6.3335    0.6157   -2.5059 H   0  0  0  0  0  0  0  0  0  0  0  0
   -3.9073    0.3410   -2.3241 H   0  0  0  0  0  0  0  0  0  0  0  0
   -2.0572   -0.0626   -1.0504 H   0  0  0  0  0  0  0  0  0  0  0  0
   -1.0573    1.3971    0.3067 H   0  0  0  0  0  0  0  0  0  0  0  0
    0.6366    1.1348   -0.0523 H   0  0  0  0  0  0  0  0  0  0  0  0
   -1.5235    0.4586    3.2101 H   0  0  0  0  0  0  0  0  0  0  0  0
   -0.4397    1.5651    5.3558 H   0  0  0  0  0  0  0  0  0  0  0  0
    1.7500    2.8931    4.7316 H   0  0  0  0  0  0  0  0  0  0  0  0
    0.9537   -1.4448    1.9505 H   0  0  0  0  0  0  0  0  0  0  0  0
    0.5454   -2.5149    0.6150 H   0  0  0  0  0  0  0  0  0  0  0  0
    3.1871   -0.5251    1.7842 H   0  0  0  0  0  0  0  0  0  0  0  0
    5.5086    0.3253    1.6330 H   0  0  0  0  0  0  0  0  0  0  0  0
    7.4952    0.8912    0.2824 H   0  0  0  0  0  0  0  0  0  0  0  0
    7.4711    0.6009   -2.1630 H   0  0  0  0  0  0  0  0  0  0  0  0
    6.4175   -0.0176   -4.1623 H   0  0  0  0  0  0  0  0  0  0  0  0
    4.6836    0.3182   -4.1936 H   0  0  0  0  0  0  0  0  0  0  0  0
    5.2784   -1.3575   -4.0024 H   0  0  0  0  0  0  0  0  0  0  0  0
    3.0901   -1.0904   -3.0599 H   0  0  0  0  0  0  0  0  0  0  0  0
   -4.3572   -0.7892    1.8175 H   0  0  0  0  0  0  0  0  0  0  0  0
   -6.7708   -0.5497    1.6183 H   0  0  0  0  0  0  0  0  0  0  0  0
  1  2  1  0
  2  3  2  0
  3  4  1  0
  4  5  2  0
  5  6  1  0
  6  7  1  0
  7  8  2  0
  7  9  1  0
  9 10  1  0
 10 11  1  0
 11 12  2  0
 12 13  1  0
 13 14  2  0
 14 15  1  0
  9 16  1  0
 16 17  1  0
 17 18  2  0
 18 19  1  0
 19 20  2  0
 20 21  1  0
 21 22  2  0
 22 23  1  0
 23 24  1  0
 23 25  2  0
 25 26  1  0
 26 27  1  0
 27 28  2  0
  5 29  1  0
 29 30  2  0
 30  2  1  0
 15 11  1  0
 27 17  1  0
 25 19  1  0
  1 31  1  0
  1 32  1  0
  1 33  1  0
  3 34  1  0
  4 35  1  0
  6 36  1  0
 10 37  1  0
 10 38  1  0
 12 39  1  0
 13 40  1  0
 14 41  1  0
 16 42  1  0
 16 43  1  0
 18 44  1  0
 20 45  1  0
 21 46  1  0
 22 47  1  0
 24 48  1  0
 24 49  1  0
 24 50  1  0
 26 51  1  0
 29 52  1  0
 30 53  1  0
M  END
$$$$
