
     RDKit          3D

 41 42  0  0  0  0  0  0  0  0999 V2000
   -4.9704   -1.0223    0.7881 C   0  0  0  0  0  0  0  0  0  0  0  0
   -3.5041   -0.8711    0.4700 C   0  0  0  0  0  0  0  0  0  0  0  0
   -2.7248    0.1526    0.8851 C   0  0  0  0  0  0  0  0  0  0  0  0
   -3.1785    1.2567    1.8071 C   0  0  0  0  0  0  0  0  0  0  0  0
   -1.2764    0.2926    0.4575 C   0  0  0  0  0  0  0  0  0  0  0  0
   -0.8253   -0.6931   -0.6313 C   0  0  0  0  0  0  0  0  0  0  0  0
    0.6984   -0.7548   -0.7975 C   0  0  0  0  0  0  0  0  0  0  0  0
    1.2976   -1.8256   -0.8203 O   0  0  0  0  0  0  0  0  0  0  0  0
    1.2761    0.4896   -1.0004 N   0  0  0  0  0  0  0  0  0  0  0  0
    2.6474    0.7846   -1.1614 C   0  0  0  0  0  0  0  0  0  0  0  0
    3.6697   -0.1638   -1.0626 C   0  0  0  0  0  0  0  0  0  0  0  0
    5.0104    0.2040   -1.2296 C   0  0  0  0  0  0  0  0  0  0  0  0
    5.3483    1.5286   -1.4955 C   0  0  0  0  0  0  0  0  0  0  0  0
    4.3306    2.4825   -1.5910 C   0  0  0  0  0  0  0  0  0  0  0  0
    4.6710    3.8830   -1.8678 N   0  0  0  0  0  4  0  0  0  0  0  0
    5.8676    4.1701   -2.0112 O   0  0  0  0  0  0  0  0  0  0  0  0
    3.7389    4.6971   -1.9413 O   0  0  0  0  0  1  0  0  0  0  0  0
    2.9852    2.1178   -1.4243 C   0  0  0  0  0  0  0  0  0  0  0  0
   -1.4339   -2.0897   -0.4321 C   0  0  0  0  0  0  0  0  0  0  0  0
   -0.9498   -2.8761    0.7719 C   0  0  0  0  0  0  0  0  0  0  0  0
   -1.1761   -4.0622    0.9663 O   0  0  0  0  0  0  0  0  0  0  0  0
   -0.2592   -2.1772    1.6865 O   0  0  0  0  0  0  0  0  0  0  0  0
   -2.9625   -1.9977   -0.3891 C   0  0  0  0  0  0  0  0  0  0  0  0
   -5.1153   -1.8182    1.5255 H   0  0  0  0  0  0  0  0  0  0  0  0
   -5.5252   -1.2886   -0.1185 H   0  0  0  0  0  0  0  0  0  0  0  0
   -5.4307   -0.1089    1.1705 H   0  0  0  0  0  0  0  0  0  0  0  0
   -3.2970    2.1897    1.2469 H   0  0  0  0  0  0  0  0  0  0  0  0
   -2.4324    1.4202    2.5928 H   0  0  0  0  0  0  0  0  0  0  0  0
   -4.1183    1.0400    2.3192 H   0  0  0  0  0  0  0  0  0  0  0  0
   -1.1420    1.3136    0.0762 H   0  0  0  0  0  0  0  0  0  0  0  0
   -0.6310    0.2217    1.3410 H   0  0  0  0  0  0  0  0  0  0  0  0
   -1.2037   -0.3176   -1.5949 H   0  0  0  0  0  0  0  0  0  0  0  0
    0.6450    1.2759   -1.0890 H   0  0  0  0  0  0  0  0  0  0  0  0
    3.4603   -1.2086   -0.8504 H   0  0  0  0  0  0  0  0  0  0  0  0
    5.7886   -0.5525   -1.1495 H   0  0  0  0  0  0  0  0  0  0  0  0
    6.3951    1.7963   -1.6224 H   0  0  0  0  0  0  0  0  0  0  0  0
    2.2048    2.8716   -1.5013 H   0  0  0  0  0  0  0  0  0  0  0  0
   -1.1494   -2.7066   -1.2967 H   0  0  0  0  0  0  0  0  0  0  0  0
   -0.0102   -2.8545    2.3500 H   0  0  0  0  0  0  0  0  0  0  0  0
   -3.3390   -1.8492   -1.4099 H   0  0  0  0  0  0  0  0  0  0  0  0
   -3.3803   -2.9499   -0.0377 H   0  0  0  0  0  0  0  0  0  0  0  0
  1  2  1  0
  2  3  2  0
  3  4  1  0
  3  5  1  0
  5  6  1  0
  6  7  1  0
  7  8  2  0
  7  9  1  0
  9 10  1  0
 10 11  2  0
 11 12  1  0
 12 13  2  0
 13 14  1  0
 14 15  1  0
 15 16  2  0
 15 17  1  0
 14 18  2  0
  6 19  1  0
 19 20  1  0
 20 21  2  0
 20 22  1  0
 19 23  1  0
 23  2  1  0
 18 10  1  0
  1 24  1  0
  1 25  1  0
  1 26  1  0
  4 27  1  0
  4 28  1  0
  4 29  1  0
  5 30  1  0
  5 31  1  0
  6 32  1  0
  9 33  1  0
 11 34  1  0
 12 35  1  0
 13 36  1  0
 18 37  1  0
 19 38  1  0
 22 39  1  0
 23 40  1  0
 23 41  1  0
M  CHG  2  15   1  17  -1
M  END
$$$$
