
     RDKit          3D

 55 57  0  0  0  0  0  0  0  0999 V2000
    1.7811   -0.2299   -2.5561 C   0  0  0  0  0  0  0  0  0  0  0  0
    2.0861    0.5435   -1.2730 C   0  0  0  0  0  0  0  0  0  0  0  0
    1.0055    1.5459   -0.8473 C   0  0  0  0  0  0  0  0  0  0  0  0
    1.3350    2.5778   -0.2603 O   0  0  0  0  0  0  0  0  0  0  0  0
   -0.2956    1.1596   -1.0921 N   0  0  0  0  0  0  0  0  0  0  0  0
   -1.4807    1.9201   -0.9293 C   0  0  0  0  0  0  0  0  0  0  0  0
   -1.4691    3.2891   -0.6424 C   0  0  0  0  0  0  0  0  0  0  0  0
   -2.6659    4.0106   -0.5342 C   0  0  0  0  0  0  0  0  0  0  0  0
   -3.8936    3.3804   -0.7248 C   0  0  0  0  0  0  0  0  0  0  0  0
   -3.9301    2.0195   -1.0137 C   0  0  0  0  0  0  0  0  0  0  0  0
   -2.7320    1.2931   -1.0933 C   0  0  0  0  0  0  0  0  0  0  0  0
   -2.8134   -0.1456   -1.4150 C   0  0  0  0  0  0  0  0  0  0  0  0
   -2.4283   -0.4945   -2.5284 O   0  0  0  0  0  0  0  0  0  0  0  0
   -3.2659   -1.0212   -0.4385 N   0  0  0  0  0  0  0  0  0  0  0  0
   -3.2229   -2.4612   -0.7115 C   0  0  0  0  0  0  0  0  0  0  0  0
   -2.8330   -3.2551    0.5410 C   0  0  0  0  0  0  0  0  0  0  0  0
   -3.7084   -3.0381    1.6605 O   0  0  0  0  0  0  0  0  0  0  0  0
   -4.3523   -1.7577    1.6553 C   0  0  0  0  0  0  0  0  0  0  0  0
   -3.5382   -0.6626    0.9584 C   0  0  0  0  0  0  0  0  0  0  0  0
    2.5119   -0.3956   -0.1980 N   0  0  0  0  0  0  0  0  0  0  0  0
    3.8469   -0.2743    0.3111 C   0  0  0  0  0  0  0  0  0  0  0  0
    4.2878    0.9224    0.8840 C   0  0  0  0  0  0  0  0  0  0  0  0
    5.5861    1.0167    1.3922 C   0  0  0  0  0  0  0  0  0  0  0  0
    6.4362   -0.0875    1.3330 C   0  0  0  0  0  0  0  0  0  0  0  0
    8.0317    0.0277    1.9636 Cl  0  0  0  0  0  0  0  0  0  0  0  0
    5.9984   -1.2844    0.7709 C   0  0  0  0  0  0  0  0  0  0  0  0
    4.7009   -1.3781    0.2625 C   0  0  0  0  0  0  0  0  0  0  0  0
    1.3786   -1.2075    0.7575 S   0  0  0  0  0  6  0  0  0  0  0  0
    1.0748   -0.0755    2.1029 C   0  0  0  0  0  0  0  0  0  0  0  0
    0.1539   -1.3217   -0.0104 O   0  0  0  0  0  0  0  0  0  0  0  0
    1.9909   -2.3933    1.3212 O   0  0  0  0  0  0  0  0  0  0  0  0
    1.0125   -0.9960   -2.4172 H   0  0  0  0  0  0  0  0  0  0  0  0
    1.4405    0.4443   -3.3486 H   0  0  0  0  0  0  0  0  0  0  0  0
    2.6809   -0.7441   -2.9132 H   0  0  0  0  0  0  0  0  0  0  0  0
    2.9416    1.1834   -1.5397 H   0  0  0  0  0  0  0  0  0  0  0  0
   -0.4366    0.1745   -1.3298 H   0  0  0  0  0  0  0  0  0  0  0  0
   -0.5410    3.8375   -0.5151 H   0  0  0  0  0  0  0  0  0  0  0  0
   -2.6318    5.0769   -0.3177 H   0  0  0  0  0  0  0  0  0  0  0  0
   -4.8165    3.9520   -0.6604 H   0  0  0  0  0  0  0  0  0  0  0  0
   -4.8834    1.5248   -1.1842 H   0  0  0  0  0  0  0  0  0  0  0  0
   -2.5299   -2.6828   -1.5294 H   0  0  0  0  0  0  0  0  0  0  0  0
   -4.2332   -2.7430   -1.0329 H   0  0  0  0  0  0  0  0  0  0  0  0
   -2.8370   -4.3282    0.3253 H   0  0  0  0  0  0  0  0  0  0  0  0
   -1.8196   -2.9887    0.8600 H   0  0  0  0  0  0  0  0  0  0  0  0
   -5.3256   -1.8759    1.1627 H   0  0  0  0  0  0  0  0  0  0  0  0
   -4.5464   -1.4835    2.6972 H   0  0  0  0  0  0  0  0  0  0  0  0
   -2.5639   -0.5382    1.4472 H   0  0  0  0  0  0  0  0  0  0  0  0
   -4.0710    0.2904    1.0141 H   0  0  0  0  0  0  0  0  0  0  0  0
    3.6345    1.7902    0.9403 H   0  0  0  0  0  0  0  0  0  0  0  0
    5.9268    1.9488    1.8353 H   0  0  0  0  0  0  0  0  0  0  0  0
    6.6537   -2.1505    0.7349 H   0  0  0  0  0  0  0  0  0  0  0  0
    4.3589   -2.3174   -0.1658 H   0  0  0  0  0  0  0  0  0  0  0  0
    2.0050    0.1012    2.6450 H   0  0  0  0  0  0  0  0  0  0  0  0
    0.6502    0.8543    1.7277 H   0  0  0  0  0  0  0  0  0  0  0  0
    0.3547   -0.5524    2.7733 H   0  0  0  0  0  0  0  0  0  0  0  0
  1  2  1  0
  2  3  1  0
  3  4  2  0
  3  5  1  0
  5  6  1  0
  6  7  2  0
  7  8  1  0
  8  9  2  0
  9 10  1  0
 10 11  2  0
 11 12  1  0
 12 13  2  0
 12 14  1  0
 14 15  1  0
 15 16  1  0
 16 17  1  0
 17 18  1  0
 18 19  1  0
  2 20  1  0
 20 21  1  0
 21 22  2  0
 22 23  1  0
 23 24  2  0
 24 25  1  0
 24 26  1  0
 26 27  2  0
 20 28  1  0
 28 29  1  0
 28 30  2  0
 28 31  2  0
 11  6  1  0
 19 14  1  0
 27 21  1  0
  1 32  1  0
  1 33  1  0
  1 34  1  0
  2 35  1  0
  5 36  1  0
  7 37  1  0
  8 38  1  0
  9 39  1  0
 10 40  1  0
 15 41  1  0
 15 42  1  0
 16 43  1  0
 16 44  1  0
 18 45  1  0
 18 46  1  0
 19 47  1  0
 19 48  1  0
 22 49  1  0
 23 50  1  0
 26 51  1  0
 27 52  1  0
 29 53  1  0
 29 54  1  0
 29 55  1  0
M  END
$$$$
