
     RDKit          3D

 39 41  0  0  0  0  0  0  0  0999 V2000
   -7.9860    1.6122   -1.0023 C   0  0  0  0  0  0  0  0  0  0  0  0
   -6.5102    1.2604   -0.9496 C   0  0  0  0  0  0  0  0  0  0  0  0
   -6.0037    1.6766    0.3178 O   0  0  0  0  0  0  0  0  0  0  0  0
   -4.6771    1.4478    0.5685 C   0  0  0  0  0  0  0  0  0  0  0  0
   -4.2482    1.8785    1.8239 C   0  0  0  0  0  0  0  0  0  0  0  0
   -2.9189    1.7161    2.2308 C   0  0  0  0  0  0  0  0  0  0  0  0
   -1.9971    1.1076    1.3591 C   0  0  0  0  0  0  0  0  0  0  0  0
   -0.6558    0.8795    1.6202 N   0  0  0  0  0  0  0  0  0  0  0  0
   -0.0994    0.2945    0.5877 C   0  0  0  0  0  0  0  0  0  0  0  0
    1.2323   -0.0337    0.6102 N   0  0  0  0  0  0  0  0  0  0  0  0
    1.9588   -0.6466   -0.3868 C   0  0  0  0  0  0  0  0  0  0  0  0
    1.5510   -1.0137   -1.4818 O   0  0  0  0  0  0  0  0  0  0  0  0
    3.4042   -0.8364    0.0248 C   0  0  0  0  0  0  0  0  0  0  0  0
    4.2066   -1.5136   -1.0771 C   0  0  0  0  0  0  0  0  0  0  0  0
    5.5940   -1.6969   -0.6845 N   0  0  0  0  0  0  0  0  0  0  0  0
    6.6014   -0.7939   -0.8988 C   0  0  0  0  0  0  0  0  0  0  0  0
    7.7610   -1.3227   -0.3749 C   0  0  0  0  0  0  0  0  0  0  0  0
    7.4397   -2.5890    0.1695 C   0  0  0  0  0  0  0  0  0  0  0  0
    6.0933   -2.7965   -0.0381 C   0  0  0  0  0  0  0  0  0  0  0  0
   -1.1147   -0.0177   -0.7381 S   0  0  0  0  0  0  0  0  0  0  0  0
   -2.4414    0.6821    0.1068 C   0  0  0  0  0  0  0  0  0  0  0  0
   -3.7762    0.8407   -0.3120 C   0  0  0  0  0  0  0  0  0  0  0  0
   -8.1305    2.6895   -0.8690 H   0  0  0  0  0  0  0  0  0  0  0  0
   -8.4244    1.3125   -1.9583 H   0  0  0  0  0  0  0  0  0  0  0  0
   -8.5300    1.1150   -0.1923 H   0  0  0  0  0  0  0  0  0  0  0  0
   -6.3963    0.1765   -1.0672 H   0  0  0  0  0  0  0  0  0  0  0  0
   -5.9883    1.7847   -1.7584 H   0  0  0  0  0  0  0  0  0  0  0  0
   -4.9579    2.3497    2.5010 H   0  0  0  0  0  0  0  0  0  0  0  0
   -2.5954    2.0548    3.2097 H   0  0  0  0  0  0  0  0  0  0  0  0
    1.6833    0.2246    1.4774 H   0  0  0  0  0  0  0  0  0  0  0  0
    3.4302   -1.4410    0.9396 H   0  0  0  0  0  0  0  0  0  0  0  0
    3.8329    0.1461    0.2575 H   0  0  0  0  0  0  0  0  0  0  0  0
    3.7989   -2.5022   -1.3196 H   0  0  0  0  0  0  0  0  0  0  0  0
    4.2002   -0.9205   -1.9994 H   0  0  0  0  0  0  0  0  0  0  0  0
    6.4192    0.1454   -1.4048 H   0  0  0  0  0  0  0  0  0  0  0  0
    8.7341   -0.8492   -0.3880 H   0  0  0  0  0  0  0  0  0  0  0  0
    8.1178   -3.2780    0.6560 H   0  0  0  0  0  0  0  0  0  0  0  0
    5.4600   -3.6352    0.2203 H   0  0  0  0  0  0  0  0  0  0  0  0
   -4.0671    0.4918   -1.2955 H   0  0  0  0  0  0  0  0  0  0  0  0
  1  2  1  0
  2  3  1  0
  3  4  1  0
  4  5  2  0
  5  6  1  0
  6  7  2  0
  7  8  1  0
  8  9  2  0
  9 10  1  0
 10 11  1  0
 11 12  2  0
 11 13  1  0
 13 14  1  0
 14 15  1  0
 15 16  1  0
 16 17  2  0
 17 18  1  0
 18 19  2  0
  9 20  1  0
 20 21  1  0
 21 22  2  0
 22  4  1  0
 21  7  1  0
 19 15  1  0
  1 23  1  0
  1 24  1  0
  1 25  1  0
  2 26  1  0
  2 27  1  0
  5 28  1  0
  6 29  1  0
 10 30  1  0
 13 31  1  0
 13 32  1  0
 14 33  1  0
 14 34  1  0
 16 35  1  0
 17 36  1  0
 18 37  1  0
 19 38  1  0
 22 39  1  0
M  END
$$$$
