
     RDKit          3D

 31 33  0  0  0  0  0  0  0  0999 V2000
    1.8374    1.0260   -1.1257 O   0  0  0  0  0  0  0  0  0  0  0  0
    2.2827    0.0486   -0.5317 C   0  0  0  0  0  0  0  0  0  0  0  0
    1.5311   -1.0817   -0.2494 N   0  0  0  0  0  0  0  0  0  0  0  0
    0.1464   -0.9735   -0.4886 N   0  0  0  0  0  0  0  0  0  0  0  0
   -0.6600   -0.4534    0.5078 C   0  0  0  0  0  0  0  0  0  0  0  0
   -0.3064   -0.1732    1.6460 O   0  0  0  0  0  0  0  0  0  0  0  0
   -2.0531   -0.3298   -0.0067 C   0  0  0  0  0  0  0  0  0  0  0  0
   -3.0252    0.1465    0.7834 C   0  0  0  0  0  0  0  0  0  0  0  0
   -4.3931    0.2950    0.4122 C   0  0  0  0  0  0  0  0  0  0  0  0
   -4.9811    0.7466   -0.7580 C   0  0  0  0  0  0  0  0  0  0  0  0
   -6.4061    0.7466   -0.7068 C   0  0  0  0  0  0  0  0  0  0  0  0
   -6.8758    0.3116    0.5095 C   0  0  0  0  0  0  0  0  0  0  0  0
   -5.6071   -0.0825    1.5808 S   0  0  0  0  0  0  0  0  0  0  0  0
   -2.1426   -0.9218   -1.6256 S   0  0  0  0  0  0  0  0  0  0  0  0
   -0.4260   -1.3097   -1.6968 C   0  0  0  0  0  0  0  0  0  0  0  0
    0.3046   -2.0085   -3.0232 S   0  0  0  0  0  0  0  0  0  0  0  0
    3.6768    0.0518   -0.0362 C   0  0  0  0  0  0  0  0  0  0  0  0
    4.3093    1.2645    0.2445 C   0  0  0  0  0  0  0  0  0  0  0  0
    5.6214    1.2609    0.7126 C   0  0  0  0  0  0  0  0  0  0  0  0
    6.2571    0.0403    0.8776 C   0  0  0  0  0  0  0  0  0  0  0  0
    5.6789   -1.1502    0.6017 N   0  0  0  0  0  0  0  0  0  0  0  0
    4.4057   -1.1172    0.1388 C   0  0  0  0  0  0  0  0  0  0  0  0
    1.7720   -1.6398    0.5648 H   0  0  0  0  0  0  0  0  0  0  0  0
   -2.7708    0.4197    1.8079 H   0  0  0  0  0  0  0  0  0  0  0  0
   -4.4195    1.0755   -1.6242 H   0  0  0  0  0  0  0  0  0  0  0  0
   -7.0505    1.0569   -1.5202 H   0  0  0  0  0  0  0  0  0  0  0  0
   -7.9053    0.2139    0.8255 H   0  0  0  0  0  0  0  0  0  0  0  0
    3.7844    2.2067    0.1025 H   0  0  0  0  0  0  0  0  0  0  0  0
    6.1351    2.1883    0.9417 H   0  0  0  0  0  0  0  0  0  0  0  0
    7.2796   -0.0137    1.2418 H   0  0  0  0  0  0  0  0  0  0  0  0
    4.0001   -2.0944   -0.1060 H   0  0  0  0  0  0  0  0  0  0  0  0
  1  2  2  0
  2  3  1  0
  3  4  1  0
  4  5  1  0
  5  6  2  0
  5  7  1  0
  7  8  2  3
  8  9  1  0
  9 10  2  0
 10 11  1  0
 11 12  2  0
 12 13  1  0
  7 14  1  0
 14 15  1  0
 15 16  2  0
  2 17  1  0
 17 18  2  0
 18 19  1  0
 19 20  2  0
 20 21  1  0
 21 22  2  0
 15  4  1  0
 22 17  1  0
 13  9  1  0
  3 23  1  0
  8 24  1  0
 10 25  1  0
 11 26  1  0
 12 27  1  0
 18 28  1  0
 19 29  1  0
 20 30  1  0
 22 31  1  0
M  END
$$$$
