
     RDKit          3D

 39 40  0  0  0  0  0  0  0  0999 V2000
    4.9171   -0.2262   -2.4346 C   0  0  0  0  0  0  0  0  0  0  0  0
    4.2694    0.7208   -1.5843 O   0  0  0  0  0  0  0  0  0  0  0  0
    4.0549    0.2705   -0.3243 C   0  0  0  0  0  0  0  0  0  0  0  0
    4.3624   -0.8347    0.0947 O   0  0  0  0  0  0  0  0  0  0  0  0
    3.4331    1.2444    0.3916 N   0  0  0  0  0  0  0  0  0  0  0  0
    2.9415    1.0311    1.7273 C   0  0  0  0  0  0  0  0  0  0  0  0
    1.4878    0.6302    1.7091 C   0  0  0  0  0  0  0  0  0  0  0  0
    1.1318   -0.7207    1.5709 C   0  0  0  0  0  0  0  0  0  0  0  0
   -0.2101   -1.1012    1.5330 C   0  0  0  0  0  0  0  0  0  0  0  0
   -1.2056   -0.1238    1.6045 C   0  0  0  0  0  0  0  0  0  0  0  0
   -2.9203   -0.6067    1.5750 S   0  0  0  0  0  6  0  0  0  0  0  0
   -2.9949   -1.9781    2.0324 O   0  0  0  0  0  0  0  0  0  0  0  0
   -3.6761    0.4430    2.2257 O   0  0  0  0  0  0  0  0  0  0  0  0
   -3.3086   -0.5837   -0.0706 N   0  0  0  0  0  0  0  0  0  0  0  0
   -2.7783   -1.6853   -0.9189 C   0  0  0  0  0  0  0  0  0  0  0  0
   -3.1241   -1.4213   -2.3881 C   0  0  0  0  0  0  0  0  0  0  0  0
   -2.5275   -0.2188   -2.8968 O   0  0  0  0  0  0  0  0  0  0  0  0
   -2.3512    0.7988   -1.9012 C   0  0  0  0  0  0  0  0  0  0  0  0
   -3.3785    0.7306   -0.7664 C   0  0  0  0  0  0  0  0  0  0  0  0
   -0.8676    1.2236    1.7615 C   0  0  0  0  0  0  0  0  0  0  0  0
    0.4768    1.5986    1.8015 C   0  0  0  0  0  0  0  0  0  0  0  0
    5.0440    0.2337   -3.4186 H   0  0  0  0  0  0  0  0  0  0  0  0
    4.3009   -1.1235   -2.5491 H   0  0  0  0  0  0  0  0  0  0  0  0
    5.9064   -0.4814   -2.0419 H   0  0  0  0  0  0  0  0  0  0  0  0
    3.1408    2.0557   -0.1319 H   0  0  0  0  0  0  0  0  0  0  0  0
    3.0709    1.9681    2.2801 H   0  0  0  0  0  0  0  0  0  0  0  0
    3.5404    0.2681    2.2379 H   0  0  0  0  0  0  0  0  0  0  0  0
    1.9064   -1.4838    1.4953 H   0  0  0  0  0  0  0  0  0  0  0  0
   -0.4668   -2.1549    1.4478 H   0  0  0  0  0  0  0  0  0  0  0  0
   -1.6913   -1.7482   -0.8141 H   0  0  0  0  0  0  0  0  0  0  0  0
   -3.2277   -2.6326   -0.6051 H   0  0  0  0  0  0  0  0  0  0  0  0
   -2.7761   -2.2492   -3.0137 H   0  0  0  0  0  0  0  0  0  0  0  0
   -4.2091   -1.3409   -2.5230 H   0  0  0  0  0  0  0  0  0  0  0  0
   -1.3333    0.7036   -1.5062 H   0  0  0  0  0  0  0  0  0  0  0  0
   -2.4139    1.7667   -2.4084 H   0  0  0  0  0  0  0  0  0  0  0  0
   -4.3925    0.8297   -1.1715 H   0  0  0  0  0  0  0  0  0  0  0  0
   -3.2230    1.5645   -0.0769 H   0  0  0  0  0  0  0  0  0  0  0  0
   -1.6401    1.9832    1.8608 H   0  0  0  0  0  0  0  0  0  0  0  0
    0.7317    2.6503    1.9163 H   0  0  0  0  0  0  0  0  0  0  0  0
  1  2  1  0
  2  3  1  0
  3  4  2  0
  3  5  1  0
  5  6  1  0
  6  7  1  0
  7  8  2  0
  8  9  1  0
  9 10  2  0
 10 11  1  0
 11 12  2  0
 11 13  2  0
 11 14  1  0
 14 15  1  0
 15 16  1  0
 16 17  1  0
 17 18  1  0
 18 19  1  0
 10 20  1  0
 20 21  2  0
 21  7  1  0
 19 14  1  0
  1 22  1  0
  1 23  1  0
  1 24  1  0
  5 25  1  0
  6 26  1  0
  6 27  1  0
  8 28  1  0
  9 29  1  0
 15 30  1  0
 15 31  1  0
 16 32  1  0
 16 33  1  0
 18 34  1  0
 18 35  1  0
 19 36  1  0
 19 37  1  0
 20 38  1  0
 21 39  1  0
M  END
$$$$
