
     RDKit          3D

 51 55  0  0  0  0  0  0  0  0999 V2000
   -1.3631    2.0114    0.6591 C   0  0  0  0  0  0  0  0  0  0  0  0
    0.0207    2.2253    0.6819 C   0  0  0  0  0  0  0  0  0  0  0  0
    0.8642    1.1920    0.2439 C   0  0  0  0  0  0  0  0  0  0  0  0
    0.3470   -0.0260   -0.2084 C   0  0  0  0  0  0  0  0  0  0  0  0
   -1.0517   -0.2131   -0.2266 C   0  0  0  0  0  0  0  0  0  0  0  0
   -1.9151    0.8070    0.2103 C   0  0  0  0  0  0  0  0  0  0  0  0
   -3.4236    0.6249    0.2026 C   0  0  0  0  0  0  0  0  0  0  0  0
   -3.8676   -0.5138    1.1375 C   0  0  0  0  0  0  0  0  0  0  0  0
   -5.3860   -0.6824    1.1296 C   0  0  0  0  0  0  0  0  0  0  0  0
   -5.9229   -0.8839   -0.2845 C   0  0  0  0  0  0  0  0  0  0  0  0
   -5.4853    0.2402   -1.2190 C   0  0  0  0  0  0  0  0  0  0  0  0
   -3.9673    0.4128   -1.2212 C   0  0  0  0  0  0  0  0  0  0  0  0
    1.4504   -0.8400   -0.5786 C   0  0  0  0  0  0  0  0  0  0  0  0
    2.6066   -0.1340   -0.3029 C   0  0  0  0  0  0  0  0  0  0  0  0
    2.2419    1.1144    0.1349 N   0  0  0  0  0  0  0  0  0  0  0  0
    3.1751    2.2003    0.3745 C   0  0  0  0  0  0  0  0  0  0  0  0
    4.2413    1.8693    1.4099 C   0  0  0  0  0  0  0  0  0  0  0  0
    5.3083    0.9110    0.8842 C   0  0  0  0  0  0  0  0  0  0  0  0
    4.8448   -0.4487    0.6513 N   0  0  0  0  0  0  0  0  0  0  0  0
    4.0045   -0.6145   -0.5323 C   0  0  0  0  0  0  0  0  0  0  0  0
    3.9816   -2.1330   -0.8625 C   0  0  0  0  0  0  0  0  0  0  0  0
    2.8261   -2.5181   -1.8014 C   0  0  0  0  0  0  0  0  0  0  0  0
    1.4631   -2.2148   -1.1560 C   0  0  0  0  0  0  0  0  0  0  0  0
   -2.0133    2.8145    1.0014 H   0  0  0  0  0  0  0  0  0  0  0  0
    0.4127    3.1730    1.0348 H   0  0  0  0  0  0  0  0  0  0  0  0
   -1.4503   -1.1590   -0.5814 H   0  0  0  0  0  0  0  0  0  0  0  0
   -3.8788    1.5499    0.5852 H   0  0  0  0  0  0  0  0  0  0  0  0
   -3.5304   -0.3125    2.1619 H   0  0  0  0  0  0  0  0  0  0  0  0
   -3.4057   -1.4629    0.8378 H   0  0  0  0  0  0  0  0  0  0  0  0
   -5.6644   -1.5384    1.7547 H   0  0  0  0  0  0  0  0  0  0  0  0
   -5.8540    0.2039    1.5753 H   0  0  0  0  0  0  0  0  0  0  0  0
   -7.0171   -0.9367   -0.2590 H   0  0  0  0  0  0  0  0  0  0  0  0
   -5.5655   -1.8440   -0.6768 H   0  0  0  0  0  0  0  0  0  0  0  0
   -5.9590    1.1794   -0.9078 H   0  0  0  0  0  0  0  0  0  0  0  0
   -5.8331    0.0296   -2.2367 H   0  0  0  0  0  0  0  0  0  0  0  0
   -3.5121   -0.4733   -1.6813 H   0  0  0  0  0  0  0  0  0  0  0  0
   -3.7003    1.2662   -1.8568 H   0  0  0  0  0  0  0  0  0  0  0  0
    2.6116    3.0737    0.7143 H   0  0  0  0  0  0  0  0  0  0  0  0
    3.6207    2.4606   -0.5929 H   0  0  0  0  0  0  0  0  0  0  0  0
    3.7823    1.4647    2.3208 H   0  0  0  0  0  0  0  0  0  0  0  0
    4.7415    2.8025    1.6976 H   0  0  0  0  0  0  0  0  0  0  0  0
    6.1036    0.8544    1.6370 H   0  0  0  0  0  0  0  0  0  0  0  0
    5.7831    1.3170   -0.0174 H   0  0  0  0  0  0  0  0  0  0  0  0
    4.3381   -0.7997    1.4641 H   0  0  0  0  0  0  0  0  0  0  0  0
    4.4329   -0.0898   -1.3961 H   0  0  0  0  0  0  0  0  0  0  0  0
    4.9383   -2.4224   -1.3152 H   0  0  0  0  0  0  0  0  0  0  0  0
    3.8797   -2.7263    0.0577 H   0  0  0  0  0  0  0  0  0  0  0  0
    2.9251   -1.9624   -2.7427 H   0  0  0  0  0  0  0  0  0  0  0  0
    2.8838   -3.5841   -2.0480 H   0  0  0  0  0  0  0  0  0  0  0  0
    1.2654   -2.9385   -0.3560 H   0  0  0  0  0  0  0  0  0  0  0  0
    0.6718   -2.3256   -1.9056 H   0  0  0  0  0  0  0  0  0  0  0  0
  1  2  2  0
  2  3  1  0
  3  4  2  0
  4  5  1  0
  5  6  2  0
  6  7  1  0
  7  8  1  0
  8  9  1  0
  9 10  1  0
 10 11  1  0
 11 12  1  0
  4 13  1  0
 13 14  2  0
 14 15  1  0
 15 16  1  0
 16 17  1  0
 17 18  1  0
 18 19  1  0
 19 20  1  0
 20 21  1  0
 21 22  1  0
 22 23  1  0
  6  1  1  0
 12  7  1  0
 23 13  1  0
 15  3  1  0
 20 14  1  0
  1 24  1  0
  2 25  1  0
  5 26  1  0
  7 27  1  0
  8 28  1  0
  8 29  1  0
  9 30  1  0
  9 31  1  0
 10 32  1  0
 10 33  1  0
 11 34  1  0
 11 35  1  0
 12 36  1  0
 12 37  1  0
 16 38  1  0
 16 39  1  0
 17 40  1  0
 17 41  1  0
 18 42  1  0
 18 43  1  0
 19 44  1  0
 20 45  1  0
 21 46  1  0
 21 47  1  0
 22 48  1  0
 22 49  1  0
 23 50  1  0
 23 51  1  0
M  END
$$$$
