
     RDKit          3D

 29 31  0  0  0  0  0  0  0  0999 V2000
   -1.9580   -0.1414    0.8229 O   0  0  0  0  0  0  0  0  0  0  0  0
   -2.2673    0.1296   -0.3232 C   0  0  0  0  0  0  0  0  0  0  0  0
   -2.9802    1.2440   -0.6657 N   0  0  0  0  0  0  0  0  0  0  0  0
   -3.5069    1.3095   -1.9180 C   0  0  0  0  0  0  0  0  0  0  0  0
   -4.5014    2.5291   -2.4373 S   0  0  0  0  0  0  0  0  0  0  0  0
   -2.9812   -0.0720   -2.8524 S   0  0  0  0  0  0  0  0  0  0  0  0
   -2.0394   -0.7072   -1.5363 C   0  0  0  0  0  0  0  0  0  0  0  0
   -1.2586   -1.7849   -1.6684 C   0  0  0  0  0  0  0  0  0  0  0  0
   -0.3504   -2.2171   -0.6681 C   0  0  0  0  0  0  0  0  0  0  0  0
   -0.0858   -3.5012   -0.2205 C   0  0  0  0  0  0  0  0  0  0  0  0
    0.9168   -3.4079    0.7748 C   0  0  0  0  0  0  0  0  0  0  0  0
    1.2551   -2.0770    0.8730 C   0  0  0  0  0  0  0  0  0  0  0  0
    2.4395   -1.3484    1.9236 S   0  0  0  0  0  0  0  0  0  0  0  0
    2.9892    0.0634    0.9289 C   0  0  0  0  0  0  0  0  0  0  0  0
    2.1574    1.2758    1.1257 C   0  0  0  0  0  0  0  0  0  0  0  0
    1.0831    1.8086    0.4412 C   0  0  0  0  0  0  0  0  0  0  0  0
    0.7463    3.0172    1.0994 C   0  0  0  0  0  0  0  0  0  0  0  0
    1.6571    3.1628    2.1198 C   0  0  0  0  0  0  0  0  0  0  0  0
    2.5195    2.1129    2.1440 O   0  0  0  0  0  0  0  0  0  0  0  0
    0.5100   -1.3651   -0.0153 O   0  0  0  0  0  0  0  0  0  0  0  0
   -3.2564    1.8899    0.0590 H   0  0  0  0  0  0  0  0  0  0  0  0
   -1.2487   -2.3363   -2.6042 H   0  0  0  0  0  0  0  0  0  0  0  0
   -0.5825   -4.4020   -0.5554 H   0  0  0  0  0  0  0  0  0  0  0  0
    1.3439   -4.2136    1.3515 H   0  0  0  0  0  0  0  0  0  0  0  0
    3.0271   -0.2158   -0.1310 H   0  0  0  0  0  0  0  0  0  0  0  0
    4.0223    0.2851    1.2301 H   0  0  0  0  0  0  0  0  0  0  0  0
    0.5989    1.3572   -0.4140 H   0  0  0  0  0  0  0  0  0  0  0  0
   -0.0593    3.6976    0.8704 H   0  0  0  0  0  0  0  0  0  0  0  0
    1.8100    3.9074    2.8883 H   0  0  0  0  0  0  0  0  0  0  0  0
  1  2  2  0
  2  3  1  0
  3  4  1  0
  4  5  2  0
  4  6  1  0
  6  7  1  0
  7  8  2  3
  8  9  1  0
  9 10  2  0
 10 11  1  0
 11 12  2  0
 12 13  1  0
 13 14  1  0
 14 15  1  0
 15 16  2  0
 16 17  1  0
 17 18  2  0
 18 19  1  0
 12 20  1  0
  7  2  1  0
 20  9  1  0
 19 15  1  0
  3 21  1  0
  8 22  1  0
 10 23  1  0
 11 24  1  0
 14 25  1  0
 14 26  1  0
 16 27  1  0
 17 28  1  0
 18 29  1  0
M  END
$$$$
