
     RDKit          3D

 39 41  0  0  0  0  0  0  0  0999 V2000
    4.9799   -2.7089   -1.4244 C   0  0  0  0  0  0  0  0  0  0  0  0
    4.9294   -1.4482   -0.6433 C   0  0  0  0  0  0  0  0  0  0  0  0
    6.0659   -0.8255   -0.3056 N   0  0  0  0  0  0  0  0  0  0  0  0
    5.6545    0.2560    0.3797 N   0  0  0  0  0  0  0  0  0  0  0  0
    6.6303    1.1771    0.9084 C   0  0  0  0  0  0  0  0  0  0  0  0
    4.3017    0.3437    0.4900 C   0  0  0  0  0  0  0  0  0  0  0  0
    3.7840   -0.7543   -0.1670 C   0  0  0  0  0  0  0  0  0  0  0  0
    2.3911   -1.0965   -0.3208 C   0  0  0  0  0  0  0  0  0  0  0  0
    1.4886   -0.3266    0.1935 N   0  0  0  0  0  0  0  0  0  0  0  0
    0.1906   -0.7162    0.0050 N   0  0  0  0  0  0  0  0  0  0  0  0
   -0.8507    0.0852    0.4608 C   0  0  0  0  0  0  0  0  0  0  0  0
   -0.6955    1.1608    1.0322 O   0  0  0  0  0  0  0  0  0  0  0  0
   -2.1936   -0.4450    0.1702 C   0  0  0  0  0  0  0  0  0  0  0  0
   -2.4973   -1.7910    0.0282 C   0  0  0  0  0  0  0  0  0  0  0  0
   -4.1516   -2.0835   -0.2917 S   0  0  0  0  0  0  0  0  0  0  0  0
   -4.5101   -0.4274   -0.2099 C   0  0  0  0  0  0  0  0  0  0  0  0
   -3.3938    0.3508    0.0359 C   0  0  0  0  0  0  0  0  0  0  0  0
   -3.4913    1.8478    0.1620 C   0  0  0  0  0  0  0  0  0  0  0  0
   -4.8202    2.3879   -0.3896 C   0  0  0  0  0  0  0  0  0  0  0  0
   -6.0129    1.5418    0.0739 C   0  0  0  0  0  0  0  0  0  0  0  0
   -5.9003    0.0912   -0.4170 C   0  0  0  0  0  0  0  0  0  0  0  0
    4.4477   -2.5901   -2.3736 H   0  0  0  0  0  0  0  0  0  0  0  0
    6.0100   -3.0042   -1.6494 H   0  0  0  0  0  0  0  0  0  0  0  0
    4.5099   -3.5232   -0.8637 H   0  0  0  0  0  0  0  0  0  0  0  0
    7.2126    1.5783    0.0751 H   0  0  0  0  0  0  0  0  0  0  0  0
    6.1191    1.9891    1.4314 H   0  0  0  0  0  0  0  0  0  0  0  0
    7.2760    0.6341    1.6030 H   0  0  0  0  0  0  0  0  0  0  0  0
    3.8147    1.1567    1.0123 H   0  0  0  0  0  0  0  0  0  0  0  0
    2.1461   -2.0161   -0.8794 H   0  0  0  0  0  0  0  0  0  0  0  0
   -0.0065   -1.5249   -0.5695 H   0  0  0  0  0  0  0  0  0  0  0  0
   -1.8375   -2.6422    0.1174 H   0  0  0  0  0  0  0  0  0  0  0  0
   -2.6642    2.3316   -0.3694 H   0  0  0  0  0  0  0  0  0  0  0  0
   -3.4062    2.1131    1.2231 H   0  0  0  0  0  0  0  0  0  0  0  0
   -4.9516    3.4280   -0.0706 H   0  0  0  0  0  0  0  0  0  0  0  0
   -4.7877    2.3911   -1.4867 H   0  0  0  0  0  0  0  0  0  0  0  0
   -6.0593    1.5571    1.1705 H   0  0  0  0  0  0  0  0  0  0  0  0
   -6.9484    1.9796   -0.2921 H   0  0  0  0  0  0  0  0  0  0  0  0
   -6.6354   -0.5284    0.1091 H   0  0  0  0  0  0  0  0  0  0  0  0
   -6.1377    0.0510   -1.4873 H   0  0  0  0  0  0  0  0  0  0  0  0
  1  2  1  0
  2  3  2  0
  3  4  1  0
  4  5  1  0
  4  6  1  0
  6  7  2  0
  7  8  1  0
  8  9  2  3
  9 10  1  0
 10 11  1  0
 11 12  2  0
 11 13  1  0
 13 14  2  0
 14 15  1  0
 15 16  1  0
 16 17  2  0
 17 18  1  0
 18 19  1  0
 19 20  1  0
 20 21  1  0
  7  2  1  0
 17 13  1  0
 21 16  1  0
  1 22  1  0
  1 23  1  0
  1 24  1  0
  5 25  1  0
  5 26  1  0
  5 27  1  0
  6 28  1  0
  8 29  1  0
 10 30  1  0
 14 31  1  0
 18 32  1  0
 18 33  1  0
 19 34  1  0
 19 35  1  0
 20 36  1  0
 20 37  1  0
 21 38  1  0
 21 39  1  0
M  END
$$$$
