
     RDKit          3D

 45 47  0  0  0  0  0  0  0  0999 V2000
    6.9799   -1.1270    1.4975 C   0  0  0  0  0  0  0  0  0  0  0  0
    6.3324   -0.1373    0.7111 O   0  0  0  0  0  0  0  0  0  0  0  0
    4.9682   -0.2204    0.5836 C   0  0  0  0  0  0  0  0  0  0  0  0
    4.1748   -1.1964    1.1909 C   0  0  0  0  0  0  0  0  0  0  0  0
    2.7878   -1.2034    1.0048 C   0  0  0  0  0  0  0  0  0  0  0  0
    2.1746   -0.2405    0.2063 C   0  0  0  0  0  0  0  0  0  0  0  0
    0.7819   -0.1773   -0.0125 N   0  0  0  0  0  0  0  0  0  0  0  0
   -0.1623   -1.1300    0.3043 C   0  0  0  0  0  0  0  0  0  0  0  0
    0.0912   -2.2615    0.7085 O   0  0  0  0  0  0  0  0  0  0  0  0
   -1.4790   -0.7107    0.1038 N   0  0  0  0  0  0  0  0  0  0  0  0
   -2.5424   -1.7059    0.2470 C   0  0  0  0  0  0  0  0  0  0  0  0
   -3.7498   -1.3450   -0.6054 C   0  0  0  0  0  0  0  0  0  0  0  0
   -4.3186    0.0215   -0.2071 C   0  0  0  0  0  0  0  0  0  0  0  0
   -3.2981    0.9229    0.4917 C   0  0  0  0  0  0  0  0  0  0  0  0
   -1.8978    0.6853   -0.0539 C   0  0  0  0  0  0  0  0  0  0  0  0
   -4.7860    0.6758   -1.4047 O   0  0  0  0  0  0  0  0  0  0  0  0
   -6.1152    1.1002   -1.1023 C   0  0  0  0  0  0  0  0  0  0  0  0
   -6.5903    0.0767   -0.1104 C   0  0  0  0  0  0  0  0  0  0  0  0
   -5.4323   -0.1618    0.6883 O   0  0  0  0  0  0  0  0  0  0  0  0
    2.9672    0.7466   -0.3964 C   0  0  0  0  0  0  0  0  0  0  0  0
    4.3577    0.7625   -0.2185 C   0  0  0  0  0  0  0  0  0  0  0  0
    5.2015    1.6920   -0.7766 O   0  0  0  0  0  0  0  0  0  0  0  0
    4.6373    2.6674   -1.6400 C   0  0  0  0  0  0  0  0  0  0  0  0
    6.8314   -2.1269    1.0765 H   0  0  0  0  0  0  0  0  0  0  0  0
    6.6486   -1.0820    2.5401 H   0  0  0  0  0  0  0  0  0  0  0  0
    8.0537   -0.9167    1.4817 H   0  0  0  0  0  0  0  0  0  0  0  0
    4.5991   -1.9708    1.8212 H   0  0  0  0  0  0  0  0  0  0  0  0
    2.2123   -1.9745    1.5085 H   0  0  0  0  0  0  0  0  0  0  0  0
    0.4646    0.5497   -0.6326 H   0  0  0  0  0  0  0  0  0  0  0  0
   -2.8101   -1.7595    1.3092 H   0  0  0  0  0  0  0  0  0  0  0  0
   -2.1684   -2.6933   -0.0461 H   0  0  0  0  0  0  0  0  0  0  0  0
   -4.5121   -2.1265   -0.5047 H   0  0  0  0  0  0  0  0  0  0  0  0
   -3.4459   -1.3335   -1.6605 H   0  0  0  0  0  0  0  0  0  0  0  0
   -3.3021    0.7288    1.5725 H   0  0  0  0  0  0  0  0  0  0  0  0
   -3.5658    1.9786    0.3635 H   0  0  0  0  0  0  0  0  0  0  0  0
   -1.8521    0.9207   -1.1235 H   0  0  0  0  0  0  0  0  0  0  0  0
   -1.1934    1.3431    0.4663 H   0  0  0  0  0  0  0  0  0  0  0  0
   -6.7236    1.1428   -2.0089 H   0  0  0  0  0  0  0  0  0  0  0  0
   -6.0592    2.0988   -0.6557 H   0  0  0  0  0  0  0  0  0  0  0  0
   -6.8681   -0.8627   -0.6002 H   0  0  0  0  0  0  0  0  0  0  0  0
   -7.4224    0.4233    0.5072 H   0  0  0  0  0  0  0  0  0  0  0  0
    2.4843    1.5010   -1.0066 H   0  0  0  0  0  0  0  0  0  0  0  0
    3.9381    3.3143   -1.1001 H   0  0  0  0  0  0  0  0  0  0  0  0
    5.4517    3.2967   -2.0116 H   0  0  0  0  0  0  0  0  0  0  0  0
    4.1571    2.2000   -2.5061 H   0  0  0  0  0  0  0  0  0  0  0  0
  1  2  1  0
  2  3  1  0
  3  4  2  0
  4  5  1  0
  5  6  2  0
  6  7  1  0
  7  8  1  0
  8  9  2  0
  8 10  1  0
 10 11  1  0
 11 12  1  0
 12 13  1  0
 13 14  1  0
 14 15  1  0
 13 16  1  0
 16 17  1  0
 17 18  1  0
 18 19  1  0
  6 20  1  0
 20 21  2  0
 21 22  1  0
 22 23  1  0
 21  3  1  0
 15 10  1  0
 19 13  1  0
  1 24  1  0
  1 25  1  0
  1 26  1  0
  4 27  1  0
  5 28  1  0
  7 29  1  0
 11 30  1  0
 11 31  1  0
 12 32  1  0
 12 33  1  0
 14 34  1  0
 14 35  1  0
 15 36  1  0
 15 37  1  0
 17 38  1  0
 17 39  1  0
 18 40  1  0
 18 41  1  0
 20 42  1  0
 23 43  1  0
 23 44  1  0
 23 45  1  0
M  END
$$$$
