
     RDKit          3D

 47 50  0  0  0  0  0  0  0  0999 V2000
    2.7477    0.8153   -0.8092 C   0  0  0  0  0  0  0  0  0  0  0  0
    2.4737    1.0919    0.5816 N   0  0  0  0  0  0  0  0  0  0  0  0
    3.2739    0.7428    1.6550 C   0  0  0  0  0  0  0  0  0  0  0  0
    4.5152   -0.0166    1.5871 C   0  0  0  0  0  0  0  0  0  0  0  0
    5.7121    0.5492    2.0408 C   0  0  0  0  0  0  0  0  0  0  0  0
    6.9034   -0.1773    1.9815 C   0  0  0  0  0  0  0  0  0  0  0  0
    6.9045   -1.4760    1.4747 C   0  0  0  0  0  0  0  0  0  0  0  0
    5.7151   -2.0512    1.0302 C   0  0  0  0  0  0  0  0  0  0  0  0
    4.5237   -1.3253    1.0883 C   0  0  0  0  0  0  0  0  0  0  0  0
    2.6186    1.2764    2.7504 C   0  0  0  0  0  0  0  0  0  0  0  0
    1.4480    1.8887    2.3907 N   0  0  0  0  0  0  0  0  0  0  0  0
    1.3829    1.7501    1.0882 C   0  0  0  0  0  0  0  0  0  0  0  0
    0.0584    2.3098    0.1235 S   0  0  0  0  0  0  0  0  0  0  0  0
   -1.2380    1.1869    0.7310 C   0  0  0  0  0  0  0  0  0  0  0  0
   -1.2416   -0.1059   -0.0817 C   0  0  0  0  0  0  0  0  0  0  0  0
   -0.2381   -0.8336   -0.0758 O   0  0  0  0  0  0  0  0  0  0  0  0
   -2.4195   -0.5267   -0.7147 N   0  0  0  0  0  0  0  0  0  0  0  0
   -2.5384   -1.9798   -0.8717 C   0  0  0  0  0  0  0  0  0  0  0  0
   -3.8016   -2.4730   -1.5594 C   0  0  0  0  0  0  0  0  0  0  0  0
   -5.0054   -1.7356   -1.0048 C   0  0  0  0  0  0  0  0  0  0  0  0
   -4.7991   -0.2669   -1.2522 C   0  0  0  0  0  0  0  0  0  0  0  0
   -5.8959    0.5351   -1.6056 C   0  0  0  0  0  0  0  0  0  0  0  0
   -5.7158    1.8833   -1.8981 C   0  0  0  0  0  0  0  0  0  0  0  0
   -4.4391    2.4306   -1.8564 C   0  0  0  0  0  0  0  0  0  0  0  0
   -3.3475    1.6393   -1.4853 C   0  0  0  0  0  0  0  0  0  0  0  0
   -3.5139    0.2963   -1.1260 C   0  0  0  0  0  0  0  0  0  0  0  0
    2.3829    1.6367   -1.4299 H   0  0  0  0  0  0  0  0  0  0  0  0
    2.2529   -0.1203   -1.0789 H   0  0  0  0  0  0  0  0  0  0  0  0
    3.8261    0.7312   -0.9640 H   0  0  0  0  0  0  0  0  0  0  0  0
    5.7254    1.5621    2.4371 H   0  0  0  0  0  0  0  0  0  0  0  0
    7.8294    0.2706    2.3326 H   0  0  0  0  0  0  0  0  0  0  0  0
    7.8316   -2.0419    1.4316 H   0  0  0  0  0  0  0  0  0  0  0  0
    5.7126   -3.0672    0.6442 H   0  0  0  0  0  0  0  0  0  0  0  0
    3.5992   -1.7918    0.7543 H   0  0  0  0  0  0  0  0  0  0  0  0
    2.9280    1.2282    3.7866 H   0  0  0  0  0  0  0  0  0  0  0  0
   -2.1989    1.6992    0.7383 H   0  0  0  0  0  0  0  0  0  0  0  0
   -1.0564    0.9127    1.7769 H   0  0  0  0  0  0  0  0  0  0  0  0
   -1.6640   -2.3447   -1.4250 H   0  0  0  0  0  0  0  0  0  0  0  0
   -2.4775   -2.4152    0.1349 H   0  0  0  0  0  0  0  0  0  0  0  0
   -3.9103   -3.5535   -1.4142 H   0  0  0  0  0  0  0  0  0  0  0  0
   -3.7214   -2.3006   -2.6409 H   0  0  0  0  0  0  0  0  0  0  0  0
   -5.1244   -1.9147    0.0700 H   0  0  0  0  0  0  0  0  0  0  0  0
   -5.9100   -2.0930   -1.5100 H   0  0  0  0  0  0  0  0  0  0  0  0
   -6.8931    0.1058   -1.6724 H   0  0  0  0  0  0  0  0  0  0  0  0
   -6.5651    2.4988   -2.1830 H   0  0  0  0  0  0  0  0  0  0  0  0
   -4.2855    3.4736   -2.1229 H   0  0  0  0  0  0  0  0  0  0  0  0
   -2.3648    2.0962   -1.5304 H   0  0  0  0  0  0  0  0  0  0  0  0
  1  2  1  0
  2  3  1  0
  3  4  1  0
  4  5  2  0
  5  6  1  0
  6  7  2  0
  7  8  1  0
  8  9  2  0
  3 10  2  0
 10 11  1  0
 11 12  2  0
 12 13  1  0
 13 14  1  0
 14 15  1  0
 15 16  2  0
 15 17  1  0
 17 18  1  0
 18 19  1  0
 19 20  1  0
 20 21  1  0
 21 22  2  0
 22 23  1  0
 23 24  2  0
 24 25  1  0
 25 26  2  0
 12  2  1  0
 26 17  1  0
  9  4  1  0
 26 21  1  0
  1 27  1  0
  1 28  1  0
  1 29  1  0
  5 30  1  0
  6 31  1  0
  7 32  1  0
  8 33  1  0
  9 34  1  0
 10 35  1  0
 14 36  1  0
 14 37  1  0
 18 38  1  0
 18 39  1  0
 19 40  1  0
 19 41  1  0
 20 42  1  0
 20 43  1  0
 22 44  1  0
 23 45  1  0
 24 46  1  0
 25 47  1  0
M  END
$$$$
