
     RDKit          3D

 50 52  0  0  0  0  0  0  0  0999 V2000
    3.2600   -0.6145    0.8479 O   0  0  0  0  0  0  0  0  0  0  0  0
    3.5706   -1.0946   -0.2337 C   0  0  0  0  0  0  0  0  0  0  0  0
    4.8752   -0.8856   -0.9711 C   0  0  0  0  0  0  0  0  0  0  0  0
    5.7581    0.1818   -0.3668 C   0  0  0  0  0  0  0  0  0  0  0  0
    6.8278   -0.1664    0.4726 C   0  0  0  0  0  0  0  0  0  0  0  0
    7.6327    0.8256    1.0350 C   0  0  0  0  0  0  0  0  0  0  0  0
    7.3662    2.1621    0.7634 C   0  0  0  0  0  0  0  0  0  0  0  0
    8.1403    3.1121    1.3045 F   0  0  0  0  0  0  0  0  0  0  0  0
    6.3077    2.5276   -0.0588 C   0  0  0  0  0  0  0  0  0  0  0  0
    5.5011    1.5386   -0.6231 C   0  0  0  0  0  0  0  0  0  0  0  0
    2.7749   -1.9401   -0.9566 O   0  0  0  0  0  0  0  0  0  0  0  0
    1.4532   -2.0691   -0.4300 C   0  0  0  0  0  0  0  0  0  0  0  0
    0.6028   -0.8115   -0.6681 C   0  0  0  0  0  0  0  0  0  0  0  0
    0.9588    0.0524   -1.4736 O   0  0  0  0  0  0  0  0  0  0  0  0
   -0.5826   -0.6994    0.0455 N   0  0  0  0  0  0  0  0  0  0  0  0
   -1.3577    0.5399   -0.0628 C   0  0  0  0  0  0  0  0  0  0  0  0
   -2.1040    0.8783    1.2337 C   0  0  0  0  0  0  0  0  0  0  0  0
   -2.9874   -0.2365    1.6800 N   0  0  0  0  0  0  0  0  0  0  0  0
   -4.6369    0.0820    1.8836 S   0  0  0  0  0  6  0  0  0  0  0  0
   -5.2568   -1.1097    2.4229 O   0  0  0  0  0  0  0  0  0  0  0  0
   -4.7723    1.3646    2.5393 O   0  0  0  0  0  0  0  0  0  0  0  0
   -5.2265    0.2749    0.2106 C   0  0  0  0  0  0  0  0  0  0  0  0
   -5.7361   -0.8329   -0.4763 C   0  0  0  0  0  0  0  0  0  0  0  0
   -6.2201   -0.6750   -1.7768 C   0  0  0  0  0  0  0  0  0  0  0  0
   -6.2089    0.5864   -2.3737 C   0  0  0  0  0  0  0  0  0  0  0  0
   -6.8050    0.7764   -3.9758 Cl  0  0  0  0  0  0  0  0  0  0  0  0
   -5.7271    1.6962   -1.6783 C   0  0  0  0  0  0  0  0  0  0  0  0
   -5.2422    1.5447   -0.3773 C   0  0  0  0  0  0  0  0  0  0  0  0
   -2.6089   -1.5894    1.1947 C   0  0  0  0  0  0  0  0  0  0  0  0
   -1.0927   -1.7064    0.9820 C   0  0  0  0  0  0  0  0  0  0  0  0
    4.6513   -0.6071   -2.0082 H   0  0  0  0  0  0  0  0  0  0  0  0
    5.4112   -1.8418   -0.9943 H   0  0  0  0  0  0  0  0  0  0  0  0
    7.0390   -1.2094    0.6974 H   0  0  0  0  0  0  0  0  0  0  0  0
    8.4615    0.5656    1.6853 H   0  0  0  0  0  0  0  0  0  0  0  0
    6.1138    3.5778   -0.2509 H   0  0  0  0  0  0  0  0  0  0  0  0
    4.6663    1.8319   -1.2572 H   0  0  0  0  0  0  0  0  0  0  0  0
    1.4973   -2.3271    0.6335 H   0  0  0  0  0  0  0  0  0  0  0  0
    0.9754   -2.8984   -0.9618 H   0  0  0  0  0  0  0  0  0  0  0  0
   -0.7033    1.3738   -0.3382 H   0  0  0  0  0  0  0  0  0  0  0  0
   -2.0711    0.3940   -0.8827 H   0  0  0  0  0  0  0  0  0  0  0  0
   -1.3829    1.0627    2.0395 H   0  0  0  0  0  0  0  0  0  0  0  0
   -2.6643    1.8069    1.0946 H   0  0  0  0  0  0  0  0  0  0  0  0
   -5.7672   -1.8140   -0.0069 H   0  0  0  0  0  0  0  0  0  0  0  0
   -6.6135   -1.5339   -2.3152 H   0  0  0  0  0  0  0  0  0  0  0  0
   -5.7374    2.6808   -2.1399 H   0  0  0  0  0  0  0  0  0  0  0  0
   -4.8923    2.4179    0.1696 H   0  0  0  0  0  0  0  0  0  0  0  0
   -2.9202   -2.3376    1.9311 H   0  0  0  0  0  0  0  0  0  0  0  0
   -3.1152   -1.7989    0.2470 H   0  0  0  0  0  0  0  0  0  0  0  0
   -0.8494   -2.7077    0.6140 H   0  0  0  0  0  0  0  0  0  0  0  0
   -0.5632   -1.5568    1.9305 H   0  0  0  0  0  0  0  0  0  0  0  0
  1  2  2  0
  2  3  1  0
  3  4  1  0
  4  5  2  0
  5  6  1  0
  6  7  2  0
  7  8  1  0
  7  9  1  0
  9 10  2  0
  2 11  1  0
 11 12  1  0
 12 13  1  0
 13 14  2  0
 13 15  1  0
 15 16  1  0
 16 17  1  0
 17 18  1  0
 18 19  1  0
 19 20  2  0
 19 21  2  0
 19 22  1  0
 22 23  2  0
 23 24  1  0
 24 25  2  0
 25 26  1  0
 25 27  1  0
 27 28  2  0
 18 29  1  0
 29 30  1  0
 10  4  1  0
 30 15  1  0
 28 22  1  0
  3 31  1  0
  3 32  1  0
  5 33  1  0
  6 34  1  0
  9 35  1  0
 10 36  1  0
 12 37  1  0
 12 38  1  0
 16 39  1  0
 16 40  1  0
 17 41  1  0
 17 42  1  0
 23 43  1  0
 24 44  1  0
 27 45  1  0
 28 46  1  0
 29 47  1  0
 29 48  1  0
 30 49  1  0
 30 50  1  0
M  END
$$$$
