
     RDKit          3D

 47 49  0  0  0  0  0  0  0  0999 V2000
    4.9772   -0.4173   -2.9054 C   0  0  0  0  0  0  0  0  0  0  0  0
    4.7082   -0.6937   -1.4517 C   0  0  0  0  0  0  0  0  0  0  0  0
    3.4587   -0.3501   -0.9130 C   0  0  0  0  0  0  0  0  0  0  0  0
    3.1592   -0.5793    0.4303 C   0  0  0  0  0  0  0  0  0  0  0  0
    1.9028   -0.1909    0.8031 O   0  0  0  0  0  0  0  0  0  0  0  0
    1.5357   -0.3894    2.1680 C   0  0  0  0  0  0  0  0  0  0  0  0
    0.1382    0.0792    2.3117 C   0  0  0  0  0  0  0  0  0  0  0  0
   -0.9292    0.2228    1.4593 C   0  0  0  0  0  0  0  0  0  0  0  0
   -1.9796    0.7209    2.2742 C   0  0  0  0  0  0  0  0  0  0  0  0
   -3.3588    1.0323    1.8883 C   0  0  0  0  0  0  0  0  0  0  0  0
   -4.3078    0.4946    2.4599 O   0  0  0  0  0  0  0  0  0  0  0  0
   -3.5591    1.9243    0.8276 N   0  0  0  0  0  0  0  0  0  0  0  0
   -2.4987    2.6237    0.1168 C   0  0  0  0  0  0  0  0  0  0  0  0
   -4.8926    1.9789    0.2312 C   0  0  0  0  0  0  0  0  0  0  0  0
   -5.0484    0.9948   -0.9098 C   0  0  0  0  0  0  0  0  0  0  0  0
   -5.4801   -0.3065   -0.6603 C   0  0  0  0  0  0  0  0  0  0  0  0
   -5.5853   -1.1966   -1.7246 C   0  0  0  0  0  0  0  0  0  0  0  0
   -5.2525   -0.7702   -3.0039 C   0  0  0  0  0  0  0  0  0  0  0  0
   -4.8214    0.5348   -3.1667 C   0  0  0  0  0  0  0  0  0  0  0  0
   -4.7054    1.4216   -2.1538 N   0  0  0  0  0  0  0  0  0  0  0  0
   -1.5700    0.8348    3.5491 N   0  0  0  0  0  0  0  0  0  0  0  0
   -0.2446    0.4456    3.5634 O   0  0  0  0  0  0  0  0  0  0  0  0
    4.1211   -1.1616    1.2554 C   0  0  0  0  0  0  0  0  0  0  0  0
    5.3835   -1.5193    0.7470 C   0  0  0  0  0  0  0  0  0  0  0  0
    6.3940   -2.1418    1.6735 C   0  0  0  0  0  0  0  0  0  0  0  0
    5.6704   -1.2798   -0.6101 C   0  0  0  0  0  0  0  0  0  0  0  0
    7.2256   -1.7075   -1.2495 Cl  0  0  0  0  0  0  0  0  0  0  0  0
    4.1032    0.0236   -3.3990 H   0  0  0  0  0  0  0  0  0  0  0  0
    5.8043    0.2916   -3.0126 H   0  0  0  0  0  0  0  0  0  0  0  0
    5.2149   -1.3470   -3.4345 H   0  0  0  0  0  0  0  0  0  0  0  0
    2.7008    0.1077   -1.5468 H   0  0  0  0  0  0  0  0  0  0  0  0
    2.1907    0.1969    2.8219 H   0  0  0  0  0  0  0  0  0  0  0  0
    1.5841   -1.4522    2.4298 H   0  0  0  0  0  0  0  0  0  0  0  0
   -0.9532   -0.0051    0.4043 H   0  0  0  0  0  0  0  0  0  0  0  0
   -2.8766    3.5802   -0.2583 H   0  0  0  0  0  0  0  0  0  0  0  0
   -1.6547    2.8327    0.7779 H   0  0  0  0  0  0  0  0  0  0  0  0
   -2.1637    2.0082   -0.7227 H   0  0  0  0  0  0  0  0  0  0  0  0
   -5.6609    1.7847    0.9897 H   0  0  0  0  0  0  0  0  0  0  0  0
   -5.0735    2.9987   -0.1317 H   0  0  0  0  0  0  0  0  0  0  0  0
   -5.7288   -0.6260    0.3482 H   0  0  0  0  0  0  0  0  0  0  0  0
   -5.9235   -2.2146   -1.5534 H   0  0  0  0  0  0  0  0  0  0  0  0
   -5.3263   -1.4393   -3.8531 H   0  0  0  0  0  0  0  0  0  0  0  0
   -4.5486    0.9146   -4.1470 H   0  0  0  0  0  0  0  0  0  0  0  0
    3.9183   -1.3511    2.3047 H   0  0  0  0  0  0  0  0  0  0  0  0
    5.9891   -2.2691    2.6842 H   0  0  0  0  0  0  0  0  0  0  0  0
    6.6830   -3.1341    1.3129 H   0  0  0  0  0  0  0  0  0  0  0  0
    7.2805   -1.5046    1.7547 H   0  0  0  0  0  0  0  0  0  0  0  0
  1  2  1  0
  2  3  2  0
  3  4  1  0
  4  5  1  0
  5  6  1  0
  6  7  1  0
  7  8  2  0
  8  9  1  0
  9 10  1  0
 10 11  2  0
 10 12  1  0
 12 13  1  0
 12 14  1  0
 14 15  1  0
 15 16  2  0
 16 17  1  0
 17 18  2  0
 18 19  1  0
 19 20  2  0
  9 21  2  0
 21 22  1  0
  4 23  2  0
 23 24  1  0
 24 25  1  0
 24 26  2  0
 26 27  1  0
 26  2  1  0
 22  7  1  0
 20 15  1  0
  1 28  1  0
  1 29  1  0
  1 30  1  0
  3 31  1  0
  6 32  1  0
  6 33  1  0
  8 34  1  0
 13 35  1  0
 13 36  1  0
 13 37  1  0
 14 38  1  0
 14 39  1  0
 16 40  1  0
 17 41  1  0
 18 42  1  0
 19 43  1  0
 23 44  1  0
 25 45  1  0
 25 46  1  0
 25 47  1  0
M  END
$$$$
