
     RDKit          3D

 52 55  0  0  0  0  0  0  0  0999 V2000
    6.3122   -0.7201   -1.6371 C   0  0  0  0  0  0  0  0  0  0  0  0
    5.7970    0.5107   -1.1223 O   0  0  0  0  0  0  0  0  0  0  0  0
    5.3952    0.3436    0.1813 C   0  0  0  0  0  0  0  0  0  0  0  0
    6.3253    0.6927    1.1689 C   0  0  0  0  0  0  0  0  0  0  0  0
    6.0041    0.5268    2.5104 C   0  0  0  0  0  0  0  0  0  0  0  0
    4.7528    0.0262    2.8562 C   0  0  0  0  0  0  0  0  0  0  0  0
    3.8178   -0.2988    1.8611 C   0  0  0  0  0  0  0  0  0  0  0  0
    4.0997   -0.1391    0.4937 C   0  0  0  0  0  0  0  0  0  0  0  0
    3.1653   -0.4470   -0.5150 N   0  0  0  0  0  0  0  0  0  0  0  0
    2.8965    0.6842   -1.4393 C   0  0  0  0  0  0  0  0  0  0  0  0
    1.5113    0.5583   -2.1190 C   0  0  0  0  0  0  0  0  0  0  0  0
    0.3524    0.4065   -1.2028 N   0  0  0  0  0  0  0  0  0  0  0  0
   -0.1330    1.7420   -0.7574 C   0  0  0  0  0  0  0  0  0  0  0  0
   -1.5206    1.6452   -0.1009 C   0  0  0  0  0  0  0  0  0  0  0  0
   -1.8771    2.4500    0.7546 O   0  0  0  0  0  0  0  0  0  0  0  0
   -2.2833    0.6261   -0.6436 N   0  0  0  0  0  0  0  0  0  0  0  0
   -3.6024    0.2587   -0.3338 C   0  0  0  0  0  0  0  0  0  0  0  0
   -4.1500   -0.8176   -1.0396 C   0  0  0  0  0  0  0  0  0  0  0  0
   -5.4640   -1.2360   -0.8008 C   0  0  0  0  0  0  0  0  0  0  0  0
   -6.2477   -0.5818    0.1590 C   0  0  0  0  0  0  0  0  0  0  0  0
   -7.5775   -1.0066    0.3845 N   0  0  0  0  0  0  0  0  0  0  0  0
   -8.5154   -0.5188    1.2587 C   0  0  0  0  0  0  0  0  0  0  0  0
   -9.6324   -1.1963    1.1202 N   0  0  0  0  0  0  0  0  0  0  0  0
   -9.3840   -2.1298    0.1506 N   0  0  0  0  0  0  0  0  0  0  0  0
   -8.1412   -2.0322   -0.2970 N   0  0  0  0  0  0  0  0  0  0  0  0
   -5.7009    0.4903    0.8750 C   0  0  0  0  0  0  0  0  0  0  0  0
   -4.3860    0.9060    0.6227 C   0  0  0  0  0  0  0  0  0  0  0  0
    0.7303   -0.4256   -0.0204 C   0  0  0  0  0  0  0  0  0  0  0  0
    1.9936   -1.2929   -0.2235 C   0  0  0  0  0  0  0  0  0  0  0  0
    6.1256   -0.7396   -2.7153 H   0  0  0  0  0  0  0  0  0  0  0  0
    7.3943   -0.7484   -1.4770 H   0  0  0  0  0  0  0  0  0  0  0  0
    5.8463   -1.6124   -1.1967 H   0  0  0  0  0  0  0  0  0  0  0  0
    7.2981    1.0812    0.8833 H   0  0  0  0  0  0  0  0  0  0  0  0
    6.7238    0.7867    3.2818 H   0  0  0  0  0  0  0  0  0  0  0  0
    4.4924   -0.1109    3.9021 H   0  0  0  0  0  0  0  0  0  0  0  0
    2.8493   -0.6568    2.1991 H   0  0  0  0  0  0  0  0  0  0  0  0
    3.6499    0.7048   -2.2322 H   0  0  0  0  0  0  0  0  0  0  0  0
    2.9344    1.6419   -0.9030 H   0  0  0  0  0  0  0  0  0  0  0  0
    1.3600    1.4030   -2.8030 H   0  0  0  0  0  0  0  0  0  0  0  0
    1.5259   -0.3296   -2.7667 H   0  0  0  0  0  0  0  0  0  0  0  0
   -0.2646    2.4038   -1.6233 H   0  0  0  0  0  0  0  0  0  0  0  0
    0.5671    2.2205   -0.0622 H   0  0  0  0  0  0  0  0  0  0  0  0
   -1.7776    0.0666   -1.3278 H   0  0  0  0  0  0  0  0  0  0  0  0
   -3.5674   -1.3398   -1.7958 H   0  0  0  0  0  0  0  0  0  0  0  0
   -5.8572   -2.0710   -1.3817 H   0  0  0  0  0  0  0  0  0  0  0  0
   -8.3512    0.3012    1.9384 H   0  0  0  0  0  0  0  0  0  0  0  0
   -6.2584    1.0355    1.6313 H   0  0  0  0  0  0  0  0  0  0  0  0
   -4.0014    1.7464    1.1954 H   0  0  0  0  0  0  0  0  0  0  0  0
   -0.1124   -1.0868    0.2127 H   0  0  0  0  0  0  0  0  0  0  0  0
    0.8949    0.2053    0.8628 H   0  0  0  0  0  0  0  0  0  0  0  0
    1.8352   -1.9672   -1.0758 H   0  0  0  0  0  0  0  0  0  0  0  0
    2.1549   -1.9584    0.6330 H   0  0  0  0  0  0  0  0  0  0  0  0
  1  2  1  0
  2  3  1  0
  3  4  2  0
  4  5  1  0
  5  6  2  0
  6  7  1  0
  7  8  2  0
  8  9  1  0
  9 10  1  0
 10 11  1  0
 11 12  1  0
 12 13  1  0
 13 14  1  0
 14 15  2  0
 14 16  1  0
 16 17  1  0
 17 18  2  0
 18 19  1  0
 19 20  2  0
 20 21  1  0
 21 22  1  0
 22 23  2  0
 23 24  1  0
 24 25  2  0
 20 26  1  0
 26 27  2  0
 12 28  1  0
 28 29  1  0
  8  3  1  0
 29  9  1  0
 27 17  1  0
 25 21  1  0
  1 30  1  0
  1 31  1  0
  1 32  1  0
  4 33  1  0
  5 34  1  0
  6 35  1  0
  7 36  1  0
 10 37  1  0
 10 38  1  0
 11 39  1  0
 11 40  1  0
 13 41  1  0
 13 42  1  0
 16 43  1  0
 18 44  1  0
 19 45  1  0
 22 46  1  0
 26 47  1  0
 27 48  1  0
 28 49  1  0
 28 50  1  0
 29 51  1  0
 29 52  1  0
M  END
$$$$
