
     RDKit          3D

 48 50  0  0  0  0  0  0  0  0999 V2000
   -0.9888    1.5139   -1.2870 O   0  0  0  0  0  0  0  0  0  0  0  0
   -1.3240    0.3530   -1.0659 C   0  0  0  0  0  0  0  0  0  0  0  0
   -0.3968   -0.8405   -1.1669 C   0  0  0  0  0  0  0  0  0  0  0  0
    1.0235   -0.4311   -1.5517 C   0  0  0  0  0  0  0  0  0  0  0  0
    1.9650   -1.6233   -1.7569 C   0  0  0  0  0  0  0  0  0  0  0  0
    2.2416   -2.3654   -0.5241 N   0  0  0  0  0  0  0  0  0  0  0  0
    3.1414   -1.8191    0.3812 C   0  0  0  0  0  0  0  0  0  0  0  0
    3.7113   -0.7460    0.2460 O   0  0  0  0  0  0  0  0  0  0  0  0
    3.3089   -2.7218    1.5554 C   0  0  0  0  0  0  0  0  0  0  0  0
    4.1107   -2.5469    2.6151 C   0  0  0  0  0  0  0  0  0  0  0  0
    5.0168   -1.4089    2.8131 C   0  0  0  0  0  0  0  0  0  0  0  0
    4.5820   -0.3483    3.6210 C   0  0  0  0  0  0  0  0  0  0  0  0
    5.4054    0.7585    3.8407 C   0  0  0  0  0  0  0  0  0  0  0  0
    6.6698    0.8163    3.2576 C   0  0  0  0  0  0  0  0  0  0  0  0
    7.1148   -0.2333    2.4536 C   0  0  0  0  0  0  0  0  0  0  0  0
    6.2938   -1.3425    2.2310 C   0  0  0  0  0  0  0  0  0  0  0  0
    6.9082   -2.6196    1.2380 Cl  0  0  0  0  0  0  0  0  0  0  0  0
    2.2978   -4.1056    1.3762 S   0  0  0  0  0  0  0  0  0  0  0  0
    1.6974   -3.5886   -0.1932 C   0  0  0  0  0  0  0  0  0  0  0  0
    0.6185   -4.5143   -1.0670 S   0  0  0  0  0  0  0  0  0  0  0  0
   -2.6085    0.0081   -0.6866 N   0  0  0  0  0  0  0  0  0  0  0  0
   -3.5906    1.0120   -0.8092 N   0  0  0  0  0  0  0  0  0  0  0  0
   -4.7859    0.6372   -1.3960 C   0  0  0  0  0  0  0  0  0  0  0  0
   -5.0609   -0.5367   -1.6344 O   0  0  0  0  0  0  0  0  0  0  0  0
   -5.7236    1.7338   -1.7662 C   0  0  0  0  0  0  0  0  0  0  0  0
   -5.6712    2.9994   -1.1651 C   0  0  0  0  0  0  0  0  0  0  0  0
   -6.5785    3.9937   -1.5469 C   0  0  0  0  0  0  0  0  0  0  0  0
   -7.5396    3.7236   -2.5206 C   0  0  0  0  0  0  0  0  0  0  0  0
   -8.6526    4.9497   -2.9850 Cl  0  0  0  0  0  0  0  0  0  0  0  0
   -7.6077    2.4650   -3.1142 C   0  0  0  0  0  0  0  0  0  0  0  0
   -6.7032    1.4696   -2.7345 C   0  0  0  0  0  0  0  0  0  0  0  0
   -0.3961   -1.3481   -0.1961 H   0  0  0  0  0  0  0  0  0  0  0  0
   -0.8066   -1.5225   -1.9204 H   0  0  0  0  0  0  0  0  0  0  0  0
    0.9910    0.1429   -2.4866 H   0  0  0  0  0  0  0  0  0  0  0  0
    1.4269    0.2459   -0.7890 H   0  0  0  0  0  0  0  0  0  0  0  0
    1.5651   -2.2870   -2.5289 H   0  0  0  0  0  0  0  0  0  0  0  0
    2.9224   -1.2445   -2.1364 H   0  0  0  0  0  0  0  0  0  0  0  0
    4.1445   -3.2866    3.4120 H   0  0  0  0  0  0  0  0  0  0  0  0
    3.5957   -0.3710    4.0794 H   0  0  0  0  0  0  0  0  0  0  0  0
    5.0563    1.5794    4.4627 H   0  0  0  0  0  0  0  0  0  0  0  0
    7.3077    1.6807    3.4250 H   0  0  0  0  0  0  0  0  0  0  0  0
    8.1011   -0.1801    2.0001 H   0  0  0  0  0  0  0  0  0  0  0  0
   -2.9534   -0.9411   -0.8406 H   0  0  0  0  0  0  0  0  0  0  0  0
   -3.2178    1.9532   -0.9355 H   0  0  0  0  0  0  0  0  0  0  0  0
   -4.9518    3.2276   -0.3834 H   0  0  0  0  0  0  0  0  0  0  0  0
   -6.5352    4.9732   -1.0764 H   0  0  0  0  0  0  0  0  0  0  0  0
   -8.3605    2.2499   -3.8683 H   0  0  0  0  0  0  0  0  0  0  0  0
   -6.7640    0.4863   -3.1986 H   0  0  0  0  0  0  0  0  0  0  0  0
  1  2  2  0
  2  3  1  0
  3  4  1  0
  4  5  1  0
  5  6  1  0
  6  7  1  0
  7  8  2  0
  7  9  1  0
  9 10  2  3
 10 11  1  0
 11 12  2  0
 12 13  1  0
 13 14  2  0
 14 15  1  0
 15 16  2  0
 16 17  1  0
  9 18  1  0
 18 19  1  0
 19 20  2  0
  2 21  1  0
 21 22  1  0
 22 23  1  0
 23 24  2  0
 23 25  1  0
 25 26  2  0
 26 27  1  0
 27 28  2  0
 28 29  1  0
 28 30  1  0
 30 31  2  0
 19  6  1  0
 31 25  1  0
 16 11  1  0
  3 32  1  0
  3 33  1  0
  4 34  1  0
  4 35  1  0
  5 36  1  0
  5 37  1  0
 10 38  1  0
 12 39  1  0
 13 40  1  0
 14 41  1  0
 15 42  1  0
 21 43  1  0
 22 44  1  0
 26 45  1  0
 27 46  1  0
 30 47  1  0
 31 48  1  0
M  END
$$$$
