
     RDKit          3D

 33 34  0  0  0  0  0  0  0  0999 V2000
    7.3225    0.4233   -0.5832 C   0  0  0  0  0  0  0  0  0  0  0  0
    6.6959    0.5317    0.8006 C   0  0  0  0  0  0  0  0  0  0  0  0
    5.2630    0.0026    0.8736 C   0  0  0  0  0  0  0  0  0  0  0  0
    4.0981    1.0453   -0.0572 S   0  0  0  0  0  0  0  0  0  0  0  0
    2.5968    0.1962    0.2304 C   0  0  0  0  0  0  0  0  0  0  0  0
    2.5213   -0.9076    0.9430 N   0  0  0  0  0  0  0  0  0  0  0  0
    1.2266   -1.3830    1.0180 N   0  0  0  0  0  0  0  0  0  0  0  0
    0.3798   -0.6107    0.3720 C   0  0  0  0  0  0  0  0  0  0  0  0
   -0.9590   -0.9078    0.3006 N   0  0  0  0  0  0  0  0  0  0  0  0
   -1.9603   -0.0959   -0.1931 C   0  0  0  0  0  0  0  0  0  0  0  0
   -1.8048    1.0514   -0.5873 O   0  0  0  0  0  0  0  0  0  0  0  0
   -3.1744   -0.7712   -0.1774 N   0  0  0  0  0  0  0  0  0  0  0  0
   -4.4476   -0.2652   -0.5166 C   0  0  0  0  0  0  0  0  0  0  0  0
   -4.7074    1.0770   -0.7989 C   0  0  0  0  0  0  0  0  0  0  0  0
   -6.0031    1.4969   -1.1184 C   0  0  0  0  0  0  0  0  0  0  0  0
   -7.0504    0.5799   -1.1546 C   0  0  0  0  0  0  0  0  0  0  0  0
   -6.8042   -0.7598   -0.8690 C   0  0  0  0  0  0  0  0  0  0  0  0
   -5.5099   -1.1794   -0.5500 C   0  0  0  0  0  0  0  0  0  0  0  0
    1.0964    0.7275   -0.4000 S   0  0  0  0  0  0  0  0  0  0  0  0
    7.2857   -0.6073   -0.9503 H   0  0  0  0  0  0  0  0  0  0  0  0
    8.3729    0.7296   -0.5431 H   0  0  0  0  0  0  0  0  0  0  0  0
    6.8181    1.0671   -1.3095 H   0  0  0  0  0  0  0  0  0  0  0  0
    7.3101   -0.0527    1.4968 H   0  0  0  0  0  0  0  0  0  0  0  0
    6.7404    1.5715    1.1465 H   0  0  0  0  0  0  0  0  0  0  0  0
    4.9484   -0.0176    1.9228 H   0  0  0  0  0  0  0  0  0  0  0  0
    5.2253   -1.0223    0.4885 H   0  0  0  0  0  0  0  0  0  0  0  0
   -1.2118   -1.7291    0.8254 H   0  0  0  0  0  0  0  0  0  0  0  0
   -3.1312   -1.7654   -0.0137 H   0  0  0  0  0  0  0  0  0  0  0  0
   -3.9251    1.8291   -0.7751 H   0  0  0  0  0  0  0  0  0  0  0  0
   -6.1893    2.5454   -1.3378 H   0  0  0  0  0  0  0  0  0  0  0  0
   -8.0553    0.9107   -1.4036 H   0  0  0  0  0  0  0  0  0  0  0  0
   -7.6190   -1.4788   -0.8946 H   0  0  0  0  0  0  0  0  0  0  0  0
   -5.3482   -2.2314   -0.3314 H   0  0  0  0  0  0  0  0  0  0  0  0
  1  2  1  0
  2  3  1  0
  3  4  1  0
  4  5  1  0
  5  6  2  0
  6  7  1  0
  7  8  2  0
  8  9  1  0
  9 10  1  0
 10 11  2  0
 10 12  1  0
 12 13  1  0
 13 14  2  0
 14 15  1  0
 15 16  2  0
 16 17  1  0
 17 18  2  0
  8 19  1  0
 19  5  1  0
 18 13  1  0
  1 20  1  0
  1 21  1  0
  1 22  1  0
  2 23  1  0
  2 24  1  0
  3 25  1  0
  3 26  1  0
  9 27  1  0
 12 28  1  0
 14 29  1  0
 15 30  1  0
 16 31  1  0
 17 32  1  0
 18 33  1  0
M  END
$$$$
