
     RDKit          3D

 47 49  0  0  0  0  0  0  0  0999 V2000
   -8.2862   -1.3541   -0.5614 C   0  0  0  0  0  0  0  0  0  0  0  0
   -7.7877   -0.0503   -1.1688 C   0  0  0  0  0  0  0  0  0  0  0  0
   -7.4479    0.9940   -0.1059 C   0  0  0  0  0  0  0  0  0  0  0  0
   -6.4466    0.5252    0.7971 O   0  0  0  0  0  0  0  0  0  0  0  0
   -5.1310    0.7194    0.4867 C   0  0  0  0  0  0  0  0  0  0  0  0
   -4.6283    1.2467   -0.7022 C   0  0  0  0  0  0  0  0  0  0  0  0
   -3.2467    1.3828   -0.8826 C   0  0  0  0  0  0  0  0  0  0  0  0
   -2.3570    0.9803    0.1198 C   0  0  0  0  0  0  0  0  0  0  0  0
   -0.8944    1.1425   -0.1180 C   0  0  0  0  0  0  0  0  0  0  0  0
   -0.5201    2.0971   -0.7877 O   0  0  0  0  0  0  0  0  0  0  0  0
   -0.1039    0.1452    0.4246 N   0  0  0  0  0  0  0  0  0  0  0  0
    1.3035    0.0600    0.3960 C   0  0  0  0  0  0  0  0  0  0  0  0
    1.8870   -1.0929    0.9299 C   0  0  0  0  0  0  0  0  0  0  0  0
    3.2784   -1.2494    0.9430 C   0  0  0  0  0  0  0  0  0  0  0  0
    4.1159   -0.2535    0.4288 C   0  0  0  0  0  0  0  0  0  0  0  0
    5.5049   -0.4951    0.4762 N   0  0  0  0  0  0  0  0  0  0  0  0
    6.5343    0.3607    0.1040 C   0  0  0  0  0  0  0  0  0  0  0  0
    6.3636    1.5145   -0.2777 O   0  0  0  0  0  0  0  0  0  0  0  0
    7.8661   -0.2373    0.2309 C   0  0  0  0  0  0  0  0  0  0  0  0
    8.2546   -1.5674    0.2646 C   0  0  0  0  0  0  0  0  0  0  0  0
    9.6659   -1.7258    0.4043 C   0  0  0  0  0  0  0  0  0  0  0  0
   10.3161   -0.5154    0.4639 C   0  0  0  0  0  0  0  0  0  0  0  0
    9.2334    0.7996    0.3432 S   0  0  0  0  0  0  0  0  0  0  0  0
    3.5326    0.8956   -0.1018 C   0  0  0  0  0  0  0  0  0  0  0  0
    2.1377    1.0516   -0.1164 C   0  0  0  0  0  0  0  0  0  0  0  0
   -2.8585    0.4652    1.3193 C   0  0  0  0  0  0  0  0  0  0  0  0
   -4.2392    0.3320    1.4925 C   0  0  0  0  0  0  0  0  0  0  0  0
   -8.5534   -2.0610   -1.3533 H   0  0  0  0  0  0  0  0  0  0  0  0
   -7.5178   -1.8225    0.0617 H   0  0  0  0  0  0  0  0  0  0  0  0
   -9.1743   -1.1846    0.0556 H   0  0  0  0  0  0  0  0  0  0  0  0
   -8.5570    0.3539   -1.8361 H   0  0  0  0  0  0  0  0  0  0  0  0
   -6.9070   -0.2722   -1.7807 H   0  0  0  0  0  0  0  0  0  0  0  0
   -7.1826    1.9597   -0.5509 H   0  0  0  0  0  0  0  0  0  0  0  0
   -8.3426    1.1863    0.4983 H   0  0  0  0  0  0  0  0  0  0  0  0
   -5.2761    1.5609   -1.5133 H   0  0  0  0  0  0  0  0  0  0  0  0
   -2.8648    1.8024   -1.8120 H   0  0  0  0  0  0  0  0  0  0  0  0
   -0.5828   -0.6485    0.8285 H   0  0  0  0  0  0  0  0  0  0  0  0
    1.2717   -1.8887    1.3411 H   0  0  0  0  0  0  0  0  0  0  0  0
    3.6911   -2.1619    1.3650 H   0  0  0  0  0  0  0  0  0  0  0  0
    5.7791   -1.3759    0.8850 H   0  0  0  0  0  0  0  0  0  0  0  0
    7.5731   -2.4037    0.1737 H   0  0  0  0  0  0  0  0  0  0  0  0
   10.1785   -2.6793    0.4489 H   0  0  0  0  0  0  0  0  0  0  0  0
   11.3781   -0.3361    0.5633 H   0  0  0  0  0  0  0  0  0  0  0  0
    4.1271    1.7015   -0.5217 H   0  0  0  0  0  0  0  0  0  0  0  0
    1.7405    1.9711   -0.5363 H   0  0  0  0  0  0  0  0  0  0  0  0
   -2.1985    0.1932    2.1378 H   0  0  0  0  0  0  0  0  0  0  0  0
   -4.6287   -0.0658    2.4273 H   0  0  0  0  0  0  0  0  0  0  0  0
  1  2  1  0
  2  3  1  0
  3  4  1  0
  4  5  1  0
  5  6  2  0
  6  7  1  0
  7  8  2  0
  8  9  1  0
  9 10  2  0
  9 11  1  0
 11 12  1  0
 12 13  2  0
 13 14  1  0
 14 15  2  0
 15 16  1  0
 16 17  1  0
 17 18  2  0
 17 19  1  0
 19 20  2  0
 20 21  1  0
 21 22  2  0
 22 23  1  0
 15 24  1  0
 24 25  2  0
  8 26  1  0
 26 27  2  0
 27  5  1  0
 25 12  1  0
 23 19  1  0
  1 28  1  0
  1 29  1  0
  1 30  1  0
  2 31  1  0
  2 32  1  0
  3 33  1  0
  3 34  1  0
  6 35  1  0
  7 36  1  0
 11 37  1  0
 13 38  1  0
 14 39  1  0
 16 40  1  0
 20 41  1  0
 21 42  1  0
 22 43  1  0
 24 44  1  0
 25 45  1  0
 26 46  1  0
 27 47  1  0
M  END
$$$$
