
     RDKit          3D

 53 55  0  0  0  0  0  0  0  0999 V2000
    2.9974   -1.9887    2.8964 C   0  0  0  0  0  0  0  0  0  0  0  0
    4.0268   -1.4260    2.0923 O   0  0  0  0  0  0  0  0  0  0  0  0
    3.6444   -0.8239    0.9229 C   0  0  0  0  0  0  0  0  0  0  0  0
    2.3499   -0.8069    0.4087 C   0  0  0  0  0  0  0  0  0  0  0  0
    2.0912   -0.1624   -0.8091 C   0  0  0  0  0  0  0  0  0  0  0  0
    0.7219   -0.1332   -1.3619 C   0  0  0  0  0  0  0  0  0  0  0  0
   -0.2654   -0.7339   -0.7745 N   0  0  0  0  0  0  0  0  0  0  0  0
   -1.4935   -0.6056   -1.3789 N   0  0  0  0  0  0  0  0  0  0  0  0
   -2.4807   -1.6236   -0.9897 C   0  0  0  0  0  0  0  0  0  0  0  0
   -3.8429   -1.3716   -1.6533 C   0  0  0  0  0  0  0  0  0  0  0  0
   -4.4019   -0.0478   -1.2846 N   0  0  0  0  0  0  0  0  0  0  0  0
   -5.5162    0.0088   -0.4357 C   0  0  0  0  0  0  0  0  0  0  0  0
   -6.3839    1.1107   -0.5280 C   0  0  0  0  0  0  0  0  0  0  0  0
   -7.5071    1.2298    0.2964 C   0  0  0  0  0  0  0  0  0  0  0  0
   -7.7766    0.2419    1.2358 C   0  0  0  0  0  0  0  0  0  0  0  0
   -9.1543    0.3802    2.2561 Cl  0  0  0  0  0  0  0  0  0  0  0  0
   -6.9330   -0.8575    1.3546 C   0  0  0  0  0  0  0  0  0  0  0  0
   -5.8114   -0.9700    0.5237 C   0  0  0  0  0  0  0  0  0  0  0  0
   -3.3868    0.9877   -0.9448 C   0  0  0  0  0  0  0  0  0  0  0  0
   -2.0423    0.7370   -1.6551 C   0  0  0  0  0  0  0  0  0  0  0  0
    3.1158    0.4639   -1.5319 C   0  0  0  0  0  0  0  0  0  0  0  0
    4.4174    0.4551   -1.0331 C   0  0  0  0  0  0  0  0  0  0  0  0
    5.5067    1.0129   -1.6482 O   0  0  0  0  0  0  0  0  0  0  0  0
    5.2693    1.7950   -2.8111 C   0  0  0  0  0  0  0  0  0  0  0  0
    4.6587   -0.1804    0.1961 C   0  0  0  0  0  0  0  0  0  0  0  0
    5.9672   -0.2096    0.6973 O   0  0  0  0  0  0  0  0  0  0  0  0
    6.2361    0.8974    1.4883 C   0  0  0  0  0  0  0  0  0  0  0  0
    7.6436    0.7908    1.9959 C   0  0  0  0  0  0  0  0  0  0  0  0
    5.4828    1.8273    1.7503 O   0  0  0  0  0  0  0  0  0  0  0  0
    2.5121   -2.8261    2.3845 H   0  0  0  0  0  0  0  0  0  0  0  0
    2.2674   -1.2290    3.1950 H   0  0  0  0  0  0  0  0  0  0  0  0
    3.4615   -2.3798    3.8069 H   0  0  0  0  0  0  0  0  0  0  0  0
    1.5259   -1.2857    0.9282 H   0  0  0  0  0  0  0  0  0  0  0  0
    0.5811    0.4114   -2.3129 H   0  0  0  0  0  0  0  0  0  0  0  0
   -2.0854   -2.6018   -1.2830 H   0  0  0  0  0  0  0  0  0  0  0  0
   -2.5794   -1.5972    0.1021 H   0  0  0  0  0  0  0  0  0  0  0  0
   -4.5343   -2.1949   -1.4434 H   0  0  0  0  0  0  0  0  0  0  0  0
   -3.7091   -1.3707   -2.7430 H   0  0  0  0  0  0  0  0  0  0  0  0
   -6.1954    1.8812   -1.2721 H   0  0  0  0  0  0  0  0  0  0  0  0
   -8.1620    2.0900    0.1932 H   0  0  0  0  0  0  0  0  0  0  0  0
   -7.1343   -1.6291    2.0925 H   0  0  0  0  0  0  0  0  0  0  0  0
   -5.1612   -1.8279    0.6647 H   0  0  0  0  0  0  0  0  0  0  0  0
   -3.7550    1.9788   -1.2342 H   0  0  0  0  0  0  0  0  0  0  0  0
   -3.2102    0.9948    0.1397 H   0  0  0  0  0  0  0  0  0  0  0  0
   -1.3221    1.5080   -1.3626 H   0  0  0  0  0  0  0  0  0  0  0  0
   -2.1803    0.7945   -2.7410 H   0  0  0  0  0  0  0  0  0  0  0  0
    2.8783    0.9410   -2.4761 H   0  0  0  0  0  0  0  0  0  0  0  0
    4.5885    2.6261   -2.5985 H   0  0  0  0  0  0  0  0  0  0  0  0
    4.8927    1.1745   -3.6307 H   0  0  0  0  0  0  0  0  0  0  0  0
    6.2259    2.2210   -3.1287 H   0  0  0  0  0  0  0  0  0  0  0  0
    7.7540   -0.1171    2.5943 H   0  0  0  0  0  0  0  0  0  0  0  0
    7.8664    1.6541    2.6295 H   0  0  0  0  0  0  0  0  0  0  0  0
    8.3414    0.7863    1.1549 H   0  0  0  0  0  0  0  0  0  0  0  0
  1  2  1  0
  2  3  1  0
  3  4  2  0
  4  5  1  0
  5  6  1  0
  6  7  2  3
  7  8  1  0
  8  9  1  0
  9 10  1  0
 10 11  1  0
 11 12  1  0
 12 13  2  0
 13 14  1  0
 14 15  2  0
 15 16  1  0
 15 17  1  0
 17 18  2  0
 11 19  1  0
 19 20  1  0
  5 21  2  0
 21 22  1  0
 22 23  1  0
 23 24  1  0
 22 25  2  0
 25 26  1  0
 26 27  1  0
 27 28  1  0
 27 29  2  0
 25  3  1  0
 20  8  1  0
 18 12  1  0
  1 30  1  0
  1 31  1  0
  1 32  1  0
  4 33  1  0
  6 34  1  0
  9 35  1  0
  9 36  1  0
 10 37  1  0
 10 38  1  0
 13 39  1  0
 14 40  1  0
 17 41  1  0
 18 42  1  0
 19 43  1  0
 19 44  1  0
 20 45  1  0
 20 46  1  0
 21 47  1  0
 24 48  1  0
 24 49  1  0
 24 50  1  0
 28 51  1  0
 28 52  1  0
 28 53  1  0
M  END
$$$$
