
     RDKit          3D

 56 61  0  0  0  0  0  0  0  0999 V2000
    4.8449   -1.6408    3.8342 C   0  0  0  0  0  0  0  0  0  0  0  0
    3.9462   -1.3156    2.6776 C   0  0  0  0  0  0  0  0  0  0  0  0
    4.4825   -1.1289    1.4059 C   0  0  0  0  0  0  0  0  0  0  0  0
    3.6443   -0.8245    0.3331 C   0  0  0  0  0  0  0  0  0  0  0  0
    2.2558   -0.6643    0.5104 C   0  0  0  0  0  0  0  0  0  0  0  0
    1.7098   -0.7967    1.7973 C   0  0  0  0  0  0  0  0  0  0  0  0
    2.5671   -1.1448    2.8614 C   0  0  0  0  0  0  0  0  0  0  0  0
    0.3663   -0.5996    2.1722 N   0  0  0  0  0  0  0  0  0  0  0  0
   -0.6199    0.1512    1.5915 C   0  0  0  0  0  0  0  0  0  0  0  0
   -1.6457    0.3332    2.2546 O   0  0  0  0  0  0  0  0  0  0  0  0
   -0.3462    0.9022    0.2749 C   0  0  0  0  0  0  0  0  0  0  0  0
    0.6092    2.0733    0.5972 C   0  0  0  0  0  0  0  0  0  0  0  0
   -1.6781    1.3934   -0.3902 C   0  0  0  0  0  0  0  0  0  0  0  0
   -1.6222    2.7548   -1.0906 C   0  0  0  0  0  0  0  0  0  0  0  0
   -2.3968    3.8163   -0.5958 C   0  0  0  0  0  0  0  0  0  0  0  0
   -2.3731    5.0668   -1.2171 C   0  0  0  0  0  0  0  0  0  0  0  0
   -1.5758    5.2747   -2.3405 C   0  0  0  0  0  0  0  0  0  0  0  0
   -0.7980    4.2338   -2.8418 C   0  0  0  0  0  0  0  0  0  0  0  0
   -0.8194    2.9824   -2.2223 C   0  0  0  0  0  0  0  0  0  0  0  0
   -2.0765    0.3022   -1.4242 C   0  0  0  0  0  0  0  0  0  0  0  0
   -3.3616   -0.4263   -1.0394 C   0  0  0  0  0  0  0  0  0  0  0  0
   -3.1667   -1.3256    0.0501 O   0  0  0  0  0  0  0  0  0  0  0  0
   -2.2939   -2.3169   -0.3087 C   0  0  0  0  0  0  0  0  0  0  0  0
   -2.5478   -3.5965    0.1842 C   0  0  0  0  0  0  0  0  0  0  0  0
   -1.7220   -4.6569   -0.1880 C   0  0  0  0  0  0  0  0  0  0  0  0
   -0.6459   -4.4237   -1.0423 C   0  0  0  0  0  0  0  0  0  0  0  0
    0.3659   -5.7346   -1.5168 Cl  0  0  0  0  0  0  0  0  0  0  0  0
   -0.3786   -3.1352   -1.5114 C   0  0  0  0  0  0  0  0  0  0  0  0
   -1.1917   -2.0556   -1.1300 C   0  0  0  0  0  0  0  0  0  0  0  0
   -0.8638   -0.6320   -1.5452 C   0  0  0  0  0  0  0  0  0  0  0  0
    0.1783   -0.0624   -0.6868 N   0  0  0  0  0  0  0  0  0  0  0  0
    1.4590   -0.5518   -0.7389 C   0  0  0  0  0  0  0  0  0  0  0  0
    1.9361   -0.9787   -1.7902 O   0  0  0  0  0  0  0  0  0  0  0  0
    5.6001   -2.3774    3.5377 H   0  0  0  0  0  0  0  0  0  0  0  0
    5.3507   -0.7324    4.1838 H   0  0  0  0  0  0  0  0  0  0  0  0
    4.2788   -2.0679    4.6703 H   0  0  0  0  0  0  0  0  0  0  0  0
    5.5502   -1.2464    1.2320 H   0  0  0  0  0  0  0  0  0  0  0  0
    4.0792   -0.7402   -0.6623 H   0  0  0  0  0  0  0  0  0  0  0  0
    2.1617   -1.2636    3.8654 H   0  0  0  0  0  0  0  0  0  0  0  0
    0.0933   -0.8932    3.1040 H   0  0  0  0  0  0  0  0  0  0  0  0
    1.0639    2.4946   -0.3039 H   0  0  0  0  0  0  0  0  0  0  0  0
    0.0776    2.8683    1.1323 H   0  0  0  0  0  0  0  0  0  0  0  0
    1.4387    1.7944    1.2523 H   0  0  0  0  0  0  0  0  0  0  0  0
   -2.4666    1.4737    0.3685 H   0  0  0  0  0  0  0  0  0  0  0  0
   -3.0272    3.6806    0.2816 H   0  0  0  0  0  0  0  0  0  0  0  0
   -2.9786    5.8794   -0.8235 H   0  0  0  0  0  0  0  0  0  0  0  0
   -1.5607    6.2479   -2.8245 H   0  0  0  0  0  0  0  0  0  0  0  0
   -0.1716    4.3953   -3.7165 H   0  0  0  0  0  0  0  0  0  0  0  0
   -0.1947    2.1897   -2.6312 H   0  0  0  0  0  0  0  0  0  0  0  0
   -2.2763    0.7526   -2.4062 H   0  0  0  0  0  0  0  0  0  0  0  0
   -4.1395    0.2902   -0.7479 H   0  0  0  0  0  0  0  0  0  0  0  0
   -3.7676   -0.9800   -1.9004 H   0  0  0  0  0  0  0  0  0  0  0  0
   -3.3986   -3.7668    0.8393 H   0  0  0  0  0  0  0  0  0  0  0  0
   -1.9275   -5.6589    0.1811 H   0  0  0  0  0  0  0  0  0  0  0  0
    0.4761   -2.9730   -2.1656 H   0  0  0  0  0  0  0  0  0  0  0  0
   -0.5031   -0.6397   -2.5823 H   0  0  0  0  0  0  0  0  0  0  0  0
  1  2  1  0
  2  3  2  0
  3  4  1  0
  4  5  2  0
  5  6  1  0
  6  7  2  0
  6  8  1  0
  8  9  1  0
  9 10  2  0
  9 11  1  0
 11 12  1  0
 11 13  1  0
 13 14  1  0
 14 15  2  0
 15 16  1  0
 16 17  2  0
 17 18  1  0
 18 19  2  0
 13 20  1  0
 20 21  1  0
 21 22  1  0
 22 23  1  0
 23 24  2  0
 24 25  1  0
 25 26  2  0
 26 27  1  0
 26 28  1  0
 28 29  2  0
 29 30  1  0
 30 31  1  0
 31 32  1  0
 32 33  2  0
  7  2  1  0
 31 11  1  0
 32  5  1  0
 19 14  1  0
 30 20  1  0
 29 23  1  0
  1 34  1  0
  1 35  1  0
  1 36  1  0
  3 37  1  0
  4 38  1  0
  7 39  1  0
  8 40  1  0
 12 41  1  0
 12 42  1  0
 12 43  1  0
 13 44  1  0
 15 45  1  0
 16 46  1  0
 17 47  1  0
 18 48  1  0
 19 49  1  0
 20 50  1  0
 21 51  1  0
 21 52  1  0
 24 53  1  0
 25 54  1  0
 28 55  1  0
 30 56  1  0
M  END
$$$$
