
     RDKit          3D

 71 75  0  0  0  0  0  0  0  0999 V2000
    0.2073    2.0250    5.7608 C   0  0  0  0  0  0  0  0  0  0  0  0
    0.1223    2.5065    4.3193 C   0  0  0  0  0  0  0  0  0  0  0  0
    0.1903    1.3749    3.3764 N   0  0  0  0  0  0  0  0  0  0  0  0
    1.4156    0.9501    2.8777 C   0  0  0  0  0  0  0  0  0  0  0  0
    1.6338   -0.0667    2.0308 C   0  0  0  0  0  0  0  0  0  0  0  0
    3.0353   -0.3598    1.6162 C   0  0  0  0  0  0  0  0  0  0  0  0
    3.9806    0.3195    2.0088 O   0  0  0  0  0  0  0  0  0  0  0  0
    3.1861   -1.4301    0.7716 N   0  0  0  0  0  0  0  0  0  0  0  0
    4.4705   -1.8256    0.2343 C   0  0  0  0  0  0  0  0  0  0  0  0
    4.8557   -0.9873   -0.9846 C   0  0  0  0  0  0  0  0  0  0  0  0
    6.2074   -1.4448   -1.5478 C   0  0  0  0  0  0  0  0  0  0  0  0
    6.7254   -0.7325   -2.7133 N   0  0  0  0  0  0  0  0  0  0  0  0
    5.8966   -0.7944   -3.9117 C   0  0  0  0  0  0  0  0  0  0  0  0
    6.5434    0.2346   -4.8311 C   0  0  0  0  0  0  0  0  0  0  0  0
    7.3400    1.1555   -3.9108 C   0  0  0  0  0  0  0  0  0  0  0  0
    7.0157    0.6815   -2.5019 C   0  0  0  0  0  0  0  0  0  0  0  0
    0.4403   -0.8138    1.5724 C   0  0  0  0  0  0  0  0  0  0  0  0
    0.5241   -1.7163    0.7419 O   0  0  0  0  0  0  0  0  0  0  0  0
   -0.8797   -0.4377    2.1404 C   0  0  0  0  0  0  0  0  0  0  0  0
   -2.0035   -1.1914    1.7677 C   0  0  0  0  0  0  0  0  0  0  0  0
   -3.2556   -0.8453    2.2691 C   0  0  0  0  0  0  0  0  0  0  0  0
   -4.6823   -1.8209    1.8351 S   0  0  0  0  0  6  0  0  0  0  0  0
   -5.7079   -1.5341    2.8161 O   0  0  0  0  0  0  0  0  0  0  0  0
   -4.2190   -3.1734    1.6132 O   0  0  0  0  0  0  0  0  0  0  0  0
   -5.1749   -1.1702    0.3541 N   0  0  0  0  0  0  0  0  0  0  0  0
   -4.2964   -1.3777   -0.8178 C   0  0  0  0  0  0  0  0  0  0  0  0
   -5.1290   -1.2619   -2.0948 C   0  0  0  0  0  0  0  0  0  0  0  0
   -5.8921    0.0378   -2.1441 C   0  0  0  0  0  0  0  0  0  0  0  0
   -6.3245    0.5519   -3.3739 C   0  0  0  0  0  0  0  0  0  0  0  0
   -7.0579    1.7368   -3.4239 C   0  0  0  0  0  0  0  0  0  0  0  0
   -7.3729    2.4119   -2.2472 C   0  0  0  0  0  0  0  0  0  0  0  0
   -6.9588    1.9007   -1.0170 C   0  0  0  0  0  0  0  0  0  0  0  0
   -6.2237    0.7068   -0.9514 C   0  0  0  0  0  0  0  0  0  0  0  0
   -5.7767    0.1815    0.3984 C   0  0  0  0  0  0  0  0  0  0  0  0
   -3.3822    0.2135    3.1672 C   0  0  0  0  0  0  0  0  0  0  0  0
   -2.2525    0.9550    3.5376 C   0  0  0  0  0  0  0  0  0  0  0  0
   -0.9750    0.6548    3.0332 C   0  0  0  0  0  0  0  0  0  0  0  0
   -0.6238    1.3598    6.0147 H   0  0  0  0  0  0  0  0  0  0  0  0
    0.1810    2.8779    6.4465 H   0  0  0  0  0  0  0  0  0  0  0  0
    1.1386    1.4765    5.9371 H   0  0  0  0  0  0  0  0  0  0  0  0
   -0.7733    3.1167    4.1600 H   0  0  0  0  0  0  0  0  0  0  0  0
    0.9606    3.1908    4.1322 H   0  0  0  0  0  0  0  0  0  0  0  0
    2.2554    1.5384    3.2462 H   0  0  0  0  0  0  0  0  0  0  0  0
    2.3470   -1.9112    0.4447 H   0  0  0  0  0  0  0  0  0  0  0  0
    4.3920   -2.8843   -0.0350 H   0  0  0  0  0  0  0  0  0  0  0  0
    5.2275   -1.7271    1.0207 H   0  0  0  0  0  0  0  0  0  0  0  0
    4.0679   -1.0819   -1.7409 H   0  0  0  0  0  0  0  0  0  0  0  0
    4.8963    0.0694   -0.6974 H   0  0  0  0  0  0  0  0  0  0  0  0
    6.1411   -2.5101   -1.8044 H   0  0  0  0  0  0  0  0  0  0  0  0
    6.9614   -1.3874   -0.7519 H   0  0  0  0  0  0  0  0  0  0  0  0
    5.8974   -1.7915   -4.3627 H   0  0  0  0  0  0  0  0  0  0  0  0
    4.8590   -0.5003   -3.7203 H   0  0  0  0  0  0  0  0  0  0  0  0
    7.2142   -0.2466   -5.5511 H   0  0  0  0  0  0  0  0  0  0  0  0
    5.7875    0.7899   -5.3955 H   0  0  0  0  0  0  0  0  0  0  0  0
    7.0765    2.2082   -4.0570 H   0  0  0  0  0  0  0  0  0  0  0  0
    8.4118    1.0455   -4.1166 H   0  0  0  0  0  0  0  0  0  0  0  0
    7.8605    0.8366   -1.8233 H   0  0  0  0  0  0  0  0  0  0  0  0
    6.1501    1.2355   -2.1210 H   0  0  0  0  0  0  0  0  0  0  0  0
   -1.8940   -2.0436    1.0992 H   0  0  0  0  0  0  0  0  0  0  0  0
   -3.4924   -0.6318   -0.8167 H   0  0  0  0  0  0  0  0  0  0  0  0
   -3.8394   -2.3719   -0.7936 H   0  0  0  0  0  0  0  0  0  0  0  0
   -5.8512   -2.0861   -2.1464 H   0  0  0  0  0  0  0  0  0  0  0  0
   -4.4620   -1.3411   -2.9612 H   0  0  0  0  0  0  0  0  0  0  0  0
   -6.0946    0.0293   -4.2999 H   0  0  0  0  0  0  0  0  0  0  0  0
   -7.3885    2.1306   -4.3817 H   0  0  0  0  0  0  0  0  0  0  0  0
   -7.9479    3.3337   -2.2878 H   0  0  0  0  0  0  0  0  0  0  0  0
   -7.2198    2.4363   -0.1067 H   0  0  0  0  0  0  0  0  0  0  0  0
   -5.0504    0.8944    0.8042 H   0  0  0  0  0  0  0  0  0  0  0  0
   -6.6554    0.1520    1.0532 H   0  0  0  0  0  0  0  0  0  0  0  0
   -4.3506    0.4670    3.5957 H   0  0  0  0  0  0  0  0  0  0  0  0
   -2.4083    1.7639    4.2455 H   0  0  0  0  0  0  0  0  0  0  0  0
  1  2  1  0
  2  3  1  0
  3  4  1  0
  4  5  2  0
  5  6  1  0
  6  7  2  0
  6  8  1  0
  8  9  1  0
  9 10  1  0
 10 11  1  0
 11 12  1  0
 12 13  1  0
 13 14  1  0
 14 15  1  0
 15 16  1  0
  5 17  1  0
 17 18  2  0
 17 19  1  0
 19 20  2  0
 20 21  1  0
 21 22  1  0
 22 23  2  0
 22 24  2  0
 22 25  1  0
 25 26  1  0
 26 27  1  0
 27 28  1  0
 28 29  2  0
 29 30  1  0
 30 31  2  0
 31 32  1  0
 32 33  2  0
 33 34  1  0
 21 35  2  0
 35 36  1  0
 36 37  2  0
 37  3  1  0
 16 12  1  0
 37 19  1  0
 34 25  1  0
 33 28  1  0
  1 38  1  0
  1 39  1  0
  1 40  1  0
  2 41  1  0
  2 42  1  0
  4 43  1  0
  8 44  1  0
  9 45  1  0
  9 46  1  0
 10 47  1  0
 10 48  1  0
 11 49  1  0
 11 50  1  0
 13 51  1  0
 13 52  1  0
 14 53  1  0
 14 54  1  0
 15 55  1  0
 15 56  1  0
 16 57  1  0
 16 58  1  0
 20 59  1  0
 26 60  1  0
 26 61  1  0
 27 62  1  0
 27 63  1  0
 29 64  1  0
 30 65  1  0
 31 66  1  0
 32 67  1  0
 34 68  1  0
 34 69  1  0
 35 70  1  0
 36 71  1  0
M  END
$$$$
