
     RDKit          3D

 56 59  0  0  0  0  0  0  0  0999 V2000
   -5.5096    1.0300    0.7553 C   0  0  0  0  0  0  0  0  0  0  0  0
   -4.1998    0.5996    0.4049 O   0  0  0  0  0  0  0  0  0  0  0  0
   -3.7421    0.9162   -0.8445 C   0  0  0  0  0  0  0  0  0  0  0  0
   -4.5088    1.5328   -1.8368 C   0  0  0  0  0  0  0  0  0  0  0  0
   -3.9540    1.8113   -3.0897 C   0  0  0  0  0  0  0  0  0  0  0  0
   -2.6239    1.4800   -3.3703 C   0  0  0  0  0  0  0  0  0  0  0  0
   -2.0841    1.7980   -4.7257 C   0  0  0  0  0  0  0  0  0  0  0  0
   -0.7302    1.2714   -5.1169 C   0  0  0  0  0  0  0  0  0  0  0  0
   -2.7457    2.4868   -5.5009 O   0  0  0  0  0  0  0  0  0  0  0  0
   -1.8488    0.8710   -2.3783 C   0  0  0  0  0  0  0  0  0  0  0  0
   -2.4030    0.5731   -1.1151 C   0  0  0  0  0  0  0  0  0  0  0  0
   -1.5315   -0.0849   -0.0681 C   0  0  0  0  0  0  0  0  0  0  0  0
   -0.6378    1.1486    0.9226 S   0  0  0  0  0  0  0  0  0  0  0  0
    0.5382    0.0893    1.6725 C   0  0  0  0  0  0  0  0  0  0  0  0
    0.0984   -1.0351    2.1370 N   0  0  0  0  0  0  0  0  0  0  0  0
    0.9959   -1.9071    2.7528 C   0  0  0  0  0  0  0  0  0  0  0  0
    0.5191   -3.1203    3.2553 C   0  0  0  0  0  0  0  0  0  0  0  0
    1.3892   -4.0242    3.8791 C   0  0  0  0  0  0  0  0  0  0  0  0
    0.8274   -5.2969    4.3911 C   0  0  0  0  0  0  0  0  0  0  0  0
   -0.3372   -5.6415    4.3231 O   0  0  0  0  0  0  0  0  0  0  0  0
    1.7564   -6.0803    4.9645 O   0  0  0  0  0  0  0  0  0  0  0  0
    2.7489   -3.7090    4.0011 C   0  0  0  0  0  0  0  0  0  0  0  0
    3.2300   -2.4971    3.5022 C   0  0  0  0  0  0  0  0  0  0  0  0
    2.3475   -1.6054    2.8814 C   0  0  0  0  0  0  0  0  0  0  0  0
    2.8157   -0.3176    2.3404 C   0  0  0  0  0  0  0  0  0  0  0  0
    4.0094   -0.0399    2.4348 O   0  0  0  0  0  0  0  0  0  0  0  0
    1.8601    0.5009    1.7425 N   0  0  0  0  0  0  0  0  0  0  0  0
    2.3407    1.7798    1.2066 C   0  0  0  0  0  0  0  0  0  0  0  0
    2.5408    1.7637   -0.2968 C   0  0  0  0  0  0  0  0  0  0  0  0
    1.9092    2.7237   -1.1039 C   0  0  0  0  0  0  0  0  0  0  0  0
    2.1070    2.7344   -2.4849 C   0  0  0  0  0  0  0  0  0  0  0  0
    2.9419    1.7892   -3.0773 C   0  0  0  0  0  0  0  0  0  0  0  0
    3.5813    0.8357   -2.2887 C   0  0  0  0  0  0  0  0  0  0  0  0
    3.3873    0.8258   -0.9063 C   0  0  0  0  0  0  0  0  0  0  0  0
   -6.2650    0.5367    0.1336 H   0  0  0  0  0  0  0  0  0  0  0  0
   -5.6905    0.7334    1.7934 H   0  0  0  0  0  0  0  0  0  0  0  0
   -5.5974    2.1203    0.6983 H   0  0  0  0  0  0  0  0  0  0  0  0
   -5.5459    1.8086   -1.6732 H   0  0  0  0  0  0  0  0  0  0  0  0
   -4.5710    2.2908   -3.8485 H   0  0  0  0  0  0  0  0  0  0  0  0
    0.0502    1.8251   -4.5928 H   0  0  0  0  0  0  0  0  0  0  0  0
   -0.5911    1.4097   -6.1958 H   0  0  0  0  0  0  0  0  0  0  0  0
   -0.6534    0.2013   -4.9123 H   0  0  0  0  0  0  0  0  0  0  0  0
   -0.8045    0.6248   -2.5598 H   0  0  0  0  0  0  0  0  0  0  0  0
   -0.8081   -0.7385   -0.5714 H   0  0  0  0  0  0  0  0  0  0  0  0
   -2.1281   -0.7325    0.5835 H   0  0  0  0  0  0  0  0  0  0  0  0
   -0.5397   -3.3564    3.1579 H   0  0  0  0  0  0  0  0  0  0  0  0
    1.2529   -6.8722    5.2515 H   0  0  0  0  0  0  0  0  0  0  0  0
    3.4395   -4.3976    4.4826 H   0  0  0  0  0  0  0  0  0  0  0  0
    4.2861   -2.2515    3.5979 H   0  0  0  0  0  0  0  0  0  0  0  0
    3.2951    2.0608    1.6688 H   0  0  0  0  0  0  0  0  0  0  0  0
    1.6374    2.5697    1.4952 H   0  0  0  0  0  0  0  0  0  0  0  0
    1.2590    3.4763   -0.6617 H   0  0  0  0  0  0  0  0  0  0  0  0
    1.6154    3.4876   -3.0970 H   0  0  0  0  0  0  0  0  0  0  0  0
    3.1041    1.8048   -4.1515 H   0  0  0  0  0  0  0  0  0  0  0  0
    4.2472    0.1076   -2.7465 H   0  0  0  0  0  0  0  0  0  0  0  0
    3.9198    0.0892   -0.3069 H   0  0  0  0  0  0  0  0  0  0  0  0
  1  2  1  0
  2  3  1  0
  3  4  2  0
  4  5  1  0
  5  6  2  0
  6  7  1  0
  7  8  1  0
  7  9  2  0
  6 10  1  0
 10 11  2  0
 11 12  1  0
 12 13  1  0
 13 14  1  0
 14 15  2  0
 15 16  1  0
 16 17  2  0
 17 18  1  0
 18 19  1  0
 19 20  2  0
 19 21  1  0
 18 22  2  0
 22 23  1  0
 23 24  2  0
 24 25  1  0
 25 26  2  0
 25 27  1  0
 27 28  1  0
 28 29  1  0
 29 30  2  0
 30 31  1  0
 31 32  2  0
 32 33  1  0
 33 34  2  0
 11  3  1  0
 27 14  1  0
 34 29  1  0
 24 16  1  0
  1 35  1  0
  1 36  1  0
  1 37  1  0
  4 38  1  0
  5 39  1  0
  8 40  1  0
  8 41  1  0
  8 42  1  0
 10 43  1  0
 12 44  1  0
 12 45  1  0
 17 46  1  0
 21 47  1  0
 22 48  1  0
 23 49  1  0
 28 50  1  0
 28 51  1  0
 30 52  1  0
 31 53  1  0
 32 54  1  0
 33 55  1  0
 34 56  1  0
M  END
$$$$
