
     RDKit          3D

 42 44  0  0  0  0  0  0  0  0999 V2000
   -1.8671   -5.5167   -0.5956 C   0  0  0  0  0  0  0  0  0  0  0  0
   -1.2824   -4.1222   -0.4530 C   0  0  0  0  0  0  0  0  0  0  0  0
   -2.6242   -2.9121   -0.2157 S   0  0  0  0  0  0  0  0  0  0  0  0
   -1.6838   -1.3954   -0.0882 C   0  0  0  0  0  0  0  0  0  0  0  0
   -2.3688   -0.2105    0.0756 C   0  0  0  0  0  0  0  0  0  0  0  0
   -1.6262    0.9467    0.1770 C   0  0  0  0  0  0  0  0  0  0  0  0
   -2.2206    2.1778    0.3283 N   0  0  0  0  0  0  0  0  0  0  0  0
   -3.5574    2.3771    0.8759 C   0  0  0  0  0  0  0  0  0  0  0  0
   -3.5104    3.7816    1.4797 C   0  0  0  0  0  0  0  0  0  0  0  0
   -2.4188    4.4780    0.6828 C   0  0  0  0  0  0  0  0  0  0  0  0
   -1.3919    3.3677    0.4841 C   0  0  0  0  0  0  0  0  0  0  0  0
   -0.2858    0.8976    0.0952 N   0  0  0  0  0  0  0  0  0  0  0  0
    0.3088   -0.2993   -0.0650 C   0  0  0  0  0  0  0  0  0  0  0  0
    1.7844   -0.3305   -0.1441 C   0  0  0  0  0  0  0  0  0  0  0  0
    2.5500    0.8489   -0.0783 C   0  0  0  0  0  0  0  0  0  0  0  0
    3.9479    0.8233   -0.1526 C   0  0  0  0  0  0  0  0  0  0  0  0
    4.6279   -0.3894   -0.2849 C   0  0  0  0  0  0  0  0  0  0  0  0
    6.1228   -0.4177   -0.3986 C   0  0  0  0  0  0  0  0  0  0  0  0
    3.8875   -1.5709   -0.3674 C   0  0  0  0  0  0  0  0  0  0  0  0
    2.4897   -1.5396   -0.2929 C   0  0  0  0  0  0  0  0  0  0  0  0
   -0.3483   -1.4649   -0.1556 N   0  0  0  0  0  0  0  0  0  0  0  0
   -1.0616   -6.2449   -0.7379 H   0  0  0  0  0  0  0  0  0  0  0  0
   -2.4253   -5.8125    0.2992 H   0  0  0  0  0  0  0  0  0  0  0  0
   -2.5334   -5.5873   -1.4622 H   0  0  0  0  0  0  0  0  0  0  0  0
   -0.7146   -3.8708   -1.3547 H   0  0  0  0  0  0  0  0  0  0  0  0
   -0.6066   -4.0966    0.4080 H   0  0  0  0  0  0  0  0  0  0  0  0
   -3.4493   -0.1968    0.1079 H   0  0  0  0  0  0  0  0  0  0  0  0
   -3.8198    1.6474    1.6498 H   0  0  0  0  0  0  0  0  0  0  0  0
   -4.2979    2.3269    0.0701 H   0  0  0  0  0  0  0  0  0  0  0  0
   -3.2197    3.7235    2.5358 H   0  0  0  0  0  0  0  0  0  0  0  0
   -4.4744    4.2943    1.4208 H   0  0  0  0  0  0  0  0  0  0  0  0
   -2.0030    5.3473    1.1994 H   0  0  0  0  0  0  0  0  0  0  0  0
   -2.8142    4.8066   -0.2859 H   0  0  0  0  0  0  0  0  0  0  0  0
   -0.7700    3.5621   -0.3962 H   0  0  0  0  0  0  0  0  0  0  0  0
   -0.7515    3.2833    1.3708 H   0  0  0  0  0  0  0  0  0  0  0  0
    2.0534    1.8122    0.0297 H   0  0  0  0  0  0  0  0  0  0  0  0
    4.4973    1.7608   -0.1053 H   0  0  0  0  0  0  0  0  0  0  0  0
    6.5727    0.4170    0.1492 H   0  0  0  0  0  0  0  0  0  0  0  0
    6.4196   -0.3516   -1.4497 H   0  0  0  0  0  0  0  0  0  0  0  0
    6.5288   -1.3412    0.0272 H   0  0  0  0  0  0  0  0  0  0  0  0
    4.3899   -2.5279   -0.4896 H   0  0  0  0  0  0  0  0  0  0  0  0
    1.9465   -2.4812   -0.3554 H   0  0  0  0  0  0  0  0  0  0  0  0
  1  2  1  0
  2  3  1  0
  3  4  1  0
  4  5  2  0
  5  6  1  0
  6  7  1  0
  7  8  1  0
  8  9  1  0
  9 10  1  0
 10 11  1  0
  6 12  2  0
 12 13  1  0
 13 14  1  0
 14 15  2  0
 15 16  1  0
 16 17  2  0
 17 18  1  0
 17 19  1  0
 19 20  2  0
 13 21  2  0
 21  4  1  0
 11  7  1  0
 20 14  1  0
  1 22  1  0
  1 23  1  0
  1 24  1  0
  2 25  1  0
  2 26  1  0
  5 27  1  0
  8 28  1  0
  8 29  1  0
  9 30  1  0
  9 31  1  0
 10 32  1  0
 10 33  1  0
 11 34  1  0
 11 35  1  0
 15 36  1  0
 16 37  1  0
 18 38  1  0
 18 39  1  0
 18 40  1  0
 19 41  1  0
 20 42  1  0
M  END
$$$$
