
     RDKit          3D

 62 65  0  0  0  0  0  0  0  0999 V2000
    0.1896    1.3782    1.9663 C   0  0  0  0  0  0  0  0  0  0  0  0
   -1.1298    0.9352    1.3890 C   0  0  0  0  0  0  0  0  0  0  0  0
   -2.2843    1.4912    1.9775 C   0  0  0  0  0  0  0  0  0  0  0  0
   -3.5620    1.1794    1.5139 C   0  0  0  0  0  0  0  0  0  0  0  0
   -4.6503    1.7383    2.1199 O   0  0  0  0  0  0  0  0  0  0  0  0
   -3.7408    0.3076    0.4435 C   0  0  0  0  0  0  0  0  0  0  0  0
   -5.1022   -0.0814   -0.1124 C   0  0  0  0  0  0  0  0  0  0  0  0
   -5.8567    1.1152   -0.6979 C   0  0  0  0  0  0  0  0  0  0  0  0
   -5.9564   -0.8350    0.9103 C   0  0  0  0  0  0  0  0  0  0  0  0
   -2.5875   -0.2353   -0.1541 C   0  0  0  0  0  0  0  0  0  0  0  0
   -1.2683    0.0676    0.2772 C   0  0  0  0  0  0  0  0  0  0  0  0
   -0.0853   -0.6147   -0.4587 C   0  0  0  0  0  0  0  0  0  0  0  0
    1.1338    0.2934   -0.7563 C   0  0  0  0  0  0  0  0  0  0  0  0
    2.4334   -0.0905   -0.3388 C   0  0  0  0  0  0  0  0  0  0  0  0
    3.5810    0.6939   -0.5701 C   0  0  0  0  0  0  0  0  0  0  0  0
    4.9244    0.1871   -0.0662 C   0  0  0  0  0  0  0  0  0  0  0  0
    5.5272    1.1018    1.0032 C   0  0  0  0  0  0  0  0  0  0  0  0
    5.9160   -0.0735   -1.2032 C   0  0  0  0  0  0  0  0  0  0  0  0
    3.4171    1.8965   -1.2535 C   0  0  0  0  0  0  0  0  0  0  0  0
    4.5007    2.6924   -1.4911 O   0  0  0  0  0  0  0  0  0  0  0  0
    2.1606    2.3006   -1.7010 C   0  0  0  0  0  0  0  0  0  0  0  0
    1.0162    1.5105   -1.4791 C   0  0  0  0  0  0  0  0  0  0  0  0
   -0.2947    2.0495   -1.9979 C   0  0  0  0  0  0  0  0  0  0  0  0
   -0.5053   -1.0198   -1.8074 O   0  0  0  0  0  0  0  0  0  0  0  0
   -0.3247   -2.3410   -2.0645 C   0  0  0  0  0  0  0  0  0  0  0  0
   -0.5211   -2.9117   -3.1181 O   0  0  0  0  0  0  0  0  0  0  0  0
    0.0919   -2.9466   -0.8156 C   0  0  0  0  0  0  0  0  0  0  0  0
    0.3079   -4.2924   -0.5637 C   0  0  0  0  0  0  0  0  0  0  0  0
    0.6417   -4.6613    0.7374 C   0  0  0  0  0  0  0  0  0  0  0  0
    0.7367   -3.6883    1.7432 C   0  0  0  0  0  0  0  0  0  0  0  0
    0.5104   -2.3364    1.4562 C   0  0  0  0  0  0  0  0  0  0  0  0
    0.2005   -1.9659    0.1515 C   0  0  0  0  0  0  0  0  0  0  0  0
    0.9237    0.5729    1.9875 H   0  0  0  0  0  0  0  0  0  0  0  0
    0.5848    2.2266    1.4004 H   0  0  0  0  0  0  0  0  0  0  0  0
    0.0724    1.6984    3.0082 H   0  0  0  0  0  0  0  0  0  0  0  0
   -2.1719    2.1794    2.8124 H   0  0  0  0  0  0  0  0  0  0  0  0
   -4.3520    2.3229    2.8347 H   0  0  0  0  0  0  0  0  0  0  0  0
   -4.9417   -0.7778   -0.9469 H   0  0  0  0  0  0  0  0  0  0  0  0
   -6.1509    1.8387    0.0685 H   0  0  0  0  0  0  0  0  0  0  0  0
   -5.2419    1.6417   -1.4365 H   0  0  0  0  0  0  0  0  0  0  0  0
   -6.7708    0.7815   -1.2011 H   0  0  0  0  0  0  0  0  0  0  0  0
   -6.8741   -1.2071    0.4418 H   0  0  0  0  0  0  0  0  0  0  0  0
   -5.4135   -1.6973    1.3128 H   0  0  0  0  0  0  0  0  0  0  0  0
   -6.2525   -0.2037    1.7534 H   0  0  0  0  0  0  0  0  0  0  0  0
   -2.7294   -0.9169   -0.9932 H   0  0  0  0  0  0  0  0  0  0  0  0
    2.5777   -1.0309    0.1891 H   0  0  0  0  0  0  0  0  0  0  0  0
    4.7597   -0.7837    0.4213 H   0  0  0  0  0  0  0  0  0  0  0  0
    4.8159    1.2708    1.8193 H   0  0  0  0  0  0  0  0  0  0  0  0
    6.4268    0.6469    1.4324 H   0  0  0  0  0  0  0  0  0  0  0  0
    5.8143    2.0789    0.6027 H   0  0  0  0  0  0  0  0  0  0  0  0
    6.8188   -0.5604   -0.8183 H   0  0  0  0  0  0  0  0  0  0  0  0
    5.4779   -0.7327   -1.9609 H   0  0  0  0  0  0  0  0  0  0  0  0
    6.2300    0.8479   -1.7028 H   0  0  0  0  0  0  0  0  0  0  0  0
    4.2263    3.4439   -2.0407 H   0  0  0  0  0  0  0  0  0  0  0  0
    2.0568    3.2428   -2.2339 H   0  0  0  0  0  0  0  0  0  0  0  0
   -0.8956    1.2762   -2.4805 H   0  0  0  0  0  0  0  0  0  0  0  0
   -0.1282    2.8178   -2.7618 H   0  0  0  0  0  0  0  0  0  0  0  0
   -0.8633    2.5128   -1.1869 H   0  0  0  0  0  0  0  0  0  0  0  0
    0.2064   -5.0309   -1.3531 H   0  0  0  0  0  0  0  0  0  0  0  0
    0.8155   -5.7078    0.9780 H   0  0  0  0  0  0  0  0  0  0  0  0
    0.9828   -3.9901    2.7596 H   0  0  0  0  0  0  0  0  0  0  0  0
    0.5762   -1.6053    2.2550 H   0  0  0  0  0  0  0  0  0  0  0  0
  1  2  1  0
  2  3  2  0
  3  4  1  0
  4  5  1  0
  4  6  2  0
  6  7  1  0
  7  8  1  0
  7  9  1  0
  6 10  1  0
 10 11  2  0
 11 12  1  0
 12 13  1  0
 13 14  2  0
 14 15  1  0
 15 16  1  0
 16 17  1  0
 16 18  1  0
 15 19  2  0
 19 20  1  0
 19 21  1  0
 21 22  2  0
 22 23  1  0
 12 24  1  0
 24 25  1  0
 25 26  2  0
 25 27  1  0
 27 28  2  0
 28 29  1  0
 29 30  2  0
 30 31  1  0
 31 32  2  0
 11  2  1  0
 32 12  1  0
 22 13  1  0
 32 27  1  0
  1 33  1  0
  1 34  1  0
  1 35  1  0
  3 36  1  0
  5 37  1  0
  7 38  1  0
  8 39  1  0
  8 40  1  0
  8 41  1  0
  9 42  1  0
  9 43  1  0
  9 44  1  0
 10 45  1  0
 14 46  1  0
 16 47  1  0
 17 48  1  0
 17 49  1  0
 17 50  1  0
 18 51  1  0
 18 52  1  0
 18 53  1  0
 20 54  1  0
 21 55  1  0
 23 56  1  0
 23 57  1  0
 23 58  1  0
 28 59  1  0
 29 60  1  0
 30 61  1  0
 31 62  1  0
M  END
$$$$
