
     RDKit          3D

 43 46  0  0  0  0  0  0  0  0999 V2000
    5.0897    2.2518    0.5718 C   0  0  0  0  0  0  0  0  0  0  0  0
    3.8172    1.7310    0.9569 O   0  0  0  0  0  0  0  0  0  0  0  0
    2.7955    2.1335    0.1636 C   0  0  0  0  0  0  0  0  0  0  0  0
    2.8787    2.8678   -0.8087 O   0  0  0  0  0  0  0  0  0  0  0  0
    1.5348    1.4876    0.5749 C   0  0  0  0  0  0  0  0  0  0  0  0
    1.0736    1.4633    1.8419 C   0  0  0  0  0  0  0  0  0  0  0  0
    1.7554    2.1277    3.0105 C   0  0  0  0  0  0  0  0  0  0  0  0
   -0.1242    0.8598    2.1711 N   0  0  0  0  0  0  0  0  0  0  0  0
   -0.8728    0.4604    1.2010 C   0  0  0  0  0  0  0  0  0  0  0  0
   -2.4656   -0.1890    1.4487 S   0  0  0  0  0  0  0  0  0  0  0  0
   -2.7689   -0.2862   -0.2430 C   0  0  0  0  0  0  0  0  0  0  0  0
   -3.8757   -0.6729   -0.8943 C   0  0  0  0  0  0  0  0  0  0  0  0
   -5.1299   -1.1342   -0.3893 C   0  0  0  0  0  0  0  0  0  0  0  0
   -5.5152   -1.5852    0.8986 C   0  0  0  0  0  0  0  0  0  0  0  0
   -6.8479   -1.9194    0.8121 C   0  0  0  0  0  0  0  0  0  0  0  0
   -7.3085   -1.7118   -0.4463 O   0  0  0  0  0  0  0  0  0  0  0  0
   -6.2622   -1.2406   -1.1718 C   0  0  0  0  0  0  0  0  0  0  0  0
   -1.5611    0.1670   -0.9989 C   0  0  0  0  0  0  0  0  0  0  0  0
   -1.5033    0.2314   -2.2187 O   0  0  0  0  0  0  0  0  0  0  0  0
   -0.5628    0.5080   -0.1209 N   0  0  0  0  0  0  0  0  0  0  0  0
    0.7751    0.8604   -0.5603 C   0  0  0  0  0  0  0  0  0  0  0  0
    1.5034   -0.3672   -1.1103 C   0  0  0  0  0  0  0  0  0  0  0  0
    1.7763   -1.4861   -0.3027 C   0  0  0  0  0  0  0  0  0  0  0  0
    2.4458   -2.5935   -0.8259 C   0  0  0  0  0  0  0  0  0  0  0  0
    2.8496   -2.5998   -2.1589 C   0  0  0  0  0  0  0  0  0  0  0  0
    2.5850   -1.4998   -2.9715 C   0  0  0  0  0  0  0  0  0  0  0  0
    1.9166   -0.3900   -2.4521 C   0  0  0  0  0  0  0  0  0  0  0  0
    5.3533    1.9132   -0.4351 H   0  0  0  0  0  0  0  0  0  0  0  0
    5.8378    1.8709    1.2723 H   0  0  0  0  0  0  0  0  0  0  0  0
    5.0888    3.3450    0.6261 H   0  0  0  0  0  0  0  0  0  0  0  0
    2.4232    2.9395    2.7084 H   0  0  0  0  0  0  0  0  0  0  0  0
    1.0122    2.5740    3.6812 H   0  0  0  0  0  0  0  0  0  0  0  0
    2.3288    1.3903    3.5810 H   0  0  0  0  0  0  0  0  0  0  0  0
   -3.8261   -0.6207   -1.9843 H   0  0  0  0  0  0  0  0  0  0  0  0
   -4.9188   -1.6756    1.7943 H   0  0  0  0  0  0  0  0  0  0  0  0
   -7.5708   -2.3039    1.5180 H   0  0  0  0  0  0  0  0  0  0  0  0
   -6.4807   -1.0298   -2.2100 H   0  0  0  0  0  0  0  0  0  0  0  0
    0.6457    1.5953   -1.3662 H   0  0  0  0  0  0  0  0  0  0  0  0
    1.4751   -1.5060    0.7431 H   0  0  0  0  0  0  0  0  0  0  0  0
    2.6527   -3.4525   -0.1925 H   0  0  0  0  0  0  0  0  0  0  0  0
    3.3691   -3.4634   -2.5661 H   0  0  0  0  0  0  0  0  0  0  0  0
    2.8962   -1.5061   -4.0132 H   0  0  0  0  0  0  0  0  0  0  0  0
    1.7148    0.4560   -3.1074 H   0  0  0  0  0  0  0  0  0  0  0  0
  1  2  1  0
  2  3  1  0
  3  4  2  0
  3  5  1  0
  5  6  2  0
  6  7  1  0
  6  8  1  0
  8  9  2  0
  9 10  1  0
 10 11  1  0
 11 12  2  3
 12 13  1  0
 13 14  1  0
 14 15  2  0
 15 16  1  0
 16 17  1  0
 11 18  1  0
 18 19  2  0
 18 20  1  0
 20 21  1  0
 21 22  1  0
 22 23  2  0
 23 24  1  0
 24 25  2  0
 25 26  1  0
 26 27  2  0
 21  5  1  0
 27 22  1  0
 20  9  1  0
 17 13  2  0
  1 28  1  0
  1 29  1  0
  1 30  1  0
  7 31  1  0
  7 32  1  0
  7 33  1  0
 12 34  1  0
 14 35  1  0
 15 36  1  0
 17 37  1  0
 21 38  1  0
 23 39  1  0
 24 40  1  0
 25 41  1  0
 26 42  1  0
 27 43  1  0
M  END
$$$$
