
     RDKit          3D

 50 53  0  0  0  0  0  0  0  0999 V2000
   -6.1342    1.2883    0.7724 C   0  0  0  0  0  0  0  0  0  0  0  0
   -4.9763    0.8185   -0.1079 C   0  0  0  0  0  0  0  0  0  0  0  0
   -5.1221   -0.6714   -0.4397 C   0  0  0  0  0  0  0  0  0  0  0  0
   -3.9340   -1.1969   -1.2549 C   0  0  0  0  0  0  0  0  0  0  0  0
   -3.9484   -0.6719   -2.6944 C   0  0  0  0  0  0  0  0  0  0  0  0
   -2.6057   -0.8700   -0.5543 C   0  0  0  0  0  0  0  0  0  0  0  0
   -2.5237    0.5547   -0.2197 N   0  0  0  0  0  0  0  0  0  0  0  0
   -1.2594    0.9532    0.2314 C   0  0  0  0  0  0  0  0  0  0  0  0
   -1.1501    2.0599    0.9890 N   0  0  0  0  0  0  0  0  0  0  0  0
    0.0828    2.4493    1.3789 C   0  0  0  0  0  0  0  0  0  0  0  0
    1.2246    1.7688    1.0431 C   0  0  0  0  0  0  0  0  0  0  0  0
    1.0455    0.6408    0.2764 C   0  0  0  0  0  0  0  0  0  0  0  0
   -0.1782    0.2349   -0.1330 N   0  0  0  0  0  0  0  0  0  0  0  0
    2.2203   -0.1785   -0.1839 C   0  0  0  0  0  0  0  0  0  0  0  0
    3.3879   -0.0642    0.8076 C   0  0  0  0  0  0  0  0  0  0  0  0
    4.5871   -0.8863    0.3679 C   0  0  0  0  0  0  0  0  0  0  0  0
    5.0351   -1.9461    1.1727 C   0  0  0  0  0  0  0  0  0  0  0  0
    6.1353   -2.7177    0.7895 C   0  0  0  0  0  0  0  0  0  0  0  0
    6.7971   -2.4364   -0.4022 C   0  0  0  0  0  0  0  0  0  0  0  0
    8.1512   -3.3863   -0.8745 Cl  0  0  0  0  0  0  0  0  0  0  0  0
    6.3681   -1.3898   -1.2136 C   0  0  0  0  0  0  0  0  0  0  0  0
    5.2679   -0.6178   -0.8306 C   0  0  0  0  0  0  0  0  0  0  0  0
    3.7552    1.4085    1.0282 C   0  0  0  0  0  0  0  0  0  0  0  0
    2.5567    2.2151    1.4776 C   0  0  0  0  0  0  0  0  0  0  0  0
    2.6717    3.2395    2.1429 O   0  0  0  0  0  0  0  0  0  0  0  0
   -3.6288    1.0978    0.5761 C   0  0  0  0  0  0  0  0  0  0  0  0
   -7.0942    1.1200    0.2729 H   0  0  0  0  0  0  0  0  0  0  0  0
   -6.1513    0.7537    1.7282 H   0  0  0  0  0  0  0  0  0  0  0  0
   -6.0505    2.3593    0.9850 H   0  0  0  0  0  0  0  0  0  0  0  0
   -5.0173    1.3926   -1.0423 H   0  0  0  0  0  0  0  0  0  0  0  0
   -5.1909   -1.2472    0.4929 H   0  0  0  0  0  0  0  0  0  0  0  0
   -6.0583   -0.8466   -0.9838 H   0  0  0  0  0  0  0  0  0  0  0  0
   -4.0242   -2.2894   -1.3149 H   0  0  0  0  0  0  0  0  0  0  0  0
   -3.1511   -1.1417   -3.2806 H   0  0  0  0  0  0  0  0  0  0  0  0
   -3.8001    0.4111   -2.7440 H   0  0  0  0  0  0  0  0  0  0  0  0
   -4.9003   -0.9067   -3.1823 H   0  0  0  0  0  0  0  0  0  0  0  0
   -1.7915   -1.1800   -1.2219 H   0  0  0  0  0  0  0  0  0  0  0  0
   -2.5250   -1.4686    0.3633 H   0  0  0  0  0  0  0  0  0  0  0  0
    0.1126    3.3526    1.9822 H   0  0  0  0  0  0  0  0  0  0  0  0
    2.5081    0.1734   -1.1822 H   0  0  0  0  0  0  0  0  0  0  0  0
    1.9178   -1.2285   -0.2845 H   0  0  0  0  0  0  0  0  0  0  0  0
    3.0373   -0.4596    1.7732 H   0  0  0  0  0  0  0  0  0  0  0  0
    4.5324   -2.1833    2.1086 H   0  0  0  0  0  0  0  0  0  0  0  0
    6.4689   -3.5341    1.4245 H   0  0  0  0  0  0  0  0  0  0  0  0
    6.8843   -1.1690   -2.1443 H   0  0  0  0  0  0  0  0  0  0  0  0
    4.9530    0.1943   -1.4825 H   0  0  0  0  0  0  0  0  0  0  0  0
    4.5254    1.4815    1.8056 H   0  0  0  0  0  0  0  0  0  0  0  0
    4.1478    1.8765    0.1181 H   0  0  0  0  0  0  0  0  0  0  0  0
   -3.5419    2.1866    0.6855 H   0  0  0  0  0  0  0  0  0  0  0  0
   -3.6167    0.6572    1.5825 H   0  0  0  0  0  0  0  0  0  0  0  0
  1  2  1  0
  2  3  1  0
  3  4  1  0
  4  5  1  0
  4  6  1  0
  6  7  1  0
  7  8  1  0
  8  9  2  0
  9 10  1  0
 10 11  2  0
 11 12  1  0
 12 13  2  0
 12 14  1  0
 14 15  1  0
 15 16  1  0
 16 17  2  0
 17 18  1  0
 18 19  2  0
 19 20  1  0
 19 21  1  0
 21 22  2  0
 15 23  1  0
 23 24  1  0
 24 25  2  0
  7 26  1  0
 26  2  1  0
 13  8  1  0
 22 16  1  0
 24 11  1  0
  1 27  1  0
  1 28  1  0
  1 29  1  0
  2 30  1  0
  3 31  1  0
  3 32  1  0
  4 33  1  0
  5 34  1  0
  5 35  1  0
  5 36  1  0
  6 37  1  0
  6 38  1  0
 10 39  1  0
 14 40  1  0
 14 41  1  0
 15 42  1  0
 17 43  1  0
 18 44  1  0
 21 45  1  0
 22 46  1  0
 23 47  1  0
 23 48  1  0
 26 49  1  0
 26 50  1  0
M  END
$$$$
