
     RDKit          3D

 48 50  0  0  0  0  0  0  0  0999 V2000
    3.3614   -3.2859   -3.7430 C   0  0  0  0  0  0  0  0  0  0  0  0
    3.1653   -2.5042   -2.4771 C   0  0  0  0  0  0  0  0  0  0  0  0
    4.2620   -2.1365   -1.6937 C   0  0  0  0  0  0  0  0  0  0  0  0
    4.1181   -1.4352   -0.4787 C   0  0  0  0  0  0  0  0  0  0  0  0
    5.3495   -1.0463    0.2905 C   0  0  0  0  0  0  0  0  0  0  0  0
    2.8021   -1.1000   -0.0885 C   0  0  0  0  0  0  0  0  0  0  0  0
    2.2463   -0.2400    1.2995 S   0  0  0  0  0  0  0  0  0  0  0  0
    0.6269   -0.3759    0.7707 C   0  0  0  0  0  0  0  0  0  0  0  0
   -0.4444    0.1112    1.5321 N   0  0  0  0  0  0  0  0  0  0  0  0
   -1.8124   -0.2610    1.1241 C   0  0  0  0  0  0  0  0  0  0  0  0
   -2.5372    0.8097    0.2969 C   0  0  0  0  0  0  0  0  0  0  0  0
   -1.8976    1.0474   -1.0770 C   0  0  0  0  0  0  0  0  0  0  0  0
   -2.6282    2.0591   -1.8642 N   0  0  0  0  0  0  0  0  0  0  0  0
   -3.8905    1.5371   -2.3930 C   0  0  0  0  0  0  0  0  0  0  0  0
   -1.7896    2.5230   -2.9747 C   0  0  0  0  0  0  0  0  0  0  0  0
   -0.2321    1.1509    2.4604 C   0  0  0  0  0  0  0  0  0  0  0  0
    0.7030    1.9463    2.3810 O   0  0  0  0  0  0  0  0  0  0  0  0
   -1.1980    1.2551    3.5508 C   0  0  0  0  0  0  0  0  0  0  0  0
   -1.6855    0.2658    4.3891 C   0  0  0  0  0  0  0  0  0  0  0  0
   -2.6057    0.7764    5.3537 C   0  0  0  0  0  0  0  0  0  0  0  0
   -2.7583    2.1328    5.2209 C   0  0  0  0  0  0  0  0  0  0  0  0
   -3.9052    3.1776    6.3365 Br  0  0  0  0  0  0  0  0  0  0  0  0
   -1.8194    2.7966    3.9788 S   0  0  0  0  0  0  0  0  0  0  0  0
    0.4610   -1.0785   -0.3275 N   0  0  0  0  0  0  0  0  0  0  0  0
    1.6865   -1.4640   -0.8442 C   0  0  0  0  0  0  0  0  0  0  0  0
    1.8739   -2.1830   -2.0417 C   0  0  0  0  0  0  0  0  0  0  0  0
    4.3193   -3.0380   -4.2117 H   0  0  0  0  0  0  0  0  0  0  0  0
    2.5756   -3.0550   -4.4699 H   0  0  0  0  0  0  0  0  0  0  0  0
    3.3403   -4.3584   -3.5273 H   0  0  0  0  0  0  0  0  0  0  0  0
    5.2650   -2.4003   -2.0308 H   0  0  0  0  0  0  0  0  0  0  0  0
    5.1286   -0.8589    1.3452 H   0  0  0  0  0  0  0  0  0  0  0  0
    5.7860   -0.1408   -0.1429 H   0  0  0  0  0  0  0  0  0  0  0  0
    6.0940   -1.8491    0.2548 H   0  0  0  0  0  0  0  0  0  0  0  0
   -2.4113   -0.4625    2.0157 H   0  0  0  0  0  0  0  0  0  0  0  0
   -1.7930   -1.2116    0.5773 H   0  0  0  0  0  0  0  0  0  0  0  0
   -3.5735    0.4752    0.1762 H   0  0  0  0  0  0  0  0  0  0  0  0
   -2.5726    1.7551    0.8506 H   0  0  0  0  0  0  0  0  0  0  0  0
   -0.8778    1.4125   -0.9064 H   0  0  0  0  0  0  0  0  0  0  0  0
   -1.8152    0.1050   -1.6330 H   0  0  0  0  0  0  0  0  0  0  0  0
   -4.4002    2.3014   -2.9908 H   0  0  0  0  0  0  0  0  0  0  0  0
   -3.7406    0.6537   -3.0242 H   0  0  0  0  0  0  0  0  0  0  0  0
   -4.5832    1.2745   -1.5880 H   0  0  0  0  0  0  0  0  0  0  0  0
   -1.5191    1.7084   -3.6563 H   0  0  0  0  0  0  0  0  0  0  0  0
   -2.3065    3.2991   -3.5504 H   0  0  0  0  0  0  0  0  0  0  0  0
   -0.8679    2.9799   -2.5976 H   0  0  0  0  0  0  0  0  0  0  0  0
   -1.3912   -0.7753    4.3194 H   0  0  0  0  0  0  0  0  0  0  0  0
   -3.1101    0.1775    6.1023 H   0  0  0  0  0  0  0  0  0  0  0  0
    1.0017   -2.4710   -2.6211 H   0  0  0  0  0  0  0  0  0  0  0  0
  1  2  1  0
  2  3  2  0
  3  4  1  0
  4  5  1  0
  4  6  2  0
  6  7  1  0
  7  8  1  0
  8  9  1  0
  9 10  1  0
 10 11  1  0
 11 12  1  0
 12 13  1  0
 13 14  1  0
 13 15  1  0
  9 16  1  0
 16 17  2  0
 16 18  1  0
 18 19  2  0
 19 20  1  0
 20 21  2  0
 21 22  1  0
 21 23  1  0
  8 24  2  0
 24 25  1  0
 25 26  2  0
 26  2  1  0
 25  6  1  0
 23 18  1  0
  1 27  1  0
  1 28  1  0
  1 29  1  0
  3 30  1  0
  5 31  1  0
  5 32  1  0
  5 33  1  0
 10 34  1  0
 10 35  1  0
 11 36  1  0
 11 37  1  0
 12 38  1  0
 12 39  1  0
 14 40  1  0
 14 41  1  0
 14 42  1  0
 15 43  1  0
 15 44  1  0
 15 45  1  0
 19 46  1  0
 20 47  1  0
 26 48  1  0
M  END
$$$$
