
     RDKit          3D

 58 60  0  0  0  0  0  0  0  0999 V2000
   -2.7558    1.1637    3.3828 C   0  0  0  0  0  0  0  0  0  0  0  0
   -2.3743    1.9139    2.2376 O   0  0  0  0  0  0  0  0  0  0  0  0
   -2.7218    1.4310    1.0017 C   0  0  0  0  0  0  0  0  0  0  0  0
   -3.3861    0.2148    0.7864 C   0  0  0  0  0  0  0  0  0  0  0  0
   -3.7023   -0.1982   -0.5122 C   0  0  0  0  0  0  0  0  0  0  0  0
   -4.3392   -1.3707   -0.8417 O   0  0  0  0  0  0  0  0  0  0  0  0
   -4.6887   -2.2458    0.2249 C   0  0  0  0  0  0  0  0  0  0  0  0
   -3.3488    0.6170   -1.6030 C   0  0  0  0  0  0  0  0  0  0  0  0
   -3.6378    0.1596   -2.9296 N   0  0  0  0  0  0  0  0  0  0  0  0
   -2.3434   -0.3453   -3.8979 S   0  0  0  0  0  6  0  0  0  0  0  0
   -1.4367    0.7618   -4.1033 O   0  0  0  0  0  0  0  0  0  0  0  0
   -2.9229   -1.0619   -5.0145 O   0  0  0  0  0  0  0  0  0  0  0  0
   -1.5184   -1.5469   -2.8725 C   0  0  0  0  0  0  0  0  0  0  0  0
   -1.9315   -2.8823   -2.9080 C   0  0  0  0  0  0  0  0  0  0  0  0
   -1.3051   -3.8198   -2.0830 C   0  0  0  0  0  0  0  0  0  0  0  0
   -0.2673   -3.4288   -1.2283 C   0  0  0  0  0  0  0  0  0  0  0  0
    0.4046   -4.6286   -0.1855 Cl  0  0  0  0  0  0  0  0  0  0  0  0
    0.1529   -2.0948   -1.2157 C   0  0  0  0  0  0  0  0  0  0  0  0
    1.2506   -1.6451   -0.3448 C   0  0  0  0  0  0  0  0  0  0  0  0
    2.3749   -2.1121   -0.3396 O   0  0  0  0  0  0  0  0  0  0  0  0
    0.7816   -0.6353    0.4299 O   0  0  0  0  0  0  0  0  0  0  0  0
    1.8101    0.0607    1.1514 C   0  0  0  0  0  0  0  0  0  0  0  0
    1.1198    0.9660    2.1625 C   0  0  0  0  0  0  0  0  0  0  0  0
    2.6518    0.9191    0.1855 C   0  0  0  0  0  0  0  0  0  0  0  0
    2.1880    1.2907   -0.8963 O   0  0  0  0  0  0  0  0  0  0  0  0
    3.9251    1.2674    0.5844 N   0  0  0  0  0  0  0  0  0  0  0  0
    4.7923    2.0453   -0.2853 C   0  0  0  0  0  0  0  0  0  0  0  0
    6.1924    1.8266    0.2720 C   0  0  0  0  0  0  0  0  0  0  0  0
    5.9379    1.5836    1.7537 C   0  0  0  0  0  0  0  0  0  0  0  0
    4.6495    0.7742    1.7443 C   0  0  0  0  0  0  0  0  0  0  0  0
   -0.4599   -1.1497   -2.0517 C   0  0  0  0  0  0  0  0  0  0  0  0
   -2.6816    1.8214   -1.4029 C   0  0  0  0  0  0  0  0  0  0  0  0
   -2.3726    2.2264   -0.1044 C   0  0  0  0  0  0  0  0  0  0  0  0
   -1.5525    3.7359    0.0991 Cl  0  0  0  0  0  0  0  0  0  0  0  0
   -3.8440    1.0637    3.4459 H   0  0  0  0  0  0  0  0  0  0  0  0
   -2.4200    1.7116    4.2685 H   0  0  0  0  0  0  0  0  0  0  0  0
   -2.2659    0.1844    3.3924 H   0  0  0  0  0  0  0  0  0  0  0  0
   -3.6523   -0.4087    1.6295 H   0  0  0  0  0  0  0  0  0  0  0  0
   -5.4079   -1.7731    0.9020 H   0  0  0  0  0  0  0  0  0  0  0  0
   -5.1700   -3.1266   -0.2108 H   0  0  0  0  0  0  0  0  0  0  0  0
   -3.7979   -2.5857    0.7639 H   0  0  0  0  0  0  0  0  0  0  0  0
   -4.3988   -0.5213   -2.9743 H   0  0  0  0  0  0  0  0  0  0  0  0
   -2.7400   -3.1978   -3.5651 H   0  0  0  0  0  0  0  0  0  0  0  0
   -1.6360   -4.8564   -2.1063 H   0  0  0  0  0  0  0  0  0  0  0  0
    2.4329   -0.6663    1.6833 H   0  0  0  0  0  0  0  0  0  0  0  0
    0.4586    0.3819    2.8113 H   0  0  0  0  0  0  0  0  0  0  0  0
    0.4951    1.7087    1.6556 H   0  0  0  0  0  0  0  0  0  0  0  0
    1.8370    1.5056    2.7875 H   0  0  0  0  0  0  0  0  0  0  0  0
    4.4887    3.0947   -0.2048 H   0  0  0  0  0  0  0  0  0  0  0  0
    4.7015    1.7271   -1.3283 H   0  0  0  0  0  0  0  0  0  0  0  0
    6.8582    2.6730    0.0839 H   0  0  0  0  0  0  0  0  0  0  0  0
    6.6386    0.9314   -0.1775 H   0  0  0  0  0  0  0  0  0  0  0  0
    5.7781    2.5410    2.2648 H   0  0  0  0  0  0  0  0  0  0  0  0
    6.7605    1.0613    2.2499 H   0  0  0  0  0  0  0  0  0  0  0  0
    4.8489   -0.2917    1.5896 H   0  0  0  0  0  0  0  0  0  0  0  0
    4.0692    0.9006    2.6610 H   0  0  0  0  0  0  0  0  0  0  0  0
   -0.1151   -0.1150   -2.0497 H   0  0  0  0  0  0  0  0  0  0  0  0
   -2.4039    2.4437   -2.2503 H   0  0  0  0  0  0  0  0  0  0  0  0
  1  2  1  0
  2  3  1  0
  3  4  2  0
  4  5  1  0
  5  6  1  0
  6  7  1  0
  5  8  2  0
  8  9  1  0
  9 10  1  0
 10 11  2  0
 10 12  2  0
 10 13  1  0
 13 14  2  0
 14 15  1  0
 15 16  2  0
 16 17  1  0
 16 18  1  0
 18 19  1  0
 19 20  2  0
 19 21  1  0
 21 22  1  0
 22 23  1  0
 22 24  1  0
 24 25  2  0
 24 26  1  0
 26 27  1  0
 27 28  1  0
 28 29  1  0
 29 30  1  0
 18 31  2  0
  8 32  1  0
 32 33  2  0
 33 34  1  0
 33  3  1  0
 31 13  1  0
 30 26  1  0
  1 35  1  0
  1 36  1  0
  1 37  1  0
  4 38  1  0
  7 39  1  0
  7 40  1  0
  7 41  1  0
  9 42  1  0
 14 43  1  0
 15 44  1  0
 22 45  1  0
 23 46  1  0
 23 47  1  0
 23 48  1  0
 27 49  1  0
 27 50  1  0
 28 51  1  0
 28 52  1  0
 29 53  1  0
 29 54  1  0
 30 55  1  0
 30 56  1  0
 31 57  1  0
 32 58  1  0
M  END
$$$$
