
     RDKit          3D

 33 36  0  0  0  0  0  0  0  0999 V2000
    4.7827    3.0394   -0.0583 C   0  0  0  0  0  0  0  0  0  0  0  0
    4.8707    1.5841    0.1676 C   0  0  0  0  0  0  0  0  0  0  0  0
    5.8299    0.7599    0.7033 C   0  0  0  0  0  0  0  0  0  0  0  0
    5.2935   -0.5485    0.6435 C   0  0  0  0  0  0  0  0  0  0  0  0
    4.0198   -0.4647    0.0929 C   0  0  0  0  0  0  0  0  0  0  0  0
    3.1090   -1.5148   -0.1882 C   0  0  0  0  0  0  0  0  0  0  0  0
    1.7741   -1.4046   -0.1179 C   0  0  0  0  0  0  0  0  0  0  0  0
    0.7490   -2.7679   -0.6043 S   0  0  0  0  0  0  0  0  0  0  0  0
   -0.6455   -1.8293   -0.2909 C   0  0  0  0  0  0  0  0  0  0  0  0
   -1.9283   -2.0198   -0.3872 N   0  0  0  0  0  0  0  0  0  0  0  0
   -2.4347   -0.8193    0.0943 C   0  0  0  0  0  0  0  0  0  0  0  0
   -3.8650   -0.5390    0.1598 C   0  0  0  0  0  0  0  0  0  0  0  0
   -4.3112    0.7341   -0.2446 C   0  0  0  0  0  0  0  0  0  0  0  0
   -5.6684    1.0631   -0.2286 C   0  0  0  0  0  0  0  0  0  0  0  0
   -6.6032    0.1255    0.1969 C   0  0  0  0  0  0  0  0  0  0  0  0
   -6.1799   -1.1360    0.6147 C   0  0  0  0  0  0  0  0  0  0  0  0
   -4.8177   -1.4710    0.6021 C   0  0  0  0  0  0  0  0  0  0  0  0
   -4.3701   -3.1954    1.2726 Br  0  0  0  0  0  0  0  0  0  0  0  0
   -1.4919    0.0893    0.4330 N   0  0  0  0  0  0  0  0  0  0  0  0
   -0.3651   -0.6022    0.1818 N   0  0  0  0  0  0  0  0  0  0  0  0
    0.9535   -0.2333    0.3543 C   0  0  0  0  0  0  0  0  0  0  0  0
    1.2740    0.8318    0.8437 O   0  0  0  0  0  0  0  0  0  0  0  0
    3.7943    0.8528   -0.2206 O   0  0  0  0  0  0  0  0  0  0  0  0
    5.6843    3.5474    0.2977 H   0  0  0  0  0  0  0  0  0  0  0  0
    4.6683    3.2550   -1.1250 H   0  0  0  0  0  0  0  0  0  0  0  0
    3.9229    3.4582    0.4737 H   0  0  0  0  0  0  0  0  0  0  0  0
    6.7929    1.0630    1.0894 H   0  0  0  0  0  0  0  0  0  0  0  0
    5.7750   -1.4576    0.9771 H   0  0  0  0  0  0  0  0  0  0  0  0
    3.5545   -2.4578   -0.4961 H   0  0  0  0  0  0  0  0  0  0  0  0
   -3.5938    1.4821   -0.5805 H   0  0  0  0  0  0  0  0  0  0  0  0
   -5.9912    2.0512   -0.5476 H   0  0  0  0  0  0  0  0  0  0  0  0
   -7.6607    0.3777    0.2122 H   0  0  0  0  0  0  0  0  0  0  0  0
   -6.9215   -1.8535    0.9591 H   0  0  0  0  0  0  0  0  0  0  0  0
  1  2  1  0
  2  3  2  0
  3  4  1  0
  4  5  2  0
  5  6  1  0
  6  7  2  3
  7  8  1  0
  8  9  1  0
  9 10  2  0
 10 11  1  0
 11 12  1  0
 12 13  2  0
 13 14  1  0
 14 15  2  0
 15 16  1  0
 16 17  2  0
 17 18  1  0
 11 19  2  0
 19 20  1  0
 20 21  1  0
 21 22  2  0
  5 23  1  0
 23  2  1  0
 21  7  1  0
 20  9  1  0
 17 12  1  0
  1 24  1  0
  1 25  1  0
  1 26  1  0
  3 27  1  0
  4 28  1  0
  6 29  1  0
 13 30  1  0
 14 31  1  0
 15 32  1  0
 16 33  1  0
M  END
$$$$
