
     RDKit          3D

 46 49  0  0  0  0  0  0  0  0999 V2000
    6.7831    0.6850   -0.4625 C   0  0  0  0  0  0  0  0  0  0  0  0
    5.9233   -0.5068   -0.0889 C   0  0  0  0  0  0  0  0  0  0  0  0
    4.5731   -0.0535    0.0588 O   0  0  0  0  0  0  0  0  0  0  0  0
    3.6859   -1.0278    0.3974 C   0  0  0  0  0  0  0  0  0  0  0  0
    3.9948   -2.2024    0.5624 O   0  0  0  0  0  0  0  0  0  0  0  0
    2.3977   -0.5436    0.5367 N   0  0  0  0  0  0  0  0  0  0  0  0
    2.0418    0.8529    0.2909 C   0  0  0  0  0  0  0  0  0  0  0  0
    0.5852    0.9795   -0.1359 C   0  0  0  0  0  0  0  0  0  0  0  0
   -0.3821    0.4538    0.9530 C   0  0  0  0  0  0  0  0  0  0  0  0
    0.2673   -0.7001    1.7694 C   0  0  0  0  0  0  0  0  0  0  0  0
    1.3443   -1.4428    0.9854 C   0  0  0  0  0  0  0  0  0  0  0  0
   -0.6924    1.5306    1.9454 N   0  0  0  0  0  0  0  0  0  0  0  0
   -1.6790    2.5236    1.4599 C   0  0  0  0  0  0  0  0  0  0  0  0
   -3.0651    1.9122    1.1655 C   0  0  0  0  0  0  0  0  0  0  0  0
   -2.9032    0.6501    0.3957 C   0  0  0  0  0  0  0  0  0  0  0  0
   -1.6833    0.0026    0.3224 C   0  0  0  0  0  0  0  0  0  0  0  0
   -1.8568   -1.1074   -0.4641 N   0  0  0  0  0  0  0  0  0  0  0  0
   -3.1691   -1.1995   -0.8758 C   0  0  0  0  0  0  0  0  0  0  0  0
   -3.7958   -2.1635   -1.6747 C   0  0  0  0  0  0  0  0  0  0  0  0
   -5.1594   -2.0006   -1.9371 C   0  0  0  0  0  0  0  0  0  0  0  0
   -5.8655   -0.9160   -1.4215 C   0  0  0  0  0  0  0  0  0  0  0  0
   -5.2239    0.0402   -0.6258 C   0  0  0  0  0  0  0  0  0  0  0  0
   -3.8508   -0.1025   -0.3467 C   0  0  0  0  0  0  0  0  0  0  0  0
    6.4300    1.1378   -1.3949 H   0  0  0  0  0  0  0  0  0  0  0  0
    6.7247    1.4595    0.3095 H   0  0  0  0  0  0  0  0  0  0  0  0
    7.8282    0.3884   -0.5873 H   0  0  0  0  0  0  0  0  0  0  0  0
    6.2761   -0.9348    0.8561 H   0  0  0  0  0  0  0  0  0  0  0  0
    5.9759   -1.2626   -0.8805 H   0  0  0  0  0  0  0  0  0  0  0  0
    2.6877    1.2689   -0.4893 H   0  0  0  0  0  0  0  0  0  0  0  0
    2.2354    1.4126    1.2132 H   0  0  0  0  0  0  0  0  0  0  0  0
    0.4522    0.4127   -1.0682 H   0  0  0  0  0  0  0  0  0  0  0  0
    0.3740    2.0214   -0.4009 H   0  0  0  0  0  0  0  0  0  0  0  0
   -0.4886   -1.4086    2.1318 H   0  0  0  0  0  0  0  0  0  0  0  0
    0.7563   -0.2969    2.6688 H   0  0  0  0  0  0  0  0  0  0  0  0
    0.9272   -1.9252    0.0953 H   0  0  0  0  0  0  0  0  0  0  0  0
    1.7734   -2.2354    1.6087 H   0  0  0  0  0  0  0  0  0  0  0  0
   -1.1086    1.0791    2.7618 H   0  0  0  0  0  0  0  0  0  0  0  0
   -1.7915    3.3010    2.2243 H   0  0  0  0  0  0  0  0  0  0  0  0
   -1.2956    3.0322    0.5682 H   0  0  0  0  0  0  0  0  0  0  0  0
   -3.5788    1.6909    2.1088 H   0  0  0  0  0  0  0  0  0  0  0  0
   -3.6760    2.6321    0.6103 H   0  0  0  0  0  0  0  0  0  0  0  0
   -1.1396   -1.7692   -0.7236 H   0  0  0  0  0  0  0  0  0  0  0  0
   -3.2497   -3.0093   -2.0792 H   0  0  0  0  0  0  0  0  0  0  0  0
   -5.6759   -2.7325   -2.5540 H   0  0  0  0  0  0  0  0  0  0  0  0
   -6.9253   -0.8088   -1.6386 H   0  0  0  0  0  0  0  0  0  0  0  0
   -5.7820    0.8826   -0.2291 H   0  0  0  0  0  0  0  0  0  0  0  0
  1  2  1  0
  2  3  1  0
  3  4  1  0
  4  5  2  0
  4  6  1  0
  6  7  1  0
  7  8  1  0
  8  9  1  0
  9 10  1  0
 10 11  1  0
  9 12  1  0
 12 13  1  0
 13 14  1  0
 14 15  1  0
 15 16  2  0
 16 17  1  0
 17 18  1  0
 18 19  2  0
 19 20  1  0
 20 21  2  0
 21 22  1  0
 22 23  2  0
 11  6  1  0
 23 15  1  0
 16  9  1  0
 23 18  1  0
  1 24  1  0
  1 25  1  0
  1 26  1  0
  2 27  1  0
  2 28  1  0
  7 29  1  0
  7 30  1  0
  8 31  1  0
  8 32  1  0
 10 33  1  0
 10 34  1  0
 11 35  1  0
 11 36  1  0
 12 37  1  0
 13 38  1  0
 13 39  1  0
 14 40  1  0
 14 41  1  0
 17 42  1  0
 19 43  1  0
 20 44  1  0
 21 45  1  0
 22 46  1  0
M  END
$$$$
