
     RDKit          3D

 49 52  0  0  0  0  0  0  0  0999 V2000
    0.3497   -2.5216   -2.8666 N   0  0  0  0  0  0  0  0  0  0  0  0
    0.4075   -1.5067   -2.3025 C   0  0  0  0  0  0  0  0  0  0  0  0
    0.4911   -0.2051   -1.6213 C   0  0  0  0  0  0  0  0  0  0  0  0
    1.6043   -0.2482   -0.5836 C   0  0  0  0  0  0  0  0  0  0  0  0
    2.7147    0.2329   -0.8144 O   0  0  0  0  0  0  0  0  0  0  0  0
    1.3019   -0.8560    0.6169 N   0  0  0  0  0  0  0  0  0  0  0  0
    2.2908   -1.0960    1.6419 C   0  0  0  0  0  0  0  0  0  0  0  0
    2.7462   -2.5306    1.6125 C   0  0  0  0  0  0  0  0  0  0  0  0
    2.1463   -3.4912    2.4392 C   0  0  0  0  0  0  0  0  0  0  0  0
    2.5554   -4.8244    2.3855 C   0  0  0  0  0  0  0  0  0  0  0  0
    3.5615   -5.2115    1.5020 C   0  0  0  0  0  0  0  0  0  0  0  0
    4.1580   -4.2668    0.6693 C   0  0  0  0  0  0  0  0  0  0  0  0
    3.7507   -2.9335    0.7212 C   0  0  0  0  0  0  0  0  0  0  0  0
   -0.8232    0.2203   -1.0032 C   0  0  0  0  0  0  0  0  0  0  0  0
   -1.5141   -0.7369   -0.3085 N   0  0  0  0  0  0  0  0  0  0  0  0
   -2.7024   -0.3837    0.2083 C   0  0  0  0  0  0  0  0  0  0  0  0
   -3.4638   -1.3221    0.8948 C   0  0  0  0  0  0  0  0  0  0  0  0
   -4.7031   -0.9889    1.4424 C   0  0  0  0  0  0  0  0  0  0  0  0
   -5.1877    0.3046    1.3009 C   0  0  0  0  0  0  0  0  0  0  0  0
   -4.4281    1.2518    0.6127 C   0  0  0  0  0  0  0  0  0  0  0  0
   -3.1928    0.9295    0.0632 C   0  0  0  0  0  0  0  0  0  0  0  0
   -2.4867    1.8727   -0.5883 N   0  0  0  0  0  0  0  0  0  0  0  0
   -1.2880    1.5406   -1.1175 C   0  0  0  0  0  0  0  0  0  0  0  0
   -0.5374    2.5287   -1.7619 N   0  0  0  0  0  0  0  0  0  0  0  0
    0.6011    3.0412   -0.9697 C   0  0  0  0  0  0  0  0  0  0  0  0
    0.5072    4.5638   -1.0622 C   0  0  0  0  0  0  0  0  0  0  0  0
   -0.2651    4.7884   -2.3485 C   0  0  0  0  0  0  0  0  0  0  0  0
   -1.3014    3.6741   -2.2839 C   0  0  0  0  0  0  0  0  0  0  0  0
    0.7936    0.5199   -2.3862 H   0  0  0  0  0  0  0  0  0  0  0  0
    0.4066   -1.3320    0.7072 H   0  0  0  0  0  0  0  0  0  0  0  0
    1.8244   -0.8625    2.6054 H   0  0  0  0  0  0  0  0  0  0  0  0
    3.1457   -0.4219    1.5249 H   0  0  0  0  0  0  0  0  0  0  0  0
    1.3551   -3.2079    3.1282 H   0  0  0  0  0  0  0  0  0  0  0  0
    2.0858   -5.5637    3.0292 H   0  0  0  0  0  0  0  0  0  0  0  0
    3.8764   -6.2505    1.4570 H   0  0  0  0  0  0  0  0  0  0  0  0
    4.9364   -4.5684   -0.0269 H   0  0  0  0  0  0  0  0  0  0  0  0
    4.2155   -2.2070    0.0568 H   0  0  0  0  0  0  0  0  0  0  0  0
   -3.0866   -2.3367    0.9982 H   0  0  0  0  0  0  0  0  0  0  0  0
   -5.2851   -1.7393    1.9719 H   0  0  0  0  0  0  0  0  0  0  0  0
   -6.1527    0.5795    1.7196 H   0  0  0  0  0  0  0  0  0  0  0  0
   -4.8060    2.2653    0.5000 H   0  0  0  0  0  0  0  0  0  0  0  0
    1.5337    2.7015   -1.4326 H   0  0  0  0  0  0  0  0  0  0  0  0
    0.5936    2.7184    0.0783 H   0  0  0  0  0  0  0  0  0  0  0  0
    1.4901    5.0437   -1.0651 H   0  0  0  0  0  0  0  0  0  0  0  0
   -0.0608    4.9550   -0.2093 H   0  0  0  0  0  0  0  0  0  0  0  0
   -0.7187    5.7817   -2.4036 H   0  0  0  0  0  0  0  0  0  0  0  0
    0.3916    4.6545   -3.2161 H   0  0  0  0  0  0  0  0  0  0  0  0
   -1.7182    3.4530   -3.2717 H   0  0  0  0  0  0  0  0  0  0  0  0
   -2.1129    3.9922   -1.6183 H   0  0  0  0  0  0  0  0  0  0  0  0
  1  2  3  0
  2  3  1  0
  3  4  1  0
  4  5  2  0
  4  6  1  0
  6  7  1  0
  7  8  1  0
  8  9  2  0
  9 10  1  0
 10 11  2  0
 11 12  1  0
 12 13  2  0
  3 14  1  0
 14 15  2  0
 15 16  1  0
 16 17  2  0
 17 18  1  0
 18 19  2  0
 19 20  1  0
 20 21  2  0
 21 22  1  0
 22 23  2  0
 23 24  1  0
 24 25  1  0
 25 26  1  0
 26 27  1  0
 27 28  1  0
 13  8  1  0
 23 14  1  0
 28 24  1  0
 21 16  1  0
  3 29  1  0
  6 30  1  0
  7 31  1  0
  7 32  1  0
  9 33  1  0
 10 34  1  0
 11 35  1  0
 12 36  1  0
 13 37  1  0
 17 38  1  0
 18 39  1  0
 19 40  1  0
 20 41  1  0
 25 42  1  0
 25 43  1  0
 26 44  1  0
 26 45  1  0
 27 46  1  0
 27 47  1  0
 28 48  1  0
 28 49  1  0
M  END
$$$$
