
     RDKit          3D

 43 45  0  0  0  0  0  0  0  0999 V2000
   -6.2382   -0.1775    0.7593 C   0  0  0  0  0  0  0  0  0  0  0  0
   -4.9589   -0.1845    0.0540 N   0  0  0  0  0  0  0  0  0  0  0  0
   -4.0687    0.8790    0.5711 C   0  0  0  0  0  0  0  0  0  0  0  0
   -2.6703    0.8738   -0.0953 C   0  0  0  0  0  0  0  0  0  0  0  0
   -2.0522   -0.4656    0.0413 N   0  0  0  0  0  0  0  0  0  0  0  0
   -0.6817   -0.4903   -0.2246 C   0  0  0  0  0  0  0  0  0  0  0  0
    0.1599   -0.2763    0.8848 C   0  0  0  0  0  0  0  0  0  0  0  0
    1.5571   -0.2835    0.7777 C   0  0  0  0  0  0  0  0  0  0  0  0
    2.1608   -0.4882   -0.4645 C   0  0  0  0  0  0  0  0  0  0  0  0
    3.6355   -0.5231   -0.6263 C   0  0  0  0  0  0  0  0  0  0  0  0
    4.1211   -1.2689   -1.4722 O   0  0  0  0  0  0  0  0  0  0  0  0
    4.5363    0.3152    0.2033 C   0  0  0  0  0  0  0  0  0  0  0  0
    5.7825   -0.2085    0.5698 C   0  0  0  0  0  0  0  0  0  0  0  0
    6.6648    0.5539    1.3386 C   0  0  0  0  0  0  0  0  0  0  0  0
    6.3043    1.8432    1.7274 C   0  0  0  0  0  0  0  0  0  0  0  0
    7.4971    2.8770    2.7671 Br  0  0  0  0  0  0  0  0  0  0  0  0
    5.0740    2.3808    1.3482 C   0  0  0  0  0  0  0  0  0  0  0  0
    4.1896    1.6192    0.5790 C   0  0  0  0  0  0  0  0  0  0  0  0
    1.3632   -0.7129   -1.5870 C   0  0  0  0  0  0  0  0  0  0  0  0
   -0.0353   -0.7016   -1.4536 C   0  0  0  0  0  0  0  0  0  0  0  0
   -0.7818   -0.8592   -2.6780 N   0  0  0  0  0  4  0  0  0  0  0  0
   -1.1877    0.1741   -3.2272 O   0  0  0  0  0  0  0  0  0  0  0  0
   -0.9250   -2.0133   -3.1044 O   0  0  0  0  0  1  0  0  0  0  0  0
   -2.9141   -1.5322   -0.5123 C   0  0  0  0  0  0  0  0  0  0  0  0
   -4.2932   -1.5007    0.1903 C   0  0  0  0  0  0  0  0  0  0  0  0
   -6.9067   -0.9420    0.3483 H   0  0  0  0  0  0  0  0  0  0  0  0
   -6.7430    0.7860    0.6280 H   0  0  0  0  0  0  0  0  0  0  0  0
   -6.1225   -0.3623    1.8333 H   0  0  0  0  0  0  0  0  0  0  0  0
   -4.5286    1.8586    0.3944 H   0  0  0  0  0  0  0  0  0  0  0  0
   -3.9399    0.7667    1.6562 H   0  0  0  0  0  0  0  0  0  0  0  0
   -2.7645    1.1432   -1.1544 H   0  0  0  0  0  0  0  0  0  0  0  0
   -2.0523    1.6378    0.3924 H   0  0  0  0  0  0  0  0  0  0  0  0
   -0.2899   -0.1241    1.8659 H   0  0  0  0  0  0  0  0  0  0  0  0
    2.1499   -0.1507    1.6797 H   0  0  0  0  0  0  0  0  0  0  0  0
    6.0689   -1.2106    0.2550 H   0  0  0  0  0  0  0  0  0  0  0  0
    7.6280    0.1361    1.6208 H   0  0  0  0  0  0  0  0  0  0  0  0
    4.8006    3.3928    1.6371 H   0  0  0  0  0  0  0  0  0  0  0  0
    3.2484    2.0640    0.2663 H   0  0  0  0  0  0  0  0  0  0  0  0
    1.8253   -0.8871   -2.5581 H   0  0  0  0  0  0  0  0  0  0  0  0
   -3.0746   -1.3956   -1.5868 H   0  0  0  0  0  0  0  0  0  0  0  0
   -2.4538   -2.5138   -0.3494 H   0  0  0  0  0  0  0  0  0  0  0  0
   -4.1598   -1.7515    1.2513 H   0  0  0  0  0  0  0  0  0  0  0  0
   -4.9244   -2.2776   -0.2572 H   0  0  0  0  0  0  0  0  0  0  0  0
  1  2  1  0
  2  3  1  0
  3  4  1  0
  4  5  1  0
  5  6  1  0
  6  7  2  0
  7  8  1  0
  8  9  2  0
  9 10  1  0
 10 11  2  0
 10 12  1  0
 12 13  2  0
 13 14  1  0
 14 15  2  0
 15 16  1  0
 15 17  1  0
 17 18  2  0
  9 19  1  0
 19 20  2  0
 20 21  1  0
 21 22  2  0
 21 23  1  0
  5 24  1  0
 24 25  1  0
 25  2  1  0
 20  6  1  0
 18 12  1  0
  1 26  1  0
  1 27  1  0
  1 28  1  0
  3 29  1  0
  3 30  1  0
  4 31  1  0
  4 32  1  0
  7 33  1  0
  8 34  1  0
 13 35  1  0
 14 36  1  0
 17 37  1  0
 18 38  1  0
 19 39  1  0
 24 40  1  0
 24 41  1  0
 25 42  1  0
 25 43  1  0
M  CHG  2  21   1  23  -1
M  END
$$$$
