
     RDKit          3D

 47 50  0  0  0  0  0  0  0  0999 V2000
    2.4869   -0.0112   -1.9300 C   0  0  0  0  0  0  0  0  0  0  0  0
    2.9850   -0.3143   -0.6301 O   0  0  0  0  0  0  0  0  0  0  0  0
    2.0463   -0.4838    0.3544 C   0  0  0  0  0  0  0  0  0  0  0  0
    0.7221   -0.8696    0.1172 C   0  0  0  0  0  0  0  0  0  0  0  0
   -0.1685   -1.0673    1.1829 C   0  0  0  0  0  0  0  0  0  0  0  0
   -1.5571   -1.4739    0.9533 C   0  0  0  0  0  0  0  0  0  0  0  0
   -2.4975   -0.7835    0.2939 C   0  0  0  0  0  0  0  0  0  0  0  0
   -3.7865   -1.2325    0.1435 N   0  0  0  0  0  0  0  0  0  0  0  0
   -4.3538   -0.2727   -0.5143 C   0  0  0  0  0  0  0  0  0  0  0  0
   -5.7572   -0.2090   -0.9531 C   0  0  0  0  0  0  0  0  0  0  0  0
   -6.2488    0.8879   -1.6713 C   0  0  0  0  0  0  0  0  0  0  0  0
   -7.5877    0.9199   -2.0677 C   0  0  0  0  0  0  0  0  0  0  0  0
   -8.4366   -0.1403   -1.7503 C   0  0  0  0  0  0  0  0  0  0  0  0
   -7.9507   -1.2356   -1.0373 C   0  0  0  0  0  0  0  0  0  0  0  0
   -6.6134   -1.2711   -0.6378 C   0  0  0  0  0  0  0  0  0  0  0  0
   -3.5954    0.7974   -0.8417 O   0  0  0  0  0  0  0  0  0  0  0  0
   -2.3479    0.5561   -0.3505 C   0  0  0  0  0  0  0  0  0  0  0  0
   -1.3823    1.2857   -0.4472 O   0  0  0  0  0  0  0  0  0  0  0  0
    0.2879   -0.9298    2.4971 C   0  0  0  0  0  0  0  0  0  0  0  0
    1.6075   -0.5545    2.7441 C   0  0  0  0  0  0  0  0  0  0  0  0
    2.4738   -0.3046    1.6789 C   0  0  0  0  0  0  0  0  0  0  0  0
    3.7482    0.0702    2.0220 O   0  0  0  0  0  0  0  0  0  0  0  0
    4.1302    1.3377    1.4638 C   0  0  0  0  0  0  0  0  0  0  0  0
    5.3776    1.2293    0.7014 C   0  0  0  0  0  0  0  0  0  0  0  0
    6.6078    0.5957    0.9616 C   0  0  0  0  0  0  0  0  0  0  0  0
    7.0041   -0.2101    2.1387 C   0  0  0  0  0  0  0  0  0  0  0  0
    7.4754    0.7996   -0.0350 N   0  0  0  0  0  0  0  0  0  0  0  0
    6.8061    1.5781   -0.9791 O   0  0  0  0  0  0  0  0  0  0  0  0
    5.4783    1.8136   -0.4890 N   0  0  0  0  0  4  0  0  0  0  0  0
    4.7431    2.5494   -1.1865 O   0  0  0  0  0  1  0  0  0  0  0  0
    3.3440    0.2449   -2.5609 H   0  0  0  0  0  0  0  0  0  0  0  0
    1.9959   -0.8820   -2.3813 H   0  0  0  0  0  0  0  0  0  0  0  0
    1.8136    0.8538   -1.9057 H   0  0  0  0  0  0  0  0  0  0  0  0
    0.3641   -1.0305   -0.8947 H   0  0  0  0  0  0  0  0  0  0  0  0
   -1.8326   -2.4270    1.3986 H   0  0  0  0  0  0  0  0  0  0  0  0
   -5.6056    1.7252   -1.9306 H   0  0  0  0  0  0  0  0  0  0  0  0
   -7.9694    1.7720   -2.6243 H   0  0  0  0  0  0  0  0  0  0  0  0
   -9.4789   -0.1135   -2.0603 H   0  0  0  0  0  0  0  0  0  0  0  0
   -8.6140   -2.0631   -0.7929 H   0  0  0  0  0  0  0  0  0  0  0  0
   -6.2466   -2.1301   -0.0803 H   0  0  0  0  0  0  0  0  0  0  0  0
   -0.3801   -1.1091    3.3363 H   0  0  0  0  0  0  0  0  0  0  0  0
    1.9569   -0.4426    3.7663 H   0  0  0  0  0  0  0  0  0  0  0  0
    3.3224    1.8097    0.8904 H   0  0  0  0  0  0  0  0  0  0  0  0
    4.3090    2.0019    2.3184 H   0  0  0  0  0  0  0  0  0  0  0  0
    6.5032    0.1457    3.0438 H   0  0  0  0  0  0  0  0  0  0  0  0
    6.7379   -1.2608    1.9885 H   0  0  0  0  0  0  0  0  0  0  0  0
    8.0833   -0.1513    2.3144 H   0  0  0  0  0  0  0  0  0  0  0  0
  1  2  1  0
  2  3  1  0
  3  4  2  0
  4  5  1  0
  5  6  1  0
  6  7  2  3
  7  8  1  0
  8  9  2  0
  9 10  1  0
 10 11  2  0
 11 12  1  0
 12 13  2  0
 13 14  1  0
 14 15  2  0
  9 16  1  0
 16 17  1  0
 17 18  2  0
  5 19  2  0
 19 20  1  0
 20 21  2  0
 21 22  1  0
 22 23  1  0
 23 24  1  0
 24 25  1  0
 25 26  1  0
 25 27  2  0
 27 28  1  0
 28 29  1  0
 29 30  1  0
 21  3  1  0
 29 24  2  0
 17  7  1  0
 15 10  1  0
  1 31  1  0
  1 32  1  0
  1 33  1  0
  4 34  1  0
  6 35  1  0
 11 36  1  0
 12 37  1  0
 13 38  1  0
 14 39  1  0
 15 40  1  0
 19 41  1  0
 20 42  1  0
 23 43  1  0
 23 44  1  0
 26 45  1  0
 26 46  1  0
 26 47  1  0
M  CHG  2  29   1  30  -1
M  END
$$$$
