
     RDKit          3D

 44 46  0  0  0  0  0  0  0  0999 V2000
    8.2195    0.9366   -0.4049 C   0  0  0  0  0  0  0  0  0  0  0  0
    7.6325   -0.1002    0.3729 O   0  0  0  0  0  0  0  0  0  0  0  0
    6.2672   -0.1505    0.4113 C   0  0  0  0  0  0  0  0  0  0  0  0
    5.7438   -1.2055    1.1616 C   0  0  0  0  0  0  0  0  0  0  0  0
    4.3618   -1.3842    1.2911 C   0  0  0  0  0  0  0  0  0  0  0  0
    3.4799   -0.5018    0.6652 C   0  0  0  0  0  0  0  0  0  0  0  0
    2.1150   -0.5843    0.7309 O   0  0  0  0  0  0  0  0  0  0  0  0
    1.5434   -1.7075    1.3979 C   0  0  0  0  0  0  0  0  0  0  0  0
    0.0748   -1.5848    1.2532 C   0  0  0  0  0  0  0  0  0  0  0  0
   -0.7607   -0.9567    0.3622 C   0  0  0  0  0  0  0  0  0  0  0  0
   -2.0718   -1.2528    0.8221 C   0  0  0  0  0  0  0  0  0  0  0  0
   -3.3569   -0.8474    0.2364 C   0  0  0  0  0  0  0  0  0  0  0  0
   -4.2675   -1.6620    0.0994 O   0  0  0  0  0  0  0  0  0  0  0  0
   -3.4803    0.4808   -0.2105 N   0  0  0  0  0  0  0  0  0  0  0  0
   -2.6897    1.5726    0.3496 C   0  0  0  0  0  0  0  0  0  0  0  0
   -4.6280    0.8870   -1.0254 C   0  0  0  0  0  0  0  0  0  0  0  0
   -5.9683    0.8921   -0.3203 C   0  0  0  0  0  0  0  0  0  0  0  0
   -6.9353    0.9659   -1.4860 C   0  0  0  0  0  0  0  0  0  0  0  0
   -6.2926    0.3813   -2.6297 O   0  0  0  0  0  0  0  0  0  0  0  0
   -4.9359    0.0624   -2.2724 C   0  0  0  0  0  0  0  0  0  0  0  0
   -2.0171   -2.0438    1.9073 N   0  0  0  0  0  0  0  0  0  0  0  0
   -0.6768   -2.2393    2.1768 O   0  0  0  0  0  0  0  0  0  0  0  0
    4.0116    0.5601   -0.0853 C   0  0  0  0  0  0  0  0  0  0  0  0
    2.9746    1.6936   -0.8867 Cl  0  0  0  0  0  0  0  0  0  0  0  0
    5.3947    0.7363   -0.2136 C   0  0  0  0  0  0  0  0  0  0  0  0
    9.3064    0.8279   -0.3408 H   0  0  0  0  0  0  0  0  0  0  0  0
    7.9365    0.8467   -1.4589 H   0  0  0  0  0  0  0  0  0  0  0  0
    7.9590    1.9233   -0.0082 H   0  0  0  0  0  0  0  0  0  0  0  0
    6.4227   -1.8997    1.6534 H   0  0  0  0  0  0  0  0  0  0  0  0
    4.0183   -2.2204    1.8911 H   0  0  0  0  0  0  0  0  0  0  0  0
    1.8728   -2.6423    0.9308 H   0  0  0  0  0  0  0  0  0  0  0  0
    1.8128   -1.6933    2.4603 H   0  0  0  0  0  0  0  0  0  0  0  0
   -0.4695   -0.3693   -0.4959 H   0  0  0  0  0  0  0  0  0  0  0  0
   -2.0818    2.0065   -0.4493 H   0  0  0  0  0  0  0  0  0  0  0  0
   -2.0491    1.2563    1.1741 H   0  0  0  0  0  0  0  0  0  0  0  0
   -3.3696    2.3361    0.7418 H   0  0  0  0  0  0  0  0  0  0  0  0
   -4.4277    1.9106   -1.3742 H   0  0  0  0  0  0  0  0  0  0  0  0
   -6.0884    1.7247    0.3790 H   0  0  0  0  0  0  0  0  0  0  0  0
   -6.1394   -0.0320    0.2409 H   0  0  0  0  0  0  0  0  0  0  0  0
   -7.1713    2.0055   -1.7359 H   0  0  0  0  0  0  0  0  0  0  0  0
   -7.8722    0.4388   -1.2837 H   0  0  0  0  0  0  0  0  0  0  0  0
   -4.8836   -1.0180   -2.1191 H   0  0  0  0  0  0  0  0  0  0  0  0
   -4.2732    0.3150   -3.1055 H   0  0  0  0  0  0  0  0  0  0  0  0
    5.7593    1.5705   -0.8029 H   0  0  0  0  0  0  0  0  0  0  0  0
  1  2  1  0
  2  3  1  0
  3  4  2  0
  4  5  1  0
  5  6  2  0
  6  7  1  0
  7  8  1  0
  8  9  1  0
  9 10  2  0
 10 11  1  0
 11 12  1  0
 12 13  2  0
 12 14  1  0
 14 15  1  0
 14 16  1  0
 16 17  1  0
 17 18  1  0
 18 19  1  0
 19 20  1  0
 11 21  2  0
 21 22  1  0
  6 23  1  0
 23 24  1  0
 23 25  2  0
 25  3  1  0
 22  9  1  0
 20 16  1  0
  1 26  1  0
  1 27  1  0
  1 28  1  0
  4 29  1  0
  5 30  1  0
  8 31  1  0
  8 32  1  0
 10 33  1  0
 15 34  1  0
 15 35  1  0
 15 36  1  0
 16 37  1  0
 17 38  1  0
 17 39  1  0
 18 40  1  0
 18 41  1  0
 20 42  1  0
 20 43  1  0
 25 44  1  0
M  END
$$$$
