
     RDKit          3D

 40 41  0  0  0  0  0  0  0  0999 V2000
   -5.2180    0.0125    0.1869 C   0  0  0  0  0  0  0  0  0  0  0  0
   -4.2864    1.0865   -0.3788 C   0  0  0  0  0  0  0  0  0  0  0  0
   -3.7514    2.0157    0.7182 C   0  0  0  0  0  0  0  0  0  0  0  0
   -2.7039    1.3451    1.6034 C   0  0  0  0  0  0  0  0  0  0  0  0
   -1.6342    0.7309    0.8199 N   0  0  0  0  0  0  0  0  0  0  0  0
   -0.4196    0.5327    1.4894 C   0  0  0  0  0  0  0  0  0  0  0  0
   -0.2266    0.8394    2.6634 O   0  0  0  0  0  0  0  0  0  0  0  0
    0.7203   -0.0423    0.7414 C   0  0  0  0  0  0  0  0  0  0  0  0
    1.1543    0.5442   -0.4519 C   0  0  0  0  0  0  0  0  0  0  0  0
    2.2559    0.0097   -1.1249 C   0  0  0  0  0  0  0  0  0  0  0  0
    2.9373   -1.0917   -0.5962 C   0  0  0  0  0  0  0  0  0  0  0  0
    4.0488   -1.6051   -1.3225 N   0  0  0  0  0  0  0  0  0  0  0  0
    5.5380   -1.8383   -0.5752 S   0  0  0  0  0  6  0  0  0  0  0  0
    5.9283   -0.2068    0.0288 C   0  0  0  0  0  0  0  0  0  0  0  0
    6.4631   -2.1364   -1.6487 O   0  0  0  0  0  0  0  0  0  0  0  0
    5.3911   -2.7296    0.5532 O   0  0  0  0  0  0  0  0  0  0  0  0
    2.4986   -1.6732    0.5950 C   0  0  0  0  0  0  0  0  0  0  0  0
    1.4002   -1.1396    1.2747 C   0  0  0  0  0  0  0  0  0  0  0  0
   -2.0765   -0.1759   -0.2432 C   0  0  0  0  0  0  0  0  0  0  0  0
   -3.1121    0.4766   -1.1554 C   0  0  0  0  0  0  0  0  0  0  0  0
   -6.0694    0.4742    0.6983 H   0  0  0  0  0  0  0  0  0  0  0  0
   -4.7151   -0.6436    0.9031 H   0  0  0  0  0  0  0  0  0  0  0  0
   -5.6151   -0.6141   -0.6188 H   0  0  0  0  0  0  0  0  0  0  0  0
   -4.8797    1.6904   -1.0776 H   0  0  0  0  0  0  0  0  0  0  0  0
   -3.2924    2.8897    0.2371 H   0  0  0  0  0  0  0  0  0  0  0  0
   -4.5735    2.3937    1.3368 H   0  0  0  0  0  0  0  0  0  0  0  0
   -3.1537    0.5639    2.2274 H   0  0  0  0  0  0  0  0  0  0  0  0
   -2.2803    2.0943    2.2825 H   0  0  0  0  0  0  0  0  0  0  0  0
    0.6415    1.4159   -0.8514 H   0  0  0  0  0  0  0  0  0  0  0  0
    2.5787    0.4706   -2.0545 H   0  0  0  0  0  0  0  0  0  0  0  0
    4.1517   -1.3205   -2.2961 H   0  0  0  0  0  0  0  0  0  0  0  0
    6.9374   -0.2392    0.4460 H   0  0  0  0  0  0  0  0  0  0  0  0
    5.8970    0.4969   -0.8050 H   0  0  0  0  0  0  0  0  0  0  0  0
    5.2187    0.0717    0.8093 H   0  0  0  0  0  0  0  0  0  0  0  0
    2.9923   -2.5496    1.0078 H   0  0  0  0  0  0  0  0  0  0  0  0
    1.0753   -1.5811    2.2145 H   0  0  0  0  0  0  0  0  0  0  0  0
   -2.4891   -1.0682    0.2427 H   0  0  0  0  0  0  0  0  0  0  0  0
   -1.2360   -0.5204   -0.8492 H   0  0  0  0  0  0  0  0  0  0  0  0
   -3.4752   -0.2544   -1.8871 H   0  0  0  0  0  0  0  0  0  0  0  0
   -2.6200    1.2757   -1.7254 H   0  0  0  0  0  0  0  0  0  0  0  0
  1  2  1  0
  2  3  1  0
  3  4  1  0
  4  5  1  0
  5  6  1  0
  6  7  2  0
  6  8  1  0
  8  9  2  0
  9 10  1  0
 10 11  2  0
 11 12  1  0
 12 13  1  0
 13 14  1  0
 13 15  2  0
 13 16  2  0
 11 17  1  0
 17 18  2  0
  5 19  1  0
 19 20  1  0
 20  2  1  0
 18  8  1  0
  1 21  1  0
  1 22  1  0
  1 23  1  0
  2 24  1  0
  3 25  1  0
  3 26  1  0
  4 27  1  0
  4 28  1  0
  9 29  1  0
 10 30  1  0
 12 31  1  0
 14 32  1  0
 14 33  1  0
 14 34  1  0
 17 35  1  0
 18 36  1  0
 19 37  1  0
 19 38  1  0
 20 39  1  0
 20 40  1  0
M  END
$$$$
