
     RDKit          3D

 40 42  0  0  0  0  0  0  0  0999 V2000
   -3.4728   -2.1468   -0.9932 C   0  0  0  0  0  0  0  0  0  0  0  0
   -2.7625   -0.9233   -0.4153 C   0  0  0  0  0  0  0  0  0  0  0  0
   -3.7796    0.1853   -0.1656 C   0  0  0  0  0  0  0  0  0  0  0  0
   -1.6317   -0.4838   -1.3627 C   0  0  0  0  0  0  0  0  0  0  0  0
   -0.7054    0.4580   -0.7711 N   0  0  0  0  0  0  0  0  0  0  0  0
    0.3589    0.1640    0.0462 C   0  0  0  0  0  0  0  0  0  0  0  0
    0.8258   -1.4357    0.4930 S   0  0  0  0  0  0  0  0  0  0  0  0
    2.3810   -1.1031    1.3641 C   0  0  0  0  0  0  0  0  0  0  0  0
    2.8743   -2.3015    2.1709 C   0  0  0  0  0  0  0  0  0  0  0  0
    2.1943   -3.3186    2.3149 O   0  0  0  0  0  0  0  0  0  0  0  0
    4.1945   -2.1410    2.7871 C   0  0  0  0  0  0  0  0  0  0  0  0
    5.1188   -1.1122    2.6646 C   0  0  0  0  0  0  0  0  0  0  0  0
    6.2896   -1.3254    3.4596 C   0  0  0  0  0  0  0  0  0  0  0  0
    6.2060   -2.5048    4.1515 C   0  0  0  0  0  0  0  0  0  0  0  0
    7.3825   -3.1432    5.2294 Cl  0  0  0  0  0  0  0  0  0  0  0  0
    4.7764   -3.3660    3.8513 S   0  0  0  0  0  0  0  0  0  0  0  0
    0.9230    1.2666    0.4714 N   0  0  0  0  0  0  0  0  0  0  0  0
    0.2436    2.3159   -0.0894 N   0  0  0  0  0  0  0  0  0  0  0  0
   -0.7154    1.8334   -0.8568 C   0  0  0  0  0  0  0  0  0  0  0  0
   -1.5988    2.6613   -1.6224 C   0  0  0  0  0  0  0  0  0  0  0  0
   -1.7369    4.0377   -1.5578 C   0  0  0  0  0  0  0  0  0  0  0  0
   -2.7115    4.4156   -2.5167 C   0  0  0  0  0  0  0  0  0  0  0  0
   -3.1197    3.2547   -3.1156 C   0  0  0  0  0  0  0  0  0  0  0  0
   -2.4595    2.1925   -2.5876 O   0  0  0  0  0  0  0  0  0  0  0  0
   -4.2406   -2.5062   -0.2976 H   0  0  0  0  0  0  0  0  0  0  0  0
   -3.9516   -1.9103   -1.9507 H   0  0  0  0  0  0  0  0  0  0  0  0
   -2.7694   -2.9636   -1.1621 H   0  0  0  0  0  0  0  0  0  0  0  0
   -2.3455   -1.2134    0.5557 H   0  0  0  0  0  0  0  0  0  0  0  0
   -4.1915    0.5601   -1.1082 H   0  0  0  0  0  0  0  0  0  0  0  0
   -3.3282    1.0232    0.3741 H   0  0  0  0  0  0  0  0  0  0  0  0
   -4.6144   -0.1813    0.4466 H   0  0  0  0  0  0  0  0  0  0  0  0
   -1.0422   -1.3529   -1.6788 H   0  0  0  0  0  0  0  0  0  0  0  0
   -2.0337   -0.0651   -2.2872 H   0  0  0  0  0  0  0  0  0  0  0  0
    2.2517   -0.2707    2.0573 H   0  0  0  0  0  0  0  0  0  0  0  0
    3.1259   -0.8455    0.6109 H   0  0  0  0  0  0  0  0  0  0  0  0
    4.9785   -0.2346    2.0430 H   0  0  0  0  0  0  0  0  0  0  0  0
    7.1352   -0.6444    3.5201 H   0  0  0  0  0  0  0  0  0  0  0  0
   -1.1662    4.6882   -0.9138 H   0  0  0  0  0  0  0  0  0  0  0  0
   -3.0587    5.4118   -2.7498 H   0  0  0  0  0  0  0  0  0  0  0  0
   -3.8242    3.0252   -3.9073 H   0  0  0  0  0  0  0  0  0  0  0  0
  1  2  1  0
  2  3  1  0
  2  4  1  0
  4  5  1  0
  5  6  1  0
  6  7  1  0
  7  8  1  0
  8  9  1  0
  9 10  2  0
  9 11  1  0
 11 12  2  0
 12 13  1  0
 13 14  2  0
 14 15  1  0
 14 16  1  0
  6 17  2  0
 17 18  1  0
 18 19  2  0
 19 20  1  0
 20 21  2  0
 21 22  1  0
 22 23  2  0
 23 24  1  0
 19  5  1  0
 24 20  1  0
 16 11  1  0
  1 25  1  0
  1 26  1  0
  1 27  1  0
  2 28  1  0
  3 29  1  0
  3 30  1  0
  3 31  1  0
  4 32  1  0
  4 33  1  0
  8 34  1  0
  8 35  1  0
 12 36  1  0
 13 37  1  0
 21 38  1  0
 22 39  1  0
 23 40  1  0
M  END
$$$$
