
     RDKit          3D

 54 56  0  0  0  0  0  0  0  0999 V2000
   -1.3747   -3.8014    0.9563 N   0  0  0  0  0  0  0  0  0  0  0  0
   -2.0105   -2.6169    0.9583 C   0  0  0  0  0  0  0  0  0  0  0  0
   -3.0769   -2.3919    1.6716 N   0  0  0  0  0  0  0  0  0  0  0  0
   -3.3975   -0.9604    1.3798 C   0  0  0  0  0  0  0  0  0  0  0  0
   -2.5850   -0.5764    0.1217 C   0  0  0  0  0  0  0  0  0  0  0  0
   -3.4363   -0.6703   -1.1592 C   0  0  0  0  0  0  0  0  0  0  0  0
   -4.4038    0.4813   -1.3114 C   0  0  0  0  0  0  0  0  0  0  0  0
   -3.9390    1.7621   -1.6423 C   0  0  0  0  0  0  0  0  0  0  0  0
   -4.8320    2.8266   -1.7738 C   0  0  0  0  0  0  0  0  0  0  0  0
   -6.1964    2.6214   -1.5786 C   0  0  0  0  0  0  0  0  0  0  0  0
   -6.6694    1.3517   -1.2542 C   0  0  0  0  0  0  0  0  0  0  0  0
   -5.7784    0.2857   -1.1225 C   0  0  0  0  0  0  0  0  0  0  0  0
   -1.5611   -1.6169    0.1609 N   0  0  0  0  0  0  0  0  0  0  0  0
   -0.4619   -1.6293   -0.7787 C   0  0  0  0  0  0  0  0  0  0  0  0
    0.8782   -1.3672   -0.0829 C   0  0  0  0  0  0  0  0  0  0  0  0
    0.9870    0.0548    0.4768 C   0  0  0  0  0  0  0  0  0  0  0  0
    2.3095    0.3279    1.2039 C   0  0  0  0  0  0  0  0  0  0  0  0
    3.5923    0.1684    0.3637 C   0  0  0  0  0  0  0  0  0  0  0  0
    4.8226    0.4549    1.2442 C   0  0  0  0  0  0  0  0  0  0  0  0
    6.1266    0.3449    0.4587 C   0  0  0  0  0  0  0  0  0  0  0  0
    6.1182    1.2487   -0.7686 C   0  0  0  0  0  0  0  0  0  0  0  0
    4.9095    0.9713   -1.6548 C   0  0  0  0  0  0  0  0  0  0  0  0
    3.5985    1.0754   -0.8773 C   0  0  0  0  0  0  0  0  0  0  0  0
   -1.7473   -4.3932    1.6917 H   0  0  0  0  0  0  0  0  0  0  0  0
   -0.3717   -3.7218    1.0339 H   0  0  0  0  0  0  0  0  0  0  0  0
   -3.0811   -0.3584    2.2400 H   0  0  0  0  0  0  0  0  0  0  0  0
   -4.4766   -0.8369    1.2570 H   0  0  0  0  0  0  0  0  0  0  0  0
   -2.1435    0.4196    0.2377 H   0  0  0  0  0  0  0  0  0  0  0  0
   -3.9777   -1.6254   -1.1902 H   0  0  0  0  0  0  0  0  0  0  0  0
   -2.7949   -0.6782   -2.0493 H   0  0  0  0  0  0  0  0  0  0  0  0
   -2.8782    1.9390   -1.8043 H   0  0  0  0  0  0  0  0  0  0  0  0
   -4.4639    3.8165   -2.0308 H   0  0  0  0  0  0  0  0  0  0  0  0
   -6.8916    3.4503   -1.6816 H   0  0  0  0  0  0  0  0  0  0  0  0
   -7.7338    1.1899   -1.1037 H   0  0  0  0  0  0  0  0  0  0  0  0
   -6.1649   -0.6995   -0.8679 H   0  0  0  0  0  0  0  0  0  0  0  0
   -0.4235   -2.5960   -1.2944 H   0  0  0  0  0  0  0  0  0  0  0  0
   -0.6039   -0.8723   -1.5587 H   0  0  0  0  0  0  0  0  0  0  0  0
    1.6706   -1.5312   -0.8217 H   0  0  0  0  0  0  0  0  0  0  0  0
    1.0408   -2.0886    0.7253 H   0  0  0  0  0  0  0  0  0  0  0  0
    0.8401    0.7854   -0.3266 H   0  0  0  0  0  0  0  0  0  0  0  0
    0.1772    0.2246    1.1965 H   0  0  0  0  0  0  0  0  0  0  0  0
    2.2683    1.3485    1.6064 H   0  0  0  0  0  0  0  0  0  0  0  0
    2.3703   -0.3404    2.0728 H   0  0  0  0  0  0  0  0  0  0  0  0
    3.6658   -0.8743    0.0290 H   0  0  0  0  0  0  0  0  0  0  0  0
    4.8507   -0.2479    2.0855 H   0  0  0  0  0  0  0  0  0  0  0  0
    4.7464    1.4619    1.6743 H   0  0  0  0  0  0  0  0  0  0  0  0
    6.2785   -0.6957    0.1466 H   0  0  0  0  0  0  0  0  0  0  0  0
    6.9700    0.6105    1.1061 H   0  0  0  0  0  0  0  0  0  0  0  0
    7.0394    1.1001   -1.3431 H   0  0  0  0  0  0  0  0  0  0  0  0
    6.1053    2.2984   -0.4502 H   0  0  0  0  0  0  0  0  0  0  0  0
    4.8972    1.6780   -2.4922 H   0  0  0  0  0  0  0  0  0  0  0  0
    4.9969   -0.0332   -2.0868 H   0  0  0  0  0  0  0  0  0  0  0  0
    2.7772    0.8078   -1.5509 H   0  0  0  0  0  0  0  0  0  0  0  0
    3.4384    2.1182   -0.5757 H   0  0  0  0  0  0  0  0  0  0  0  0
  1  2  1  0
  2  3  2  0
  3  4  1  0
  4  5  1  0
  5  6  1  0
  6  7  1  0
  7  8  2  0
  8  9  1  0
  9 10  2  0
 10 11  1  0
 11 12  2  0
  5 13  1  0
 13 14  1  0
 14 15  1  0
 15 16  1  0
 16 17  1  0
 17 18  1  0
 18 19  1  0
 19 20  1  0
 20 21  1  0
 21 22  1  0
 22 23  1  0
 13  2  1  0
 23 18  1  0
 12  7  1  0
  1 24  1  0
  1 25  1  0
  4 26  1  0
  4 27  1  0
  5 28  1  0
  6 29  1  0
  6 30  1  0
  8 31  1  0
  9 32  1  0
 10 33  1  0
 11 34  1  0
 12 35  1  0
 14 36  1  0
 14 37  1  0
 15 38  1  0
 15 39  1  0
 16 40  1  0
 16 41  1  0
 17 42  1  0
 17 43  1  0
 18 44  1  0
 19 45  1  0
 19 46  1  0
 20 47  1  0
 20 48  1  0
 21 49  1  0
 21 50  1  0
 22 51  1  0
 22 52  1  0
 23 53  1  0
 23 54  1  0
M  END
$$$$
