
     RDKit          3D

 52 55  0  0  0  0  0  0  0  0999 V2000
   -3.5592   -1.9113    0.9072 C   0  0  0  0  0  0  0  0  0  0  0  0
   -3.3137   -0.5149    1.0542 O   0  0  0  0  0  0  0  0  0  0  0  0
   -4.4220    0.2079    1.4550 C   0  0  0  0  0  0  0  0  0  0  0  0
   -5.5614   -0.4817    1.7238 N   0  0  0  0  0  0  0  0  0  0  0  0
   -6.6363    0.2274    2.1285 C   0  0  0  0  0  0  0  0  0  0  0  0
   -6.6336    1.6006    2.2835 C   0  0  0  0  0  0  0  0  0  0  0  0
   -5.4562    2.2890    2.0048 C   0  0  0  0  0  0  0  0  0  0  0  0
   -4.3146    1.5943    1.5783 C   0  0  0  0  0  0  0  0  0  0  0  0
   -3.0865    2.3928    1.2967 C   0  0  0  0  0  0  0  0  0  0  0  0
   -3.0749    3.5987    1.5304 O   0  0  0  0  0  0  0  0  0  0  0  0
   -1.9966    1.7392    0.7760 N   0  0  0  0  0  0  0  0  0  0  0  0
   -0.7261    2.4014    0.5564 C   0  0  0  0  0  0  0  0  0  0  0  0
    0.0721    2.5316    1.8742 C   0  0  0  0  0  0  0  0  0  0  0  0
    0.6761    1.1854    2.3176 C   0  0  0  0  0  0  0  0  0  0  0  0
    1.6511    0.6051    1.2735 C   0  0  0  0  0  0  0  0  0  0  0  0
    1.1053    0.7589   -0.1052 C   0  0  0  0  0  0  0  0  0  0  0  0
    0.0314    1.5731   -0.4239 C   0  0  0  0  0  0  0  0  0  0  0  0
   -0.1674    1.3857   -1.7935 C   0  0  0  0  0  0  0  0  0  0  0  0
    0.6949    0.5167   -2.3135 N   0  0  0  0  0  0  0  0  0  0  0  0
    1.5265    0.1597   -1.2875 N   0  0  0  0  0  0  0  0  0  0  0  0
    2.6255   -0.7147   -1.5652 C   0  0  0  0  0  0  0  0  0  0  0  0
    2.6906   -1.3347   -2.8274 C   0  0  0  0  0  0  0  0  0  0  0  0
    3.7303   -2.2167   -3.1534 C   0  0  0  0  0  0  0  0  0  0  0  0
    3.7861   -2.8504   -4.5120 C   0  0  0  0  0  0  0  0  0  0  0  0
    4.7407   -2.4522   -2.2175 C   0  0  0  0  0  0  0  0  0  0  0  0
    4.7149   -1.8232   -0.9681 C   0  0  0  0  0  0  0  0  0  0  0  0
    5.7942   -2.0992    0.0389 C   0  0  0  0  0  0  0  0  0  0  0  0
    3.6490   -0.9661   -0.6448 C   0  0  0  0  0  0  0  0  0  0  0  0
   -4.3245   -2.1028    0.1473 H   0  0  0  0  0  0  0  0  0  0  0  0
   -2.6291   -2.3765    0.5662 H   0  0  0  0  0  0  0  0  0  0  0  0
   -3.8276   -2.3692    1.8654 H   0  0  0  0  0  0  0  0  0  0  0  0
   -7.5290   -0.3577    2.3324 H   0  0  0  0  0  0  0  0  0  0  0  0
   -7.5235    2.1260    2.6126 H   0  0  0  0  0  0  0  0  0  0  0  0
   -5.4302    3.3711    2.1196 H   0  0  0  0  0  0  0  0  0  0  0  0
   -2.0308    0.7282    0.6852 H   0  0  0  0  0  0  0  0  0  0  0  0
   -0.9176    3.4014    0.1498 H   0  0  0  0  0  0  0  0  0  0  0  0
    0.8913    3.2483    1.7298 H   0  0  0  0  0  0  0  0  0  0  0  0
   -0.5628    2.9289    2.6745 H   0  0  0  0  0  0  0  0  0  0  0  0
    1.2015    1.3106    3.2714 H   0  0  0  0  0  0  0  0  0  0  0  0
   -0.1350    0.4679    2.4973 H   0  0  0  0  0  0  0  0  0  0  0  0
    2.6001    1.1485    1.3475 H   0  0  0  0  0  0  0  0  0  0  0  0
    1.8249   -0.4480    1.5171 H   0  0  0  0  0  0  0  0  0  0  0  0
   -0.9192    1.8287   -2.4345 H   0  0  0  0  0  0  0  0  0  0  0  0
    1.9174   -1.1448   -3.5718 H   0  0  0  0  0  0  0  0  0  0  0  0
    4.3055   -3.8138   -4.4739 H   0  0  0  0  0  0  0  0  0  0  0  0
    4.3128   -2.1926   -5.2101 H   0  0  0  0  0  0  0  0  0  0  0  0
    2.7781   -3.0410   -4.8953 H   0  0  0  0  0  0  0  0  0  0  0  0
    5.5593   -3.1248   -2.4671 H   0  0  0  0  0  0  0  0  0  0  0  0
    6.7331   -2.3700   -0.4555 H   0  0  0  0  0  0  0  0  0  0  0  0
    5.4912   -2.9210    0.6949 H   0  0  0  0  0  0  0  0  0  0  0  0
    5.9938   -1.2120    0.6488 H   0  0  0  0  0  0  0  0  0  0  0  0
    3.6802   -0.4877    0.3242 H   0  0  0  0  0  0  0  0  0  0  0  0
  1  2  1  0
  2  3  1  0
  3  4  2  0
  4  5  1  0
  5  6  2  0
  6  7  1  0
  7  8  2  0
  8  9  1  0
  9 10  2  0
  9 11  1  0
 11 12  1  0
 12 13  1  0
 13 14  1  0
 14 15  1  0
 15 16  1  0
 16 17  2  0
 17 18  1  0
 18 19  2  0
 19 20  1  0
 20 21  1  0
 21 22  2  0
 22 23  1  0
 23 24  1  0
 23 25  2  0
 25 26  1  0
 26 27  1  0
 26 28  2  0
  8  3  1  0
 17 12  1  0
 28 21  1  0
 20 16  1  0
  1 29  1  0
  1 30  1  0
  1 31  1  0
  5 32  1  0
  6 33  1  0
  7 34  1  0
 11 35  1  0
 12 36  1  0
 13 37  1  0
 13 38  1  0
 14 39  1  0
 14 40  1  0
 15 41  1  0
 15 42  1  0
 18 43  1  0
 22 44  1  0
 24 45  1  0
 24 46  1  0
 24 47  1  0
 25 48  1  0
 27 49  1  0
 27 50  1  0
 27 51  1  0
 28 52  1  0
M  END
$$$$
