
     RDKit          3D

 53 56  0  0  0  0  0  0  0  0999 V2000
    5.0018    5.0132    1.2072 C   0  0  0  0  0  0  0  0  0  0  0  0
    4.1227    4.1757    0.4674 O   0  0  0  0  0  0  0  0  0  0  0  0
    4.4257    2.8435    0.4224 C   0  0  0  0  0  0  0  0  0  0  0  0
    5.5108    2.2284    1.0379 C   0  0  0  0  0  0  0  0  0  0  0  0
    5.7017    0.8462    0.9152 C   0  0  0  0  0  0  0  0  0  0  0  0
    4.8122    0.0576    0.1730 C   0  0  0  0  0  0  0  0  0  0  0  0
    4.9348   -1.3020    0.0397 O   0  0  0  0  0  0  0  0  0  0  0  0
    5.9259   -1.9617    0.8160 C   0  0  0  0  0  0  0  0  0  0  0  0
    3.7216    0.6769   -0.4705 C   0  0  0  0  0  0  0  0  0  0  0  0
    2.7438   -0.0483   -1.2807 C   0  0  0  0  0  0  0  0  0  0  0  0
    3.0508   -1.0769   -2.1502 C   0  0  0  0  0  0  0  0  0  0  0  0
    1.6268   -1.6287   -2.9269 S   0  0  0  0  0  0  0  0  0  0  0  0
    0.7227   -0.4611   -2.0829 C   0  0  0  0  0  0  0  0  0  0  0  0
   -0.6287   -0.3056   -2.2333 N   0  0  0  0  0  0  0  0  0  0  0  0
   -1.4886   -1.0590   -3.0038 C   0  0  0  0  0  0  0  0  0  0  0  0
   -1.1814   -1.9949   -3.7387 O   0  0  0  0  0  0  0  0  0  0  0  0
   -2.9248   -0.5724   -2.9331 C   0  0  0  0  0  0  0  0  0  0  0  0
   -3.5043   -0.7326   -1.6088 N   0  0  0  0  0  0  0  0  0  0  0  0
   -4.3329   -1.7584   -1.2228 C   0  0  0  0  0  0  0  0  0  0  0  0
   -4.6573   -2.7252   -2.0708 O   0  0  0  0  0  0  0  0  0  0  0  0
   -4.6843   -1.5409    0.0928 C   0  0  0  0  0  0  0  0  0  0  0  0
   -4.0497   -0.3320    0.5109 C   0  0  0  0  0  0  0  0  0  0  0  0
   -3.3217    0.1407   -0.5597 C   0  0  0  0  0  0  0  0  0  0  0  0
   -2.5303    1.2004   -0.6892 O   0  0  0  0  0  0  0  0  0  0  0  0
   -4.1787    0.2157    1.8935 C   0  0  0  0  0  0  0  0  0  0  0  0
   -5.3570   -0.4232    2.6455 C   0  0  0  0  0  0  0  0  0  0  0  0
   -5.3953   -1.9476    2.4600 C   0  0  0  0  0  0  0  0  0  0  0  0
   -5.5746   -2.3406    0.9849 C   0  0  0  0  0  0  0  0  0  0  0  0
    1.4020    0.3144   -1.2706 N   0  0  0  0  0  0  0  0  0  0  0  0
    3.5395    2.0648   -0.3234 C   0  0  0  0  0  0  0  0  0  0  0  0
    6.0099    5.0028    0.7799 H   0  0  0  0  0  0  0  0  0  0  0  0
    4.6227    6.0375    1.1406 H   0  0  0  0  0  0  0  0  0  0  0  0
    5.0177    4.7320    2.2654 H   0  0  0  0  0  0  0  0  0  0  0  0
    6.2288    2.7909    1.6256 H   0  0  0  0  0  0  0  0  0  0  0  0
    6.5624    0.4157    1.4170 H   0  0  0  0  0  0  0  0  0  0  0  0
    5.8245   -3.0372    0.6419 H   0  0  0  0  0  0  0  0  0  0  0  0
    5.7777   -1.7830    1.8861 H   0  0  0  0  0  0  0  0  0  0  0  0
    6.9317   -1.6678    0.4993 H   0  0  0  0  0  0  0  0  0  0  0  0
    4.0103   -1.5229   -2.3668 H   0  0  0  0  0  0  0  0  0  0  0  0
   -1.0184    0.4202   -1.6379 H   0  0  0  0  0  0  0  0  0  0  0  0
   -2.9744    0.4875   -3.2065 H   0  0  0  0  0  0  0  0  0  0  0  0
   -3.5354   -1.1241   -3.6552 H   0  0  0  0  0  0  0  0  0  0  0  0
   -5.2126   -3.3623   -1.5888 H   0  0  0  0  0  0  0  0  0  0  0  0
   -2.5632    1.6828    0.1588 H   0  0  0  0  0  0  0  0  0  0  0  0
   -4.3112    1.3030    1.8642 H   0  0  0  0  0  0  0  0  0  0  0  0
   -3.2483    0.0130    2.4379 H   0  0  0  0  0  0  0  0  0  0  0  0
   -5.2843   -0.1782    3.7111 H   0  0  0  0  0  0  0  0  0  0  0  0
   -6.3000    0.0050    2.2820 H   0  0  0  0  0  0  0  0  0  0  0  0
   -4.4612   -2.3780    2.8434 H   0  0  0  0  0  0  0  0  0  0  0  0
   -6.2116   -2.3759    3.0526 H   0  0  0  0  0  0  0  0  0  0  0  0
   -6.6159   -2.1662    0.6872 H   0  0  0  0  0  0  0  0  0  0  0  0
   -5.3746   -3.4115    0.8665 H   0  0  0  0  0  0  0  0  0  0  0  0
    2.6921    2.5505   -0.8052 H   0  0  0  0  0  0  0  0  0  0  0  0
  1  2  1  0
  2  3  1  0
  3  4  2  0
  4  5  1  0
  5  6  2  0
  6  7  1  0
  7  8  1  0
  6  9  1  0
  9 10  1  0
 10 11  2  0
 11 12  1  0
 12 13  1  0
 13 14  1  0
 14 15  1  0
 15 16  2  0
 15 17  1  0
 17 18  1  0
 18 19  1  0
 19 20  1  0
 19 21  2  0
 21 22  1  0
 22 23  2  0
 23 24  1  0
 22 25  1  0
 25 26  1  0
 26 27  1  0
 27 28  1  0
 13 29  2  0
  9 30  2  0
 30  3  1  0
 29 10  1  0
 23 18  1  0
 28 21  1  0
  1 31  1  0
  1 32  1  0
  1 33  1  0
  4 34  1  0
  5 35  1  0
  8 36  1  0
  8 37  1  0
  8 38  1  0
 11 39  1  0
 14 40  1  0
 17 41  1  0
 17 42  1  0
 20 43  1  0
 24 44  1  0
 25 45  1  0
 25 46  1  0
 26 47  1  0
 26 48  1  0
 27 49  1  0
 27 50  1  0
 28 51  1  0
 28 52  1  0
 30 53  1  0
M  END
$$$$
