
     RDKit          3D

 69 72  0  0  0  0  0  0  0  0999 V2000
  -11.2277    2.0902    0.9846 C   0  0  0  0  0  0  0  0  0  0  0  0
   -9.8160    1.7672    0.5947 C   0  0  0  0  0  0  0  0  0  0  0  0
   -9.1138    2.5969   -0.2866 C   0  0  0  0  0  0  0  0  0  0  0  0
   -7.7847    2.3180   -0.6286 C   0  0  0  0  0  0  0  0  0  0  0  0
   -7.1374    1.1995   -0.0931 C   0  0  0  0  0  0  0  0  0  0  0  0
   -5.7805    0.8807   -0.4065 N   0  0  0  0  0  0  0  0  0  0  0  0
   -5.0904    0.0686    0.4392 N   0  0  0  0  0  0  0  0  0  0  0  0
   -3.8225    0.1357    0.0263 C   0  0  0  0  0  0  0  0  0  0  0  0
   -2.6721   -0.5037    0.6527 C   0  0  0  0  0  0  0  0  0  0  0  0
   -2.7393   -1.1849    1.6744 O   0  0  0  0  0  0  0  0  0  0  0  0
   -1.4697   -0.2601   -0.0438 N   0  0  0  0  0  0  0  0  0  0  0  0
   -0.2336   -0.8665    0.4406 C   0  0  0  0  0  0  0  0  0  0  0  0
   -0.0706   -2.2968   -0.0786 C   0  0  0  0  0  0  0  0  0  0  0  0
    1.1157   -3.0153    0.5597 C   0  0  0  0  0  0  0  0  0  0  0  0
    2.4615   -2.4848    0.1047 C   0  0  0  0  0  0  0  0  0  0  0  0
    2.6020   -1.6529   -0.7844 O   0  0  0  0  0  0  0  0  0  0  0  0
    3.5174   -3.0443    0.7902 N   0  0  0  0  0  0  0  0  0  0  0  0
    4.8917   -2.6511    0.5272 C   0  0  0  0  0  0  0  0  0  0  0  0
    5.2343   -1.2745    1.1285 C   0  0  0  0  0  0  0  0  0  0  0  0
    6.6644   -0.9386    1.0555 N   0  0  0  0  0  0  0  0  0  0  0  0
    6.9675    0.2392    1.9011 C   0  0  0  0  0  0  0  0  0  0  0  0
    8.2558    1.0208    1.5223 C   0  0  0  0  0  0  0  0  0  0  0  0
    9.2410    0.1841    0.8308 N   0  0  0  0  0  0  0  0  0  0  0  0
   10.4733    0.9062    0.5431 C   0  0  0  0  0  0  0  0  0  0  0  0
    8.6560   -0.3996   -0.3912 C   0  0  0  0  0  0  0  0  0  0  0  0
    7.1313   -0.6960   -0.3174 C   0  0  0  0  0  0  0  0  0  0  0  0
   -1.3588    0.4820   -1.2243 N   0  0  0  0  0  0  0  0  0  0  0  0
   -2.4009    1.0466   -1.7660 C   0  0  0  0  0  0  0  0  0  0  0  0
   -2.2068    1.8458   -3.0233 C   0  0  0  0  0  0  0  0  0  0  0  0
   -3.6943    0.8843   -1.1487 C   0  0  0  0  0  0  0  0  0  0  0  0
   -4.9789    1.2789   -1.4831 C   0  0  0  0  0  0  0  0  0  0  0  0
   -5.4858    1.9219   -2.7234 C   0  0  0  0  0  0  0  0  0  0  0  0
   -7.8301    0.3922    0.8250 C   0  0  0  0  0  0  0  0  0  0  0  0
   -9.1577    0.6723    1.1620 C   0  0  0  0  0  0  0  0  0  0  0  0
  -11.2332    2.7473    1.8603 H   0  0  0  0  0  0  0  0  0  0  0  0
  -11.7546    2.5871    0.1637 H   0  0  0  0  0  0  0  0  0  0  0  0
  -11.7853    1.1786    1.2232 H   0  0  0  0  0  0  0  0  0  0  0  0
   -9.5947    3.4796   -0.7044 H   0  0  0  0  0  0  0  0  0  0  0  0
   -7.2775    3.0288   -1.2710 H   0  0  0  0  0  0  0  0  0  0  0  0
    0.6048   -0.2321    0.1331 H   0  0  0  0  0  0  0  0  0  0  0  0
   -0.2541   -0.8666    1.5367 H   0  0  0  0  0  0  0  0  0  0  0  0
   -0.9788   -2.8703    0.1441 H   0  0  0  0  0  0  0  0  0  0  0  0
    0.0275   -2.2857   -1.1706 H   0  0  0  0  0  0  0  0  0  0  0  0
    1.0753   -4.0766    0.2858 H   0  0  0  0  0  0  0  0  0  0  0  0
    1.0541   -2.9477    1.6521 H   0  0  0  0  0  0  0  0  0  0  0  0
    3.3355   -3.6493    1.5811 H   0  0  0  0  0  0  0  0  0  0  0  0
    5.5306   -3.4282    0.9613 H   0  0  0  0  0  0  0  0  0  0  0  0
    5.0379   -2.6510   -0.5579 H   0  0  0  0  0  0  0  0  0  0  0  0
    4.6267   -0.4926    0.6550 H   0  0  0  0  0  0  0  0  0  0  0  0
    4.9333   -1.2994    2.1847 H   0  0  0  0  0  0  0  0  0  0  0  0
    6.1353    0.9569    1.8836 H   0  0  0  0  0  0  0  0  0  0  0  0
    7.0653   -0.1157    2.9356 H   0  0  0  0  0  0  0  0  0  0  0  0
    7.9785    1.8708    0.8835 H   0  0  0  0  0  0  0  0  0  0  0  0
    8.6870    1.4351    2.4416 H   0  0  0  0  0  0  0  0  0  0  0  0
   10.3047    1.7687   -0.1125 H   0  0  0  0  0  0  0  0  0  0  0  0
   10.9345    1.2649    1.4702 H   0  0  0  0  0  0  0  0  0  0  0  0
   11.2030    0.2450    0.0619 H   0  0  0  0  0  0  0  0  0  0  0  0
    9.1862   -1.3391   -0.5915 H   0  0  0  0  0  0  0  0  0  0  0  0
    8.8204    0.2535   -1.2592 H   0  0  0  0  0  0  0  0  0  0  0  0
    6.9347   -1.5604   -0.9601 H   0  0  0  0  0  0  0  0  0  0  0  0
    6.5845    0.1552   -0.7457 H   0  0  0  0  0  0  0  0  0  0  0  0
   -2.6065    1.2886   -3.8750 H   0  0  0  0  0  0  0  0  0  0  0  0
   -1.1419    2.0280   -3.1973 H   0  0  0  0  0  0  0  0  0  0  0  0
   -2.7157    2.8098   -2.9425 H   0  0  0  0  0  0  0  0  0  0  0  0
   -6.5176    1.6342   -2.9477 H   0  0  0  0  0  0  0  0  0  0  0  0
   -5.4186    3.0113   -2.6527 H   0  0  0  0  0  0  0  0  0  0  0  0
   -4.9015    1.6045   -3.5911 H   0  0  0  0  0  0  0  0  0  0  0  0
   -7.3501   -0.4716    1.2838 H   0  0  0  0  0  0  0  0  0  0  0  0
   -9.6702    0.0278    1.8742 H   0  0  0  0  0  0  0  0  0  0  0  0
  1  2  1  0
  2  3  2  0
  3  4  1  0
  4  5  2  0
  5  6  1  0
  6  7  1  0
  7  8  2  0
  8  9  1  0
  9 10  2  0
  9 11  1  0
 11 12  1  0
 12 13  1  0
 13 14  1  0
 14 15  1  0
 15 16  2  0
 15 17  1  0
 17 18  1  0
 18 19  1  0
 19 20  1  0
 20 21  1  0
 21 22  1  0
 22 23  1  0
 23 24  1  0
 23 25  1  0
 25 26  1  0
 11 27  1  0
 27 28  2  0
 28 29  1  0
 28 30  1  0
 30 31  2  0
 31 32  1  0
  5 33  1  0
 33 34  2  0
 34  2  1  0
 31  6  1  0
 30  8  1  0
 26 20  1  0
  1 35  1  0
  1 36  1  0
  1 37  1  0
  3 38  1  0
  4 39  1  0
 12 40  1  0
 12 41  1  0
 13 42  1  0
 13 43  1  0
 14 44  1  0
 14 45  1  0
 17 46  1  0
 18 47  1  0
 18 48  1  0
 19 49  1  0
 19 50  1  0
 21 51  1  0
 21 52  1  0
 22 53  1  0
 22 54  1  0
 24 55  1  0
 24 56  1  0
 24 57  1  0
 25 58  1  0
 25 59  1  0
 26 60  1  0
 26 61  1  0
 29 62  1  0
 29 63  1  0
 29 64  1  0
 32 65  1  0
 32 66  1  0
 32 67  1  0
 33 68  1  0
 34 69  1  0
M  END
$$$$
