
     RDKit          3D

 37 39  0  0  0  0  0  0  0  0999 V2000
    0.2191   -2.8205   -2.2935 C   0  0  0  0  0  0  0  0  0  0  0  0
   -0.9274   -2.2922   -2.9491 O   0  0  0  0  0  0  0  0  0  0  0  0
   -1.4143   -1.0865   -2.4506 C   0  0  0  0  0  0  0  0  0  0  0  0
   -2.5026   -0.5869   -3.1767 C   0  0  0  0  0  0  0  0  0  0  0  0
   -3.1185    0.6099   -2.8210 C   0  0  0  0  0  0  0  0  0  0  0  0
   -2.6687    1.3557   -1.7259 C   0  0  0  0  0  0  0  0  0  0  0  0
   -3.2163    2.5395   -1.3063 O   0  0  0  0  0  0  0  0  0  0  0  0
   -4.1838    3.1473   -2.1516 C   0  0  0  0  0  0  0  0  0  0  0  0
   -1.5761    0.8382   -0.9938 C   0  0  0  0  0  0  0  0  0  0  0  0
   -0.8013    1.5117    0.3907 S   0  0  0  0  0  0  0  0  0  0  0  0
    0.2889    0.1787    0.4770 C   0  0  0  0  0  0  0  0  0  0  0  0
    1.2589    0.0496    1.4309 N   0  0  0  0  0  0  0  0  0  0  0  0
    1.2996    0.8863    2.6275 C   0  0  0  0  0  0  0  0  0  0  0  0
    1.9614    0.1458    3.7879 C   0  0  0  0  0  0  0  0  0  0  0  0
    3.3746   -0.3171    3.4454 C   0  0  0  0  0  0  0  0  0  0  0  0
    3.5413   -0.6654    1.9677 C   0  0  0  0  0  0  0  0  0  0  0  0
    2.2191   -1.0471    1.3079 C   0  0  0  0  0  0  0  0  0  0  0  0
    0.1107   -0.7022   -0.4809 N   0  0  0  0  0  0  0  0  0  0  0  0
   -0.9407   -0.3605   -1.3251 C   0  0  0  0  0  0  0  0  0  0  0  0
    1.0653   -2.1281   -2.3490 H   0  0  0  0  0  0  0  0  0  0  0  0
    0.5120   -3.7321   -2.8244 H   0  0  0  0  0  0  0  0  0  0  0  0
   -0.0136   -3.1060   -1.2632 H   0  0  0  0  0  0  0  0  0  0  0  0
   -2.8726   -1.1489   -4.0315 H   0  0  0  0  0  0  0  0  0  0  0  0
   -3.9624    0.9356   -3.4202 H   0  0  0  0  0  0  0  0  0  0  0  0
   -4.4534    4.1122   -1.7101 H   0  0  0  0  0  0  0  0  0  0  0  0
   -5.0942    2.5409   -2.2068 H   0  0  0  0  0  0  0  0  0  0  0  0
   -3.7745    3.3402   -3.1489 H   0  0  0  0  0  0  0  0  0  0  0  0
    1.8497    1.8089    2.4085 H   0  0  0  0  0  0  0  0  0  0  0  0
    0.2932    1.1677    2.9570 H   0  0  0  0  0  0  0  0  0  0  0  0
    1.9859    0.7812    4.6808 H   0  0  0  0  0  0  0  0  0  0  0  0
    1.3527   -0.7309    4.0453 H   0  0  0  0  0  0  0  0  0  0  0  0
    3.6234   -1.1854    4.0658 H   0  0  0  0  0  0  0  0  0  0  0  0
    4.0972    0.4645    3.7094 H   0  0  0  0  0  0  0  0  0  0  0  0
    3.9622    0.2046    1.4456 H   0  0  0  0  0  0  0  0  0  0  0  0
    4.2706   -1.4759    1.8566 H   0  0  0  0  0  0  0  0  0  0  0  0
    2.4272   -1.2792    0.2558 H   0  0  0  0  0  0  0  0  0  0  0  0
    1.8074   -1.9537    1.7687 H   0  0  0  0  0  0  0  0  0  0  0  0
  1  2  1  0
  2  3  1  0
  3  4  2  0
  4  5  1  0
  5  6  2  0
  6  7  1  0
  7  8  1  0
  6  9  1  0
  9 10  1  0
 10 11  1  0
 11 12  1  0
 12 13  1  0
 13 14  1  0
 14 15  1  0
 15 16  1  0
 16 17  1  0
 11 18  2  0
 18 19  1  0
 19  3  1  0
 19  9  2  0
 17 12  1  0
  1 20  1  0
  1 21  1  0
  1 22  1  0
  4 23  1  0
  5 24  1  0
  8 25  1  0
  8 26  1  0
  8 27  1  0
 13 28  1  0
 13 29  1  0
 14 30  1  0
 14 31  1  0
 15 32  1  0
 15 33  1  0
 16 34  1  0
 16 35  1  0
 17 36  1  0
 17 37  1  0
M  END
$$$$
