
     RDKit          3D

 56 61  0  0  0  0  0  0  0  0999 V2000
    5.7331   -2.9750   -1.4206 C   0  0  0  0  0  0  0  0  0  0  0  0
    4.8036   -2.5116   -0.4482 O   0  0  0  0  0  0  0  0  0  0  0  0
    3.8058   -1.6886   -0.8927 C   0  0  0  0  0  0  0  0  0  0  0  0
    3.6278   -1.2450   -2.2012 C   0  0  0  0  0  0  0  0  0  0  0  0
    2.5580   -0.4044   -2.5152 C   0  0  0  0  0  0  0  0  0  0  0  0
    1.6622   -0.0019   -1.5243 C   0  0  0  0  0  0  0  0  0  0  0  0
    1.8218   -0.4339   -0.1968 C   0  0  0  0  0  0  0  0  0  0  0  0
    0.8597   -0.0184    0.9148 C   0  0  0  0  0  0  0  0  0  0  0  0
   -0.3754   -0.8065    0.6522 C   0  0  0  0  0  0  0  0  0  0  0  0
   -0.7075   -2.1705    0.7118 C   0  0  0  0  0  0  0  0  0  0  0  0
    0.1570   -3.3243    1.0605 C   0  0  0  0  0  0  0  0  0  0  0  0
   -1.9897   -2.3732    0.3937 N   0  0  0  0  0  0  0  0  0  0  0  0
   -2.5054   -1.1329    0.1233 N   0  0  0  0  0  0  0  0  0  0  0  0
   -3.8756   -1.0100   -0.2696 C   0  0  0  0  0  0  0  0  0  0  0  0
   -4.4565    0.2307   -0.5690 C   0  0  0  0  0  0  0  0  0  0  0  0
   -5.8019    0.3122   -0.9516 C   0  0  0  0  0  0  0  0  0  0  0  0
   -6.5731   -0.8524   -1.0369 C   0  0  0  0  0  0  0  0  0  0  0  0
   -7.9826   -0.7670   -1.4380 N   0  0  0  0  0  4  0  0  0  0  0  0
   -8.6303   -1.8223   -1.4987 O   0  0  0  0  0  0  0  0  0  0  0  0
   -8.4443    0.3546   -1.6931 O   0  0  0  0  0  1  0  0  0  0  0  0
   -6.0089   -2.0979   -0.7430 C   0  0  0  0  0  0  0  0  0  0  0  0
   -4.6651   -2.1724   -0.3616 C   0  0  0  0  0  0  0  0  0  0  0  0
   -1.5335   -0.1525    0.3013 C   0  0  0  0  0  0  0  0  0  0  0  0
   -1.6831    1.1890    0.1672 N   0  0  0  0  0  0  0  0  0  0  0  0
   -0.6350    1.9102    0.4806 C   0  0  0  0  0  0  0  0  0  0  0  0
   -0.8512    3.4365    0.3403 C   0  0  0  0  0  0  0  0  0  0  0  0
   -1.8811    3.9076   -0.1222 O   0  0  0  0  0  0  0  0  0  0  0  0
    0.1807    4.2279    0.7682 N   0  0  0  0  0  0  0  0  0  0  0  0
    1.3817    3.7323    1.2826 C   0  0  0  0  0  0  0  0  0  0  0  0
    2.3374    4.6645    1.7049 C   0  0  0  0  0  0  0  0  0  0  0  0
    3.5498    4.2289    2.2271 C   0  0  0  0  0  0  0  0  0  0  0  0
    3.8014    2.8665    2.3266 C   0  0  0  0  0  0  0  0  0  0  0  0
    2.8431    1.9374    1.9016 C   0  0  0  0  0  0  0  0  0  0  0  0
    1.6099    2.3412    1.3621 C   0  0  0  0  0  0  0  0  0  0  0  0
    0.6192    1.4420    0.9173 N   0  0  0  0  0  0  0  0  0  0  0  0
    2.9060   -1.2822    0.0976 C   0  0  0  0  0  0  0  0  0  0  0  0
    6.4528   -3.6236   -0.9120 H   0  0  0  0  0  0  0  0  0  0  0  0
    6.2897   -2.1419   -1.8623 H   0  0  0  0  0  0  0  0  0  0  0  0
    5.2339   -3.5715   -2.1914 H   0  0  0  0  0  0  0  0  0  0  0  0
    4.3001   -1.5342   -3.0021 H   0  0  0  0  0  0  0  0  0  0  0  0
    2.4192   -0.0632   -3.5386 H   0  0  0  0  0  0  0  0  0  0  0  0
    0.8329    0.6473   -1.7997 H   0  0  0  0  0  0  0  0  0  0  0  0
    1.2385   -0.3265    1.8980 H   0  0  0  0  0  0  0  0  0  0  0  0
    0.8560   -3.0594    1.8599 H   0  0  0  0  0  0  0  0  0  0  0  0
   -0.4371   -4.1758    1.4087 H   0  0  0  0  0  0  0  0  0  0  0  0
    0.7325   -3.6451    0.1866 H   0  0  0  0  0  0  0  0  0  0  0  0
   -3.8970    1.1608   -0.5192 H   0  0  0  0  0  0  0  0  0  0  0  0
   -6.2242    1.2897   -1.1775 H   0  0  0  0  0  0  0  0  0  0  0  0
   -6.5919   -3.0145   -0.8042 H   0  0  0  0  0  0  0  0  0  0  0  0
   -4.2442   -3.1521   -0.1373 H   0  0  0  0  0  0  0  0  0  0  0  0
    0.0244    5.2234    0.6913 H   0  0  0  0  0  0  0  0  0  0  0  0
    2.1462    5.7319    1.6322 H   0  0  0  0  0  0  0  0  0  0  0  0
    4.2950    4.9487    2.5560 H   0  0  0  0  0  0  0  0  0  0  0  0
    4.7478    2.5183    2.7350 H   0  0  0  0  0  0  0  0  0  0  0  0
    3.1059    0.8909    2.0125 H   0  0  0  0  0  0  0  0  0  0  0  0
    3.0614   -1.6417    1.1132 H   0  0  0  0  0  0  0  0  0  0  0  0
  1  2  1  0
  2  3  1  0
  3  4  2  0
  4  5  1  0
  5  6  2  0
  6  7  1  0
  7  8  1  0
  8  9  1  0
  9 10  1  0
 10 11  1  0
 10 12  2  0
 12 13  1  0
 13 14  1  0
 14 15  2  0
 15 16  1  0
 16 17  2  0
 17 18  1  0
 18 19  2  0
 18 20  1  0
 17 21  1  0
 21 22  2  0
 13 23  1  0
 23 24  1  0
 24 25  2  0
 25 26  1  0
 26 27  2  0
 26 28  1  0
 28 29  1  0
 29 30  2  0
 30 31  1  0
 31 32  2  0
 32 33  1  0
 33 34  2  0
 34 35  1  0
  7 36  2  0
 36  3  1  0
 35  8  1  0
 23  9  2  0
 35 25  1  0
 22 14  1  0
 34 29  1  0
  1 37  1  0
  1 38  1  0
  1 39  1  0
  4 40  1  0
  5 41  1  0
  6 42  1  0
  8 43  1  0
 11 44  1  0
 11 45  1  0
 11 46  1  0
 15 47  1  0
 16 48  1  0
 21 49  1  0
 22 50  1  0
 28 51  1  0
 30 52  1  0
 31 53  1  0
 32 54  1  0
 33 55  1  0
 36 56  1  0
M  CHG  2  18   1  20  -1
M  END
$$$$
