
     RDKit          3D

 45 48  0  0  0  0  0  0  0  0999 V2000
    6.3758   -1.5144    2.0665 C   0  0  0  0  0  0  0  0  0  0  0  0
    5.4408   -0.4782    2.3374 O   0  0  0  0  0  0  0  0  0  0  0  0
    4.5740   -0.1498    1.3320 C   0  0  0  0  0  0  0  0  0  0  0  0
    4.5159   -0.7420    0.0711 C   0  0  0  0  0  0  0  0  0  0  0  0
    3.5737   -0.3076   -0.8687 C   0  0  0  0  0  0  0  0  0  0  0  0
    2.6791    0.7274   -0.5631 C   0  0  0  0  0  0  0  0  0  0  0  0
    1.6451    1.1795   -1.5732 C   0  0  0  0  0  0  0  0  0  0  0  0
    0.3912    0.4533   -1.4309 N   0  0  0  0  0  0  0  0  0  0  0  0
    0.2660   -0.7390   -2.1441 C   0  0  0  0  0  0  0  0  0  0  0  0
    1.1029   -1.1881   -2.9207 O   0  0  0  0  0  0  0  0  0  0  0  0
   -0.9532   -1.4104   -1.8832 C   0  0  0  0  0  0  0  0  0  0  0  0
   -1.3917   -2.6237   -2.3270 N   0  0  0  0  0  0  0  0  0  0  0  0
   -2.6091   -2.8390   -1.7415 C   0  0  0  0  0  0  0  0  0  0  0  0
   -2.9605   -1.8296   -0.9725 N   0  0  0  0  0  0  0  0  0  0  0  0
   -1.9365   -0.9272   -1.0728 C   0  0  0  0  0  0  0  0  0  0  0  0
   -1.7990    0.2984   -0.4472 N   0  0  0  0  0  0  0  0  0  0  0  0
   -2.8271    0.7146    0.4514 C   0  0  0  0  0  0  0  0  0  0  0  0
   -2.4626    1.0557    1.7683 C   0  0  0  0  0  0  0  0  0  0  0  0
   -3.4183    1.4357    2.7120 C   0  0  0  0  0  0  0  0  0  0  0  0
   -4.7588    1.4895    2.3544 C   0  0  0  0  0  0  0  0  0  0  0  0
   -5.1389    1.1867    1.0483 C   0  0  0  0  0  0  0  0  0  0  0  0
   -4.1857    0.8222    0.0768 C   0  0  0  0  0  0  0  0  0  0  0  0
   -4.6865    0.6054   -1.3261 C   0  0  0  0  0  0  0  0  0  0  0  0
   -0.5931    1.0115   -0.5815 C   0  0  0  0  0  0  0  0  0  0  0  0
   -0.3941    2.0969   -0.0243 O   0  0  0  0  0  0  0  0  0  0  0  0
    2.7398    1.3135    0.7070 C   0  0  0  0  0  0  0  0  0  0  0  0
    3.6811    0.8775    1.6427 C   0  0  0  0  0  0  0  0  0  0  0  0
    7.0419   -1.2400    1.2418 H   0  0  0  0  0  0  0  0  0  0  0  0
    5.8667   -2.4629    1.8656 H   0  0  0  0  0  0  0  0  0  0  0  0
    6.9921   -1.6507    2.9604 H   0  0  0  0  0  0  0  0  0  0  0  0
    5.1861   -1.5454   -0.2153 H   0  0  0  0  0  0  0  0  0  0  0  0
    3.5435   -0.7887   -1.8452 H   0  0  0  0  0  0  0  0  0  0  0  0
    1.4790    2.2586   -1.4682 H   0  0  0  0  0  0  0  0  0  0  0  0
    2.0428    1.0417   -2.5866 H   0  0  0  0  0  0  0  0  0  0  0  0
   -0.8940   -3.2502   -2.9469 H   0  0  0  0  0  0  0  0  0  0  0  0
   -3.1845   -3.7406   -1.9073 H   0  0  0  0  0  0  0  0  0  0  0  0
   -1.4228    1.0009    2.0834 H   0  0  0  0  0  0  0  0  0  0  0  0
   -3.1120    1.6805    3.7253 H   0  0  0  0  0  0  0  0  0  0  0  0
   -5.5082    1.7775    3.0867 H   0  0  0  0  0  0  0  0  0  0  0  0
   -6.1912    1.2536    0.7790 H   0  0  0  0  0  0  0  0  0  0  0  0
   -3.9055    0.7768   -2.0725 H   0  0  0  0  0  0  0  0  0  0  0  0
   -5.4866    1.3182   -1.5576 H   0  0  0  0  0  0  0  0  0  0  0  0
   -5.0887   -0.4053   -1.4387 H   0  0  0  0  0  0  0  0  0  0  0  0
    2.0542    2.1140    0.9806 H   0  0  0  0  0  0  0  0  0  0  0  0
    3.7169    1.3433    2.6246 H   0  0  0  0  0  0  0  0  0  0  0  0
  1  2  1  0
  2  3  1  0
  3  4  2  0
  4  5  1  0
  5  6  2  0
  6  7  1  0
  7  8  1  0
  8  9  1  0
  9 10  2  0
  9 11  1  0
 11 12  1  0
 12 13  1  0
 13 14  2  0
 14 15  1  0
 15 16  1  0
 16 17  1  0
 17 18  2  0
 18 19  1  0
 19 20  2  0
 20 21  1  0
 21 22  2  0
 22 23  1  0
 16 24  1  0
 24 25  2  0
  6 26  1  0
 26 27  2  0
 27  3  1  0
 24  8  1  0
 15 11  2  0
 22 17  1  0
  1 28  1  0
  1 29  1  0
  1 30  1  0
  4 31  1  0
  5 32  1  0
  7 33  1  0
  7 34  1  0
 12 35  1  0
 13 36  1  0
 18 37  1  0
 19 38  1  0
 20 39  1  0
 21 40  1  0
 23 41  1  0
 23 42  1  0
 23 43  1  0
 26 44  1  0
 27 45  1  0
M  END
$$$$
