
     RDKit          3D

 54 56  0  0  0  0  0  0  0  0999 V2000
   -5.9268    1.0933    2.3941 C   0  0  0  0  0  0  0  0  0  0  0  0
   -4.9324    0.2558    1.5853 C   0  0  0  0  0  0  0  0  0  0  0  0
   -5.6379   -0.9751    1.0146 C   0  0  0  0  0  0  0  0  0  0  0  0
   -4.2910    1.1277    0.4873 C   0  0  0  0  0  0  0  0  0  0  0  0
   -3.2247    0.4270   -0.3729 C   0  0  0  0  0  0  0  0  0  0  0  0
   -2.1456   -0.2142    0.3960 N   0  0  0  0  0  0  0  0  0  0  0  0
   -1.2926    0.7299    1.1304 C   0  0  0  0  0  0  0  0  0  0  0  0
   -0.3532    1.5432    0.2402 C   0  0  0  0  0  0  0  0  0  0  0  0
    0.4990    0.6066   -0.6328 C   0  0  0  0  0  0  0  0  0  0  0  0
    1.3933    1.3441   -1.5216 N   0  0  0  0  0  0  0  0  0  0  0  0
    0.8355    2.2811   -2.3326 N   0  0  0  0  0  0  0  0  0  0  0  0
    1.8694    2.9848   -2.7850 C   0  0  0  0  0  0  0  0  0  0  0  0
    3.0922    2.5030   -2.2999 C   0  0  0  0  0  0  0  0  0  0  0  0
    2.7775    1.3921   -1.5424 C   0  0  0  0  0  0  0  0  0  0  0  0
    3.6996    0.5704   -0.9106 N   0  0  0  0  0  0  0  0  0  0  0  0
    3.5045   -0.7798   -0.6659 C   0  0  0  0  0  0  0  0  0  0  0  0
    2.5305   -1.4376   -1.0130 O   0  0  0  0  0  0  0  0  0  0  0  0
    4.6900   -1.4125    0.0398 C   0  0  0  0  0  0  0  0  0  0  0  0
    4.4925   -2.8722    0.3925 C   0  0  0  0  0  0  0  0  0  0  0  0
    5.4743   -3.0616    1.5254 C   0  0  0  0  0  0  0  0  0  0  0  0
    5.5368   -1.8129    2.2258 O   0  0  0  0  0  0  0  0  0  0  0  0
    4.9385   -0.7998    1.4057 C   0  0  0  0  0  0  0  0  0  0  0  0
   -0.4003   -0.3620   -1.4077 C   0  0  0  0  0  0  0  0  0  0  0  0
   -1.3310   -1.1029   -0.4495 C   0  0  0  0  0  0  0  0  0  0  0  0
   -6.7435    1.4606    1.7633 H   0  0  0  0  0  0  0  0  0  0  0  0
   -6.3649    0.5017    3.2050 H   0  0  0  0  0  0  0  0  0  0  0  0
   -5.4300    1.9589    2.8450 H   0  0  0  0  0  0  0  0  0  0  0  0
   -4.1524   -0.0856    2.2765 H   0  0  0  0  0  0  0  0  0  0  0  0
   -4.9276   -1.6555    0.5353 H   0  0  0  0  0  0  0  0  0  0  0  0
   -6.1395   -1.5381    1.8092 H   0  0  0  0  0  0  0  0  0  0  0  0
   -6.3931   -0.6918    0.2736 H   0  0  0  0  0  0  0  0  0  0  0  0
   -3.8565    2.0248    0.9453 H   0  0  0  0  0  0  0  0  0  0  0  0
   -5.0783    1.4926   -0.1859 H   0  0  0  0  0  0  0  0  0  0  0  0
   -2.8280    1.1540   -1.0912 H   0  0  0  0  0  0  0  0  0  0  0  0
   -3.7387   -0.3334   -0.9742 H   0  0  0  0  0  0  0  0  0  0  0  0
   -1.8909    1.4050    1.7512 H   0  0  0  0  0  0  0  0  0  0  0  0
   -0.6893    0.1555    1.8463 H   0  0  0  0  0  0  0  0  0  0  0  0
   -0.9347    2.2403   -0.3749 H   0  0  0  0  0  0  0  0  0  0  0  0
    0.3008    2.1608    0.8687 H   0  0  0  0  0  0  0  0  0  0  0  0
    1.1257    0.0463    0.0657 H   0  0  0  0  0  0  0  0  0  0  0  0
    1.6857    3.8204   -3.4480 H   0  0  0  0  0  0  0  0  0  0  0  0
    4.0774    2.8870   -2.5200 H   0  0  0  0  0  0  0  0  0  0  0  0
    4.6620    0.8895   -0.9435 H   0  0  0  0  0  0  0  0  0  0  0  0
    5.5804   -1.3104   -0.5936 H   0  0  0  0  0  0  0  0  0  0  0  0
    4.6773   -3.5512   -0.4450 H   0  0  0  0  0  0  0  0  0  0  0  0
    3.4729   -3.0559    0.7533 H   0  0  0  0  0  0  0  0  0  0  0  0
    5.1762   -3.8572    2.2138 H   0  0  0  0  0  0  0  0  0  0  0  0
    6.4778   -3.2841    1.1472 H   0  0  0  0  0  0  0  0  0  0  0  0
    5.6132    0.0606    1.3554 H   0  0  0  0  0  0  0  0  0  0  0  0
    4.0126   -0.4755    1.8943 H   0  0  0  0  0  0  0  0  0  0  0  0
   -0.9891    0.1759   -2.1613 H   0  0  0  0  0  0  0  0  0  0  0  0
    0.2029   -1.0884   -1.9638 H   0  0  0  0  0  0  0  0  0  0  0  0
   -0.7303   -1.7474    0.2058 H   0  0  0  0  0  0  0  0  0  0  0  0
   -1.9762   -1.7877   -1.0135 H   0  0  0  0  0  0  0  0  0  0  0  0
  1  2  1  0
  2  3  1  0
  2  4  1  0
  4  5  1  0
  5  6  1  0
  6  7  1  0
  7  8  1  0
  8  9  1  0
  9 10  1  0
 10 11  1  0
 11 12  2  0
 12 13  1  0
 13 14  2  0
 14 15  1  0
 15 16  1  0
 16 17  2  0
 16 18  1  0
 18 19  1  0
 19 20  1  0
 20 21  1  0
 21 22  1  0
  9 23  1  0
 23 24  1  0
 24  6  1  0
 14 10  1  0
 22 18  1  0
  1 25  1  0
  1 26  1  0
  1 27  1  0
  2 28  1  0
  3 29  1  0
  3 30  1  0
  3 31  1  0
  4 32  1  0
  4 33  1  0
  5 34  1  0
  5 35  1  0
  7 36  1  0
  7 37  1  0
  8 38  1  0
  8 39  1  0
  9 40  1  0
 12 41  1  0
 13 42  1  0
 15 43  1  0
 18 44  1  0
 19 45  1  0
 19 46  1  0
 20 47  1  0
 20 48  1  0
 22 49  1  0
 22 50  1  0
 23 51  1  0
 23 52  1  0
 24 53  1  0
 24 54  1  0
M  END
$$$$
