
     RDKit          3D

 44 45  0  0  0  0  0  0  0  0999 V2000
    2.7396   -1.9464   -4.2472 C   0  0  0  0  0  0  0  0  0  0  0  0
    2.4783   -0.4623   -4.4530 C   0  0  0  0  0  0  0  0  0  0  0  0
    1.7771    0.2027   -3.2670 C   0  0  0  0  0  0  0  0  0  0  0  0
    2.6403    0.2495   -2.0022 C   0  0  0  0  0  0  0  0  0  0  0  0
    1.9394    0.9733   -0.9203 N   0  0  0  0  0  0  0  0  0  0  0  0
    2.1017    2.4325   -0.9841 C   0  0  0  0  0  0  0  0  0  0  0  0
    0.9449    0.3657   -0.1219 C   0  0  0  0  0  0  0  0  0  0  0  0
   -0.0114    1.0554    0.5379 C   0  0  0  0  0  0  0  0  0  0  0  0
   -1.0744    0.4545    1.3312 C   0  0  0  0  0  0  0  0  0  0  0  0
   -1.9028    1.2178    2.0696 C   0  0  0  0  0  0  0  0  0  0  0  0
   -3.0068    0.6828    2.8755 C   0  0  0  0  0  0  0  0  0  0  0  0
   -3.7449    1.4486    3.7196 C   0  0  0  0  0  0  0  0  0  0  0  0
   -3.4924    2.8403    3.9050 C   0  0  0  0  0  0  0  0  0  0  0  0
   -3.2802    3.9728    4.0456 N   0  0  0  0  0  0  0  0  0  0  0  0
   -4.8300    0.9005    4.4655 C   0  0  0  0  0  0  0  0  0  0  0  0
   -5.7115    0.4421    5.0653 N   0  0  0  0  0  0  0  0  0  0  0  0
   -3.2680   -0.8055    2.6759 C   0  0  0  0  0  0  0  0  0  0  0  0
   -1.9748   -1.5949    2.4796 C   0  0  0  0  0  0  0  0  0  0  0  0
   -1.1902   -1.0524    1.2796 C   0  0  0  0  0  0  0  0  0  0  0  0
    0.1955   -1.6930    1.2112 C   0  0  0  0  0  0  0  0  0  0  0  0
    0.9881   -1.1523    0.0192 C   0  0  0  0  0  0  0  0  0  0  0  0
    3.1482   -2.3860   -5.1628 H   0  0  0  0  0  0  0  0  0  0  0  0
    3.4637   -2.1198   -3.4460 H   0  0  0  0  0  0  0  0  0  0  0  0
    1.8151   -2.4778   -3.9998 H   0  0  0  0  0  0  0  0  0  0  0  0
    3.4241    0.0501   -4.6641 H   0  0  0  0  0  0  0  0  0  0  0  0
    1.8471   -0.3409   -5.3415 H   0  0  0  0  0  0  0  0  0  0  0  0
    1.5074    1.2255   -3.5588 H   0  0  0  0  0  0  0  0  0  0  0  0
    0.8329   -0.3161   -3.0620 H   0  0  0  0  0  0  0  0  0  0  0  0
    2.9118   -0.7594   -1.6800 H   0  0  0  0  0  0  0  0  0  0  0  0
    3.5940    0.7443   -2.2247 H   0  0  0  0  0  0  0  0  0  0  0  0
    2.1470    2.8621    0.0225 H   0  0  0  0  0  0  0  0  0  0  0  0
    3.0324    2.7165   -1.4871 H   0  0  0  0  0  0  0  0  0  0  0  0
    1.2692    2.8864   -1.5319 H   0  0  0  0  0  0  0  0  0  0  0  0
   -0.0306    2.1392    0.4718 H   0  0  0  0  0  0  0  0  0  0  0  0
   -1.7436    2.2958    2.0719 H   0  0  0  0  0  0  0  0  0  0  0  0
   -3.9116   -0.9338    1.7957 H   0  0  0  0  0  0  0  0  0  0  0  0
   -3.7991   -1.2463    3.5262 H   0  0  0  0  0  0  0  0  0  0  0  0
   -1.3694   -1.5382    3.3944 H   0  0  0  0  0  0  0  0  0  0  0  0
   -2.2105   -2.6541    2.3207 H   0  0  0  0  0  0  0  0  0  0  0  0
   -1.7387   -1.3129    0.3626 H   0  0  0  0  0  0  0  0  0  0  0  0
    0.7524   -1.4914    2.1367 H   0  0  0  0  0  0  0  0  0  0  0  0
    0.1100   -2.7830    1.1264 H   0  0  0  0  0  0  0  0  0  0  0  0
    2.0237   -1.4876    0.1493 H   0  0  0  0  0  0  0  0  0  0  0  0
    0.6067   -1.6044   -0.9046 H   0  0  0  0  0  0  0  0  0  0  0  0
  1  2  1  0
  2  3  1  0
  3  4  1  0
  4  5  1  0
  5  6  1  0
  5  7  1  0
  7  8  2  0
  8  9  1  0
  9 10  2  0
 10 11  1  0
 11 12  2  3
 12 13  1  0
 13 14  3  0
 12 15  1  0
 15 16  3  0
 11 17  1  0
 17 18  1  0
 18 19  1  0
 19 20  1  0
 20 21  1  0
 21  7  1  0
 19  9  1  0
  1 22  1  0
  1 23  1  0
  1 24  1  0
  2 25  1  0
  2 26  1  0
  3 27  1  0
  3 28  1  0
  4 29  1  0
  4 30  1  0
  6 31  1  0
  6 32  1  0
  6 33  1  0
  8 34  1  0
 10 35  1  0
 17 36  1  0
 17 37  1  0
 18 38  1  0
 18 39  1  0
 19 40  1  0
 20 41  1  0
 20 42  1  0
 21 43  1  0
 21 44  1  0
M  END
$$$$
